0:0
     RDKit          3D

 64 66  0  0  0  0  0  0  0  0999 V2000
   59.6010   33.4250   49.7540 C   0  0  0  0  0  0  0  0  0  0  0  0
   60.4110   34.1930   48.7060 C   0  0  0  0  0  0  0  0  0  0  0  0
   60.0120   33.8990   47.3120 N   0  0  0  0  0  0  0  0  0  0  0  0
   61.1420   33.8360   46.3590 C   0  0  0  0  0  0  0  0  0  0  0  0
   62.4340   33.4370   47.0700 C   0  0  0  0  0  0  0  0  0  0  0  0
   58.7800   34.5920   46.8540 C   0  0  0  0  0  0  0  0  0  0  0  0
   58.4020   34.3420   45.3770 C   0  0  0  0  0  0  0  0  0  0  0  0
   57.5310   33.1710   45.2610 N   0  0  0  0  0  0  0  0  0  0  0  0
   57.9850   31.8000   45.2800 C   0  0  0  0  0  0  0  0  0  0  0  0
   58.5420   31.2290   46.4410 C   0  0  0  0  0  0  0  0  0  0  0  0
   58.9860   29.9020   46.4500 C   0  0  0  0  0  0  0  0  0  0  0  0
   58.8940   29.1240   45.2810 C   0  0  0  0  0  0  0  0  0  0  0  0
   58.3350   29.6830   44.1240 C   0  0  0  0  0  0  0  0  0  0  0  0
   57.8840   31.0170   44.1110 C   0  0  0  0  0  0  0  0  0  0  0  0
   57.3230   31.5900   42.9580 O   0  0  0  0  0  0  0  0  0  0  0  0
   58.0490   32.3340   41.9850 C   0  0  0  0  0  0  0  0  0  0  0  0
   59.3240   27.6670   45.2820 C   0  0  2  0  0  0  0  0  0  0  0  0
   58.1340   26.7360   45.4410 C   0  0  0  0  0  0  0  0  0  0  0  0
   56.8730   27.2150   45.8350 C   0  0  0  0  0  0  0  0  0  0  0  0
   55.7990   26.3380   46.0080 C   0  0  0  0  0  0  0  0  0  0  0  0
   55.9560   24.9520   45.7990 C   0  0  0  0  0  0  0  0  0  0  0  0
   54.8420   24.0380   45.9850 N   0  0  0  0  0  0  0  0  0  0  0  0
   53.6720   24.0950   45.1000 C   0  0  0  0  0  0  0  0  0  0  0  0
   54.8650   23.0400   47.0630 C   0  0  0  0  0  0  0  0  0  0  0  0
   57.2250   24.4770   45.4120 C   0  0  0  0  0  0  0  0  0  0  0  0
   58.2970   25.3570   45.2390 C   0  0  0  0  0  0  0  0  0  0  0  0
   60.4140   27.3670   46.3350 C   0  0  0  0  0  0  0  0  0  0  0  0
   60.1300   28.0420   47.6420 C   0  0  0  0  0  0  0  0  0  0  0  0
   60.4870   27.5040   48.7230 O   0  0  0  0  0  0  0  0  0  0  0  0
   59.5230   29.3370   47.6540 N   0  0  0  0  0  0  0  0  0  0  0  0
   59.9222   33.7295   50.7610 H   0  0  0  0  0  0  0  0  0  0  0  0
   58.5315   33.6486   49.6269 H   0  0  0  0  0  0  0  0  0  0  0  0
   59.7674   32.3451   49.6269 H   0  0  0  0  0  0  0  0  0  0  0  0
   60.2779   35.2701   48.8853 H   0  0  0  0  0  0  0  0  0  0  0  0
   61.4586   33.8754   48.8139 H   0  0  0  0  0  0  0  0  0  0  0  0
   60.9153   33.0928   45.5803 H   0  0  0  0  0  0  0  0  0  0  0  0
   61.2802   34.8315   45.9119 H   0  0  0  0  0  0  0  0  0  0  0  0
   62.2829   33.4837   48.1586 H   0  0  0  0  0  0  0  0  0  0  0  0
   62.7097   32.4119   46.7817 H   0  0  0  0  0  0  0  0  0  0  0  0
   63.2397   34.1282   46.7817 H   0  0  0  0  0  0  0  0  0  0  0  0
   57.9436   34.2525   47.4826 H   0  0  0  0  0  0  0  0  0  0  0  0
   58.9823   35.6697   46.9418 H   0  0  0  0  0  0  0  0  0  0  0  0
   57.8761   35.2245   44.9837 H   0  0  0  0  0  0  0  0  0  0  0  0
   59.3211   34.1598   44.8008 H   0  0  0  0  0  0  0  0  0  0  0  0
   56.5100   33.3630   45.1490 H   0  0  0  0  0  0  0  0  0  0  0  0
   58.6293   31.8355   47.3545 H   0  0  0  0  0  0  0  0  0  0  0  0
   58.2473   29.0716   43.2138 H   0  0  0  0  0  0  0  0  0  0  0  0
   58.7309   33.0328   42.4916 H   0  0  0  0  0  0  0  0  0  0  0  0
   58.6313   31.6447   41.3559 H   0  0  0  0  0  0  0  0  0  0  0  0
   57.3457   32.8992   41.3559 H   0  0  0  0  0  0  0  0  0  0  0  0
   59.7762   27.4764   44.2975 H   0  0  0  0  0  0  0  0  0  0  0  0
   56.7299   28.2917   46.0091 H   0  0  0  0  0  0  0  0  0  0  0  0
   54.8184   26.7337   46.3111 H   0  0  0  0  0  0  0  0  0  0  0  0
   52.7554   24.1397   45.7064 H   0  0  0  0  0  0  0  0  0  0  0  0
   53.7357   24.9911   44.4652 H   0  0  0  0  0  0  0  0  0  0  0  0
   53.6483   23.1969   44.4652 H   0  0  0  0  0  0  0  0  0  0  0  0
   54.8532   23.5517   48.0367 H   0  0  0  0  0  0  0  0  0  0  0  0
   53.9816   22.3899   46.9797 H   0  0  0  0  0  0  0  0  0  0  0  0
   55.7774   22.4313   46.9797 H   0  0  0  0  0  0  0  0  0  0  0  0
   57.3738   23.4001   45.2440 H   0  0  0  0  0  0  0  0  0  0  0  0
   59.2802   24.9639   44.9409 H   0  0  0  0  0  0  0  0  0  0  0  0
   60.4605   26.2803   46.4989 H   0  0  0  0  0  0  0  0  0  0  0  0
   61.3712   27.7522   45.9536 H   0  0  0  0  0  0  0  0  0  0  0  0
   59.4640   29.8640   48.5540 H   0  0  0  0  0  0  0  0  0  0  0  0
  1  2  1  0
  2  3  1  0
  3  4  1  0
  4  5  1  0
  3  6  1  0
  6  7  1  0
  7  8  1  0
  8  9  1  0
  9 10  2  0
 10 11  1  0
 11 12  2  0
 12 13  1  0
 13 14  2  0
 14 15  1  0
 15 16  1  0
 12 17  1  0
 17 18  1  0
 18 19  2  0
 19 20  1  0
 20 21  2  0
 21 22  1  0
 22 23  1  0
 22 24  1  0
 21 25  1  0
 25 26  2  0
 17 27  1  0
 27 28  1  0
 28 29  2  0
 28 30  1  0
 14  9  1  0
 26 18  1  0
 30 11  1  0
  1 31  1  0
  1 32  1  0
  1 33  1  0
  2 34  1  0
  2 35  1  0
  4 36  1  0
  4 37  1  0
  5 38  1  0
  5 39  1  0
  5 40  1  0
  6 41  1  0
  6 42  1  0
  7 43  1  0
  7 44  1  0
  8 45  1  0
 10 46  1  0
 13 47  1  0
 16 48  1  0
 16 49  1  0
 16 50  1  0
 17 51  1  6
 19 52  1  0
 20 53  1  0
 23 54  1  0
 23 55  1  0
 23 56  1  0
 24 57  1  0
 24 58  1  0
 24 59  1  0
 25 60  1  0
 26 61  1  0
 27 62  1  0
 27 63  1  0
 30 64  1  0
M  END
>  <UniqueID>  (1) 
1

>  <SMILES>  (1) 
CCN(CC)CCNc1cc2c(cc1OC)[C@H](c1ccc(N(C)C)cc1)CC(=O)N2

>  <Energy>  (1) 
71.6258550312123

>  <Genealogy>  (1) 
CCN(CC)CCNc1cc2c(cc1OC)[C@H](c1ccc(N(C)C)cc1)CC(=O)N2 (chirality)
CCN(CC)CCNc1cc2c(cc1OC)[C@H](c1ccc(N(C)C)cc1)CC(=O)N2 (3D coordinates assigned)
CCN(CC)CCNc1cc2c(cc1OC)[C@H](c1ccc(N(C)C)cc1)CC(=O)N2 (nonaromatic ring conformer: 71.6258550312123 kcal/mol)

>  <smiles>  (1) 
CCN(CC)CCNc1cc2c(cc1OC)C(c1ccc(N(C)C)cc1)CC(=O)N2

>  <score_type>  (1) 
oracle

>  <origin>  (1) 
adg

>  <m_score__min__energy>  (1) 
-7.2000000000000002

>  <m_primary>  (1) 
energy

$$$$
1:0
     RDKit          3D

 43 45  0  0  0  0  0  0  0  0999 V2000
   58.8440   30.3230   47.1110 C   0  0  0  0  0  0  0  0  0  0  0  0
   58.1320   30.0330   46.0100 C   0  0  0  0  0  0  0  0  0  0  0  0
   57.5630   28.7930   45.6990 C   0  0  0  0  0  0  0  0  0  0  0  0
   57.6380   27.6550   46.4150 C   0  0  0  0  0  0  0  0  0  0  0  0
   57.1980   26.3430   45.9110 C   0  0  0  0  0  0  0  0  0  0  0  0
   58.2320   25.0610   45.5730 S   0  0  0  0  0  0  0  0  0  0  0  0
   56.9820   24.0200   45.1510 C   0  0  0  0  0  0  0  0  0  0  0  0
   57.2270   22.4780   44.6570 S   0  0  0  0  0  0  0  0  0  0  0  0
   55.7660   24.6160   45.2880 N   0  0  0  0  0  0  0  0  0  0  0  0
   54.4790   23.9880   44.9600 C   0  0  0  0  0  0  0  0  0  0  0  0
   53.9150   23.2920   46.1700 C   0  0  0  0  0  0  0  0  0  0  0  0
   52.5540   22.9400   46.2230 C   0  0  0  0  0  0  0  0  0  0  0  0
   52.0310   22.3190   47.3610 C   0  0  0  0  0  0  0  0  0  0  0  0
   52.8580   22.0460   48.4540 C   0  0  0  0  0  0  0  0  0  0  0  0
   54.2110   22.3930   48.4100 C   0  0  0  0  0  0  0  0  0  0  0  0
   54.7390   23.0140   47.2740 C   0  0  0  0  0  0  0  0  0  0  0  0
   55.8870   25.9040   45.7270 C   0  0  0  0  0  0  0  0  0  0  0  0
   54.7800   26.7000   46.0080 O   0  0  0  0  0  0  0  0  0  0  0  0
   56.9500   28.9450   44.4640 C   0  0  0  0  0  0  0  0  0  0  0  0
   57.1580   30.2530   44.0770 C   0  0  0  0  0  0  0  0  0  0  0  0
   56.6690   30.8420   42.7880 C   0  0  0  0  0  0  0  0  0  0  0  0
   57.8610   30.9230   45.0190 N   0  0  0  0  0  0  0  0  0  0  0  0
   58.3030   32.3230   44.9270 C   0  0  0  0  0  0  0  0  0  0  0  0
   57.2790   33.2490   45.5740 C   0  0  0  0  0  0  0  0  0  0  0  0
   59.2467   31.3365   47.2544 H   0  0  0  0  0  0  0  0  0  0  0  0
   59.0245   29.5470   47.8695 H   0  0  0  0  0  0  0  0  0  0  0  0
   58.0510   27.7083   47.4332 H   0  0  0  0  0  0  0  0  0  0  0  0
   53.7728   24.7615   44.6240 H   0  0  0  0  0  0  0  0  0  0  0  0
   54.6347   23.2480   44.1612 H   0  0  0  0  0  0  0  0  0  0  0  0
   51.8989   23.1542   45.3657 H   0  0  0  0  0  0  0  0  0  0  0  0
   50.9663   22.0447   47.3962 H   0  0  0  0  0  0  0  0  0  0  0  0
   52.4440   21.5581   49.3487 H   0  0  0  0  0  0  0  0  0  0  0  0
   54.8616   22.1773   49.2704 H   0  0  0  0  0  0  0  0  0  0  0  0
   55.8044   23.2862   47.2442 H   0  0  0  0  0  0  0  0  0  0  0  0
   56.4041   28.1727   43.9022 H   0  0  0  0  0  0  0  0  0  0  0  0
   55.9798   31.6721   43.0023 H   0  0  0  0  0  0  0  0  0  0  0  0
   57.5252   31.2167   42.2080 H   0  0  0  0  0  0  0  0  0  0  0  0
   56.1432   30.0693   42.2080 H   0  0  0  0  0  0  0  0  0  0  0  0
   59.2679   32.4328   45.4436 H   0  0  0  0  0  0  0  0  0  0  0  0
   58.4082   32.5942   43.8662 H   0  0  0  0  0  0  0  0  0  0  0  0
   57.3592   33.1765   46.6687 H   0  0  0  0  0  0  0  0  0  0  0  0
   57.4719   34.2854   45.2601 H   0  0  0  0  0  0  0  0  0  0  0  0
   56.2671   32.9531   45.2601 H   0  0  0  0  0  0  0  0  0  0  0  0
  1  2  2  0
  2  3  1  0
  3  4  2  3
  4  5  1  0
  5  6  1  0
  6  7  1  0
  7  8  2  0
  7  9  1  0
  9 10  1  0
 10 11  1  0
 11 12  2  0
 12 13  1  0
 13 14  2  0
 14 15  1  0
 15 16  2  0
  9 17  1  0
 17 18  1  0
  3 19  1  0
 19 20  2  0
 20 21  1  0
 20 22  1  0
 22 23  1  0
 23 24  1  0
 22  2  1  0
 17  5  2  0
 16 11  1  0
  1 25  1  0
  1 26  1  0
  4 27  1  0
 10 28  1  0
 10 29  1  0
 12 30  1  0
 13 31  1  0
 14 32  1  0
 15 33  1  0
 16 34  1  0
 19 35  1  0
 21 36  1  0
 21 37  1  0
 21 38  1  0
 23 39  1  0
 23 40  1  0
 24 41  1  0
 24 42  1  0
 24 43  1  0
M  CHG  1  18  -1
M  END
>  <UniqueID>  (2) 
2

>  <SMILES>  (2) 
C=c1c(=Cc2sc(=S)n(Cc3ccccc3)c2[O-])cc(C)n1CC

>  <Energy>  (2) 
107.73506062570682

>  <Genealogy>  (2) 
C=c1c(=Cc2sc(=S)n(Cc3ccccc3)c2[O-])cc(C)n1CC (protonated)
C=c1c(=Cc2sc(=S)n(Cc3ccccc3)c2[O-])cc(C)n1CC (3D coordinates assigned)
C=c1c(=Cc2sc(=S)n(Cc3ccccc3)c2[O-])cc(C)n1CC (optimized conformer: 107.73506062570682 kcal/mol)

>  <smiles>  (2) 
C=c1c(=Cc2sc(=S)n(Cc3ccccc3)c2O)cc(C)n1CC

>  <score_type>  (2) 
oracle

>  <origin>  (2) 
adg

>  <m_score__min__energy>  (2) 
-12.15

>  <m_primary>  (2) 
energy

$$$$
2:0
     RDKit          3D

 47 49  0  0  0  0  0  0  0  0999 V2000
   60.0090   34.2060   49.3670 C   0  0  0  0  0  0  0  0  0  0  0  0
   61.4810   34.2010   48.9640 C   0  0  0  0  0  0  0  0  0  0  0  0
   61.8530   32.8830   48.3960 N   0  0  0  0  0  0  0  0  0  0  0  0
   63.3050   32.8140   48.1180 C   0  0  0  0  0  0  0  0  0  0  0  0
   63.6100   33.4160   46.7490 C   0  0  0  0  0  0  0  0  0  0  0  0
   61.4270   31.7780   49.2860 C   0  0  0  0  0  0  0  0  0  0  0  0
   60.5890   30.7610   48.4930 C   0  0  0  0  0  0  0  0  0  0  0  0
   60.9900   30.6790   47.0760 N   0  0  0  0  0  0  0  0  0  0  0  0
   59.8400   30.6960   46.1880 C   0  0  0  0  0  0  0  0  0  0  0  0
   59.1500   31.8870   45.8150 C   0  0  0  0  0  0  0  0  0  0  0  0
   59.5550   33.1610   46.2760 C   0  0  0  0  0  0  0  0  0  0  0  0
   58.9030   34.3180   45.8580 C   0  0  0  0  0  0  0  0  0  0  0  0
   57.8420   34.2400   44.9660 C   0  0  0  0  0  0  0  0  0  0  0  0
   57.4020   33.0010   44.5070 C   0  0  0  0  0  0  0  0  0  0  0  0
   58.0130   31.7970   44.9380 C   0  0  0  0  0  0  0  0  0  0  0  0
   57.5400   30.5620   44.5180 N   0  0  0  0  0  0  0  0  0  0  0  0
   56.2780   30.4520   43.7570 C   0  0  0  0  0  0  0  0  0  0  0  0
   58.2630   29.4340   44.8190 C   0  0  0  0  0  0  0  0  0  0  0  0
   58.0070   28.1250   44.3510 C   0  0  0  0  0  0  0  0  0  0  0  0
   58.9000   27.1790   44.8380 C   0  0  0  0  0  0  0  0  0  0  0  0
   60.0170   27.9520   45.8290 S   0  0  0  0  0  0  0  0  0  0  0  0
   59.3720   29.4970   45.6450 C   0  0  0  0  0  0  0  0  0  0  0  0
   59.9292   34.2063   50.4641 H   0  0  0  0  0  0  0  0  0  0  0  0
   59.5215   35.1058   48.9637 H   0  0  0  0  0  0  0  0  0  0  0  0
   59.5154   33.3095   48.9637 H   0  0  0  0  0  0  0  0  0  0  0  0
   61.6538   34.9832   48.2101 H   0  0  0  0  0  0  0  0  0  0  0  0
   62.0971   34.3943   49.8545 H   0  0  0  0  0  0  0  0  0  0  0  0
   63.8498   33.3756   48.8912 H   0  0  0  0  0  0  0  0  0  0  0  0
   63.6216   31.7606   48.1249 H   0  0  0  0  0  0  0  0  0  0  0  0
   64.1037   34.3904   46.8787 H   0  0  0  0  0  0  0  0  0  0  0  0
   64.2743   32.7398   46.1908 H   0  0  0  0  0  0  0  0  0  0  0  0
   62.6719   33.5516   46.1908 H   0  0  0  0  0  0  0  0  0  0  0  0
   62.3160   31.2769   49.6966 H   0  0  0  0  0  0  0  0  0  0  0  0
   60.8190   32.1873   50.1062 H   0  0  0  0  0  0  0  0  0  0  0  0
   60.7118   29.7689   48.9520 H   0  0  0  0  0  0  0  0  0  0  0  0
   59.5415   31.0953   48.5244 H   0  0  0  0  0  0  0  0  0  0  0  0
   61.6970   31.4100   46.8480 H   0  0  0  0  0  0  0  0  0  0  0  0
   61.5050   29.7780   46.9420 H   0  0  0  0  0  0  0  0  0  0  0  0
   60.3994   33.2392   46.9766 H   0  0  0  0  0  0  0  0  0  0  0  0
   59.2299   35.2979   46.2361 H   0  0  0  0  0  0  0  0  0  0  0  0
   57.3473   35.1598   44.6207 H   0  0  0  0  0  0  0  0  0  0  0  0
   56.5639   32.9559   43.7960 H   0  0  0  0  0  0  0  0  0  0  0  0
   55.4328   30.3783   44.4572 H   0  0  0  0  0  0  0  0  0  0  0  0
   56.1529   31.3426   43.1237 H   0  0  0  0  0  0  0  0  0  0  0  0
   56.3089   29.5531   43.1237 H   0  0  0  0  0  0  0  0  0  0  0  0
   57.1809   27.8793   43.6675 H   0  0  0  0  0  0  0  0  0  0  0  0
   58.8798   26.1025   44.6127 H   0  0  0  0  0  0  0  0  0  0  0  0
  1  2  1  0
  2  3  1  0
  3  4  1  0
  4  5  1  0
  3  6  1  0
  6  7  1  0
  7  8  1  0
  8  9  1  0
  9 10  2  0
 10 11  1  0
 11 12  2  0
 12 13  1  0
 13 14  2  0
 14 15  1  0
 15 16  2  0
 16 17  1  0
 16 18  1  0
 18 19  1  0
 19 20  2  0
 20 21  1  0
 21 22  1  0
 22  9  1  0
 15 10  1  0
 22 18  2  0
  1 23  1  0
  1 24  1  0
  1 25  1  0
  2 26  1  0
  2 27  1  0
  4 28  1  0
  4 29  1  0
  5 30  1  0
  5 31  1  0
  5 32  1  0
  6 33  1  0
  6 34  1  0
  7 35  1  0
  7 36  1  0
  8 37  1  0
  8 38  1  0
 11 39  1  0
 12 40  1  0
 13 41  1  0
 14 42  1  0
 17 43  1  0
 17 44  1  0
 17 45  1  0
 19 46  1  0
 20 47  1  0
M  CHG  2   8   1  16   1
M  END
>  <UniqueID>  (3) 
3

>  <SMILES>  (3) 
CCN(CC)CC[NH2+]c1c2ccccc2[n+](C)c2ccsc12

>  <Energy>  (3) 
94.07481804572568

>  <Genealogy>  (3) 
CCN(CC)CC[NH2+]c1c2ccccc2[n+](C)c2ccsc12 (protonated)
CCN(CC)CC[NH2+]c1c2ccccc2[n+](C)c2ccsc12 (3D coordinates assigned)
CCN(CC)CC[NH2+]c1c2ccccc2[n+](C)c2ccsc12 (optimized conformer: 94.07481804572568 kcal/mol)

>  <smiles>  (3) 
CCN(CC)CCNc1c2ccccc2[n+](C)c2ccsc12

>  <score_type>  (3) 
oracle

>  <origin>  (3) 
adg

>  <m_score__min__energy>  (3) 
-3.5899999999999999

>  <m_primary>  (3) 
energy

$$$$
3:0
     RDKit          3D

 34 36  0  0  0  0  0  0  0  0999 V2000
   60.8000   28.6920   45.0100 C   0  0  0  0  0  0  0  0  0  0  0  0
   60.0130   29.0830   46.2560 C   0  0  0  0  0  0  0  0  0  0  0  0
   58.7650   29.7550   45.8790 N   0  0  0  0  0  0  0  0  0  0  0  0
   57.6520   29.2140   45.3000 C   0  0  0  0  0  0  0  0  0  0  0  0
   57.4270   27.7700   45.1000 C   0  0  0  0  0  0  0  0  0  0  0  0
   57.9960   27.1260   43.9930 C   0  0  0  0  0  0  0  0  0  0  0  0
   57.7770   25.7630   43.7830 C   0  0  0  0  0  0  0  0  0  0  0  0
   56.9760   25.0370   44.6690 C   0  0  0  0  0  0  0  0  0  0  0  0
   56.3800   25.6690   45.7670 C   0  0  0  0  0  0  0  0  0  0  0  0
   55.5760   24.9000   46.6210 O   0  0  0  0  0  0  0  0  0  0  0  0
   55.9580   23.6430   47.1680 C   0  0  0  0  0  0  0  0  0  0  0  0
   56.6020   27.0450   45.9740 C   0  0  0  0  0  0  0  0  0  0  0  0
   56.7600   30.1450   44.8640 N   0  0  0  0  0  0  0  0  0  0  0  0
   57.3570   31.3000   45.1960 C   0  0  0  0  0  0  0  0  0  0  0  0
   56.8910   32.5470   44.9380 N   0  0  0  0  0  0  0  0  0  0  0  0
   57.6520   33.6260   45.2940 C   0  0  0  0  0  0  0  0  0  0  0  0
   58.9160   33.4420   45.9040 C   0  0  0  0  0  0  0  0  0  0  0  0
   59.9810   34.9540   46.3790 Br  0  0  0  0  0  0  0  0  0  0  0  0
   59.3880   32.1400   46.1540 C   0  0  0  0  0  0  0  0  0  0  0  0
   58.5580   31.0800   45.7900 C   0  0  0  0  0  0  0  0  0  0  0  0
   61.7483   28.2209   45.3081 H   0  0  0  0  0  0  0  0  0  0  0  0
   60.2101   27.9822   44.4115 H   0  0  0  0  0  0  0  0  0  0  0  0
   61.0094   29.5909   44.4115 H   0  0  0  0  0  0  0  0  0  0  0  0
   59.7773   28.1781   46.8353 H   0  0  0  0  0  0  0  0  0  0  0  0
   60.6209   29.7706   46.8624 H   0  0  0  0  0  0  0  0  0  0  0  0
   58.6174   27.6963   43.2869 H   0  0  0  0  0  0  0  0  0  0  0  0
   58.2356   25.2599   42.9190 H   0  0  0  0  0  0  0  0  0  0  0  0
   56.8128   23.9620   44.5025 H   0  0  0  0  0  0  0  0  0  0  0  0
   55.9405   23.7005   48.2664 H   0  0  0  0  0  0  0  0  0  0  0  0
   55.2550   22.8673   46.8302 H   0  0  0  0  0  0  0  0  0  0  0  0
   56.9737   23.3896   46.8302 H   0  0  0  0  0  0  0  0  0  0  0  0
   56.1261   27.5538   46.8253 H   0  0  0  0  0  0  0  0  0  0  0  0
   57.2794   34.6436   45.1051 H   0  0  0  0  0  0  0  0  0  0  0  0
   60.3704   31.9657   46.6171 H   0  0  0  0  0  0  0  0  0  0  0  0
  1  2  1  0
  2  3  1  0
  3  4  1  0
  4  5  1  0
  5  6  2  0
  6  7  1  0
  7  8  2  0
  8  9  1  0
  9 10  1  0
 10 11  1  0
  9 12  2  0
  4 13  2  0
 13 14  1  0
 14 15  2  0
 15 16  1  0
 16 17  2  0
 17 18  1  0
 17 19  1  0
 19 20  2  0
 20  3  1  0
 12  5  1  0
 20 14  1  0
  1 21  1  0
  1 22  1  0
  1 23  1  0
  2 24  1  0
  2 25  1  0
  6 26  1  0
  7 27  1  0
  8 28  1  0
 11 29  1  0
 11 30  1  0
 11 31  1  0
 12 32  1  0
 16 33  1  0
 19 34  1  0
M  END
>  <UniqueID>  (4) 
4

>  <SMILES>  (4) 
CCn1c(-c2cccc(OC)c2)nc2ncc(Br)cc21

>  <Energy>  (4) 
77.52933019647054

>  <Genealogy>  (4) 
CCn1c(-c2cccc(OC)c2)nc2ncc(Br)cc21 (3D coordinates assigned)
CCn1c(-c2cccc(OC)c2)nc2ncc(Br)cc21 (optimized conformer: 77.52933019647054 kcal/mol)

>  <smiles>  (4) 
CCn1c(-c2cccc(OC)c2)nc2ncc(Br)cc21

>  <score_type>  (4) 
oracle

>  <origin>  (4) 
adg

>  <m_score__min__energy>  (4) 
-7.29

>  <m_primary>  (4) 
energy

$$$$
4:0
     RDKit          3D

 24 24  0  0  0  0  0  0  0  0999 V2000
   58.7000   34.3440   45.6580 C   0  0  0  0  0  0  0  0  0  0  0  0
   57.7500   33.4140   45.5300 C   0  0  0  0  0  0  0  0  0  0  0  0
   58.1030   31.9780   45.2720 C   0  0  0  0  0  0  0  0  0  0  0  0
   57.6170   31.5630   43.9570 N   0  0  0  0  0  0  0  0  0  0  0  0
   57.7760   32.2320   42.7970 C   0  0  0  0  0  0  0  0  0  0  0  0
   57.0950   31.5520   41.8090 C   0  0  0  0  0  0  0  0  0  0  0  0
   56.5050   30.4720   42.3540 N   0  0  0  0  0  0  0  0  0  0  0  0
   56.8360   30.5040   43.6580 C   0  0  0  0  0  0  0  0  0  0  0  0
   56.2500   29.2990   44.8560 S   0  0  0  0  0  0  0  0  0  0  0  0
   57.8470   28.4230   44.9910 C   0  0  0  0  0  0  0  0  0  0  0  0
   58.1280   27.6020   43.7380 C   0  0  0  0  0  0  0  0  0  0  0  0
   58.4223   35.3915   45.8469 H   0  0  0  0  0  0  0  0  0  0  0  0
   59.7601   34.0625   45.5746 H   0  0  0  0  0  0  0  0  0  0  0  0
   56.6926   33.7048   45.6149 H   0  0  0  0  0  0  0  0  0  0  0  0
   59.1962   31.8612   45.3080 H   0  0  0  0  0  0  0  0  0  0  0  0
   57.6307   31.3501   46.0419 H   0  0  0  0  0  0  0  0  0  0  0  0
   58.3502   33.1605   42.6619 H   0  0  0  0  0  0  0  0  0  0  0  0
   57.0427   31.8443   40.7498 H   0  0  0  0  0  0  0  0  0  0  0  0
   55.9040   29.7700   41.8690 H   0  0  0  0  0  0  0  0  0  0  0  0
   58.6517   29.1609   45.1254 H   0  0  0  0  0  0  0  0  0  0  0  0
   57.8008   27.7414   45.8532 H   0  0  0  0  0  0  0  0  0  0  0  0
   58.4717   26.5978   44.0270 H   0  0  0  0  0  0  0  0  0  0  0  0
   57.2078   27.5170   43.1413 H   0  0  0  0  0  0  0  0  0  0  0  0
   58.9073   28.0987   43.1413 H   0  0  0  0  0  0  0  0  0  0  0  0
  1  2  2  0
  2  3  1  0
  3  4  1  0
  4  5  1  0
  5  6  2  0
  6  7  1  0
  7  8  2  0
  8  9  1  0
  9 10  1  0
 10 11  1  0
  8  4  1  0
  1 12  1  0
  1 13  1  0
  2 14  1  0
  3 15  1  0
  3 16  1  0
  5 17  1  0
  6 18  1  0
  7 19  1  0
 10 20  1  0
 10 21  1  0
 11 22  1  0
 11 23  1  0
 11 24  1  0
M  CHG  1   7   1
M  END
>  <UniqueID>  (5) 
5

>  <SMILES>  (5) 
C=CCn1cc[nH+]c1SCC

>  <Energy>  (5) 
41.90608288948865

>  <Genealogy>  (5) 
C=CCn1cc[nH+]c1SCC (protonated)
C=CCn1cc[nH+]c1SCC (3D coordinates assigned)
C=CCn1cc[nH+]c1SCC (optimized conformer: 41.90608288948865 kcal/mol)

>  <smiles>  (5) 
C=CCn1ccnc1SCC

>  <score_type>  (5) 
oracle

>  <origin>  (5) 
adg

>  <m_score__min__energy>  (5) 
-2.8999999999999999

>  <m_primary>  (5) 
energy

$$$$
5:0
     RDKit          3D

 47 47  0  0  0  0  0  0  0  0999 V2000
   57.6590   32.3070   41.7600 C   0  0  0  0  0  0  0  0  0  0  0  0
   57.2330   31.3780   42.4010 C   0  0  0  0  0  0  0  0  0  0  0  0
   56.7100   30.2510   43.1840 C   0  0  0  0  0  0  0  0  0  0  0  0
   56.5670   30.6270   44.6070 N   0  0  0  0  0  0  0  0  0  0  0  0
   57.1470   31.9560   44.8810 C   0  0  0  0  0  0  0  0  0  0  0  0
   57.1340   29.5950   45.5050 C   0  0  0  0  0  0  0  0  0  0  0  0
   58.5030   29.9150   45.9530 C   0  0  0  0  0  0  0  0  0  0  0  0
   59.6220   30.1850   46.3140 C   0  0  0  0  0  0  0  0  0  0  0  0
   60.9890   30.5120   46.7510 C   0  0  0  0  0  0  0  0  0  0  0  0
   61.1100   30.4930   48.2280 N   0  0  2  0  0  0  0  0  0  0  0  0
   59.8940   31.0880   48.8180 C   0  0  0  0  0  0  0  0  0  0  0  0
   62.3260   31.2280   48.6720 C   0  0  0  0  0  0  0  0  0  0  0  0
   63.2530   31.5890   47.4960 C   0  0  0  0  0  0  0  0  0  0  0  0
   63.6920   32.9900   47.6030 N   0  0  0  0  0  0  0  0  0  0  0  0
   63.0110   33.8800   46.6450 C   0  0  0  0  0  0  0  0  0  0  0  0
   61.5390   34.0270   46.9490 C   0  0  0  0  0  0  0  0  0  0  0  0
   60.5930   33.9600   45.9130 C   0  0  0  0  0  0  0  0  0  0  0  0
   59.2280   34.0930   46.1930 C   0  0  0  0  0  0  0  0  0  0  0  0
   58.7990   34.2910   47.5090 C   0  0  0  0  0  0  0  0  0  0  0  0
   59.7330   34.3500   48.5470 C   0  0  0  0  0  0  0  0  0  0  0  0
   61.0970   34.2190   48.2700 C   0  0  0  0  0  0  0  0  0  0  0  0
   58.0474   33.1541   41.1755 H   0  0  0  0  0  0  0  0  0  0  0  0
   55.7264   29.9603   42.7864 H   0  0  0  0  0  0  0  0  0  0  0  0
   57.4149   29.4099   43.1088 H   0  0  0  0  0  0  0  0  0  0  0  0
   57.2141   32.1097   45.9681 H   0  0  0  0  0  0  0  0  0  0  0  0
   58.1528   32.0152   44.4396 H   0  0  0  0  0  0  0  0  0  0  0  0
   56.5065   32.7337   44.4396 H   0  0  0  0  0  0  0  0  0  0  0  0
   56.4868   29.5054   46.3899 H   0  0  0  0  0  0  0  0  0  0  0  0
   57.1832   28.6538   44.9377 H   0  0  0  0  0  0  0  0  0  0  0  0
   61.6854   29.7739   46.3265 H   0  0  0  0  0  0  0  0  0  0  0  0
   61.2286   31.5265   46.3997 H   0  0  0  0  0  0  0  0  0  0  0  0
   61.1610   29.4940   48.5460 H   0  0  0  0  0  0  0  0  0  0  0  0
   59.9643   31.0536   49.9152 H   0  0  0  0  0  0  0  0  0  0  0  0
   59.8007   32.1335   48.4891 H   0  0  0  0  0  0  0  0  0  0  0  0
   59.0112   30.5200   48.4891 H   0  0  0  0  0  0  0  0  0  0  0  0
   62.0148   32.1556   49.1747 H   0  0  0  0  0  0  0  0  0  0  0  0
   62.8866   30.5706   49.3528 H   0  0  0  0  0  0  0  0  0  0  0  0
   64.1339   30.9304   47.5129 H   0  0  0  0  0  0  0  0  0  0  0  0
   62.7023   31.4576   46.5529 H   0  0  0  0  0  0  0  0  0  0  0  0
   64.7260   33.0370   47.4410 H   0  0  0  0  0  0  0  0  0  0  0  0
   63.4823   34.8730   46.6875 H   0  0  0  0  0  0  0  0  0  0  0  0
   63.1059   33.4340   45.6440 H   0  0  0  0  0  0  0  0  0  0  0  0
   60.9264   33.8023   44.8767 H   0  0  0  0  0  0  0  0  0  0  0  0
   58.4921   34.0417   45.3770 H   0  0  0  0  0  0  0  0  0  0  0  0
   57.7264   34.4003   47.7273 H   0  0  0  0  0  0  0  0  0  0  0  0
   59.3946   34.4996   49.5829 H   0  0  0  0  0  0  0  0  0  0  0  0
   61.8286   34.2664   49.0901 H   0  0  0  0  0  0  0  0  0  0  0  0
  1  2  3  0
  2  3  1  0
  3  4  1  0
  4  5  1  0
  4  6  1  0
  6  7  1  0
  7  8  3  0
  8  9  1  0
  9 10  1  0
 10 11  1  0
 10 12  1  0
 12 13  1  0
 13 14  1  0
 14 15  1  0
 15 16  1  0
 16 17  2  0
 17 18  1  0
 18 19  2  0
 19 20  1  0
 20 21  2  0
 21 16  1  0
  1 22  1  0
  3 23  1  0
  3 24  1  0
  5 25  1  0
  5 26  1  0
  5 27  1  0
  6 28  1  0
  6 29  1  0
  9 30  1  0
  9 31  1  0
 10 32  1  1
 11 33  1  0
 11 34  1  0
 11 35  1  0
 12 36  1  0
 12 37  1  0
 13 38  1  0
 13 39  1  0
 14 40  1  0
 15 41  1  0
 15 42  1  0
 17 43  1  0
 18 44  1  0
 19 45  1  0
 20 46  1  0
 21 47  1  0
M  CHG  1  10   1
M  END
>  <UniqueID>  (6) 
6

>  <SMILES>  (6) 
C#CCN(C)CC#CC[N@H+](C)CCNCc1ccccc1

>  <Energy>  (6) 
40.885076424324026

>  <Genealogy>  (6) 
C#CCN(C)CC#CC[NH+](C)CCNCc1ccccc1 (protonated)
C#CCN(C)CC#CC[N@H+](C)CCNCc1ccccc1 (chirality)
C#CCN(C)CC#CC[N@H+](C)CCNCc1ccccc1 (3D coordinates assigned)
C#CCN(C)CC#CC[N@H+](C)CCNCc1ccccc1 (optimized conformer: 40.885076424324026 kcal/mol)

>  <smiles>  (6) 
C#CCN(C)CC#CCN(C)CCNCc1ccccc1

>  <score_type>  (6) 
oracle

>  <origin>  (6) 
adg

>  <m_score__min__energy>  (6) 
-4.1600000000000001

>  <m_primary>  (6) 
energy

$$$$
6:0
     RDKit          3D

 47 48  0  0  0  0  0  0  0  0999 V2000
   65.8180   32.9930   49.7780 C   0  0  0  0  0  0  0  0  0  0  0  0
   64.4600   32.2860   49.6040 C   0  0  0  0  0  0  0  0  0  0  0  0
   63.8570   32.3700   48.2390 N   0  0  0  0  0  0  0  0  0  0  0  0
   63.7800   33.7590   47.7070 C   0  0  0  0  0  0  0  0  0  0  0  0
   63.0180   33.8570   46.3770 C   0  0  0  0  0  0  0  0  0  0  0  0
   62.6030   31.5800   48.1080 C   0  0  0  0  0  0  0  0  0  0  0  0
   61.6510   31.6690   49.3120 C   0  0  0  0  0  0  0  0  0  0  0  0
   61.3940   33.4130   49.8040 S   0  0  0  0  0  0  0  0  0  0  0  0
   59.6950   33.5150   49.2180 C   0  0  0  0  0  0  0  0  0  0  0  0
   58.7090   32.6220   49.7650 S   0  0  0  0  0  0  0  0  0  0  0  0
   59.2990   34.5790   48.2270 C   0  0  0  0  0  0  0  0  0  0  0  0
   59.6490   34.1730   46.8620 N   0  0  0  0  0  0  0  0  0  0  0  0
   59.0940   33.0150   46.2140 C   0  0  0  0  0  0  0  0  0  0  0  0
   57.9120   33.1480   45.4710 C   0  0  0  0  0  0  0  0  0  0  0  0
   57.3410   32.0470   44.8310 C   0  0  0  0  0  0  0  0  0  0  0  0
   57.9320   30.7750   44.9330 C   0  0  0  0  0  0  0  0  0  0  0  0
   57.3770   29.6410   44.2940 C   0  0  0  0  0  0  0  0  0  0  0  0
   55.9020   29.7310   43.3340 Cl  0  0  0  0  0  0  0  0  0  0  0  0
   57.9970   28.3950   44.4280 C   0  0  0  0  0  0  0  0  0  0  0  0
   59.1590   28.2570   45.1860 C   0  0  0  0  0  0  0  0  0  0  0  0
   59.7190   29.3680   45.8200 C   0  0  0  0  0  0  0  0  0  0  0  0
   59.1190   30.6300   45.6960 C   0  0  0  0  0  0  0  0  0  0  0  0
   59.6880   31.7450   46.3320 C   0  0  0  0  0  0  0  0  0  0  0  0
   66.0373   33.1072   50.8499 H   0  0  0  0  0  0  0  0  0  0  0  0
   66.6078   32.3916   49.3042 H   0  0  0  0  0  0  0  0  0  0  0  0
   65.7783   33.9849   49.3042 H   0  0  0  0  0  0  0  0  0  0  0  0
   64.5989   31.2223   49.8475 H   0  0  0  0  0  0  0  0  0  0  0  0
   63.7613   32.8088   50.2737 H   0  0  0  0  0  0  0  0  0  0  0  0
   64.5420   31.8750   47.6170 H   0  0  0  0  0  0  0  0  0  0  0  0
   63.2694   34.3898   48.4496 H   0  0  0  0  0  0  0  0  0  0  0  0
   64.8106   34.0940   47.5183 H   0  0  0  0  0  0  0  0  0  0  0  0
   61.9454   33.9949   46.5782 H   0  0  0  0  0  0  0  0  0  0  0  0
   63.3960   34.7139   45.8001 H   0  0  0  0  0  0  0  0  0  0  0  0
   63.1669   32.9323   45.8001 H   0  0  0  0  0  0  0  0  0  0  0  0
   62.0640   31.9401   47.2193 H   0  0  0  0  0  0  0  0  0  0  0  0
   62.9095   30.5261   48.0353 H   0  0  0  0  0  0  0  0  0  0  0  0
   60.6825   31.2237   49.0405 H   0  0  0  0  0  0  0  0  0  0  0  0
   62.0971   31.1246   50.1573 H   0  0  0  0  0  0  0  0  0  0  0  0
   58.2129   34.7425   48.2877 H   0  0  0  0  0  0  0  0  0  0  0  0
   59.8390   35.5062   48.4693 H   0  0  0  0  0  0  0  0  0  0  0  0
   60.5450   34.5510   46.4770 H   0  0  0  0  0  0  0  0  0  0  0  0
   57.4286   34.1329   45.3916 H   0  0  0  0  0  0  0  0  0  0  0  0
   56.4210   32.1753   44.2419 H   0  0  0  0  0  0  0  0  0  0  0  0
   57.5637   27.5148   43.9304 H   0  0  0  0  0  0  0  0  0  0  0  0
   59.6358   27.2706   45.2848 H   0  0  0  0  0  0  0  0  0  0  0  0
   60.6344   29.2532   46.4191 H   0  0  0  0  0  0  0  0  0  0  0  0
   60.6053   31.6247   46.9271 H   0  0  0  0  0  0  0  0  0  0  0  0
  1  2  1  0
  2  3  1  0
  3  4  1  0
  4  5  1  0
  3  6  1  0
  6  7  1  0
  7  8  1  0
  8  9  1  0
  9 10  2  0
  9 11  1  0
 11 12  1  0
 12 13  1  0
 13 14  2  0
 14 15  1  0
 15 16  2  0
 16 17  1  0
 17 18  1  0
 17 19  2  0
 19 20  1  0
 20 21  2  0
 21 22  1  0
 22 23  2  0
 23 13  1  0
 22 16  1  0
  1 24  1  0
  1 25  1  0
  1 26  1  0
  2 27  1  0
  2 28  1  0
  3 29  1  0
  4 30  1  0
  4 31  1  0
  5 32  1  0
  5 33  1  0
  5 34  1  0
  6 35  1  0
  6 36  1  0
  7 37  1  0
  7 38  1  0
 11 39  1  0
 11 40  1  0
 12 41  1  0
 14 42  1  0
 15 43  1  0
 19 44  1  0
 20 45  1  0
 21 46  1  0
 23 47  1  0
M  CHG  1   3   1
M  END
>  <UniqueID>  (7) 
7

>  <SMILES>  (7) 
CC[NH+](CC)CCSC(=S)CNc1ccc2c(Cl)cccc2c1

>  <Energy>  (7) 
56.290992841082925

>  <Genealogy>  (7) 
CC[NH+](CC)CCSC(=S)CNc1ccc2c(Cl)cccc2c1 (protonated)
CC[NH+](CC)CCSC(=S)CNc1ccc2c(Cl)cccc2c1 (3D coordinates assigned)
CC[NH+](CC)CCSC(=S)CNc1ccc2c(Cl)cccc2c1 (optimized conformer: 56.290992841082925 kcal/mol)

>  <smiles>  (7) 
CCN(CC)CCSC(=S)CNc1ccc2c(Cl)cccc2c1

>  <score_type>  (7) 
oracle

>  <origin>  (7) 
adg

>  <m_score__min__energy>  (7) 
-5.8700000000000001

>  <m_primary>  (7) 
energy

$$$$
7:0
     RDKit          3D

 68 70  0  0  0  0  0  0  0  0999 V2000
   61.9100   30.5550   53.8140 C   0  0  0  0  0  0  0  0  0  0  0  0
   60.8770   31.6100   54.2080 C   0  0  0  0  0  0  0  0  0  0  0  0
   60.6400   32.5910   53.1240 N   0  0  0  0  0  0  0  0  0  0  0  0
   61.8360   33.4450   52.9000 C   0  0  0  0  0  0  0  0  0  0  0  0
   62.4530   33.8750   54.2300 C   0  0  0  0  0  0  0  0  0  0  0  0
   59.4010   33.3950   53.2940 C   0  0  0  0  0  0  0  0  0  0  0  0
   58.5630   33.5720   52.0060 C   0  0  0  0  0  0  0  0  0  0  0  0
   58.0430   32.3250   51.5600 O   0  0  0  0  0  0  0  0  0  0  0  0
   56.8700   31.9490   52.2650 C   0  0  0  0  0  0  0  0  0  0  0  0
   56.7480   30.4200   52.3210 C   0  0  0  0  0  0  0  0  0  0  0  0
   57.9750   29.7640   52.9870 C   0  0  0  0  0  0  0  0  0  0  0  0
   59.2340   30.0780   52.2940 N   0  0  0  0  0  0  0  0  0  0  0  0
   59.4840   29.2010   51.1430 C   0  0  0  0  0  0  0  0  0  0  0  0
   60.2020   30.0020   50.0540 C   0  0  0  0  0  0  0  0  0  0  0  0
   59.9940   31.4500   50.2270 N   0  0  0  0  0  0  0  0  0  0  0  0
   60.8500   32.2000   49.3170 C   0  0  0  0  0  0  0  0  0  0  0  0
   60.2840   32.9740   48.2680 C   0  0  0  0  0  0  0  0  0  0  0  0
   58.8810   33.1360   48.1300 C   0  0  0  0  0  0  0  0  0  0  0  0
   58.3440   33.9430   47.1300 C   0  0  0  0  0  0  0  0  0  0  0  0
   59.1790   34.6220   46.2580 C   0  0  0  0  0  0  0  0  0  0  0  0
   60.5590   34.4800   46.3640 C   0  0  0  0  0  0  0  0  0  0  0  0
   61.1420   33.6320   47.3420 C   0  0  0  0  0  0  0  0  0  0  0  0
   62.5090   33.4630   47.4180 N   0  0  0  0  0  0  0  0  0  0  0  0
   63.3700   33.8720   46.2830 C   0  0  0  0  0  0  0  0  0  0  0  0
   63.0740   32.9080   48.5490 C   0  0  0  0  0  0  0  0  0  0  0  0
   64.4680   33.0060   48.7990 C   0  0  0  0  0  0  0  0  0  0  0  0
   65.0400   32.4340   49.9310 C   0  0  0  0  0  0  0  0  0  0  0  0
   64.2430   31.7680   50.8530 C   0  0  0  0  0  0  0  0  0  0  0  0
   62.8700   31.6860   50.6580 C   0  0  0  0  0  0  0  0  0  0  0  0
   62.2560   32.2510   49.5120 C   0  0  0  0  0  0  0  0  0  0  0  0
   62.3449   30.1108   54.7215 H   0  0  0  0  0  0  0  0  0  0  0  0
   61.4226   29.7690   53.2184 H   0  0  0  0  0  0  0  0  0  0  0  0
   62.7061   31.0258   53.2184 H   0  0  0  0  0  0  0  0  0  0  0  0
   59.9280   31.1062   54.4440 H   0  0  0  0  0  0  0  0  0  0  0  0
   61.2668   32.1564   55.0795 H   0  0  0  0  0  0  0  0  0  0  0  0
   62.5814   32.8775   52.3235 H   0  0  0  0  0  0  0  0  0  0  0  0
   61.5280   34.3447   52.3472 H   0  0  0  0  0  0  0  0  0  0  0  0
   61.8604   33.4620   55.0596 H   0  0  0  0  0  0  0  0  0  0  0  0
   63.4849   33.4994   54.2939 H   0  0  0  0  0  0  0  0  0  0  0  0
   62.4579   34.9731   54.2939 H   0  0  0  0  0  0  0  0  0  0  0  0
   58.7712   32.8986   54.0469 H   0  0  0  0  0  0  0  0  0  0  0  0
   59.7236   34.4025   53.5954 H   0  0  0  0  0  0  0  0  0  0  0  0
   57.7274   34.2571   52.2119 H   0  0  0  0  0  0  0  0  0  0  0  0
   59.2129   33.9821   51.2189 H   0  0  0  0  0  0  0  0  0  0  0  0
   56.9194   32.3467   53.2894 H   0  0  0  0  0  0  0  0  0  0  0  0
   55.9926   32.3586   51.7431 H   0  0  0  0  0  0  0  0  0  0  0  0
   55.8487   30.1568   52.8971 H   0  0  0  0  0  0  0  0  0  0  0  0
   56.6835   30.0473   51.2881 H   0  0  0  0  0  0  0  0  0  0  0  0
   58.0457   30.1226   54.0245 H   0  0  0  0  0  0  0  0  0  0  0  0
   57.8341   28.6740   52.9414 H   0  0  0  0  0  0  0  0  0  0  0  0
   59.2110   31.0750   51.9730 H   0  0  0  0  0  0  0  0  0  0  0  0
   60.1137   28.3544   51.4541 H   0  0  0  0  0  0  0  0  0  0  0  0
   58.5296   28.8166   50.7539 H   0  0  0  0  0  0  0  0  0  0  0  0
   61.2796   29.7868   50.1030 H   0  0  0  0  0  0  0  0  0  0  0  0
   59.7892   29.7070   49.0780 H   0  0  0  0  0  0  0  0  0  0  0  0
   60.1700   31.7360   51.2170 H   0  0  0  0  0  0  0  0  0  0  0  0
   58.9890   31.6890   50.0830 H   0  0  0  0  0  0  0  0  0  0  0  0
   58.2059   32.6152   48.8249 H   0  0  0  0  0  0  0  0  0  0  0  0
   57.2528   34.0415   47.0323 H   0  0  0  0  0  0  0  0  0  0  0  0
   58.7511   35.2734   45.4818 H   0  0  0  0  0  0  0  0  0  0  0  0
   61.2120   35.0365   45.6756 H   0  0  0  0  0  0  0  0  0  0  0  0
   64.3003   34.3139   46.6692 H   0  0  0  0  0  0  0  0  0  0  0  0
   63.6097   32.9915   45.6687 H   0  0  0  0  0  0  0  0  0  0  0  0
   62.8389   34.6141   45.6687 H   0  0  0  0  0  0  0  0  0  0  0  0
   65.1079   33.5443   48.0843 H   0  0  0  0  0  0  0  0  0  0  0  0
   66.1250   32.5094   50.0959 H   0  0  0  0  0  0  0  0  0  0  0  0
   64.7000   31.3044   51.7397 H   0  0  0  0  0  0  0  0  0  0  0  0
   62.2480   31.1733   51.4065 H   0  0  0  0  0  0  0  0  0  0  0  0
  1  2  1  0
  2  3  1  0
  3  4  1  0
  4  5  1  0
  3  6  1  0
  6  7  1  0
  7  8  1  0
  8  9  1  0
  9 10  1  0
 10 11  1  0
 11 12  1  0
 12 13  1  0
 13 14  1  0
 14 15  1  0
 15 16  1  0
 16 17  2  0
 17 18  1  0
 18 19  2  0
 19 20  1  0
 20 21  2  0
 21 22  1  0
 22 23  2  0
 23 24  1  0
 23 25  1  0
 25 26  2  0
 26 27  1  0
 27 28  2  0
 28 29  1  0
 29 30  2  0
 30 16  1  0
 22 17  1  0
 30 25  1  0
  1 31  1  0
  1 32  1  0
  1 33  1  0
  2 34  1  0
  2 35  1  0
  4 36  1  0
  4 37  1  0
  5 38  1  0
  5 39  1  0
  5 40  1  0
  6 41  1  0
  6 42  1  0
  7 43  1  0
  7 44  1  0
  9 45  1  0
  9 46  1  0
 10 47  1  0
 10 48  1  0
 11 49  1  0
 11 50  1  0
 12 51  1  0
 13 52  1  0
 13 53  1  0
 14 54  1  0
 14 55  1  0
 15 56  1  0
 15 57  1  0
 18 58  1  0
 19 59  1  0
 20 60  1  0
 21 61  1  0
 24 62  1  0
 24 63  1  0
 24 64  1  0
 26 65  1  0
 27 66  1  0
 28 67  1  0
 29 68  1  0
M  CHG  2  15   1  23   1
M  END
>  <UniqueID>  (8) 
8

>  <SMILES>  (8) 
CCN(CC)CCOCCCNCC[NH2+]c1c2ccccc2[n+](C)c2ccccc12

>  <Energy>  (8) 
97.21597240057315

>  <Genealogy>  (8) 
CCN(CC)CCOCCCNCC[NH2+]c1c2ccccc2[n+](C)c2ccccc12 (protonated)
CCN(CC)CCOCCCNCC[NH2+]c1c2ccccc2[n+](C)c2ccccc12 (3D coordinates assigned)
CCN(CC)CCOCCCNCC[NH2+]c1c2ccccc2[n+](C)c2ccccc12 (optimized conformer: 97.21597240057315 kcal/mol)

>  <smiles>  (8) 
CCN(CC)CCOCCCNCCNc1c2ccccc2[n+](C)c2ccccc12

>  <score_type>  (8) 
oracle

>  <origin>  (8) 
adg

>  <m_score__min__energy>  (8) 
-3.2599999999999998

>  <m_primary>  (8) 
energy

$$$$
8:0
     RDKit          3D

 55 58  0  0  0  0  0  0  0  0999 V2000
   60.1770   29.0510   51.7780 C   0  0  0  0  0  0  0  0  0  0  0  0
   59.1260   29.9190   51.3660 O   0  0  0  0  0  0  0  0  0  0  0  0
   58.9660   30.4120   50.0600 C   0  0  0  0  0  0  0  0  0  0  0  0
   59.0680   29.5770   48.9320 C   0  0  0  0  0  0  0  0  0  0  0  0
   58.8940   30.0940   47.6480 C   0  0  0  0  0  0  0  0  0  0  0  0
   58.6040   31.4530   47.4640 C   0  0  0  0  0  0  0  0  0  0  0  0
   58.4330   31.9920   46.1420 N   0  0  0  0  0  0  0  0  0  0  0  0
   58.8040   33.2320   45.7400 C   0  0  0  0  0  0  0  0  0  0  0  0
   58.5050   33.4240   44.3960 C   0  0  0  0  0  0  0  0  0  0  0  0
   57.9180   32.2470   43.9830 C   0  0  0  0  0  0  0  0  0  0  0  0
   57.3960   31.8900   42.7420 C   0  0  0  0  0  0  0  0  0  0  0  0
   56.8110   30.6180   42.6170 C   0  0  0  0  0  0  0  0  0  0  0  0
   56.7520   29.7470   43.7260 C   0  0  0  0  0  0  0  0  0  0  0  0
   57.2850   30.1350   44.9680 C   0  0  0  0  0  0  0  0  0  0  0  0
   57.8840   31.3970   45.0600 C   0  0  0  0  0  0  0  0  0  0  0  0
   58.5190   32.2940   48.5810 C   0  0  0  0  0  0  0  0  0  0  0  0
   58.6950   31.7840   49.8780 C   0  0  0  0  0  0  0  0  0  0  0  0
   58.5620   32.7030   51.0690 C   0  0  0  0  0  0  0  0  0  0  0  0
   59.7030   32.5310   51.9810 N   0  0  0  0  0  0  0  0  0  0  0  0
   60.9920   32.4500   51.2710 C   0  0  0  0  0  0  0  0  0  0  0  0
   61.1130   33.5050   50.1540 C   0  0  0  0  0  0  0  0  0  0  0  0
   61.5660   32.8970   48.8830 N   0  0  0  0  0  0  0  0  0  0  0  0
   62.7690   32.0480   49.0840 C   0  0  0  0  0  0  0  0  0  0  0  0
   64.0680   32.7830   48.7180 C   0  0  0  0  0  0  0  0  0  0  0  0
   64.0810   33.2230   47.3110 N   0  0  0  0  0  0  0  0  0  0  0  0
   62.7380   33.4530   46.7460 C   0  0  0  0  0  0  0  0  0  0  0  0
   61.7460   33.9190   47.8190 C   0  0  0  0  0  0  0  0  0  0  0  0
   60.2163   29.0186   52.8768 H   0  0  0  0  0  0  0  0  0  0  0  0
   59.9914   28.0395   51.3877 H   0  0  0  0  0  0  0  0  0  0  0  0
   61.1352   29.4245   51.3877 H   0  0  0  0  0  0  0  0  0  0  0  0
   59.2869   28.5071   49.0638 H   0  0  0  0  0  0  0  0  0  0  0  0
   58.9849   29.4312   46.7748 H   0  0  0  0  0  0  0  0  0  0  0  0
   59.2771   33.9839   46.3887 H   0  0  0  0  0  0  0  0  0  0  0  0
   58.6960   34.3229   43.7914 H   0  0  0  0  0  0  0  0  0  0  0  0
   57.4401   32.5811   41.8874 H   0  0  0  0  0  0  0  0  0  0  0  0
   56.3967   30.2995   41.6491 H   0  0  0  0  0  0  0  0  0  0  0  0
   56.2853   28.7568   43.6179 H   0  0  0  0  0  0  0  0  0  0  0  0
   57.2329   29.4673   45.8406 H   0  0  0  0  0  0  0  0  0  0  0  0
   58.3122   33.3653   48.4410 H   0  0  0  0  0  0  0  0  0  0  0  0
   58.5311   33.7458   50.7202 H   0  0  0  0  0  0  0  0  0  0  0  0
   57.6352   32.4562   51.6076 H   0  0  0  0  0  0  0  0  0  0  0  0
   59.5560   31.6640   52.5480 H   0  0  0  0  0  0  0  0  0  0  0  0
   61.8050   32.6070   51.9952 H   0  0  0  0  0  0  0  0  0  0  0  0
   61.0562   31.4565   50.8033 H   0  0  0  0  0  0  0  0  0  0  0  0
   60.1303   33.9734   49.9963 H   0  0  0  0  0  0  0  0  0  0  0  0
   61.8572   34.2534   50.4641 H   0  0  0  0  0  0  0  0  0  0  0  0
   62.8179   31.7480   50.1412 H   0  0  0  0  0  0  0  0  0  0  0  0
   62.6787   31.1737   48.4226 H   0  0  0  0  0  0  0  0  0  0  0  0
   64.1703   33.6658   49.3663 H   0  0  0  0  0  0  0  0  0  0  0  0
   64.9042   32.0827   48.8607 H   0  0  0  0  0  0  0  0  0  0  0  0
   64.5510   32.4860   46.7340 H   0  0  0  0  0  0  0  0  0  0  0  0
   62.8068   34.2241   45.9645 H   0  0  0  0  0  0  0  0  0  0  0  0
   62.3728   32.5027   46.3294 H   0  0  0  0  0  0  0  0  0  0  0  0
   62.1239   34.8458   48.2753 H   0  0  0  0  0  0  0  0  0  0  0  0
   60.7720   34.0859   47.3359 H   0  0  0  0  0  0  0  0  0  0  0  0
  1  2  1  0
  2  3  1  0
  3  4  2  0
  4  5  1  0
  5  6  2  0
  6  7  1  0
  7  8  1  0
  8  9  2  0
  9 10  1  0
 10 11  2  0
 11 12  1  0
 12 13  2  0
 13 14  1  0
 14 15  2  0
  6 16  1  0
 16 17  2  0
 17 18  1  0
 18 19  1  0
 19 20  1  0
 20 21  1  0
 21 22  1  0
 22 23  1  0
 23 24  1  0
 24 25  1  0
 25 26  1  0
 26 27  1  0
 17  3  1  0
 27 22  1  0
 15  7  1  0
 15 10  1  0
  1 28  1  0
  1 29  1  0
  1 30  1  0
  4 31  1  0
  5 32  1  0
  8 33  1  0
  9 34  1  0
 11 35  1  0
 12 36  1  0
 13 37  1  0
 14 38  1  0
 16 39  1  0
 18 40  1  0
 18 41  1  0
 19 42  1  0
 20 43  1  0
 20 44  1  0
 21 45  1  0
 21 46  1  0
 23 47  1  0
 23 48  1  0
 24 49  1  0
 24 50  1  0
 25 51  1  0
 26 52  1  0
 26 53  1  0
 27 54  1  0
 27 55  1  0
M  END
>  <UniqueID>  (9) 
9

>  <SMILES>  (9) 
COc1ccc(-n2ccc3ccccc32)cc1CNCCN1CCNCC1

>  <Energy>  (9) 
107.1589581624408

>  <Genealogy>  (9) 
COc1ccc(-n2ccc3ccccc32)cc1CNCCN1CCNCC1 (3D coordinates assigned)
COc1ccc(-n2ccc3ccccc32)cc1CNCCN1CCNCC1 (nonaromatic ring conformer: 107.1589581624408 kcal/mol)

>  <smiles>  (9) 
COc1ccc(-n2ccc3ccccc32)cc1CNCCN1CCNCC1

>  <score_type>  (9) 
oracle

>  <origin>  (9) 
adg

>  <m_score__min__energy>  (9) 
-8.6099999999999994

>  <m_primary>  (9) 
energy

$$$$
9:0
     RDKit          3D

 45 47  0  0  0  0  0  0  0  0999 V2000
   58.6930   33.7460   44.6490 C   0  0  0  0  0  0  0  0  0  0  0  0
   57.9930   32.8530   45.5730 N   0  0  0  0  0  0  0  0  0  0  0  0
   57.4360   33.3480   46.8350 C   0  0  0  0  0  0  0  0  0  0  0  0
   58.5270   33.4890   47.8610 C   0  0  0  0  0  0  0  0  0  0  0  0
   59.5420   34.4420   47.6900 C   0  0  0  0  0  0  0  0  0  0  0  0
   60.5220   34.5840   48.6740 C   0  0  0  0  0  0  0  0  0  0  0  0
   60.4850   33.8120   49.7930 N   0  0  0  0  0  0  0  0  0  0  0  0
   59.5080   32.8890   49.9890 C   0  0  0  0  0  0  0  0  0  0  0  0
   58.5080   32.7110   49.0290 C   0  0  0  0  0  0  0  0  0  0  0  0
   57.7400   31.5020   45.1690 C   0  0  0  0  0  0  0  0  0  0  0  0
   56.5930   31.2190   44.4930 N   0  0  0  0  0  0  0  0  0  0  0  0
   56.2970   29.9640   44.0690 C   0  0  0  0  0  0  0  0  0  0  0  0
   57.1840   28.9180   44.3160 C   0  0  0  0  0  0  0  0  0  0  0  0
   58.3700   29.1740   45.0060 C   0  0  0  0  0  0  0  0  0  0  0  0
   58.6670   30.4770   45.4490 C   0  0  0  0  0  0  0  0  0  0  0  0
   59.8810   30.7650   46.1770 N   0  0  0  0  0  0  0  0  0  0  0  0
   60.0360   30.4980   47.6080 C   0  0  0  0  0  0  0  0  0  0  0  0
   61.5100   30.2860   47.9670 C   0  0  0  0  0  0  0  0  0  0  0  0
   62.2670   31.5790   47.8640 C   0  0  0  0  0  0  0  0  0  0  0  0
   63.2230   31.9300   48.8290 C   0  0  0  0  0  0  0  0  0  0  0  0
   63.9440   33.1170   48.6790 C   0  0  0  0  0  0  0  0  0  0  0  0
   63.7130   33.9350   47.5720 C   0  0  0  0  0  0  0  0  0  0  0  0
   62.7580   33.5510   46.6270 C   0  0  0  0  0  0  0  0  0  0  0  0
   62.0690   32.3910   46.7880 N   0  0  0  0  0  0  0  0  0  0  0  0
   59.2724   34.4852   45.2216 H   0  0  0  0  0  0  0  0  0  0  0  0
   59.3733   33.1580   44.0154 H   0  0  0  0  0  0  0  0  0  0  0  0
   57.9595   34.2662   44.0154 H   0  0  0  0  0  0  0  0  0  0  0  0
   56.9666   34.3283   46.6659 H   0  0  0  0  0  0  0  0  0  0  0  0
   56.6858   32.6325   47.2029 H   0  0  0  0  0  0  0  0  0  0  0  0
   59.5655   35.0719   46.7885 H   0  0  0  0  0  0  0  0  0  0  0  0
   61.3267   35.3226   48.5439 H   0  0  0  0  0  0  0  0  0  0  0  0
   59.5038   32.2803   50.9052 H   0  0  0  0  0  0  0  0  0  0  0  0
   57.7129   31.9676   49.1875 H   0  0  0  0  0  0  0  0  0  0  0  0
   55.3571   29.7727   43.5305 H   0  0  0  0  0  0  0  0  0  0  0  0
   56.9516   27.8999   43.9704 H   0  0  0  0  0  0  0  0  0  0  0  0
   59.0758   28.3540   45.2046 H   0  0  0  0  0  0  0  0  0  0  0  0
   60.6930   31.1720   45.6580 H   0  0  0  0  0  0  0  0  0  0  0  0
   59.6456   31.3536   48.1785 H   0  0  0  0  0  0  0  0  0  0  0  0
   59.4780   29.5835   47.8578 H   0  0  0  0  0  0  0  0  0  0  0  0
   61.5808   29.9060   48.9968 H   0  0  0  0  0  0  0  0  0  0  0  0
   61.9468   29.5608   47.2646 H   0  0  0  0  0  0  0  0  0  0  0  0
   63.4031   31.2767   49.6955 H   0  0  0  0  0  0  0  0  0  0  0  0
   64.6922   33.4064   49.4317 H   0  0  0  0  0  0  0  0  0  0  0  0
   64.2763   34.8713   47.4449 H   0  0  0  0  0  0  0  0  0  0  0  0
   62.5638   34.1885   45.7518 H   0  0  0  0  0  0  0  0  0  0  0  0
  1  2  1  0
  2  3  1  0
  3  4  1  0
  4  5  2  0
  5  6  1  0
  6  7  2  0
  7  8  1  0
  8  9  2  0
  2 10  1  0
 10 11  2  0
 11 12  1  0
 12 13  2  0
 13 14  1  0
 14 15  2  0
 15 16  1  0
 16 17  1  0
 17 18  1  0
 18 19  1  0
 19 20  2  0
 20 21  1  0
 21 22  2  0
 22 23  1  0
 23 24  2  0
  9  4  1  0
 15 10  1  0
 24 19  1  0
  1 25  1  0
  1 26  1  0
  1 27  1  0
  3 28  1  0
  3 29  1  0
  5 30  1  0
  6 31  1  0
  8 32  1  0
  9 33  1  0
 12 34  1  0
 13 35  1  0
 14 36  1  0
 16 37  1  0
 17 38  1  0
 17 39  1  0
 18 40  1  0
 18 41  1  0
 20 42  1  0
 21 43  1  0
 22 44  1  0
 23 45  1  0
M  END
>  <UniqueID>  (10) 
10

>  <SMILES>  (10) 
CN(Cc1ccncc1)c1ncccc1NCCc1ccccn1

>  <Energy>  (10) 
49.5928169243312

>  <Genealogy>  (10) 
CN(Cc1ccncc1)c1ncccc1NCCc1ccccn1 (3D coordinates assigned)
CN(Cc1ccncc1)c1ncccc1NCCc1ccccn1 (optimized conformer: 49.5928169243312 kcal/mol)

>  <smiles>  (10) 
CN(Cc1ccncc1)c1ncccc1NCCc1ccccn1

>  <score_type>  (10) 
oracle

>  <origin>  (10) 
adg

>  <m_score__min__energy>  (10) 
-6.8399999999999999

>  <m_primary>  (10) 
energy

$$$$
10:0
     RDKit          3D

 53 56  0  0  0  0  0  0  0  0999 V2000
   56.4290   29.7090   43.6680 C   0  0  0  0  0  0  0  0  0  0  0  0
   56.5300   30.4710   44.8660 O   0  0  0  0  0  0  0  0  0  0  0  0
   57.4290   31.5260   45.0560 C   0  0  0  0  0  0  0  0  0  0  0  0
   57.6520   32.4110   43.9940 C   0  0  0  0  0  0  0  0  0  0  0  0
   58.5520   33.4700   44.1320 C   0  0  0  0  0  0  0  0  0  0  0  0
   59.2440   33.6510   45.3300 C   0  0  0  0  0  0  0  0  0  0  0  0
   59.0400   32.7710   46.4040 C   0  0  0  0  0  0  0  0  0  0  0  0
   59.8200   32.9470   47.6510 C   0  0  0  0  0  0  0  0  0  0  0  0
   59.4320   33.9590   48.5460 C   0  0  0  0  0  0  0  0  0  0  0  0
   60.1670   34.2010   49.7090 C   0  0  0  0  0  0  0  0  0  0  0  0
   61.3070   33.4470   49.9860 C   0  0  0  0  0  0  0  0  0  0  0  0
   61.7090   32.4390   49.1110 C   0  0  0  0  0  0  0  0  0  0  0  0
   60.9750   32.1690   47.9380 C   0  0  0  0  0  0  0  0  0  0  0  0
   61.4570   31.0510   47.0330 C   0  0  0  0  0  0  0  0  0  0  0  0
   60.3930   30.0630   46.7480 N   0  0  0  0  0  0  0  0  0  0  0  0
   60.6750   29.3020   45.5160 C   0  0  0  0  0  0  0  0  0  0  0  0
   59.4800   28.4020   45.1940 C   0  0  0  0  0  0  0  0  0  0  0  0
   59.1130   27.5820   46.3550 N   0  0  0  0  0  0  0  0  0  0  0  0
   58.2000   26.4790   46.1810 C   0  0  0  0  0  0  0  0  0  0  0  0
   56.8110   26.6980   46.1780 C   0  0  0  0  0  0  0  0  0  0  0  0
   55.9250   25.6260   46.0020 C   0  0  0  0  0  0  0  0  0  0  0  0
   56.4160   24.3260   45.8410 C   0  0  0  0  0  0  0  0  0  0  0  0
   57.7930   24.0970   45.8440 C   0  0  0  0  0  0  0  0  0  0  0  0
   58.6830   25.1660   46.0080 C   0  0  0  0  0  0  0  0  0  0  0  0
   59.8850   27.7160   47.5970 C   0  0  0  0  0  0  0  0  0  0  0  0
   60.1460   29.1960   47.9340 C   0  0  0  0  0  0  0  0  0  0  0  0
   58.1150   31.7210   46.2700 C   0  0  0  0  0  0  0  0  0  0  0  0
   56.2883   28.6474   43.9194 H   0  0  0  0  0  0  0  0  0  0  0  0
   55.5700   30.0634   43.0794 H   0  0  0  0  0  0  0  0  0  0  0  0
   57.3507   29.8273   43.0794 H   0  0  0  0  0  0  0  0  0  0  0  0
   57.1146   32.2712   43.0445 H   0  0  0  0  0  0  0  0  0  0  0  0
   58.7158   34.1633   43.2939 H   0  0  0  0  0  0  0  0  0  0  0  0
   59.9520   34.4865   45.4330 H   0  0  0  0  0  0  0  0  0  0  0  0
   58.5410   34.5663   48.3285 H   0  0  0  0  0  0  0  0  0  0  0  0
   59.8460   34.9877   50.4076 H   0  0  0  0  0  0  0  0  0  0  0  0
   61.8902   33.6481   50.8968 H   0  0  0  0  0  0  0  0  0  0  0  0
   62.6085   31.8480   49.3382 H   0  0  0  0  0  0  0  0  0  0  0  0
   61.7988   31.4872   46.0828 H   0  0  0  0  0  0  0  0  0  0  0  0
   62.2740   30.5269   47.5505 H   0  0  0  0  0  0  0  0  0  0  0  0
   60.8442   30.0004   44.6831 H   0  0  0  0  0  0  0  0  0  0  0  0
   61.5735   28.6843   45.6615 H   0  0  0  0  0  0  0  0  0  0  0  0
   58.6223   29.0299   44.9112 H   0  0  0  0  0  0  0  0  0  0  0  0
   59.7570   27.7336   44.3655 H   0  0  0  0  0  0  0  0  0  0  0  0
   56.4175   27.7161   46.3145 H   0  0  0  0  0  0  0  0  0  0  0  0
   54.8402   25.8076   45.9905 H   0  0  0  0  0  0  0  0  0  0  0  0
   55.7181   23.4856   45.7122 H   0  0  0  0  0  0  0  0  0  0  0  0
   58.1798   23.0751   45.7173 H   0  0  0  0  0  0  0  0  0  0  0  0
   59.7671   24.9796   46.0018 H   0  0  0  0  0  0  0  0  0  0  0  0
   59.3215   27.2544   48.4212 H   0  0  0  0  0  0  0  0  0  0  0  0
   60.8541   27.2138   47.4605 H   0  0  0  0  0  0  0  0  0  0  0  0
   59.2680   29.5870   48.4691 H   0  0  0  0  0  0  0  0  0  0  0  0
   61.0642   29.2229   48.5392 H   0  0  0  0  0  0  0  0  0  0  0  0
   57.9259   31.0475   47.1189 H   0  0  0  0  0  0  0  0  0  0  0  0
  1  2  1  0
  2  3  1  0
  3  4  2  0
  4  5  1  0
  5  6  2  0
  6  7  1  0
  7  8  1  0
  8  9  2  0
  9 10  1  0
 10 11  2  0
 11 12  1  0
 12 13  2  0
 13 14  1  0
 14 15  1  0
 15 16  1  0
 16 17  1  0
 17 18  1  0
 18 19  1  0
 19 20  2  0
 20 21  1  0
 21 22  2  0
 22 23  1  0
 23 24  2  0
 18 25  1  0
 25 26  1  0
  7 27  2  0
 27  3  1  0
 13  8  1  0
 26 15  1  0
 24 19  1  0
  1 28  1  0
  1 29  1  0
  1 30  1  0
  4 31  1  0
  5 32  1  0
  6 33  1  0
  9 34  1  0
 10 35  1  0
 11 36  1  0
 12 37  1  0
 14 38  1  0
 14 39  1  0
 16 40  1  0
 16 41  1  0
 17 42  1  0
 17 43  1  0
 20 44  1  0
 21 45  1  0
 22 46  1  0
 23 47  1  0
 24 48  1  0
 25 49  1  0
 25 50  1  0
 26 51  1  0
 26 52  1  0
 27 53  1  0
M  END
>  <UniqueID>  (11) 
11

>  <SMILES>  (11) 
COc1cccc(-c2ccccc2CN2CCN(c3ccccc3)CC2)c1

>  <Energy>  (11) 
71.82993569846613

>  <Genealogy>  (11) 
COc1cccc(-c2ccccc2CN2CCN(c3ccccc3)CC2)c1 (3D coordinates assigned)
COc1cccc(-c2ccccc2CN2CCN(c3ccccc3)CC2)c1 (nonaromatic ring conformer: 71.82993569846613 kcal/mol)

>  <smiles>  (11) 
COc1cccc(-c2ccccc2CN2CCN(c3ccccc3)CC2)c1

>  <score_type>  (11) 
oracle

>  <origin>  (11) 
adg

>  <m_score__min__energy>  (11) 
-8.4100000000000001

>  <m_primary>  (11) 
energy

$$$$
11:0
     RDKit          3D

 37 39  0  0  0  0  0  0  0  0999 V2000
   55.4680   29.8200   43.7720 C   0  0  0  0  0  0  0  0  0  0  0  0
   56.8180   30.0380   43.0960 C   0  0  0  0  0  0  0  0  0  0  0  0
   57.4870   31.2410   43.6410 N   0  0  0  0  0  0  0  0  0  0  0  0
   57.7980   32.3140   42.8320 C   0  0  0  0  0  0  0  0  0  0  0  0
   57.5290   32.3160   41.3530 C   0  0  0  0  0  0  0  0  0  0  0  0
   58.3980   33.4130   43.3600 N   0  0  0  0  0  0  0  0  0  0  0  0
   58.6900   33.5060   44.6780 C   0  0  0  0  0  0  0  0  0  0  0  0
   59.3050   34.6590   45.1790 C   0  0  0  0  0  0  0  0  0  0  0  0
   59.6000   34.7580   46.5420 C   0  0  0  0  0  0  0  0  0  0  0  0
   59.2800   33.7070   47.4080 C   0  0  0  0  0  0  0  0  0  0  0  0
   59.6500   33.8440   49.1570 S   0  0  0  0  0  0  0  0  0  0  0  0
   61.3970   33.5280   48.9070 C   0  0  0  0  0  0  0  0  0  0  0  0
   62.3320   33.9640   49.8550 C   0  0  0  0  0  0  0  0  0  0  0  0
   63.6950   33.7240   49.6560 C   0  0  0  0  0  0  0  0  0  0  0  0
   64.1260   33.0460   48.5120 C   0  0  0  0  0  0  0  0  0  0  0  0
   63.1940   32.6060   47.5660 C   0  0  0  0  0  0  0  0  0  0  0  0
   61.8300   32.8460   47.7630 C   0  0  0  0  0  0  0  0  0  0  0  0
   58.6710   32.5480   46.9100 C   0  0  0  0  0  0  0  0  0  0  0  0
   58.3710   32.4420   45.5380 C   0  0  0  0  0  0  0  0  0  0  0  0
   57.7550   31.3040   44.9890 C   0  0  0  0  0  0  0  0  0  0  0  0
   57.4460   30.3400   45.7450 O   0  0  0  0  0  0  0  0  0  0  0  0
   55.5972   29.8409   44.8642 H   0  0  0  0  0  0  0  0  0  0  0  0
   54.7735   30.6176   43.4696 H   0  0  0  0  0  0  0  0  0  0  0  0
   55.0598   28.8443   43.4696 H   0  0  0  0  0  0  0  0  0  0  0  0
   57.4559   29.1592   43.2714 H   0  0  0  0  0  0  0  0  0  0  0  0
   56.6549   30.1816   42.0177 H   0  0  0  0  0  0  0  0  0  0  0  0
   56.4431   32.3241   41.1778 H   0  0  0  0  0  0  0  0  0  0  0  0
   57.9802   33.2108   40.8995 H   0  0  0  0  0  0  0  0  0  0  0  0
   57.9669   31.4146   40.8995 H   0  0  0  0  0  0  0  0  0  0  0  0
   59.5563   35.4874   44.5003 H   0  0  0  0  0  0  0  0  0  0  0  0
   60.0847   35.6642   46.9343 H   0  0  0  0  0  0  0  0  0  0  0  0
   61.9935   34.4956   50.7566 H   0  0  0  0  0  0  0  0  0  0  0  0
   64.4284   34.0688   50.3998 H   0  0  0  0  0  0  0  0  0  0  0  0
   65.1985   32.8584   48.3556 H   0  0  0  0  0  0  0  0  0  0  0  0
   63.5339   32.0711   46.6669 H   0  0  0  0  0  0  0  0  0  0  0  0
   61.0975   32.4990   47.0193 H   0  0  0  0  0  0  0  0  0  0  0  0
   58.4268   31.7196   47.5913 H   0  0  0  0  0  0  0  0  0  0  0  0
  1  2  1  0
  2  3  1  0
  3  4  1  0
  4  5  1  0
  4  6  2  0
  6  7  1  0
  7  8  2  0
  8  9  1  0
  9 10  2  0
 10 11  1  0
 11 12  1  0
 12 13  2  0
 13 14  1  0
 14 15  2  0
 15 16  1  0
 16 17  2  0
 10 18  1  0
 18 19  2  0
 19 20  1  0
 20 21  2  0
 20  3  1  0
 19  7  1  0
 17 12  1  0
  1 22  1  0
  1 23  1  0
  1 24  1  0
  2 25  1  0
  2 26  1  0
  5 27  1  0
  5 28  1  0
  5 29  1  0
  8 30  1  0
  9 31  1  0
 13 32  1  0
 14 33  1  0
 15 34  1  0
 16 35  1  0
 17 36  1  0
 18 37  1  0
M  END
>  <UniqueID>  (12) 
12

>  <SMILES>  (12) 
CCn1c(C)nc2ccc(Sc3ccccc3)cc2c1=O

>  <Energy>  (12) 
39.98130528109959

>  <Genealogy>  (12) 
CCn1c(C)nc2ccc(Sc3ccccc3)cc2c1=O (3D coordinates assigned)
CCn1c(C)nc2ccc(Sc3ccccc3)cc2c1=O (optimized conformer: 39.98130528109959 kcal/mol)

>  <smiles>  (12) 
CCn1c(C)nc2ccc(Sc3ccccc3)cc2c1=O

>  <score_type>  (12) 
oracle

>  <origin>  (12) 
adg

>  <m_score__min__energy>  (12) 
-8.3900000000000006

>  <m_primary>  (12) 
energy

$$$$
12:0
     RDKit          3D

 58 60  0  0  0  0  0  0  0  0999 V2000
   58.6320   32.3240   50.4550 C   0  0  0  0  0  0  0  0  0  0  0  0
   59.6250   33.4650   50.6470 C   0  0  0  0  0  0  0  0  0  0  0  0
   59.8830   34.1210   49.4060 O   0  0  0  0  0  0  0  0  0  0  0  0
   61.0400   33.9790   48.6220 C   0  0  0  0  0  0  0  0  0  0  0  0
   62.3290   33.8960   49.1860 C   0  0  0  0  0  0  0  0  0  0  0  0
   63.4480   33.7190   48.3670 C   0  0  0  0  0  0  0  0  0  0  0  0
   63.2950   33.6200   46.9840 C   0  0  0  0  0  0  0  0  0  0  0  0
   62.0240   33.6980   46.4140 C   0  0  0  0  0  0  0  0  0  0  0  0
   60.8940   33.8860   47.2240 C   0  0  0  0  0  0  0  0  0  0  0  0
   59.5890   33.9400   46.6280 N   0  0  0  0  0  0  0  0  0  0  0  0
   59.3200   34.9170   45.5720 C   0  0  0  0  0  0  0  0  0  0  0  0
   57.9480   34.6790   44.9160 C   0  0  0  0  0  0  0  0  0  0  0  0
   57.6310   33.2440   44.7220 N   0  0  0  0  0  0  0  0  0  0  0  0
   57.9780   32.6940   43.3930 C   0  0  0  0  0  0  0  0  0  0  0  0
   58.0400   31.1560   43.3700 C   0  0  0  0  0  0  0  0  0  0  0  0
   56.7090   30.5430   42.9200 C   0  0  0  0  0  0  0  0  0  0  0  0
   56.1450   29.5720   43.9650 C   0  0  0  0  0  0  0  0  0  0  0  0
   57.2060   29.0430   44.8240 N   0  0  0  0  0  0  0  0  0  0  0  0
   57.4030   29.4590   46.0650 N   0  0  0  0  0  0  0  0  0  0  0  0
   58.4220   28.7400   46.5750 C   0  0  0  0  0  0  0  0  0  0  0  0
   58.9030   28.8610   47.9820 C   0  0  0  0  0  0  0  0  0  0  0  0
   58.8720   27.8240   45.6450 C   0  0  0  0  0  0  0  0  0  0  0  0
   58.0820   28.0520   44.5380 C   0  0  0  0  0  0  0  0  0  0  0  0
   58.1470   27.2860   43.2520 C   0  0  0  0  0  0  0  0  0  0  0  0
   57.9240   32.3280   45.8530 C   0  0  0  0  0  0  0  0  0  0  0  0
   58.5280   33.0360   47.0690 C   0  0  0  0  0  0  0  0  0  0  0  0
   58.3075   31.9511   51.4377 H   0  0  0  0  0  0  0  0  0  0  0  0
   57.7586   32.6885   49.8944 H   0  0  0  0  0  0  0  0  0  0  0  0
   59.1136   31.5092   49.8944 H   0  0  0  0  0  0  0  0  0  0  0  0
   59.2076   34.1913   51.3598 H   0  0  0  0  0  0  0  0  0  0  0  0
   60.5689   33.0523   51.0328 H   0  0  0  0  0  0  0  0  0  0  0  0
   62.4551   33.9709   50.2762 H   0  0  0  0  0  0  0  0  0  0  0  0
   64.4512   33.6577   48.8140 H   0  0  0  0  0  0  0  0  0  0  0  0
   64.1774   33.4803   46.3422 H   0  0  0  0  0  0  0  0  0  0  0  0
   61.9072   33.6116   45.3236 H   0  0  0  0  0  0  0  0  0  0  0  0
   59.3371   35.9270   46.0074 H   0  0  0  0  0  0  0  0  0  0  0  0
   60.0946   34.8095   44.7984 H   0  0  0  0  0  0  0  0  0  0  0  0
   57.1728   35.1241   45.5570 H   0  0  0  0  0  0  0  0  0  0  0  0
   57.9790   35.1431   43.9192 H   0  0  0  0  0  0  0  0  0  0  0  0
   57.2185   33.0240   42.6690 H   0  0  0  0  0  0  0  0  0  0  0  0
   58.9815   33.0652   43.1377 H   0  0  0  0  0  0  0  0  0  0  0  0
   58.8312   30.8412   42.6737 H   0  0  0  0  0  0  0  0  0  0  0  0
   58.2519   30.8054   44.3909 H   0  0  0  0  0  0  0  0  0  0  0  0
   55.9818   31.3520   42.7570 H   0  0  0  0  0  0  0  0  0  0  0  0
   56.8891   29.9794   41.9927 H   0  0  0  0  0  0  0  0  0  0  0  0
   55.4102   30.1028   44.5881 H   0  0  0  0  0  0  0  0  0  0  0  0
   55.6714   28.7304   43.4383 H   0  0  0  0  0  0  0  0  0  0  0  0
   58.0727   28.6521   48.6726 H   0  0  0  0  0  0  0  0  0  0  0  0
   59.7146   28.1390   48.1554 H   0  0  0  0  0  0  0  0  0  0  0  0
   59.2764   29.8811   48.1554 H   0  0  0  0  0  0  0  0  0  0  0  0
   59.6762   27.0825   45.7606 H   0  0  0  0  0  0  0  0  0  0  0  0
   58.2382   26.2116   43.4694 H   0  0  0  0  0  0  0  0  0  0  0  0
   57.2303   27.4661   42.6712 H   0  0  0  0  0  0  0  0  0  0  0  0
   59.0202   27.6180   42.6712 H   0  0  0  0  0  0  0  0  0  0  0  0
   56.9856   31.8442   46.1618 H   0  0  0  0  0  0  0  0  0  0  0  0
   58.6693   31.6014   45.4973 H   0  0  0  0  0  0  0  0  0  0  0  0
   57.7454   33.6124   47.5841 H   0  0  0  0  0  0  0  0  0  0  0  0
   58.9460   32.2883   47.7590 H   0  0  0  0  0  0  0  0  0  0  0  0
  1  2  1  0
  2  3  1  0
  3  4  1  0
  4  5  2  0
  5  6  1  0
  6  7  2  0
  7  8  1  0
  8  9  2  0
  9 10  1  0
 10 11  1  0
 11 12  1  0
 12 13  1  0
 13 14  1  0
 14 15  1  0
 15 16  1  0
 16 17  1  0
 17 18  1  0
 18 19  1  0
 19 20  2  0
 20 21  1  0
 20 22  1  0
 22 23  2  0
 23 24  1  0
 13 25  1  0
 25 26  1  0
  9  4  1  0
 26 10  1  0
 23 18  1  0
  1 27  1  0
  1 28  1  0
  1 29  1  0
  2 30  1  0
  2 31  1  0
  5 32  1  0
  6 33  1  0
  7 34  1  0
  8 35  1  0
 11 36  1  0
 11 37  1  0
 12 38  1  0
 12 39  1  0
 14 40  1  0
 14 41  1  0
 15 42  1  0
 15 43  1  0
 16 44  1  0
 16 45  1  0
 17 46  1  0
 17 47  1  0
 21 48  1  0
 21 49  1  0
 21 50  1  0
 22 51  1  0
 24 52  1  0
 24 53  1  0
 24 54  1  0
 25 55  1  0
 25 56  1  0
 26 57  1  0
 26 58  1  0
M  END
>  <UniqueID>  (13) 
13

>  <SMILES>  (13) 
CCOc1ccccc1N1CCN(CCCCn2nc(C)cc2C)CC1

>  <Energy>  (13) 
89.34959812967725

>  <Genealogy>  (13) 
CCOc1ccccc1N1CCN(CCCCn2nc(C)cc2C)CC1 (3D coordinates assigned)
CCOc1ccccc1N1CCN(CCCCn2nc(C)cc2C)CC1 (nonaromatic ring conformer: 89.34959812967725 kcal/mol)

>  <smiles>  (13) 
CCOc1ccccc1N1CCN(CCCCn2nc(C)cc2C)CC1

>  <score_type>  (13) 
oracle

>  <origin>  (13) 
adg

>  <m_score__min__energy>  (13) 
-7.8799999999999999

>  <m_primary>  (13) 
energy

$$$$
13:0
     RDKit          3D

 36 39  0  0  0  0  0  0  0  0999 V2000
   57.7370   32.3430   42.2050 C   0  0  0  0  0  0  0  0  0  0  0  0
   58.1080   32.2010   43.6480 C   0  0  0  0  0  0  0  0  0  0  0  0
   58.5620   33.2780   44.3410 N   0  0  0  0  0  0  0  0  0  0  0  0
   58.8440   33.2280   45.6750 C   0  0  0  0  0  0  0  0  0  0  0  0
   59.3050   34.4940   46.3490 C   0  0  0  0  0  0  0  0  0  0  0  0
   60.6070   34.2630   47.0700 C   0  0  0  0  0  0  0  0  0  0  0  0
   61.7370   33.8230   46.3590 C   0  0  0  0  0  0  0  0  0  0  0  0
   62.9410   33.5850   47.0280 C   0  0  0  0  0  0  0  0  0  0  0  0
   63.0260   33.7820   48.4090 C   0  0  0  0  0  0  0  0  0  0  0  0
   61.9080   34.2180   49.1230 C   0  0  0  0  0  0  0  0  0  0  0  0
   60.7010   34.4590   48.4580 C   0  0  0  0  0  0  0  0  0  0  0  0
   58.7000   32.0080   46.3860 C   0  0  0  0  0  0  0  0  0  0  0  0
   58.5310   32.0670   48.1420 Cl  0  0  0  0  0  0  0  0  0  0  0  0
   58.3890   30.8410   45.6500 C   0  0  0  0  0  0  0  0  0  0  0  0
   57.9940   30.9840   44.3170 C   0  0  0  0  0  0  0  0  0  0  0  0
   57.3400   29.5470   43.7280 S   0  0  0  0  0  0  0  0  0  0  0  0
   57.6150   28.6950   45.1480 C   0  0  0  0  0  0  0  0  0  0  0  0
   57.3270   27.3520   45.3700 C   0  0  0  0  0  0  0  0  0  0  0  0
   57.7510   26.7700   46.5670 C   0  0  0  0  0  0  0  0  0  0  0  0
   58.5250   27.5090   47.4740 C   0  0  0  0  0  0  0  0  0  0  0  0
   58.8350   28.8590   47.2270 C   0  0  0  0  0  0  0  0  0  0  0  0
   60.1910   29.5250   48.1310 Cl  0  0  0  0  0  0  0  0  0  0  0  0
   58.2690   29.4940   46.0930 C   0  0  0  0  0  0  0  0  0  0  0  0
   56.7123   32.7352   42.1268 H   0  0  0  0  0  0  0  0  0  0  0  0
   58.4341   33.0379   41.7139 H   0  0  0  0  0  0  0  0  0  0  0  0
   57.7920   31.3603   41.7139 H   0  0  0  0  0  0  0  0  0  0  0  0
   59.4454   35.2778   45.5901 H   0  0  0  0  0  0  0  0  0  0  0  0
   58.5440   34.8059   47.0795 H   0  0  0  0  0  0  0  0  0  0  0  0
   61.6735   33.6654   45.2722 H   0  0  0  0  0  0  0  0  0  0  0  0
   63.8228   33.2422   46.4668 H   0  0  0  0  0  0  0  0  0  0  0  0
   63.9742   33.5935   48.9338 H   0  0  0  0  0  0  0  0  0  0  0  0
   61.9764   34.3722   50.2100 H   0  0  0  0  0  0  0  0  0  0  0  0
   59.8226   34.8031   49.0238 H   0  0  0  0  0  0  0  0  0  0  0  0
   56.7784   26.7625   44.6207 H   0  0  0  0  0  0  0  0  0  0  0  0
   57.4774   25.7301   46.7988 H   0  0  0  0  0  0  0  0  0  0  0  0
   58.8946   27.0265   48.3908 H   0  0  0  0  0  0  0  0  0  0  0  0
  1  2  1  0
  2  3  2  0
  3  4  1  0
  4  5  1  0
  5  6  1  0
  6  7  2  0
  7  8  1  0
  8  9  2  0
  9 10  1  0
 10 11  2  0
  4 12  2  0
 12 13  1  0
 12 14  1  0
 14 15  2  0
 15 16  1  0
 16 17  1  0
 17 18  2  0
 18 19  1  0
 19 20  2  0
 20 21  1  0
 21 22  1  0
 21 23  2  0
 15  2  1  0
 23 17  1  0
 11  6  1  0
 23 14  1  0
  1 24  1  0
  1 25  1  0
  1 26  1  0
  5 27  1  0
  5 28  1  0
  7 29  1  0
  8 30  1  0
  9 31  1  0
 10 32  1  0
 11 33  1  0
 18 34  1  0
 19 35  1  0
 20 36  1  0
M  END
>  <UniqueID>  (14) 
14

>  <SMILES>  (14) 
Cc1nc(Cc2ccccc2)c(Cl)c2c1sc1cccc(Cl)c12

>  <Energy>  (14) 
95.22133901839264

>  <Genealogy>  (14) 
Cc1nc(Cc2ccccc2)c(Cl)c2c1sc1cccc(Cl)c12 (3D coordinates assigned)
Cc1nc(Cc2ccccc2)c(Cl)c2c1sc1cccc(Cl)c12 (optimized conformer: 95.22133901839264 kcal/mol)

>  <smiles>  (14) 
Cc1nc(Cc2ccccc2)c(Cl)c2c1sc1cccc(Cl)c12

>  <score_type>  (14) 
oracle

>  <origin>  (14) 
adg

>  <m_score__min__energy>  (14) 
-8.8699999999999992

>  <m_primary>  (14) 
energy

$$$$
14:0
     RDKit          3D

 55 58  0  0  0  0  0  0  0  0999 V2000
   65.2940   33.0250   50.0810 C   0  0  0  0  0  0  0  0  0  0  0  0
   64.0970   33.3300   49.1690 C   0  0  0  0  0  0  0  0  0  0  0  0
   63.5340   32.1550   48.4440 N   0  0  0  0  0  0  0  0  0  0  0  0
   62.9720   32.4990   47.1110 C   0  0  0  0  0  0  0  0  0  0  0  0
   63.3530   33.9060   46.6420 C   0  0  0  0  0  0  0  0  0  0  0  0
   62.6820   31.2780   49.2980 C   0  0  0  0  0  0  0  0  0  0  0  0
   61.5400   30.5140   48.5830 C   0  0  0  0  0  0  0  0  0  0  0  0
   60.2910   31.2820   48.5470 N   0  0  0  0  0  0  0  0  0  0  0  0
   59.4780   31.3780   47.3620 C   0  0  0  0  0  0  0  0  0  0  0  0
   59.0070   30.2070   46.7540 C   0  0  0  0  0  0  0  0  0  0  0  0
   58.4360   30.2390   45.4960 C   0  0  0  0  0  0  0  0  0  0  0  0
   58.2030   31.4120   44.8320 N   0  0  0  0  0  0  0  0  0  0  0  0
   57.3190   31.4280   43.6550 C   0  0  0  0  0  0  0  0  0  0  0  0
   58.7450   32.5800   45.3400 C   0  0  0  0  0  0  0  0  0  0  0  0
   58.7590   33.7640   44.5650 C   0  0  0  0  0  0  0  0  0  0  0  0
   59.2300   34.9600   45.0900 C   0  0  0  0  0  0  0  0  0  0  0  0
   59.6680   35.0200   46.4040 C   0  0  0  0  0  0  0  0  0  0  0  0
   59.7040   33.8730   47.2000 C   0  0  0  0  0  0  0  0  0  0  0  0
   60.1070   34.2130   49.0480 Br  0  0  0  0  0  0  0  0  0  0  0  0
   59.3250   32.6080   46.6560 C   0  0  0  0  0  0  0  0  0  0  0  0
   58.2100   28.8530   45.0590 C   0  0  0  0  0  0  0  0  0  0  0  0
   57.8650   28.3080   43.8110 C   0  0  0  0  0  0  0  0  0  0  0  0
   57.8100   26.9120   43.6750 C   0  0  0  0  0  0  0  0  0  0  0  0
   58.1390   26.0780   44.7560 C   0  0  0  0  0  0  0  0  0  0  0  0
   58.5490   26.6340   45.9760 C   0  0  0  0  0  0  0  0  0  0  0  0
   58.5880   28.0230   46.1000 C   0  0  0  0  0  0  0  0  0  0  0  0
   59.1020   28.7960   47.2670 C   0  0  0  0  0  0  0  0  0  0  0  0
   64.9829   33.1043   51.1331 H   0  0  0  0  0  0  0  0  0  0  0  0
   65.6565   32.0058   49.8816 H   0  0  0  0  0  0  0  0  0  0  0  0
   66.1001   33.7465   49.8816 H   0  0  0  0  0  0  0  0  0  0  0  0
   63.2979   33.7615   49.7897 H   0  0  0  0  0  0  0  0  0  0  0  0
   64.4711   34.0154   48.3942 H   0  0  0  0  0  0  0  0  0  0  0  0
   64.3740   31.5620   48.2380 H   0  0  0  0  0  0  0  0  0  0  0  0
   63.3461   31.7717   46.3754 H   0  0  0  0  0  0  0  0  0  0  0  0
   61.8760   32.4691   47.2001 H   0  0  0  0  0  0  0  0  0  0  0  0
   63.5273   34.5495   47.5169 H   0  0  0  0  0  0  0  0  0  0  0  0
   64.2696   33.8549   46.0361 H   0  0  0  0  0  0  0  0  0  0  0  0
   62.5358   34.3244   46.0361 H   0  0  0  0  0  0  0  0  0  0  0  0
   63.3384   30.5321   49.7701 H   0  0  0  0  0  0  0  0  0  0  0  0
   62.1803   31.9574   50.0028 H   0  0  0  0  0  0  0  0  0  0  0  0
   61.8518   30.2979   47.5505 H   0  0  0  0  0  0  0  0  0  0  0  0
   61.3494   29.5897   49.1481 H   0  0  0  0  0  0  0  0  0  0  0  0
   59.9090   31.6940   49.4270 H   0  0  0  0  0  0  0  0  0  0  0  0
   56.2698   31.4470   43.9847 H   0  0  0  0  0  0  0  0  0  0  0  0
   57.5296   32.3225   43.0504 H   0  0  0  0  0  0  0  0  0  0  0  0
   57.4971   30.5265   43.0504 H   0  0  0  0  0  0  0  0  0  0  0  0
   58.3904   33.7363   43.5290 H   0  0  0  0  0  0  0  0  0  0  0  0
   59.2557   35.8625   44.4616 H   0  0  0  0  0  0  0  0  0  0  0  0
   59.9913   35.9834   46.8250 H   0  0  0  0  0  0  0  0  0  0  0  0
   57.6420   28.9632   42.9560 H   0  0  0  0  0  0  0  0  0  0  0  0
   57.5071   26.4682   42.7151 H   0  0  0  0  0  0  0  0  0  0  0  0
   58.0748   24.9855   44.6452 H   0  0  0  0  0  0  0  0  0  0  0  0
   58.8344   25.9876   46.8190 H   0  0  0  0  0  0  0  0  0  0  0  0
   58.4720   28.6481   48.1565 H   0  0  0  0  0  0  0  0  0  0  0  0
   60.1113   28.5026   47.5912 H   0  0  0  0  0  0  0  0  0  0  0  0
  1  2  1  0
  2  3  1  0
  3  4  1  0
  4  5  1  0
  3  6  1  0
  6  7  1  0
  7  8  1  0
  8  9  1  0
  9 10  2  0
 10 11  1  0
 11 12  2  0
 12 13  1  0
 12 14  1  0
 14 15  2  0
 15 16  1  0
 16 17  2  0
 17 18  1  0
 18 19  1  0
 18 20  2  0
 11 21  1  0
 21 22  2  0
 22 23  1  0
 23 24  2  0
 24 25  1  0
 25 26  2  0
 26 27  1  0
 20  9  1  0
 26 21  1  0
 27 10  1  0
 20 14  1  0
  1 28  1  0
  1 29  1  0
  1 30  1  0
  2 31  1  0
  2 32  1  0
  3 33  1  0
  4 34  1  0
  4 35  1  0
  5 36  1  0
  5 37  1  0
  5 38  1  0
  6 39  1  0
  6 40  1  0
  7 41  1  0
  7 42  1  0
  8 43  1  0
 13 44  1  0
 13 45  1  0
 13 46  1  0
 15 47  1  0
 16 48  1  0
 17 49  1  0
 22 50  1  0
 23 51  1  0
 24 52  1  0
 25 53  1  0
 27 54  1  0
 27 55  1  0
M  CHG  2   3   1  12   1
M  END
>  <UniqueID>  (15) 
15

>  <SMILES>  (15) 
CC[NH+](CC)CCNc1c2c([n+](C)c3cccc(Br)c13)-c1ccccc1C2

>  <Energy>  (15) 
118.09106871607213

>  <Genealogy>  (15) 
CC[NH+](CC)CCNc1c2c([n+](C)c3cccc(Br)c13)-c1ccccc1C2 (protonated)
CC[NH+](CC)CCNc1c2c([n+](C)c3cccc(Br)c13)-c1ccccc1C2 (3D coordinates assigned)
CC[NH+](CC)CCNc1c2c([n+](C)c3cccc(Br)c13)-c1ccccc1C2 (nonaromatic ring conformer: 118.09106871607213 kcal/mol)

>  <smiles>  (15) 
CCN(CC)CCNc1c2c([n+](C)c3cccc(Br)c13)-c1ccccc1C2

>  <score_type>  (15) 
oracle

>  <origin>  (15) 
adg

>  <m_score__min__energy>  (15) 
-6.1600000000000001

>  <m_primary>  (15) 
energy

$$$$
15:0
     RDKit          3D

 64 67  0  0  0  0  0  0  0  0999 V2000
   59.3220   33.7010   51.5080 C   0  0  0  0  0  0  0  0  0  0  0  0
   58.0570   33.0150   52.0470 C   0  0  0  0  0  0  0  0  0  0  0  0
   57.5840   31.9160   51.1460 N   0  0  0  0  0  0  0  0  0  0  0  0
   57.0220   30.7840   51.9380 C   0  0  0  0  0  0  0  0  0  0  0  0
   55.4910   30.8430   52.0460 C   0  0  0  0  0  0  0  0  0  0  0  0
   58.7020   31.4560   50.2770 C   0  0  0  0  0  0  0  0  0  0  0  0
   58.5220   30.0340   49.7040 C   0  0  0  0  0  0  0  0  0  0  0  0
   59.3540   29.8190   48.5180 N   0  0  0  0  0  0  0  0  0  0  0  0
   59.2190   30.6280   47.3350 C   0  0  0  0  0  0  0  0  0  0  0  0
   58.3480   30.2060   46.3150 C   0  0  0  0  0  0  0  0  0  0  0  0
   57.9330   28.8590   46.2150 C   0  0  0  0  0  0  0  0  0  0  0  0
   57.0830   28.4490   45.1890 C   0  0  0  0  0  0  0  0  0  0  0  0
   56.6460   29.3670   44.2380 C   0  0  0  0  0  0  0  0  0  0  0  0
   57.0360   30.7040   44.3240 C   0  0  0  0  0  0  0  0  0  0  0  0
   57.8630   31.1590   45.3830 C   0  0  0  0  0  0  0  0  0  0  0  0
   58.1830   32.4930   45.5350 N   0  0  0  0  0  0  0  0  0  0  0  0
   57.3890   33.5260   44.8310 C   0  0  0  0  0  0  0  0  0  0  0  0
   59.2330   32.8610   46.3600 C   0  0  0  0  0  0  0  0  0  0  0  0
   59.7380   34.1820   46.3500 C   0  0  0  0  0  0  0  0  0  0  0  0
   60.7550   34.5770   47.2080 C   0  0  0  0  0  0  0  0  0  0  0  0
   61.3950   33.6430   48.0220 C   0  0  0  0  0  0  0  0  0  0  0  0
   62.4800   34.0530   48.8140 C   0  0  0  0  0  0  0  0  0  0  0  0
   63.2240   33.1160   49.5510 C   0  0  0  0  0  0  0  0  0  0  0  0
   64.2970   33.4950   50.3740 O   0  0  0  0  0  0  0  0  0  0  0  0
   65.6370   33.0320   50.2240 C   0  0  0  0  0  0  0  0  0  0  0  0
   62.9070   31.7570   49.4550 C   0  0  0  0  0  0  0  0  0  0  0  0
   63.7050   30.8420   50.1620 O   0  0  0  0  0  0  0  0  0  0  0  0
   63.2820   30.1190   51.3160 C   0  0  0  0  0  0  0  0  0  0  0  0
   61.8200   31.3480   48.6580 C   0  0  0  0  0  0  0  0  0  0  0  0
   60.9910   32.2870   47.9990 C   0  0  0  0  0  0  0  0  0  0  0  0
   59.8270   31.9100   47.2440 C   0  0  0  0  0  0  0  0  0  0  0  0
   59.9436   34.0381   52.3506 H   0  0  0  0  0  0  0  0  0  0  0  0
   59.8921   32.9885   50.8938 H   0  0  0  0  0  0  0  0  0  0  0  0
   59.0358   34.5675   50.8938 H   0  0  0  0  0  0  0  0  0  0  0  0
   58.2783   32.5909   53.0375 H   0  0  0  0  0  0  0  0  0  0  0  0
   57.2605   33.7714   52.1053 H   0  0  0  0  0  0  0  0  0  0  0  0
   56.8300   32.2830   50.5190 H   0  0  0  0  0  0  0  0  0  0  0  0
   57.3049   29.8388   51.4517 H   0  0  0  0  0  0  0  0  0  0  0  0
   57.4313   30.8538   52.9566 H   0  0  0  0  0  0  0  0  0  0  0  0
   55.1984   30.8543   53.1063 H   0  0  0  0  0  0  0  0  0  0  0  0
   55.1237   31.7560   51.5545 H   0  0  0  0  0  0  0  0  0  0  0  0
   55.0545   29.9610   51.5545 H   0  0  0  0  0  0  0  0  0  0  0  0
   58.7935   32.1572   49.4344 H   0  0  0  0  0  0  0  0  0  0  0  0
   59.6004   31.4271   50.9110 H   0  0  0  0  0  0  0  0  0  0  0  0
   58.8031   29.3009   50.4744 H   0  0  0  0  0  0  0  0  0  0  0  0
   57.4687   29.9131   49.4107 H   0  0  0  0  0  0  0  0  0  0  0  0
   60.0590   29.0510   48.5360 H   0  0  0  0  0  0  0  0  0  0  0  0
   58.2847   28.1254   46.9554 H   0  0  0  0  0  0  0  0  0  0  0  0
   56.7575   27.3999   45.1308 H   0  0  0  0  0  0  0  0  0  0  0  0
   55.9920   29.0377   43.4171 H   0  0  0  0  0  0  0  0  0  0  0  0
   56.6966   31.4169   43.5581 H   0  0  0  0  0  0  0  0  0  0  0  0
   56.8920   34.1726   45.5691 H   0  0  0  0  0  0  0  0  0  0  0  0
   58.0547   34.1337   44.2005 H   0  0  0  0  0  0  0  0  0  0  0  0
   56.6305   33.0390   44.2005 H   0  0  0  0  0  0  0  0  0  0  0  0
   59.3149   34.9135   45.6458 H   0  0  0  0  0  0  0  0  0  0  0  0
   61.0581   35.6337   47.2461 H   0  0  0  0  0  0  0  0  0  0  0  0
   62.7501   35.1184   48.8578 H   0  0  0  0  0  0  0  0  0  0  0  0
   66.0848   32.8773   51.2168 H   0  0  0  0  0  0  0  0  0  0  0  0
   65.6368   32.0818   49.6698 H   0  0  0  0  0  0  0  0  0  0  0  0
   66.2234   33.7796   49.6698 H   0  0  0  0  0  0  0  0  0  0  0  0
   63.5971   30.6575   52.2219 H   0  0  0  0  0  0  0  0  0  0  0  0
   62.1861   30.0244   51.3081 H   0  0  0  0  0  0  0  0  0  0  0  0
   63.7365   29.1173   51.3081 H   0  0  0  0  0  0  0  0  0  0  0  0
   61.6106   30.2740   48.5452 H   0  0  0  0  0  0  0  0  0  0  0  0
  1  2  1  0
  2  3  1  0
  3  4  1  0
  4  5  1  0
  3  6  1  0
  6  7  1  0
  7  8  1  0
  8  9  1  0
  9 10  2  0
 10 11  1  0
 11 12  2  0
 12 13  1  0
 13 14  2  0
 14 15  1  0
 15 16  2  0
 16 17  1  0
 16 18  1  0
 18 19  2  0
 19 20  1  0
 20 21  2  0
 21 22  1  0
 22 23  2  0
 23 24  1  0
 24 25  1  0
 23 26  1  0
 26 27  1  0
 27 28  1  0
 26 29  2  0
 29 30  1  0
 30 31  2  0
 31  9  1  0
 15 10  1  0
 31 18  1  0
 30 21  1  0
  1 32  1  0
  1 33  1  0
  1 34  1  0
  2 35  1  0
  2 36  1  0
  3 37  1  0
  4 38  1  0
  4 39  1  0
  5 40  1  0
  5 41  1  0
  5 42  1  0
  6 43  1  0
  6 44  1  0
  7 45  1  0
  7 46  1  0
  8 47  1  0
 11 48  1  0
 12 49  1  0
 13 50  1  0
 14 51  1  0
 17 52  1  0
 17 53  1  0
 17 54  1  0
 19 55  1  0
 20 56  1  0
 22 57  1  0
 25 58  1  0
 25 59  1  0
 25 60  1  0
 28 61  1  0
 28 62  1  0
 28 63  1  0
 29 64  1  0
M  CHG  2   3   1  16   1
M  END
>  <UniqueID>  (16) 
16

>  <SMILES>  (16) 
CC[NH+](CC)CCNc1c2ccccc2[n+](C)c2ccc3cc(OC)c(OC)cc3c12

>  <Energy>  (16) 
108.82177645955822

>  <Genealogy>  (16) 
CC[NH+](CC)CCNc1c2ccccc2[n+](C)c2ccc3cc(OC)c(OC)cc3c12 (protonated)
CC[NH+](CC)CCNc1c2ccccc2[n+](C)c2ccc3cc(OC)c(OC)cc3c12 (3D coordinates assigned)
CC[NH+](CC)CCNc1c2ccccc2[n+](C)c2ccc3cc(OC)c(OC)cc3c12 (optimized conformer: 108.82177645955822 kcal/mol)

>  <smiles>  (16) 
CCN(CC)CCNc1c2ccccc2[n+](C)c2ccc3cc(OC)c(OC)cc3c12

>  <score_type>  (16) 
oracle

>  <origin>  (16) 
adg

>  <m_score__min__energy>  (16) 
-4.4900000000000002

>  <m_primary>  (16) 
energy

$$$$
16:0
     RDKit          3D

 42 45  0  0  0  0  0  0  0  0999 V2000
   56.5710   30.8040   43.6250 C   0  0  0  0  0  0  0  0  0  0  0  0
   56.6350   30.1170   44.8710 O   0  0  0  0  0  0  0  0  0  0  0  0
   57.5170   29.0640   45.1540 C   0  0  0  0  0  0  0  0  0  0  0  0
   57.6140   27.9250   44.3290 C   0  0  0  0  0  0  0  0  0  0  0  0
   58.5060   26.8990   44.6460 C   0  0  0  0  0  0  0  0  0  0  0  0
   59.3100   26.9960   45.7820 C   0  0  0  0  0  0  0  0  0  0  0  0
   59.2240   28.1180   46.6060 C   0  0  0  0  0  0  0  0  0  0  0  0
   58.3230   29.1580   46.3010 C   0  0  0  0  0  0  0  0  0  0  0  0
   58.2100   30.3020   47.1070 O   0  0  0  0  0  0  0  0  0  0  0  0
   59.2420   31.2320   47.3060 C   0  0  0  0  0  0  0  0  0  0  0  0
   59.2280   32.4390   46.5990 C   0  0  0  0  0  0  0  0  0  0  0  0
   58.1530   32.7500   45.7430 C   0  0  0  0  0  0  0  0  0  0  0  0
   58.1120   33.9690   45.0720 C   0  0  0  0  0  0  0  0  0  0  0  0
   59.1320   34.8970   45.2520 C   0  0  0  0  0  0  0  0  0  0  0  0
   60.2140   34.6020   46.0830 C   0  0  0  0  0  0  0  0  0  0  0  0
   60.3050   33.3520   46.7480 C   0  0  0  0  0  0  0  0  0  0  0  0
   61.3930   33.0170   47.5340 N   0  0  0  0  0  0  0  0  0  0  0  0
   62.6300   33.8270   47.4680 C   0  0  0  0  0  0  0  0  0  0  0  0
   61.3310   31.9120   48.3640 C   0  0  0  0  0  0  0  0  0  0  0  0
   62.3020   31.6770   49.3710 C   0  0  0  0  0  0  0  0  0  0  0  0
   62.2400   30.5420   50.1800 C   0  0  0  0  0  0  0  0  0  0  0  0
   61.2060   29.6250   50.0230 C   0  0  0  0  0  0  0  0  0  0  0  0
   60.2160   29.8480   49.0690 C   0  0  0  0  0  0  0  0  0  0  0  0
   60.2620   30.9860   48.2390 C   0  0  0  0  0  0  0  0  0  0  0  0
   56.4704   31.8842   43.8066 H   0  0  0  0  0  0  0  0  0  0  0  0
   57.4909   30.6125   43.0530 H   0  0  0  0  0  0  0  0  0  0  0  0
   55.7023   30.4459   43.0530 H   0  0  0  0  0  0  0  0  0  0  0  0
   56.9837   27.8443   43.4311 H   0  0  0  0  0  0  0  0  0  0  0  0
   58.5751   26.0123   43.9988 H   0  0  0  0  0  0  0  0  0  0  0  0
   60.0128   26.1864   46.0282 H   0  0  0  0  0  0  0  0  0  0  0  0
   59.8627   28.1916   47.4986 H   0  0  0  0  0  0  0  0  0  0  0  0
   57.3391   32.0233   45.6037 H   0  0  0  0  0  0  0  0  0  0  0  0
   57.2725   34.1983   44.3992 H   0  0  0  0  0  0  0  0  0  0  0  0
   59.0859   35.8680   44.7371 H   0  0  0  0  0  0  0  0  0  0  0  0
   61.0081   35.3499   46.2244 H   0  0  0  0  0  0  0  0  0  0  0  0
   62.9751   34.0530   48.4877 H   0  0  0  0  0  0  0  0  0  0  0  0
   63.4091   33.2636   46.9336 H   0  0  0  0  0  0  0  0  0  0  0  0
   62.4251   34.7664   46.9336 H   0  0  0  0  0  0  0  0  0  0  0  0
   63.1170   32.4013   49.5164 H   0  0  0  0  0  0  0  0  0  0  0  0
   63.0119   30.3717   50.9450 H   0  0  0  0  0  0  0  0  0  0  0  0
   61.1701   28.7236   50.6524 H   0  0  0  0  0  0  0  0  0  0  0  0
   59.3904   29.1290   48.9624 H   0  0  0  0  0  0  0  0  0  0  0  0
  1  2  1  0
  2  3  1  0
  3  4  2  0
  4  5  1  0
  5  6  2  0
  6  7  1  0
  7  8  2  0
  8  9  1  0
  9 10  1  0
 10 11  1  0
 11 12  2  0
 12 13  1  0
 13 14  2  0
 14 15  1  0
 15 16  2  0
 16 17  1  0
 17 18  1  0
 17 19  2  0
 19 20  1  0
 20 21  2  0
 21 22  1  0
 22 23  2  0
 23 24  1  0
  8  3  1  0
 24 10  2  0
 16 11  1  0
 24 19  1  0
  1 25  1  0
  1 26  1  0
  1 27  1  0
  4 28  1  0
  5 29  1  0
  6 30  1  0
  7 31  1  0
 12 32  1  0
 13 33  1  0
 14 34  1  0
 15 35  1  0
 18 36  1  0
 18 37  1  0
 18 38  1  0
 20 39  1  0
 21 40  1  0
 22 41  1  0
 23 42  1  0
M  CHG  1  17   1
M  END
>  <UniqueID>  (17) 
17

>  <SMILES>  (17) 
COc1ccccc1Oc1c2ccccc2[n+](C)c2ccccc12

>  <Energy>  (17) 
74.24339701850785

>  <Genealogy>  (17) 
COc1ccccc1Oc1c2ccccc2[n+](C)c2ccccc12 (3D coordinates assigned)
COc1ccccc1Oc1c2ccccc2[n+](C)c2ccccc12 (optimized conformer: 74.24339701850785 kcal/mol)

>  <smiles>  (17) 
COc1ccccc1Oc1c2ccccc2[n+](C)c2ccccc12

>  <score_type>  (17) 
oracle

>  <origin>  (17) 
adg

>  <m_score__min__energy>  (17) 
-6.1299999999999999

>  <m_primary>  (17) 
energy

$$$$
17:0
     RDKit          3D

 41 44  0  0  0  0  0  0  0  0999 V2000
   59.6520   27.9110   48.2360 C   0  0  0  0  0  0  0  0  0  0  0  0
   58.8920   27.1820   47.1720 C   0  0  0  0  0  0  0  0  0  0  0  0
   57.8540   26.3620   47.4900 N   0  0  0  0  0  0  0  0  0  0  0  0
   57.2580   25.8340   46.4000 C   0  0  0  0  0  0  0  0  0  0  0  0
   57.9940   26.3810   44.9960 S   0  0  0  0  0  0  0  0  0  0  0  0
   59.1530   27.3020   45.8000 C   0  0  0  0  0  0  0  0  0  0  0  0
   60.1650   28.2320   45.1580 C   0  0  0  0  0  0  0  0  0  0  0  0
   59.8340   29.6810   45.2260 N   0  0  0  0  0  0  0  0  0  0  0  0
   60.4320   30.3180   46.4200 C   0  0  0  0  0  0  0  0  0  0  0  0
   60.1670   31.8020   46.4740 C   0  0  0  0  0  0  0  0  0  0  0  0
   60.9630   32.6050   47.3080 C   0  0  0  0  0  0  0  0  0  0  0  0
   60.7270   33.9770   47.4050 C   0  0  0  0  0  0  0  0  0  0  0  0
   59.6960   34.5620   46.6700 C   0  0  0  0  0  0  0  0  0  0  0  0
   59.4830   35.8990   46.7470 F   0  0  0  0  0  0  0  0  0  0  0  0
   58.8880   33.7730   45.8500 C   0  0  0  0  0  0  0  0  0  0  0  0
   59.0850   32.3800   45.7730 C   0  0  0  0  0  0  0  0  0  0  0  0
   58.2620   31.5420   44.8160 C   0  0  2  0  0  0  0  0  0  0  0  0
   56.7500   31.9160   44.8040 C   0  0  0  0  0  0  0  0  0  0  0  0
   55.8960   30.8220   44.4960 O   0  0  0  0  0  0  0  0  0  0  0  0
   56.4360   30.0410   43.4490 C   0  0  0  0  0  0  0  0  0  0  0  0
   57.6890   29.2800   43.9290 C   0  0  0  0  0  0  0  0  0  0  0  0
   58.3980   30.0290   45.0880 C   0  0  1  0  0  0  0  0  0  0  0  0
   59.3062   27.5793   49.2262 H   0  0  0  0  0  0  0  0  0  0  0  0
   60.7258   27.6965   48.1318 H   0  0  0  0  0  0  0  0  0  0  0  0
   59.4824   28.9928   48.1318 H   0  0  0  0  0  0  0  0  0  0  0  0
   56.4055   25.1394   46.4288 H   0  0  0  0  0  0  0  0  0  0  0  0
   61.1315   28.0808   45.6610 H   0  0  0  0  0  0  0  0  0  0  0  0
   60.1776   27.9741   44.0887 H   0  0  0  0  0  0  0  0  0  0  0  0
   60.0067   29.8503   47.3202 H   0  0  0  0  0  0  0  0  0  0  0  0
   61.5212   30.1737   46.3669 H   0  0  0  0  0  0  0  0  0  0  0  0
   61.7782   32.1489   47.8888 H   0  0  0  0  0  0  0  0  0  0  0  0
   61.3545   34.5975   48.0616 H   0  0  0  0  0  0  0  0  0  0  0  0
   58.0893   34.2434   45.2578 H   0  0  0  0  0  0  0  0  0  0  0  0
   58.6819   31.7736   43.8260 H   0  0  0  0  0  0  0  0  0  0  0  0
   56.4787   32.2998   45.7985 H   0  0  0  0  0  0  0  0  0  0  0  0
   56.6097   32.6676   44.0132 H   0  0  0  0  0  0  0  0  0  0  0  0
   55.6802   29.3164   43.1118 H   0  0  0  0  0  0  0  0  0  0  0  0
   56.7213   30.7068   42.6212 H   0  0  0  0  0  0  0  0  0  0  0  0
   57.3887   28.2814   44.2792 H   0  0  0  0  0  0  0  0  0  0  0  0
   58.3913   29.2037   43.0858 H   0  0  0  0  0  0  0  0  0  0  0  0
   57.9179   29.7300   46.0315 H   0  0  0  0  0  0  0  0  0  0  0  0
  1  2  1  0
  2  3  1  0
  3  4  2  0
  4  5  1  0
  5  6  1  0
  6  7  1  0
  7  8  1  0
  8  9  1  0
  9 10  1  0
 10 11  2  0
 11 12  1  0
 12 13  2  0
 13 14  1  0
 13 15  1  0
 15 16  2  0
 16 17  1  0
 17 18  1  0
 18 19  1  0
 19 20  1  0
 20 21  1  0
 21 22  1  0
  6  2  2  0
 22  8  1  0
 16 10  1  0
 22 17  1  0
  1 23  1  0
  1 24  1  0
  1 25  1  0
  4 26  1  0
  7 27  1  0
  7 28  1  0
  9 29  1  0
  9 30  1  0
 11 31  1  0
 12 32  1  0
 15 33  1  0
 17 34  1  6
 18 35  1  0
 18 36  1  0
 20 37  1  0
 20 38  1  0
 21 39  1  0
 21 40  1  0
 22 41  1  1
M  END
>  <UniqueID>  (18) 
18

>  <SMILES>  (18) 
Cc1ncsc1CN1Cc2ccc(F)cc2[C@@H]2COCC[C@H]21

>  <Energy>  (18) 
94.22895346605702

>  <Genealogy>  (18) 
Cc1ncsc1CN1Cc2ccc(F)cc2[C@@H]2COCC[C@H]21 (chirality)
Cc1ncsc1CN1Cc2ccc(F)cc2[C@@H]2COCC[C@H]21 (3D coordinates assigned)
Cc1ncsc1CN1Cc2ccc(F)cc2[C@@H]2COCC[C@H]21 (nonaromatic ring conformer: 94.22895346605702 kcal/mol)

>  <smiles>  (18) 
Cc1ncsc1CN1Cc2ccc(F)cc2C2COCCC21

>  <score_type>  (18) 
oracle

>  <origin>  (18) 
adg

>  <m_score__min__energy>  (18) 
-7.54

>  <m_primary>  (18) 
energy

$$$$
18:0
     RDKit          3D

 34 34  0  0  0  0  0  0  0  0999 V2000
   57.5220   27.5780   45.7330 C   0  0  0  0  0  0  0  0  0  0  0  0
   58.8170   27.9980   46.4390 C   0  0  0  0  0  0  0  0  0  0  0  0
   59.3620   29.2660   45.8960 N   0  0  2  0  0  0  0  0  0  0  0  0
   60.3850   28.9640   44.8770 C   0  0  0  0  0  0  0  0  0  0  0  0
   59.9360   30.1280   46.9730 C   0  0  0  0  0  0  0  0  0  0  0  0
   58.9090   31.1150   47.5590 C   0  0  0  0  0  0  0  0  0  0  0  0
   58.6150   32.2610   46.6210 C   0  0  0  0  0  0  0  0  0  0  0  0
   59.2020   33.5150   46.8710 C   0  0  0  0  0  0  0  0  0  0  0  0
   58.9780   34.5870   46.0070 C   0  0  0  0  0  0  0  0  0  0  0  0
   58.1690   34.4220   44.8830 C   0  0  0  0  0  0  0  0  0  0  0  0
   57.5790   33.1830   44.6190 C   0  0  0  0  0  0  0  0  0  0  0  0
   57.7950   32.0910   45.4830 C   0  0  0  0  0  0  0  0  0  0  0  0
   57.2140   30.8350   45.2390 O   0  0  0  0  0  0  0  0  0  0  0  0
   56.6060   30.4490   44.0120 C   0  0  0  0  0  0  0  0  0  0  0  0
   56.7582   27.3303   46.4849 H   0  0  0  0  0  0  0  0  0  0  0  0
   57.1624   28.4056   45.1039 H   0  0  0  0  0  0  0  0  0  0  0  0
   57.7165   26.6969   45.1039 H   0  0  0  0  0  0  0  0  0  0  0  0
   58.6095   28.1313   47.5110 H   0  0  0  0  0  0  0  0  0  0  0  0
   59.5650   27.2088   46.2726 H   0  0  0  0  0  0  0  0  0  0  0  0
   58.5840   29.7650   45.4020 H   0  0  0  0  0  0  0  0  0  0  0  0
   61.3264   28.6861   45.3736 H   0  0  0  0  0  0  0  0  0  0  0  0
   60.0414   28.1290   44.2488 H   0  0  0  0  0  0  0  0  0  0  0  0
   60.5500   29.8517   44.2488 H   0  0  0  0  0  0  0  0  0  0  0  0
   60.3030   29.4806   47.7831 H   0  0  0  0  0  0  0  0  0  0  0  0
   60.7470   30.7212   46.5252 H   0  0  0  0  0  0  0  0  0  0  0  0
   57.9729   30.5735   47.7600 H   0  0  0  0  0  0  0  0  0  0  0  0
   59.3357   31.5363   48.4812 H   0  0  0  0  0  0  0  0  0  0  0  0
   59.8426   33.6511   47.7548 H   0  0  0  0  0  0  0  0  0  0  0  0
   59.4401   35.5639   46.2125 H   0  0  0  0  0  0  0  0  0  0  0  0
   57.9950   35.2689   44.2029 H   0  0  0  0  0  0  0  0  0  0  0  0
   56.9418   33.0594   43.7309 H   0  0  0  0  0  0  0  0  0  0  0  0
   55.6942   29.8701   44.2208 H   0  0  0  0  0  0  0  0  0  0  0  0
   56.3455   31.3475   43.4333 H   0  0  0  0  0  0  0  0  0  0  0  0
   57.3082   29.8310   43.4333 H   0  0  0  0  0  0  0  0  0  0  0  0
  1  2  1  0
  2  3  1  0
  3  4  1  0
  3  5  1  0
  5  6  1  0
  6  7  1  0
  7  8  2  0
  8  9  1  0
  9 10  2  0
 10 11  1  0
 11 12  2  0
 12 13  1  0
 13 14  1  0
 12  7  1  0
  1 15  1  0
  1 16  1  0
  1 17  1  0
  2 18  1  0
  2 19  1  0
  3 20  1  6
  4 21  1  0
  4 22  1  0
  4 23  1  0
  5 24  1  0
  5 25  1  0
  6 26  1  0
  6 27  1  0
  8 28  1  0
  9 29  1  0
 10 30  1  0
 11 31  1  0
 14 32  1  0
 14 33  1  0
 14 34  1  0
M  CHG  1   3   1
M  END
>  <UniqueID>  (19) 
19

>  <SMILES>  (19) 
CC[N@H+](C)CCc1ccccc1OC

>  <Energy>  (19) 
32.155000430349865

>  <Genealogy>  (19) 
CC[NH+](C)CCc1ccccc1OC (protonated)
CC[N@H+](C)CCc1ccccc1OC (chirality)
CC[N@H+](C)CCc1ccccc1OC (3D coordinates assigned)
CC[N@H+](C)CCc1ccccc1OC (optimized conformer: 32.155000430349865 kcal/mol)

>  <smiles>  (19) 
CCN(C)CCc1ccccc1OC

>  <score_type>  (19) 
oracle

>  <origin>  (19) 
adg

>  <m_score__min__energy>  (19) 
-3.1200000000000001

>  <m_primary>  (19) 
energy

$$$$
19:0
     RDKit          3D

 58 62  0  0  0  0  0  0  0  0999 V2000
   62.2080   31.2190   47.2190 C   0  0  0  0  0  0  0  0  0  0  0  0
   62.8570   32.5480   47.5990 C   0  0  0  0  0  0  0  0  0  0  0  0
   61.9050   33.6650   47.4200 N   0  0  0  0  0  0  0  0  0  0  0  0
   61.4590   34.3210   48.6670 C   0  0  0  0  0  0  0  0  0  0  0  0
   62.4320   34.1590   49.8400 C   0  0  0  0  0  0  0  0  0  0  0  0
   60.8980   33.5420   46.3370 C   0  0  0  0  0  0  0  0  0  0  0  0
   59.5390   34.2250   46.6060 C   0  0  0  0  0  0  0  0  0  0  0  0
   58.4350   33.2670   46.6900 N   0  0  0  0  0  0  0  0  0  0  0  0
   58.6690   31.9330   47.1730 C   0  0  0  0  0  0  0  0  0  0  0  0
   58.8720   31.6920   48.5420 C   0  0  0  0  0  0  0  0  0  0  0  0
   58.8940   32.7490   49.4780 C   0  0  0  0  0  0  0  0  0  0  0  0
   59.0860   32.4950   50.8350 C   0  0  0  0  0  0  0  0  0  0  0  0
   59.2730   31.1910   51.2800 C   0  0  0  0  0  0  0  0  0  0  0  0
   59.2950   30.1350   50.3690 C   0  0  0  0  0  0  0  0  0  0  0  0
   59.1170   30.3660   48.9820 C   0  0  0  0  0  0  0  0  0  0  0  0
   59.2070   29.3370   48.0670 N   0  0  0  0  0  0  0  0  0  0  0  0
   60.0040   28.1480   48.4370 C   0  0  0  0  0  0  0  0  0  0  0  0
   58.7720   29.5250   46.7680 C   0  0  0  0  0  0  0  0  0  0  0  0
   58.6340   30.8490   46.2770 C   0  0  0  0  0  0  0  0  0  0  0  0
   58.4570   31.0590   44.8960 C   0  0  0  0  0  0  0  0  0  0  0  0
   58.3840   30.0150   44.0360 N   0  0  0  0  0  0  0  0  0  0  0  0
   58.3500   28.7290   44.4750 C   0  0  0  0  0  0  0  0  0  0  0  0
   58.1250   27.6850   43.5500 C   0  0  0  0  0  0  0  0  0  0  0  0
   57.9330   26.4030   44.0460 C   0  0  0  0  0  0  0  0  0  0  0  0
   57.9430   26.1410   45.3740 C   0  0  0  0  0  0  0  0  0  0  0  0
   58.1770   27.1300   46.3210 C   0  0  0  0  0  0  0  0  0  0  0  0
   58.4710   28.4480   45.8740 C   0  0  0  0  0  0  0  0  0  0  0  0
   57.6680   24.8030   45.5810 O   0  0  0  0  0  0  0  0  0  0  0  0
   57.4810   24.1850   44.2990 C   0  0  0  0  0  0  0  0  0  0  0  0
   57.6570   25.2420   43.3480 O   0  0  0  0  0  0  0  0  0  0  0  0
   61.9389   30.6680   48.1322 H   0  0  0  0  0  0  0  0  0  0  0  0
   61.3017   31.4099   46.6255 H   0  0  0  0  0  0  0  0  0  0  0  0
   62.9158   30.6217   46.6255 H   0  0  0  0  0  0  0  0  0  0  0  0
   63.1724   32.5077   48.6520 H   0  0  0  0  0  0  0  0  0  0  0  0
   63.7262   32.7163   46.9462 H   0  0  0  0  0  0  0  0  0  0  0  0
   61.3344   35.3955   48.4670 H   0  0  0  0  0  0  0  0  0  0  0  0
   60.5189   33.8332   48.9641 H   0  0  0  0  0  0  0  0  0  0  0  0
   61.8818   34.2506   50.7881 H   0  0  0  0  0  0  0  0  0  0  0  0
   62.9088   33.1691   49.7869 H   0  0  0  0  0  0  0  0  0  0  0  0
   63.2038   34.9410   49.7869 H   0  0  0  0  0  0  0  0  0  0  0  0
   61.3253   33.9865   45.4260 H   0  0  0  0  0  0  0  0  0  0  0  0
   60.6814   32.4671   46.2493 H   0  0  0  0  0  0  0  0  0  0  0  0
   59.6025   34.7738   47.5572 H   0  0  0  0  0  0  0  0  0  0  0  0
   59.3319   34.8993   45.7620 H   0  0  0  0  0  0  0  0  0  0  0  0
   57.4460   33.5960   46.6360 H   0  0  0  0  0  0  0  0  0  0  0  0
   58.7581   33.7844   49.1324 H   0  0  0  0  0  0  0  0  0  0  0  0
   59.0896   33.3270   51.5546 H   0  0  0  0  0  0  0  0  0  0  0  0
   59.4040   30.9916   52.3538 H   0  0  0  0  0  0  0  0  0  0  0  0
   59.4527   29.1087   50.7321 H   0  0  0  0  0  0  0  0  0  0  0  0
   60.0571   28.0687   49.5329 H   0  0  0  0  0  0  0  0  0  0  0  0
   59.5279   27.2452   48.0267 H   0  0  0  0  0  0  0  0  0  0  0  0
   61.0200   28.2454   48.0267 H   0  0  0  0  0  0  0  0  0  0  0  0
   58.3768   32.0859   44.5099 H   0  0  0  0  0  0  0  0  0  0  0  0
   58.2780   30.2230   43.0150 H   0  0  0  0  0  0  0  0  0  0  0  0
   58.1026   27.8825   42.4681 H   0  0  0  0  0  0  0  0  0  0  0  0
   58.1357   26.8984   47.3956 H   0  0  0  0  0  0  0  0  0  0  0  0
   58.2274   23.3930   44.1391 H   0  0  0  0  0  0  0  0  0  0  0  0
   56.4930   23.7096   44.2099 H   0  0  0  0  0  0  0  0  0  0  0  0
  1  2  1  0
  2  3  1  0
  3  4  1  0
  4  5  1  0
  3  6  1  0
  6  7  1  0
  7  8  1  0
  8  9  1  0
  9 10  2  0
 10 11  1  0
 11 12  2  0
 12 13  1  0
 13 14  2  0
 14 15  1  0
 15 16  2  0
 16 17  1  0
 16 18  1  0
 18 19  2  0
 19 20  1  0
 20 21  2  0
 21 22  1  0
 22 23  2  0
 23 24  1  0
 24 25  2  0
 25 26  1  0
 26 27  2  0
 25 28  1  0
 28 29  1  0
 29 30  1  0
 19  9  1  0
 27 22  1  0
 15 10  1  0
 27 18  1  0
 30 24  1  0
  1 31  1  0
  1 32  1  0
  1 33  1  0
  2 34  1  0
  2 35  1  0
  4 36  1  0
  4 37  1  0
  5 38  1  0
  5 39  1  0
  5 40  1  0
  6 41  1  0
  6 42  1  0
  7 43  1  0
  7 44  1  0
  8 45  1  0
 11 46  1  0
 12 47  1  0
 13 48  1  0
 14 49  1  0
 17 50  1  0
 17 51  1  0
 17 52  1  0
 20 53  1  0
 21 54  1  0
 23 55  1  0
 26 56  1  0
 29 57  1  0
 29 58  1  0
M  CHG  2  16   1  21   1
M  END
>  <UniqueID>  (20) 
20

>  <SMILES>  (20) 
CCN(CC)CCNc1c2ccccc2[n+](C)c2c1c[nH+]c1cc3c(cc12)OCO3

>  <Energy>  (20) 
139.3783123309791

>  <Genealogy>  (20) 
CCN(CC)CCNc1c2ccccc2[n+](C)c2c1c[nH+]c1cc3c(cc12)OCO3 (protonated)
CCN(CC)CCNc1c2ccccc2[n+](C)c2c1c[nH+]c1cc3c(cc12)OCO3 (3D coordinates assigned)
CCN(CC)CCNc1c2ccccc2[n+](C)c2c1c[nH+]c1cc3c(cc12)OCO3 (nonaromatic ring conformer: 139.3783123309791 kcal/mol)

>  <smiles>  (20) 
CCN(CC)CCNc1c2ccccc2[n+](C)c2c1cnc1cc3c(cc12)OCO3

>  <score_type>  (20) 
oracle

>  <origin>  (20) 
adg

>  <m_score__min__energy>  (20) 
-5.1100000000000003

>  <m_primary>  (20) 
energy

$$$$
20:0
     RDKit          3D

 36 38  0  0  0  0  0  0  0  0999 V2000
   58.4320   33.4800   46.3920 C   0  0  0  0  0  0  0  0  0  0  0  0
   59.2810   32.5610   47.0710 O   0  0  0  0  0  0  0  0  0  0  0  0
   60.6850   32.6230   47.0690 C   0  0  0  0  0  0  0  0  0  0  0  0
   61.3740   33.8040   46.7290 C   0  0  0  0  0  0  0  0  0  0  0  0
   62.7710   33.8400   46.7550 C   0  0  0  0  0  0  0  0  0  0  0  0
   63.4940   32.7050   47.1180 C   0  0  0  0  0  0  0  0  0  0  0  0
   62.8250   31.5260   47.4540 C   0  0  0  0  0  0  0  0  0  0  0  0
   61.4200   31.4730   47.4270 C   0  0  0  0  0  0  0  0  0  0  0  0
   60.7150   30.1990   47.8380 C   0  0  0  0  0  0  0  0  0  0  0  0
   59.3780   30.0860   47.2290 N   0  0  0  0  0  0  0  0  0  0  0  0
   59.0210   28.7040   46.9800 C   0  0  0  0  0  0  0  0  0  0  0  0
   59.7510   27.6950   47.6390 C   0  0  0  0  0  0  0  0  0  0  0  0
   59.3860   26.3530   47.5290 C   0  0  0  0  0  0  0  0  0  0  0  0
   58.2770   25.9930   46.7690 C   0  0  0  0  0  0  0  0  0  0  0  0
   57.5360   26.9710   46.1070 C   0  0  0  0  0  0  0  0  0  0  0  0
   57.8970   28.3290   46.1840 C   0  0  0  0  0  0  0  0  0  0  0  0
   57.0650   29.2970   45.4350 C   0  0  0  0  0  0  0  0  0  0  0  0
   55.8390   29.0460   44.9410 N   0  0  0  0  0  0  0  0  0  0  0  0
   55.4400   30.1960   44.4240 N   0  0  0  0  0  0  0  0  0  0  0  0
   56.3720   31.1170   44.6070 N   0  0  0  0  0  0  0  0  0  0  0  0
   57.4020   30.5870   45.2480 N   0  0  0  0  0  0  0  0  0  0  0  0
   57.8776   34.0801   47.1286 H   0  0  0  0  0  0  0  0  0  0  0  0
   59.0409   34.1445   45.7613 H   0  0  0  0  0  0  0  0  0  0  0  0
   57.7214   32.9256   45.7613 H   0  0  0  0  0  0  0  0  0  0  0  0
   60.8092   34.7030   46.4414 H   0  0  0  0  0  0  0  0  0  0  0  0
   63.3011   34.7662   46.4884 H   0  0  0  0  0  0  0  0  0  0  0  0
   64.5933   32.7379   47.1399 H   0  0  0  0  0  0  0  0  0  0  0  0
   63.4004   30.6337   47.7414 H   0  0  0  0  0  0  0  0  0  0  0  0
   61.3231   29.3388   47.5215 H   0  0  0  0  0  0  0  0  0  0  0  0
   60.5898   30.2177   48.9307 H   0  0  0  0  0  0  0  0  0  0  0  0
   59.3960   30.5980   46.3160 H   0  0  0  0  0  0  0  0  0  0  0  0
   58.6750   30.5840   47.8140 H   0  0  0  0  0  0  0  0  0  0  0  0
   60.6232   27.9700   48.2503 H   0  0  0  0  0  0  0  0  0  0  0  0
   59.9749   25.5791   48.0431 H   0  0  0  0  0  0  0  0  0  0  0  0
   57.9847   24.9354   46.6905 H   0  0  0  0  0  0  0  0  0  0  0  0
   56.6563   26.6768   45.5158 H   0  0  0  0  0  0  0  0  0  0  0  0
  1  2  1  0
  2  3  1  0
  3  4  2  0
  4  5  1  0
  5  6  2  0
  6  7  1  0
  7  8  2  0
  8  9  1  0
  9 10  1  0
 10 11  1  0
 11 12  2  0
 12 13  1  0
 13 14  2  0
 14 15  1  0
 15 16  2  0
 16 17  1  0
 17 18  1  0
 18 19  2  0
 19 20  1  0
 20 21  1  0
  8  3  1  0
 16 11  1  0
 21 17  2  0
  1 22  1  0
  1 23  1  0
  1 24  1  0
  4 25  1  0
  5 26  1  0
  6 27  1  0
  7 28  1  0
  9 29  1  0
  9 30  1  0
 10 31  1  0
 10 32  1  0
 12 33  1  0
 13 34  1  0
 14 35  1  0
 15 36  1  0
M  CHG  2  10   1  20  -1
M  END
>  <UniqueID>  (21) 
21

>  <SMILES>  (21) 
COc1ccccc1C[NH2+]c1ccccc1-c1nn[n-]n1

>  <Energy>  (21) 
81.6163623888282

>  <Genealogy>  (21) 
COc1ccccc1C[NH2+]c1ccccc1-c1nn[n-]n1 (protonated)
COc1ccccc1C[NH2+]c1ccccc1-c1nn[n-]n1 (3D coordinates assigned)
COc1ccccc1C[NH2+]c1ccccc1-c1nn[n-]n1 (optimized conformer: 81.6163623888282 kcal/mol)

>  <smiles>  (21) 
COc1ccccc1CNc1ccccc1-c1nn[nH]n1

>  <score_type>  (21) 
oracle

>  <origin>  (21) 
adg

>  <m_score__min__energy>  (21) 
-8.4299999999999997

>  <m_primary>  (21) 
energy

$$$$
21:0
     RDKit          3D

 72 76  0  0  0  0  0  0  0  0999 V2000
   63.3840   33.5960   46.9390 C   0  0  0  0  0  0  0  0  0  0  0  0
   63.3620   32.3460   47.8200 C   0  0  0  0  0  0  0  0  0  0  0  0
   64.0740   32.5570   49.1650 C   0  0  0  0  0  0  0  0  0  0  0  0
   63.5800   33.8150   49.9010 C   0  0  0  0  0  0  0  0  0  0  0  0
   62.7350   33.4800   51.1390 C   0  0  0  0  0  0  0  0  0  0  0  0
   61.2590   33.8630   50.9690 C   0  0  0  0  0  0  0  0  0  0  0  0
   60.5580   32.8560   50.0970 C   0  0  0  0  0  0  0  0  0  0  0  0
   60.3030   33.1520   48.7510 C   0  0  0  0  0  0  0  0  0  0  0  0
   59.6820   32.1760   47.9800 C   0  0  0  0  0  0  0  0  0  0  0  0
   59.2370   32.2130   46.6750 C   0  0  0  0  0  0  0  0  0  0  0  0
   59.2930   33.2370   45.7260 C   0  0  0  0  0  0  0  0  0  0  0  0
   59.9300   34.4490   46.0330 O   0  0  0  0  0  0  0  0  0  0  0  0
   59.6300   35.6980   45.4190 C   0  0  0  0  0  0  0  0  0  0  0  0
   58.6920   32.9990   44.4760 C   0  0  0  0  0  0  0  0  0  0  0  0
   58.0320   31.7840   44.2050 C   0  0  0  0  0  0  0  0  0  0  0  0
   57.9630   30.7620   45.1920 C   0  0  0  0  0  0  0  0  0  0  0  0
   58.6390   30.9880   46.4240 C   0  0  0  0  0  0  0  0  0  0  0  0
   58.7650   30.1700   47.5160 N   0  0  0  0  0  0  0  0  0  0  0  0
   58.5160   28.7270   47.5670 C   0  0  0  0  0  0  0  0  0  0  0  0
   59.3560   30.9330   48.4850 C   0  0  0  0  0  0  0  0  0  0  0  0
   59.5980   30.6580   49.8610 C   0  0  0  0  0  0  0  0  0  0  0  0
   59.1350   29.4060   50.5780 C   0  0  0  0  0  0  0  0  0  0  0  0
   60.2320   28.4220   50.7370 N   0  0  0  0  0  0  0  0  0  0  0  0
   61.5360   28.8860   50.2070 C   0  0  0  0  0  0  0  0  0  0  0  0
   62.3830   29.6230   51.2640 C   0  0  0  0  0  0  0  0  0  0  0  0
   61.5670   30.1480   52.2880 O   0  0  0  0  0  0  0  0  0  0  0  0
   60.9850   29.0920   53.0330 C   0  0  0  0  0  0  0  0  0  0  0  0
   60.3720   27.9860   52.1410 C   0  0  0  0  0  0  0  0  0  0  0  0
   60.1960   31.6400   50.6110 N   0  0  0  0  0  0  0  0  0  0  0  0
   57.1610   29.5110   44.9050 C   0  0  0  0  0  0  0  0  0  0  0  0
   56.1800   29.7080   43.7470 C   0  0  0  0  0  0  0  0  0  0  0  0
   56.8610   30.2960   42.5910 N   0  0  0  0  0  0  0  0  0  0  0  0
   57.2870   31.6680   42.8900 C   0  0  0  0  0  0  0  0  0  0  0  0
   63.3998   34.4930   47.5755 H   0  0  0  0  0  0  0  0  0  0  0  0
   64.2820   33.5812   46.3039 H   0  0  0  0  0  0  0  0  0  0  0  0
   62.4860   33.6128   46.3039 H   0  0  0  0  0  0  0  0  0  0  0  0
   62.3149   32.0713   48.0152 H   0  0  0  0  0  0  0  0  0  0  0  0
   63.8973   31.5501   47.2815 H   0  0  0  0  0  0  0  0  0  0  0  0
   63.8905   31.6799   49.8030 H   0  0  0  0  0  0  0  0  0  0  0  0
   65.1464   32.6892   48.9589 H   0  0  0  0  0  0  0  0  0  0  0  0
   64.4535   34.4032   50.2190 H   0  0  0  0  0  0  0  0  0  0  0  0
   62.9427   34.3801   49.2050 H   0  0  0  0  0  0  0  0  0  0  0  0
   62.7986   32.3979   51.3263 H   0  0  0  0  0  0  0  0  0  0  0  0
   63.1348   34.0626   51.9820 H   0  0  0  0  0  0  0  0  0  0  0  0
   60.7743   33.8889   51.9561 H   0  0  0  0  0  0  0  0  0  0  0  0
   61.1974   34.8535   50.4944 H   0  0  0  0  0  0  0  0  0  0  0  0
   60.5847   34.1237   48.3193 H   0  0  0  0  0  0  0  0  0  0  0  0
   59.4483   36.4546   46.1966 H   0  0  0  0  0  0  0  0  0  0  0  0
   60.4783   36.0120   44.7930 H   0  0  0  0  0  0  0  0  0  0  0  0
   58.7317   35.5925   44.7930 H   0  0  0  0  0  0  0  0  0  0  0  0
   58.7383   33.7746   43.6973 H   0  0  0  0  0  0  0  0  0  0  0  0
   58.4598   28.4015   48.6162 H   0  0  0  0  0  0  0  0  0  0  0  0
   57.5656   28.5008   47.0615 H   0  0  0  0  0  0  0  0  0  0  0  0
   59.3357   28.1954   47.0615 H   0  0  0  0  0  0  0  0  0  0  0  0
   58.7602   29.6847   51.5739 H   0  0  0  0  0  0  0  0  0  0  0  0
   58.3439   28.9395   49.9726 H   0  0  0  0  0  0  0  0  0  0  0  0
   62.1014   28.0123   49.8505 H   0  0  0  0  0  0  0  0  0  0  0  0
   61.3287   29.5975   49.3941 H   0  0  0  0  0  0  0  0  0  0  0  0
   63.1032   28.9175   51.7039 H   0  0  0  0  0  0  0  0  0  0  0  0
   62.9097   30.4550   50.7737 H   0  0  0  0  0  0  0  0  0  0  0  0
   61.7628   28.6401   53.6662 H   0  0  0  0  0  0  0  0  0  0  0  0
   60.1675   29.5231   53.6295 H   0  0  0  0  0  0  0  0  0  0  0  0
   61.0239   27.1006   52.1746 H   0  0  0  0  0  0  0  0  0  0  0  0
   59.3680   27.7557   52.5270 H   0  0  0  0  0  0  0  0  0  0  0  0
   60.3660   31.4700   51.6290 H   0  0  0  0  0  0  0  0  0  0  0  0
   57.8543   28.6967   44.6477 H   0  0  0  0  0  0  0  0  0  0  0  0
   56.5773   29.2693   45.8055 H   0  0  0  0  0  0  0  0  0  0  0  0
   55.7575   28.7335   43.4609 H   0  0  0  0  0  0  0  0  0  0  0  0
   55.3790   30.3885   44.0716 H   0  0  0  0  0  0  0  0  0  0  0  0
   57.7050   29.7210   42.3570 H   0  0  0  0  0  0  0  0  0  0  0  0
   57.9475   32.0140   42.0813 H   0  0  0  0  0  0  0  0  0  0  0  0
   56.3792   32.2839   42.9709 H   0  0  0  0  0  0  0  0  0  0  0  0
  1  2  1  0
  2  3  1  0
  3  4  1  0
  4  5  1  0
  5  6  1  0
  6  7  1  0
  7  8  2  0
  8  9  1  0
  9 10  1  0
 10 11  2  0
 11 12  1  0
 12 13  1  0
 11 14  1  0
 14 15  2  0
 15 16  1  0
 16 17  2  0
 17 18  1  0
 18 19  1  0
 18 20  1  0
 20 21  1  0
 21 22  1  0
 22 23  1  0
 23 24  1  0
 24 25  1  0
 25 26  1  0
 26 27  1  0
 27 28  1  0
 21 29  2  0
 16 30  1  0
 30 31  1  0
 31 32  1  0
 32 33  1  0
 29  7  1  0
 20  9  2  0
 28 23  1  0
 17 10  1  0
 33 15  1  0
  1 34  1  0
  1 35  1  0
  1 36  1  0
  2 37  1  0
  2 38  1  0
  3 39  1  0
  3 40  1  0
  4 41  1  0
  4 42  1  0
  5 43  1  0
  5 44  1  0
  6 45  1  0
  6 46  1  0
  8 47  1  0
 13 48  1  0
 13 49  1  0
 13 50  1  0
 14 51  1  0
 19 52  1  0
 19 53  1  0
 19 54  1  0
 22 55  1  0
 22 56  1  0
 24 57  1  0
 24 58  1  0
 25 59  1  0
 25 60  1  0
 27 61  1  0
 27 62  1  0
 28 63  1  0
 28 64  1  0
 29 65  1  0
 30 66  1  0
 30 67  1  0
 31 68  1  0
 31 69  1  0
 32 70  1  0
 33 71  1  0
 33 72  1  0
M  CHG  1  29   1
M  END
>  <UniqueID>  (22) 
22

>  <SMILES>  (22) 
CCCCCCc1cc2c3c(OC)cc4c(c3n(C)c2c(CN2CCOCC2)[nH+]1)CCNC4

>  <Energy>  (22) 
133.6861308042865

>  <Genealogy>  (22) 
CCCCCCc1cc2c3c(OC)cc4c(c3n(C)c2c(CN2CCOCC2)[nH+]1)CCNC4 (protonated)
CCCCCCc1cc2c3c(OC)cc4c(c3n(C)c2c(CN2CCOCC2)[nH+]1)CCNC4 (3D coordinates assigned)
CCCCCCc1cc2c3c(OC)cc4c(c3n(C)c2c(CN2CCOCC2)[nH+]1)CCNC4 (nonaromatic ring conformer: 133.6861308042865 kcal/mol)

>  <smiles>  (22) 
CCCCCCc1cc2c3c(OC)cc4c(c3n(C)c2c(CN2CCOCC2)n1)CCNC4

>  <score_type>  (22) 
oracle

>  <origin>  (22) 
adg

>  <m_score__min__energy>  (22) 
-6.6399999999999997

>  <m_primary>  (22) 
energy

$$$$
22:0
     RDKit          3D

 60 63  0  0  0  0  0  0  0  0999 V2000
   65.9030   32.4310   50.0760 C   0  0  0  0  0  0  0  0  0  0  0  0
   64.4280   32.7780   49.8810 C   0  0  0  0  0  0  0  0  0  0  0  0
   64.0470   32.6390   48.4560 N   0  0  0  0  0  0  0  0  0  0  0  0
   63.6950   33.9480   47.8610 C   0  0  0  0  0  0  0  0  0  0  0  0
   63.3800   33.7870   46.3750 C   0  0  0  0  0  0  0  0  0  0  0  0
   62.9490   31.6560   48.2880 C   0  0  0  0  0  0  0  0  0  0  0  0
   61.6260   32.2740   48.7390 C   0  0  0  0  0  0  0  0  0  0  0  0
   60.6380   31.2630   48.7690 O   0  0  0  0  0  0  0  0  0  0  0  0
   60.4900   30.7740   50.0840 C   0  0  0  0  0  0  0  0  0  0  0  0
   60.0570   29.3110   50.0210 C   0  0  0  0  0  0  0  0  0  0  0  0
   58.9450   29.1470   49.1400 O   0  0  0  0  0  0  0  0  0  0  0  0
   59.0220   28.7210   47.8040 C   0  0  0  0  0  0  0  0  0  0  0  0
   60.0460   27.8140   47.4490 C   0  0  0  0  0  0  0  0  0  0  0  0
   60.1870   27.3660   46.1250 C   0  0  0  0  0  0  0  0  0  0  0  0
   59.2850   27.8510   45.1860 C   0  0  0  0  0  0  0  0  0  0  0  0
   59.2570   27.5630   43.8700 N   0  0  0  0  0  0  0  0  0  0  0  0
   58.2400   28.2600   43.3790 N   0  0  0  0  0  0  0  0  0  0  0  0
   57.6710   28.9550   44.3860 C   0  0  0  0  0  0  0  0  0  0  0  0
   56.2630   30.0470   44.1940 S   0  0  0  0  0  0  0  0  0  0  0  0
   57.2440   31.5100   44.5240 C   0  0  0  0  0  0  0  0  0  0  0  0
   57.7630   32.2560   43.4590 C   0  0  0  0  0  0  0  0  0  0  0  0
   58.5410   33.3900   43.7060 C   0  0  0  0  0  0  0  0  0  0  0  0
   58.8040   33.7910   45.0250 C   0  0  0  0  0  0  0  0  0  0  0  0
   59.5890   34.9260   45.2850 C   0  0  0  0  0  0  0  0  0  0  0  0
   59.8420   35.3150   46.6040 C   0  0  0  0  0  0  0  0  0  0  0  0
   59.3130   34.5800   47.6690 C   0  0  0  0  0  0  0  0  0  0  0  0
   58.5320   33.4470   47.4240 C   0  0  0  0  0  0  0  0  0  0  0  0
   58.2750   33.0410   46.1050 C   0  0  0  0  0  0  0  0  0  0  0  0
   57.5020   31.8980   45.8450 C   0  0  0  0  0  0  0  0  0  0  0  0
   58.3160   28.7100   45.5370 N   0  0  0  0  0  0  0  0  0  0  0  0
   58.1330   29.1700   46.8010 C   0  0  0  0  0  0  0  0  0  0  0  0
   66.1281   32.3780   51.1514 H   0  0  0  0  0  0  0  0  0  0  0  0
   66.1158   31.4583   49.6085 H   0  0  0  0  0  0  0  0  0  0  0  0
   66.5271   33.2068   49.6085 H   0  0  0  0  0  0  0  0  0  0  0  0
   63.8126   32.0980   50.4884 H   0  0  0  0  0  0  0  0  0  0  0  0
   64.2629   33.8196   50.1938 H   0  0  0  0  0  0  0  0  0  0  0  0
   62.8132   34.3558   48.3768 H   0  0  0  0  0  0  0  0  0  0  0  0
   64.5479   34.6335   47.9739 H   0  0  0  0  0  0  0  0  0  0  0  0
   62.4060   33.2892   46.2585 H   0  0  0  0  0  0  0  0  0  0  0  0
   63.3448   34.7777   45.8982 H   0  0  0  0  0  0  0  0  0  0  0  0
   64.1623   33.1782   45.8982 H   0  0  0  0  0  0  0  0  0  0  0  0
   62.8753   31.3686   47.2288 H   0  0  0  0  0  0  0  0  0  0  0  0
   63.1613   30.7669   48.8999 H   0  0  0  0  0  0  0  0  0  0  0  0
   61.7433   32.7063   49.7437 H   0  0  0  0  0  0  0  0  0  0  0  0
   61.3268   33.0685   48.0396 H   0  0  0  0  0  0  0  0  0  0  0  0
   61.4487   30.8528   50.6175 H   0  0  0  0  0  0  0  0  0  0  0  0
   59.7316   31.3648   50.6185 H   0  0  0  0  0  0  0  0  0  0  0  0
   60.8976   28.7018   49.6574 H   0  0  0  0  0  0  0  0  0  0  0  0
   59.7575   28.9890   51.0293 H   0  0  0  0  0  0  0  0  0  0  0  0
   60.7425   27.4537   48.2204 H   0  0  0  0  0  0  0  0  0  0  0  0
   60.9807   26.6587   45.8426 H   0  0  0  0  0  0  0  0  0  0  0  0
   57.9480   28.2610   42.3770 H   0  0  0  0  0  0  0  0  0  0  0  0
   57.5574   31.9480   42.4232 H   0  0  0  0  0  0  0  0  0  0  0  0
   58.9483   33.9699   42.8647 H   0  0  0  0  0  0  0  0  0  0  0  0
   60.0051   35.5094   44.4505 H   0  0  0  0  0  0  0  0  0  0  0  0
   60.4597   36.2028   46.8044 H   0  0  0  0  0  0  0  0  0  0  0  0
   59.5122   34.8946   48.7041 H   0  0  0  0  0  0  0  0  0  0  0  0
   58.1182   32.8727   48.2659 H   0  0  0  0  0  0  0  0  0  0  0  0
   57.0984   31.3064   46.6799 H   0  0  0  0  0  0  0  0  0  0  0  0
   57.3183   29.8703   47.0373 H   0  0  0  0  0  0  0  0  0  0  0  0
  1  2  1  0
  2  3  1  0
  3  4  1  0
  4  5  1  0
  3  6  1  0
  6  7  1  0
  7  8  1  0
  8  9  1  0
  9 10  1  0
 10 11  1  0
 11 12  1  0
 12 13  1  0
 13 14  2  0
 14 15  1  0
 15 16  2  0
 16 17  1  0
 17 18  2  0
 18 19  1  0
 19 20  1  0
 20 21  2  0
 21 22  1  0
 22 23  2  0
 23 24  1  0
 24 25  2  0
 25 26  1  0
 26 27  2  0
 27 28  1  0
 28 29  2  0
 18 30  1  0
 30 31  1  0
 31 12  2  0
 30 15  1  0
 29 20  1  0
 28 23  1  0
  1 32  1  0
  1 33  1  0
  1 34  1  0
  2 35  1  0
  2 36  1  0
  4 37  1  0
  4 38  1  0
  5 39  1  0
  5 40  1  0
  5 41  1  0
  6 42  1  0
  6 43  1  0
  7 44  1  0
  7 45  1  0
  9 46  1  0
  9 47  1  0
 10 48  1  0
 10 49  1  0
 13 50  1  0
 14 51  1  0
 17 52  1  0
 21 53  1  0
 22 54  1  0
 24 55  1  0
 25 56  1  0
 26 57  1  0
 27 58  1  0
 29 59  1  0
 31 60  1  0
M  CHG  1  17   1
M  END
>  <UniqueID>  (23) 
23

>  <SMILES>  (23) 
CCN(CC)CCOCCOc1ccc2n[nH+]c(Sc3ccc4ccccc4c3)n2c1

>  <Energy>  (23) 
99.49385583221014

>  <Genealogy>  (23) 
CCN(CC)CCOCCOc1ccc2n[nH+]c(Sc3ccc4ccccc4c3)n2c1 (protonated)
CCN(CC)CCOCCOc1ccc2n[nH+]c(Sc3ccc4ccccc4c3)n2c1 (3D coordinates assigned)
CCN(CC)CCOCCOc1ccc2n[nH+]c(Sc3ccc4ccccc4c3)n2c1 (optimized conformer: 99.49385583221014 kcal/mol)

>  <smiles>  (23) 
CCN(CC)CCOCCOc1ccc2nnc(Sc3ccc4ccccc4c3)n2c1

>  <score_type>  (23) 
oracle

>  <origin>  (23) 
adg

>  <m_score__min__energy>  (23) 
-7.0899999999999999

>  <m_primary>  (23) 
energy

$$$$
23:0
     RDKit          3D

 44 45  0  0  0  0  0  0  0  0999 V2000
   62.4030   34.2040   49.7630 C   0  0  0  0  0  0  0  0  0  0  0  0
   62.8730   32.7590   49.7050 C   0  0  0  0  0  0  0  0  0  0  0  0
   62.2830   32.1180   48.5780 O   0  0  0  0  0  0  0  0  0  0  0  0
   61.0930   32.4950   47.9270 C   0  0  0  0  0  0  0  0  0  0  0  0
   59.9220   31.8110   48.2920 C   0  0  0  0  0  0  0  0  0  0  0  0
   59.9770   30.4220   49.6090 Br  0  0  0  0  0  0  0  0  0  0  0  0
   58.6940   32.1380   47.7130 C   0  0  0  0  0  0  0  0  0  0  0  0
   58.6100   33.1560   46.7590 C   0  0  0  0  0  0  0  0  0  0  0  0
   57.2890   33.5130   46.1340 C   0  0  0  0  0  0  0  0  0  0  0  0
   56.9450   32.5730   45.0560 N   0  0  0  0  0  0  0  0  0  0  0  0
   57.7520   32.7730   43.8380 C   0  0  0  0  0  0  0  0  0  0  0  0
   57.7660   31.5210   42.9560 C   0  0  0  0  0  0  0  0  0  0  0  0
   56.3990   30.3940   43.3960 S   0  0  0  0  0  0  0  0  0  0  0  0
   57.3300   29.5730   44.6910 C   0  0  0  0  0  0  0  0  0  0  0  0
   57.4370   30.0140   45.9530 N   0  0  0  0  0  0  0  0  0  0  0  0
   58.1740   29.1210   46.5970 N   0  0  0  0  0  0  0  0  0  0  0  0
   58.5180   28.1530   45.7580 N   0  0  0  0  0  0  0  0  0  0  0  0
   58.0130   28.4230   44.5650 N   0  0  0  0  0  0  0  0  0  0  0  0
   58.1120   27.5550   43.4010 C   0  0  0  0  0  0  0  0  0  0  0  0
   59.7720   33.8380   46.3780 C   0  0  0  0  0  0  0  0  0  0  0  0
   61.0200   33.5220   46.9510 C   0  0  0  0  0  0  0  0  0  0  0  0
   62.1820   34.2130   46.5680 O   0  0  0  0  0  0  0  0  0  0  0  0
   63.4600   33.6180   46.3750 C   0  0  0  0  0  0  0  0  0  0  0  0
   62.3019   34.5148   50.8133 H   0  0  0  0  0  0  0  0  0  0  0  0
   63.1377   34.8490   49.2588 H   0  0  0  0  0  0  0  0  0  0  0  0
   61.4294   34.2934   49.2588 H   0  0  0  0  0  0  0  0  0  0  0  0
   63.9687   32.7323   49.6113 H   0  0  0  0  0  0  0  0  0  0  0  0
   62.5735   32.2364   50.6254 H   0  0  0  0  0  0  0  0  0  0  0  0
   57.7870   31.5909   48.0097 H   0  0  0  0  0  0  0  0  0  0  0  0
   56.5052   33.4787   46.9050 H   0  0  0  0  0  0  0  0  0  0  0  0
   57.3650   34.5238   45.7068 H   0  0  0  0  0  0  0  0  0  0  0  0
   55.9450   32.7500   44.8010 H   0  0  0  0  0  0  0  0  0  0  0  0
   57.3282   33.6095   43.2629 H   0  0  0  0  0  0  0  0  0  0  0  0
   58.7864   32.9888   44.1436 H   0  0  0  0  0  0  0  0  0  0  0  0
   57.6594   31.8216   41.9033 H   0  0  0  0  0  0  0  0  0  0  0  0
   58.7186   30.9935   43.1121 H   0  0  0  0  0  0  0  0  0  0  0  0
   57.0220   30.8770   46.3720 H   0  0  0  0  0  0  0  0  0  0  0  0
   58.2309   26.5122   43.7303 H   0  0  0  0  0  0  0  0  0  0  0  0
   57.1976   27.6466   42.7965 H   0  0  0  0  0  0  0  0  0  0  0  0
   58.9823   27.8502   42.7965 H   0  0  0  0  0  0  0  0  0  0  0  0
   59.7097   34.6326   45.6198 H   0  0  0  0  0  0  0  0  0  0  0  0
   63.9169   33.4053   47.3528 H   0  0  0  0  0  0  0  0  0  0  0  0
   63.3465   32.6801   45.8115 H   0  0  0  0  0  0  0  0  0  0  0  0
   64.1047   34.3086   45.8115 H   0  0  0  0  0  0  0  0  0  0  0  0
  1  2  1  0
  2  3  1  0
  3  4  1  0
  4  5  2  0
  5  6  1  0
  5  7  1  0
  7  8  2  0
  8  9  1  0
  9 10  1  0
 10 11  1  0
 11 12  1  0
 12 13  1  0
 13 14  1  0
 14 15  2  0
 15 16  1  0
 16 17  2  0
 17 18  1  0
 18 19  1  0
  8 20  1  0
 20 21  2  0
 21 22  1  0
 22 23  1  0
 21  4  1  0
 18 14  1  0
  1 24  1  0
  1 25  1  0
  1 26  1  0
  2 27  1  0
  2 28  1  0
  7 29  1  0
  9 30  1  0
  9 31  1  0
 10 32  1  0
 11 33  1  0
 11 34  1  0
 12 35  1  0
 12 36  1  0
 15 37  1  0
 19 38  1  0
 19 39  1  0
 19 40  1  0
 20 41  1  0
 23 42  1  0
 23 43  1  0
 23 44  1  0
M  CHG  1  15   1
M  END
>  <UniqueID>  (24) 
24

>  <SMILES>  (24) 
CCOc1c(Br)cc(CNCCSc2[nH+]nnn2C)cc1OC

>  <Energy>  (24) 
74.20633889594714

>  <Genealogy>  (24) 
CCOc1c(Br)cc(CNCCSc2[nH+]nnn2C)cc1OC (protonated)
CCOc1c(Br)cc(CNCCSc2[nH+]nnn2C)cc1OC (3D coordinates assigned)
CCOc1c(Br)cc(CNCCSc2[nH+]nnn2C)cc1OC (optimized conformer: 74.20633889594714 kcal/mol)

>  <smiles>  (24) 
CCOc1c(Br)cc(CNCCSc2nnnn2C)cc1OC

>  <score_type>  (24) 
oracle

>  <origin>  (24) 
adg

>  <m_score__min__energy>  (24) 
-6.21

>  <m_primary>  (24) 
energy

$$$$
24:0
     RDKit          3D

 63 66  0  0  0  0  0  0  0  0999 V2000
   63.3950   33.7600   46.6200 C   0  0  0  0  0  0  0  0  0  0  0  0
   63.2230   32.3190   47.1200 C   0  0  0  0  0  0  0  0  0  0  0  0
   63.3570   32.1950   48.5950 N   0  0  0  0  0  0  0  0  0  0  0  0
   63.7420   33.4640   49.2910 C   0  0  0  0  0  0  0  0  0  0  0  0
   62.5920   34.2580   49.9400 C   0  0  0  0  0  0  0  0  0  0  0  0
   62.2230   31.4920   49.2590 C   0  0  0  0  0  0  0  0  0  0  0  0
   61.3280   30.6300   48.3400 C   0  0  0  0  0  0  0  0  0  0  0  0
   59.9580   31.1370   48.2570 N   0  0  0  0  0  0  0  0  0  0  0  0
   59.3600   31.3730   46.9780 C   0  0  0  0  0  0  0  0  0  0  0  0
   59.3420   32.6590   46.3880 C   0  0  0  0  0  0  0  0  0  0  0  0
   59.9740   33.7480   47.0170 C   0  0  0  0  0  0  0  0  0  0  0  0
   59.9480   35.0150   46.4380 C   0  0  0  0  0  0  0  0  0  0  0  0
   59.3010   35.2180   45.2230 C   0  0  0  0  0  0  0  0  0  0  0  0
   58.6770   34.1560   44.5690 C   0  0  0  0  0  0  0  0  0  0  0  0
   58.6830   32.8550   45.1250 C   0  0  0  0  0  0  0  0  0  0  0  0
   58.0790   31.7890   44.4800 N   0  0  0  0  0  0  0  0  0  0  0  0
   57.3910   31.9480   43.1870 C   0  0  0  0  0  0  0  0  0  0  0  0
   58.1320   30.5580   45.0660 C   0  0  0  0  0  0  0  0  0  0  0  0
   57.6140   29.4440   44.5840 O   0  0  0  0  0  0  0  0  0  0  0  0
   57.8840   28.4950   45.4550 C   0  0  0  0  0  0  0  0  0  0  0  0
   57.5320   27.1510   45.3700 C   0  0  0  0  0  0  0  0  0  0  0  0
   57.9280   26.2870   46.4090 C   0  0  0  0  0  0  0  0  0  0  0  0
   57.5610   24.9360   46.3230 O   0  0  0  0  0  0  0  0  0  0  0  0
   56.3410   24.3990   46.7570 C   0  0  0  0  0  0  0  0  0  0  0  0
   55.2420   24.8730   46.3590 O   0  0  0  0  0  0  0  0  0  0  0  0
   56.3450   23.3110   47.7840 C   0  0  0  0  0  0  0  0  0  0  0  0
   57.3680   22.3740   47.5070 O   0  0  0  0  0  0  0  0  0  0  0  0
   57.2480   21.8940   46.1860 C   0  0  0  0  0  0  0  0  0  0  0  0
   58.6450   26.8070   47.5220 C   0  0  0  0  0  0  0  0  0  0  0  0
   58.9880   28.1690   47.5830 C   0  0  0  0  0  0  0  0  0  0  0  0
   58.5920   28.9900   46.5280 C   0  0  0  0  0  0  0  0  0  0  0  0
   58.7530   30.3380   46.2740 C   0  0  0  0  0  0  0  0  0  0  0  0
   63.4761   34.4397   47.4811 H   0  0  0  0  0  0  0  0  0  0  0  0
   64.3079   33.8301   46.0103 H   0  0  0  0  0  0  0  0  0  0  0  0
   62.5243   34.0430   46.0103 H   0  0  0  0  0  0  0  0  0  0  0  0
   62.2237   31.9638   46.8279 H   0  0  0  0  0  0  0  0  0  0  0  0
   64.0229   31.7159   46.6656 H   0  0  0  0  0  0  0  0  0  0  0  0
   64.1760   31.5570   48.7490 H   0  0  0  0  0  0  0  0  0  0  0  0
   64.4619   33.2080   50.0823 H   0  0  0  0  0  0  0  0  0  0  0  0
   64.1472   34.1197   48.5062 H   0  0  0  0  0  0  0  0  0  0  0  0
   62.6778   34.1988   51.0350 H   0  0  0  0  0  0  0  0  0  0  0  0
   62.6489   35.3101   49.6241 H   0  0  0  0  0  0  0  0  0  0  0  0
   61.6283   33.8319   49.6241 H   0  0  0  0  0  0  0  0  0  0  0  0
   62.6427   30.8335   50.0337 H   0  0  0  0  0  0  0  0  0  0  0  0
   61.5694   32.2863   49.6487 H   0  0  0  0  0  0  0  0  0  0  0  0
   61.7632   30.6225   47.3298 H   0  0  0  0  0  0  0  0  0  0  0  0
   61.2847   29.6180   48.7690 H   0  0  0  0  0  0  0  0  0  0  0  0
   59.4830   31.5400   49.0940 H   0  0  0  0  0  0  0  0  0  0  0  0
   60.4934   33.5974   47.9749 H   0  0  0  0  0  0  0  0  0  0  0  0
   60.4411   35.8584   46.9435 H   0  0  0  0  0  0  0  0  0  0  0  0
   59.2816   36.2226   44.7754 H   0  0  0  0  0  0  0  0  0  0  0  0
   58.1730   34.3323   43.6073 H   0  0  0  0  0  0  0  0  0  0  0  0
   56.3329   32.1925   43.3623 H   0  0  0  0  0  0  0  0  0  0  0  0
   57.8654   32.7602   42.6167 H   0  0  0  0  0  0  0  0  0  0  0  0
   57.4609   31.0100   42.6167 H   0  0  0  0  0  0  0  0  0  0  0  0
   56.9579   26.7727   44.5113 H   0  0  0  0  0  0  0  0  0  0  0  0
   56.5162   23.7512   48.7774 H   0  0  0  0  0  0  0  0  0  0  0  0
   55.3736   22.7954   47.7608 H   0  0  0  0  0  0  0  0  0  0  0  0
   56.9813   20.8270   46.2064 H   0  0  0  0  0  0  0  0  0  0  0  0
   56.4633   22.4582   45.6607 H   0  0  0  0  0  0  0  0  0  0  0  0
   58.2059   22.0225   45.6607 H   0  0  0  0  0  0  0  0  0  0  0  0
   58.9343   26.1359   48.3442 H   0  0  0  0  0  0  0  0  0  0  0  0
   59.5513   28.5743   48.4365 H   0  0  0  0  0  0  0  0  0  0  0  0
  1  2  1  0
  2  3  1  0
  3  4  1  0
  4  5  1  0
  3  6  1  0
  6  7  1  0
  7  8  1  0
  8  9  1  0
  9 10  2  0
 10 11  1  0
 11 12  2  0
 12 13  1  0
 13 14  2  0
 14 15  1  0
 15 16  2  0
 16 17  1  0
 16 18  1  0
 18 19  1  0
 19 20  1  0
 20 21  2  0
 21 22  1  0
 22 23  1  0
 23 24  1  0
 24 25  2  0
 24 26  1  0
 26 27  1  0
 27 28  1  0
 22 29  2  0
 29 30  1  0
 30 31  2  0
 31 32  1  0
 32  9  1  0
 15 10  1  0
 32 18  2  0
 31 20  1  0
  1 33  1  0
  1 34  1  0
  1 35  1  0
  2 36  1  0
  2 37  1  0
  3 38  1  0
  4 39  1  0
  4 40  1  0
  5 41  1  0
  5 42  1  0
  5 43  1  0
  6 44  1  0
  6 45  1  0
  7 46  1  0
  7 47  1  0
  8 48  1  0
 11 49  1  0
 12 50  1  0
 13 51  1  0
 14 52  1  0
 17 53  1  0
 17 54  1  0
 17 55  1  0
 21 56  1  0
 26 57  1  0
 26 58  1  0
 28 59  1  0
 28 60  1  0
 28 61  1  0
 29 62  1  0
 30 63  1  0
M  CHG  2   3   1  16   1
M  END
>  <UniqueID>  (25) 
25

>  <SMILES>  (25) 
CC[NH+](CC)CCNc1c2ccccc2[n+](C)c2oc3cc(OC(=O)COC)ccc3c12

>  <Energy>  (25) 
136.5066036254611

>  <Genealogy>  (25) 
CC[NH+](CC)CCNc1c2ccccc2[n+](C)c2oc3cc(OC(=O)COC)ccc3c12 (protonated)
CC[NH+](CC)CCNc1c2ccccc2[n+](C)c2oc3cc(OC(=O)COC)ccc3c12 (3D coordinates assigned)
CC[NH+](CC)CCNc1c2ccccc2[n+](C)c2oc3cc(OC(=O)COC)ccc3c12 (optimized conformer: 136.5066036254611 kcal/mol)

>  <smiles>  (25) 
CCN(CC)CCNc1c2ccccc2[n+](C)c2oc3cc(OC(=O)COC)ccc3c12

>  <score_type>  (25) 
oracle

>  <origin>  (25) 
adg

>  <m_score__min__energy>  (25) 
-5.8499999999999996

>  <m_primary>  (25) 
energy

$$$$
25:0
     RDKit          3D

 55 57  0  0  0  0  0  0  0  0999 V2000
   63.7490   32.8790   47.1470 C   0  0  0  0  0  0  0  0  0  0  0  0
   62.5770   33.7460   47.6230 C   0  0  0  0  0  0  0  0  0  0  0  0
   61.6650   33.0070   48.5370 N   0  0  1  0  0  0  0  0  0  0  0  0
   62.2990   31.7380   48.9940 C   0  0  0  0  0  0  0  0  0  0  0  0
   61.5230   30.4620   48.5900 C   0  0  0  0  0  0  0  0  0  0  0  0
   60.9260   30.4600   47.1720 C   0  0  0  0  0  0  0  0  0  0  0  0
   59.5360   30.9230   47.1620 N   0  0  0  0  0  0  0  0  0  0  0  0
   58.9420   31.5750   46.0270 C   0  0  0  0  0  0  0  0  0  0  0  0
   59.0340   32.9780   45.9000 C   0  0  0  0  0  0  0  0  0  0  0  0
   59.6790   33.7090   46.9110 O   0  0  0  0  0  0  0  0  0  0  0  0
   59.2860   35.0050   47.3510 C   0  0  0  0  0  0  0  0  0  0  0  0
   58.4600   33.6150   44.7840 C   0  0  0  0  0  0  0  0  0  0  0  0
   57.7720   32.8790   43.8210 C   0  0  0  0  0  0  0  0  0  0  0  0
   57.6350   31.4930   43.9550 C   0  0  0  0  0  0  0  0  0  0  0  0
   56.9230   30.7620   42.9910 C   0  0  0  0  0  0  0  0  0  0  0  0
   56.7810   29.3790   43.1210 C   0  0  0  0  0  0  0  0  0  0  0  0
   57.3500   28.7160   44.2080 C   0  0  0  0  0  0  0  0  0  0  0  0
   58.0670   29.4300   45.1710 C   0  0  0  0  0  0  0  0  0  0  0  0
   58.2170   30.8280   45.0650 C   0  0  0  0  0  0  0  0  0  0  0  0
   61.3210   33.8560   49.7090 C   0  0  0  0  0  0  0  0  0  0  0  0
   60.0690   33.3730   50.4100 C   0  0  0  0  0  0  0  0  0  0  0  0
   59.2120   32.4610   49.7720 C   0  0  0  0  0  0  0  0  0  0  0  0
   58.0780   31.9770   50.4330 C   0  0  0  0  0  0  0  0  0  0  0  0
   57.7910   32.4020   51.7340 C   0  0  0  0  0  0  0  0  0  0  0  0
   58.6340   33.3150   52.3730 C   0  0  0  0  0  0  0  0  0  0  0  0
   59.7660   33.8040   51.7140 C   0  0  0  0  0  0  0  0  0  0  0  0
   64.2880   32.4803   48.0191 H   0  0  0  0  0  0  0  0  0  0  0  0
   63.3657   32.0454   46.5403 H   0  0  0  0  0  0  0  0  0  0  0  0
   64.4340   33.4895   46.5403 H   0  0  0  0  0  0  0  0  0  0  0  0
   62.9775   34.6219   48.1545 H   0  0  0  0  0  0  0  0  0  0  0  0
   61.9972   34.0451   46.7373 H   0  0  0  0  0  0  0  0  0  0  0  0
   60.7800   32.7900   48.0260 H   0  0  0  0  0  0  0  0  0  0  0  0
   63.3081   31.6804   48.5600 H   0  0  0  0  0  0  0  0  0  0  0  0
   62.3100   31.7674   50.0936 H   0  0  0  0  0  0  0  0  0  0  0  0
   62.2135   29.6091   48.6663 H   0  0  0  0  0  0  0  0  0  0  0  0
   60.6641   30.4062   49.2750 H   0  0  0  0  0  0  0  0  0  0  0  0
   61.5263   31.1241   46.5328 H   0  0  0  0  0  0  0  0  0  0  0  0
   60.9428   29.4259   46.7973 H   0  0  0  0  0  0  0  0  0  0  0  0
   58.9470   30.7580   48.0070 H   0  0  0  0  0  0  0  0  0  0  0  0
   59.2778   35.0320   48.4506 H   0  0  0  0  0  0  0  0  0  0  0  0
   59.9978   35.7527   46.9711 H   0  0  0  0  0  0  0  0  0  0  0  0
   58.2788   35.2314   46.9711 H   0  0  0  0  0  0  0  0  0  0  0  0
   58.5554   34.7050   44.6706 H   0  0  0  0  0  0  0  0  0  0  0  0
   57.3344   33.3904   42.9510 H   0  0  0  0  0  0  0  0  0  0  0  0
   56.4754   31.2805   42.1303 H   0  0  0  0  0  0  0  0  0  0  0  0
   56.2192   28.8114   42.3646 H   0  0  0  0  0  0  0  0  0  0  0  0
   57.2337   27.6267   44.3074 H   0  0  0  0  0  0  0  0  0  0  0  0
   58.5189   28.8965   46.0202 H   0  0  0  0  0  0  0  0  0  0  0  0
   62.1584   33.8337   50.4219 H   0  0  0  0  0  0  0  0  0  0  0  0
   61.1351   34.8776   49.3461 H   0  0  0  0  0  0  0  0  0  0  0  0
   59.4336   32.1259   48.7480 H   0  0  0  0  0  0  0  0  0  0  0  0
   57.4116   31.2616   49.9290 H   0  0  0  0  0  0  0  0  0  0  0  0
   56.9014   32.0175   52.2544 H   0  0  0  0  0  0  0  0  0  0  0  0
   58.4067   33.6495   53.3960 H   0  0  0  0  0  0  0  0  0  0  0  0
   60.4224   34.5289   52.2176 H   0  0  0  0  0  0  0  0  0  0  0  0
  1  2  1  0
  2  3  1  0
  3  4  1  0
  4  5  1  0
  5  6  1  0
  6  7  1  0
  7  8  1  0
  8  9  2  0
  9 10  1  0
 10 11  1  0
  9 12  1  0
 12 13  2  0
 13 14  1  0
 14 15  2  0
 15 16  1  0
 16 17  2  0
 17 18  1  0
 18 19  2  0
  3 20  1  0
 20 21  1  0
 21 22  2  0
 22 23  1  0
 23 24  2  0
 24 25  1  0
 25 26  2  0
 19  8  1  0
 26 21  1  0
 19 14  1  0
  1 27  1  0
  1 28  1  0
  1 29  1  0
  2 30  1  0
  2 31  1  0
  3 32  1  6
  4 33  1  0
  4 34  1  0
  5 35  1  0
  5 36  1  0
  6 37  1  0
  6 38  1  0
  7 39  1  0
 11 40  1  0
 11 41  1  0
 11 42  1  0
 12 43  1  0
 13 44  1  0
 15 45  1  0
 16 46  1  0
 17 47  1  0
 18 48  1  0
 20 49  1  0
 20 50  1  0
 22 51  1  0
 23 52  1  0
 24 53  1  0
 25 54  1  0
 26 55  1  0
M  CHG  1   3   1
M  END
>  <UniqueID>  (26) 
26

>  <SMILES>  (26) 
CC[N@@H+](CCCNc1c(OC)ccc2ccccc12)Cc1ccccc1

>  <Energy>  (26) 
64.4636510758478

>  <Genealogy>  (26) 
CC[NH+](CCCNc1c(OC)ccc2ccccc12)Cc1ccccc1 (protonated)
CC[N@@H+](CCCNc1c(OC)ccc2ccccc12)Cc1ccccc1 (chirality)
CC[N@@H+](CCCNc1c(OC)ccc2ccccc12)Cc1ccccc1 (3D coordinates assigned)
CC[N@@H+](CCCNc1c(OC)ccc2ccccc12)Cc1ccccc1 (optimized conformer: 64.4636510758478 kcal/mol)

>  <smiles>  (26) 
CCN(CCCNc1c(OC)ccc2ccccc12)Cc1ccccc1

>  <score_type>  (26) 
oracle

>  <origin>  (26) 
adg

>  <m_score__min__energy>  (26) 
-5.9199999999999999

>  <m_primary>  (26) 
energy

$$$$
26:0
     RDKit          3D

 17 17  0  0  0  0  0  0  0  0999 V2000
   55.3330   29.3560   44.8600 N   0  0  0  0  0  0  0  0  0  0  0  0
   56.3100   29.7610   43.8520 C   0  0  0  0  0  0  0  0  0  0  0  0
   57.0920   30.9660   44.3100 C   0  0  0  0  0  0  0  0  0  0  0  0
   57.4370   31.9740   43.3980 C   0  0  0  0  0  0  0  0  0  0  0  0
   58.1890   33.0750   43.8160 C   0  0  0  0  0  0  0  0  0  0  0  0
   58.6160   33.1760   45.1450 C   0  0  0  0  0  0  0  0  0  0  0  0
   59.6470   34.7060   45.6640 Br  0  0  0  0  0  0  0  0  0  0  0  0
   58.2880   32.1610   46.0620 C   0  0  0  0  0  0  0  0  0  0  0  0
   58.8520   32.2380   47.8910 Br  0  0  0  0  0  0  0  0  0  0  0  0
   57.5320   31.0600   45.6400 C   0  0  0  0  0  0  0  0  0  0  0  0
   54.6510   30.1370   45.0020 H   0  0  0  0  0  0  0  0  0  0  0  0
   54.8000   28.5300   44.5010 H   0  0  0  0  0  0  0  0  0  0  0  0
   57.0057   28.9285   43.6706 H   0  0  0  0  0  0  0  0  0  0  0  0
   55.7725   30.0226   42.9286 H   0  0  0  0  0  0  0  0  0  0  0  0
   57.1142   31.8976   42.3492 H   0  0  0  0  0  0  0  0  0  0  0  0
   58.4467   33.8664   43.0968 H   0  0  0  0  0  0  0  0  0  0  0  0
   57.2812   30.2632   46.3557 H   0  0  0  0  0  0  0  0  0  0  0  0
  1  2  1  0
  2  3  1  0
  3  4  2  0
  4  5  1  0
  5  6  2  0
  6  7  1  0
  6  8  1  0
  8  9  1  0
  8 10  2  0
 10  3  1  0
  1 11  1  0
  1 12  1  0
  2 13  1  0
  2 14  1  0
  4 15  1  0
  5 16  1  0
 10 17  1  0
M  END
>  <UniqueID>  (27) 
27

>  <SMILES>  (27) 
NCc1ccc(Br)c(Br)c1

>  <Energy>  (27) 
15.09020947179244

>  <Genealogy>  (27) 
NCc1ccc(Br)c(Br)c1 (3D coordinates assigned)
NCc1ccc(Br)c(Br)c1 (optimized conformer: 15.09020947179244 kcal/mol)

>  <smiles>  (27) 
NCc1ccc(Br)c(Br)c1

>  <score_type>  (27) 
oracle

>  <origin>  (27) 
adg

>  <m_score__min__energy>  (27) 
-6.1699999999999999

>  <m_primary>  (27) 
energy

$$$$
27:0
     RDKit          3D

 59 62  0  0  0  0  0  0  0  0999 V2000
   65.1300   32.8030   49.8170 C   0  0  0  0  0  0  0  0  0  0  0  0
   64.1380   32.5490   48.6720 C   0  0  0  0  0  0  0  0  0  0  0  0
   63.3740   33.7420   48.2370 N   0  0  0  0  0  0  0  0  0  0  0  0
   63.2010   33.9020   46.7830 C   0  0  0  0  0  0  0  0  0  0  0  0
   62.1620   34.0480   49.0280 C   0  0  0  0  0  0  0  0  0  0  0  0
   61.2210   32.8390   49.2250 C   0  0  0  0  0  0  0  0  0  0  0  0
   61.3600   31.8500   48.1360 N   0  0  0  0  0  0  0  0  0  0  0  0
   60.0640   31.4300   47.6110 C   0  0  0  0  0  0  0  0  0  0  0  0
   59.3140   32.3330   46.8210 C   0  0  0  0  0  0  0  0  0  0  0  0
   59.3420   33.7260   47.0490 C   0  0  0  0  0  0  0  0  0  0  0  0
   58.6770   34.6010   46.1900 C   0  0  0  0  0  0  0  0  0  0  0  0
   57.9770   34.1070   45.0950 C   0  0  0  0  0  0  0  0  0  0  0  0
   57.9160   32.7330   44.8660 C   0  0  0  0  0  0  0  0  0  0  0  0
   58.5660   31.8250   45.7340 C   0  0  0  0  0  0  0  0  0  0  0  0
   58.5240   30.4710   45.5130 N   0  0  0  0  0  0  0  0  0  0  0  0
   58.4010   29.9880   44.1220 C   0  0  0  0  0  0  0  0  0  0  0  0
   58.8280   29.6040   46.5440 C   0  0  0  0  0  0  0  0  0  0  0  0
   58.3790   28.2520   46.5550 C   0  0  0  0  0  0  0  0  0  0  0  0
   58.9420   27.3560   47.4700 C   0  0  0  0  0  0  0  0  0  0  0  0
   59.6960   27.8150   48.4900 N   0  0  0  0  0  0  0  0  0  0  0  0
   60.0150   29.1250   48.6380 C   0  0  0  0  0  0  0  0  0  0  0  0
   60.6370   29.4990   49.9530 C   0  0  0  0  0  0  0  0  0  0  0  0
   59.6490   30.0620   47.6220 C   0  0  0  0  0  0  0  0  0  0  0  0
   58.5580   25.9020   47.4210 C   0  0  0  0  0  0  0  0  0  0  0  0
   58.3590   25.4560   45.9630 C   0  0  0  0  0  0  0  0  0  0  0  0
   57.4050   26.3800   45.1650 C   0  0  0  0  0  0  0  0  0  0  0  0
   57.1430   27.7400   45.8400 C   0  0  0  0  0  0  0  0  0  0  0  0
   64.6179   32.6719   50.7817 H   0  0  0  0  0  0  0  0  0  0  0  0
   65.9640   32.0894   49.7446 H   0  0  0  0  0  0  0  0  0  0  0  0
   65.5184   33.8296   49.7446 H   0  0  0  0  0  0  0  0  0  0  0  0
   64.7027   32.1701   47.8074 H   0  0  0  0  0  0  0  0  0  0  0  0
   63.3989   31.8303   49.0557 H   0  0  0  0  0  0  0  0  0  0  0  0
   62.4064   34.6369   46.5870 H   0  0  0  0  0  0  0  0  0  0  0  0
   64.1435   34.2537   46.3381 H   0  0  0  0  0  0  0  0  0  0  0  0
   62.9239   32.9349   46.3381 H   0  0  0  0  0  0  0  0  0  0  0  0
   62.4768   34.4069   50.0190 H   0  0  0  0  0  0  0  0  0  0  0  0
   61.5959   34.8046   48.4648 H   0  0  0  0  0  0  0  0  0  0  0  0
   61.4632   32.3518   50.1810 H   0  0  0  0  0  0  0  0  0  0  0  0
   60.1850   33.2087   49.2199 H   0  0  0  0  0  0  0  0  0  0  0  0
   61.8970   31.0530   48.5390 H   0  0  0  0  0  0  0  0  0  0  0  0
   61.9740   32.2130   47.3810 H   0  0  0  0  0  0  0  0  0  0  0  0
   59.8938   34.1254   47.9127 H   0  0  0  0  0  0  0  0  0  0  0  0
   58.7065   35.6842   46.3793 H   0  0  0  0  0  0  0  0  0  0  0  0
   57.4705   34.8012   44.4083 H   0  0  0  0  0  0  0  0  0  0  0  0
   57.3557   32.3507   44.0000 H   0  0  0  0  0  0  0  0  0  0  0  0
   58.1295   28.9220   44.1267 H   0  0  0  0  0  0  0  0  0  0  0  0
   57.6206   30.5628   43.6019 H   0  0  0  0  0  0  0  0  0  0  0  0
   59.3613   30.1196   43.6019 H   0  0  0  0  0  0  0  0  0  0  0  0
   60.0107   29.1224   50.7752 H   0  0  0  0  0  0  0  0  0  0  0  0
   61.6407   29.0545   50.0234 H   0  0  0  0  0  0  0  0  0  0  0  0
   60.7151   30.5940   50.0234 H   0  0  0  0  0  0  0  0  0  0  0  0
   59.3557   25.2995   47.8799 H   0  0  0  0  0  0  0  0  0  0  0  0
   57.6168   25.7598   47.9723 H   0  0  0  0  0  0  0  0  0  0  0  0
   59.3387   25.4498   45.4628 H   0  0  0  0  0  0  0  0  0  0  0  0
   57.9002   24.4565   45.9874 H   0  0  0  0  0  0  0  0  0  0  0  0
   57.8488   26.5643   44.1755 H   0  0  0  0  0  0  0  0  0  0  0  0
   56.4364   25.8622   45.1038 H   0  0  0  0  0  0  0  0  0  0  0  0
   56.8464   28.4693   45.0718 H   0  0  0  0  0  0  0  0  0  0  0  0
   56.3433   27.6083   46.5837 H   0  0  0  0  0  0  0  0  0  0  0  0
  1  2  1  0
  2  3  1  0
  3  4  1  0
  3  5  1  0
  5  6  1  0
  6  7  1  0
  7  8  1  0
  8  9  2  0
  9 10  1  0
 10 11  2  0
 11 12  1  0
 12 13  2  0
 13 14  1  0
 14 15  2  0
 15 16  1  0
 15 17  1  0
 17 18  2  0
 18 19  1  0
 19 20  2  0
 20 21  1  0
 21 22  1  0
 21 23  2  0
 19 24  1  0
 24 25  1  0
 25 26  1  0
 26 27  1  0
 23  8  1  0
 14  9  1  0
 23 17  1  0
 27 18  1  0
  1 28  1  0
  1 29  1  0
  1 30  1  0
  2 31  1  0
  2 32  1  0
  4 33  1  0
  4 34  1  0
  4 35  1  0
  5 36  1  0
  5 37  1  0
  6 38  1  0
  6 39  1  0
  7 40  1  0
  7 41  1  0
 10 42  1  0
 11 43  1  0
 12 44  1  0
 13 45  1  0
 16 46  1  0
 16 47  1  0
 16 48  1  0
 22 49  1  0
 22 50  1  0
 22 51  1  0
 24 52  1  0
 24 53  1  0
 25 54  1  0
 25 55  1  0
 26 56  1  0
 26 57  1  0
 27 58  1  0
 27 59  1  0
M  CHG  2   7   1  15   1
M  END
>  <UniqueID>  (28) 
28

>  <SMILES>  (28) 
CCN(C)CC[NH2+]c1c2ccccc2[n+](C)c2c3c(nc(C)c12)CCCC3

>  <Energy>  (28) 
126.00378586429979

>  <Genealogy>  (28) 
CCN(C)CC[NH2+]c1c2ccccc2[n+](C)c2c3c(nc(C)c12)CCCC3 (protonated)
CCN(C)CC[NH2+]c1c2ccccc2[n+](C)c2c3c(nc(C)c12)CCCC3 (3D coordinates assigned)
CCN(C)CC[NH2+]c1c2ccccc2[n+](C)c2c3c(nc(C)c12)CCCC3 (nonaromatic ring conformer: 126.00378586429979 kcal/mol)

>  <smiles>  (28) 
CCN(C)CCNc1c2ccccc2[n+](C)c2c3c(nc(C)c12)CCCC3

>  <score_type>  (28) 
oracle

>  <origin>  (28) 
adg

>  <m_score__min__energy>  (28) 
-5.4199999999999999

>  <m_primary>  (28) 
energy

$$$$
28:0
     RDKit          3D

 50 53  0  0  0  0  0  0  0  0999 V2000
   56.3340   30.0590   44.9690 N   0  0  0  0  0  0  0  0  0  0  0  0
   57.6080   30.2200   44.2700 C   0  0  1  0  0  0  0  0  0  0  0  0
   57.7200   31.6520   43.7070 C   0  0  0  0  0  0  0  0  0  0  0  0
   58.0530   32.6710   44.7700 C   0  0  0  0  0  0  0  0  0  0  0  0
   57.4590   32.5920   46.0420 C   0  0  0  0  0  0  0  0  0  0  0  0
   57.7480   33.5540   47.0140 C   0  0  0  0  0  0  0  0  0  0  0  0
   58.6410   34.5900   46.7330 C   0  0  0  0  0  0  0  0  0  0  0  0
   59.2440   34.6690   45.4750 C   0  0  0  0  0  0  0  0  0  0  0  0
   58.9490   33.7180   44.4950 C   0  0  0  0  0  0  0  0  0  0  0  0
   58.7430   29.9080   45.2130 C   0  0  0  0  0  0  0  0  0  0  0  0
   59.9170   29.8450   44.7620 O   0  0  0  0  0  0  0  0  0  0  0  0
   58.4890   29.6640   46.6050 N   0  0  0  0  0  0  0  0  0  0  0  0
   59.5610   29.5080   47.5830 C   0  0  0  0  0  0  0  0  0  0  0  0
   59.3670   30.4760   48.7140 C   0  0  0  0  0  0  0  0  0  0  0  0
   58.3250   30.3620   49.5800 N   0  0  0  0  0  0  0  0  0  0  0  0
   58.4430   31.4600   50.3480 C   0  0  0  0  0  0  0  0  0  0  0  0
   57.6220   31.8460   51.4050 C   0  0  0  0  0  0  0  0  0  0  0  0
   57.9320   33.0500   52.0680 C   0  0  0  0  0  0  0  0  0  0  0  0
   59.0420   33.8250   51.6620 C   0  0  0  0  0  0  0  0  0  0  0  0
   59.8490   33.4070   50.5880 C   0  0  0  0  0  0  0  0  0  0  0  0
   59.5090   32.2120   49.9490 C   0  0  0  0  0  0  0  0  0  0  0  0
   60.1060   31.6050   48.9100 N   0  0  0  0  0  0  0  0  0  0  0  0
   61.2440   32.0710   48.1700 C   0  0  0  0  0  0  0  0  0  0  0  0
   62.2880   31.1930   47.8440 C   0  0  0  0  0  0  0  0  0  0  0  0
   63.3950   31.6520   47.1230 C   0  0  0  0  0  0  0  0  0  0  0  0
   63.4670   32.9930   46.7300 C   0  0  0  0  0  0  0  0  0  0  0  0
   62.4350   33.8760   47.0630 C   0  0  0  0  0  0  0  0  0  0  0  0
   61.3290   33.4180   47.7840 C   0  0  0  0  0  0  0  0  0  0  0  0
   56.5180   30.0650   45.9980 H   0  0  0  0  0  0  0  0  0  0  0  0
   55.7440   30.9020   44.7770 H   0  0  0  0  0  0  0  0  0  0  0  0
   57.6610   29.5194   43.4236 H   0  0  0  0  0  0  0  0  0  0  0  0
   58.5112   31.6690   42.9430 H   0  0  0  0  0  0  0  0  0  0  0  0
   56.7407   31.9206   43.2841 H   0  0  0  0  0  0  0  0  0  0  0  0
   56.7647   31.7706   46.2729 H   0  0  0  0  0  0  0  0  0  0  0  0
   57.2705   33.4947   48.0032 H   0  0  0  0  0  0  0  0  0  0  0  0
   58.8696   35.3433   47.5013 H   0  0  0  0  0  0  0  0  0  0  0  0
   59.9523   35.4815   45.2558 H   0  0  0  0  0  0  0  0  0  0  0  0
   59.4203   33.7891   43.5036 H   0  0  0  0  0  0  0  0  0  0  0  0
   57.5020   29.6560   46.9490 H   0  0  0  0  0  0  0  0  0  0  0  0
   59.5491   28.4808   47.9762 H   0  0  0  0  0  0  0  0  0  0  0  0
   60.5268   29.7092   47.0963 H   0  0  0  0  0  0  0  0  0  0  0  0
   56.7619   31.2325   51.7113 H   0  0  0  0  0  0  0  0  0  0  0  0
   57.3062   33.3889   52.9068 H   0  0  0  0  0  0  0  0  0  0  0  0
   59.2766   34.7614   52.1893 H   0  0  0  0  0  0  0  0  0  0  0  0
   60.7167   33.9999   50.2630 H   0  0  0  0  0  0  0  0  0  0  0  0
   62.2359   30.1396   48.1565 H   0  0  0  0  0  0  0  0  0  0  0  0
   64.2091   30.9588   46.8649 H   0  0  0  0  0  0  0  0  0  0  0  0
   64.3356   33.3527   46.1589 H   0  0  0  0  0  0  0  0  0  0  0  0
   62.4938   34.9311   46.7574 H   0  0  0  0  0  0  0  0  0  0  0  0
   60.5216   34.1160   48.0502 H   0  0  0  0  0  0  0  0  0  0  0  0
  1  2  1  0
  2  3  1  0
  3  4  1  0
  4  5  2  0
  5  6  1  0
  6  7  2  0
  7  8  1  0
  8  9  2  0
  2 10  1  0
 10 11  2  0
 10 12  1  0
 12 13  1  0
 13 14  1  0
 14 15  2  0
 15 16  1  0
 16 17  2  0
 17 18  1  0
 18 19  2  0
 19 20  1  0
 20 21  2  0
 21 22  1  0
 22 23  1  0
 23 24  2  0
 24 25  1  0
 25 26  2  0
 26 27  1  0
 27 28  2  0
  9  4  1  0
 22 14  1  0
 28 23  1  0
 21 16  1  0
  1 29  1  0
  1 30  1  0
  2 31  1  6
  3 32  1  0
  3 33  1  0
  5 34  1  0
  6 35  1  0
  7 36  1  0
  8 37  1  0
  9 38  1  0
 12 39  1  0
 13 40  1  0
 13 41  1  0
 17 42  1  0
 18 43  1  0
 19 44  1  0
 20 45  1  0
 24 46  1  0
 25 47  1  0
 26 48  1  0
 27 49  1  0
 28 50  1  0
M  END
>  <UniqueID>  (29) 
29

>  <SMILES>  (29) 
N[C@@H](Cc1ccccc1)C(=O)NCc1nc2ccccc2n1-c1ccccc1

>  <Energy>  (29) 
86.08575997669834

>  <Genealogy>  (29) 
N[C@@H](Cc1ccccc1)C(=O)NCc1nc2ccccc2n1-c1ccccc1 (chirality)
N[C@@H](Cc1ccccc1)C(=O)NCc1nc2ccccc2n1-c1ccccc1 (3D coordinates assigned)
N[C@@H](Cc1ccccc1)C(=O)NCc1nc2ccccc2n1-c1ccccc1 (optimized conformer: 86.08575997669834 kcal/mol)

>  <smiles>  (29) 
NC(Cc1ccccc1)C(=O)NCc1nc2ccccc2n1-c1ccccc1

>  <score_type>  (29) 
oracle

>  <origin>  (29) 
adg

>  <m_score__min__energy>  (29) 
-9.3800000000000008

>  <m_primary>  (29) 
energy

$$$$
29:0
     RDKit          3D

 52 54  0  0  0  0  0  0  0  0999 V2000
   52.6230   23.9960   44.8910 C   0  0  0  0  0  0  0  0  0  0  0  0
   54.0890   23.9050   45.2990 C   0  0  0  0  0  0  0  0  0  0  0  0
   54.5270   25.1750   45.8860 N   0  0  0  0  0  0  0  0  0  0  0  0
   55.9080   25.0630   46.3700 C   0  0  0  0  0  0  0  0  0  0  0  0
   56.7820   26.1510   45.7380 C   0  0  0  0  0  0  0  0  0  0  0  0
   56.0430   27.3600   45.5580 O   0  0  0  0  0  0  0  0  0  0  0  0
   56.5910   28.6200   45.2640 C   0  0  0  0  0  0  0  0  0  0  0  0
   55.8370   29.4950   44.4750 C   0  0  0  0  0  0  0  0  0  0  0  0
   56.3290   30.7570   44.1430 C   0  0  0  0  0  0  0  0  0  0  0  0
   57.5860   31.1730   44.6030 C   0  0  0  0  0  0  0  0  0  0  0  0
   58.3670   30.2950   45.3900 C   0  0  0  0  0  0  0  0  0  0  0  0
   57.8600   29.0260   45.7180 C   0  0  0  0  0  0  0  0  0  0  0  0
   59.7340   30.7180   45.8960 C   0  0  0  0  0  0  0  0  0  0  0  0
   59.7250   31.9730   46.8060 C   0  0  0  0  0  0  0  0  0  0  0  0
   59.6730   33.2400   46.0360 N   0  0  0  0  0  0  0  0  0  0  0  0
   60.0020   34.4000   46.8900 C   0  0  0  0  0  0  0  0  0  0  0  0
   61.1900   34.0800   47.7620 C   0  0  0  0  0  0  0  0  0  0  0  0
   62.4270   33.7470   47.1850 C   0  0  0  0  0  0  0  0  0  0  0  0
   63.5300   33.4650   47.9960 C   0  0  0  0  0  0  0  0  0  0  0  0
   63.4060   33.5110   49.3880 C   0  0  0  0  0  0  0  0  0  0  0  0
   62.1810   33.8400   49.9700 C   0  0  0  0  0  0  0  0  0  0  0  0
   61.0730   34.1250   49.1640 C   0  0  0  0  0  0  0  0  0  0  0  0
   59.8910   34.4470   49.7480 F   0  0  0  0  0  0  0  0  0  0  0  0
   58.3560   33.4370   45.3840 C   0  0  0  0  0  0  0  0  0  0  0  0
   58.1460   32.5070   44.1760 C   0  0  0  0  0  0  0  0  0  0  0  0
   51.9934   24.0351   45.7921 H   0  0  0  0  0  0  0  0  0  0  0  0
   52.4645   24.9057   44.2932 H   0  0  0  0  0  0  0  0  0  0  0  0
   52.3533   23.1129   44.2932 H   0  0  0  0  0  0  0  0  0  0  0  0
   54.2117   23.1004   46.0390 H   0  0  0  0  0  0  0  0  0  0  0  0
   54.6984   23.6900   44.4088 H   0  0  0  0  0  0  0  0  0  0  0  0
   54.5100   25.9010   45.1310 H   0  0  0  0  0  0  0  0  0  0  0  0
   55.9197   25.1779   47.4639 H   0  0  0  0  0  0  0  0  0  0  0  0
   56.3064   24.0765   46.0908 H   0  0  0  0  0  0  0  0  0  0  0  0
   57.6415   26.3491   46.3953 H   0  0  0  0  0  0  0  0  0  0  0  0
   57.1234   25.7987   44.7534 H   0  0  0  0  0  0  0  0  0  0  0  0
   54.8459   29.1845   44.1127 H   0  0  0  0  0  0  0  0  0  0  0  0
   55.7265   31.4305   43.5159 H   0  0  0  0  0  0  0  0  0  0  0  0
   58.4611   28.3428   46.3360 H   0  0  0  0  0  0  0  0  0  0  0  0
   60.1617   29.8819   46.4687 H   0  0  0  0  0  0  0  0  0  0  0  0
   60.3276   30.9809   45.0080 H   0  0  0  0  0  0  0  0  0  0  0  0
   58.8442   31.9245   47.4632 H   0  0  0  0  0  0  0  0  0  0  0  0
   60.6629   31.9725   47.3808 H   0  0  0  0  0  0  0  0  0  0  0  0
   60.2402   35.2648   46.2533 H   0  0  0  0  0  0  0  0  0  0  0  0
   59.1379   34.6333   47.5295 H   0  0  0  0  0  0  0  0  0  0  0  0
   62.5279   33.7080   46.0903 H   0  0  0  0  0  0  0  0  0  0  0  0
   64.4965   33.2066   47.5387 H   0  0  0  0  0  0  0  0  0  0  0  0
   64.2747   33.2877   50.0248 H   0  0  0  0  0  0  0  0  0  0  0  0
   62.0861   33.8754   51.0653 H   0  0  0  0  0  0  0  0  0  0  0  0
   57.5648   33.2391   46.1222 H   0  0  0  0  0  0  0  0  0  0  0  0
   58.3192   34.4730   45.0160 H   0  0  0  0  0  0  0  0  0  0  0  0
   57.4441   32.9826   43.4752 H   0  0  0  0  0  0  0  0  0  0  0  0
   59.1205   32.3369   43.6949 H   0  0  0  0  0  0  0  0  0  0  0  0
  1  2  1  0
  2  3  1  0
  3  4  1  0
  4  5  1  0
  5  6  1  0
  6  7  1  0
  7  8  2  0
  8  9  1  0
  9 10  2  0
 10 11  1  0
 11 12  2  0
 11 13  1  0
 13 14  1  0
 14 15  1  0
 15 16  1  0
 16 17  1  0
 17 18  2  0
 18 19  1  0
 19 20  2  0
 20 21  1  0
 21 22  2  0
 22 23  1  0
 15 24  1  0
 24 25  1  0
 12  7  1  0
 22 17  1  0
 25 10  1  0
  1 26  1  0
  1 27  1  0
  1 28  1  0
  2 29  1  0
  2 30  1  0
  3 31  1  0
  4 32  1  0
  4 33  1  0
  5 34  1  0
  5 35  1  0
  8 36  1  0
  9 37  1  0
 12 38  1  0
 13 39  1  0
 13 40  1  0
 14 41  1  0
 14 42  1  0
 16 43  1  0
 16 44  1  0
 18 45  1  0
 19 46  1  0
 20 47  1  0
 21 48  1  0
 24 49  1  0
 24 50  1  0
 25 51  1  0
 25 52  1  0
M  END
>  <UniqueID>  (30) 
30

>  <SMILES>  (30) 
CCNCCOc1ccc2c(c1)CCN(Cc1ccccc1F)CC2

>  <Energy>  (30) 
57.65866865445455

>  <Genealogy>  (30) 
CCNCCOc1ccc2c(c1)CCN(Cc1ccccc1F)CC2 (3D coordinates assigned)
CCNCCOc1ccc2c(c1)CCN(Cc1ccccc1F)CC2 (nonaromatic ring conformer: 57.65866865445455 kcal/mol)

>  <smiles>  (30) 
CCNCCOc1ccc2c(c1)CCN(Cc1ccccc1F)CC2

>  <score_type>  (30) 
oracle

>  <origin>  (30) 
adg

>  <m_score__min__energy>  (30) 
-6.6799999999999997

>  <m_primary>  (30) 
energy

$$$$
30:0
     RDKit          3D

 57 60  0  0  0  0  0  0  0  0999 V2000
   63.4580   32.6680   47.2050 C   0  0  0  0  0  0  0  0  0  0  0  0
   63.7690   32.7480   48.6970 C   0  0  0  0  0  0  0  0  0  0  0  0
   63.1810   31.5830   49.5220 C   0  0  0  0  0  0  0  0  0  0  0  0
   61.7470   31.7040   49.8900 N   0  0  0  0  0  0  0  0  0  0  0  0
   61.3360   33.0030   50.4650 C   0  0  0  0  0  0  0  0  0  0  0  0
   59.8350   33.2370   50.3140 C   0  0  0  0  0  0  0  0  0  0  0  0
   61.2200   30.5500   50.6520 C   0  0  0  0  0  0  0  0  0  0  0  0
   60.4060   29.6340   49.7300 C   0  0  0  0  0  0  0  0  0  0  0  0
   61.0860   29.4320   48.4410 N   0  0  0  0  0  0  0  0  0  0  0  0
   60.1660   29.6800   47.3500 C   0  0  0  0  0  0  0  0  0  0  0  0
   59.5050   28.6310   46.6440 C   0  0  0  0  0  0  0  0  0  0  0  0
   59.6830   27.2750   46.9990 C   0  0  0  0  0  0  0  0  0  0  0  0
   59.0920   26.2570   46.2550 C   0  0  0  0  0  0  0  0  0  0  0  0
   58.3220   26.5600   45.1400 C   0  0  0  0  0  0  0  0  0  0  0  0
   58.0950   27.8870   44.7830 C   0  0  0  0  0  0  0  0  0  0  0  0
   58.6320   28.9530   45.5440 C   0  0  0  0  0  0  0  0  0  0  0  0
   58.3430   30.2750   45.2400 N   0  0  0  0  0  0  0  0  0  0  0  0
   57.2390   30.6340   44.3320 C   0  0  0  0  0  0  0  0  0  0  0  0
   59.0500   31.2560   45.8820 C   0  0  0  0  0  0  0  0  0  0  0  0
   59.8980   30.9890   46.9370 C   0  0  0  0  0  0  0  0  0  0  0  0
   60.4060   32.1300   47.4600 N   0  0  0  0  0  0  0  0  0  0  0  0
   59.9070   33.1230   46.7000 C   0  0  0  0  0  0  0  0  0  0  0  0
   60.1930   34.4820   46.8270 C   0  0  0  0  0  0  0  0  0  0  0  0
   59.6320   35.3650   45.8900 C   0  0  0  0  0  0  0  0  0  0  0  0
   58.8250   34.8770   44.8440 C   0  0  0  0  0  0  0  0  0  0  0  0
   58.5510   33.5020   44.7320 C   0  0  0  0  0  0  0  0  0  0  0  0
   59.0810   32.6400   45.7030 C   0  0  0  0  0  0  0  0  0  0  0  0
   62.4014   32.3962   47.0648 H   0  0  0  0  0  0  0  0  0  0  0  0
   63.6505   33.6449   46.7374 H   0  0  0  0  0  0  0  0  0  0  0  0
   64.0980   31.9052   46.7374 H   0  0  0  0  0  0  0  0  0  0  0  0
   64.8617   32.7452   48.8236 H   0  0  0  0  0  0  0  0  0  0  0  0
   63.3028   33.6714   49.0712 H   0  0  0  0  0  0  0  0  0  0  0  0
   63.3010   30.6607   48.9347 H   0  0  0  0  0  0  0  0  0  0  0  0
   63.7325   31.5858   50.4738 H   0  0  0  0  0  0  0  0  0  0  0  0
   61.5933   33.0170   51.5344 H   0  0  0  0  0  0  0  0  0  0  0  0
   61.8640   33.8010   49.9224 H   0  0  0  0  0  0  0  0  0  0  0  0
   59.3731   33.3090   51.3097 H   0  0  0  0  0  0  0  0  0  0  0  0
   59.6635   34.1727   49.7617 H   0  0  0  0  0  0  0  0  0  0  0  0
   59.3868   32.3979   49.7617 H   0  0  0  0  0  0  0  0  0  0  0  0
   62.0599   29.9823   51.0789 H   0  0  0  0  0  0  0  0  0  0  0  0
   60.5684   30.9192   51.4577 H   0  0  0  0  0  0  0  0  0  0  0  0
   60.2720   28.6589   50.2211 H   0  0  0  0  0  0  0  0  0  0  0  0
   59.4331   30.1102   49.5384 H   0  0  0  0  0  0  0  0  0  0  0  0
   61.9060   30.0750   48.3650 H   0  0  0  0  0  0  0  0  0  0  0  0
   61.4940   28.4730   48.3840 H   0  0  0  0  0  0  0  0  0  0  0  0
   60.2970   27.0199   47.8753 H   0  0  0  0  0  0  0  0  0  0  0  0
   59.2359   25.2077   46.5521 H   0  0  0  0  0  0  0  0  0  0  0  0
   57.8895   25.7487   44.5361 H   0  0  0  0  0  0  0  0  0  0  0  0
   57.4875   28.1107   43.8937 H   0  0  0  0  0  0  0  0  0  0  0  0
   56.3567   30.9209   44.9230 H   0  0  0  0  0  0  0  0  0  0  0  0
   57.5459   31.4786   43.6977 H   0  0  0  0  0  0  0  0  0  0  0  0
   56.9904   29.7704   43.6977 H   0  0  0  0  0  0  0  0  0  0  0  0
   61.0550   32.2420   48.2690 H   0  0  0  0  0  0  0  0  0  0  0  0
   60.8389   34.8514   47.6371 H   0  0  0  0  0  0  0  0  0  0  0  0
   59.8242   36.4449   45.9736 H   0  0  0  0  0  0  0  0  0  0  0  0
   58.4050   35.5779   44.1076 H   0  0  0  0  0  0  0  0  0  0  0  0
   57.9379   33.1134   43.9055 H   0  0  0  0  0  0  0  0  0  0  0  0
  1  2  1  0
  2  3  1  0
  3  4  1  0
  4  5  1  0
  5  6  1  0
  4  7  1  0
  7  8  1  0
  8  9  1  0
  9 10  1  0
 10 11  2  0
 11 12  1  0
 12 13  2  0
 13 14  1  0
 14 15  2  0
 15 16  1  0
 16 17  2  0
 17 18  1  0
 17 19  1  0
 19 20  2  0
 20 21  1  0
 21 22  1  0
 22 23  2  0
 23 24  1  0
 24 25  2  0
 25 26  1  0
 26 27  2  0
 20 10  1  0
 27 22  1  0
 16 11  1  0
 27 19  1  0
  1 28  1  0
  1 29  1  0
  1 30  1  0
  2 31  1  0
  2 32  1  0
  3 33  1  0
  3 34  1  0
  5 35  1  0
  5 36  1  0
  6 37  1  0
  6 38  1  0
  6 39  1  0
  7 40  1  0
  7 41  1  0
  8 42  1  0
  8 43  1  0
  9 44  1  0
  9 45  1  0
 12 46  1  0
 13 47  1  0
 14 48  1  0
 15 49  1  0
 18 50  1  0
 18 51  1  0
 18 52  1  0
 21 53  1  0
 23 54  1  0
 24 55  1  0
 25 56  1  0
 26 57  1  0
M  CHG  2   9   1  17   1
M  END
>  <UniqueID>  (31) 
31

>  <SMILES>  (31) 
CCCN(CC)CC[NH2+]c1c2ccccc2[n+](C)c2c1[nH]c1ccccc12

>  <Energy>  (31) 
120.49474580341345

>  <Genealogy>  (31) 
CCCN(CC)CC[NH2+]c1c2ccccc2[n+](C)c2c1[nH]c1ccccc12 (protonated)
CCCN(CC)CC[NH2+]c1c2ccccc2[n+](C)c2c1[nH]c1ccccc12 (3D coordinates assigned)
CCCN(CC)CC[NH2+]c1c2ccccc2[n+](C)c2c1[nH]c1ccccc12 (optimized conformer: 120.49474580341345 kcal/mol)

>  <smiles>  (31) 
CCCN(CC)CCNc1c2ccccc2[n+](C)c2c1[nH]c1ccccc12

>  <score_type>  (31) 
oracle

>  <origin>  (31) 
adg

>  <m_score__min__energy>  (31) 
-4.5300000000000002

>  <m_primary>  (31) 
energy

$$$$
31:0
     RDKit          3D

 59 60  0  0  0  0  0  0  0  0999 V2000
   61.5680   34.1700   48.5750 C   0  0  0  0  0  0  0  0  0  0  0  0
   60.1090   34.3720   48.9850 C   0  0  0  0  0  0  0  0  0  0  0  0
   59.3070   33.1630   48.7520 N   0  0  0  0  0  0  0  0  0  0  0  0
   59.0030   32.2880   49.8470 C   0  0  0  0  0  0  0  0  0  0  0  0
   58.1510   32.6530   50.7030 O   0  0  0  0  0  0  0  0  0  0  0  0
   59.6900   30.9420   49.9650 C   0  0  0  0  0  0  0  0  0  0  0  0
   59.2300   30.2050   51.2460 C   0  0  0  0  0  0  0  0  0  0  0  0
   61.2140   31.1510   50.0470 C   0  0  0  0  0  0  0  0  0  0  0  0
   59.3730   30.1200   48.7300 C   0  0  0  0  0  0  0  0  0  0  0  0
   58.8660   28.9690   48.8340 O   0  0  0  0  0  0  0  0  0  0  0  0
   59.7200   30.6100   47.4280 N   0  0  0  0  0  0  0  0  0  0  0  0
   60.6360   29.8080   46.6170 C   0  0  0  0  0  0  0  0  0  0  0  0
   58.9250   31.6470   46.8200 C   0  0  0  0  0  0  0  0  0  0  0  0
   58.3570   31.4320   45.5500 C   0  0  0  0  0  0  0  0  0  0  0  0
   57.6210   32.4310   44.9050 C   0  0  0  0  0  0  0  0  0  0  0  0
   57.0820   32.1420   43.6400 O   0  0  0  0  0  0  0  0  0  0  0  0
   57.0420   30.8530   43.0270 C   0  0  0  0  0  0  0  0  0  0  0  0
   55.8300   30.0590   43.5190 C   0  0  0  0  0  0  0  0  0  0  0  0
   56.0690   29.5580   44.8210 O   0  0  0  0  0  0  0  0  0  0  0  0
   57.2070   28.7150   44.8520 C   0  0  0  0  0  0  0  0  0  0  0  0
   56.9310   27.4320   45.6520 C   0  0  0  0  0  0  0  0  0  0  0  0
   58.1950   26.6010   45.9440 C   0  0  0  0  0  0  0  0  0  0  0  0
   58.9480   27.1290   47.0940 N   0  0  0  0  0  0  0  0  0  0  0  0
   60.1900   26.3780   47.2880 C   0  0  0  0  0  0  0  0  0  0  0  0
   57.4450   33.6690   45.5440 C   0  0  0  0  0  0  0  0  0  0  0  0
   58.0010   33.8970   46.8020 C   0  0  0  0  0  0  0  0  0  0  0  0
   58.7380   32.8950   47.4570 C   0  0  0  0  0  0  0  0  0  0  0  0
   62.1934   34.0834   49.4758 H   0  0  0  0  0  0  0  0  0  0  0  0
   61.6570   33.2510   47.9771 H   0  0  0  0  0  0  0  0  0  0  0  0
   61.9033   35.0303   47.9771 H   0  0  0  0  0  0  0  0  0  0  0  0
   60.0710   34.6244   50.0550 H   0  0  0  0  0  0  0  0  0  0  0  0
   59.6901   35.1847   48.3734 H   0  0  0  0  0  0  0  0  0  0  0  0
   59.5755   30.7585   52.1316 H   0  0  0  0  0  0  0  0  0  0  0  0
   58.1319   30.1419   51.2584 H   0  0  0  0  0  0  0  0  0  0  0  0
   59.6557   29.1908   51.2584 H   0  0  0  0  0  0  0  0  0  0  0  0
   61.5221   31.1932   51.1021 H   0  0  0  0  0  0  0  0  0  0  0  0
   61.7261   30.3147   49.5487 H   0  0  0  0  0  0  0  0  0  0  0  0
   61.4821   32.0943   49.5487 H   0  0  0  0  0  0  0  0  0  0  0  0
   61.2982   29.2282   47.2769 H   0  0  0  0  0  0  0  0  0  0  0  0
   60.0577   29.1206   45.9822 H   0  0  0  0  0  0  0  0  0  0  0  0
   61.2409   30.4721   45.9822 H   0  0  0  0  0  0  0  0  0  0  0  0
   58.4948   30.4592   45.0553 H   0  0  0  0  0  0  0  0  0  0  0  0
   56.9760   30.9738   41.9356 H   0  0  0  0  0  0  0  0  0  0  0  0
   57.9572   30.3047   43.2950 H   0  0  0  0  0  0  0  0  0  0  0  0
   54.9486   30.7168   43.5390 H   0  0  0  0  0  0  0  0  0  0  0  0
   55.6533   29.2146   42.8366 H   0  0  0  0  0  0  0  0  0  0  0  0
   57.4794   28.4430   43.8216 H   0  0  0  0  0  0  0  0  0  0  0  0
   58.0283   29.2590   45.3414 H   0  0  0  0  0  0  0  0  0  0  0  0
   56.4706   27.7127   46.6108 H   0  0  0  0  0  0  0  0  0  0  0  0
   56.2690   26.8052   45.0365 H   0  0  0  0  0  0  0  0  0  0  0  0
   57.8966   25.5646   46.1603 H   0  0  0  0  0  0  0  0  0  0  0  0
   58.8466   26.6507   45.0591 H   0  0  0  0  0  0  0  0  0  0  0  0
   58.3760   27.0400   47.9650 H   0  0  0  0  0  0  0  0  0  0  0  0
   59.1870   28.1360   46.9330 H   0  0  0  0  0  0  0  0  0  0  0  0
   60.3834   26.2610   48.3645 H   0  0  0  0  0  0  0  0  0  0  0  0
   60.0951   25.3858   46.8226 H   0  0  0  0  0  0  0  0  0  0  0  0
   61.0245   26.9230   46.8226 H   0  0  0  0  0  0  0  0  0  0  0  0
   56.8657   34.4627   45.0496 H   0  0  0  0  0  0  0  0  0  0  0  0
   57.8612   34.8737   47.2884 H   0  0  0  0  0  0  0  0  0  0  0  0
  1  2  1  0
  2  3  1  0
  3  4  1  0
  4  5  2  0
  4  6  1  0
  6  7  1  0
  6  8  1  0
  6  9  1  0
  9 10  2  0
  9 11  1  0
 11 12  1  0
 11 13  1  0
 13 14  2  0
 14 15  1  0
 15 16  1  0
 16 17  1  0
 17 18  1  0
 18 19  1  0
 19 20  1  0
 20 21  1  0
 21 22  1  0
 22 23  1  0
 23 24  1  0
 15 25  2  0
 25 26  1  0
 26 27  2  0
 27  3  1  0
 27 13  1  0
  1 28  1  0
  1 29  1  0
  1 30  1  0
  2 31  1  0
  2 32  1  0
  7 33  1  0
  7 34  1  0
  7 35  1  0
  8 36  1  0
  8 37  1  0
  8 38  1  0
 12 39  1  0
 12 40  1  0
 12 41  1  0
 14 42  1  0
 17 43  1  0
 17 44  1  0
 18 45  1  0
 18 46  1  0
 20 47  1  0
 20 48  1  0
 21 49  1  0
 21 50  1  0
 22 51  1  0
 22 52  1  0
 23 53  1  0
 23 54  1  0
 24 55  1  0
 24 56  1  0
 24 57  1  0
 25 58  1  0
 26 59  1  0
M  CHG  1  23   1
M  END
>  <UniqueID>  (32) 
32

>  <SMILES>  (32) 
CCN1C(=O)C(C)(C)C(=O)N(C)c2cc(OCCOCCC[NH2+]C)ccc21

>  <Energy>  (32) 
76.70681684510663

>  <Genealogy>  (32) 
CCN1C(=O)C(C)(C)C(=O)N(C)c2cc(OCCOCCC[NH2+]C)ccc21 (protonated)
CCN1C(=O)C(C)(C)C(=O)N(C)c2cc(OCCOCCC[NH2+]C)ccc21 (3D coordinates assigned)
CCN1C(=O)C(C)(C)C(=O)N(C)c2cc(OCCOCCC[NH2+]C)ccc21 (nonaromatic ring conformer: 76.70681684510663 kcal/mol)

>  <smiles>  (32) 
CCN1C(=O)C(C)(C)C(=O)N(C)c2cc(OCCOCCCNC)ccc21

>  <score_type>  (32) 
oracle

>  <origin>  (32) 
adg

>  <m_score__min__energy>  (32) 
-3.6899999999999999

>  <m_primary>  (32) 
energy

$$$$
32:0
     RDKit          3D

 35 38  0  0  0  0  0  0  0  0999 V2000
   56.6410   29.8260   43.0090 C   0  0  0  0  0  0  0  0  0  0  0  0
   56.2130   30.5820   44.2650 C   0  0  0  0  0  0  0  0  0  0  0  0
   57.3690   30.8370   45.1350 N   0  0  0  0  0  0  0  0  0  0  0  0
   58.0000   32.0380   45.2340 C   0  0  0  0  0  0  0  0  0  0  0  0
   57.6180   33.2640   44.6700 C   0  0  0  0  0  0  0  0  0  0  0  0
   58.4460   34.3810   44.8830 C   0  0  0  0  0  0  0  0  0  0  0  0
   59.6300   34.2620   45.6400 C   0  0  0  0  0  0  0  0  0  0  0  0
   59.9970   33.0260   46.1960 C   0  0  0  0  0  0  0  0  0  0  0  0
   59.1540   31.9380   45.9760 C   0  0  0  0  0  0  0  0  0  0  0  0
   59.2460   30.6260   46.3690 C   0  0  0  0  0  0  0  0  0  0  0  0
   60.2550   29.9870   47.0780 C   0  0  0  0  0  0  0  0  0  0  0  0
   60.1330   28.6170   47.3090 C   0  0  0  0  0  0  0  0  0  0  0  0
   58.9910   27.9110   46.8720 C   0  0  0  0  0  0  0  0  0  0  0  0
   58.8840   26.5410   47.1560 C   0  0  0  0  0  0  0  0  0  0  0  0
   57.7380   25.8340   46.8010 C   0  0  0  0  0  0  0  0  0  0  0  0
   56.6730   26.4880   46.1850 C   0  0  0  0  0  0  0  0  0  0  0  0
   55.5160   25.7710   45.8830 O   0  0  0  0  0  0  0  0  0  0  0  0
   56.7630   27.8540   45.8850 C   0  0  0  0  0  0  0  0  0  0  0  0
   57.9380   28.5840   46.1740 C   0  0  0  0  0  0  0  0  0  0  0  0
   58.1250   29.9650   45.8790 C   0  0  0  0  0  0  0  0  0  0  0  0
   57.1640   28.9022   43.2974 H   0  0  0  0  0  0  0  0  0  0  0  0
   55.7521   29.5731   42.4125 H   0  0  0  0  0  0  0  0  0  0  0  0
   57.3152   30.4581   42.4125 H   0  0  0  0  0  0  0  0  0  0  0  0
   55.7618   31.5418   43.9730 H   0  0  0  0  0  0  0  0  0  0  0  0
   55.4834   29.9700   44.8156 H   0  0  0  0  0  0  0  0  0  0  0  0
   56.6955   33.3498   44.0769 H   0  0  0  0  0  0  0  0  0  0  0  0
   58.1677   35.3556   44.4555 H   0  0  0  0  0  0  0  0  0  0  0  0
   60.2700   35.1430   45.7958 H   0  0  0  0  0  0  0  0  0  0  0  0
   60.9194   32.9198   46.7858 H   0  0  0  0  0  0  0  0  0  0  0  0
   61.1270   30.5465   47.4475 H   0  0  0  0  0  0  0  0  0  0  0  0
   60.9351   28.0807   47.8373 H   0  0  0  0  0  0  0  0  0  0  0  0
   59.7110   26.0219   47.6625 H   0  0  0  0  0  0  0  0  0  0  0  0
   57.6733   24.7555   47.0076 H   0  0  0  0  0  0  0  0  0  0  0  0
   54.6460   25.9330   46.3770 H   0  0  0  0  0  0  0  0  0  0  0  0
   55.9077   28.3647   45.4184 H   0  0  0  0  0  0  0  0  0  0  0  0
  1  2  1  0
  2  3  1  0
  3  4  1  0
  4  5  2  0
  5  6  1  0
  6  7  2  0
  7  8  1  0
  8  9  2  0
  9 10  1  0
 10 11  2  0
 11 12  1  0
 12 13  2  0
 13 14  1  0
 14 15  2  0
 15 16  1  0
 16 17  1  0
 16 18  2  0
 18 19  1  0
 19 20  2  0
 20  3  1  0
  9  4  1  0
 20 10  1  0
 19 13  1  0
  1 21  1  0
  1 22  1  0
  1 23  1  0
  2 24  1  0
  2 25  1  0
  5 26  1  0
  6 27  1  0
  7 28  1  0
  8 29  1  0
 11 30  1  0
 12 31  1  0
 14 32  1  0
 15 33  1  0
 17 34  1  0
 18 35  1  0
M  END
>  <UniqueID>  (33) 
33

>  <SMILES>  (33) 
CCn1c2ccccc2c2ccc3ccc(O)cc3c21

>  <Energy>  (33) 
89.9536050095265

>  <Genealogy>  (33) 
CCn1c2ccccc2c2ccc3ccc(O)cc3c21 (3D coordinates assigned)
CCn1c2ccccc2c2ccc3ccc(O)cc3c21 (optimized conformer: 89.9536050095265 kcal/mol)

>  <smiles>  (33) 
CCn1c2ccccc2c2ccc3ccc(O)cc3c21

>  <score_type>  (33) 
oracle

>  <origin>  (33) 
adg

>  <m_score__min__energy>  (33) 
-7.8200000000000003

>  <m_primary>  (33) 
energy

$$$$
33:0
     RDKit          3D

 39 41  0  0  0  0  0  0  0  0999 V2000
   57.7890   29.5070   44.8830 C   0  0  0  0  0  0  0  0  0  0  0  0
   56.6420   30.4230   44.7690 N   0  0  0  0  0  0  0  0  0  0  0  0
   55.5190   29.7160   44.1250 C   0  0  0  0  0  0  0  0  0  0  0  0
   57.0350   31.6250   44.0030 C   0  0  0  0  0  0  0  0  0  0  0  0
   57.0640   32.8960   44.8770 C   0  0  0  0  0  0  0  0  0  0  0  0
   57.3620   32.6250   46.2960 N   0  0  0  0  0  0  0  0  0  0  0  0
   58.7620   32.8400   46.6060 C   0  0  0  0  0  0  0  0  0  0  0  0
   59.4020   34.0280   46.1380 C   0  0  0  0  0  0  0  0  0  0  0  0
   58.6950   34.9610   45.4520 F   0  0  0  0  0  0  0  0  0  0  0  0
   60.7710   34.2610   46.3750 C   0  0  0  0  0  0  0  0  0  0  0  0
   61.4980   33.3090   47.0800 C   0  0  0  0  0  0  0  0  0  0  0  0
   60.8890   32.1860   47.5390 C   0  0  0  0  0  0  0  0  0  0  0  0
   61.7530   31.3810   48.2160 C   0  0  0  0  0  0  0  0  0  0  0  0
   61.3070   30.1820   48.7710 C   0  0  0  0  0  0  0  0  0  0  0  0
   59.9500   29.8370   48.6170 C   0  0  0  0  0  0  0  0  0  0  0  0
   59.0650   30.6870   47.9150 C   0  0  0  0  0  0  0  0  0  0  0  0
   59.5370   31.8960   47.3450 C   0  0  0  0  0  0  0  0  0  0  0  0
   63.1210   31.9850   48.2430 C   0  0  0  0  0  0  0  0  0  0  0  0
   62.9450   33.3160   47.4620 C   0  0  0  0  0  0  0  0  0  0  0  0
   58.0119   29.3290   45.9454 H   0  0  0  0  0  0  0  0  0  0  0  0
   57.5456   28.5520   44.3944 H   0  0  0  0  0  0  0  0  0  0  0  0
   58.6665   29.9556   44.3944 H   0  0  0  0  0  0  0  0  0  0  0  0
   54.8567   29.2990   44.8979 H   0  0  0  0  0  0  0  0  0  0  0  0
   54.9529   30.4209   43.4984 H   0  0  0  0  0  0  0  0  0  0  0  0
   55.9099   28.9008   43.4984 H   0  0  0  0  0  0  0  0  0  0  0  0
   58.0381   31.4630   43.5817 H   0  0  0  0  0  0  0  0  0  0  0  0
   56.2857   31.7787   43.2124 H   0  0  0  0  0  0  0  0  0  0  0  0
   57.8356   33.5732   44.4819 H   0  0  0  0  0  0  0  0  0  0  0  0
   56.0590   33.3412   44.8357 H   0  0  0  0  0  0  0  0  0  0  0  0
   57.0300   31.6740   46.5620 H   0  0  0  0  0  0  0  0  0  0  0  0
   56.7940   33.2860   46.8750 H   0  0  0  0  0  0  0  0  0  0  0  0
   61.2552   35.1785   46.0092 H   0  0  0  0  0  0  0  0  0  0  0  0
   61.9979   29.5218   49.3157 H   0  0  0  0  0  0  0  0  0  0  0  0
   59.5751   28.8966   49.0473 H   0  0  0  0  0  0  0  0  0  0  0  0
   58.0058   30.4091   47.8107 H   0  0  0  0  0  0  0  0  0  0  0  0
   63.4464   32.1755   49.2764 H   0  0  0  0  0  0  0  0  0  0  0  0
   63.8877   31.3292   47.8047 H   0  0  0  0  0  0  0  0  0  0  0  0
   63.1787   34.1804   48.1008 H   0  0  0  0  0  0  0  0  0  0  0  0
   63.6165   33.3953   46.5944 H   0  0  0  0  0  0  0  0  0  0  0  0
  1  2  1  0
  2  3  1  0
  2  4  1  0
  4  5  1  0
  5  6  1  0
  6  7  1  0
  7  8  2  0
  8  9  1  0
  8 10  1  0
 10 11  2  0
 11 12  1  0
 12 13  2  0
 13 14  1  0
 14 15  2  0
 15 16  1  0
 16 17  2  0
 13 18  1  0
 18 19  1  0
 17  7  1  0
 19 11  1  0
 17 12  1  0
  1 20  1  0
  1 21  1  0
  1 22  1  0
  3 23  1  0
  3 24  1  0
  3 25  1  0
  4 26  1  0
  4 27  1  0
  5 28  1  0
  5 29  1  0
  6 30  1  0
  6 31  1  0
 10 32  1  0
 14 33  1  0
 15 34  1  0
 16 35  1  0
 18 36  1  0
 18 37  1  0
 19 38  1  0
 19 39  1  0
M  CHG  1   6   1
M  END
>  <UniqueID>  (34) 
34

>  <SMILES>  (34) 
CN(C)CC[NH2+]c1c(F)cc2c3c(cccc13)CC2

>  <Energy>  (34) 
63.76188505481424

>  <Genealogy>  (34) 
CN(C)CC[NH2+]c1c(F)cc2c3c(cccc13)CC2 (protonated)
CN(C)CC[NH2+]c1c(F)cc2c3c(cccc13)CC2 (3D coordinates assigned)
CN(C)CC[NH2+]c1c(F)cc2c3c(cccc13)CC2 (nonaromatic ring conformer: 63.76188505481424 kcal/mol)

>  <smiles>  (34) 
CN(C)CCNc1c(F)cc2c3c(cccc13)CC2

>  <score_type>  (34) 
oracle

>  <origin>  (34) 
adg

>  <m_score__min__energy>  (34) 
-4.6100000000000003

>  <m_primary>  (34) 
energy

$$$$
