0:0
     RDKit          3D

 35 37  0  0  0  0  0  0  0  0999 V2000
   59.2840   25.1970   45.9910 C   0  0  0  0  0  0  0  0  0  0  0  0
   58.9070   26.6260   45.7190 C   0  0  0  0  0  0  0  0  0  0  0  0
   58.1250   26.9380   44.5860 C   0  0  0  0  0  0  0  0  0  0  0  0
   57.7890   28.2700   44.3590 C   0  0  0  0  0  0  0  0  0  0  0  0
   57.0480   28.7470   43.3470 N   0  0  0  0  0  0  0  0  0  0  0  0
   56.9780   30.0830   43.5300 C   0  0  0  0  0  0  0  0  0  0  0  0
   57.6820   30.4650   44.6750 C   0  0  0  0  0  0  0  0  0  0  0  0
   57.8570   31.8660   45.1510 C   0  0  0  0  0  0  0  0  0  0  0  0
   58.1110   32.0980   46.4520 C   0  0  0  0  0  0  0  0  0  0  0  0
   58.1050   33.4820   47.0550 C   0  0  0  0  0  0  0  0  0  0  0  0
   58.2970   34.5590   46.0650 N   0  0  0  0  0  0  0  0  0  0  0  0
   59.7190   34.7450   45.7260 C   0  0  0  0  0  0  0  0  0  0  0  0
   57.4510   34.3450   44.8750 C   0  0  0  0  0  0  0  0  0  0  0  0
   57.7730   33.0160   44.1780 C   0  0  0  0  0  0  0  0  0  0  0  0
   58.1990   29.2800   45.1940 C   0  0  0  0  0  0  0  0  0  0  0  0
   58.9620   29.0040   46.3320 C   0  0  0  0  0  0  0  0  0  0  0  0
   59.3210   27.6680   46.5930 C   0  0  0  0  0  0  0  0  0  0  0  0
   60.3700   27.3050   48.1570 Br  0  0  0  0  0  0  0  0  0  0  0  0
   59.3281   25.0298   47.0773 H   0  0  0  0  0  0  0  0  0  0  0  0
   58.5315   24.5285   45.5474 H   0  0  0  0  0  0  0  0  0  0  0  0
   60.2684   24.9867   45.5474 H   0  0  0  0  0  0  0  0  0  0  0  0
   57.7890   26.1476   43.8987 H   0  0  0  0  0  0  0  0  0  0  0  0
   56.6170   28.2010   42.5670 H   0  0  0  0  0  0  0  0  0  0  0  0
   56.4397   30.7767   42.8674 H   0  0  0  0  0  0  0  0  0  0  0  0
   58.3329   31.2411   47.1051 H   0  0  0  0  0  0  0  0  0  0  0  0
   57.1384   33.6387   47.5561 H   0  0  0  0  0  0  0  0  0  0  0  0
   58.9523   33.5325   47.7546 H   0  0  0  0  0  0  0  0  0  0  0  0
   60.3094   34.8222   46.6509 H   0  0  0  0  0  0  0  0  0  0  0  0
   60.0710   33.8852   45.1370 H   0  0  0  0  0  0  0  0  0  0  0  0
   59.8381   35.6664   45.1370 H   0  0  0  0  0  0  0  0  0  0  0  0
   56.3956   34.3378   45.1851 H   0  0  0  0  0  0  0  0  0  0  0  0
   57.6487   35.1606   44.1639 H   0  0  0  0  0  0  0  0  0  0  0  0
   56.9830   32.8011   43.4434 H   0  0  0  0  0  0  0  0  0  0  0  0
   58.7548   33.1192   43.6927 H   0  0  0  0  0  0  0  0  0  0  0  0
   59.2751   29.8127   47.0087 H   0  0  0  0  0  0  0  0  0  0  0  0
  1  2  1  0
  2  3  2  0
  3  4  1  0
  4  5  1  0
  5  6  1  0
  6  7  2  0
  7  8  1  0
  8  9  2  0
  9 10  1  0
 10 11  1  0
 11 12  1  0
 11 13  1  0
 13 14  1  0
  7 15  1  0
 15 16  1  0
 16 17  2  0
 17 18  1  0
 17  2  1  0
 15  4  2  0
 14  8  1  0
  1 19  1  0
  1 20  1  0
  1 21  1  0
  3 22  1  0
  5 23  1  0
  6 24  1  0
  9 25  1  0
 10 26  1  0
 10 27  1  0
 12 28  1  0
 12 29  1  0
 12 30  1  0
 13 31  1  0
 13 32  1  0
 14 33  1  0
 14 34  1  0
 16 35  1  0
M  END
>  <UniqueID>  (1) 
1

>  <SMILES>  (1) 
Cc1cc2[nH]cc(C3=CCN(C)CC3)c2cc1Br

>  <Energy>  (1) 
78.08254885594003

>  <Genealogy>  (1) 
Cc1cc2[nH]cc(C3=CCN(C)CC3)c2cc1Br (3D coordinates assigned)
Cc1cc2[nH]cc(C3=CCN(C)CC3)c2cc1Br (nonaromatic ring conformer: 78.08254885594003 kcal/mol)

>  <smiles>  (1) 
Cc1cc2[nH]cc(C3=CCN(C)CC3)c2cc1Br

>  <score_type>  (1) 
oracle

>  <origin>  (1) 
adg

>  <m_score__min__energy>  (1) 
-7.54

>  <m_primary>  (1) 
energy

$$$$
1:0
     RDKit          3D

 54 57  0  0  0  0  0  0  0  0999 V2000
   58.1620   31.6740   46.9710 C   0  0  0  0  0  0  0  0  0  0  0  0
   58.0620   31.5910   45.5150 N   0  0  0  0  0  0  0  0  0  0  0  0
   57.6190   32.5360   44.6560 C   0  0  0  0  0  0  0  0  0  0  0  0
   57.0940   34.1910   45.1190 S   0  0  0  0  0  0  0  0  0  0  0  0
   58.7370   34.9600   44.8770 C   0  0  0  0  0  0  0  0  0  0  0  0
   59.6380   34.7960   46.1070 C   0  0  0  0  0  0  0  0  0  0  0  0
   60.5260   33.5450   46.0150 C   0  0  0  0  0  0  0  0  0  0  0  0
   61.5110   33.5240   47.1130 N   0  0  0  0  0  0  0  0  0  0  0  0
   62.8990   33.8930   46.6660 C   0  0  0  0  0  0  0  0  0  0  0  0
   63.9920   33.0860   47.4120 C   0  0  2  0  0  0  0  0  0  0  0  0
   63.6010   31.6180   47.2220 C   0  0  0  0  0  0  0  0  0  0  0  0
   62.7480   31.7830   48.4820 C   0  0  2  0  0  0  0  0  0  0  0  0
   61.3760   32.2990   47.9730 C   0  0  0  0  0  0  0  0  0  0  0  0
   63.6520   32.9590   48.9140 C   0  0  0  0  0  0  0  0  0  0  0  0
   63.0080   34.1710   49.6420 C   0  0  0  0  0  0  0  0  0  0  0  0
   64.8680   32.4800   49.7460 C   0  0  0  0  0  0  0  0  0  0  0  0
   57.5650   32.0770   43.3910 N   0  0  0  0  0  0  0  0  0  0  0  0
   57.9900   30.8250   43.4370 N   0  0  0  0  0  0  0  0  0  0  0  0
   58.3000   30.5290   44.7130 C   0  0  0  0  0  0  0  0  0  0  0  0
   58.7850   29.2020   45.1500 C   0  0  0  0  0  0  0  0  0  0  0  0
   60.1510   29.0110   45.4190 C   0  0  0  0  0  0  0  0  0  0  0  0
   60.6210   27.7640   45.8430 C   0  0  0  0  0  0  0  0  0  0  0  0
   59.7310   26.7020   46.0140 C   0  0  0  0  0  0  0  0  0  0  0  0
   58.3670   26.8870   45.7660 C   0  0  0  0  0  0  0  0  0  0  0  0
   57.8940   28.1310   45.3410 C   0  0  0  0  0  0  0  0  0  0  0  0
   57.3922   31.0351   47.4284 H   0  0  0  0  0  0  0  0  0  0  0  0
   59.1581   31.3336   47.2901 H   0  0  0  0  0  0  0  0  0  0  0  0
   58.0109   32.7158   47.2901 H   0  0  0  0  0  0  0  0  0  0  0  0
   59.2264   34.4864   44.0132 H   0  0  0  0  0  0  0  0  0  0  0  0
   58.5855   36.0366   44.7094 H   0  0  0  0  0  0  0  0  0  0  0  0
   60.2833   35.6826   46.1939 H   0  0  0  0  0  0  0  0  0  0  0  0
   58.9889   34.6847   46.9880 H   0  0  0  0  0  0  0  0  0  0  0  0
   59.8935   32.6474   46.0799 H   0  0  0  0  0  0  0  0  0  0  0  0
   61.0649   33.5630   45.0562 H   0  0  0  0  0  0  0  0  0  0  0  0
   63.0587   34.9645   46.8565 H   0  0  0  0  0  0  0  0  0  0  0  0
   62.9806   33.6586   45.5944 H   0  0  0  0  0  0  0  0  0  0  0  0
   64.9602   33.5128   47.1113 H   0  0  0  0  0  0  0  0  0  0  0  0
   64.4309   30.9020   47.3151 H   0  0  0  0  0  0  0  0  0  0  0  0
   63.1866   31.2373   46.2768 H   0  0  0  0  0  0  0  0  0  0  0  0
   62.5362   30.9743   49.1970 H   0  0  0  0  0  0  0  0  0  0  0  0
   60.7459   32.5437   48.8408 H   0  0  0  0  0  0  0  0  0  0  0  0
   60.9243   31.5053   47.3598 H   0  0  0  0  0  0  0  0  0  0  0  0
   63.0840   34.0279   50.7300 H   0  0  0  0  0  0  0  0  0  0  0  0
   63.5351   35.0931   49.3557 H   0  0  0  0  0  0  0  0  0  0  0  0
   61.9489   34.2502   49.3557 H   0  0  0  0  0  0  0  0  0  0  0  0
   64.6376   32.5708   50.8178 H   0  0  0  0  0  0  0  0  0  0  0  0
   65.0857   31.4289   49.5055 H   0  0  0  0  0  0  0  0  0  0  0  0
   65.7441   33.1002   49.5055 H   0  0  0  0  0  0  0  0  0  0  0  0
   58.0680   30.1970   42.6060 H   0  0  0  0  0  0  0  0  0  0  0  0
   60.8547   29.8473   45.2953 H   0  0  0  0  0  0  0  0  0  0  0  0
   61.6932   27.6197   46.0420 H   0  0  0  0  0  0  0  0  0  0  0  0
   60.1023   25.7204   46.3436 H   0  0  0  0  0  0  0  0  0  0  0  0
   57.6653   26.0515   45.9058 H   0  0  0  0  0  0  0  0  0  0  0  0
   56.8193   28.2734   45.1549 H   0  0  0  0  0  0  0  0  0  0  0  0
  1  2  1  0
  2  3  1  0
  3  4  1  0
  4  5  1  0
  5  6  1  0
  6  7  1  0
  7  8  1  0
  8  9  1  0
  9 10  1  0
 10 11  1  0
 11 12  1  0
 12 13  1  0
 12 14  1  0
 14 15  1  0
 14 16  1  0
  3 17  2  0
 17 18  1  0
 18 19  2  0
 19 20  1  0
 20 21  2  0
 21 22  1  0
 22 23  2  0
 23 24  1  0
 24 25  2  0
 19  2  1  0
 25 20  1  0
 13  8  1  0
 14 10  1  0
  1 26  1  0
  1 27  1  0
  1 28  1  0
  5 29  1  0
  5 30  1  0
  6 31  1  0
  6 32  1  0
  7 33  1  0
  7 34  1  0
  9 35  1  0
  9 36  1  0
 10 37  1  1
 11 38  1  0
 11 39  1  0
 12 40  1  1
 13 41  1  0
 13 42  1  0
 15 43  1  0
 15 44  1  0
 15 45  1  0
 16 46  1  0
 16 47  1  0
 16 48  1  0
 18 49  1  0
 21 50  1  0
 22 51  1  0
 23 52  1  0
 24 53  1  0
 25 54  1  0
M  CHG  1  18   1
M  END
>  <UniqueID>  (2) 
2

>  <SMILES>  (2) 
Cn1c(SCCCN2C[C@H]3C[C@@H](C2)C3(C)C)n[nH+]c1-c1ccccc1

>  <Energy>  (2) 
189.36152546965283

>  <Genealogy>  (2) 
Cn1c(SCCCN2CC3CC(C2)C3(C)C)n[nH+]c1-c1ccccc1 (protonated)
Cn1c(SCCCN2C[C@H]3C[C@@H](C2)C3(C)C)n[nH+]c1-c1ccccc1 (chirality)
Cn1c(SCCCN2C[C@H]3C[C@@H](C2)C3(C)C)n[nH+]c1-c1ccccc1 (3D coordinates assigned)
Cn1c(SCCCN2C[C@H]3C[C@@H](C2)C3(C)C)n[nH+]c1-c1ccccc1 (nonaromatic ring conformer: 189.36152546965283 kcal/mol)

>  <smiles>  (2) 
Cn1c(SCCCN2CC3CC(C2)C3(C)C)nnc1-c1ccccc1

>  <score_type>  (2) 
oracle

>  <origin>  (2) 
adg

>  <m_score__min__energy>  (2) 
-7.6399999999999997

>  <m_primary>  (2) 
energy

$$$$
2:0
     RDKit          3D

 56 58  0  0  0  0  0  0  0  0999 V2000
   60.3510   33.7940   49.9470 C   0  0  0  0  0  0  0  0  0  0  0  0
   61.7540   34.2310   49.5290 C   0  0  0  0  0  0  0  0  0  0  0  0
   62.7160   33.1080   49.5590 N   0  0  0  0  0  0  0  0  0  0  0  0
   63.2610   32.9280   50.9160 C   0  0  0  0  0  0  0  0  0  0  0  0
   63.7880   33.1750   48.5340 C   0  0  0  0  0  0  0  0  0  0  0  0
   63.3420   32.7660   47.1150 C   0  0  0  0  0  0  0  0  0  0  0  0
   62.7090   31.3720   47.1210 C   0  0  0  0  0  0  0  0  0  0  0  0
   61.3440   31.4380   47.6390 N   0  0  0  0  0  0  0  0  0  0  0  0
   60.2160   31.3990   46.7480 C   0  0  0  0  0  0  0  0  0  0  0  0
   59.6240   30.1720   46.4200 C   0  0  0  0  0  0  0  0  0  0  0  0
   58.5620   30.1290   45.4960 C   0  0  0  0  0  0  0  0  0  0  0  0
   58.1200   31.2840   44.8770 N   0  0  0  0  0  0  0  0  0  0  0  0
   57.1590   31.1950   43.7500 C   0  0  0  0  0  0  0  0  0  0  0  0
   57.7640   31.7540   42.4630 C   0  0  0  0  0  0  0  0  0  0  0  0
   58.6010   32.5160   45.2930 C   0  0  0  0  0  0  0  0  0  0  0  0
   58.0450   33.7400   44.8310 C   0  0  0  0  0  0  0  0  0  0  0  0
   58.5690   34.9690   45.2290 C   0  0  0  0  0  0  0  0  0  0  0  0
   59.6470   35.0210   46.1020 C   0  0  0  0  0  0  0  0  0  0  0  0
   60.1960   33.8440   46.6020 C   0  0  0  0  0  0  0  0  0  0  0  0
   59.6770   32.5860   46.2230 C   0  0  0  0  0  0  0  0  0  0  0  0
   57.9050   28.7650   45.3080 C   0  0  0  0  0  0  0  0  0  0  0  0
   58.9670   27.6780   45.0760 C   0  0  0  0  0  0  0  0  0  0  0  0
   60.1600   27.7500   46.0590 C   0  0  0  0  0  0  0  0  0  0  0  0
   60.0370   28.8770   47.0930 C   0  0  0  0  0  0  0  0  0  0  0  0
   60.2852   33.7735   51.0448 H   0  0  0  0  0  0  0  0  0  0  0  0
   59.6117   34.5044   49.5486 H   0  0  0  0  0  0  0  0  0  0  0  0
   60.1459   32.7894   49.5486 H   0  0  0  0  0  0  0  0  0  0  0  0
   61.7105   34.6342   48.5065 H   0  0  0  0  0  0  0  0  0  0  0  0
   62.0993   34.9933   50.2429 H   0  0  0  0  0  0  0  0  0  0  0  0
   62.4896   33.1828   51.6577 H   0  0  0  0  0  0  0  0  0  0  0  0
   63.5685   31.8806   51.0517 H   0  0  0  0  0  0  0  0  0  0  0  0
   64.1318   33.5863   51.0517 H   0  0  0  0  0  0  0  0  0  0  0  0
   64.1598   34.2094   48.4926 H   0  0  0  0  0  0  0  0  0  0  0  0
   64.5594   32.4530   48.8400 H   0  0  0  0  0  0  0  0  0  0  0  0
   62.6052   33.4943   46.7453 H   0  0  0  0  0  0  0  0  0  0  0  0
   64.2261   32.7474   46.4608 H   0  0  0  0  0  0  0  0  0  0  0  0
   62.6890   30.9779   46.0942 H   0  0  0  0  0  0  0  0  0  0  0  0
   63.3055   30.7105   47.7664 H   0  0  0  0  0  0  0  0  0  0  0  0
   61.2030   31.7940   48.6110 H   0  0  0  0  0  0  0  0  0  0  0  0
   56.8889   30.1406   43.5911 H   0  0  0  0  0  0  0  0  0  0  0  0
   56.2687   31.7893   44.0034 H   0  0  0  0  0  0  0  0  0  0  0  0
   58.5507   32.4809   42.7132 H   0  0  0  0  0  0  0  0  0  0  0  0
   58.1979   30.9321   41.8746 H   0  0  0  0  0  0  0  0  0  0  0  0
   56.9789   32.2514   41.8746 H   0  0  0  0  0  0  0  0  0  0  0  0
   57.1845   33.7169   44.1461 H   0  0  0  0  0  0  0  0  0  0  0  0
   58.1262   35.9017   44.8496 H   0  0  0  0  0  0  0  0  0  0  0  0
   60.0676   35.9931   46.3988 H   0  0  0  0  0  0  0  0  0  0  0  0
   61.0442   33.8939   47.3007 H   0  0  0  0  0  0  0  0  0  0  0  0
   57.3246   28.5165   46.2088 H   0  0  0  0  0  0  0  0  0  0  0  0
   57.2452   28.8083   44.4289 H   0  0  0  0  0  0  0  0  0  0  0  0
   58.4863   26.6946   45.1855 H   0  0  0  0  0  0  0  0  0  0  0  0
   59.3737   27.8379   44.0666 H   0  0  0  0  0  0  0  0  0  0  0  0
   60.2270   26.7919   46.5952 H   0  0  0  0  0  0  0  0  0  0  0  0
   61.0590   27.9583   45.4604 H   0  0  0  0  0  0  0  0  0  0  0  0
   59.2799   28.6005   47.8416 H   0  0  0  0  0  0  0  0  0  0  0  0
   61.0135   29.0234   47.5778 H   0  0  0  0  0  0  0  0  0  0  0  0
  1  2  1  0
  2  3  1  0
  3  4  1  0
  3  5  1  0
  5  6  1  0
  6  7  1  0
  7  8  1  0
  8  9  1  0
  9 10  2  0
 10 11  1  0
 11 12  2  0
 12 13  1  0
 13 14  1  0
 12 15  1  0
 15 16  2  0
 16 17  1  0
 17 18  2  0
 18 19  1  0
 19 20  2  0
 11 21  1  0
 21 22  1  0
 22 23  1  0
 23 24  1  0
 20  9  1  0
 24 10  1  0
 20 15  1  0
  1 25  1  0
  1 26  1  0
  1 27  1  0
  2 28  1  0
  2 29  1  0
  4 30  1  0
  4 31  1  0
  4 32  1  0
  5 33  1  0
  5 34  1  0
  6 35  1  0
  6 36  1  0
  7 37  1  0
  7 38  1  0
  8 39  1  0
 13 40  1  0
 13 41  1  0
 14 42  1  0
 14 43  1  0
 14 44  1  0
 16 45  1  0
 17 46  1  0
 18 47  1  0
 19 48  1  0
 21 49  1  0
 21 50  1  0
 22 51  1  0
 22 52  1  0
 23 53  1  0
 23 54  1  0
 24 55  1  0
 24 56  1  0
M  CHG  1  12   1
M  END
>  <UniqueID>  (3) 
3

>  <SMILES>  (3) 
CCN(C)CCCNc1c2c([n+](CC)c3ccccc13)CCCC2

>  <Energy>  (3) 
79.23568833322011

>  <Genealogy>  (3) 
CCN(C)CCCNc1c2c([n+](CC)c3ccccc13)CCCC2 (3D coordinates assigned)
CCN(C)CCCNc1c2c([n+](CC)c3ccccc13)CCCC2 (nonaromatic ring conformer: 79.23568833322011 kcal/mol)

>  <smiles>  (3) 
CCN(C)CCCNc1c2c([n+](CC)c3ccccc13)CCCC2

>  <score_type>  (3) 
oracle

>  <origin>  (3) 
adg

>  <m_score__min__energy>  (3) 
-5.9900000000000002

>  <m_primary>  (3) 
energy

$$$$
3:0
     RDKit          3D

 83 83  0  0  0  0  0  0  0  0999 V2000
   52.8530   30.4920   50.8590 C   0  0  0  0  0  0  0  0  0  0  0  0
   53.5580   30.2190   52.1890 C   0  0  0  0  0  0  0  0  0  0  0  0
   54.5190   29.1130   52.0600 N   0  0  0  0  0  0  0  0  0  0  0  0
   55.3260   28.9870   53.2830 C   0  0  0  0  0  0  0  0  0  0  0  0
   56.7380   29.5650   53.0900 C   0  0  0  0  0  0  0  0  0  0  0  0
   57.0530   29.7110   51.7150 O   0  0  0  0  0  0  0  0  0  0  0  0
   58.3400   30.2730   51.5380 C   0  0  0  0  0  0  0  0  0  0  0  0
   58.3480   31.1940   50.3980 C   0  0  0  0  0  0  0  0  0  0  0  0
   58.3300   31.9580   49.4660 C   0  0  0  0  0  0  0  0  0  0  0  0
   58.3440   32.8800   48.3280 C   0  0  0  0  0  0  0  0  0  0  0  0
   59.6820   32.8710   47.7040 N   0  0  0  0  0  0  0  0  0  0  0  0
   60.2680   34.2210   47.6150 C   0  0  0  0  0  0  0  0  0  0  0  0
   59.7410   32.1270   46.4240 C   0  0  0  0  0  0  0  0  0  0  0  0
   58.5690   31.1470   46.1760 C   0  0  0  0  0  0  0  0  0  0  0  0
   57.4290   31.7890   45.6380 O   0  0  0  0  0  0  0  0  0  0  0  0
   57.7430   32.5450   44.4800 C   0  0  0  0  0  0  0  0  0  0  0  0
   58.1060   31.6120   43.3180 C   0  0  0  0  0  0  0  0  0  0  0  0
   56.9050   31.2270   42.4340 C   0  0  0  0  0  0  0  0  0  0  0  0
   56.3360   29.8210   42.6890 C   0  0  0  0  0  0  0  0  0  0  0  0
   56.4910   29.4250   44.0950 N   0  0  0  0  0  0  0  0  0  0  0  0
   57.6410   28.5290   44.2490 C   0  0  0  0  0  0  0  0  0  0  0  0
   57.7820   28.0660   45.7040 C   0  0  0  0  0  0  0  0  0  0  0  0
   57.2680   26.6530   45.9080 C   0  0  0  0  0  0  0  0  0  0  0  0
   55.8780   26.4860   45.9870 C   0  0  0  0  0  0  0  0  0  0  0  0
   55.3300   25.2520   46.1020 N   0  0  0  0  0  0  0  0  0  0  0  0
   56.0840   24.1270   46.1430 C   0  0  0  0  0  0  0  0  0  0  0  0
   55.3940   22.8000   46.2450 C   0  0  0  0  0  0  0  0  0  0  0  0
   57.4840   24.2250   46.0550 C   0  0  0  0  0  0  0  0  0  0  0  0
   58.2680   23.0660   46.0430 O   0  0  0  0  0  0  0  0  0  0  0  0
   58.8330   22.5600   44.8400 C   0  0  0  0  0  0  0  0  0  0  0  0
   57.7530   21.8750   44.0180 C   0  0  0  0  0  0  0  0  0  0  0  0
   58.0970   25.4970   45.9930 C   0  0  0  0  0  0  0  0  0  0  0  0
   59.6150   25.5680   46.0660 C   0  0  0  0  0  0  0  0  0  0  0  0
   60.0750   26.4440   47.2290 C   0  0  0  0  0  0  0  0  0  0  0  0
   51.8433   30.8830   51.0527 H   0  0  0  0  0  0  0  0  0  0  0  0
   53.4287   31.2322   50.2840 H   0  0  0  0  0  0  0  0  0  0  0  0
   52.7801   29.5571   50.2840 H   0  0  0  0  0  0  0  0  0  0  0  0
   54.0941   31.1262   52.5046 H   0  0  0  0  0  0  0  0  0  0  0  0
   52.8004   29.9391   52.9358 H   0  0  0  0  0  0  0  0  0  0  0  0
   53.9950   28.2200   51.8990 H   0  0  0  0  0  0  0  0  0  0  0  0
   55.1470   29.2970   51.2400 H   0  0  0  0  0  0  0  0  0  0  0  0
   54.8260   29.5302   54.0984 H   0  0  0  0  0  0  0  0  0  0  0  0
   55.4212   27.9181   53.5244 H   0  0  0  0  0  0  0  0  0  0  0  0
   56.7911   30.5504   53.5761 H   0  0  0  0  0  0  0  0  0  0  0  0
   57.4617   28.8691   53.5393 H   0  0  0  0  0  0  0  0  0  0  0  0
   58.6232   30.8219   52.4482 H   0  0  0  0  0  0  0  0  0  0  0  0
   59.0576   29.4622   51.3441 H   0  0  0  0  0  0  0  0  0  0  0  0
   57.5929   32.5626   47.5897 H   0  0  0  0  0  0  0  0  0  0  0  0
   58.1087   33.8964   48.6766 H   0  0  0  0  0  0  0  0  0  0  0  0
   60.4387   34.6142   48.6281 H   0  0  0  0  0  0  0  0  0  0  0  0
   61.2251   34.1704   47.0753 H   0  0  0  0  0  0  0  0  0  0  0  0
   59.5774   34.8856   47.0753 H   0  0  0  0  0  0  0  0  0  0  0  0
   59.7503   32.8605   45.6043 H   0  0  0  0  0  0  0  0  0  0  0  0
   60.6500   31.5094   46.4719 H   0  0  0  0  0  0  0  0  0  0  0  0
   58.9018   30.3706   45.4714 H   0  0  0  0  0  0  0  0  0  0  0  0
   58.2825   30.7169   47.1471 H   0  0  0  0  0  0  0  0  0  0  0  0
   56.8722   33.1548   44.1975 H   0  0  0  0  0  0  0  0  0  0  0  0
   58.6028   33.1951   44.6992 H   0  0  0  0  0  0  0  0  0  0  0  0
   58.8532   32.1167   42.6879 H   0  0  0  0  0  0  0  0  0  0  0  0
   58.4900   30.6814   43.7612 H   0  0  0  0  0  0  0  0  0  0  0  0
   56.1021   31.9577   42.6116 H   0  0  0  0  0  0  0  0  0  0  0  0
   57.2731   31.2269   41.3974 H   0  0  0  0  0  0  0  0  0  0  0  0
   55.2665   29.8161   42.4320 H   0  0  0  0  0  0  0  0  0  0  0  0
   56.8916   29.1052   42.0653 H   0  0  0  0  0  0  0  0  0  0  0  0
   56.7100   30.2880   44.6450 H   0  0  0  0  0  0  0  0  0  0  0  0
   57.5016   27.6496   43.6030 H   0  0  0  0  0  0  0  0  0  0  0  0
   58.5526   29.0744   43.9635 H   0  0  0  0  0  0  0  0  0  0  0  0
   58.8449   28.1004   45.9853 H   0  0  0  0  0  0  0  0  0  0  0  0
   57.1797   28.7386   46.3324 H   0  0  0  0  0  0  0  0  0  0  0  0
   55.2231   27.3692   45.9552 H   0  0  0  0  0  0  0  0  0  0  0  0
   55.2578   22.5380   47.3046 H   0  0  0  0  0  0  0  0  0  0  0  0
   54.4121   22.8585   45.7526 H   0  0  0  0  0  0  0  0  0  0  0  0
   56.0058   22.0298   45.7526 H   0  0  0  0  0  0  0  0  0  0  0  0
   59.2632   23.3899   44.2602 H   0  0  0  0  0  0  0  0  0  0  0  0
   59.6221   21.8336   45.0843 H   0  0  0  0  0  0  0  0  0  0  0  0
   57.0190   21.4095   44.6922 H   0  0  0  0  0  0  0  0  0  0  0  0
   57.2482   22.6184   43.3835 H   0  0  0  0  0  0  0  0  0  0  0  0
   58.2103   21.1015   43.3835 H   0  0  0  0  0  0  0  0  0  0  0  0
   60.0149   24.5524   46.2026 H   0  0  0  0  0  0  0  0  0  0  0  0
   59.9869   26.0106   45.1302 H   0  0  0  0  0  0  0  0  0  0  0  0
   59.8182   25.9550   48.1803 H   0  0  0  0  0  0  0  0  0  0  0  0
   61.1643   26.5865   47.1723 H   0  0  0  0  0  0  0  0  0  0  0  0
   59.5739   27.4216   47.1723 H   0  0  0  0  0  0  0  0  0  0  0  0
  1  2  1  0
  2  3  1  0
  3  4  1  0
  4  5  1  0
  5  6  1  0
  6  7  1  0
  7  8  1  0
  8  9  3  0
  9 10  1  0
 10 11  1  0
 11 12  1  0
 11 13  1  0
 13 14  1  0
 14 15  1  0
 15 16  1  0
 16 17  1  0
 17 18  1  0
 18 19  1  0
 19 20  1  0
 20 21  1  0
 21 22  1  0
 22 23  1  0
 23 24  2  0
 24 25  1  0
 25 26  2  0
 26 27  1  0
 26 28  1  0
 28 29  1  0
 29 30  1  0
 30 31  1  0
 28 32  2  0
 32 33  1  0
 33 34  1  0
 32 23  1  0
  1 35  1  0
  1 36  1  0
  1 37  1  0
  2 38  1  0
  2 39  1  0
  3 40  1  0
  3 41  1  0
  4 42  1  0
  4 43  1  0
  5 44  1  0
  5 45  1  0
  7 46  1  0
  7 47  1  0
 10 48  1  0
 10 49  1  0
 12 50  1  0
 12 51  1  0
 12 52  1  0
 13 53  1  0
 13 54  1  0
 14 55  1  0
 14 56  1  0
 16 57  1  0
 16 58  1  0
 17 59  1  0
 17 60  1  0
 18 61  1  0
 18 62  1  0
 19 63  1  0
 19 64  1  0
 20 65  1  0
 21 66  1  0
 21 67  1  0
 22 68  1  0
 22 69  1  0
 24 70  1  0
 27 71  1  0
 27 72  1  0
 27 73  1  0
 30 74  1  0
 30 75  1  0
 31 76  1  0
 31 77  1  0
 31 78  1  0
 33 79  1  0
 33 80  1  0
 34 81  1  0
 34 82  1  0
 34 83  1  0
M  CHG  1   3   1
M  END
>  <UniqueID>  (4) 
4

>  <SMILES>  (4) 
CC[NH2+]CCOCC#CCN(C)CCOCCCCNCCc1cnc(C)c(OCC)c1CC

>  <Energy>  (4) 
75.72232059392933

>  <Genealogy>  (4) 
CC[NH2+]CCOCC#CCN(C)CCOCCCCNCCc1cnc(C)c(OCC)c1CC (protonated)
CC[NH2+]CCOCC#CCN(C)CCOCCCCNCCc1cnc(C)c(OCC)c1CC (3D coordinates assigned)
CC[NH2+]CCOCC#CCN(C)CCOCCCCNCCc1cnc(C)c(OCC)c1CC (optimized conformer: 75.72232059392933 kcal/mol)

>  <smiles>  (4) 
CCNCCOCC#CCN(C)CCOCCCCNCCc1cnc(C)c(OCC)c1CC

>  <score_type>  (4) 
oracle

>  <origin>  (4) 
adg

>  <m_score__min__energy>  (4) 
-5.0700000000000003

>  <m_primary>  (4) 
energy

$$$$
4:0
     RDKit          3D

 49 52  0  0  0  0  0  0  0  0999 V2000
   57.2600   23.0530   43.8380 C   0  0  0  0  0  0  0  0  0  0  0  0
   57.9640   23.0720   45.1910 C   0  0  0  0  0  0  0  0  0  0  0  0
   58.9320   24.1670   45.2560 N   0  0  0  0  0  0  0  0  0  0  0  0
   58.5910   25.5660   45.3360 C   0  0  0  0  0  0  0  0  0  0  0  0
   58.1360   26.2210   44.1840 C   0  0  0  0  0  0  0  0  0  0  0  0
   57.8040   27.5750   44.2220 C   0  0  0  0  0  0  0  0  0  0  0  0
   57.9340   28.3130   45.4090 C   0  0  0  0  0  0  0  0  0  0  0  0
   58.3700   27.6620   46.5750 C   0  0  0  0  0  0  0  0  0  0  0  0
   58.7130   26.2990   46.5300 C   0  0  0  0  0  0  0  0  0  0  0  0
   58.5310   28.4340   47.8490 C   0  0  0  0  0  0  0  0  0  0  0  0
   59.6910   29.4120   47.6970 C   0  0  0  0  0  0  0  0  0  0  0  0
   59.3260   30.7130   47.0080 C   0  0  0  0  0  0  0  0  0  0  0  0
   60.0620   31.8480   47.4060 C   0  0  0  0  0  0  0  0  0  0  0  0
   59.8260   33.1100   46.8470 C   0  0  0  0  0  0  0  0  0  0  0  0
   60.5630   34.2640   47.3050 N   0  0  0  0  0  0  0  0  0  0  0  0
   61.8300   33.8470   47.8560 C   0  0  0  0  0  0  0  0  0  0  0  0
   62.8880   33.4870   46.9990 C   0  0  0  0  0  0  0  0  0  0  0  0
   64.1280   33.1120   47.5230 C   0  0  0  0  0  0  0  0  0  0  0  0
   64.3270   33.0930   48.9050 C   0  0  0  0  0  0  0  0  0  0  0  0
   65.5310   32.7300   49.4120 F   0  0  0  0  0  0  0  0  0  0  0  0
   63.2870   33.4530   49.7670 C   0  0  0  0  0  0  0  0  0  0  0  0
   62.0430   33.8310   49.2490 C   0  0  0  0  0  0  0  0  0  0  0  0
   61.0490   34.1760   50.1060 F   0  0  0  0  0  0  0  0  0  0  0  0
   58.8370   33.2450   45.8700 C   0  0  0  0  0  0  0  0  0  0  0  0
   58.1150   32.1350   45.4400 C   0  0  0  0  0  0  0  0  0  0  0  0
   58.3430   30.8510   45.9780 C   0  0  0  0  0  0  0  0  0  0  0  0
   57.5200   29.7320   45.4160 C   0  0  0  0  0  0  0  0  0  0  0  0
   56.4260   30.0130   44.8530 O   0  0  0  0  0  0  0  0  0  0  0  0
   56.1712   23.0236   43.9916 H   0  0  0  0  0  0  0  0  0  0  0  0
   57.5263   23.9587   43.2733 H   0  0  0  0  0  0  0  0  0  0  0  0
   57.5748   22.1630   43.2733 H   0  0  0  0  0  0  0  0  0  0  0  0
   57.2151   23.2047   45.9857 H   0  0  0  0  0  0  0  0  0  0  0  0
   58.4983   22.1198   45.3246 H   0  0  0  0  0  0  0  0  0  0  0  0
   59.9450   23.9030   45.2520 H   0  0  0  0  0  0  0  0  0  0  0  0
   58.0398   25.6624   43.2413 H   0  0  0  0  0  0  0  0  0  0  0  0
   57.4360   28.0703   43.3114 H   0  0  0  0  0  0  0  0  0  0  0  0
   59.0809   25.8005   47.4389 H   0  0  0  0  0  0  0  0  0  0  0  0
   57.6061   28.9900   48.0621 H   0  0  0  0  0  0  0  0  0  0  0  0
   58.7367   27.7413   48.6784 H   0  0  0  0  0  0  0  0  0  0  0  0
   60.0747   29.6496   48.7002 H   0  0  0  0  0  0  0  0  0  0  0  0
   60.4380   28.9171   47.0590 H   0  0  0  0  0  0  0  0  0  0  0  0
   60.8411   31.7393   48.1749 H   0  0  0  0  0  0  0  0  0  0  0  0
   60.0100   34.7760   48.0320 H   0  0  0  0  0  0  0  0  0  0  0  0
   60.7090   34.9360   46.5170 H   0  0  0  0  0  0  0  0  0  0  0  0
   62.7372   33.5011   45.9095 H   0  0  0  0  0  0  0  0  0  0  0  0
   64.9483   32.8314   46.8460 H   0  0  0  0  0  0  0  0  0  0  0  0
   63.4468   33.4391   50.8552 H   0  0  0  0  0  0  0  0  0  0  0  0
   58.6273   34.2345   45.4376 H   0  0  0  0  0  0  0  0  0  0  0  0
   57.3481   32.2623   44.6618 H   0  0  0  0  0  0  0  0  0  0  0  0
  1  2  1  0
  2  3  1  0
  3  4  1  0
  4  5  2  0
  5  6  1  0
  6  7  2  0
  7  8  1  0
  8  9  2  0
  8 10  1  0
 10 11  1  0
 11 12  1  0
 12 13  2  0
 13 14  1  0
 14 15  1  0
 15 16  1  0
 16 17  2  0
 17 18  1  0
 18 19  2  0
 19 20  1  0
 19 21  1  0
 21 22  2  0
 22 23  1  0
 14 24  2  0
 24 25  1  0
 25 26  2  0
 26 27  1  0
 27 28  2  0
  9  4  1  0
 26 12  1  0
 27  7  1  0
 22 16  1  0
  1 29  1  0
  1 30  1  0
  1 31  1  0
  2 32  1  0
  2 33  1  0
  3 34  1  0
  5 35  1  0
  6 36  1  0
  9 37  1  0
 10 38  1  0
 10 39  1  0
 11 40  1  0
 11 41  1  0
 13 42  1  0
 15 43  1  0
 15 44  1  0
 17 45  1  0
 18 46  1  0
 21 47  1  0
 24 48  1  0
 25 49  1  0
M  CHG  1  15   1
M  END
>  <UniqueID>  (5) 
5

>  <SMILES>  (5) 
CCNc1ccc2c(c1)CCc1cc([NH2+]c3ccc(F)cc3F)ccc1C2=O

>  <Energy>  (5) 
69.07834580273068

>  <Genealogy>  (5) 
CCNc1ccc2c(c1)CCc1cc([NH2+]c3ccc(F)cc3F)ccc1C2=O (protonated)
CCNc1ccc2c(c1)CCc1cc([NH2+]c3ccc(F)cc3F)ccc1C2=O (3D coordinates assigned)
CCNc1ccc2c(c1)CCc1cc([NH2+]c3ccc(F)cc3F)ccc1C2=O (nonaromatic ring conformer: 69.07834580273068 kcal/mol)

>  <smiles>  (5) 
CCNc1ccc2c(c1)CCc1cc(Nc3ccc(F)cc3F)ccc1C2=O

>  <score_type>  (5) 
oracle

>  <origin>  (5) 
adg

>  <m_score__min__energy>  (5) 
-5.3399999999999999

>  <m_primary>  (5) 
energy

$$$$
5:0
     RDKit          3D

 68 70  0  0  0  0  0  0  0  0999 V2000
   56.6860   21.9090   42.7760 C   0  0  0  0  0  0  0  0  0  0  0  0
   57.8660   21.8110   43.7440 C   0  0  0  0  0  0  0  0  0  0  0  0
   57.6560   20.7240   44.7040 N   0  0  0  0  0  0  0  0  0  0  0  0
   56.6380   21.1010   45.7010 C   0  0  0  0  0  0  0  0  0  0  0  0
   56.7880   22.5810   46.0850 C   0  0  0  0  0  0  0  0  0  0  0  0
   55.5100   23.3940   45.8620 C   0  0  0  0  0  0  0  0  0  0  0  0
   55.6320   24.6940   46.4180 O   0  0  0  0  0  0  0  0  0  0  0  0
   56.8190   24.8590   47.1720 C   0  0  0  0  0  0  0  0  0  0  0  0
   57.3910   26.2650   46.9790 C   0  0  0  0  0  0  0  0  0  0  0  0
   58.1780   26.2960   45.8050 O   0  0  0  0  0  0  0  0  0  0  0  0
   57.7000   27.2760   44.9000 C   0  0  0  0  0  0  0  0  0  0  0  0
   58.3950   28.6280   45.1010 C   0  0  0  0  0  0  0  0  0  0  0  0
   57.7010   29.4740   46.0740 N   0  0  0  0  0  0  0  0  0  0  0  0
   58.4320   30.5010   46.7670 C   0  0  0  0  0  0  0  0  0  0  0  0
   59.3110   30.1380   47.8050 C   0  0  0  0  0  0  0  0  0  0  0  0
   59.5360   28.7790   48.1280 C   0  0  0  0  0  0  0  0  0  0  0  0
   60.4440   28.4230   49.1170 C   0  0  0  0  0  0  0  0  0  0  0  0
   61.1490   29.4050   49.8020 C   0  0  0  0  0  0  0  0  0  0  0  0
   60.9260   30.7500   49.5270 C   0  0  0  0  0  0  0  0  0  0  0  0
   59.9910   31.1480   48.5340 C   0  0  0  0  0  0  0  0  0  0  0  0
   59.7330   32.4780   48.2730 N   0  0  0  0  0  0  0  0  0  0  0  0
   60.1670   33.5190   49.2380 C   0  0  0  0  0  0  0  0  0  0  0  0
   59.0350   32.8380   47.1350 C   0  0  0  0  0  0  0  0  0  0  0  0
   59.0320   34.1740   46.6740 C   0  0  0  0  0  0  0  0  0  0  0  0
   58.2770   34.5580   45.5790 C   0  0  0  0  0  0  0  0  0  0  0  0
   57.5270   33.6250   44.8860 C   0  0  0  0  0  0  0  0  0  0  0  0
   57.5440   32.2710   45.2600 C   0  0  0  0  0  0  0  0  0  0  0  0
   56.8210   31.3190   44.5240 O   0  0  0  0  0  0  0  0  0  0  0  0
   57.0270   30.9630   43.1490 C   0  0  0  0  0  0  0  0  0  0  0  0
   56.2750   29.6790   42.7970 C   0  0  0  0  0  0  0  0  0  0  0  0
   58.3170   31.8650   46.3880 C   0  0  0  0  0  0  0  0  0  0  0  0
   55.7489   21.9868   43.3469 H   0  0  0  0  0  0  0  0  0  0  0  0
   56.8045   22.8004   42.1425 H   0  0  0  0  0  0  0  0  0  0  0  0
   56.6558   21.0103   42.1425 H   0  0  0  0  0  0  0  0  0  0  0  0
   58.7864   21.6170   43.1737 H   0  0  0  0  0  0  0  0  0  0  0  0
   57.9527   22.7591   44.2949 H   0  0  0  0  0  0  0  0  0  0  0  0
   57.3320   19.8680   44.1940 H   0  0  0  0  0  0  0  0  0  0  0  0
   58.5610   20.5230   45.1940 H   0  0  0  0  0  0  0  0  0  0  0  0
   55.6365   20.9361   45.2768 H   0  0  0  0  0  0  0  0  0  0  0  0
   56.7733   20.4830   46.6009 H   0  0  0  0  0  0  0  0  0  0  0  0
   57.0589   22.6404   47.1495 H   0  0  0  0  0  0  0  0  0  0  0  0
   57.5659   23.0100   45.4363 H   0  0  0  0  0  0  0  0  0  0  0  0
   55.3225   23.4808   44.7816 H   0  0  0  0  0  0  0  0  0  0  0  0
   54.6746   22.8775   46.3572 H   0  0  0  0  0  0  0  0  0  0  0  0
   56.5945   24.7036   48.2376 H   0  0  0  0  0  0  0  0  0  0  0  0
   57.5619   24.1245   46.8275 H   0  0  0  0  0  0  0  0  0  0  0  0
   56.5663   26.9870   46.8868 H   0  0  0  0  0  0  0  0  0  0  0  0
   58.0145   26.5296   47.8457 H   0  0  0  0  0  0  0  0  0  0  0  0
   57.8845   26.9307   43.8720 H   0  0  0  0  0  0  0  0  0  0  0  0
   56.6246   27.4149   45.0849 H   0  0  0  0  0  0  0  0  0  0  0  0
   59.4203   28.4486   45.4569 H   0  0  0  0  0  0  0  0  0  0  0  0
   58.3895   29.1544   44.1352 H   0  0  0  0  0  0  0  0  0  0  0  0
   56.6830   29.6600   45.9090 H   0  0  0  0  0  0  0  0  0  0  0  0
   58.9848   27.9943   47.5890 H   0  0  0  0  0  0  0  0  0  0  0  0
   60.6052   27.3620   49.3583 H   0  0  0  0  0  0  0  0  0  0  0  0
   61.8869   29.1173   50.5653 H   0  0  0  0  0  0  0  0  0  0  0  0
   61.4817   31.5169   50.0865 H   0  0  0  0  0  0  0  0  0  0  0  0
   60.0148   33.1538   50.2644 H   0  0  0  0  0  0  0  0  0  0  0  0
   61.2329   33.7417   49.0824 H   0  0  0  0  0  0  0  0  0  0  0  0
   59.5749   34.4329   49.0824 H   0  0  0  0  0  0  0  0  0  0  0  0
   59.6428   34.9249   47.1965 H   0  0  0  0  0  0  0  0  0  0  0  0
   58.2735   35.6103   45.2585 H   0  0  0  0  0  0  0  0  0  0  0  0
   56.9109   33.9465   44.0333 H   0  0  0  0  0  0  0  0  0  0  0  0
   56.6642   31.7797   42.5077 H   0  0  0  0  0  0  0  0  0  0  0  0
   58.1021   30.7950   42.9877 H   0  0  0  0  0  0  0  0  0  0  0  0
   55.9740   29.1651   43.7218 H   0  0  0  0  0  0  0  0  0  0  0  0
   55.3800   29.9280   42.2080 H   0  0  0  0  0  0  0  0  0  0  0  0
   56.9300   29.0202   42.2080 H   0  0  0  0  0  0  0  0  0  0  0  0
  1  2  1  0
  2  3  1  0
  3  4  1  0
  4  5  1  0
  5  6  1  0
  6  7  1  0
  7  8  1  0
  8  9  1  0
  9 10  1  0
 10 11  1  0
 11 12  1  0
 12 13  1  0
 13 14  1  0
 14 15  2  0
 15 16  1  0
 16 17  2  0
 17 18  1  0
 18 19  2  0
 19 20  1  0
 20 21  2  0
 21 22  1  0
 21 23  1  0
 23 24  2  0
 24 25  1  0
 25 26  2  0
 26 27  1  0
 27 28  1  0
 28 29  1  0
 29 30  1  0
 27 31  2  0
 31 14  1  0
 20 15  1  0
 31 23  1  0
  1 32  1  0
  1 33  1  0
  1 34  1  0
  2 35  1  0
  2 36  1  0
  3 37  1  0
  3 38  1  0
  4 39  1  0
  4 40  1  0
  5 41  1  0
  5 42  1  0
  6 43  1  0
  6 44  1  0
  8 45  1  0
  8 46  1  0
  9 47  1  0
  9 48  1  0
 11 49  1  0
 11 50  1  0
 12 51  1  0
 12 52  1  0
 13 53  1  0
 16 54  1  0
 17 55  1  0
 18 56  1  0
 19 57  1  0
 22 58  1  0
 22 59  1  0
 22 60  1  0
 24 61  1  0
 25 62  1  0
 26 63  1  0
 29 64  1  0
 29 65  1  0
 30 66  1  0
 30 67  1  0
 30 68  1  0
M  CHG  2   3   1  21   1
M  END
>  <UniqueID>  (6) 
6

>  <SMILES>  (6) 
CC[NH2+]CCCOCCOCCNc1c2ccccc2[n+](C)c2cccc(OCC)c12

>  <Energy>  (6) 
95.41328771968254

>  <Genealogy>  (6) 
CC[NH2+]CCCOCCOCCNc1c2ccccc2[n+](C)c2cccc(OCC)c12 (protonated)
CC[NH2+]CCCOCCOCCNc1c2ccccc2[n+](C)c2cccc(OCC)c12 (3D coordinates assigned)
CC[NH2+]CCCOCCOCCNc1c2ccccc2[n+](C)c2cccc(OCC)c12 (optimized conformer: 95.41328771968254 kcal/mol)

>  <smiles>  (6) 
CCNCCCOCCOCCNc1c2ccccc2[n+](C)c2cccc(OCC)c12

>  <score_type>  (6) 
oracle

>  <origin>  (6) 
adg

>  <m_score__min__energy>  (6) 
-5.0499999999999998

>  <m_primary>  (6) 
energy

$$$$
6:0
     RDKit          3D

 20 21  0  0  0  0  0  0  0  0999 V2000
   54.8290   24.2420   46.3830 O   0  0  0  0  0  0  0  0  0  0  0  0
   54.7250   25.2270   45.6060 C   0  0  0  0  0  0  0  0  0  0  0  0
   55.1730   26.5300   45.9910 N   0  0  0  0  0  0  0  0  0  0  0  0
   56.5060   27.0510   45.8600 C   0  0  0  0  0  0  0  0  0  0  0  0
   57.6300   26.3270   46.3050 C   0  0  0  0  0  0  0  0  0  0  0  0
   58.9180   26.8480   46.1460 C   0  0  0  0  0  0  0  0  0  0  0  0
   59.1070   28.0880   45.5310 C   0  0  0  0  0  0  0  0  0  0  0  0
   58.0030   28.8100   45.0590 C   0  0  0  0  0  0  0  0  0  0  0  0
   58.1660   30.0490   44.4250 C   0  0  0  0  0  0  0  0  0  0  0  0
   57.0470   30.7440   43.9620 C   0  0  0  0  0  0  0  0  0  0  0  0
   55.7760   30.1960   44.1380 C   0  0  0  0  0  0  0  0  0  0  0  0
   55.6300   28.9940   44.7550 N   0  0  0  0  0  0  0  0  0  0  0  0
   56.6980   28.2880   45.2190 C   0  0  0  0  0  0  0  0  0  0  0  0
   54.2804   25.0828   44.6102 H   0  0  0  0  0  0  0  0  0  0  0  0
   57.4933   25.3448   46.7810 H   0  0  0  0  0  0  0  0  0  0  0  0
   59.7870   26.2784   46.5071 H   0  0  0  0  0  0  0  0  0  0  0  0
   60.1217   28.4972   45.4174 H   0  0  0  0  0  0  0  0  0  0  0  0
   59.1724   30.4728   44.2925 H   0  0  0  0  0  0  0  0  0  0  0  0
   57.1666   31.7165   43.4621 H   0  0  0  0  0  0  0  0  0  0  0  0
   54.8899   30.7383   43.7764 H   0  0  0  0  0  0  0  0  0  0  0  0
  1  2  2  0
  2  3  1  0
  3  4  1  0
  4  5  2  0
  5  6  1  0
  6  7  2  0
  7  8  1  0
  8  9  2  0
  9 10  1  0
 10 11  2  0
 11 12  1  0
 12 13  2  0
 13  4  1  0
 13  8  1  0
  2 14  1  0
  5 15  1  0
  6 16  1  0
  7 17  1  0
  9 18  1  0
 10 19  1  0
 11 20  1  0
M  CHG  1   3  -1
M  END
>  <UniqueID>  (7) 
7

>  <SMILES>  (7) 
O=C[N-]c1cccc2cccnc12

>  <Energy>  (7) 
27.940200704883168

>  <Genealogy>  (7) 
O=C[N-]c1cccc2cccnc12 (protonated)
O=C[N-]c1cccc2cccnc12 (3D coordinates assigned)
O=C[N-]c1cccc2cccnc12 (optimized conformer: 27.940200704883168 kcal/mol)

>  <smiles>  (7) 
O=CNc1cccc2cccnc12

>  <score_type>  (7) 
oracle

>  <origin>  (7) 
adg

>  <m_score__min__energy>  (7) 
-8.0500000000000007

>  <m_primary>  (7) 
energy

$$$$
7:0
     RDKit          3D

 26 27  0  0  0  0  0  0  0  0999 V2000
   64.5450   33.4180   50.3710 C   0  0  0  0  0  0  0  0  0  0  0  0
   63.7040   33.4290   49.1340 C   0  0  0  0  0  0  0  0  0  0  0  0
   62.3950   33.7860   49.2110 N   0  0  0  0  0  0  0  0  0  0  0  0
   61.6000   33.8200   48.1070 C   0  0  0  0  0  0  0  0  0  0  0  0
   60.1870   34.2370   48.2500 C   0  0  0  0  0  0  0  0  0  0  0  0
   59.7800   34.5980   49.3880 O   0  0  0  0  0  0  0  0  0  0  0  0
   59.2330   34.2390   47.1160 C   0  0  0  0  0  0  0  0  0  0  0  0
   58.0610   33.4660   47.1840 C   0  0  0  0  0  0  0  0  0  0  0  0
   57.1640   33.4450   46.1110 C   0  0  0  0  0  0  0  0  0  0  0  0
   57.4350   34.1830   44.9570 C   0  0  0  0  0  0  0  0  0  0  0  0
   58.6060   34.9400   44.8700 C   0  0  0  0  0  0  0  0  0  0  0  0
   59.5060   34.9650   45.9410 C   0  0  0  0  0  0  0  0  0  0  0  0
   62.1560   33.5120   46.8580 C   0  0  0  0  0  0  0  0  0  0  0  0
   63.5020   33.1540   46.7940 C   0  0  0  0  0  0  0  0  0  0  0  0
   64.2520   33.1170   47.9270 N   0  0  0  0  0  0  0  0  0  0  0  0
   63.8936   33.4265   51.2573 H   0  0  0  0  0  0  0  0  0  0  0  0
   65.1682   32.5116   50.3827 H   0  0  0  0  0  0  0  0  0  0  0  0
   65.1917   34.3078   50.3827 H   0  0  0  0  0  0  0  0  0  0  0  0
   57.8480   32.8741   48.0864 H   0  0  0  0  0  0  0  0  0  0  0  0
   56.2436   32.8462   46.1763 H   0  0  0  0  0  0  0  0  0  0  0  0
   56.7261   34.1683   44.1160 H   0  0  0  0  0  0  0  0  0  0  0  0
   58.8207   35.5170   43.9584 H   0  0  0  0  0  0  0  0  0  0  0  0
   60.4314   35.5548   45.8646 H   0  0  0  0  0  0  0  0  0  0  0  0
   61.5424   33.5519   45.9459 H   0  0  0  0  0  0  0  0  0  0  0  0
   63.9576   32.9011   45.8252 H   0  0  0  0  0  0  0  0  0  0  0  0
   65.2610   32.8530   47.8610 H   0  0  0  0  0  0  0  0  0  0  0  0
  1  2  1  0
  2  3  2  0
  3  4  1  0
  4  5  1  0
  5  6  2  0
  5  7  1  0
  7  8  2  0
  8  9  1  0
  9 10  2  0
 10 11  1  0
 11 12  2  0
  4 13  2  0
 13 14  1  0
 14 15  2  0
 15  2  1  0
 12  7  1  0
  1 16  1  0
  1 17  1  0
  1 18  1  0
  8 19  1  0
  9 20  1  0
 10 21  1  0
 11 22  1  0
 12 23  1  0
 13 24  1  0
 14 25  1  0
 15 26  1  0
M  CHG  1  15   1
M  END
>  <UniqueID>  (8) 
8

>  <SMILES>  (8) 
Cc1nc(C(=O)c2ccccc2)cc[nH+]1

>  <Energy>  (8) 
31.103789192228817

>  <Genealogy>  (8) 
Cc1nc(C(=O)c2ccccc2)cc[nH+]1 (protonated)
Cc1nc(C(=O)c2ccccc2)cc[nH+]1 (3D coordinates assigned)
Cc1nc(C(=O)c2ccccc2)cc[nH+]1 (optimized conformer: 31.103789192228817 kcal/mol)

>  <smiles>  (8) 
Cc1nccc(C(=O)c2ccccc2)n1

>  <score_type>  (8) 
oracle

>  <origin>  (8) 
adg

>  <m_score__min__energy>  (8) 
-5.1799999999999997

>  <m_primary>  (8) 
energy

$$$$
8:0
     RDKit          3D

 61 63  0  0  0  0  0  0  0  0999 V2000
   59.6350   33.6360   50.5330 C   0  0  0  0  0  0  0  0  0  0  0  0
   60.3690   34.2370   49.3370 C   0  0  0  0  0  0  0  0  0  0  0  0
   60.3860   33.3240   48.2360 O   0  0  0  0  0  0  0  0  0  0  0  0
   59.7290   33.4890   47.0020 C   0  0  0  0  0  0  0  0  0  0  0  0
   59.4550   34.7770   46.5050 C   0  0  0  0  0  0  0  0  0  0  0  0
   58.7410   34.9460   45.3290 C   0  0  0  0  0  0  0  0  0  0  0  0
   58.3100   33.8430   44.6050 C   0  0  0  0  0  0  0  0  0  0  0  0
   58.6140   32.5250   45.0230 C   0  0  0  0  0  0  0  0  0  0  0  0
   59.3190   32.3450   46.2510 C   0  0  0  0  0  0  0  0  0  0  0  0
   59.5620   31.0250   46.7030 C   0  0  0  0  0  0  0  0  0  0  0  0
   60.3910   30.7750   47.8490 N   0  0  0  0  0  0  0  0  0  0  0  0
   59.8970   29.9890   48.9810 C   0  0  0  0  0  0  0  0  0  0  0  0
   60.8810   30.0430   50.1510 C   0  0  0  0  0  0  0  0  0  0  0  0
   61.6220   31.3100   50.1370 N   0  0  0  0  0  0  0  0  0  0  0  0
   63.0600   31.0730   50.3100 C   0  0  0  0  0  0  0  0  0  0  0  0
   63.8590   32.0730   49.4670 C   0  0  0  0  0  0  0  0  0  0  0  0
   63.1030   32.4610   48.2520 N   0  0  0  0  0  0  0  0  0  0  0  0
   63.4130   31.5410   47.1380 C   0  0  0  0  0  0  0  0  0  0  0  0
   63.3910   33.8640   47.8740 C   0  0  0  0  0  0  0  0  0  0  0  0
   63.3780   34.0540   46.3560 C   0  0  0  0  0  0  0  0  0  0  0  0
   58.9710   29.9390   46.0310 C   0  0  0  0  0  0  0  0  0  0  0  0
   59.0710   28.6270   46.5430 C   0  0  0  0  0  0  0  0  0  0  0  0
   58.4610   27.5570   45.8930 C   0  0  0  0  0  0  0  0  0  0  0  0
   57.7320   27.7760   44.7310 C   0  0  0  0  0  0  0  0  0  0  0  0
   57.6290   29.0590   44.1990 C   0  0  0  0  0  0  0  0  0  0  0  0
   58.2720   30.1630   44.8190 C   0  0  0  0  0  0  0  0  0  0  0  0
   58.2260   31.4300   44.2720 N   0  0  0  0  0  0  0  0  0  0  0  0
   57.7760   31.6120   42.8730 C   0  0  0  0  0  0  0  0  0  0  0  0
   60.0874   34.0064   51.4648 H   0  0  0  0  0  0  0  0  0  0  0  0
   58.5754   33.9292   50.4980 H   0  0  0  0  0  0  0  0  0  0  0  0
   59.7134   32.5394   50.4980 H   0  0  0  0  0  0  0  0  0  0  0  0
   59.8594   35.1621   49.0297 H   0  0  0  0  0  0  0  0  0  0  0  0
   61.4069   34.4496   49.6328 H   0  0  0  0  0  0  0  0  0  0  0  0
   59.8116   35.6596   47.0562 H   0  0  0  0  0  0  0  0  0  0  0  0
   58.5147   35.9599   44.9675 H   0  0  0  0  0  0  0  0  0  0  0  0
   57.7208   33.9959   43.6887 H   0  0  0  0  0  0  0  0  0  0  0  0
   61.2770   31.3240   47.9620 H   0  0  0  0  0  0  0  0  0  0  0  0
   58.9277   30.3949   49.3061 H   0  0  0  0  0  0  0  0  0  0  0  0
   59.7864   28.9422   48.6616 H   0  0  0  0  0  0  0  0  0  0  0  0
   60.3252   29.9584   51.0965 H   0  0  0  0  0  0  0  0  0  0  0  0
   61.5943   29.2109   50.0567 H   0  0  0  0  0  0  0  0  0  0  0  0
   61.4740   31.7580   49.2030 H   0  0  0  0  0  0  0  0  0  0  0  0
   63.3249   31.1964   51.3705 H   0  0  0  0  0  0  0  0  0  0  0  0
   63.3003   30.0506   49.9830 H   0  0  0  0  0  0  0  0  0  0  0  0
   64.0604   32.9717   50.0685 H   0  0  0  0  0  0  0  0  0  0  0  0
   64.8024   31.5989   49.1584 H   0  0  0  0  0  0  0  0  0  0  0  0
   63.7396   30.5718   47.5429 H   0  0  0  0  0  0  0  0  0  0  0  0
   62.5140   31.3964   46.5209 H   0  0  0  0  0  0  0  0  0  0  0  0
   64.2162   31.9700   46.5209 H   0  0  0  0  0  0  0  0  0  0  0  0
   62.6281   34.5178   48.3218 H   0  0  0  0  0  0  0  0  0  0  0  0
   64.3950   34.1200   48.2435 H   0  0  0  0  0  0  0  0  0  0  0  0
   63.3046   35.1262   46.1213 H   0  0  0  0  0  0  0  0  0  0  0  0
   64.3061   33.6475   45.9276 H   0  0  0  0  0  0  0  0  0  0  0  0
   62.5140   33.5249   45.9276 H   0  0  0  0  0  0  0  0  0  0  0  0
   59.6385   28.4475   47.4680 H   0  0  0  0  0  0  0  0  0  0  0  0
   58.5564   26.5393   46.2994 H   0  0  0  0  0  0  0  0  0  0  0  0
   57.2343   26.9331   44.2292 H   0  0  0  0  0  0  0  0  0  0  0  0
   57.0401   29.2197   43.2839 H   0  0  0  0  0  0  0  0  0  0  0  0
   56.7563   32.0244   42.8666 H   0  0  0  0  0  0  0  0  0  0  0  0
   58.4555   32.3060   42.3566 H   0  0  0  0  0  0  0  0  0  0  0  0
   57.7820   30.6408   42.3566 H   0  0  0  0  0  0  0  0  0  0  0  0
  1  2  1  0
  2  3  1  0
  3  4  1  0
  4  5  2  0
  5  6  1  0
  6  7  2  0
  7  8  1  0
  8  9  2  0
  9 10  1  0
 10 11  1  0
 11 12  1  0
 12 13  1  0
 13 14  1  0
 14 15  1  0
 15 16  1  0
 16 17  1  0
 17 18  1  0
 17 19  1  0
 19 20  1  0
 10 21  2  0
 21 22  1  0
 22 23  2  0
 23 24  1  0
 24 25  2  0
 25 26  1  0
 26 27  2  0
 27 28  1  0
  9  4  1  0
 26 21  1  0
 27  8  1  0
  1 29  1  0
  1 30  1  0
  1 31  1  0
  2 32  1  0
  2 33  1  0
  5 34  1  0
  6 35  1  0
  7 36  1  0
 11 37  1  0
 12 38  1  0
 12 39  1  0
 13 40  1  0
 13 41  1  0
 14 42  1  0
 15 43  1  0
 15 44  1  0
 16 45  1  0
 16 46  1  0
 18 47  1  0
 18 48  1  0
 18 49  1  0
 19 50  1  0
 19 51  1  0
 20 52  1  0
 20 53  1  0
 20 54  1  0
 22 55  1  0
 23 56  1  0
 24 57  1  0
 25 58  1  0
 28 59  1  0
 28 60  1  0
 28 61  1  0
M  CHG  1  27   1
M  END
>  <UniqueID>  (9) 
9

>  <SMILES>  (9) 
CCOc1cccc2c1c(NCCNCCN(C)CC)c1ccccc1[n+]2C

>  <Energy>  (9) 
84.63925504290039

>  <Genealogy>  (9) 
CCOc1cccc2c1c(NCCNCCN(C)CC)c1ccccc1[n+]2C (3D coordinates assigned)
CCOc1cccc2c1c(NCCNCCN(C)CC)c1ccccc1[n+]2C (optimized conformer: 84.63925504290039 kcal/mol)

>  <smiles>  (9) 
CCOc1cccc2c1c(NCCNCCN(C)CC)c1ccccc1[n+]2C

>  <score_type>  (9) 
oracle

>  <origin>  (9) 
adg

>  <m_score__min__energy>  (9) 
-4.5899999999999999

>  <m_primary>  (9) 
energy

$$$$
9:0
     RDKit          3D

 53 55  0  0  0  0  0  0  0  0999 V2000
   57.8940   22.5520   44.1220 C   0  0  0  0  0  0  0  0  0  0  0  0
   56.6410   21.7800   43.7400 C   0  0  0  0  0  0  0  0  0  0  0  0
   55.5670   22.6840   43.5870 O   0  0  0  0  0  0  0  0  0  0  0  0
   55.9150   23.9590   44.0940 C   0  0  0  0  0  0  0  0  0  0  0  0
   54.9070   24.4090   45.1560 C   0  0  0  0  0  0  0  0  0  0  0  0
   55.4810   25.3840   46.0080 O   0  0  0  0  0  0  0  0  0  0  0  0
   56.8260   25.0710   46.3190 C   0  0  0  0  0  0  0  0  0  0  0  0
   57.7410   26.2430   45.9520 C   0  0  0  0  0  0  0  0  0  0  0  0
   57.0230   27.5120   46.0480 N   0  0  0  0  0  0  0  0  0  0  0  0
   57.7010   28.7760   45.9430 C   0  0  0  0  0  0  0  0  0  0  0  0
   57.4560   29.6270   44.8520 C   0  0  0  0  0  0  0  0  0  0  0  0
   56.6480   29.2070   43.7750 C   0  0  0  0  0  0  0  0  0  0  0  0
   56.4410   30.0370   42.6760 C   0  0  0  0  0  0  0  0  0  0  0  0
   57.0490   31.2850   42.6220 C   0  0  0  0  0  0  0  0  0  0  0  0
   57.8580   31.7180   43.6720 C   0  0  0  0  0  0  0  0  0  0  0  0
   58.0620   30.9110   44.8200 C   0  0  0  0  0  0  0  0  0  0  0  0
   58.8480   31.3330   45.8760 N   0  0  0  0  0  0  0  0  0  0  0  0
   59.2320   32.7580   45.9900 C   0  0  0  0  0  0  0  0  0  0  0  0
   59.2580   30.4270   46.8380 C   0  0  0  0  0  0  0  0  0  0  0  0
   60.2830   30.7370   47.7690 C   0  0  0  0  0  0  0  0  0  0  0  0
   60.6520   29.8300   48.7770 C   0  0  0  0  0  0  0  0  0  0  0  0
   61.6570   30.1120   49.7160 O   0  0  0  0  0  0  0  0  0  0  0  0
   62.4220   31.3140   49.7470 C   0  0  0  0  0  0  0  0  0  0  0  0
   60.0060   28.5990   48.8560 C   0  0  0  0  0  0  0  0  0  0  0  0
   59.0280   28.2510   47.9300 C   0  0  0  0  0  0  0  0  0  0  0  0
   58.6580   29.1430   46.9040 C   0  0  0  0  0  0  0  0  0  0  0  0
   57.9743   22.6015   45.2179 H   0  0  0  0  0  0  0  0  0  0  0  0
   58.7782   22.0418   43.7122 H   0  0  0  0  0  0  0  0  0  0  0  0
   57.8360   23.5712   43.7122 H   0  0  0  0  0  0  0  0  0  0  0  0
   56.8115   21.2475   42.7927 H   0  0  0  0  0  0  0  0  0  0  0  0
   56.4012   21.0514   44.5284 H   0  0  0  0  0  0  0  0  0  0  0  0
   56.9170   23.9078   44.5450 H   0  0  0  0  0  0  0  0  0  0  0  0
   55.9072   24.6843   43.2670 H   0  0  0  0  0  0  0  0  0  0  0  0
   54.0251   24.8384   44.6582 H   0  0  0  0  0  0  0  0  0  0  0  0
   54.6165   23.5372   45.7606 H   0  0  0  0  0  0  0  0  0  0  0  0
   56.9116   24.8669   47.3965 H   0  0  0  0  0  0  0  0  0  0  0  0
   57.1303   24.1845   45.7432 H   0  0  0  0  0  0  0  0  0  0  0  0
   58.5982   26.2607   46.6411 H   0  0  0  0  0  0  0  0  0  0  0  0
   58.0852   26.1103   44.9157 H   0  0  0  0  0  0  0  0  0  0  0  0
   55.9800   27.5030   46.1190 H   0  0  0  0  0  0  0  0  0  0  0  0
   56.1764   28.2136   43.8034 H   0  0  0  0  0  0  0  0  0  0  0  0
   55.7955   29.7041   41.8499 H   0  0  0  0  0  0  0  0  0  0  0  0
   56.8917   31.9339   41.7478 H   0  0  0  0  0  0  0  0  0  0  0  0
   58.3460   32.7018   43.6087 H   0  0  0  0  0  0  0  0  0  0  0  0
   59.3063   33.0339   47.0523 H   0  0  0  0  0  0  0  0  0  0  0  0
   60.2047   32.9159   45.5012 H   0  0  0  0  0  0  0  0  0  0  0  0
   58.4703   33.3832   45.5012 H   0  0  0  0  0  0  0  0  0  0  0  0
   60.7988   31.7061   47.7004 H   0  0  0  0  0  0  0  0  0  0  0  0
   62.6067   31.6042   50.7918 H   0  0  0  0  0  0  0  0  0  0  0  0
   63.3826   31.1505   49.2366 H   0  0  0  0  0  0  0  0  0  0  0  0
   61.8672   32.1150   49.2366 H   0  0  0  0  0  0  0  0  0  0  0  0
   60.2716   27.8950   49.6584 H   0  0  0  0  0  0  0  0  0  0  0  0
   58.5381   27.2686   47.9995 H   0  0  0  0  0  0  0  0  0  0  0  0
  1  2  1  0
  2  3  1  0
  3  4  1  0
  4  5  1  0
  5  6  1  0
  6  7  1  0
  7  8  1  0
  8  9  1  0
  9 10  1  0
 10 11  2  0
 11 12  1  0
 12 13  2  0
 13 14  1  0
 14 15  2  0
 15 16  1  0
 16 17  2  0
 17 18  1  0
 17 19  1  0
 19 20  2  0
 20 21  1  0
 21 22  1  0
 22 23  1  0
 21 24  2  0
 24 25  1  0
 25 26  2  0
 26 10  1  0
 16 11  1  0
 26 19  1  0
  1 27  1  0
  1 28  1  0
  1 29  1  0
  2 30  1  0
  2 31  1  0
  4 32  1  0
  4 33  1  0
  5 34  1  0
  5 35  1  0
  7 36  1  0
  7 37  1  0
  8 38  1  0
  8 39  1  0
  9 40  1  0
 12 41  1  0
 13 42  1  0
 14 43  1  0
 15 44  1  0
 18 45  1  0
 18 46  1  0
 18 47  1  0
 20 48  1  0
 23 49  1  0
 23 50  1  0
 23 51  1  0
 24 52  1  0
 25 53  1  0
M  CHG  1  17   1
M  END
>  <UniqueID>  (10) 
10

>  <SMILES>  (10) 
CCOCCOCCNc1c2ccccc2[n+](C)c2cc(OC)ccc12

>  <Energy>  (10) 
78.56926635674054

>  <Genealogy>  (10) 
CCOCCOCCNc1c2ccccc2[n+](C)c2cc(OC)ccc12 (3D coordinates assigned)
CCOCCOCCNc1c2ccccc2[n+](C)c2cc(OC)ccc12 (optimized conformer: 78.56926635674054 kcal/mol)

>  <smiles>  (10) 
CCOCCOCCNc1c2ccccc2[n+](C)c2cc(OC)ccc12

>  <score_type>  (10) 
oracle

>  <origin>  (10) 
adg

>  <m_score__min__energy>  (10) 
-5.96

>  <m_primary>  (10) 
energy

$$$$
10:0
     RDKit          3D

 40 41  0  0  0  0  0  0  0  0999 V2000
   58.9350   29.2350   48.8540 C   0  0  0  0  0  0  0  0  0  0  0  0
   59.3420   28.3190   47.6930 C   0  0  0  0  0  0  0  0  0  0  0  0
   59.3010   28.9990   46.3730 N   0  0  0  0  0  0  0  0  0  0  0  0
   60.6720   29.4490   46.0090 C   0  0  0  0  0  0  0  0  0  0  0  0
   61.1230   30.7100   46.7560 C   0  0  0  0  0  0  0  0  0  0  0  0
   58.6220   28.1950   45.3150 C   0  0  0  0  0  0  0  0  0  0  0  0
   57.0770   28.1680   45.3800 C   0  0  0  0  0  0  0  0  0  0  0  0
   56.5160   29.5210   45.4040 N   0  0  0  0  0  0  0  0  0  0  0  0
   57.0550   30.6190   44.6490 C   0  0  0  0  0  0  0  0  0  0  0  0
   56.8950   30.6170   43.2560 C   0  0  0  0  0  0  0  0  0  0  0  0
   57.4150   31.6510   42.4780 C   0  0  0  0  0  0  0  0  0  0  0  0
   58.0870   32.7150   43.0790 C   0  0  0  0  0  0  0  0  0  0  0  0
   58.2310   32.7620   44.4770 C   0  0  0  0  0  0  0  0  0  0  0  0
   58.8750   33.8390   45.1180 C   0  0  0  0  0  0  0  0  0  0  0  0
   59.3650   34.7910   44.4520 O   0  0  0  0  0  0  0  0  0  0  0  0
   58.9680   33.8590   46.5120 C   0  0  0  0  0  0  0  0  0  0  0  0
   58.4160   32.8150   47.2540 C   0  0  0  0  0  0  0  0  0  0  0  0
   57.8040   31.7790   46.6240 N   0  0  0  0  0  0  0  0  0  0  0  0
   57.7050   31.7100   45.2680 C   0  0  0  0  0  0  0  0  0  0  0  0
   59.1565   28.7366   49.8093 H   0  0  0  0  0  0  0  0  0  0  0  0
   59.4991   30.1774   48.7927 H   0  0  0  0  0  0  0  0  0  0  0  0
   57.8576   29.4480   48.7927 H   0  0  0  0  0  0  0  0  0  0  0  0
   60.3671   27.9620   47.8713 H   0  0  0  0  0  0  0  0  0  0  0  0
   58.6181   27.4914   47.6585 H   0  0  0  0  0  0  0  0  0  0  0  0
   58.7320   29.8710   46.4970 H   0  0  0  0  0  0  0  0  0  0  0  0
   61.3773   28.6371   46.2400 H   0  0  0  0  0  0  0  0  0  0  0  0
   60.6561   29.6973   44.9375 H   0  0  0  0  0  0  0  0  0  0  0  0
   61.0607   30.5358   47.8403 H   0  0  0  0  0  0  0  0  0  0  0  0
   62.1616   30.9469   46.4818 H   0  0  0  0  0  0  0  0  0  0  0  0
   60.4702   31.5518   46.4818 H   0  0  0  0  0  0  0  0  0  0  0  0
   58.9118   28.6090   44.3379 H   0  0  0  0  0  0  0  0  0  0  0  0
   58.9466   27.1561   45.4738 H   0  0  0  0  0  0  0  0  0  0  0  0
   56.6915   27.6370   44.4971 H   0  0  0  0  0  0  0  0  0  0  0  0
   56.7799   27.6552   46.3067 H   0  0  0  0  0  0  0  0  0  0  0  0
   55.6630   29.6970   45.9810 H   0  0  0  0  0  0  0  0  0  0  0  0
   56.3535   29.7910   42.7717 H   0  0  0  0  0  0  0  0  0  0  0  0
   57.2945   31.6272   41.3849 H   0  0  0  0  0  0  0  0  0  0  0  0
   58.5058   33.5201   42.4574 H   0  0  0  0  0  0  0  0  0  0  0  0
   59.4734   34.6929   47.0210 H   0  0  0  0  0  0  0  0  0  0  0  0
   58.4764   32.8307   48.3522 H   0  0  0  0  0  0  0  0  0  0  0  0
  1  2  1  0
  2  3  1  0
  3  4  1  0
  4  5  1  0
  3  6  1  0
  6  7  1  0
  7  8  1  0
  8  9  1  0
  9 10  2  0
 10 11  1  0
 11 12  2  0
 12 13  1  0
 13 14  1  0
 14 15  2  0
 14 16  1  0
 16 17  2  0
 17 18  1  0
 18 19  1  0
 19  9  1  0
 19 13  2  0
  1 20  1  0
  1 21  1  0
  1 22  1  0
  2 23  1  0
  2 24  1  0
  3 25  1  0
  4 26  1  0
  4 27  1  0
  5 28  1  0
  5 29  1  0
  5 30  1  0
  6 31  1  0
  6 32  1  0
  7 33  1  0
  7 34  1  0
  8 35  1  0
 10 36  1  0
 11 37  1  0
 12 38  1  0
 16 39  1  0
 17 40  1  0
M  CHG  2   3   1  18  -1
M  END
>  <UniqueID>  (11) 
11

>  <SMILES>  (11) 
CC[NH+](CC)CCNc1cccc2c(=O)cc[n-]c12

>  <Energy>  (11) 
52.07612050526934

>  <Genealogy>  (11) 
CC[NH+](CC)CCNc1cccc2c(=O)cc[n-]c12 (protonated)
CC[NH+](CC)CCNc1cccc2c(=O)cc[n-]c12 (3D coordinates assigned)
CC[NH+](CC)CCNc1cccc2c(=O)cc[n-]c12 (optimized conformer: 52.07612050526934 kcal/mol)

>  <smiles>  (11) 
CCN(CC)CCNc1cccc2c(=O)cc[nH]c12

>  <score_type>  (11) 
oracle

>  <origin>  (11) 
adg

>  <m_score__min__energy>  (11) 
-7.0899999999999999

>  <m_primary>  (11) 
energy

$$$$
11:0
     RDKit          3D

 54 56  0  0  0  0  0  0  0  0999 V2000
   56.7600   28.2720   53.8580 C   0  0  0  0  0  0  0  0  0  0  0  0
   55.3190   27.9210   53.4830 C   0  0  0  0  0  0  0  0  0  0  0  0
   54.8070   28.7540   52.3760 N   0  0  0  0  0  0  0  0  0  0  0  0
   54.3170   30.0670   52.8440 C   0  0  0  0  0  0  0  0  0  0  0  0
   54.7970   31.2210   51.9410 C   0  0  0  0  0  0  0  0  0  0  0  0
   56.3190   31.3800   51.9110 C   0  0  0  0  0  0  0  0  0  0  0  0
   56.9210   30.1480   51.5660 O   0  0  0  0  0  0  0  0  0  0  0  0
   58.2450   30.3500   51.1120 C   0  0  0  0  0  0  0  0  0  0  0  0
   58.2990   31.5730   50.1970 C   0  0  0  0  0  0  0  0  0  0  0  0
   59.3560   31.4170   49.2020 N   0  0  0  0  0  0  0  0  0  0  0  0
   59.0510   31.4290   47.7940 C   0  0  0  0  0  0  0  0  0  0  0  0
   59.1010   32.6320   47.0630 C   0  0  0  0  0  0  0  0  0  0  0  0
   59.5040   33.8400   47.6730 C   0  0  0  0  0  0  0  0  0  0  0  0
   59.6080   35.0150   46.9310 C   0  0  0  0  0  0  0  0  0  0  0  0
   59.3200   35.0070   45.5740 C   0  0  0  0  0  0  0  0  0  0  0  0
   58.8890   33.8330   44.9550 C   0  0  0  0  0  0  0  0  0  0  0  0
   58.7300   32.6310   45.6920 C   0  0  0  0  0  0  0  0  0  0  0  0
   58.2360   31.4770   45.1060 N   0  0  0  0  0  0  0  0  0  0  0  0
   57.5660   31.5440   43.7870 C   0  0  0  0  0  0  0  0  0  0  0  0
   58.3500   30.2650   45.7630 C   0  0  0  0  0  0  0  0  0  0  0  0
   58.1030   29.0320   45.1030 C   0  0  0  0  0  0  0  0  0  0  0  0
   58.1990   27.8160   45.7820 C   0  0  0  0  0  0  0  0  0  0  0  0
   57.8800   26.3100   44.9390 Cl  0  0  0  0  0  0  0  0  0  0  0  0
   58.5710   27.7940   47.1230 C   0  0  0  0  0  0  0  0  0  0  0  0
   58.8530   28.9840   47.7900 C   0  0  0  0  0  0  0  0  0  0  0  0
   58.7440   30.2280   47.1270 C   0  0  0  0  0  0  0  0  0  0  0  0
   56.8584   28.2960   54.9533 H   0  0  0  0  0  0  0  0  0  0  0  0
   57.4414   27.5136   53.4452 H   0  0  0  0  0  0  0  0  0  0  0  0
   57.0163   29.2588   53.4452 H   0  0  0  0  0  0  0  0  0  0  0  0
   55.2806   26.8650   53.1776 H   0  0  0  0  0  0  0  0  0  0  0  0
   54.6877   28.1087   54.3640 H   0  0  0  0  0  0  0  0  0  0  0  0
   55.5940   28.9030   51.7020 H   0  0  0  0  0  0  0  0  0  0  0  0
   54.0400   28.2390   51.8780 H   0  0  0  0  0  0  0  0  0  0  0  0
   53.2171   30.0541   52.8484 H   0  0  0  0  0  0  0  0  0  0  0  0
   54.7183   30.2379   53.8539 H   0  0  0  0  0  0  0  0  0  0  0  0
   54.4466   31.0299   50.9160 H   0  0  0  0  0  0  0  0  0  0  0  0
   54.3826   32.1512   52.3569 H   0  0  0  0  0  0  0  0  0  0  0  0
   56.5923   32.1417   51.1659 H   0  0  0  0  0  0  0  0  0  0  0  0
   56.6720   31.6917   52.9051 H   0  0  0  0  0  0  0  0  0  0  0  0
   58.9065   30.5111   51.9760 H   0  0  0  0  0  0  0  0  0  0  0  0
   58.5755   29.4630   50.5517 H   0  0  0  0  0  0  0  0  0  0  0  0
   57.3322   31.6853   49.6844 H   0  0  0  0  0  0  0  0  0  0  0  0
   58.5098   32.4650   50.8052 H   0  0  0  0  0  0  0  0  0  0  0  0
   60.3460   31.5570   49.5070 H   0  0  0  0  0  0  0  0  0  0  0  0
   59.7388   33.8538   48.7476 H   0  0  0  0  0  0  0  0  0  0  0  0
   59.9186   35.9493   47.4216 H   0  0  0  0  0  0  0  0  0  0  0  0
   59.4317   35.9288   44.9842 H   0  0  0  0  0  0  0  0  0  0  0  0
   58.6688   33.8395   43.8773 H   0  0  0  0  0  0  0  0  0  0  0  0
   56.4810   31.6525   43.9320 H   0  0  0  0  0  0  0  0  0  0  0  0
   57.9490   32.4083   43.2247 H   0  0  0  0  0  0  0  0  0  0  0  0
   57.7703   30.6209   43.2247 H   0  0  0  0  0  0  0  0  0  0  0  0
   57.8310   29.0352   44.0372 H   0  0  0  0  0  0  0  0  0  0  0  0
   58.6425   26.8351   47.6572 H   0  0  0  0  0  0  0  0  0  0  0  0
   59.1641   28.9555   48.8447 H   0  0  0  0  0  0  0  0  0  0  0  0
  1  2  1  0
  2  3  1  0
  3  4  1  0
  4  5  1  0
  5  6  1  0
  6  7  1  0
  7  8  1  0
  8  9  1  0
  9 10  1  0
 10 11  1  0
 11 12  2  0
 12 13  1  0
 13 14  2  0
 14 15  1  0
 15 16  2  0
 16 17  1  0
 17 18  2  0
 18 19  1  0
 18 20  1  0
 20 21  2  0
 21 22  1  0
 22 23  1  0
 22 24  2  0
 24 25  1  0
 25 26  2  0
 26 11  1  0
 17 12  1  0
 26 20  1  0
  1 27  1  0
  1 28  1  0
  1 29  1  0
  2 30  1  0
  2 31  1  0
  3 32  1  0
  3 33  1  0
  4 34  1  0
  4 35  1  0
  5 36  1  0
  5 37  1  0
  6 38  1  0
  6 39  1  0
  8 40  1  0
  8 41  1  0
  9 42  1  0
  9 43  1  0
 10 44  1  0
 13 45  1  0
 14 46  1  0
 15 47  1  0
 16 48  1  0
 19 49  1  0
 19 50  1  0
 19 51  1  0
 21 52  1  0
 24 53  1  0
 25 54  1  0
M  CHG  2   3   1  18   1
M  END
>  <UniqueID>  (12) 
12

>  <SMILES>  (12) 
CC[NH2+]CCCOCCNc1c2ccccc2[n+](C)c2cc(Cl)ccc12

>  <Energy>  (12) 
76.31799894059348

>  <Genealogy>  (12) 
CC[NH2+]CCCOCCNc1c2ccccc2[n+](C)c2cc(Cl)ccc12 (protonated)
CC[NH2+]CCCOCCNc1c2ccccc2[n+](C)c2cc(Cl)ccc12 (3D coordinates assigned)
CC[NH2+]CCCOCCNc1c2ccccc2[n+](C)c2cc(Cl)ccc12 (optimized conformer: 76.31799894059348 kcal/mol)

>  <smiles>  (12) 
CCNCCCOCCNc1c2ccccc2[n+](C)c2cc(Cl)ccc12

>  <score_type>  (12) 
oracle

>  <origin>  (12) 
adg

>  <m_score__min__energy>  (12) 
-4.5499999999999998

>  <m_primary>  (12) 
energy

$$$$
12:0
     RDKit          3D

 52 54  0  0  0  0  0  0  0  0999 V2000
   57.2400   31.1400   43.1940 C   0  0  0  0  0  0  0  0  0  0  0  0
   58.0740   31.0410   44.4140 N   0  0  0  0  0  0  0  0  0  0  0  0
   58.5300   29.8110   44.8370 C   0  0  0  0  0  0  0  0  0  0  0  0
   57.9690   28.6090   44.3340 C   0  0  0  0  0  0  0  0  0  0  0  0
   58.4760   27.3660   44.6980 C   0  0  0  0  0  0  0  0  0  0  0  0
   59.5450   27.2840   45.5780 C   0  0  0  0  0  0  0  0  0  0  0  0
   60.0860   28.4410   46.1290 C   0  0  0  0  0  0  0  0  0  0  0  0
   59.5710   29.7230   45.8030 C   0  0  0  0  0  0  0  0  0  0  0  0
   60.0670   30.9080   46.4180 C   0  0  0  0  0  0  0  0  0  0  0  0
   61.1190   30.8240   47.4240 N   0  0  0  0  0  0  0  0  0  0  0  0
   60.6240   30.2780   48.7020 C   0  0  0  0  0  0  0  0  0  0  0  0
   59.9580   31.3530   49.5790 C   0  0  0  0  0  0  0  0  0  0  0  0
   60.9420   32.4540   49.9870 C   0  0  0  0  0  0  0  0  0  0  0  0
   62.0110   32.5800   48.9820 N   0  0  0  0  0  0  0  0  0  0  0  0
   62.7090   33.8680   49.0890 C   0  0  0  0  0  0  0  0  0  0  0  0
   63.7230   34.0320   47.9480 C   0  0  0  0  0  0  0  0  0  0  0  0
   63.4510   33.0850   46.7700 C   0  0  0  0  0  0  0  0  0  0  0  0
   63.6420   31.6910   47.1600 N   0  0  0  0  0  0  0  0  0  0  0  0
   59.4710   32.1550   46.0690 C   0  0  0  0  0  0  0  0  0  0  0  0
   59.8800   33.3830   46.6540 C   0  0  0  0  0  0  0  0  0  0  0  0
   59.2290   34.5770   46.3620 C   0  0  0  0  0  0  0  0  0  0  0  0
   58.1530   34.5890   45.4900 C   0  0  0  0  0  0  0  0  0  0  0  0
   57.7500   33.4120   44.8670 C   0  0  0  0  0  0  0  0  0  0  0  0
   58.4250   32.1860   45.1010 C   0  0  0  0  0  0  0  0  0  0  0  0
   56.1853   31.2652   43.4800 H   0  0  0  0  0  0  0  0  0  0  0  0
   57.5636   32.0060   42.5979 H   0  0  0  0  0  0  0  0  0  0  0  0
   57.3518   30.2223   42.5979 H   0  0  0  0  0  0  0  0  0  0  0  0
   57.1156   28.6611   43.6419 H   0  0  0  0  0  0  0  0  0  0  0  0
   58.0293   26.4482   44.2881 H   0  0  0  0  0  0  0  0  0  0  0  0
   59.9658   26.3022   45.8407 H   0  0  0  0  0  0  0  0  0  0  0  0
   60.9292   28.3610   46.8309 H   0  0  0  0  0  0  0  0  0  0  0  0
   61.5250   31.7720   47.5890 H   0  0  0  0  0  0  0  0  0  0  0  0
   61.9570   30.2950   47.1080 H   0  0  0  0  0  0  0  0  0  0  0  0
   59.8870   29.4900   48.4879 H   0  0  0  0  0  0  0  0  0  0  0  0
   61.4882   29.8813   49.2550 H   0  0  0  0  0  0  0  0  0  0  0  0
   59.1303   31.8080   49.0152 H   0  0  0  0  0  0  0  0  0  0  0  0
   59.5955   30.8655   50.4960 H   0  0  0  0  0  0  0  0  0  0  0  0
   60.4043   33.4103   50.0671 H   0  0  0  0  0  0  0  0  0  0  0  0
   61.3906   32.1925   50.9567 H   0  0  0  0  0  0  0  0  0  0  0  0
   62.7120   31.8190   49.1410 H   0  0  0  0  0  0  0  0  0  0  0  0
   61.9724   34.6833   49.0374 H   0  0  0  0  0  0  0  0  0  0  0  0
   63.2472   33.9001   50.0478 H   0  0  0  0  0  0  0  0  0  0  0  0
   63.6772   35.0688   47.5834 H   0  0  0  0  0  0  0  0  0  0  0  0
   64.7167   33.7844   48.3496 H   0  0  0  0  0  0  0  0  0  0  0  0
   62.4142   33.2238   46.4297 H   0  0  0  0  0  0  0  0  0  0  0  0
   64.1587   33.3213   45.9617 H   0  0  0  0  0  0  0  0  0  0  0  0
   63.8140   31.6610   48.1920 H   0  0  0  0  0  0  0  0  0  0  0  0
   64.5160   31.3490   46.7010 H   0  0  0  0  0  0  0  0  0  0  0  0
   60.7295   33.3899   47.3527 H   0  0  0  0  0  0  0  0  0  0  0  0
   59.5698   35.5147   46.8251 H   0  0  0  0  0  0  0  0  0  0  0  0
   57.6173   35.5287   45.2901 H   0  0  0  0  0  0  0  0  0  0  0  0
   56.8914   33.4323   44.1797 H   0  0  0  0  0  0  0  0  0  0  0  0
  1  2  1  0
  2  3  2  0
  3  4  1  0
  4  5  2  0
  5  6  1  0
  6  7  2  0
  7  8  1  0
  8  9  2  0
  9 10  1  0
 10 11  1  0
 11 12  1  0
 12 13  1  0
 13 14  1  0
 14 15  1  0
 15 16  1  0
 16 17  1  0
 17 18  1  0
  9 19  1  0
 19 20  2  0
 20 21  1  0
 21 22  2  0
 22 23  1  0
 23 24  2  0
 24  2  1  0
  8  3  1  0
 24 19  1  0
  1 25  1  0
  1 26  1  0
  1 27  1  0
  4 28  1  0
  5 29  1  0
  6 30  1  0
  7 31  1  0
 10 32  1  0
 10 33  1  0
 11 34  1  0
 11 35  1  0
 12 36  1  0
 12 37  1  0
 13 38  1  0
 13 39  1  0
 14 40  1  0
 15 41  1  0
 15 42  1  0
 16 43  1  0
 16 44  1  0
 17 45  1  0
 17 46  1  0
 18 47  1  0
 18 48  1  0
 20 49  1  0
 21 50  1  0
 22 51  1  0
 23 52  1  0
M  CHG  2   2   1  10   1
M  END
>  <UniqueID>  (13) 
13

>  <SMILES>  (13) 
C[n+]1c2ccccc2c([NH2+]CCCNCCCN)c2ccccc21

>  <Energy>  (13) 
75.36728120082155

>  <Genealogy>  (13) 
C[n+]1c2ccccc2c([NH2+]CCCNCCCN)c2ccccc21 (protonated)
C[n+]1c2ccccc2c([NH2+]CCCNCCCN)c2ccccc21 (3D coordinates assigned)
C[n+]1c2ccccc2c([NH2+]CCCNCCCN)c2ccccc21 (optimized conformer: 75.36728120082155 kcal/mol)

>  <smiles>  (13) 
C[n+]1c2ccccc2c(NCCCNCCCN)c2ccccc21

>  <score_type>  (13) 
oracle

>  <origin>  (13) 
adg

>  <m_score__min__energy>  (13) 
-3.8399999999999999

>  <m_primary>  (13) 
energy

$$$$
13:0
     RDKit          3D

 79 84  0  0  0  0  0  0  0  0999 V2000
   56.6750   24.0770   43.3800 C   0  0  0  0  0  0  0  0  0  0  0  0
   57.6770   24.7890   44.2920 C   0  0  0  0  0  0  0  0  0  0  0  0
   57.4690   26.2530   44.4120 N   0  0  1  0  0  0  0  0  0  0  0  0
   56.9550   26.6350   45.7440 C   0  0  0  0  0  0  0  0  0  0  0  0
   58.6150   27.0640   43.8880 C   0  0  0  0  0  0  0  0  0  0  0  0
   58.8900   28.4180   44.5840 C   0  0  0  0  0  0  0  0  0  0  0  0
   60.3280   28.6560   44.7510 N   0  0  0  0  0  0  0  0  0  0  0  0
   60.5900   29.6040   45.8470 C   0  0  0  0  0  0  0  0  0  0  0  0
   59.6290   29.3530   47.0140 C   0  0  0  0  0  0  0  0  0  0  0  0
   58.8020   30.5170   47.3590 N   0  0  0  0  0  0  0  0  0  0  0  0
   59.2440   31.8810   47.2550 C   0  0  0  0  0  0  0  0  0  0  0  0
   58.6420   32.8000   46.3420 C   0  0  0  0  0  0  0  0  0  0  0  0
   57.6170   32.4370   45.2600 C   0  0  0  0  0  0  0  0  0  0  0  0
   57.3930   30.9160   45.1580 C   0  0  0  0  0  0  0  0  0  0  0  0
   56.4640   30.5830   43.9850 C   0  0  0  0  0  0  0  0  0  0  0  0
   57.0230   31.0600   42.6280 C   0  0  0  0  0  0  0  0  0  0  0  0
   58.0900   32.1650   42.7390 C   0  0  0  0  0  0  0  0  0  0  0  0
   57.8070   33.1430   43.8860 C   0  0  0  0  0  0  0  0  0  0  0  0
   59.0260   34.1540   46.4060 C   0  0  0  0  0  0  0  0  0  0  0  0
   60.0220   34.5870   47.2760 C   0  0  0  0  0  0  0  0  0  0  0  0
   60.7020   33.6690   48.0770 C   0  0  0  0  0  0  0  0  0  0  0  0
   61.7310   34.0990   48.9210 C   0  0  0  0  0  0  0  0  0  0  0  0
   62.4380   33.1670   49.6980 C   0  0  0  0  0  0  0  0  0  0  0  0
   62.1590   31.8280   49.5650 N   0  0  0  0  0  0  0  0  0  0  0  0
   61.1290   31.3990   48.7750 C   0  0  0  0  0  0  0  0  0  0  0  0
   60.3510   32.3060   48.0350 C   0  0  0  0  0  0  0  0  0  0  0  0
   62.9100   30.8300   50.3480 C   0  0  0  0  0  0  0  0  0  0  0  0
   64.3850   31.2250   50.4750 C   0  0  0  0  0  0  0  0  0  0  0  0
   64.4960   32.6250   51.0060 C   0  0  0  0  0  0  0  0  0  0  0  0
   65.5590   32.9810   51.8630 C   0  0  0  0  0  0  0  0  0  0  0  0
   65.6060   34.2860   52.3350 C   0  0  0  0  0  0  0  0  0  0  0  0
   64.6730   35.2080   51.9930 C   0  0  0  0  0  0  0  0  0  0  0  0
   63.6200   34.9120   51.1340 C   0  0  0  0  0  0  0  0  0  0  0  0
   63.5360   33.5980   50.6100 C   0  0  0  0  0  0  0  0  0  0  0  0
   64.9530   36.4020   52.6280 O   0  0  0  0  0  0  0  0  0  0  0  0
   66.1340   36.2170   53.4210 C   0  0  0  0  0  0  0  0  0  0  0  0
   66.5240   34.8550   53.1980 O   0  0  0  0  0  0  0  0  0  0  0  0
   55.9312   23.5485   43.9944 H   0  0  0  0  0  0  0  0  0  0  0  0
   56.1666   24.8175   42.7451 H   0  0  0  0  0  0  0  0  0  0  0  0
   57.2071   23.3533   42.7451 H   0  0  0  0  0  0  0  0  0  0  0  0
   57.6004   24.3478   45.2967 H   0  0  0  0  0  0  0  0  0  0  0  0
   58.6681   24.6508   43.8352 H   0  0  0  0  0  0  0  0  0  0  0  0
   56.6690   26.4480   43.7630 H   0  0  0  0  0  0  0  0  0  0  0  0
   57.5777   26.1722   46.5238 H   0  0  0  0  0  0  0  0  0  0  0  0
   56.9881   27.7294   45.8498 H   0  0  0  0  0  0  0  0  0  0  0  0
   55.9166   26.2877   45.8498 H   0  0  0  0  0  0  0  0  0  0  0  0
   59.5246   26.4523   43.9800 H   0  0  0  0  0  0  0  0  0  0  0  0
   58.3348   27.3234   42.8564 H   0  0  0  0  0  0  0  0  0  0  0  0
   58.4627   29.2269   43.9732 H   0  0  0  0  0  0  0  0  0  0  0  0
   58.4268   28.3930   45.5814 H   0  0  0  0  0  0  0  0  0  0  0  0
   60.6690   29.0910   43.8650 H   0  0  0  0  0  0  0  0  0  0  0  0
   61.6252   29.4764   46.1965 H   0  0  0  0  0  0  0  0  0  0  0  0
   60.4391   30.6283   45.4755 H   0  0  0  0  0  0  0  0  0  0  0  0
   58.9621   28.5216   46.7420 H   0  0  0  0  0  0  0  0  0  0  0  0
   60.2464   29.1248   47.8953 H   0  0  0  0  0  0  0  0  0  0  0  0
   57.7910   30.3480   47.5640 H   0  0  0  0  0  0  0  0  0  0  0  0
   56.6719   32.8721   45.6171 H   0  0  0  0  0  0  0  0  0  0  0  0
   58.3616   30.4178   45.0043 H   0  0  0  0  0  0  0  0  0  0  0  0
   56.9265   30.5638   46.0898 H   0  0  0  0  0  0  0  0  0  0  0  0
   56.3253   29.4925   43.9446 H   0  0  0  0  0  0  0  0  0  0  0  0
   55.5127   31.1083   44.1554 H   0  0  0  0  0  0  0  0  0  0  0  0
   57.4728   30.1959   42.1171 H   0  0  0  0  0  0  0  0  0  0  0  0
   56.1777   31.4910   42.0714 H   0  0  0  0  0  0  0  0  0  0  0  0
   59.0690   31.6938   42.9109 H   0  0  0  0  0  0  0  0  0  0  0  0
   58.0757   32.7383   41.8003 H   0  0  0  0  0  0  0  0  0  0  0  0
   58.6524   33.8422   43.9660 H   0  0  0  0  0  0  0  0  0  0  0  0
   56.8648   33.6596   43.6505 H   0  0  0  0  0  0  0  0  0  0  0  0
   58.5271   34.8856   45.7534 H   0  0  0  0  0  0  0  0  0  0  0  0
   60.2740   35.6563   47.3324 H   0  0  0  0  0  0  0  0  0  0  0  0
   61.9866   35.1675   48.9762 H   0  0  0  0  0  0  0  0  0  0  0  0
   60.9049   30.3236   48.7174 H   0  0  0  0  0  0  0  0  0  0  0  0
   62.4698   30.7569   51.3534 H   0  0  0  0  0  0  0  0  0  0  0  0
   62.8509   29.8620   49.8288 H   0  0  0  0  0  0  0  0  0  0  0  0
   64.8898   30.5324   51.1645 H   0  0  0  0  0  0  0  0  0  0  0  0
   64.8595   31.1753   49.4839 H   0  0  0  0  0  0  0  0  0  0  0  0
   66.3270   32.2471   52.1484 H   0  0  0  0  0  0  0  0  0  0  0  0
   62.8740   35.6757   50.8690 H   0  0  0  0  0  0  0  0  0  0  0  0
   66.9289   36.9045   53.0962 H   0  0  0  0  0  0  0  0  0  0  0  0
   65.9522   36.4247   54.4858 H   0  0  0  0  0  0  0  0  0  0  0  0
  1  2  1  0
  2  3  1  0
  3  4  1  0
  3  5  1  0
  5  6  1  0
  6  7  1  0
  7  8  1  0
  8  9  1  0
  9 10  1  0
 10 11  1  0
 11 12  2  0
 12 13  1  0
 13 14  1  0
 14 15  1  0
 15 16  1  0
 16 17  1  0
 17 18  1  0
 12 19  1  0
 19 20  2  0
 20 21  1  0
 21 22  2  0
 22 23  1  0
 23 24  2  0
 24 25  1  0
 25 26  2  0
 24 27  1  0
 27 28  1  0
 28 29  1  0
 29 30  2  0
 30 31  1  0
 31 32  2  0
 32 33  1  0
 33 34  2  0
 32 35  1  0
 35 36  1  0
 36 37  1  0
 26 11  1  0
 34 29  1  0
 18 13  1  0
 26 21  1  0
 37 31  1  0
 34 23  1  0
  1 38  1  0
  1 39  1  0
  1 40  1  0
  2 41  1  0
  2 42  1  0
  3 43  1  6
  4 44  1  0
  4 45  1  0
  4 46  1  0
  5 47  1  0
  5 48  1  0
  6 49  1  0
  6 50  1  0
  7 51  1  0
  8 52  1  0
  8 53  1  0
  9 54  1  0
  9 55  1  0
 10 56  1  0
 13 57  1  0
 14 58  1  0
 14 59  1  0
 15 60  1  0
 15 61  1  0
 16 62  1  0
 16 63  1  0
 17 64  1  0
 17 65  1  0
 18 66  1  0
 18 67  1  0
 19 68  1  0
 20 69  1  0
 22 70  1  0
 25 71  1  0
 27 72  1  0
 27 73  1  0
 28 74  1  0
 28 75  1  0
 30 76  1  0
 33 77  1  0
 36 78  1  0
 36 79  1  0
M  CHG  2   3   1  24   1
M  END
>  <UniqueID>  (14) 
14

>  <SMILES>  (14) 
CC[N@@H+](C)CCNCCNc1c(C2CCCCC2)ccc2cc3[n+](cc12)CCc1cc2c(cc1-3)OCO2

>  <Energy>  (14) 
143.77828641013883

>  <Genealogy>  (14) 
CC[NH+](C)CCNCCNc1c(C2CCCCC2)ccc2cc3[n+](cc12)CCc1cc2c(cc1-3)OCO2 (protonated)
CC[N@@H+](C)CCNCCNc1c(C2CCCCC2)ccc2cc3[n+](cc12)CCc1cc2c(cc1-3)OCO2 (chirality)
CC[N@@H+](C)CCNCCNc1c(C2CCCCC2)ccc2cc3[n+](cc12)CCc1cc2c(cc1-3)OCO2 (3D coordinates assigned)
CC[N@@H+](C)CCNCCNc1c(C2CCCCC2)ccc2cc3[n+](cc12)CCc1cc2c(cc1-3)OCO2 (nonaromatic ring conformer: 143.77828641013883 kcal/mol)

>  <smiles>  (14) 
CCN(C)CCNCCNc1c(C2CCCCC2)ccc2cc3[n+](cc12)CCc1cc2c(cc1-3)OCO2

>  <score_type>  (14) 
oracle

>  <origin>  (14) 
adg

>  <m_score__min__energy>  (14) 
-6.5

>  <m_primary>  (14) 
energy

$$$$
14:0
     RDKit          3D

 63 66  0  0  0  0  0  0  0  0999 V2000
   58.0380   31.0550   51.3920 C   0  0  0  0  0  0  0  0  0  0  0  0
   59.3410   30.9130   50.5920 C   0  0  0  0  0  0  0  0  0  0  0  0
   60.5520   30.6580   51.4200 N   0  0  0  0  0  0  0  0  0  0  0  0
   61.5830   31.7060   51.1770 C   0  0  0  0  0  0  0  0  0  0  0  0
   60.9800   33.0260   50.6780 C   0  0  0  0  0  0  0  0  0  0  0  0
   61.1330   29.2970   51.2530 C   0  0  0  0  0  0  0  0  0  0  0  0
   60.3060   28.3490   50.3570 C   0  0  0  0  0  0  0  0  0  0  0  0
   60.8290   28.2660   48.9870 N   0  0  0  0  0  0  0  0  0  0  0  0
   60.1370   28.7590   47.8190 C   0  0  0  0  0  0  0  0  0  0  0  0
   60.3580   30.0710   47.3360 C   0  0  0  0  0  0  0  0  0  0  0  0
   59.5420   30.5580   46.2990 C   0  0  0  0  0  0  0  0  0  0  0  0
   58.8340   29.6720   45.5180 N   0  0  0  0  0  0  0  0  0  0  0  0
   58.5090   30.0180   44.1190 C   0  0  0  0  0  0  0  0  0  0  0  0
   58.5330   28.4210   46.0090 C   0  0  0  0  0  0  0  0  0  0  0  0
   57.6140   27.5660   45.3520 C   0  0  0  0  0  0  0  0  0  0  0  0
   57.2600   26.3360   45.9040 C   0  0  0  0  0  0  0  0  0  0  0  0
   57.7880   25.9430   47.1300 C   0  0  0  0  0  0  0  0  0  0  0  0
   58.7010   26.7600   47.7920 C   0  0  0  0  0  0  0  0  0  0  0  0
   59.1200   27.9800   47.2250 C   0  0  0  0  0  0  0  0  0  0  0  0
   59.3920   32.0360   46.1640 C   0  0  0  0  0  0  0  0  0  0  0  0
   58.1920   32.6090   45.6910 C   0  0  0  0  0  0  0  0  0  0  0  0
   58.0510   33.9980   45.5850 C   0  0  0  0  0  0  0  0  0  0  0  0
   56.7850   34.5840   45.0350 C   0  0  0  0  0  0  0  0  0  0  0  0
   59.1100   34.8260   45.9680 C   0  0  0  0  0  0  0  0  0  0  0  0
   60.2640   34.2770   46.5250 C   0  0  0  0  0  0  0  0  0  0  0  0
   60.3970   32.8800   46.6700 C   0  0  0  0  0  0  0  0  0  0  0  0
   61.5210   32.3040   47.3690 N   0  0  0  0  0  0  0  0  0  0  0  0
   62.7210   33.0990   47.6470 C   0  0  0  0  0  0  0  0  0  0  0  0
   61.4850   30.9250   47.8840 C   0  0  0  0  0  0  0  0  0  0  0  0
   58.2640   31.0304   52.4683 H   0  0  0  0  0  0  0  0  0  0  0  0
   57.5556   32.0110   51.1404 H   0  0  0  0  0  0  0  0  0  0  0  0
   57.3610   30.2253   51.1404 H   0  0  0  0  0  0  0  0  0  0  0  0
   59.2228   30.0747   49.8897 H   0  0  0  0  0  0  0  0  0  0  0  0
   59.5047   31.8775   50.0890 H   0  0  0  0  0  0  0  0  0  0  0  0
   60.2360   30.7540   52.4100 H   0  0  0  0  0  0  0  0  0  0  0  0
   62.1187   31.8976   52.1184 H   0  0  0  0  0  0  0  0  0  0  0  0
   62.2583   31.3321   50.3933 H   0  0  0  0  0  0  0  0  0  0  0  0
   60.6958   33.6481   51.5395 H   0  0  0  0  0  0  0  0  0  0  0  0
   61.7229   33.5612   50.0684 H   0  0  0  0  0  0  0  0  0  0  0  0
   60.0890   32.8148   50.0684 H   0  0  0  0  0  0  0  0  0  0  0  0
   62.1333   29.4035   50.8080 H   0  0  0  0  0  0  0  0  0  0  0  0
   61.1516   28.8416   52.2541 H   0  0  0  0  0  0  0  0  0  0  0  0
   60.3207   27.3427   50.8011 H   0  0  0  0  0  0  0  0  0  0  0  0
   59.2844   28.7526   50.2993 H   0  0  0  0  0  0  0  0  0  0  0  0
   61.7900   27.8790   48.8550 H   0  0  0  0  0  0  0  0  0  0  0  0
   57.7560   30.8197   44.1050 H   0  0  0  0  0  0  0  0  0  0  0  0
   59.4192   30.3609   43.6052 H   0  0  0  0  0  0  0  0  0  0  0  0
   58.1099   29.1311   43.6052 H   0  0  0  0  0  0  0  0  0  0  0  0
   57.1738   27.8771   44.3931 H   0  0  0  0  0  0  0  0  0  0  0  0
   56.5620   25.6748   45.3695 H   0  0  0  0  0  0  0  0  0  0  0  0
   57.4836   24.9852   47.5771 H   0  0  0  0  0  0  0  0  0  0  0  0
   59.0997   26.4493   48.7690 H   0  0  0  0  0  0  0  0  0  0  0  0
   57.3560   31.9553   45.4016 H   0  0  0  0  0  0  0  0  0  0  0  0
   56.1302   34.8871   45.8653 H   0  0  0  0  0  0  0  0  0  0  0  0
   57.0253   35.4625   44.4181 H   0  0  0  0  0  0  0  0  0  0  0  0
   56.2708   33.8323   44.4181 H   0  0  0  0  0  0  0  0  0  0  0  0
   59.0326   35.9145   45.8294 H   0  0  0  0  0  0  0  0  0  0  0  0
   61.0783   34.9391   46.8545 H   0  0  0  0  0  0  0  0  0  0  0  0
   62.8572   33.1892   48.7348 H   0  0  0  0  0  0  0  0  0  0  0  0
   63.5991   32.6034   47.2074 H   0  0  0  0  0  0  0  0  0  0  0  0
   62.6071   34.1009   47.2074 H   0  0  0  0  0  0  0  0  0  0  0  0
   62.4381   30.4391   47.6281 H   0  0  0  0  0  0  0  0  0  0  0  0
   61.3153   31.0035   48.9680 H   0  0  0  0  0  0  0  0  0  0  0  0
  1  2  1  0
  2  3  1  0
  3  4  1  0
  4  5  1  0
  3  6  1  0
  6  7  1  0
  7  8  1  0
  8  9  1  0
  9 10  2  0
 10 11  1  0
 11 12  2  0
 12 13  1  0
 12 14  1  0
 14 15  2  0
 15 16  1  0
 16 17  2  0
 17 18  1  0
 18 19  2  0
 11 20  1  0
 20 21  2  0
 21 22  1  0
 22 23  1  0
 22 24  2  0
 24 25  1  0
 25 26  2  0
 26 27  1  0
 27 28  1  0
 27 29  1  0
 19  9  1  0
 26 20  1  0
 29 10  1  0
 19 14  1  0
  1 30  1  0
  1 31  1  0
  1 32  1  0
  2 33  1  0
  2 34  1  0
  3 35  1  0
  4 36  1  0
  4 37  1  0
  5 38  1  0
  5 39  1  0
  5 40  1  0
  6 41  1  0
  6 42  1  0
  7 43  1  0
  7 44  1  0
  8 45  1  0
 13 46  1  0
 13 47  1  0
 13 48  1  0
 15 49  1  0
 16 50  1  0
 17 51  1  0
 18 52  1  0
 21 53  1  0
 23 54  1  0
 23 55  1  0
 23 56  1  0
 24 57  1  0
 25 58  1  0
 28 59  1  0
 28 60  1  0
 28 61  1  0
 29 62  1  0
 29 63  1  0
M  CHG  2   3   1  12   1
M  END
>  <UniqueID>  (15) 
15

>  <SMILES>  (15) 
CC[NH+](CC)CCNc1c2c([n+](C)c3ccccc13)-c1cc(C)ccc1N(C)C2

>  <Energy>  (15) 
106.63232004366411

>  <Genealogy>  (15) 
CC[NH+](CC)CCNc1c2c([n+](C)c3ccccc13)-c1cc(C)ccc1N(C)C2 (protonated)
CC[NH+](CC)CCNc1c2c([n+](C)c3ccccc13)-c1cc(C)ccc1N(C)C2 (3D coordinates assigned)
CC[NH+](CC)CCNc1c2c([n+](C)c3ccccc13)-c1cc(C)ccc1N(C)C2 (nonaromatic ring conformer: 106.63232004366411 kcal/mol)

>  <smiles>  (15) 
CCN(CC)CCNc1c2c([n+](C)c3ccccc13)-c1cc(C)ccc1N(C)C2

>  <score_type>  (15) 
oracle

>  <origin>  (15) 
adg

>  <m_score__min__energy>  (15) 
-4.8499999999999996

>  <m_primary>  (15) 
energy

$$$$
15:0
     RDKit          3D

 58 60  0  0  0  0  0  0  0  0999 V2000
   63.3840   33.8450   46.3410 C   0  0  0  0  0  0  0  0  0  0  0  0
   63.3300   32.7920   47.4500 C   0  0  0  0  0  0  0  0  0  0  0  0
   62.9980   33.3830   48.7610 N   0  0  0  0  0  0  0  0  0  0  0  0
   64.0340   33.1620   49.7820 C   0  0  0  0  0  0  0  0  0  0  0  0
   64.3870   31.6740   49.9420 C   0  0  0  0  0  0  0  0  0  0  0  0
   63.3740   30.9610   50.8350 C   0  0  0  0  0  0  0  0  0  0  0  0
   62.1160   31.5910   50.7000 O   0  0  0  0  0  0  0  0  0  0  0  0
   61.0710   30.6700   50.9500 C   0  0  0  0  0  0  0  0  0  0  0  0
   60.4810   30.1670   49.6270 C   0  0  0  0  0  0  0  0  0  0  0  0
   61.1320   30.8190   48.4760 N   0  0  0  0  0  0  0  0  0  0  0  0
   60.1880   31.0240   47.3890 C   0  0  0  0  0  0  0  0  0  0  0  0
   59.8330   29.9300   46.5490 C   0  0  0  0  0  0  0  0  0  0  0  0
   60.2380   28.6010   46.8410 C   0  0  0  0  0  0  0  0  0  0  0  0
   59.9520   27.5510   45.9740 C   0  0  0  0  0  0  0  0  0  0  0  0
   59.2660   27.7910   44.7940 C   0  0  0  0  0  0  0  0  0  0  0  0
   58.8240   29.0760   44.4940 C   0  0  0  0  0  0  0  0  0  0  0  0
   59.0550   30.1610   45.3810 C   0  0  0  0  0  0  0  0  0  0  0  0
   58.5610   31.4180   45.1110 N   0  0  0  0  0  0  0  0  0  0  0  0
   57.5230   31.5920   44.0670 C   0  0  0  0  0  0  0  0  0  0  0  0
   58.9870   32.5080   45.8430 C   0  0  0  0  0  0  0  0  0  0  0  0
   58.7380   33.8240   45.3830 C   0  0  0  0  0  0  0  0  0  0  0  0
   59.0530   34.9290   46.1560 C   0  0  0  0  0  0  0  0  0  0  0  0
   59.5930   34.7600   47.4180 C   0  0  0  0  0  0  0  0  0  0  0  0
   59.8980   33.4790   47.9070 C   0  0  0  0  0  0  0  0  0  0  0  0
   60.3480   33.3340   49.2300 O   0  0  0  0  0  0  0  0  0  0  0  0
   59.6870   33.8320   50.3900 C   0  0  0  0  0  0  0  0  0  0  0  0
   59.7010   32.3320   47.0660 C   0  0  0  0  0  0  0  0  0  0  0  0
   63.4354   34.8479   46.7899 H   0  0  0  0  0  0  0  0  0  0  0  0
   64.2747   33.6760   45.7180 H   0  0  0  0  0  0  0  0  0  0  0  0
   62.4807   33.7680   45.7180 H   0  0  0  0  0  0  0  0  0  0  0  0
   62.5640   32.0454   47.1933 H   0  0  0  0  0  0  0  0  0  0  0  0
   64.3258   32.3313   47.5285 H   0  0  0  0  0  0  0  0  0  0  0  0
   62.0700   33.0520   49.1180 H   0  0  0  0  0  0  0  0  0  0  0  0
   64.9412   33.7115   49.4903 H   0  0  0  0  0  0  0  0  0  0  0  0
   63.6399   33.5199   50.7446 H   0  0  0  0  0  0  0  0  0  0  0  0
   64.3903   31.1971   48.9508 H   0  0  0  0  0  0  0  0  0  0  0  0
   65.3793   31.5990   50.4108 H   0  0  0  0  0  0  0  0  0  0  0  0
   63.2927   29.9069   50.5314 H   0  0  0  0  0  0  0  0  0  0  0  0
   63.7035   31.0111   51.8833 H   0  0  0  0  0  0  0  0  0  0  0  0
   61.4675   29.8162   51.5190 H   0  0  0  0  0  0  0  0  0  0  0  0
   60.2808   31.1717   51.5278 H   0  0  0  0  0  0  0  0  0  0  0  0
   60.6311   29.0796   49.5566 H   0  0  0  0  0  0  0  0  0  0  0  0
   59.4084   30.4102   49.6068 H   0  0  0  0  0  0  0  0  0  0  0  0
   61.9470   30.2470   48.1620 H   0  0  0  0  0  0  0  0  0  0  0  0
   61.5940   31.7160   48.7440 H   0  0  0  0  0  0  0  0  0  0  0  0
   60.7888   28.3973   47.7711 H   0  0  0  0  0  0  0  0  0  0  0  0
   60.2709   26.5287   46.2256 H   0  0  0  0  0  0  0  0  0  0  0  0
   59.0707   26.9652   44.0940 H   0  0  0  0  0  0  0  0  0  0  0  0
   58.2853   29.2549   43.5517 H   0  0  0  0  0  0  0  0  0  0  0  0
   56.5460   31.7558   44.5451 H   0  0  0  0  0  0  0  0  0  0  0  0
   57.7749   32.4604   43.4406 H   0  0  0  0  0  0  0  0  0  0  0  0
   57.4779   30.6889   43.4406 H   0  0  0  0  0  0  0  0  0  0  0  0
   58.2851   33.9715   44.3915 H   0  0  0  0  0  0  0  0  0  0  0  0
   58.8736   35.9418   45.7660 H   0  0  0  0  0  0  0  0  0  0  0  0
   59.7863   35.6410   48.0476 H   0  0  0  0  0  0  0  0  0  0  0  0
   60.1912   33.4521   51.2908 H   0  0  0  0  0  0  0  0  0  0  0  0
   59.7202   34.9315   50.3873 H   0  0  0  0  0  0  0  0  0  0  0  0
   58.6393   33.4968   50.3873 H   0  0  0  0  0  0  0  0  0  0  0  0
  1  2  1  0
  2  3  1  0
  3  4  1  0
  4  5  1  0
  5  6  1  0
  6  7  1  0
  7  8  1  0
  8  9  1  0
  9 10  1  0
 10 11  1  0
 11 12  2  0
 12 13  1  0
 13 14  2  0
 14 15  1  0
 15 16  2  0
 16 17  1  0
 17 18  2  0
 18 19  1  0
 18 20  1  0
 20 21  2  0
 21 22  1  0
 22 23  2  0
 23 24  1  0
 24 25  1  0
 25 26  1  0
 24 27  2  0
 27 11  1  0
 17 12  1  0
 27 20  1  0
  1 28  1  0
  1 29  1  0
  1 30  1  0
  2 31  1  0
  2 32  1  0
  3 33  1  0
  4 34  1  0
  4 35  1  0
  5 36  1  0
  5 37  1  0
  6 38  1  0
  6 39  1  0
  8 40  1  0
  8 41  1  0
  9 42  1  0
  9 43  1  0
 10 44  1  0
 10 45  1  0
 13 46  1  0
 14 47  1  0
 15 48  1  0
 16 49  1  0
 19 50  1  0
 19 51  1  0
 19 52  1  0
 21 53  1  0
 22 54  1  0
 23 55  1  0
 26 56  1  0
 26 57  1  0
 26 58  1  0
M  CHG  2  10   1  18   1
M  END
>  <UniqueID>  (16) 
16

>  <SMILES>  (16) 
CCNCCCOCC[NH2+]c1c2ccccc2[n+](C)c2cccc(OC)c12

>  <Energy>  (16) 
90.08691182804829

>  <Genealogy>  (16) 
CCNCCCOCC[NH2+]c1c2ccccc2[n+](C)c2cccc(OC)c12 (protonated)
CCNCCCOCC[NH2+]c1c2ccccc2[n+](C)c2cccc(OC)c12 (3D coordinates assigned)
CCNCCCOCC[NH2+]c1c2ccccc2[n+](C)c2cccc(OC)c12 (optimized conformer: 90.08691182804829 kcal/mol)

>  <smiles>  (16) 
CCNCCCOCCNc1c2ccccc2[n+](C)c2cccc(OC)c12

>  <score_type>  (16) 
oracle

>  <origin>  (16) 
adg

>  <m_score__min__energy>  (16) 
-3.04

>  <m_primary>  (16) 
energy

$$$$
16:0
     RDKit          3D

 65 68  0  0  0  0  0  0  0  0999 V2000
   59.6310   33.7830   51.4390 C   0  0  0  0  0  0  0  0  0  0  0  0
   61.0900   33.4290   51.7410 C   0  0  0  0  0  0  0  0  0  0  0  0
   61.7210   32.6680   50.6430 N   0  0  0  0  0  0  0  0  0  0  0  0
   62.6760   31.6410   51.1110 C   0  0  0  0  0  0  0  0  0  0  0  0
   63.9820   31.5830   50.2850 C   0  0  0  0  0  0  0  0  0  0  0  0
   64.4790   32.9620   49.8150 C   0  0  0  0  0  0  0  0  0  0  0  0
   63.6340   33.5050   48.8210 O   0  0  0  0  0  0  0  0  0  0  0  0
   63.7000   32.7680   47.6140 C   0  0  0  0  0  0  0  0  0  0  0  0
   62.3110   32.2370   47.2770 C   0  0  0  0  0  0  0  0  0  0  0  0
   61.3570   32.9050   48.0720 O   0  0  0  0  0  0  0  0  0  0  0  0
   60.9320   34.0900   47.4310 C   0  0  0  0  0  0  0  0  0  0  0  0
   59.4650   34.3530   47.7740 C   0  0  0  0  0  0  0  0  0  0  0  0
   58.8120   33.1270   48.2420 N   0  0  0  0  0  0  0  0  0  0  0  0
   58.6820   31.9830   47.3820 C   0  0  0  0  0  0  0  0  0  0  0  0
   58.9750   30.7130   47.8660 C   0  0  0  0  0  0  0  0  0  0  0  0
   59.0470   29.6240   47.0030 C   0  0  0  0  0  0  0  0  0  0  0  0
   58.7830   29.7180   45.6660 N   0  0  0  0  0  0  0  0  0  0  0  0
   58.8670   28.5230   44.8100 C   0  0  0  0  0  0  0  0  0  0  0  0
   58.4290   30.9560   45.1510 C   0  0  0  0  0  0  0  0  0  0  0  0
   58.1460   31.1310   43.7750 C   0  0  0  0  0  0  0  0  0  0  0  0
   57.7690   32.3760   43.2720 C   0  0  0  0  0  0  0  0  0  0  0  0
   57.6620   33.4740   44.1190 C   0  0  0  0  0  0  0  0  0  0  0  0
   57.9520   33.3450   45.4750 C   0  0  0  0  0  0  0  0  0  0  0  0
   58.3580   32.1070   46.0090 C   0  0  0  0  0  0  0  0  0  0  0  0
   59.6270   28.5260   47.7800 C   0  0  0  0  0  0  0  0  0  0  0  0
   60.1770   27.3670   47.5230 O   0  0  0  0  0  0  0  0  0  0  0  0
   60.7590   26.9720   48.6490 C   0  0  0  0  0  0  0  0  0  0  0  0
   60.5710   27.9270   49.6560 C   0  0  0  0  0  0  0  0  0  0  0  0
   61.2780   28.0110   50.9670 C   0  0  0  0  0  0  0  0  0  0  0  0
   59.8210   28.9000   49.0510 C   0  0  0  0  0  0  0  0  0  0  0  0
   59.4480   30.2940   49.2030 C   0  0  0  0  0  0  0  0  0  0  0  0
   59.5350   30.9910   50.2460 O   0  0  0  0  0  0  0  0  0  0  0  0
   59.0829   33.9160   52.3834 H   0  0  0  0  0  0  0  0  0  0  0  0
   59.5928   34.7165   50.8583 H   0  0  0  0  0  0  0  0  0  0  0  0
   59.1693   32.9708   50.8583 H   0  0  0  0  0  0  0  0  0  0  0  0
   61.6550   34.3599   51.8965 H   0  0  0  0  0  0  0  0  0  0  0  0
   61.1035   32.7959   52.6405 H   0  0  0  0  0  0  0  0  0  0  0  0
   60.9780   32.1980   50.0750 H   0  0  0  0  0  0  0  0  0  0  0  0
   62.1950   33.3370   49.9980 H   0  0  0  0  0  0  0  0  0  0  0  0
   62.9363   31.8600   52.1571 H   0  0  0  0  0  0  0  0  0  0  0  0
   62.1802   30.6657   50.9968 H   0  0  0  0  0  0  0  0  0  0  0  0
   64.7656   31.1247   50.9062 H   0  0  0  0  0  0  0  0  0  0  0  0
   63.7648   30.9946   49.3813 H   0  0  0  0  0  0  0  0  0  0  0  0
   64.5034   33.6459   50.6762 H   0  0  0  0  0  0  0  0  0  0  0  0
   65.4838   32.8389   49.3847 H   0  0  0  0  0  0  0  0  0  0  0  0
   64.0514   33.4216   46.8021 H   0  0  0  0  0  0  0  0  0  0  0  0
   64.3998   31.9274   47.7309 H   0  0  0  0  0  0  0  0  0  0  0  0
   62.0956   32.4173   46.2135 H   0  0  0  0  0  0  0  0  0  0  0  0
   62.2687   31.1561   47.4766 H   0  0  0  0  0  0  0  0  0  0  0  0
   61.5468   34.9346   47.7753 H   0  0  0  0  0  0  0  0  0  0  0  0
   61.0413   33.9790   46.3421 H   0  0  0  0  0  0  0  0  0  0  0  0
   59.4107   35.1152   48.5653 H   0  0  0  0  0  0  0  0  0  0  0  0
   58.9486   34.7039   46.8683 H   0  0  0  0  0  0  0  0  0  0  0  0
   58.7780   32.9690   49.2740 H   0  0  0  0  0  0  0  0  0  0  0  0
   58.9302   27.6239   45.4406 H   0  0  0  0  0  0  0  0  0  0  0  0
   57.9708   28.4632   44.1749 H   0  0  0  0  0  0  0  0  0  0  0  0
   59.7627   28.5891   44.1749 H   0  0  0  0  0  0  0  0  0  0  0  0
   58.2246   30.2721   43.0923 H   0  0  0  0  0  0  0  0  0  0  0  0
   57.5550   32.4902   42.1991 H   0  0  0  0  0  0  0  0  0  0  0  0
   57.3471   34.4480   43.7163 H   0  0  0  0  0  0  0  0  0  0  0  0
   57.8629   34.2197   46.1360 H   0  0  0  0  0  0  0  0  0  0  0  0
   61.3106   26.0285   48.7734 H   0  0  0  0  0  0  0  0  0  0  0  0
   60.5468   27.9241   51.7842 H   0  0  0  0  0  0  0  0  0  0  0  0
   62.0102   27.1935   51.0417 H   0  0  0  0  0  0  0  0  0  0  0  0
   61.7983   28.9773   51.0417 H   0  0  0  0  0  0  0  0  0  0  0  0
  1  2  1  0
  2  3  1  0
  3  4  1  0
  4  5  1  0
  5  6  1  0
  6  7  1  0
  7  8  1  0
  8  9  1  0
  9 10  1  0
 10 11  1  0
 11 12  1  0
 12 13  1  0
 13 14  1  0
 14 15  2  0
 15 16  1  0
 16 17  2  0
 17 18  1  0
 17 19  1  0
 19 20  2  0
 20 21  1  0
 21 22  2  0
 22 23  1  0
 23 24  2  0
 16 25  1  0
 25 26  1  0
 26 27  1  0
 27 28  2  0
 28 29  1  0
 28 30  1  0
 30 31  1  0
 31 32  2  0
 24 14  1  0
 30 25  2  0
 31 15  1  0
 24 19  1  0
  1 33  1  0
  1 34  1  0
  1 35  1  0
  2 36  1  0
  2 37  1  0
  3 38  1  0
  3 39  1  0
  4 40  1  0
  4 41  1  0
  5 42  1  0
  5 43  1  0
  6 44  1  0
  6 45  1  0
  8 46  1  0
  8 47  1  0
  9 48  1  0
  9 49  1  0
 11 50  1  0
 11 51  1  0
 12 52  1  0
 12 53  1  0
 13 54  1  0
 18 55  1  0
 18 56  1  0
 18 57  1  0
 20 58  1  0
 21 59  1  0
 22 60  1  0
 23 61  1  0
 27 62  1  0
 29 63  1  0
 29 64  1  0
 29 65  1  0
M  CHG  2   3   1  17   1
M  END
>  <UniqueID>  (17) 
17

>  <SMILES>  (17) 
CC[NH2+]CCCOCCOCCNc1c2c([n+](C)c3ccccc13)-c1occ(C)c1C2=O

>  <Energy>  (17) 
157.41076000689137

>  <Genealogy>  (17) 
CC[NH2+]CCCOCCOCCNc1c2c([n+](C)c3ccccc13)-c1occ(C)c1C2=O (protonated)
CC[NH2+]CCCOCCOCCNc1c2c([n+](C)c3ccccc13)-c1occ(C)c1C2=O (3D coordinates assigned)
CC[NH2+]CCCOCCOCCNc1c2c([n+](C)c3ccccc13)-c1occ(C)c1C2=O (nonaromatic ring conformer: 157.41076000689137 kcal/mol)

>  <smiles>  (17) 
CCNCCCOCCOCCNc1c2c([n+](C)c3ccccc13)-c1occ(C)c1C2=O

>  <score_type>  (17) 
oracle

>  <origin>  (17) 
adg

>  <m_score__min__energy>  (17) 
-5.2400000000000002

>  <m_primary>  (17) 
energy

$$$$
17:0
     RDKit          3D

 58 60  0  0  0  0  0  0  0  0999 V2000
   59.6580   28.9490   49.8470 C   0  0  0  0  0  0  0  0  0  0  0  0
   58.9240   30.2440   50.1880 C   0  0  0  0  0  0  0  0  0  0  0  0
   59.7950   31.4100   49.9820 N   0  0  0  0  0  0  0  0  0  0  0  0
   59.0400   32.6700   49.8490 C   0  0  0  0  0  0  0  0  0  0  0  0
   59.9390   33.8610   50.1960 C   0  0  0  0  0  0  0  0  0  0  0  0
   60.9810   34.1290   49.1070 C   0  0  0  0  0  0  0  0  0  0  0  0
   62.4470   33.0630   49.3550 S   0  0  0  0  0  0  0  0  0  0  0  0
   62.7920   32.7400   47.5850 C   0  0  0  0  0  0  0  0  0  0  0  0
   62.1980   31.3990   47.1310 C   0  0  0  0  0  0  0  0  0  0  0  0
   60.8280   31.2130   47.6380 N   0  0  0  0  0  0  0  0  0  0  0  0
   59.8990   31.0000   46.5420 C   0  0  0  0  0  0  0  0  0  0  0  0
   59.2900   32.0960   45.8830 C   0  0  0  0  0  0  0  0  0  0  0  0
   58.2890   31.8610   44.9160 C   0  0  0  0  0  0  0  0  0  0  0  0
   57.8480   30.5820   44.6610 N   0  0  0  0  0  0  0  0  0  0  0  0
   56.5900   30.3800   43.9120 C   0  0  0  0  0  0  0  0  0  0  0  0
   58.5830   29.5030   45.1080 C   0  0  0  0  0  0  0  0  0  0  0  0
   58.3540   28.1960   44.6050 C   0  0  0  0  0  0  0  0  0  0  0  0
   59.0860   27.1070   45.0700 C   0  0  0  0  0  0  0  0  0  0  0  0
   60.0750   27.2890   46.0260 C   0  0  0  0  0  0  0  0  0  0  0  0
   60.3490   28.5620   46.5170 C   0  0  0  0  0  0  0  0  0  0  0  0
   59.6160   29.6900   46.0710 C   0  0  0  0  0  0  0  0  0  0  0  0
   57.7940   33.0730   44.1400 C   0  0  0  0  0  0  0  0  0  0  0  0
   57.4150   34.2070   45.1030 C   0  0  0  0  0  0  0  0  0  0  0  0
   58.4710   34.4560   46.2070 C   0  0  0  0  0  0  0  0  0  0  0  0
   59.7050   33.5460   46.1000 C   0  0  0  0  0  0  0  0  0  0  0  0
   59.9484   28.4366   50.7760 H   0  0  0  0  0  0  0  0  0  0  0  0
   58.9958   28.2959   49.2597 H   0  0  0  0  0  0  0  0  0  0  0  0
   60.5585   29.1817   49.2597 H   0  0  0  0  0  0  0  0  0  0  0  0
   58.0386   30.3371   49.5419 H   0  0  0  0  0  0  0  0  0  0  0  0
   58.6254   30.2107   51.2462 H   0  0  0  0  0  0  0  0  0  0  0  0
   60.4220   31.4900   50.8180 H   0  0  0  0  0  0  0  0  0  0  0  0
   58.6832   32.7729   48.8136 H   0  0  0  0  0  0  0  0  0  0  0  0
   58.1839   32.6516   50.5395 H   0  0  0  0  0  0  0  0  0  0  0  0
   59.3117   34.7566   50.3155 H   0  0  0  0  0  0  0  0  0  0  0  0
   60.4740   33.6231   51.1272 H   0  0  0  0  0  0  0  0  0  0  0  0
   60.5397   33.9158   48.1222 H   0  0  0  0  0  0  0  0  0  0  0  0
   61.2917   35.1829   49.1606 H   0  0  0  0  0  0  0  0  0  0  0  0
   62.3522   33.5481   46.9820 H   0  0  0  0  0  0  0  0  0  0  0  0
   63.8827   32.6981   47.4483 H   0  0  0  0  0  0  0  0  0  0  0  0
   62.1785   31.3713   46.0315 H   0  0  0  0  0  0  0  0  0  0  0  0
   62.8263   30.5908   47.5335 H   0  0  0  0  0  0  0  0  0  0  0  0
   60.7830   30.4180   48.3120 H   0  0  0  0  0  0  0  0  0  0  0  0
   60.5360   32.0320   48.2160 H   0  0  0  0  0  0  0  0  0  0  0  0
   55.7590   30.2466   44.6202 H   0  0  0  0  0  0  0  0  0  0  0  0
   56.3950   31.2583   43.2792 H   0  0  0  0  0  0  0  0  0  0  0  0
   56.6798   29.4848   43.2792 H   0  0  0  0  0  0  0  0  0  0  0  0
   57.5847   28.0406   43.8343 H   0  0  0  0  0  0  0  0  0  0  0  0
   58.8799   26.0999   44.6786 H   0  0  0  0  0  0  0  0  0  0  0  0
   60.6444   26.4241   46.3971 H   0  0  0  0  0  0  0  0  0  0  0  0
   61.1467   28.6947   47.2627 H   0  0  0  0  0  0  0  0  0  0  0  0
   58.5900   33.4213   43.4654 H   0  0  0  0  0  0  0  0  0  0  0  0
   56.9049   32.7860   43.5593 H   0  0  0  0  0  0  0  0  0  0  0  0
   57.2943   35.1326   44.5211 H   0  0  0  0  0  0  0  0  0  0  0  0
   56.4840   33.9074   45.6064 H   0  0  0  0  0  0  0  0  0  0  0  0
   58.8043   35.5021   46.1388 H   0  0  0  0  0  0  0  0  0  0  0  0
   57.9884   34.2304   47.1694 H   0  0  0  0  0  0  0  0  0  0  0  0
   60.3234   33.8750   45.2519 H   0  0  0  0  0  0  0  0  0  0  0  0
   60.2754   33.6132   47.0382 H   0  0  0  0  0  0  0  0  0  0  0  0
  1  2  1  0
  2  3  1  0
  3  4  1  0
  4  5  1  0
  5  6  1  0
  6  7  1  0
  7  8  1  0
  8  9  1  0
  9 10  1  0
 10 11  1  0
 11 12  2  0
 12 13  1  0
 13 14  2  0
 14 15  1  0
 14 16  1  0
 16 17  2  0
 17 18  1  0
 18 19  2  0
 19 20  1  0
 20 21  2  0
 13 22  1  0
 22 23  1  0
 23 24  1  0
 24 25  1  0
 21 11  1  0
 25 12  1  0
 21 16  1  0
  1 26  1  0
  1 27  1  0
  1 28  1  0
  2 29  1  0
  2 30  1  0
  3 31  1  0
  4 32  1  0
  4 33  1  0
  5 34  1  0
  5 35  1  0
  6 36  1  0
  6 37  1  0
  8 38  1  0
  8 39  1  0
  9 40  1  0
  9 41  1  0
 10 42  1  0
 10 43  1  0
 15 44  1  0
 15 45  1  0
 15 46  1  0
 17 47  1  0
 18 48  1  0
 19 49  1  0
 20 50  1  0
 22 51  1  0
 22 52  1  0
 23 53  1  0
 23 54  1  0
 24 55  1  0
 24 56  1  0
 25 57  1  0
 25 58  1  0
M  CHG  2  10   1  14   1
M  END
>  <UniqueID>  (18) 
18

>  <SMILES>  (18) 
CCNCCCSCC[NH2+]c1c2c([n+](C)c3ccccc13)CCCC2

>  <Energy>  (18) 
77.44688256356795

>  <Genealogy>  (18) 
CCNCCCSCC[NH2+]c1c2c([n+](C)c3ccccc13)CCCC2 (protonated)
CCNCCCSCC[NH2+]c1c2c([n+](C)c3ccccc13)CCCC2 (3D coordinates assigned)
CCNCCCSCC[NH2+]c1c2c([n+](C)c3ccccc13)CCCC2 (nonaromatic ring conformer: 77.44688256356795 kcal/mol)

>  <smiles>  (18) 
CCNCCCSCCNc1c2c([n+](C)c3ccccc13)CCCC2

>  <score_type>  (18) 
oracle

>  <origin>  (18) 
adg

>  <m_score__min__energy>  (18) 
-5.0099999999999998

>  <m_primary>  (18) 
energy

$$$$
18:0
     RDKit          3D

 86 90  0  0  0  0  0  0  0  0999 V2000
   60.5410   31.9430   52.7990 C   0  0  0  0  0  0  0  0  0  0  0  0
   59.8470   32.1650   51.4370 C   0  0  2  0  0  0  0  0  0  0  0  0
   58.6260   33.0660   51.6000 C   0  0  0  0  0  0  0  0  0  0  0  0
   57.4490   32.1130   51.7660 C   0  0  0  0  0  0  0  0  0  0  0  0
   57.9780   30.7360   51.3690 C   0  0  0  0  0  0  0  0  0  0  0  0
   59.3190   30.9360   50.8180 N   0  0  0  0  0  0  0  0  0  0  0  0
   60.1580   29.7240   50.8810 C   0  0  0  0  0  0  0  0  0  0  0  0
   61.1620   29.6520   49.7150 C   0  0  0  0  0  0  0  0  0  0  0  0
   60.5200   29.4360   48.3300 C   0  0  0  0  0  0  0  0  0  0  0  0
   59.1050   29.8490   48.2970 N   0  0  0  0  0  0  0  0  0  0  0  0
   58.8610   30.7150   47.1540 C   0  0  0  0  0  0  0  0  0  0  0  0
   58.1640   30.2420   46.0130 C   0  0  0  0  0  0  0  0  0  0  0  0
   57.7910   28.8810   45.8790 C   0  0  0  0  0  0  0  0  0  0  0  0
   57.0300   28.4470   44.7950 C   0  0  0  0  0  0  0  0  0  0  0  0
   56.6170   29.3510   43.8280 C   0  0  0  0  0  0  0  0  0  0  0  0
   57.0080   30.6850   43.9080 C   0  0  0  0  0  0  0  0  0  0  0  0
   57.8390   31.1460   44.9630 C   0  0  0  0  0  0  0  0  0  0  0  0
   58.3260   32.4390   44.9740 N   0  0  0  0  0  0  0  0  0  0  0  0
   58.2490   33.2630   43.7420 C   0  0  0  0  0  0  0  0  0  0  0  0
   58.9520   32.9360   46.1000 C   0  0  0  0  0  0  0  0  0  0  0  0
   59.2720   34.3140   46.2240 C   0  0  0  0  0  0  0  0  0  0  0  0
   60.0080   34.7960   47.3090 C   0  0  0  0  0  0  0  0  0  0  0  0
   60.4240   33.9230   48.3170 C   0  0  0  0  0  0  0  0  0  0  0  0
   61.1790   34.3350   49.4270 O   0  0  0  0  0  0  0  0  0  0  0  0
   62.5960   34.5040   49.4560 C   0  0  0  0  0  0  0  0  0  0  0  0
   63.2510   34.2320   50.8410 C   0  0  0  0  0  0  0  0  0  0  0  0
   64.1950   33.0620   50.9720 N   0  0  0  0  0  0  0  0  0  0  0  0
   63.4000   31.8010   50.9760 C   0  0  0  0  0  0  0  0  0  0  0  0
   65.2210   33.0320   49.8710 C   0  0  0  0  0  0  0  0  0  0  0  0
   66.6960   33.0220   50.3430 C   0  0  0  0  0  0  0  0  0  0  0  0
   66.9670   32.0420   51.4320 N   0  0  0  0  0  0  0  0  0  0  0  0
   68.3420   32.2950   51.9390 C   0  0  0  0  0  0  0  0  0  0  0  0
   66.9510   30.6590   50.8850 C   0  0  0  0  0  0  0  0  0  0  0  0
   65.9880   32.1740   52.5640 C   0  0  0  0  0  0  0  0  0  0  0  0
   64.8540   33.1970   52.3090 C   0  0  0  0  0  0  0  0  0  0  0  0
   60.0540   32.5830   48.2500 C   0  0  0  0  0  0  0  0  0  0  0  0
   59.2870   32.0710   47.1770 C   0  0  0  0  0  0  0  0  0  0  0  0
   59.8348   32.1689   53.6115 H   0  0  0  0  0  0  0  0  0  0  0  0
   60.8676   30.8956   52.8777 H   0  0  0  0  0  0  0  0  0  0  0  0
   61.4149   32.6064   52.8777 H   0  0  0  0  0  0  0  0  0  0  0  0
   60.6365   32.5962   50.8039 H   0  0  0  0  0  0  0  0  0  0  0  0
   58.7336   33.7053   52.4887 H   0  0  0  0  0  0  0  0  0  0  0  0
   58.4930   33.7395   50.7405 H   0  0  0  0  0  0  0  0  0  0  0  0
   57.1048   32.1058   52.8108 H   0  0  0  0  0  0  0  0  0  0  0  0
   56.5906   32.4138   51.1473 H   0  0  0  0  0  0  0  0  0  0  0  0
   58.0258   30.0808   52.2513 H   0  0  0  0  0  0  0  0  0  0  0  0
   57.3169   30.2592   50.6303 H   0  0  0  0  0  0  0  0  0  0  0  0
   60.7155   29.7277   51.8292 H   0  0  0  0  0  0  0  0  0  0  0  0
   59.4947   28.8493   50.8109 H   0  0  0  0  0  0  0  0  0  0  0  0
   61.7260   30.5960   49.6886 H   0  0  0  0  0  0  0  0  0  0  0  0
   61.7987   28.7753   49.9045 H   0  0  0  0  0  0  0  0  0  0  0  0
   61.0774   30.0245   47.5864 H   0  0  0  0  0  0  0  0  0  0  0  0
   60.5612   28.3601   48.1048 H   0  0  0  0  0  0  0  0  0  0  0  0
   58.4850   29.0090   48.2890 H   0  0  0  0  0  0  0  0  0  0  0  0
   58.8280   30.3280   49.1810 H   0  0  0  0  0  0  0  0  0  0  0  0
   58.1073   28.1556   46.6430 H   0  0  0  0  0  0  0  0  0  0  0  0
   56.7565   27.3852   44.7064 H   0  0  0  0  0  0  0  0  0  0  0  0
   55.9799   29.0140   42.9970 H   0  0  0  0  0  0  0  0  0  0  0  0
   56.6669   31.3947   43.1399 H   0  0  0  0  0  0  0  0  0  0  0  0
   58.1499   34.3237   44.0159 H   0  0  0  0  0  0  0  0  0  0  0  0
   59.1643   33.1216   43.1485 H   0  0  0  0  0  0  0  0  0  0  0  0
   57.3758   32.9544   43.1485 H   0  0  0  0  0  0  0  0  0  0  0  0
   58.9330   35.0170   45.4489 H   0  0  0  0  0  0  0  0  0  0  0  0
   60.2604   35.8649   47.3697 H   0  0  0  0  0  0  0  0  0  0  0  0
   63.0394   33.8122   48.7247 H   0  0  0  0  0  0  0  0  0  0  0  0
   62.7894   35.5611   49.2211 H   0  0  0  0  0  0  0  0  0  0  0  0
   63.8134   35.1360   51.1177 H   0  0  0  0  0  0  0  0  0  0  0  0
   62.4047   33.9704   51.4932 H   0  0  0  0  0  0  0  0  0  0  0  0
   63.2059   31.4932   52.0141 H   0  0  0  0  0  0  0  0  0  0  0  0
   62.4440   31.9686   50.4584 H   0  0  0  0  0  0  0  0  0  0  0  0
   63.9635   31.0107   50.4584 H   0  0  0  0  0  0  0  0  0  0  0  0
   65.0497   32.1260   49.2711 H   0  0  0  0  0  0  0  0  0  0  0  0
   65.0883   33.9659   49.3052 H   0  0  0  0  0  0  0  0  0  0  0  0
   67.3346   32.7717   49.4831 H   0  0  0  0  0  0  0  0  0  0  0  0
   66.9121   34.0218   50.7476 H   0  0  0  0  0  0  0  0  0  0  0  0
   68.3333   32.2934   53.0390 H   0  0  0  0  0  0  0  0  0  0  0  0
   69.0174   31.5060   51.5765 H   0  0  0  0  0  0  0  0  0  0  0  0
   68.6923   33.2727   51.5765 H   0  0  0  0  0  0  0  0  0  0  0  0
   66.9426   29.9367   51.7146 H   0  0  0  0  0  0  0  0  0  0  0  0
   66.0512   30.5191   50.2679 H   0  0  0  0  0  0  0  0  0  0  0  0
   67.8473   30.4984   50.2679 H   0  0  0  0  0  0  0  0  0  0  0  0
   65.5305   31.1893   52.7405 H   0  0  0  0  0  0  0  0  0  0  0  0
   66.5561   32.5427   53.4307 H   0  0  0  0  0  0  0  0  0  0  0  0
   64.0874   33.0632   53.0865 H   0  0  0  0  0  0  0  0  0  0  0  0
   65.3168   34.1946   52.3339 H   0  0  0  0  0  0  0  0  0  0  0  0
   60.3671   31.9019   49.0550 H   0  0  0  0  0  0  0  0  0  0  0  0
  1  2  1  0
  2  3  1  0
  3  4  1  0
  4  5  1  0
  5  6  1  0
  6  7  1  0
  7  8  1  0
  8  9  1  0
  9 10  1  0
 10 11  1  0
 11 12  1  0
 12 13  2  0
 13 14  1  0
 14 15  2  0
 15 16  1  0
 16 17  2  0
 17 18  1  0
 18 19  1  0
 18 20  2  0
 20 21  1  0
 21 22  2  0
 22 23  1  0
 23 24  1  0
 24 25  1  0
 25 26  1  0
 26 27  1  0
 27 28  1  0
 27 29  1  0
 29 30  1  0
 30 31  1  0
 31 32  1  0
 31 33  1  0
 31 34  1  0
 34 35  1  0
 23 36  2  0
 36 37  1  0
  6  2  1  0
 37 11  2  0
 17 12  1  0
 37 20  1  0
 35 27  1  0
  1 38  1  0
  1 39  1  0
  1 40  1  0
  2 41  1  6
  3 42  1  0
  3 43  1  0
  4 44  1  0
  4 45  1  0
  5 46  1  0
  5 47  1  0
  7 48  1  0
  7 49  1  0
  8 50  1  0
  8 51  1  0
  9 52  1  0
  9 53  1  0
 10 54  1  0
 10 55  1  0
 13 56  1  0
 14 57  1  0
 15 58  1  0
 16 59  1  0
 19 60  1  0
 19 61  1  0
 19 62  1  0
 21 63  1  0
 22 64  1  0
 25 65  1  0
 25 66  1  0
 26 67  1  0
 26 68  1  0
 28 69  1  0
 28 70  1  0
 28 71  1  0
 29 72  1  0
 29 73  1  0
 30 74  1  0
 30 75  1  0
 32 76  1  0
 32 77  1  0
 32 78  1  0
 33 79  1  0
 33 80  1  0
 33 81  1  0
 34 82  1  0
 34 83  1  0
 35 84  1  0
 35 85  1  0
 36 86  1  0
M  CHG  4  10   1  18   1  27   1  31   1
M  END
>  <UniqueID>  (19) 
19

>  <SMILES>  (19) 
C[C@@H]1CCCN1CCC[NH2+]c1c2ccccc2[n+](C)c2ccc(OCC[N+]3(C)CC[N+](C)(C)CC3)cc12

>  <Energy>  (19) 
154.58223354813708

>  <Genealogy>  (19) 
CC1CCCN1CCC[NH2+]c1c2ccccc2[n+](C)c2ccc(OCC[N+]3(C)CC[N+](C)(C)CC3)cc12 (protonated)
C[C@@H]1CCCN1CCC[NH2+]c1c2ccccc2[n+](C)c2ccc(OCC[N+]3(C)CC[N+](C)(C)CC3)cc12 (chirality)
C[C@@H]1CCCN1CCC[NH2+]c1c2ccccc2[n+](C)c2ccc(OCC[N+]3(C)CC[N+](C)(C)CC3)cc12 (3D coordinates assigned)
C[C@@H]1CCCN1CCC[NH2+]c1c2ccccc2[n+](C)c2ccc(OCC[N+]3(C)CC[N+](C)(C)CC3)cc12 (nonaromatic ring conformer: 154.58223354813708 kcal/mol)

>  <smiles>  (19) 
CC1CCCN1CCCNc1c2ccccc2[n+](C)c2ccc(OCC[N+]3(C)CC[N+](C)(C)CC3)cc12

>  <score_type>  (19) 
oracle

>  <origin>  (19) 
adg

>  <m_score__min__energy>  (19) 
-3.5899999999999999

>  <m_primary>  (19) 
energy

$$$$
19:0
     RDKit          3D

 42 41  0  0  0  0  0  0  0  0999 V2000
   59.9740   34.2260   48.2430 C   0  0  0  0  0  0  0  0  0  0  0  0
   58.9150   34.5590   47.1950 C   0  0  0  0  0  0  0  0  0  0  0  0
   59.5650   34.9300   45.8530 C   0  0  0  0  0  0  0  0  0  0  0  0
   58.9160   34.2060   44.6620 C   0  0  0  0  0  0  0  0  0  0  0  0
   57.4460   33.8340   44.9260 C   0  0  0  0  0  0  0  0  0  0  0  0
   57.2430   32.3150   45.0410 C   0  0  0  0  0  0  0  0  0  0  0  0
   57.3910   31.5710   43.6960 C   0  0  0  0  0  0  0  0  0  0  0  0
   56.3360   30.0980   43.5640 S   0  0  0  0  0  0  0  0  0  0  0  0
   55.5300   30.0790   44.8560 O   0  0  0  0  0  0  0  0  0  0  0  0
   57.3960   28.6330   43.6760 C   0  0  0  0  0  0  0  0  0  0  0  0
   57.4070   28.0670   45.0960 C   0  0  0  0  0  0  0  0  0  0  0  0
   57.9590   29.0540   46.0340 N   0  0  0  0  0  0  0  0  0  0  0  0
   59.3430   29.4130   45.6910 C   0  0  0  0  0  0  0  0  0  0  0  0
   59.8320   30.6080   46.5230 C   0  0  0  0  0  0  0  0  0  0  0  0
   58.9580   30.8500   47.7520 C   0  0  0  0  0  0  0  0  0  0  0  0
   59.5492   34.3596   49.2488 H   0  0  0  0  0  0  0  0  0  0  0  0
   60.2985   33.1825   48.1176 H   0  0  0  0  0  0  0  0  0  0  0  0
   60.8373   34.8960   48.1176 H   0  0  0  0  0  0  0  0  0  0  0  0
   58.2649   33.6836   47.0499 H   0  0  0  0  0  0  0  0  0  0  0  0
   58.3293   35.4197   47.5502 H   0  0  0  0  0  0  0  0  0  0  0  0
   59.4666   36.0151   45.7019 H   0  0  0  0  0  0  0  0  0  0  0  0
   60.6197   34.6206   45.8966 H   0  0  0  0  0  0  0  0  0  0  0  0
   58.9603   34.8650   43.7823 H   0  0  0  0  0  0  0  0  0  0  0  0
   59.4720   33.2714   44.4967 H   0  0  0  0  0  0  0  0  0  0  0  0
   57.1243   34.3065   45.8658 H   0  0  0  0  0  0  0  0  0  0  0  0
   56.8492   34.1908   44.0737 H   0  0  0  0  0  0  0  0  0  0  0  0
   57.9894   31.9161   45.7437 H   0  0  0  0  0  0  0  0  0  0  0  0
   56.2127   32.1514   45.3900 H   0  0  0  0  0  0  0  0  0  0  0  0
   57.1254   32.2636   42.8837 H   0  0  0  0  0  0  0  0  0  0  0  0
   58.4344   31.2293   43.6279 H   0  0  0  0  0  0  0  0  0  0  0  0
   57.0193   27.8637   42.9858 H   0  0  0  0  0  0  0  0  0  0  0  0
   58.4226   28.9241   43.4087 H   0  0  0  0  0  0  0  0  0  0  0  0
   56.3783   27.8177   45.3953 H   0  0  0  0  0  0  0  0  0  0  0  0
   58.0347   27.1639   45.1164 H   0  0  0  0  0  0  0  0  0  0  0  0
   57.3750   29.9200   45.9630 H   0  0  0  0  0  0  0  0  0  0  0  0
   59.9960   28.5495   45.8859 H   0  0  0  0  0  0  0  0  0  0  0  0
   59.3757   29.6935   44.6279 H   0  0  0  0  0  0  0  0  0  0  0  0
   60.8625   30.4115   46.8540 H   0  0  0  0  0  0  0  0  0  0  0  0
   59.7800   31.5054   45.8890 H   0  0  0  0  0  0  0  0  0  0  0  0
   59.5524   30.6854   48.6628 H   0  0  0  0  0  0  0  0  0  0  0  0
   58.5857   31.8850   47.7391 H   0  0  0  0  0  0  0  0  0  0  0  0
   58.1064   30.1539   47.7391 H   0  0  0  0  0  0  0  0  0  0  0  0
  1  2  1  0
  2  3  1  0
  3  4  1  0
  4  5  1  0
  5  6  1  0
  6  7  1  0
  8  7  1  1
  8  9  2  0
  8 10  1  0
 10 11  1  0
 11 12  1  0
 12 13  1  0
 13 14  1  0
 14 15  1  0
  1 16  1  0
  1 17  1  0
  1 18  1  0
  2 19  1  0
  2 20  1  0
  3 21  1  0
  3 22  1  0
  4 23  1  0
  4 24  1  0
  5 25  1  0
  5 26  1  0
  6 27  1  0
  6 28  1  0
  7 29  1  0
  7 30  1  0
 10 31  1  0
 10 32  1  0
 11 33  1  0
 11 34  1  0
 12 35  1  0
 13 36  1  0
 13 37  1  0
 14 38  1  0
 14 39  1  0
 15 40  1  0
 15 41  1  0
 15 42  1  0
M  END
>  <UniqueID>  (20) 
20

>  <SMILES>  (20) 
CCCCCCC[S@](=O)CCNCCC

>  <Energy>  (20) 
15.494181507871481

>  <Genealogy>  (20) 
CCCCCCC[S@](=O)CCNCCC (chirality)
CCCCCCC[S@](=O)CCNCCC (3D coordinates assigned)
CCCCCCC[S@](=O)CCNCCC (optimized conformer: 15.494181507871481 kcal/mol)

>  <smiles>  (20) 
CCCCCCCS(=O)CCNCCC

>  <score_type>  (20) 
oracle

>  <origin>  (20) 
adg

>  <m_score__min__energy>  (20) 
-5.4500000000000002

>  <m_primary>  (20) 
energy

$$$$
20:0
     RDKit          3D

 46 48  0  0  0  0  0  0  0  0999 V2000
   62.4610   33.8180   46.4160 C   0  0  0  0  0  0  0  0  0  0  0  0
   63.7690   33.0910   46.7410 C   0  0  0  0  0  0  0  0  0  0  0  0
   63.5590   31.9010   47.5860 N   0  0  0  0  0  0  0  0  0  0  0  0
   62.7750   32.2080   48.7950 C   0  0  0  0  0  0  0  0  0  0  0  0
   62.1330   30.9330   49.3640 C   0  0  0  0  0  0  0  0  0  0  0  0
   60.8340   30.5550   48.6410 C   0  0  0  0  0  0  0  0  0  0  0  0
   60.9570   30.7180   47.2250 O   0  0  0  0  0  0  0  0  0  0  0  0
   59.8560   30.7150   46.3550 C   0  0  0  0  0  0  0  0  0  0  0  0
   59.4350   29.5080   45.7830 C   0  0  0  0  0  0  0  0  0  0  0  0
   60.0340   28.2910   46.1640 C   0  0  0  0  0  0  0  0  0  0  0  0
   59.6050   27.0860   45.6110 C   0  0  0  0  0  0  0  0  0  0  0  0
   58.5690   27.0760   44.6830 C   0  0  0  0  0  0  0  0  0  0  0  0
   57.9700   28.2720   44.2840 C   0  0  0  0  0  0  0  0  0  0  0  0
   58.4110   29.5170   44.8000 C   0  0  0  0  0  0  0  0  0  0  0  0
   57.8690   30.7180   44.3790 N   0  0  0  0  0  0  0  0  0  0  0  0
   57.0250   30.7630   43.1640 C   0  0  0  0  0  0  0  0  0  0  0  0
   58.1270   31.8770   45.0870 C   0  0  0  0  0  0  0  0  0  0  0  0
   57.3820   33.0650   44.8760 C   0  0  0  0  0  0  0  0  0  0  0  0
   57.6640   34.2280   45.5930 C   0  0  0  0  0  0  0  0  0  0  0  0
   58.6720   34.2330   46.5510 C   0  0  0  0  0  0  0  0  0  0  0  0
   59.4000   33.0740   46.8030 C   0  0  0  0  0  0  0  0  0  0  0  0
   59.1460   31.8930   46.0780 C   0  0  0  0  0  0  0  0  0  0  0  0
   61.9554   34.0990   47.3516 H   0  0  0  0  0  0  0  0  0  0  0  0
   62.6803   34.7236   45.8314 H   0  0  0  0  0  0  0  0  0  0  0  0
   61.8077   33.1536   45.8314 H   0  0  0  0  0  0  0  0  0  0  0  0
   64.2408   32.7757   45.7987 H   0  0  0  0  0  0  0  0  0  0  0  0
   64.4092   33.7891   47.3002 H   0  0  0  0  0  0  0  0  0  0  0  0
   63.0380   31.1950   47.0160 H   0  0  0  0  0  0  0  0  0  0  0  0
   64.4820   31.4890   47.8560 H   0  0  0  0  0  0  0  0  0  0  0  0
   63.4389   32.6477   49.5539 H   0  0  0  0  0  0  0  0  0  0  0  0
   61.9774   32.9172   48.5288 H   0  0  0  0  0  0  0  0  0  0  0  0
   62.8475   30.1029   49.2622 H   0  0  0  0  0  0  0  0  0  0  0  0
   61.8842   31.1264   50.4179 H   0  0  0  0  0  0  0  0  0  0  0  0
   60.5952   29.5039   48.8606 H   0  0  0  0  0  0  0  0  0  0  0  0
   60.0338   31.2204   48.9974 H   0  0  0  0  0  0  0  0  0  0  0  0
   60.8474   28.2920   46.9045 H   0  0  0  0  0  0  0  0  0  0  0  0
   60.0858   26.1424   45.9085 H   0  0  0  0  0  0  0  0  0  0  0  0
   58.2202   26.1216   44.2617 H   0  0  0  0  0  0  0  0  0  0  0  0
   57.1435   28.2484   43.5585 H   0  0  0  0  0  0  0  0  0  0  0  0
   55.9658   30.8195   43.4552 H   0  0  0  0  0  0  0  0  0  0  0  0
   57.2888   31.6484   42.5669 H   0  0  0  0  0  0  0  0  0  0  0  0
   57.1932   29.8546   42.5669 H   0  0  0  0  0  0  0  0  0  0  0  0
   56.5688   33.0696   44.1352 H   0  0  0  0  0  0  0  0  0  0  0  0
   57.0870   35.1444   45.3999 H   0  0  0  0  0  0  0  0  0  0  0  0
   58.8941   35.1539   47.1101 H   0  0  0  0  0  0  0  0  0  0  0  0
   60.1821   33.0801   47.5765 H   0  0  0  0  0  0  0  0  0  0  0  0
  1  2  1  0
  2  3  1  0
  3  4  1  0
  4  5  1  0
  5  6  1  0
  6  7  1  0
  7  8  1  0
  8  9  2  0
  9 10  1  0
 10 11  2  0
 11 12  1  0
 12 13  2  0
 13 14  1  0
 14 15  2  0
 15 16  1  0
 15 17  1  0
 17 18  2  0
 18 19  1  0
 19 20  2  0
 20 21  1  0
 21 22  2  0
 22  8  1  0
 14  9  1  0
 22 17  1  0
  1 23  1  0
  1 24  1  0
  1 25  1  0
  2 26  1  0
  2 27  1  0
  3 28  1  0
  3 29  1  0
  4 30  1  0
  4 31  1  0
  5 32  1  0
  5 33  1  0
  6 34  1  0
  6 35  1  0
 10 36  1  0
 11 37  1  0
 12 38  1  0
 13 39  1  0
 16 40  1  0
 16 41  1  0
 16 42  1  0
 18 43  1  0
 19 44  1  0
 20 45  1  0
 21 46  1  0
M  CHG  2   3   1  15   1
M  END
>  <UniqueID>  (21) 
21

>  <SMILES>  (21) 
CC[NH2+]CCCOc1c2ccccc2[n+](C)c2ccccc12

>  <Energy>  (21) 
68.11097371887384

>  <Genealogy>  (21) 
CC[NH2+]CCCOc1c2ccccc2[n+](C)c2ccccc12 (protonated)
CC[NH2+]CCCOc1c2ccccc2[n+](C)c2ccccc12 (3D coordinates assigned)
CC[NH2+]CCCOc1c2ccccc2[n+](C)c2ccccc12 (optimized conformer: 68.11097371887384 kcal/mol)

>  <smiles>  (21) 
CCNCCCOc1c2ccccc2[n+](C)c2ccccc12

>  <score_type>  (21) 
oracle

>  <origin>  (21) 
adg

>  <m_score__min__energy>  (21) 
-4.6500000000000004

>  <m_primary>  (21) 
energy

$$$$
