0:0
     RDKit          3D

 29 30  0  0  0  0  0  0  0  0999 V2000
   58.0930   26.3800   44.4880 C   0  0  0  0  0  0  0  0  0  0  0  0
   57.6940   27.7890   44.5060 N   0  0  0  0  0  0  0  0  0  0  0  0
   58.1070   28.4600   45.7480 C   0  0  0  0  0  0  0  0  0  0  0  0
   58.1110   29.9670   45.6110 C   0  0  0  0  0  0  0  0  0  0  0  0
   59.1540   30.7200   46.1730 C   0  0  0  0  0  0  0  0  0  0  0  0
   59.1490   32.1160   46.0670 C   0  0  0  0  0  0  0  0  0  0  0  0
   60.1790   32.8920   46.6180 C   0  0  0  0  0  0  0  0  0  0  0  0
   60.1450   34.2850   46.4960 C   0  0  0  0  0  0  0  0  0  0  0  0
   59.0860   34.9080   45.8260 C   0  0  0  0  0  0  0  0  0  0  0  0
   58.0560   34.1410   45.2750 C   0  0  0  0  0  0  0  0  0  0  0  0
   58.0820   32.7460   45.3920 C   0  0  0  0  0  0  0  0  0  0  0  0
   57.0810   31.9980   44.8600 N   0  0  0  0  0  0  0  0  0  0  0  0
   57.0640   30.6380   44.9500 C   0  0  0  0  0  0  0  0  0  0  0  0
   56.0100   29.9070   44.3900 O   0  0  0  0  0  0  0  0  0  0  0  0
   55.8610   29.7190   42.9880 C   0  0  0  0  0  0  0  0  0  0  0  0
   58.1964   26.0150   45.5205 H   0  0  0  0  0  0  0  0  0  0  0  0
   57.3270   25.7886   43.9650 H   0  0  0  0  0  0  0  0  0  0  0  0
   59.0553   26.2781   43.9650 H   0  0  0  0  0  0  0  0  0  0  0  0
   56.6520   27.8410   44.4070 H   0  0  0  0  0  0  0  0  0  0  0  0
   57.4093   28.1794   46.5508 H   0  0  0  0  0  0  0  0  0  0  0  0
   59.1337   28.1398   45.9788 H   0  0  0  0  0  0  0  0  0  0  0  0
   59.9768   30.2122   46.6976 H   0  0  0  0  0  0  0  0  0  0  0  0
   61.0128   32.4057   47.1456 H   0  0  0  0  0  0  0  0  0  0  0  0
   60.9535   34.8929   46.9282 H   0  0  0  0  0  0  0  0  0  0  0  0
   59.0643   36.0038   45.7329 H   0  0  0  0  0  0  0  0  0  0  0  0
   57.2246   34.6333   44.7492 H   0  0  0  0  0  0  0  0  0  0  0  0
   55.1877   28.8694   42.8015 H   0  0  0  0  0  0  0  0  0  0  0  0
   55.4362   30.6290   42.5391 H   0  0  0  0  0  0  0  0  0  0  0  0
   56.8439   29.5132   42.5391 H   0  0  0  0  0  0  0  0  0  0  0  0
  1  2  1  0
  2  3  1  0
  3  4  1  0
  4  5  2  0
  5  6  1  0
  6  7  2  0
  7  8  1  0
  8  9  2  0
  9 10  1  0
 10 11  2  0
 11 12  1  0
 12 13  2  0
 13 14  1  0
 14 15  1  0
 13  4  1  0
 11  6  1  0
  1 16  1  0
  1 17  1  0
  1 18  1  0
  2 19  1  0
  3 20  1  0
  3 21  1  0
  5 22  1  0
  7 23  1  0
  8 24  1  0
  9 25  1  0
 10 26  1  0
 15 27  1  0
 15 28  1  0
 15 29  1  0
M  END
>  <UniqueID>  (1) 
1

>  <SMILES>  (1) 
CNCc1cc2ccccc2nc1OC

>  <Energy>  (1) 
29.529249366497584

>  <Genealogy>  (1) 
CNCc1cc2ccccc2nc1OC (3D coordinates assigned)
CNCc1cc2ccccc2nc1OC (optimized conformer: 29.529249366497584 kcal/mol)

>  <smiles>  (1) 
CNCc1cc2ccccc2nc1OC

>  <score_type>  (1) 
oracle

>  <origin>  (1) 
adg

>  <m_score__min__energy>  (1) 
-5.9000000000000004

>  <m_primary>  (1) 
energy

$$$$
1:0
     RDKit          3D

 40 41  0  0  0  0  0  0  0  0999 V2000
   63.4250   32.3210   47.4520 C   0  0  0  0  0  0  0  0  0  0  0  0
   61.9920   31.7950   47.5330 C   0  0  0  0  0  0  0  0  0  0  0  0
   60.8950   32.8130   47.0780 C   0  0  1  0  0  0  0  0  0  0  0  0
   59.6840   32.1420   46.4250 C   0  0  0  0  0  0  0  0  0  0  0  0
   59.5280   30.7520   46.2530 C   0  0  0  0  0  0  0  0  0  0  0  0
   58.3860   30.2330   45.6100 C   0  0  0  0  0  0  0  0  0  0  0  0
   58.2000   28.8540   45.4190 O   0  0  0  0  0  0  0  0  0  0  0  0
   58.9380   28.0570   44.4970 C   0  0  0  0  0  0  0  0  0  0  0  0
   57.3950   31.1060   45.1400 C   0  0  0  0  0  0  0  0  0  0  0  0
   56.2720   30.5570   44.4980 O   0  0  0  0  0  0  0  0  0  0  0  0
   56.2860   29.9900   43.1920 C   0  0  0  0  0  0  0  0  0  0  0  0
   57.5440   32.4920   45.3250 C   0  0  0  0  0  0  0  0  0  0  0  0
   58.6760   32.9990   45.9750 C   0  0  0  0  0  0  0  0  0  0  0  0
   58.8470   34.4650   46.2210 C   0  0  0  0  0  0  0  0  0  0  0  0
   59.3090   34.6840   47.6750 C   0  0  0  0  0  0  0  0  0  0  0  0
   60.4470   33.7940   48.1310 N   0  0  1  0  0  0  0  0  0  0  0  0
   60.0530   33.0850   49.3790 C   0  0  0  0  0  0  0  0  0  0  0  0
   61.5180   34.6040   48.4070 O   0  0  0  0  0  0  0  0  0  0  0  0
   63.8203   32.4661   48.4682 H   0  0  0  0  0  0  0  0  0  0  0  0
   64.0524   31.5946   46.9148 H   0  0  0  0  0  0  0  0  0  0  0  0
   63.4334   33.2808   46.9148 H   0  0  0  0  0  0  0  0  0  0  0  0
   61.9179   30.9030   46.8936 H   0  0  0  0  0  0  0  0  0  0  0  0
   61.7983   31.5838   48.5950 H   0  0  0  0  0  0  0  0  0  0  0  0
   61.4195   33.4070   46.3151 H   0  0  0  0  0  0  0  0  0  0  0  0
   60.3040   30.0662   46.6237 H   0  0  0  0  0  0  0  0  0  0  0  0
   59.5839   27.3595   45.0504 H   0  0  0  0  0  0  0  0  0  0  0  0
   58.2409   27.4879   43.8644 H   0  0  0  0  0  0  0  0  0  0  0  0
   59.5589   28.7083   43.8644 H   0  0  0  0  0  0  0  0  0  0  0  0
   56.3131   28.8930   43.2688 H   0  0  0  0  0  0  0  0  0  0  0  0
   55.3800   30.2973   42.6491 H   0  0  0  0  0  0  0  0  0  0  0  0
   57.1757   30.3416   42.6491 H   0  0  0  0  0  0  0  0  0  0  0  0
   56.7686   33.1804   44.9578 H   0  0  0  0  0  0  0  0  0  0  0  0
   59.6021   34.8684   45.5303 H   0  0  0  0  0  0  0  0  0  0  0  0
   57.8902   34.9818   46.0553 H   0  0  0  0  0  0  0  0  0  0  0  0
   59.6340   35.7301   47.7749 H   0  0  0  0  0  0  0  0  0  0  0  0
   58.4482   34.4288   48.3106 H   0  0  0  0  0  0  0  0  0  0  0  0
   60.3783   33.6704   50.2516 H   0  0  0  0  0  0  0  0  0  0  0  0
   58.9597   32.9666   49.4039 H   0  0  0  0  0  0  0  0  0  0  0  0
   60.5298   32.0940   49.4039 H   0  0  0  0  0  0  0  0  0  0  0  0
   61.3430   35.0880   49.2590 H   0  0  0  0  0  0  0  0  0  0  0  0
  1  2  1  0
  2  3  1  0
  3  4  1  0
  4  5  2  0
  5  6  1  0
  6  7  1  0
  7  8  1  0
  6  9  2  0
  9 10  1  0
 10 11  1  0
  9 12  1  0
 12 13  2  0
 13 14  1  0
 14 15  1  0
 15 16  1  0
 16 17  1  0
 16 18  1  1
 16  3  1  0
 13  4  1  0
  1 19  1  0
  1 20  1  0
  1 21  1  0
  2 22  1  0
  2 23  1  0
  3 24  1  6
  5 25  1  0
  8 26  1  0
  8 27  1  0
  8 28  1  0
 11 29  1  0
 11 30  1  0
 11 31  1  0
 12 32  1  0
 14 33  1  0
 14 34  1  0
 15 35  1  0
 15 36  1  0
 17 37  1  0
 17 38  1  0
 17 39  1  0
 18 40  1  0
M  CHG  1  16   1
M  END
>  <UniqueID>  (2) 
2

>  <SMILES>  (2) 
CC[C@H]1c2cc(OC)c(OC)cc2CC[N@+]1(C)O

>  <Energy>  (2) 
61.619550252716444

>  <Genealogy>  (2) 
CCC1c2cc(OC)c(OC)cc2CC[N+]1(C)O (protonated)
CC[C@H]1c2cc(OC)c(OC)cc2CC[N@+]1(C)O (chirality)
CC[C@H]1c2cc(OC)c(OC)cc2CC[N@+]1(C)O (3D coordinates assigned)
CC[C@H]1c2cc(OC)c(OC)cc2CC[N@+]1(C)O (nonaromatic ring conformer: 61.619550252716444 kcal/mol)

>  <smiles>  (2) 
CCC1c2cc(OC)c(OC)cc2CC[N+]1(C)[O-]

>  <score_type>  (2) 
oracle

>  <origin>  (2) 
adg

>  <m_score__min__energy>  (2) 
-4.5700000000000003

>  <m_primary>  (2) 
energy

$$$$
2:0
     RDKit          3D

 62 65  0  0  0  0  0  0  0  0999 V2000
   57.3600   31.6420   42.2310 C   0  0  0  0  0  0  0  0  0  0  0  0
   56.4570   30.8380   43.1620 C   0  0  0  0  0  0  0  0  0  0  0  0
   56.6880   29.3330   42.9960 C   0  0  0  0  0  0  0  0  0  0  0  0
   57.5850   28.8130   44.0880 C   0  0  0  0  0  0  0  0  0  0  0  0
   57.8340   27.4410   44.2030 C   0  0  0  0  0  0  0  0  0  0  0  0
   58.6930   26.9610   45.1890 C   0  0  0  0  0  0  0  0  0  0  0  0
   59.3360   27.8460   46.0750 C   0  0  0  0  0  0  0  0  0  0  0  0
   60.2260   27.3790   47.0590 O   0  0  0  0  0  0  0  0  0  0  0  0
   59.9740   27.3990   48.4600 C   0  0  0  0  0  0  0  0  0  0  0  0
   59.0980   29.2370   45.9610 C   0  0  0  0  0  0  0  0  0  0  0  0
   59.7580   30.2040   46.8760 C   0  0  0  0  0  0  0  0  0  0  0  0
   61.1170   30.4550   46.9720 C   0  0  0  0  0  0  0  0  0  0  0  0
   61.2250   31.4070   47.9670 C   0  0  0  0  0  0  0  0  0  0  0  0
   62.4950   31.9970   48.4320 C   0  0  0  0  0  0  0  0  0  0  0  0
   62.9680   33.1960   47.8820 C   0  0  0  0  0  0  0  0  0  0  0  0
   64.1550   33.7650   48.3450 C   0  0  0  0  0  0  0  0  0  0  0  0
   64.8720   33.1490   49.3740 C   0  0  0  0  0  0  0  0  0  0  0  0
   64.4040   31.9640   49.9540 C   0  0  0  0  0  0  0  0  0  0  0  0
   65.1520   31.3930   50.9930 O   0  0  0  0  0  0  0  0  0  0  0  0
   66.5750   31.4010   51.0580 C   0  0  0  0  0  0  0  0  0  0  0  0
   63.2070   31.3920   49.4810 C   0  0  0  0  0  0  0  0  0  0  0  0
   59.9850   31.7030   48.4210 N   0  0  0  0  0  0  0  0  0  0  0  0
   59.5990   32.7470   49.3750 C   0  0  0  0  0  0  0  0  0  0  0  0
   59.6330   34.1350   48.7200 C   0  0  0  0  0  0  0  0  0  0  0  0
   59.0580   34.1040   47.3300 C   0  0  0  0  0  0  0  0  0  0  0  0
   59.8150   34.5620   46.2370 C   0  0  0  0  0  0  0  0  0  0  0  0
   59.2970   34.4840   44.9400 C   0  0  0  0  0  0  0  0  0  0  0  0
   58.0250   33.9480   44.7240 C   0  0  0  0  0  0  0  0  0  0  0  0
   57.2670   33.4880   45.8040 C   0  0  0  0  0  0  0  0  0  0  0  0
   57.7810   33.5640   47.1040 C   0  0  0  0  0  0  0  0  0  0  0  0
   59.0960   30.9860   47.7520 N   0  0  0  0  0  0  0  0  0  0  0  0
   58.2260   29.7050   44.9600 C   0  0  0  0  0  0  0  0  0  0  0  0
   58.0495   32.2559   42.8290 H   0  0  0  0  0  0  0  0  0  0  0  0
   57.9379   30.9540   41.5964 H   0  0  0  0  0  0  0  0  0  0  0  0
   56.7434   32.2956   41.5964 H   0  0  0  0  0  0  0  0  0  0  0  0
   56.6721   31.1212   44.2029 H   0  0  0  0  0  0  0  0  0  0  0  0
   55.4099   31.0593   42.9077 H   0  0  0  0  0  0  0  0  0  0  0  0
   55.7208   28.8111   43.0429 H   0  0  0  0  0  0  0  0  0  0  0  0
   57.1699   29.1524   42.0238 H   0  0  0  0  0  0  0  0  0  0  0  0
   57.3486   26.7373   43.5108 H   0  0  0  0  0  0  0  0  0  0  0  0
   58.8708   25.8790   45.2762 H   0  0  0  0  0  0  0  0  0  0  0  0
   60.9265   27.3234   49.0050 H   0  0  0  0  0  0  0  0  0  0  0  0
   59.4714   28.3399   48.7288 H   0  0  0  0  0  0  0  0  0  0  0  0
   59.3293   26.5492   48.7288 H   0  0  0  0  0  0  0  0  0  0  0  0
   61.9287   29.9983   46.3867 H   0  0  0  0  0  0  0  0  0  0  0  0
   62.4003   33.6915   47.0806 H   0  0  0  0  0  0  0  0  0  0  0  0
   64.5267   34.6995   47.8994 H   0  0  0  0  0  0  0  0  0  0  0  0
   65.8106   33.5983   49.7307 H   0  0  0  0  0  0  0  0  0  0  0  0
   66.8940   31.4028   52.1107 H   0  0  0  0  0  0  0  0  0  0  0  0
   66.9700   30.5051   50.5567 H   0  0  0  0  0  0  0  0  0  0  0  0
   66.9599   32.3013   50.5567 H   0  0  0  0  0  0  0  0  0  0  0  0
   62.8271   30.4654   49.9360 H   0  0  0  0  0  0  0  0  0  0  0  0
   58.5796   32.5449   49.7356 H   0  0  0  0  0  0  0  0  0  0  0  0
   60.3140   32.7378   50.2109 H   0  0  0  0  0  0  0  0  0  0  0  0
   59.0462   34.8342   49.3339 H   0  0  0  0  0  0  0  0  0  0  0  0
   60.6822   34.4585   48.6519 H   0  0  0  0  0  0  0  0  0  0  0  0
   60.8177   34.9829   46.4025 H   0  0  0  0  0  0  0  0  0  0  0  0
   59.8923   34.8454   44.0885 H   0  0  0  0  0  0  0  0  0  0  0  0
   57.6199   33.8881   43.7031 H   0  0  0  0  0  0  0  0  0  0  0  0
   56.2658   33.0659   45.6326 H   0  0  0  0  0  0  0  0  0  0  0  0
   57.1825   33.1994   47.9519 H   0  0  0  0  0  0  0  0  0  0  0  0
   58.0448   30.7854   44.8603 H   0  0  0  0  0  0  0  0  0  0  0  0
  1  2  1  0
  2  3  1  0
  3  4  1  0
  4  5  2  0
  5  6  1  0
  6  7  2  0
  7  8  1  0
  8  9  1  0
  7 10  1  0
 10 11  1  0
 11 12  1  0
 12 13  2  0
 13 14  1  0
 14 15  2  0
 15 16  1  0
 16 17  2  0
 17 18  1  0
 18 19  1  0
 19 20  1  0
 18 21  2  0
 13 22  1  0
 22 23  1  0
 23 24  1  0
 24 25  1  0
 25 26  2  0
 26 27  1  0
 27 28  2  0
 28 29  1  0
 29 30  2  0
 22 31  1  0
 10 32  2  0
 32  4  1  0
 31 11  2  0
 21 14  1  0
 30 25  1  0
  1 33  1  0
  1 34  1  0
  1 35  1  0
  2 36  1  0
  2 37  1  0
  3 38  1  0
  3 39  1  0
  5 40  1  0
  6 41  1  0
  9 42  1  0
  9 43  1  0
  9 44  1  0
 12 45  1  0
 15 46  1  0
 16 47  1  0
 17 48  1  0
 20 49  1  0
 20 50  1  0
 20 51  1  0
 21 52  1  0
 23 53  1  0
 23 54  1  0
 24 55  1  0
 24 56  1  0
 26 57  1  0
 27 58  1  0
 28 59  1  0
 29 60  1  0
 30 61  1  0
 32 62  1  0
M  END
>  <UniqueID>  (3) 
3

>  <SMILES>  (3) 
CCCc1ccc(OC)c(-c2cc(-c3cccc(OC)c3)n(CCc3ccccc3)n2)c1

>  <Energy>  (3) 
92.67523952736526

>  <Genealogy>  (3) 
CCCc1ccc(OC)c(-c2cc(-c3cccc(OC)c3)n(CCc3ccccc3)n2)c1 (3D coordinates assigned)
CCCc1ccc(OC)c(-c2cc(-c3cccc(OC)c3)n(CCc3ccccc3)n2)c1 (optimized conformer: 92.67523952736526 kcal/mol)

>  <smiles>  (3) 
CCCc1ccc(OC)c(-c2cc(-c3cccc(OC)c3)n(CCc3ccccc3)n2)c1

>  <score_type>  (3) 
oracle

>  <origin>  (3) 
adg

>  <m_score__min__energy>  (3) 
-8.9399999999999995

>  <m_primary>  (3) 
energy

$$$$
3:0
     RDKit          3D

 42 43  0  0  0  0  0  0  0  0999 V2000
   59.1488   34.6749   49.4593 H   0  0  0  0  0  0  0  0  0  0  0  0
   59.6560   34.1570   48.6320 C   0  0  0  0  0  0  0  0  0  0  0  0
   60.8730   33.6490   48.8630 C   0  0  0  0  0  0  0  0  0  0  0  0
   61.7257   34.3330   48.9857 H   0  0  0  0  0  0  0  0  0  0  0  0
   61.1030   32.1610   48.9590 C   0  0  0  0  0  0  0  0  0  0  0  0
   60.1731   31.6773   49.2927 H   0  0  0  0  0  0  0  0  0  0  0  0
   61.9181   31.9856   49.6766 H   0  0  0  0  0  0  0  0  0  0  0  0
   61.5050   31.5810   47.6500 N   0  0  1  0  0  0  0  0  0  0  0  0
   61.0610   32.1250   46.8700 H   0  0  0  0  0  0  0  0  0  0  0  0
   62.9630   31.7170   47.4790 C   0  0  0  0  0  0  0  0  0  0  0  0
   63.4454   31.7620   48.4666 H   0  0  0  0  0  0  0  0  0  0  0  0
   63.3492   30.8510   46.9214 H   0  0  0  0  0  0  0  0  0  0  0  0
   63.1823   32.6395   46.9214 H   0  0  0  0  0  0  0  0  0  0  0  0
   61.1340   30.1480   47.5250 C   0  0  0  0  0  0  0  0  0  0  0  0
   61.0329   29.7220   48.5341 H   0  0  0  0  0  0  0  0  0  0  0  0
   61.9277   29.6499   46.9489 H   0  0  0  0  0  0  0  0  0  0  0  0
   59.8340   29.9410   46.7810 C   0  0  0  0  0  0  0  0  0  0  0  0
   59.4150   30.8690   45.8150 C   0  0  0  0  0  0  0  0  0  0  0  0
   60.0627   31.7196   45.5563 H   0  0  0  0  0  0  0  0  0  0  0  0
   58.1790   30.7180   45.1800 C   0  0  0  0  0  0  0  0  0  0  0  0
   57.8606   31.4517   44.4248 H   0  0  0  0  0  0  0  0  0  0  0  0
   57.3430   29.6410   45.4970 C   0  0  0  0  0  0  0  0  0  0  0  0
   56.0930   29.5600   44.8690 O   0  0  0  0  0  0  0  0  0  0  0  0
   55.8830   29.7450   43.4720 C   0  0  0  0  0  0  0  0  0  0  0  0
   55.0659   30.4648   43.3162 H   0  0  0  0  0  0  0  0  0  0  0  0
   56.8042   30.1304   43.0106 H   0  0  0  0  0  0  0  0  0  0  0  0
   55.6168   28.7826   43.0106 H   0  0  0  0  0  0  0  0  0  0  0  0
   57.7780   28.6890   46.4390 C   0  0  0  0  0  0  0  0  0  0  0  0
   57.1406   27.8252   46.6791 H   0  0  0  0  0  0  0  0  0  0  0  0
   59.0160   28.8370   47.0700 C   0  0  0  0  0  0  0  0  0  0  0  0
   59.3519   28.0837   47.7978 H   0  0  0  0  0  0  0  0  0  0  0  0
   58.9470   34.0660   47.3300 C   0  0  0  0  0  0  0  0  0  0  0  0
   59.5510   34.6390   46.1980 C   0  0  0  0  0  0  0  0  0  0  0  0
   60.5441   35.1036   46.2865 H   0  0  0  0  0  0  0  0  0  0  0  0
   58.9010   34.6240   44.9600 C   0  0  0  0  0  0  0  0  0  0  0  0
   59.3872   35.0687   44.0792 H   0  0  0  0  0  0  0  0  0  0  0  0
   57.6370   34.0460   44.8400 C   0  0  0  0  0  0  0  0  0  0  0  0
   57.1275   34.0336   43.8652 H   0  0  0  0  0  0  0  0  0  0  0  0
   57.0190   33.4830   45.9590 C   0  0  0  0  0  0  0  0  0  0  0  0
   56.0206   33.0311   45.8646 H   0  0  0  0  0  0  0  0  0  0  0  0
   57.6650   33.4920   47.1980 C   0  0  0  0  0  0  0  0  0  0  0  0
   57.1712   33.0490   48.0754 H   0  0  0  0  0  0  0  0  0  0  0  0
  1  2  1  0
  2  3  2  0
  3  4  1  0
  3  5  1  0
  5  6  1  0
  5  7  1  0
  5  8  1  0
  8  9  1  6
  8 10  1  0
 10 11  1  0
 10 12  1  0
 10 13  1  0
  8 14  1  0
 14 15  1  0
 14 16  1  0
 14 17  1  0
 17 18  2  0
 18 19  1  0
 18 20  1  0
 20 21  1  0
 20 22  2  0
 22 23  1  0
 23 24  1  0
 24 25  1  0
 24 26  1  0
 24 27  1  0
 22 28  1  0
 28 29  1  0
 28 30  2  0
 30 31  1  0
  2 32  1  0
 32 33  2  0
 33 34  1  0
 33 35  1  0
 35 36  1  0
 35 37  2  0
 37 38  1  0
 37 39  1  0
 39 40  1  0
 39 41  2  0
 41 42  1  0
 30 17  1  0
 41 32  1  0
M  CHG  1   8   1
M  END
>  <UniqueID>  (4) 
4

>  <SMILES>  (4) 
COc1ccc(C[N@H+](C)C/C=C/c2ccccc2)cc1

>  <Energy>  (4) 
41.49466348099374

>  <Genealogy>  (4) 
COc1ccc(C[NH+](C)CC=Cc2ccccc2)cc1 (protonated)
COc1ccc(C[N@H+](C)CC=Cc2ccccc2)cc1 (chirality)
COc1ccc(C[N@H+](C)C/C=C/c2ccccc2)cc1 (cis-trans isomerization)
COc1ccc(C[N@H+](C)C/C=C/c2ccccc2)cc1 (3D coordinates assigned)
COc1ccc(C[N@H+](C)C/C=C/c2ccccc2)cc1 (optimized conformer: 41.49466348099374 kcal/mol)

>  <smiles>  (4) 
COc1ccc(CN(C)CC=Cc2ccccc2)cc1

>  <score_type>  (4) 
oracle

>  <origin>  (4) 
adg

>  <m_score__min__energy>  (4) 
-5.6500000000000004

>  <m_primary>  (4) 
energy

$$$$
4:0
     RDKit          3D

 27 29  0  0  0  0  0  0  0  0999 V2000
   52.9800   30.1050   50.4350 C   0  0  0  0  0  0  0  0  0  0  0  0
   52.6740   30.3940   51.8750 C   0  0  0  0  0  0  0  0  0  0  0  0
   53.1790   29.7510   52.9920 C   0  0  0  0  0  0  0  0  0  0  0  0
   54.0840   28.6900   53.0870 C   0  0  0  0  0  0  0  0  0  0  0  0
   54.4290   28.2260   54.3650 C   0  0  0  0  0  0  0  0  0  0  0  0
   53.8730   28.8220   55.5110 C   0  0  0  0  0  0  0  0  0  0  0  0
   52.9650   29.8880   55.3980 C   0  0  0  0  0  0  0  0  0  0  0  0
   52.6250   30.3460   54.1120 C   0  0  0  0  0  0  0  0  0  0  0  0
   51.7820   31.3480   53.7370 N   0  0  0  0  0  0  0  0  0  0  0  0
   51.0010   32.2270   54.4490 C   0  0  0  0  0  0  0  0  0  0  0  0
   50.9280   32.2410   55.9500 C   0  0  0  0  0  0  0  0  0  0  0  0
   50.2320   33.1590   53.7240 C   0  0  0  0  0  0  0  0  0  0  0  0
   50.2770   33.1720   52.3630 N   0  0  0  0  0  0  0  0  0  0  0  0
   51.0510   32.3000   51.6660 C   0  0  0  0  0  0  0  0  0  0  0  0
   51.0660   32.3420   50.4080 O   0  0  0  0  0  0  0  0  0  0  0  0
   51.8180   31.3710   52.3780 C   0  0  0  0  0  0  0  0  0  0  0  0
   53.7785   29.3509   50.3740 H   0  0  0  0  0  0  0  0  0  0  0  0
   52.0763   29.7231   49.9376 H   0  0  0  0  0  0  0  0  0  0  0  0
   53.3096   31.0291   49.9376 H   0  0  0  0  0  0  0  0  0  0  0  0
   54.5139   28.2314   52.1843 H   0  0  0  0  0  0  0  0  0  0  0  0
   55.1380   27.3917   54.4713 H   0  0  0  0  0  0  0  0  0  0  0  0
   54.1523   28.4492   56.5075 H   0  0  0  0  0  0  0  0  0  0  0  0
   52.5299   30.3539   56.2945 H   0  0  0  0  0  0  0  0  0  0  0  0
   51.9275   32.0493   56.3675 H   0  0  0  0  0  0  0  0  0  0  0  0
   50.5707   33.2240   56.2906 H   0  0  0  0  0  0  0  0  0  0  0  0
   50.2324   31.4599   56.2906 H   0  0  0  0  0  0  0  0  0  0  0  0
   49.5938   33.8778   54.2587 H   0  0  0  0  0  0  0  0  0  0  0  0
  1  2  1  0
  2  3  1  0
  3  4  2  0
  4  5  1  0
  5  6  2  0
  6  7  1  0
  7  8  2  0
  8  9  1  0
  9 10  1  0
 10 11  1  0
 10 12  2  0
 12 13  1  0
 13 14  1  0
 14 15  2  0
 14 16  1  0
 16  2  2  0
  8  3  1  0
 16  9  1  0
  1 17  1  0
  1 18  1  0
  1 19  1  0
  4 20  1  0
  5 21  1  0
  6 22  1  0
  7 23  1  0
 11 24  1  0
 11 25  1  0
 11 26  1  0
 12 27  1  0
M  CHG  1  13  -1
M  END
>  <UniqueID>  (5) 
5

>  <SMILES>  (5) 
Cc1c2ccccc2n2c(C)c[n-]c(=O)c12

>  <Energy>  (5) 
75.63988205305282

>  <Genealogy>  (5) 
Cc1c2ccccc2n2c(C)c[n-]c(=O)c12 (protonated)
Cc1c2ccccc2n2c(C)c[n-]c(=O)c12 (3D coordinates assigned)
Cc1c2ccccc2n2c(C)c[n-]c(=O)c12 (optimized conformer: 75.63988205305282 kcal/mol)

>  <smiles>  (5) 
Cc1c2ccccc2n2c(C)c[nH]c(=O)c12

>  <score_type>  (5) 
oracle

>  <origin>  (5) 
adg

>  <m_score__min__energy>  (5) 
-8.5099999999999998

>  <m_primary>  (5) 
energy

$$$$
5:0
     RDKit          3D

 34 36  0  0  0  0  0  0  0  0999 V2000
   56.0740   29.7800   43.3570 C   0  0  0  0  0  0  0  0  0  0  0  0
   56.3100   29.9910   44.7440 O   0  0  0  0  0  0  0  0  0  0  0  0
   57.3950   30.7280   45.2240 C   0  0  0  0  0  0  0  0  0  0  0  0
   57.3180   32.0850   45.3210 N   0  0  0  0  0  0  0  0  0  0  0  0
   58.3500   32.8210   45.8050 C   0  0  0  0  0  0  0  0  0  0  0  0
   58.2470   34.2130   45.8950 C   0  0  0  0  0  0  0  0  0  0  0  0
   59.3180   34.9600   46.3970 C   0  0  0  0  0  0  0  0  0  0  0  0
   60.4910   34.3190   46.8090 C   0  0  0  0  0  0  0  0  0  0  0  0
   60.5990   32.9270   46.7220 C   0  0  0  0  0  0  0  0  0  0  0  0
   59.5290   32.1700   46.2210 C   0  0  0  0  0  0  0  0  0  0  0  0
   59.6110   30.8130   46.1230 N   0  0  0  0  0  0  0  0  0  0  0  0
   58.5750   30.0750   45.6300 C   0  0  0  0  0  0  0  0  0  0  0  0
   58.7020   28.6450   45.5380 N   0  0  0  0  0  0  0  0  0  0  0  0
   58.9110   27.8230   46.7330 C   0  0  0  0  0  0  0  0  0  0  0  0
   58.1940   26.4810   46.5600 C   0  0  0  0  0  0  0  0  0  0  0  0
   58.5730   25.8620   45.3440 O   0  0  0  0  0  0  0  0  0  0  0  0
   58.1370   26.6450   44.2480 C   0  0  0  0  0  0  0  0  0  0  0  0
   58.8460   28.0020   44.2300 C   0  0  0  0  0  0  0  0  0  0  0  0
   55.2594   29.0517   43.2303 H   0  0  0  0  0  0  0  0  0  0  0  0
   55.7914   30.7321   42.8841 H   0  0  0  0  0  0  0  0  0  0  0  0
   56.9887   29.3930   42.8841 H   0  0  0  0  0  0  0  0  0  0  0  0
   57.3256   34.7194   45.5717 H   0  0  0  0  0  0  0  0  0  0  0  0
   59.2374   36.0547   46.4679 H   0  0  0  0  0  0  0  0  0  0  0  0
   61.3306   34.9109   47.2024 H   0  0  0  0  0  0  0  0  0  0  0  0
   61.5229   32.4258   47.0464 H   0  0  0  0  0  0  0  0  0  0  0  0
   60.4890   30.3270   46.4130 H   0  0  0  0  0  0  0  0  0  0  0  0
   59.9878   27.6481   46.8742 H   0  0  0  0  0  0  0  0  0  0  0  0
   58.5063   28.3447   47.6128 H   0  0  0  0  0  0  0  0  0  0  0  0
   58.4581   25.8202   47.3988 H   0  0  0  0  0  0  0  0  0  0  0  0
   57.1089   26.6606   46.5413 H   0  0  0  0  0  0  0  0  0  0  0  0
   58.3587   26.1104   43.3126 H   0  0  0  0  0  0  0  0  0  0  0  0
   57.0547   26.8151   44.3459 H   0  0  0  0  0  0  0  0  0  0  0  0
   59.9135   27.8551   44.0091 H   0  0  0  0  0  0  0  0  0  0  0  0
   58.3960   28.6407   43.4557 H   0  0  0  0  0  0  0  0  0  0  0  0
  1  2  1  0
  2  3  1  0
  3  4  2  0
  4  5  1  0
  5  6  2  0
  6  7  1  0
  7  8  2  0
  8  9  1  0
  9 10  2  0
 10 11  1  0
 11 12  2  0
 12 13  1  0
 13 14  1  0
 14 15  1  0
 15 16  1  0
 16 17  1  0
 17 18  1  0
 12  3  1  0
 18 13  1  0
 10  5  1  0
  1 19  1  0
  1 20  1  0
  1 21  1  0
  6 22  1  0
  7 23  1  0
  8 24  1  0
  9 25  1  0
 11 26  1  0
 14 27  1  0
 14 28  1  0
 15 29  1  0
 15 30  1  0
 17 31  1  0
 17 32  1  0
 18 33  1  0
 18 34  1  0
M  CHG  1  11   1
M  END
>  <UniqueID>  (6) 
6

>  <SMILES>  (6) 
COc1nc2ccccc2[nH+]c1N1CCOCC1

>  <Energy>  (6) 
42.660777743816894

>  <Genealogy>  (6) 
COc1nc2ccccc2[nH+]c1N1CCOCC1 (protonated)
COc1nc2ccccc2[nH+]c1N1CCOCC1 (3D coordinates assigned)
COc1nc2ccccc2[nH+]c1N1CCOCC1 (nonaromatic ring conformer: 42.660777743816894 kcal/mol)

>  <smiles>  (6) 
COc1nc2ccccc2nc1N1CCOCC1

>  <score_type>  (6) 
oracle

>  <origin>  (6) 
adg

>  <m_score__min__energy>  (6) 
-4.6600000000000001

>  <m_primary>  (6) 
energy

$$$$
6:0
     RDKit          3D

 33 35  0  0  0  0  0  0  0  0999 V2000
   56.9440   29.7010   43.0920 O   0  0  0  0  0  0  0  0  0  0  0  0
   56.6330   30.1460   44.2150 N   0  0  0  0  0  0  0  0  0  0  0  0
   55.5590   29.5900   44.8740 O   0  0  0  0  0  0  0  0  0  0  0  0
   57.3800   31.2200   44.8140 C   0  0  0  0  0  0  0  0  0  0  0  0
   58.0950   31.0120   46.0070 C   0  0  0  0  0  0  0  0  0  0  0  0
   58.8230   32.0530   46.5890 C   0  0  0  0  0  0  0  0  0  0  0  0
   58.8510   33.3170   45.9870 C   0  0  0  0  0  0  0  0  0  0  0  0
   59.7750   34.6330   46.7080 S   0  0  0  0  0  0  0  0  0  0  0  0
   59.0240   35.2420   47.8600 O   0  0  0  0  0  0  0  0  0  0  0  0
   59.9870   35.6910   45.6630 O   0  0  0  0  0  0  0  0  0  0  0  0
   61.3300   34.0210   47.3020 C   0  0  0  0  0  0  0  0  0  0  0  0
   62.3670   33.8190   46.3760 C   0  0  0  0  0  0  0  0  0  0  0  0
   63.6030   33.3210   46.7850 C   0  0  0  0  0  0  0  0  0  0  0  0
   63.8280   33.0120   48.1230 C   0  0  0  0  0  0  0  0  0  0  0  0
   62.8130   33.2000   49.0690 C   0  0  0  0  0  0  0  0  0  0  0  0
   63.0340   32.8870   50.4160 C   0  0  0  0  0  0  0  0  0  0  0  0
   62.0170   33.0760   51.3490 C   0  0  0  0  0  0  0  0  0  0  0  0
   60.7880   33.5790   50.9300 C   0  0  0  0  0  0  0  0  0  0  0  0
   60.5750   33.8850   49.6200 N   0  0  0  0  0  0  0  0  0  0  0  0
   61.5490   33.7100   48.6710 C   0  0  0  0  0  0  0  0  0  0  0  0
   58.1360   33.5350   44.8030 C   0  0  0  0  0  0  0  0  0  0  0  0
   57.4080   32.4940   44.2180 C   0  0  0  0  0  0  0  0  0  0  0  0
   58.0810   30.0218   46.4858 H   0  0  0  0  0  0  0  0  0  0  0  0
   59.3763   31.8789   47.5237 H   0  0  0  0  0  0  0  0  0  0  0  0
   62.2015   34.0568   45.3148 H   0  0  0  0  0  0  0  0  0  0  0  0
   64.4044   33.1715   46.0465 H   0  0  0  0  0  0  0  0  0  0  0  0
   64.8058   32.6190   48.4383 H   0  0  0  0  0  0  0  0  0  0  0  0
   64.0094   32.4924   50.7369 H   0  0  0  0  0  0  0  0  0  0  0  0
   62.1834   32.8299   52.4081 H   0  0  0  0  0  0  0  0  0  0  0  0
   59.9822   33.7305   51.6633 H   0  0  0  0  0  0  0  0  0  0  0  0
   59.6370   34.2610   49.3750 H   0  0  0  0  0  0  0  0  0  0  0  0
   58.1469   34.5287   44.3313 H   0  0  0  0  0  0  0  0  0  0  0  0
   56.8533   32.6727   43.2851 H   0  0  0  0  0  0  0  0  0  0  0  0
  1  2  2  0
  2  3  1  0
  2  4  1  0
  4  5  2  0
  5  6  1  0
  6  7  2  0
  7  8  1  0
  8  9  2  0
  8 10  2  0
  8 11  1  0
 11 12  2  0
 12 13  1  0
 13 14  2  0
 14 15  1  0
 15 16  2  0
 16 17  1  0
 17 18  2  0
 18 19  1  0
 19 20  2  0
  7 21  1  0
 21 22  2  0
 22  4  1  0
 20 11  1  0
 20 15  1  0
  5 23  1  0
  6 24  1  0
 12 25  1  0
 13 26  1  0
 14 27  1  0
 16 28  1  0
 17 29  1  0
 18 30  1  0
 19 31  1  0
 21 32  1  0
 22 33  1  0
M  CHG  3   2   1   3  -1  19   1
M  END
>  <UniqueID>  (7) 
7

>  <SMILES>  (7) 
O=[N+]([O-])c1ccc(S(=O)(=O)c2cccc3ccc[nH+]c23)cc1

>  <Energy>  (7) 
44.454251011187296

>  <Genealogy>  (7) 
O=[N+]([O-])c1ccc(S(=O)(=O)c2cccc3ccc[nH+]c23)cc1 (protonated)
O=[N+]([O-])c1ccc(S(=O)(=O)c2cccc3ccc[nH+]c23)cc1 (3D coordinates assigned)
O=[N+]([O-])c1ccc(S(=O)(=O)c2cccc3ccc[nH+]c23)cc1 (optimized conformer: 44.454251011187296 kcal/mol)

>  <smiles>  (7) 
O=[N+]([O-])c1ccc(S(=O)(=O)c2cccc3cccnc23)cc1

>  <score_type>  (7) 
oracle

>  <origin>  (7) 
adg

>  <m_score__min__energy>  (7) 
-7.04

>  <m_primary>  (7) 
energy

$$$$
7:0
     RDKit          3D

 33 35  0  0  0  0  0  0  0  0999 V2000
   63.9970   33.1130   49.0360 Br  0  0  0  0  0  0  0  0  0  0  0  0
   63.4260   33.1490   47.1870 C   0  0  0  0  0  0  0  0  0  0  0  0
   61.9310   33.1460   47.1230 C   0  0  0  0  0  0  0  0  0  0  0  0
   61.3010   33.8450   46.1420 N   0  0  0  0  0  0  0  0  0  0  0  0
   59.9490   33.8400   46.0320 C   0  0  0  0  0  0  0  0  0  0  0  0
   59.3290   34.5750   45.0150 C   0  0  0  0  0  0  0  0  0  0  0  0
   57.9360   34.5730   44.8990 C   0  0  0  0  0  0  0  0  0  0  0  0
   57.1590   33.8360   45.7970 C   0  0  0  0  0  0  0  0  0  0  0  0
   57.7690   33.0980   46.8150 C   0  0  0  0  0  0  0  0  0  0  0  0
   59.1700   33.0930   46.9430 C   0  0  0  0  0  0  0  0  0  0  0  0
   59.8440   32.3660   47.9450 C   0  0  0  0  0  0  0  0  0  0  0  0
   59.1290   31.5730   48.9020 N   0  0  0  0  0  0  0  0  0  0  0  0
   58.3550   32.2270   49.9580 C   0  0  0  0  0  0  0  0  0  0  0  0
   58.3360   31.3360   51.2050 C   0  0  0  0  0  0  0  0  0  0  0  0
   57.9310   30.0210   50.8770 O   0  0  0  0  0  0  0  0  0  0  0  0
   58.8950   29.4170   50.0330 C   0  0  0  0  0  0  0  0  0  0  0  0
   58.9630   30.1370   48.6830 C   0  0  0  0  0  0  0  0  0  0  0  0
   61.2040   32.4070   48.0060 N   0  0  0  0  0  0  0  0  0  0  0  0
   63.8113   34.0583   46.7025 H   0  0  0  0  0  0  0  0  0  0  0  0
   63.8156   32.2614   46.6671 H   0  0  0  0  0  0  0  0  0  0  0  0
   59.9385   35.1548   44.3063 H   0  0  0  0  0  0  0  0  0  0  0  0
   57.4506   35.1523   44.0998 H   0  0  0  0  0  0  0  0  0  0  0  0
   56.0631   33.8368   45.7021 H   0  0  0  0  0  0  0  0  0  0  0  0
   57.1520   32.5194   47.5182 H   0  0  0  0  0  0  0  0  0  0  0  0
   58.8169   33.1941   50.2056 H   0  0  0  0  0  0  0  0  0  0  0  0
   57.3248   32.3909   49.6091 H   0  0  0  0  0  0  0  0  0  0  0  0
   59.3455   31.3042   51.6409 H   0  0  0  0  0  0  0  0  0  0  0  0
   57.6200   31.7555   51.9271 H   0  0  0  0  0  0  0  0  0  0  0  0
   59.8809   29.4666   50.5183 H   0  0  0  0  0  0  0  0  0  0  0  0
   58.6057   28.3699   49.8601 H   0  0  0  0  0  0  0  0  0  0  0  0
   59.8173   29.7533   48.1059 H   0  0  0  0  0  0  0  0  0  0  0  0
   58.0320   29.9573   48.1253 H   0  0  0  0  0  0  0  0  0  0  0  0
   61.6940   31.8580   48.7490 H   0  0  0  0  0  0  0  0  0  0  0  0
  1  2  1  0
  2  3  1  0
  3  4  2  0
  4  5  1  0
  5  6  2  0
  6  7  1  0
  7  8  2  0
  8  9  1  0
  9 10  2  0
 10 11  1  0
 11 12  1  0
 12 13  1  0
 13 14  1  0
 14 15  1  0
 15 16  1  0
 16 17  1  0
 11 18  2  0
 18  3  1  0
 10  5  1  0
 17 12  1  0
  2 19  1  0
  2 20  1  0
  6 21  1  0
  7 22  1  0
  8 23  1  0
  9 24  1  0
 13 25  1  0
 13 26  1  0
 14 27  1  0
 14 28  1  0
 16 29  1  0
 16 30  1  0
 17 31  1  0
 17 32  1  0
 18 33  1  0
M  CHG  1  18   1
M  END
>  <UniqueID>  (8) 
8

>  <SMILES>  (8) 
BrCc1nc2ccccc2c(N2CCOCC2)[nH+]1

>  <Energy>  (8) 
43.21052098650651

>  <Genealogy>  (8) 
BrCc1nc2ccccc2c(N2CCOCC2)[nH+]1 (protonated)
BrCc1nc2ccccc2c(N2CCOCC2)[nH+]1 (3D coordinates assigned)
BrCc1nc2ccccc2c(N2CCOCC2)[nH+]1 (nonaromatic ring conformer: 43.21052098650651 kcal/mol)

>  <smiles>  (8) 
BrCc1nc(N2CCOCC2)c2ccccc2n1

>  <score_type>  (8) 
oracle

>  <origin>  (8) 
adg

>  <m_score__min__energy>  (8) 
-4.9199999999999999

>  <m_primary>  (8) 
energy

$$$$
8:0
     RDKit          3D

 43 46  0  0  0  0  0  0  0  0999 V2000
   57.7550   31.3590   45.2270 C   0  0  0  0  0  0  0  0  0  0  0  0
   58.5710   32.5110   45.7160 C   0  0  0  0  0  0  0  0  0  0  0  0
   58.1420   33.8280   45.5050 C   0  0  0  0  0  0  0  0  0  0  0  0
   58.9070   34.8840   46.0000 C   0  0  0  0  0  0  0  0  0  0  0  0
   60.0850   34.6230   46.7020 C   0  0  0  0  0  0  0  0  0  0  0  0
   60.4880   33.2940   46.8970 C   0  0  0  0  0  0  0  0  0  0  0  0
   61.7130   32.9710   47.6510 C   0  0  0  0  0  0  0  0  0  0  0  0
   61.7820   32.2560   48.8380 C   0  0  0  0  0  0  0  0  0  0  0  0
   60.6950   31.8380   49.6760 N   0  0  0  0  0  0  0  0  0  0  0  0
   60.4260   30.4360   50.0340 C   0  0  0  0  0  0  0  0  0  0  0  0
   59.2570   30.5910   50.9820 C   0  0  2  0  0  0  0  0  0  0  0  0
   58.1590   29.5980   51.2650 C   0  0  0  0  0  0  0  0  0  0  0  0
   57.0130   30.4340   51.6960 N   0  0  0  0  0  0  0  0  0  0  0  0
   57.3400   31.8320   51.3200 C   0  0  0  0  0  0  0  0  0  0  0  0
   58.4860   31.6940   50.3510 C   0  0  1  0  0  0  0  0  0  0  0  0
   59.5670   32.7080   50.0420 C   0  0  0  0  0  0  0  0  0  0  0  0
   63.1290   32.0720   49.0900 C   0  0  0  0  0  0  0  0  0  0  0  0
   63.8250   32.6510   48.0950 N   0  0  0  0  0  0  0  0  0  0  0  0
   62.9800   33.1790   47.2220 N   0  0  0  0  0  0  0  0  0  0  0  0
   63.4020   33.8470   45.9930 C   0  0  0  0  0  0  0  0  0  0  0  0
   59.7210   32.2810   46.4070 N   0  0  0  0  0  0  0  0  0  0  0  0
   57.3585   30.7993   46.0870 H   0  0  0  0  0  0  0  0  0  0  0  0
   56.9199   31.7339   44.6170 H   0  0  0  0  0  0  0  0  0  0  0  0
   58.3857   30.6956   44.6170 H   0  0  0  0  0  0  0  0  0  0  0  0
   57.2109   34.0272   44.9543 H   0  0  0  0  0  0  0  0  0  0  0  0
   58.5821   35.9223   45.8372 H   0  0  0  0  0  0  0  0  0  0  0  0
   60.6909   35.4512   47.0981 H   0  0  0  0  0  0  0  0  0  0  0  0
   60.1519   29.8404   49.1508 H   0  0  0  0  0  0  0  0  0  0  0  0
   61.2890   29.9078   50.4656 H   0  0  0  0  0  0  0  0  0  0  0  0
   59.7868   30.6124   51.9458 H   0  0  0  0  0  0  0  0  0  0  0  0
   57.9064   29.0273   50.3592 H   0  0  0  0  0  0  0  0  0  0  0  0
   58.4478   28.8563   52.0242 H   0  0  0  0  0  0  0  0  0  0  0  0
   56.9370   30.3850   52.7390 H   0  0  0  0  0  0  0  0  0  0  0  0
   56.4786   32.3186   50.8392 H   0  0  0  0  0  0  0  0  0  0  0  0
   57.5958   32.4543   52.1903 H   0  0  0  0  0  0  0  0  0  0  0  0
   57.9582   31.6725   49.3861 H   0  0  0  0  0  0  0  0  0  0  0  0
   59.2768   33.3615   49.2061 H   0  0  0  0  0  0  0  0  0  0  0  0
   59.7845   33.3962   50.8721 H   0  0  0  0  0  0  0  0  0  0  0  0
   63.5574   31.5436   49.9545 H   0  0  0  0  0  0  0  0  0  0  0  0
   64.8660   32.6740   48.0100 H   0  0  0  0  0  0  0  0  0  0  0  0
   63.9738   34.7522   46.2454 H   0  0  0  0  0  0  0  0  0  0  0  0
   64.0343   33.1662   45.4042 H   0  0  0  0  0  0  0  0  0  0  0  0
   62.5156   34.1256   45.4042 H   0  0  0  0  0  0  0  0  0  0  0  0
  1  2  1  0
  2  3  2  0
  3  4  1  0
  4  5  2  0
  5  6  1  0
  6  7  1  0
  7  8  2  0
  8  9  1  0
  9 10  1  0
 10 11  1  0
 11 12  1  0
 12 13  1  0
 13 14  1  0
 14 15  1  0
 15 16  1  0
  8 17  1  0
 17 18  2  0
 18 19  1  0
 19 20  1  0
  6 21  2  0
 21  2  1  0
 19  7  1  0
 16  9  1  0
 15 11  1  0
  1 22  1  0
  1 23  1  0
  1 24  1  0
  3 25  1  0
  4 26  1  0
  5 27  1  0
 10 28  1  0
 10 29  1  0
 11 30  1  1
 12 31  1  0
 12 32  1  0
 13 33  1  0
 14 34  1  0
 14 35  1  0
 15 36  1  6
 16 37  1  0
 16 38  1  0
 17 39  1  0
 18 40  1  0
 20 41  1  0
 20 42  1  0
 20 43  1  0
M  CHG  1  18   1
M  END
>  <UniqueID>  (9) 
9

>  <SMILES>  (9) 
Cc1cccc(-c2c(N3C[C@@H]4CNC[C@H]4C3)c[nH+]n2C)n1

>  <Energy>  (9) 
116.1340550904593

>  <Genealogy>  (9) 
Cc1cccc(-c2c(N3CC4CNCC4C3)c[nH+]n2C)n1 (protonated)
Cc1cccc(-c2c(N3C[C@@H]4CNC[C@H]4C3)c[nH+]n2C)n1 (chirality)
Cc1cccc(-c2c(N3C[C@@H]4CNC[C@H]4C3)c[nH+]n2C)n1 (3D coordinates assigned)
Cc1cccc(-c2c(N3C[C@@H]4CNC[C@H]4C3)c[nH+]n2C)n1 (nonaromatic ring conformer: 116.1340550904593 kcal/mol)

>  <smiles>  (9) 
Cc1cccc(-c2c(N3CC4CNCC4C3)cnn2C)n1

>  <score_type>  (9) 
oracle

>  <origin>  (9) 
adg

>  <m_score__min__energy>  (9) 
-5.6799999999999997

>  <m_primary>  (9) 
energy

$$$$
9:0
     RDKit          3D

 26 27  0  0  0  0  0  0  0  0999 V2000
   57.8633   33.5636   42.4440 H   0  0  0  0  0  0  0  0  0  0  0  0
   58.1190   32.8910   43.2760 C   0  0  0  0  0  0  0  0  0  0  0  0
   58.1290   31.5720   43.0390 C   0  0  0  0  0  0  0  0  0  0  0  0
   58.8398   31.1783   42.2976 H   0  0  0  0  0  0  0  0  0  0  0  0
   57.2310   30.6220   43.7260 C   0  0  0  0  0  0  0  0  0  0  0  0
   57.3540   30.0430   44.9820 C   0  0  0  0  0  0  0  0  0  0  0  0
   58.4470   30.2410   45.9840 C   0  0  0  0  0  0  0  0  0  0  0  0
   58.0314   30.1657   46.9997 H   0  0  0  0  0  0  0  0  0  0  0  0
   59.2168   29.4677   45.8446 H   0  0  0  0  0  0  0  0  0  0  0  0
   58.8966   31.2352   45.8446 H   0  0  0  0  0  0  0  0  0  0  0  0
   56.2800   29.2620   45.2200 N   0  0  0  0  0  0  0  0  0  0  0  0
   55.5190   29.3950   44.1140 C   0  0  0  0  0  0  0  0  0  0  0  0
   54.5556   28.8830   43.9735 H   0  0  0  0  0  0  0  0  0  0  0  0
   56.0630   30.2200   43.2010 N   0  0  0  0  0  0  0  0  0  0  0  0
   55.6590   30.4820   42.2740 H   0  0  0  0  0  0  0  0  0  0  0  0
   58.4320   33.4990   44.5930 C   0  0  0  0  0  0  0  0  0  0  0  0
   59.6030   34.2480   44.8310 C   0  0  0  0  0  0  0  0  0  0  0  0
   60.3251   34.4069   44.0165 H   0  0  0  0  0  0  0  0  0  0  0  0
   59.8520   34.7900   46.0960 C   0  0  0  0  0  0  0  0  0  0  0  0
   60.7653   35.3776   46.2712 H   0  0  0  0  0  0  0  0  0  0  0  0
   58.9440   34.5870   47.1370 C   0  0  0  0  0  0  0  0  0  0  0  0
   59.1402   35.0186   48.1296 H   0  0  0  0  0  0  0  0  0  0  0  0
   57.7880   33.8370   46.9190 C   0  0  0  0  0  0  0  0  0  0  0  0
   57.0753   33.6747   47.7410 H   0  0  0  0  0  0  0  0  0  0  0  0
   57.5340   33.2910   45.6560 C   0  0  0  0  0  0  0  0  0  0  0  0
   56.6246   32.6941   45.4928 H   0  0  0  0  0  0  0  0  0  0  0  0
  1  2  1  0
  2  3  2  0
  3  4  1  0
  3  5  1  0
  5  6  2  0
  6  7  1  0
  7  8  1  0
  7  9  1  0
  7 10  1  0
  6 11  1  0
 11 12  2  0
 12 13  1  0
 12 14  1  0
 14 15  1  0
  2 16  1  0
 16 17  2  0
 17 18  1  0
 17 19  1  0
 19 20  1  0
 19 21  2  0
 21 22  1  0
 21 23  1  0
 23 24  1  0
 23 25  2  0
 25 26  1  0
 14  5  1  0
 25 16  1  0
M  END
>  <UniqueID>  (10) 
10

>  <SMILES>  (10) 
Cc1nc[nH]c1/C=C/c1ccccc1

>  <Energy>  (10) 
59.59544622540417

>  <Genealogy>  (10) 
Cc1nc[nH]c1/C=C/c1ccccc1 (cis-trans isomerization)
Cc1nc[nH]c1/C=C/c1ccccc1 (3D coordinates assigned)
Cc1nc[nH]c1/C=C/c1ccccc1 (optimized conformer: 59.59544622540417 kcal/mol)

>  <smiles>  (10) 
Cc1nc[nH]c1C=Cc1ccccc1

>  <score_type>  (10) 
oracle

>  <origin>  (10) 
adg

>  <m_score__min__energy>  (10) 
-5.8899999999999997

>  <m_primary>  (10) 
energy

$$$$
10:0
     RDKit          3D

 22 22  0  0  0  0  0  0  0  0999 V2000
   57.4150   33.6650   46.1070 C   0  0  0  0  0  0  0  0  0  0  0  0
   58.1470   33.4420   44.7850 C   0  0  0  0  0  0  0  0  0  0  0  0
   57.6750   32.1720   44.0750 C   0  0  0  0  0  0  0  0  0  0  0  0
   56.6410   31.5100   44.8680 N   0  0  0  0  0  0  0  0  0  0  0  0
   56.4200   29.8810   44.3050 S   0  0  0  0  0  0  0  0  0  0  0  0
   55.1440   29.3270   44.8760 O   0  0  0  0  0  0  0  0  0  0  0  0
   56.3230   29.8710   42.8050 O   0  0  0  0  0  0  0  0  0  0  0  0
   57.7600   28.8710   44.8180 C   0  0  0  0  0  0  0  0  0  0  0  0
   59.1010   29.1410   44.6010 C   0  0  0  0  0  0  0  0  0  0  0  0
   59.9450   28.1410   45.0980 C   0  0  0  0  0  0  0  0  0  0  0  0
   59.2670   27.0880   45.7000 C   0  0  0  0  0  0  0  0  0  0  0  0
   57.6160   27.3990   45.6130 S   0  0  0  0  0  0  0  0  0  0  0  0
   58.0979   33.4570   46.9439 H   0  0  0  0  0  0  0  0  0  0  0  0
   57.0717   34.7085   46.1646 H   0  0  0  0  0  0  0  0  0  0  0  0
   56.5482   32.9902   46.1646 H   0  0  0  0  0  0  0  0  0  0  0  0
   57.9640   34.3050   44.1279 H   0  0  0  0  0  0  0  0  0  0  0  0
   59.2188   33.3294   45.0052 H   0  0  0  0  0  0  0  0  0  0  0  0
   57.2643   32.4370   43.0896 H   0  0  0  0  0  0  0  0  0  0  0  0
   58.5284   31.4888   43.9525 H   0  0  0  0  0  0  0  0  0  0  0  0
   59.4644   30.0458   44.0918 H   0  0  0  0  0  0  0  0  0  0  0  0
   61.0413   28.1846   45.0194 H   0  0  0  0  0  0  0  0  0  0  0  0
   59.7312   26.2012   46.1562 H   0  0  0  0  0  0  0  0  0  0  0  0
  1  2  1  0
  2  3  1  0
  3  4  1  0
  4  5  1  0
  5  6  2  0
  5  7  2  0
  5  8  1  0
  8  9  2  0
  9 10  1  0
 10 11  2  0
 11 12  1  0
 12  8  1  0
  1 13  1  0
  1 14  1  0
  1 15  1  0
  2 16  1  0
  2 17  1  0
  3 18  1  0
  3 19  1  0
  9 20  1  0
 10 21  1  0
 11 22  1  0
M  CHG  1   4  -1
M  END
>  <UniqueID>  (11) 
11

>  <SMILES>  (11) 
CCC[N-]S(=O)(=O)c1cccs1

>  <Energy>  (11) 
39.349907259673714

>  <Genealogy>  (11) 
CCC[N-]S(=O)(=O)c1cccs1 (protonated)
CCC[N-]S(=O)(=O)c1cccs1 (3D coordinates assigned)
CCC[N-]S(=O)(=O)c1cccs1 (optimized conformer: 39.349907259673714 kcal/mol)

>  <smiles>  (11) 
CCCNS(=O)(=O)c1cccs1

>  <score_type>  (11) 
oracle

>  <origin>  (11) 
adg

>  <m_score__min__energy>  (11) 
-6.7599999999999998

>  <m_primary>  (11) 
energy

$$$$
11:0
     RDKit          3D

 43 46  0  0  0  0  0  0  0  0999 V2000
   59.9350   34.6900   47.6740 C   0  0  0  0  0  0  0  0  0  0  0  0
   59.9940   35.0680   46.3300 C   0  0  0  0  0  0  0  0  0  0  0  0
   59.0420   34.5900   45.4240 C   0  0  0  0  0  0  0  0  0  0  0  0
   58.0160   33.7360   45.8610 C   0  0  0  0  0  0  0  0  0  0  0  0
   57.0280   33.1720   44.8740 C   0  0  0  0  0  0  0  0  0  0  0  0
   57.4990   31.8350   44.2860 C   0  0  0  0  0  0  0  0  0  0  0  0
   57.3730   30.7810   45.2410 O   0  0  0  0  0  0  0  0  0  0  0  0
   58.4510   30.2480   45.9620 C   0  0  0  0  0  0  0  0  0  0  0  0
   59.4860   31.0430   46.3440 N   0  0  0  0  0  0  0  0  0  0  0  0
   60.5300   30.5670   47.0740 C   0  0  0  0  0  0  0  0  0  0  0  0
   61.6210   31.4750   47.4980 C   0  0  0  0  0  0  0  0  0  0  0  0
   62.3200   31.2400   48.6970 C   0  0  0  0  0  0  0  0  0  0  0  0
   63.3570   32.0930   49.0690 C   0  0  0  0  0  0  0  0  0  0  0  0
   63.6940   33.1740   48.2570 C   0  0  0  0  0  0  0  0  0  0  0  0
   62.9820   33.3870   47.0760 C   0  0  0  0  0  0  0  0  0  0  0  0
   61.9720   32.5470   46.7220 N   0  0  0  0  0  0  0  0  0  0  0  0
   60.5530   29.2540   47.4290 N   0  0  0  0  0  0  0  0  0  0  0  0
   59.5550   28.4080   47.0650 C   0  0  0  0  0  0  0  0  0  0  0  0
   59.6040   27.0610   47.4440 C   0  0  0  0  0  0  0  0  0  0  0  0
   58.5720   26.1930   47.0750 C   0  0  0  0  0  0  0  0  0  0  0  0
   57.4890   26.6670   46.3290 C   0  0  0  0  0  0  0  0  0  0  0  0
   57.4310   28.0110   45.9460 C   0  0  0  0  0  0  0  0  0  0  0  0
   58.4650   28.8890   46.3100 C   0  0  0  0  0  0  0  0  0  0  0  0
   57.9590   33.3650   47.2160 C   0  0  0  0  0  0  0  0  0  0  0  0
   58.9180   33.8410   48.1160 C   0  0  0  0  0  0  0  0  0  0  0  0
   60.6893   35.0610   48.3835 H   0  0  0  0  0  0  0  0  0  0  0  0
   60.7908   35.7428   45.9840 H   0  0  0  0  0  0  0  0  0  0  0  0
   59.0968   34.8838   44.3654 H   0  0  0  0  0  0  0  0  0  0  0  0
   56.0663   33.0158   45.3846 H   0  0  0  0  0  0  0  0  0  0  0  0
   56.9284   33.8898   44.0465 H   0  0  0  0  0  0  0  0  0  0  0  0
   56.8876   31.5953   43.4035 H   0  0  0  0  0  0  0  0  0  0  0  0
   58.5590   31.9296   44.0076 H   0  0  0  0  0  0  0  0  0  0  0  0
   62.0490   30.3874   49.3370 H   0  0  0  0  0  0  0  0  0  0  0  0
   63.9093   31.9131   50.0031 H   0  0  0  0  0  0  0  0  0  0  0  0
   64.5118   33.8516   48.5436 H   0  0  0  0  0  0  0  0  0  0  0  0
   63.2385   34.2381   46.4281 H   0  0  0  0  0  0  0  0  0  0  0  0
   61.4690   32.7380   45.8270 H   0  0  0  0  0  0  0  0  0  0  0  0
   60.4545   26.6857   48.0321 H   0  0  0  0  0  0  0  0  0  0  0  0
   58.6123   25.1347   47.3724 H   0  0  0  0  0  0  0  0  0  0  0  0
   56.6791   25.9802   46.0420 H   0  0  0  0  0  0  0  0  0  0  0  0
   56.5762   28.3800   45.3602 H   0  0  0  0  0  0  0  0  0  0  0  0
   57.1582   32.6987   47.5692 H   0  0  0  0  0  0  0  0  0  0  0  0
   58.8711   33.5459   49.1746 H   0  0  0  0  0  0  0  0  0  0  0  0
  1  2  2  0
  2  3  1  0
  3  4  2  0
  4  5  1  0
  5  6  1  0
  6  7  1  0
  7  8  1  0
  8  9  2  0
  9 10  1  0
 10 11  1  0
 11 12  2  0
 12 13  1  0
 13 14  2  0
 14 15  1  0
 15 16  2  0
 10 17  2  0
 17 18  1  0
 18 19  2  0
 19 20  1  0
 20 21  2  0
 21 22  1  0
 22 23  2  0
  4 24  1  0
 24 25  2  0
 25  1  1  0
 23  8  1  0
 16 11  1  0
 23 18  1  0
  1 26  1  0
  2 27  1  0
  3 28  1  0
  5 29  1  0
  5 30  1  0
  6 31  1  0
  6 32  1  0
 12 33  1  0
 13 34  1  0
 14 35  1  0
 15 36  1  0
 16 37  1  0
 19 38  1  0
 20 39  1  0
 21 40  1  0
 22 41  1  0
 24 42  1  0
 25 43  1  0
M  CHG  1  16   1
M  END
>  <UniqueID>  (12) 
12

>  <SMILES>  (12) 
c1ccc(CCOc2nc(-c3cccc[nH+]3)nc3ccccc23)cc1

>  <Energy>  (12) 
45.740590734456276

>  <Genealogy>  (12) 
c1ccc(CCOc2nc(-c3cccc[nH+]3)nc3ccccc23)cc1 (protonated)
c1ccc(CCOc2nc(-c3cccc[nH+]3)nc3ccccc23)cc1 (3D coordinates assigned)
c1ccc(CCOc2nc(-c3cccc[nH+]3)nc3ccccc23)cc1 (optimized conformer: 45.740590734456276 kcal/mol)

>  <smiles>  (12) 
c1ccc(CCOc2nc(-c3ccccn3)nc3ccccc23)cc1

>  <score_type>  (12) 
oracle

>  <origin>  (12) 
adg

>  <m_score__min__energy>  (12) 
-6.5800000000000001

>  <m_primary>  (12) 
energy

$$$$
12:0
     RDKit          3D

 42 43  0  0  0  0  0  0  0  0999 V2000
   60.6711   35.4782   45.7520 H   0  0  0  0  0  0  0  0  0  0  0  0
   60.4070   34.5990   46.3580 C   0  0  0  0  0  0  0  0  0  0  0  0
   59.1650   34.1030   46.2210 C   0  0  0  0  0  0  0  0  0  0  0  0
   58.3368   34.8247   46.1652 H   0  0  0  0  0  0  0  0  0  0  0  0
   58.8200   32.6660   46.1390 C   0  0  0  0  0  0  0  0  0  0  0  0
   59.5950   31.6890   46.7790 C   0  0  0  0  0  0  0  0  0  0  0  0
   60.4855   31.9919   47.3493 H   0  0  0  0  0  0  0  0  0  0  0  0
   59.2510   30.3260   46.7030 C   0  0  0  0  0  0  0  0  0  0  0  0
   60.0010   29.3580   47.3890 O   0  0  0  0  0  0  0  0  0  0  0  0
   60.7420   29.5920   48.5830 C   0  0  0  0  0  0  0  0  0  0  0  0
   60.1038   29.3905   49.4560 H   0  0  0  0  0  0  0  0  0  0  0  0
   61.6176   28.9266   48.6075 H   0  0  0  0  0  0  0  0  0  0  0  0
   61.0767   30.6396   48.6075 H   0  0  0  0  0  0  0  0  0  0  0  0
   58.1320   29.9370   45.9230 C   0  0  0  0  0  0  0  0  0  0  0  0
   57.7070   28.6020   45.7760 O   0  0  0  0  0  0  0  0  0  0  0  0
   58.2950   27.6110   44.9400 C   0  0  0  0  0  0  0  0  0  0  0  0
   58.7572   26.8320   45.5641 H   0  0  0  0  0  0  0  0  0  0  0  0
   57.5186   27.1593   44.3050 H   0  0  0  0  0  0  0  0  0  0  0  0
   59.0635   28.0759   44.3050 H   0  0  0  0  0  0  0  0  0  0  0  0
   57.3830   30.9140   45.2450 C   0  0  0  0  0  0  0  0  0  0  0  0
   56.2890   30.4930   44.4720 O   0  0  0  0  0  0  0  0  0  0  0  0
   56.3810   29.9890   43.1430 C   0  0  0  0  0  0  0  0  0  0  0  0
   56.5785   28.9073   43.1739 H   0  0  0  0  0  0  0  0  0  0  0  0
   55.4343   30.1739   42.6144 H   0  0  0  0  0  0  0  0  0  0  0  0
   57.2013   30.4965   42.6144 H   0  0  0  0  0  0  0  0  0  0  0  0
   57.7350   32.2720   45.3520 C   0  0  0  0  0  0  0  0  0  0  0  0
   57.1504   33.0306   44.8109 H   0  0  0  0  0  0  0  0  0  0  0  0
   61.4460   34.0560   47.2590 C   0  0  0  0  0  0  0  0  0  0  0  0
   62.6410   33.5090   46.7590 C   0  0  0  0  0  0  0  0  0  0  0  0
   62.8148   33.4757   45.6733 H   0  0  0  0  0  0  0  0  0  0  0  0
   63.6100   33.0070   47.6340 C   0  0  0  0  0  0  0  0  0  0  0  0
   64.5508   32.6000   47.2350 H   0  0  0  0  0  0  0  0  0  0  0  0
   63.3850   33.0210   49.0240 C   0  0  0  0  0  0  0  0  0  0  0  0
   64.3280   32.5360   49.9420 O   0  0  0  0  0  0  0  0  0  0  0  0
   65.7330   32.7410   49.8370 C   0  0  0  0  0  0  0  0  0  0  0  0
   66.1705   32.8048   50.8442 H   0  0  0  0  0  0  0  0  0  0  0  0
   66.1867   31.8995   49.2928 H   0  0  0  0  0  0  0  0  0  0  0  0
   65.9273   33.6770   49.2928 H   0  0  0  0  0  0  0  0  0  0  0  0
   62.1790   33.5330   49.5160 C   0  0  0  0  0  0  0  0  0  0  0  0
   61.9903   33.5386   50.5997 H   0  0  0  0  0  0  0  0  0  0  0  0
   61.2130   34.0370   48.6420 C   0  0  0  0  0  0  0  0  0  0  0  0
   60.2629   34.4217   49.0411 H   0  0  0  0  0  0  0  0  0  0  0  0
  1  2  1  0
  2  3  2  0
  3  4  1  0
  3  5  1  0
  5  6  2  0
  6  7  1  0
  6  8  1  0
  8  9  1  0
  9 10  1  0
 10 11  1  0
 10 12  1  0
 10 13  1  0
  8 14  2  0
 14 15  1  0
 15 16  1  0
 16 17  1  0
 16 18  1  0
 16 19  1  0
 14 20  1  0
 20 21  1  0
 21 22  1  0
 22 23  1  0
 22 24  1  0
 22 25  1  0
 20 26  2  0
 26 27  1  0
  2 28  1  0
 28 29  2  0
 29 30  1  0
 29 31  1  0
 31 32  1  0
 31 33  2  0
 33 34  1  0
 34 35  1  0
 35 36  1  0
 35 37  1  0
 35 38  1  0
 33 39  1  0
 39 40  1  0
 39 41  2  0
 41 42  1  0
 26  5  1  0
 41 28  1  0
M  END
>  <UniqueID>  (13) 
13

>  <SMILES>  (13) 
COc1ccc(/C=C\c2cc(OC)c(OC)c(OC)c2)cc1

>  <Energy>  (13) 
51.62102696683092

>  <Genealogy>  (13) 
COc1ccc(/C=C\c2cc(OC)c(OC)c(OC)c2)cc1 (cis-trans isomerization)
COc1ccc(/C=C\c2cc(OC)c(OC)c(OC)c2)cc1 (3D coordinates assigned)
COc1ccc(/C=C\c2cc(OC)c(OC)c(OC)c2)cc1 (optimized conformer: 51.62102696683092 kcal/mol)

>  <smiles>  (13) 
COc1ccc(C=Cc2cc(OC)c(OC)c(OC)c2)cc1

>  <score_type>  (13) 
oracle

>  <origin>  (13) 
adg

>  <m_score__min__energy>  (13) 
-6.1699999999999999

>  <m_primary>  (13) 
energy

$$$$
13:0
     RDKit          3D

 58 61  0  0  0  0  0  0  0  0999 V2000
   55.9230   29.8480   42.9940 C   0  0  0  0  0  0  0  0  0  0  0  0
   56.0920   29.3120   44.3000 O   0  0  0  0  0  0  0  0  0  0  0  0
   57.2560   28.6690   44.7510 C   0  0  0  0  0  0  0  0  0  0  0  0
   57.3360   27.3060   44.8180 N   0  0  0  0  0  0  0  0  0  0  0  0
   58.4690   26.6690   45.2350 C   0  0  0  0  0  0  0  0  0  0  0  0
   58.4930   25.1650   45.3340 C   0  0  0  0  0  0  0  0  0  0  0  0
   57.3370   24.5750   44.6280 N   0  0  0  0  0  0  0  0  0  0  0  0
   56.1480   24.5010   45.5160 C   0  0  0  0  0  0  0  0  0  0  0  0
   55.0100   23.6420   44.9180 C   0  0  0  0  0  0  0  0  0  0  0  0
   55.2190   23.3880   43.4240 C   0  0  0  0  0  0  0  0  0  0  0  0
   56.5810   22.7260   43.1610 C   0  0  0  0  0  0  0  0  0  0  0  0
   57.6760   23.2320   44.1190 C   0  0  0  0  0  0  0  0  0  0  0  0
   59.5890   27.4170   45.6140 C   0  0  0  0  0  0  0  0  0  0  0  0
   59.5300   28.8110   45.5730 C   0  0  0  0  0  0  0  0  0  0  0  0
   58.3600   29.4480   45.1450 C   0  0  0  0  0  0  0  0  0  0  0  0
   58.3500   30.9550   45.0880 C   0  0  0  0  0  0  0  0  0  0  0  0
   59.0620   31.5130   46.2530 N   0  0  0  0  0  0  0  0  0  0  0  0
   58.5050   32.6390   46.9690 C   0  0  0  0  0  0  0  0  0  0  0  0
   57.6440   33.3790   46.4150 O   0  0  0  0  0  0  0  0  0  0  0  0
   58.9000   32.9420   48.3580 C   0  0  0  0  0  0  0  0  0  0  0  0
   59.9210   33.8670   48.6200 C   0  0  0  0  0  0  0  0  0  0  0  0
   60.2730   34.1690   49.9360 C   0  0  0  0  0  0  0  0  0  0  0  0
   59.6070   33.5560   50.9990 C   0  0  0  0  0  0  0  0  0  0  0  0
   58.5870   32.6180   50.7570 C   0  0  0  0  0  0  0  0  0  0  0  0
   57.8290   32.0130   51.9080 C   0  0  0  0  0  0  0  0  0  0  0  0
   56.8660   32.8950   52.3690 F   0  0  0  0  0  0  0  0  0  0  0  0
   58.6810   31.7170   52.9580 F   0  0  0  0  0  0  0  0  0  0  0  0
   57.2130   30.8500   51.4850 F   0  0  0  0  0  0  0  0  0  0  0  0
   58.2220   32.3360   49.4290 C   0  0  0  0  0  0  0  0  0  0  0  0
   60.2940   30.8720   46.7620 C   0  0  0  0  0  0  0  0  0  0  0  0
   60.7220   29.6510   45.9330 C   0  0  0  0  0  0  0  0  0  0  0  0
   55.5930   30.8948   43.0671 H   0  0  0  0  0  0  0  0  0  0  0  0
   56.8792   29.8020   42.4522 H   0  0  0  0  0  0  0  0  0  0  0  0
   55.1661   29.2619   42.4522 H   0  0  0  0  0  0  0  0  0  0  0  0
   56.5170   26.7220   44.5460 H   0  0  0  0  0  0  0  0  0  0  0  0
   59.4224   24.7885   44.8819 H   0  0  0  0  0  0  0  0  0  0  0  0
   58.4412   24.8803   46.3953 H   0  0  0  0  0  0  0  0  0  0  0  0
   56.4532   24.0613   46.4770 H   0  0  0  0  0  0  0  0  0  0  0  0
   55.7622   25.5235   45.6411 H   0  0  0  0  0  0  0  0  0  0  0  0
   54.9788   22.6759   45.4430 H   0  0  0  0  0  0  0  0  0  0  0  0
   54.0643   24.1894   45.0440 H   0  0  0  0  0  0  0  0  0  0  0  0
   54.4208   22.7260   43.0569 H   0  0  0  0  0  0  0  0  0  0  0  0
   55.1924   24.3538   42.8981 H   0  0  0  0  0  0  0  0  0  0  0  0
   56.4754   21.6385   43.2884 H   0  0  0  0  0  0  0  0  0  0  0  0
   56.8868   22.9846   42.1365 H   0  0  0  0  0  0  0  0  0  0  0  0
   57.7659   22.5359   44.9660 H   0  0  0  0  0  0  0  0  0  0  0  0
   58.6287   23.2888   43.5721 H   0  0  0  0  0  0  0  0  0  0  0  0
   60.5088   26.9105   45.9417 H   0  0  0  0  0  0  0  0  0  0  0  0
   58.8474   31.2871   44.1648 H   0  0  0  0  0  0  0  0  0  0  0  0
   57.3083   31.3080   45.1009 H   0  0  0  0  0  0  0  0  0  0  0  0
   60.4457   34.3557   47.7859 H   0  0  0  0  0  0  0  0  0  0  0  0
   61.0774   34.8920   50.1365 H   0  0  0  0  0  0  0  0  0  0  0  0
   59.8820   33.8085   52.0337 H   0  0  0  0  0  0  0  0  0  0  0  0
   57.3987   31.6351   49.2267 H   0  0  0  0  0  0  0  0  0  0  0  0
   61.1079   31.6118   46.7424 H   0  0  0  0  0  0  0  0  0  0  0  0
   60.0840   30.5196   47.7826 H   0  0  0  0  0  0  0  0  0  0  0  0
   61.2136   29.9946   45.0109 H   0  0  0  0  0  0  0  0  0  0  0  0
   61.4164   29.0426   46.5310 H   0  0  0  0  0  0  0  0  0  0  0  0
  1  2  1  0
  2  3  1  0
  3  4  2  0
  4  5  1  0
  5  6  1  0
  6  7  1  0
  7  8  1  0
  8  9  1  0
  9 10  1  0
 10 11  1  0
 11 12  1  0
  5 13  2  0
 13 14  1  0
 14 15  2  0
 15 16  1  0
 16 17  1  0
 17 18  1  0
 18 19  2  0
 18 20  1  0
 20 21  2  0
 21 22  1  0
 22 23  2  0
 23 24  1  0
 24 25  1  0
 25 26  1  0
 25 27  1  0
 25 28  1  0
 24 29  2  0
 17 30  1  0
 30 31  1  0
 15  3  1  0
 29 20  1  0
 12  7  1  0
 31 14  1  0
  1 32  1  0
  1 33  1  0
  1 34  1  0
  4 35  1  0
  6 36  1  0
  6 37  1  0
  8 38  1  0
  8 39  1  0
  9 40  1  0
  9 41  1  0
 10 42  1  0
 10 43  1  0
 11 44  1  0
 11 45  1  0
 12 46  1  0
 12 47  1  0
 13 48  1  0
 16 49  1  0
 16 50  1  0
 21 51  1  0
 22 52  1  0
 23 53  1  0
 29 54  1  0
 30 55  1  0
 30 56  1  0
 31 57  1  0
 31 58  1  0
M  CHG  1   4   1
M  END
>  <UniqueID>  (14) 
14

>  <SMILES>  (14) 
COc1[nH+]c(CN2CCCCC2)cc2c1CN(C(=O)c1cccc(C(F)(F)F)c1)CC2

>  <Energy>  (14) 
74.30234351547621

>  <Genealogy>  (14) 
COc1[nH+]c(CN2CCCCC2)cc2c1CN(C(=O)c1cccc(C(F)(F)F)c1)CC2 (protonated)
COc1[nH+]c(CN2CCCCC2)cc2c1CN(C(=O)c1cccc(C(F)(F)F)c1)CC2 (3D coordinates assigned)
COc1[nH+]c(CN2CCCCC2)cc2c1CN(C(=O)c1cccc(C(F)(F)F)c1)CC2 (nonaromatic ring conformer: 74.30234351547621 kcal/mol)

>  <smiles>  (14) 
COc1nc(CN2CCCCC2)cc2c1CN(C(=O)c1cccc(C(F)(F)F)c1)CC2

>  <score_type>  (14) 
oracle

>  <origin>  (14) 
adg

>  <m_score__min__energy>  (14) 
-6.9699999999999998

>  <m_primary>  (14) 
energy

$$$$
14:0
     RDKit          3D

 64 68  0  0  0  0  0  0  0  0999 V2000
   56.4370   30.0100   43.3080 C   0  0  0  0  0  0  0  0  0  0  0  0
   56.7220   31.2800   44.1090 C   0  0  0  0  0  0  0  0  0  0  0  0
   58.1550   31.8020   43.9120 C   0  0  0  0  0  0  0  0  0  0  0  0
   58.3230   33.3130   44.1880 C   0  0  0  0  0  0  0  0  0  0  0  0
   58.5540   33.6120   45.6170 N   0  0  0  0  0  0  0  0  0  0  0  0
   57.6070   33.0860   46.6150 C   0  0  0  0  0  0  0  0  0  0  0  0
   58.3250   32.3780   47.7340 C   0  0  0  0  0  0  0  0  0  0  0  0
   58.0820   32.6960   49.0310 N   0  0  0  0  0  0  0  0  0  0  0  0
   58.8700   31.8420   49.7090 C   0  0  0  0  0  0  0  0  0  0  0  0
   59.5600   31.0480   48.8590 C   0  0  0  0  0  0  0  0  0  0  0  0
   60.4520   30.1020   49.3580 C   0  0  0  0  0  0  0  0  0  0  0  0
   61.1410   29.3920   48.5780 O   0  0  0  0  0  0  0  0  0  0  0  0
   60.5680   29.9710   50.7230 N   0  0  0  0  0  0  0  0  0  0  0  0
   61.5090   28.9870   51.2860 C   0  0  0  0  0  0  0  0  0  0  0  0
   59.8540   30.8030   51.5680 C   0  0  0  0  0  0  0  0  0  0  0  0
   59.9930   30.6980   52.8190 O   0  0  0  0  0  0  0  0  0  0  0  0
   58.9960   31.7530   51.0610 N   0  0  0  0  0  0  0  0  0  0  0  0
   58.2180   32.6160   51.9590 C   0  0  0  0  0  0  0  0  0  0  0  0
   59.2280   31.3620   47.5870 N   0  0  0  0  0  0  0  0  0  0  0  0
   59.7670   30.7770   46.3510 C   0  0  0  0  0  0  0  0  0  0  0  0
   59.2640   29.3690   46.1360 C   0  0  0  0  0  0  0  0  0  0  0  0
   60.1590   28.3220   45.8600 C   0  0  0  0  0  0  0  0  0  0  0  0
   59.6930   27.0140   45.6990 C   0  0  0  0  0  0  0  0  0  0  0  0
   58.3290   26.7370   45.8240 C   0  0  0  0  0  0  0  0  0  0  0  0
   57.4320   27.7680   46.1160 C   0  0  0  0  0  0  0  0  0  0  0  0
   57.8970   29.0770   46.2790 C   0  0  0  0  0  0  0  0  0  0  0  0
   59.5880   34.5360   46.0380 C   0  0  0  0  0  0  0  0  0  0  0  0
   59.5490   35.7360   45.6560 O   0  0  0  0  0  0  0  0  0  0  0  0
   60.6950   34.1270   46.9220 C   0  0  0  0  0  0  0  0  0  0  0  0
   61.8200   33.4640   46.3690 C   0  0  0  0  0  0  0  0  0  0  0  0
   62.8830   33.0550   47.1900 C   0  0  0  0  0  0  0  0  0  0  0  0
   62.7810   33.3100   48.5510 C   0  0  0  0  0  0  0  0  0  0  0  0
   63.8160   32.9740   49.8080 S   0  0  0  0  0  0  0  0  0  0  0  0
   62.8650   33.6160   51.0190 N   0  0  0  0  0  0  0  0  0  0  0  0
   61.7460   34.0930   50.4720 N   0  0  0  0  0  0  0  0  0  0  0  0
   61.6840   33.9350   49.1180 C   0  0  0  0  0  0  0  0  0  0  0  0
   60.6210   34.3460   48.3150 C   0  0  0  0  0  0  0  0  0  0  0  0
   56.2496   29.1749   43.9991 H   0  0  0  0  0  0  0  0  0  0  0  0
   55.5518   30.1671   42.6742 H   0  0  0  0  0  0  0  0  0  0  0  0
   57.3045   29.7738   42.6742 H   0  0  0  0  0  0  0  0  0  0  0  0
   56.0167   32.0617   43.7905 H   0  0  0  0  0  0  0  0  0  0  0  0
   56.6042   31.0322   45.1742 H   0  0  0  0  0  0  0  0  0  0  0  0
   58.8195   31.2510   44.5938 H   0  0  0  0  0  0  0  0  0  0  0  0
   58.4055   31.6448   42.8525 H   0  0  0  0  0  0  0  0  0  0  0  0
   59.1816   33.6828   43.6083 H   0  0  0  0  0  0  0  0  0  0  0  0
   57.3870   33.8097   43.8928 H   0  0  0  0  0  0  0  0  0  0  0  0
   57.0275   33.9219   47.0339 H   0  0  0  0  0  0  0  0  0  0  0  0
   56.9446   32.3630   46.1165 H   0  0  0  0  0  0  0  0  0  0  0  0
   61.4693   29.0285   52.3845 H   0  0  0  0  0  0  0  0  0  0  0  0
   61.2310   27.9782   50.9469 H   0  0  0  0  0  0  0  0  0  0  0  0
   62.5292   29.2196   50.9469 H   0  0  0  0  0  0  0  0  0  0  0  0
   58.4484   32.3604   53.0038 H   0  0  0  0  0  0  0  0  0  0  0  0
   58.4785   33.6684   51.7729 H   0  0  0  0  0  0  0  0  0  0  0  0
   57.1443   32.4656   51.7729 H   0  0  0  0  0  0  0  0  0  0  0  0
   59.4599   31.3998   45.4979 H   0  0  0  0  0  0  0  0  0  0  0  0
   60.8630   30.7411   46.4372 H   0  0  0  0  0  0  0  0  0  0  0  0
   61.2348   28.5331   45.7699 H   0  0  0  0  0  0  0  0  0  0  0  0
   60.4004   26.2023   45.4738 H   0  0  0  0  0  0  0  0  0  0  0  0
   57.9618   25.7085   45.6927 H   0  0  0  0  0  0  0  0  0  0  0  0
   56.3587   27.5498   46.2178 H   0  0  0  0  0  0  0  0  0  0  0  0
   57.1882   29.8828   46.5206 H   0  0  0  0  0  0  0  0  0  0  0  0
   61.8602   33.2684   45.2873 H   0  0  0  0  0  0  0  0  0  0  0  0
   63.7655   32.5504   46.7698 H   0  0  0  0  0  0  0  0  0  0  0  0
   59.7399   34.8325   48.7589 H   0  0  0  0  0  0  0  0  0  0  0  0
  1  2  1  0
  2  3  1  0
  3  4  1  0
  4  5  1  0
  5  6  1  0
  6  7  1  0
  7  8  2  0
  8  9  1  0
  9 10  2  0
 10 11  1  0
 11 12  2  0
 11 13  1  0
 13 14  1  0
 13 15  1  0
 15 16  2  0
 15 17  1  0
 17 18  1  0
 10 19  1  0
 19 20  1  0
 20 21  1  0
 21 22  2  0
 22 23  1  0
 23 24  2  0
 24 25  1  0
 25 26  2  0
  5 27  1  0
 27 28  2  0
 27 29  1  0
 29 30  2  0
 30 31  1  0
 31 32  2  0
 32 33  1  0
 33 34  1  0
 34 35  2  0
 35 36  1  0
 36 37  2  0
 19  7  1  0
 26 21  1  0
 37 29  1  0
 17  9  1  0
 36 32  1  0
  1 38  1  0
  1 39  1  0
  1 40  1  0
  2 41  1  0
  2 42  1  0
  3 43  1  0
  3 44  1  0
  4 45  1  0
  4 46  1  0
  6 47  1  0
  6 48  1  0
 14 49  1  0
 14 50  1  0
 14 51  1  0
 18 52  1  0
 18 53  1  0
 18 54  1  0
 20 55  1  0
 20 56  1  0
 22 57  1  0
 23 58  1  0
 24 59  1  0
 25 60  1  0
 26 61  1  0
 30 62  1  0
 31 63  1  0
 37 64  1  0
M  END
>  <UniqueID>  (15) 
15

>  <SMILES>  (15) 
CCCCN(Cc1nc2c(c(=O)n(C)c(=O)n2C)n1Cc1ccccc1)C(=O)c1ccc2snnc2c1

>  <Energy>  (15) 
155.41821004016748

>  <Genealogy>  (15) 
CCCCN(Cc1nc2c(c(=O)n(C)c(=O)n2C)n1Cc1ccccc1)C(=O)c1ccc2snnc2c1 (3D coordinates assigned)
CCCCN(Cc1nc2c(c(=O)n(C)c(=O)n2C)n1Cc1ccccc1)C(=O)c1ccc2snnc2c1 (optimized conformer: 155.41821004016748 kcal/mol)

>  <smiles>  (15) 
CCCCN(Cc1nc2c(c(=O)n(C)c(=O)n2C)n1Cc1ccccc1)C(=O)c1ccc2snnc2c1

>  <score_type>  (15) 
oracle

>  <origin>  (15) 
adg

>  <m_score__min__energy>  (15) 
-9.7300000000000004

>  <m_primary>  (15) 
energy

$$$$
15:0
     RDKit          3D

 28 29  0  0  0  0  0  0  0  0999 V2000
   59.7300   34.9240   46.8910 C   0  0  0  0  0  0  0  0  0  0  0  0
   58.4980   34.0760   47.1910 C   0  0  0  0  0  0  0  0  0  0  0  0
   58.4080   32.9450   46.2480 N   0  0  0  0  0  0  0  0  0  0  0  0
   58.5170   31.6550   46.7190 C   0  0  0  0  0  0  0  0  0  0  0  0
   58.7050   31.4200   47.9450 O   0  0  0  0  0  0  0  0  0  0  0  0
   58.4050   30.6100   45.8110 C   0  0  0  0  0  0  0  0  0  0  0  0
   58.1790   30.8670   44.5010 C   0  0  0  0  0  0  0  0  0  0  0  0
   58.0670   29.7110   43.8190 N   0  0  0  0  0  0  0  0  0  0  0  0
   58.2340   28.7540   44.7640 C   0  0  0  0  0  0  0  0  0  0  0  0
   58.1470   26.8850   44.3620 Br  0  0  0  0  0  0  0  0  0  0  0  0
   58.4510   29.2750   46.0020 N   0  0  0  0  0  0  0  0  0  0  0  0
   58.6360   28.5550   47.2600 C   0  0  0  0  0  0  0  0  0  0  0  0
   58.0590   32.1310   44.0110 N   0  0  0  0  0  0  0  0  0  0  0  0
   57.7850   32.3440   42.5830 C   0  0  0  0  0  0  0  0  0  0  0  0
   58.1590   33.1780   44.9050 C   0  0  0  0  0  0  0  0  0  0  0  0
   58.0140   34.3640   44.4940 O   0  0  0  0  0  0  0  0  0  0  0  0
   60.1941   35.2435   47.8357 H   0  0  0  0  0  0  0  0  0  0  0  0
   60.4514   34.3302   46.3105 H   0  0  0  0  0  0  0  0  0  0  0  0
   59.4329   35.8098   46.3105 H   0  0  0  0  0  0  0  0  0  0  0  0
   58.5674   33.6869   48.2176 H   0  0  0  0  0  0  0  0  0  0  0  0
   57.6000   34.7020   47.0830 H   0  0  0  0  0  0  0  0  0  0  0  0
   57.8740   29.5690   42.8030 H   0  0  0  0  0  0  0  0  0  0  0  0
   58.4602   29.2391   48.1033 H   0  0  0  0  0  0  0  0  0  0  0  0
   57.9236   27.7184   47.3119 H   0  0  0  0  0  0  0  0  0  0  0  0
   59.6634   28.1655   47.3119 H   0  0  0  0  0  0  0  0  0  0  0  0
   56.9210   33.0157   42.4716 H   0  0  0  0  0  0  0  0  0  0  0  0
   58.6657   32.7970   42.1042 H   0  0  0  0  0  0  0  0  0  0  0  0
   57.5632   31.3788   42.1042 H   0  0  0  0  0  0  0  0  0  0  0  0
  1  2  1  0
  2  3  1  0
  3  4  1  0
  4  5  2  0
  4  6  1  0
  6  7  2  0
  7  8  1  0
  8  9  2  0
  9 10  1  0
  9 11  1  0
 11 12  1  0
  7 13  1  0
 13 14  1  0
 13 15  1  0
 15 16  2  0
 15  3  1  0
 11  6  1  0
  1 17  1  0
  1 18  1  0
  1 19  1  0
  2 20  1  0
  2 21  1  0
  8 22  1  0
 12 23  1  0
 12 24  1  0
 12 25  1  0
 14 26  1  0
 14 27  1  0
 14 28  1  0
M  CHG  1   8   1
M  END
>  <UniqueID>  (16) 
16

>  <SMILES>  (16) 
CCn1c(=O)c2c([nH+]c(Br)n2C)n(C)c1=O

>  <Energy>  (16) 
72.92466802155882

>  <Genealogy>  (16) 
CCn1c(=O)c2c([nH+]c(Br)n2C)n(C)c1=O (protonated)
CCn1c(=O)c2c([nH+]c(Br)n2C)n(C)c1=O (3D coordinates assigned)
CCn1c(=O)c2c([nH+]c(Br)n2C)n(C)c1=O (optimized conformer: 72.92466802155882 kcal/mol)

>  <smiles>  (16) 
CCn1c(=O)c2c(nc(Br)n2C)n(C)c1=O

>  <score_type>  (16) 
oracle

>  <origin>  (16) 
adg

>  <m_score__min__energy>  (16) 
-4.21

>  <m_primary>  (16) 
energy

$$$$
16:0
     RDKit          3D

 32 34  0  0  0  0  0  0  0  0999 V2000
   59.9820   27.8360   45.5330 C   0  0  0  0  0  0  0  0  0  0  0  0
   60.6840   29.0410   45.4450 C   0  0  0  0  0  0  0  0  0  0  0  0
   60.3190   30.1250   46.2490 C   0  0  0  0  0  0  0  0  0  0  0  0
   59.2380   30.0120   47.1450 C   0  0  0  0  0  0  0  0  0  0  0  0
   58.8380   31.0670   47.9790 O   0  0  0  0  0  0  0  0  0  0  0  0
   59.0610   32.4160   47.6860 C   0  0  0  0  0  0  0  0  0  0  0  0
   59.6530   33.2420   48.6500 C   0  0  0  0  0  0  0  0  0  0  0  0
   59.8870   34.5920   48.3710 C   0  0  0  0  0  0  0  0  0  0  0  0
   59.5250   35.1230   47.1290 C   0  0  0  0  0  0  0  0  0  0  0  0
   58.9240   34.3050   46.1670 C   0  0  0  0  0  0  0  0  0  0  0  0
   58.6870   32.9530   46.4430 C   0  0  0  0  0  0  0  0  0  0  0  0
   58.0730   32.1560   45.4800 O   0  0  0  0  0  0  0  0  0  0  0  0
   57.4610   31.3630   44.5210 C   0  0  0  0  0  0  0  0  0  0  0  0
   57.6340   31.6310   43.1600 C   0  0  0  0  0  0  0  0  0  0  0  0
   57.0340   30.8280   42.2410 N   0  0  0  0  0  0  0  0  0  0  0  0
   56.2700   29.7700   42.6230 C   0  0  0  0  0  0  0  0  0  0  0  0
   56.0960   29.5050   43.9830 C   0  0  0  0  0  0  0  0  0  0  0  0
   56.6940   30.3080   44.9030 N   0  0  0  0  0  0  0  0  0  0  0  0
   58.5360   28.8010   47.2200 C   0  0  0  0  0  0  0  0  0  0  0  0
   58.9070   27.7170   46.4190 C   0  0  0  0  0  0  0  0  0  0  0  0
   60.2750   26.9814   44.9055 H   0  0  0  0  0  0  0  0  0  0  0  0
   61.5248   29.1368   44.7423 H   0  0  0  0  0  0  0  0  0  0  0  0
   60.8782   31.0698   46.1816 H   0  0  0  0  0  0  0  0  0  0  0  0
   59.9346   32.8275   49.6292 H   0  0  0  0  0  0  0  0  0  0  0  0
   60.3561   35.2367   49.1289 H   0  0  0  0  0  0  0  0  0  0  0  0
   59.7130   36.1842   46.9087 H   0  0  0  0  0  0  0  0  0  0  0  0
   58.6369   34.7246   45.1916 H   0  0  0  0  0  0  0  0  0  0  0  0
   58.2494   32.4831   42.8356 H   0  0  0  0  0  0  0  0  0  0  0  0
   55.7932   29.1285   41.8673 H   0  0  0  0  0  0  0  0  0  0  0  0
   55.4800   28.6534   44.3074 H   0  0  0  0  0  0  0  0  0  0  0  0
   57.6878   28.7030   47.9135 H   0  0  0  0  0  0  0  0  0  0  0  0
   58.3525   26.7693   46.4859 H   0  0  0  0  0  0  0  0  0  0  0  0
  1  2  2  0
  2  3  1  0
  3  4  2  0
  4  5  1  0
  5  6  1  0
  6  7  2  0
  7  8  1  0
  8  9  2  0
  9 10  1  0
 10 11  2  0
 11 12  1  0
 12 13  1  0
 13 14  2  0
 14 15  1  0
 15 16  2  0
 16 17  1  0
 17 18  2  0
  4 19  1  0
 19 20  2  0
 20  1  1  0
 11  6  1  0
 18 13  1  0
  1 21  1  0
  2 22  1  0
  3 23  1  0
  7 24  1  0
  8 25  1  0
  9 26  1  0
 10 27  1  0
 14 28  1  0
 16 29  1  0
 17 30  1  0
 19 31  1  0
 20 32  1  0
M  END
>  <UniqueID>  (17) 
17

>  <SMILES>  (17) 
c1ccc(Oc2ccccc2Oc2cnccn2)cc1

>  <Energy>  (17) 
102.07561177524842

>  <Genealogy>  (17) 
c1ccc(Oc2ccccc2Oc2cnccn2)cc1 (3D coordinates assigned)
c1ccc(Oc2ccccc2Oc2cnccn2)cc1 (optimized conformer: 102.07561177524842 kcal/mol)

>  <smiles>  (17) 
c1ccc(Oc2ccccc2Oc2cnccn2)cc1

>  <score_type>  (17) 
oracle

>  <origin>  (17) 
adg

>  <m_score__min__energy>  (17) 
-6.1200000000000001

>  <m_primary>  (17) 
energy

$$$$
17:0
     RDKit          3D

 55 57  0  0  0  0  0  0  0  0999 V2000
   57.7700   25.4940   43.4730 C   0  0  0  0  0  0  0  0  0  0  0  0
   58.1300   26.7500   42.6790 C   0  0  0  0  0  0  0  0  0  0  0  0
   57.9090   27.9640   43.4880 N   0  0  0  0  0  0  0  0  0  0  0  0
   56.9530   28.9660   42.9770 C   0  0  0  0  0  0  0  0  0  0  0  0
   56.8680   30.1730   43.9340 C   0  0  0  0  0  0  0  0  0  0  0  0
   58.0600   31.0550   43.8270 N   0  0  1  0  0  0  0  0  0  0  0  0
   57.7890   32.2190   43.0240 C   0  0  0  0  0  0  0  0  0  0  0  0
   57.5870   32.1570   41.7820 O   0  0  0  0  0  0  0  0  0  0  0  0
   57.7660   33.4540   43.7400 N   0  0  0  0  0  0  0  0  0  0  0  0
   58.1060   33.1570   44.9470 C   0  0  0  0  0  0  0  0  0  0  0  0
   58.0240   34.1230   46.0850 C   0  0  0  0  0  0  0  0  0  0  0  0
   59.3280   34.1180   46.8330 C   0  0  0  0  0  0  0  0  0  0  0  0
   59.3400   34.1910   48.2360 C   0  0  0  0  0  0  0  0  0  0  0  0
   60.5440   34.0840   48.9380 C   0  0  0  0  0  0  0  0  0  0  0  0
   61.7430   33.8750   48.2470 C   0  0  0  0  0  0  0  0  0  0  0  0
   63.2810   33.6810   49.1460 S   0  0  0  0  0  0  0  0  0  0  0  0
   63.7730   32.2040   48.2030 C   0  0  0  0  0  0  0  0  0  0  0  0
   61.7400   33.8080   46.8500 C   0  0  0  0  0  0  0  0  0  0  0  0
   60.5400   33.9320   46.1450 C   0  0  0  0  0  0  0  0  0  0  0  0
   58.3220   31.7230   45.0630 C   0  0  0  0  0  0  0  0  0  0  0  0
   58.7260   31.1340   46.1020 O   0  0  0  0  0  0  0  0  0  0  0  0
   58.6230   28.1910   44.7460 C   0  0  0  0  0  0  0  0  0  0  0  0
   59.9680   28.6390   44.7650 C   0  0  0  0  0  0  0  0  0  0  0  0
   60.6390   28.8660   45.9710 C   0  0  0  0  0  0  0  0  0  0  0  0
   59.9900   28.6460   47.1980 C   0  0  0  0  0  0  0  0  0  0  0  0
   60.6190   28.8660   48.4340 O   0  0  0  0  0  0  0  0  0  0  0  0
   60.7810   30.1420   49.0400 C   0  0  0  0  0  0  0  0  0  0  0  0
   58.6740   28.1850   47.1960 C   0  0  0  0  0  0  0  0  0  0  0  0
   57.9980   27.9640   45.9940 C   0  0  0  0  0  0  0  0  0  0  0  0
   57.8321   25.7105   44.5497 H   0  0  0  0  0  0  0  0  0  0  0  0
   56.7461   25.1814   43.2203 H   0  0  0  0  0  0  0  0  0  0  0  0
   58.4728   24.6864   43.2203 H   0  0  0  0  0  0  0  0  0  0  0  0
   59.1891   26.7000   42.3861 H   0  0  0  0  0  0  0  0  0  0  0  0
   57.4874   26.7992   41.7875 H   0  0  0  0  0  0  0  0  0  0  0  0
   57.2864   29.3120   41.9875 H   0  0  0  0  0  0  0  0  0  0  0  0
   55.9586   28.5017   42.9027 H   0  0  0  0  0  0  0  0  0  0  0  0
   55.9699   30.7586   43.6878 H   0  0  0  0  0  0  0  0  0  0  0  0
   56.8225   29.7874   44.9632 H   0  0  0  0  0  0  0  0  0  0  0  0
   58.9300   30.5750   43.4970 H   0  0  0  0  0  0  0  0  0  0  0  0
   57.8266   35.1330   45.6966 H   0  0  0  0  0  0  0  0  0  0  0  0
   57.2087   33.8280   46.7619 H   0  0  0  0  0  0  0  0  0  0  0  0
   58.3973   34.3331   48.7847 H   0  0  0  0  0  0  0  0  0  0  0  0
   60.5491   34.1642   50.0351 H   0  0  0  0  0  0  0  0  0  0  0  0
   64.0419   31.3967   48.9001 H   0  0  0  0  0  0  0  0  0  0  0  0
   62.9351   31.8775   47.5695 H   0  0  0  0  0  0  0  0  0  0  0  0
   64.6393   32.4452   47.5695 H   0  0  0  0  0  0  0  0  0  0  0  0
   62.6838   33.6574   46.3054 H   0  0  0  0  0  0  0  0  0  0  0  0
   60.5435   33.8839   45.0461 H   0  0  0  0  0  0  0  0  0  0  0  0
   60.4933   28.8112   43.8140 H   0  0  0  0  0  0  0  0  0  0  0  0
   61.6808   29.2188   45.9590 H   0  0  0  0  0  0  0  0  0  0  0  0
   60.7671   30.0326   50.1345 H   0  0  0  0  0  0  0  0  0  0  0  0
   61.7416   30.5772   48.7272 H   0  0  0  0  0  0  0  0  0  0  0  0
   59.9596   30.8034   48.7272 H   0  0  0  0  0  0  0  0  0  0  0  0
   58.1630   27.9934   48.1511 H   0  0  0  0  0  0  0  0  0  0  0  0
   56.9582   27.6060   46.0186 H   0  0  0  0  0  0  0  0  0  0  0  0
  1  2  1  0
  2  3  1  0
  3  4  1  0
  4  5  1  0
  5  6  1  0
  6  7  1  0
  7  8  2  0
  7  9  1  0
  9 10  2  0
 10 11  1  0
 11 12  1  0
 12 13  2  0
 13 14  1  0
 14 15  2  0
 15 16  1  0
 16 17  1  0
 15 18  1  0
 18 19  2  0
 10 20  1  0
 20 21  2  0
  3 22  1  0
 22 23  2  0
 23 24  1  0
 24 25  2  0
 25 26  1  0
 26 27  1  0
 25 28  1  0
 28 29  2  0
 20  6  1  0
 29 22  1  0
 19 12  1  0
  1 30  1  0
  1 31  1  0
  1 32  1  0
  2 33  1  0
  2 34  1  0
  4 35  1  0
  4 36  1  0
  5 37  1  0
  5 38  1  0
  6 39  1  6
 11 40  1  0
 11 41  1  0
 13 42  1  0
 14 43  1  0
 17 44  1  0
 17 45  1  0
 17 46  1  0
 18 47  1  0
 19 48  1  0
 23 49  1  0
 24 50  1  0
 27 51  1  0
 27 52  1  0
 27 53  1  0
 28 54  1  0
 29 55  1  0
M  CHG  1   6   1
M  END
>  <UniqueID>  (18) 
18

>  <SMILES>  (18) 
CCN(CC[N@H+]1C(=O)N=C(Cc2ccc(SC)cc2)C1=O)c1ccc(OC)cc1

>  <Energy>  (18) 
75.20669350847895

>  <Genealogy>  (18) 
CCN(CC[NH+]1C(=O)N=C(Cc2ccc(SC)cc2)C1=O)c1ccc(OC)cc1 (protonated)
CCN(CC[N@H+]1C(=O)N=C(Cc2ccc(SC)cc2)C1=O)c1ccc(OC)cc1 (chirality)
CCN(CC[N@H+]1C(=O)N=C(Cc2ccc(SC)cc2)C1=O)c1ccc(OC)cc1 (3D coordinates assigned)
CCN(CC[N@H+]1C(=O)N=C(Cc2ccc(SC)cc2)C1=O)c1ccc(OC)cc1 (nonaromatic ring conformer: 75.20669350847895 kcal/mol)

>  <smiles>  (18) 
CCN(CCN1C(=O)N=C(Cc2ccc(SC)cc2)C1=O)c1ccc(OC)cc1

>  <score_type>  (18) 
oracle

>  <origin>  (18) 
adg

>  <m_score__min__energy>  (18) 
-7.1799999999999997

>  <m_primary>  (18) 
energy

$$$$
18:0
     RDKit          3D

 35 36  0  0  0  0  0  0  0  0999 V2000
   57.2132   33.2078   43.3726 H   0  0  0  0  0  0  0  0  0  0  0  0
   57.7960   32.5580   44.0420 C   0  0  0  0  0  0  0  0  0  0  0  0
   57.9750   31.2830   43.6660 C   0  0  0  0  0  0  0  0  0  0  0  0
   58.9943   30.9729   43.3925 H   0  0  0  0  0  0  0  0  0  0  0  0
   56.7000   30.0630   43.5760 S   0  0  0  0  0  0  0  0  0  0  0  0
   55.5820   30.4550   44.5010 O   0  0  0  0  0  0  0  0  0  0  0  0
   56.1660   30.0090   42.1730 O   0  0  0  0  0  0  0  0  0  0  0  0
   57.2840   28.4870   44.0150 N   0  0  0  0  0  0  0  0  0  0  0  0
   56.9850   27.6970   43.4020 H   0  0  0  0  0  0  0  0  0  0  0  0
   58.0230   28.2100   45.2200 C   0  0  0  0  0  0  0  0  0  0  0  0
   59.3070   28.7500   45.4260 C   0  0  0  0  0  0  0  0  0  0  0  0
   59.7661   29.3774   44.6478 H   0  0  0  0  0  0  0  0  0  0  0  0
   60.0020   28.4960   46.6090 C   0  0  0  0  0  0  0  0  0  0  0  0
   61.0024   28.9274   46.7608 H   0  0  0  0  0  0  0  0  0  0  0  0
   59.4320   27.6970   47.5990 C   0  0  0  0  0  0  0  0  0  0  0  0
   59.9815   27.5008   48.5315 H   0  0  0  0  0  0  0  0  0  0  0  0
   58.1640   27.1460   47.4070 C   0  0  0  0  0  0  0  0  0  0  0  0
   57.7204   26.5122   48.1890 H   0  0  0  0  0  0  0  0  0  0  0  0
   57.4480   27.3950   46.2200 C   0  0  0  0  0  0  0  0  0  0  0  0
   56.1650   26.8650   46.0070 O   0  0  0  0  0  0  0  0  0  0  0  0
   55.8800   25.4810   45.8310 C   0  0  0  0  0  0  0  0  0  0  0  0
   55.7808   24.9991   46.8148 H   0  0  0  0  0  0  0  0  0  0  0  0
   54.9399   25.3685   45.2711 H   0  0  0  0  0  0  0  0  0  0  0  0
   56.6992   25.0062   45.2711 H   0  0  0  0  0  0  0  0  0  0  0  0
   58.3210   33.1560   45.2850 C   0  0  0  0  0  0  0  0  0  0  0  0
   58.8890   34.4410   45.2880 C   0  0  0  0  0  0  0  0  0  0  0  0
   58.9380   35.0200   44.3540 H   0  0  0  0  0  0  0  0  0  0  0  0
   59.3920   34.9870   46.4720 C   0  0  0  0  0  0  0  0  0  0  0  0
   59.8186   36.0009   46.4713 H   0  0  0  0  0  0  0  0  0  0  0  0
   59.3540   34.2470   47.6570 C   0  0  0  0  0  0  0  0  0  0  0  0
   59.8400   34.7790   48.8050 F   0  0  0  0  0  0  0  0  0  0  0  0
   58.8200   32.9550   47.6560 C   0  0  0  0  0  0  0  0  0  0  0  0
   58.7965   32.3701   48.5873 H   0  0  0  0  0  0  0  0  0  0  0  0
   58.3150   32.4040   46.4720 C   0  0  0  0  0  0  0  0  0  0  0  0
   57.7900   31.1530   46.4930 F   0  0  0  0  0  0  0  0  0  0  0  0
  1  2  1  0
  2  3  2  0
  3  4  1  0
  3  5  1  0
  5  6  2  0
  5  7  2  0
  5  8  1  0
  8  9  1  0
  8 10  1  0
 10 11  2  0
 11 12  1  0
 11 13  1  0
 13 14  1  0
 13 15  2  0
 15 16  1  0
 15 17  1  0
 17 18  1  0
 17 19  2  0
 19 20  1  0
 20 21  1  0
 21 22  1  0
 21 23  1  0
 21 24  1  0
  2 25  1  0
 25 26  2  0
 26 27  1  0
 26 28  1  0
 28 29  1  0
 28 30  2  0
 30 31  1  0
 30 32  1  0
 32 33  1  0
 32 34  2  0
 34 35  1  0
 19 10  1  0
 34 25  1  0
M  END
>  <UniqueID>  (19) 
19

>  <SMILES>  (19) 
COc1ccccc1NS(=O)(=O)/C=C\c1ccc(F)cc1F

>  <Energy>  (19) 
41.59841712758438

>  <Genealogy>  (19) 
COc1ccccc1NS(=O)(=O)/C=C\c1ccc(F)cc1F (cis-trans isomerization)
COc1ccccc1NS(=O)(=O)/C=C\c1ccc(F)cc1F (3D coordinates assigned)
COc1ccccc1NS(=O)(=O)/C=C\c1ccc(F)cc1F (optimized conformer: 41.59841712758438 kcal/mol)

>  <smiles>  (19) 
COc1ccccc1NS(=O)(=O)C=Cc1ccc(F)cc1F

>  <score_type>  (19) 
oracle

>  <origin>  (19) 
adg

>  <m_score__min__energy>  (19) 
-8.3399999999999999

>  <m_primary>  (19) 
energy

$$$$
19:0
     RDKit          3D

 34 36  0  0  0  0  0  0  0  0999 V2000
   54.0350   25.7180   45.6330 O   0  0  0  0  0  0  0  0  0  0  0  0
   55.2900   25.6780   45.7210 C   0  0  0  0  0  0  0  0  0  0  0  0
   55.9940   24.5770   45.2280 C   0  0  0  0  0  0  0  0  0  0  0  0
   57.3850   24.5500   45.3390 C   0  0  0  0  0  0  0  0  0  0  0  0
   58.0620   25.6160   45.9470 C   0  0  0  0  0  0  0  0  0  0  0  0
   57.3170   26.7170   46.4100 C   0  0  0  0  0  0  0  0  0  0  0  0
   55.9600   26.7090   46.3000 N   0  0  0  0  0  0  0  0  0  0  0  0
   57.9900   27.8610   47.1200 C   0  0  0  0  0  0  0  0  0  0  0  0
   59.4170   28.0060   46.7480 N   0  0  2  0  0  0  0  0  0  0  0  0
   59.6020   28.5640   45.3830 C   0  0  0  0  0  0  0  0  0  0  0  0
   58.9240   29.9050   45.2250 C   0  0  0  0  0  0  0  0  0  0  0  0
   57.9290   30.0920   44.2500 C   0  0  0  0  0  0  0  0  0  0  0  0
   57.2940   31.3310   44.1180 C   0  0  0  0  0  0  0  0  0  0  0  0
   57.6460   32.3910   44.9590 C   0  0  0  0  0  0  0  0  0  0  0  0
   57.0300   33.5920   44.8310 F   0  0  0  0  0  0  0  0  0  0  0  0
   58.6330   32.2120   45.9330 C   0  0  0  0  0  0  0  0  0  0  0  0
   59.2700   30.9750   46.0680 C   0  0  0  0  0  0  0  0  0  0  0  0
   60.1240   26.7150   46.9160 C   0  0  0  0  0  0  0  0  0  0  0  0
   59.5670   25.6120   46.0000 C   0  0  0  0  0  0  0  0  0  0  0  0
   55.4577   23.7399   44.7572 H   0  0  0  0  0  0  0  0  0  0  0  0
   57.9506   23.6910   44.9488 H   0  0  0  0  0  0  0  0  0  0  0  0
   57.4635   28.7923   46.8642 H   0  0  0  0  0  0  0  0  0  0  0  0
   57.9479   27.6526   48.1993 H   0  0  0  0  0  0  0  0  0  0  0  0
   59.8510   28.6710   47.4320 H   0  0  0  0  0  0  0  0  0  0  0  0
   60.6784   28.6851   45.1914 H   0  0  0  0  0  0  0  0  0  0  0  0
   59.1471   27.8657   44.6651 H   0  0  0  0  0  0  0  0  0  0  0  0
   57.6484   29.2598   43.5876 H   0  0  0  0  0  0  0  0  0  0  0  0
   56.5171   31.4717   43.3521 H   0  0  0  0  0  0  0  0  0  0  0  0
   58.9089   33.0464   46.5945 H   0  0  0  0  0  0  0  0  0  0  0  0
   60.0448   30.8386   46.8368 H   0  0  0  0  0  0  0  0  0  0  0  0
   61.1885   26.8632   46.6818 H   0  0  0  0  0  0  0  0  0  0  0  0
   59.9791   26.3887   47.9565 H   0  0  0  0  0  0  0  0  0  0  0  0
   59.9568   25.7669   44.9831 H   0  0  0  0  0  0  0  0  0  0  0  0
   59.8857   24.6424   46.4102 H   0  0  0  0  0  0  0  0  0  0  0  0
  1  2  2  0
  2  3  1  0
  3  4  2  0
  4  5  1  0
  5  6  2  0
  6  7  1  0
  6  8  1  0
  8  9  1  0
  9 10  1  0
 10 11  1  0
 11 12  2  0
 12 13  1  0
 13 14  2  0
 14 15  1  0
 14 16  1  0
 16 17  2  0
  9 18  1  0
 18 19  1  0
  7  2  1  0
 17 11  1  0
 19  5  1  0
  3 20  1  0
  4 21  1  0
  8 22  1  0
  8 23  1  0
  9 24  1  1
 10 25  1  0
 10 26  1  0
 12 27  1  0
 13 28  1  0
 16 29  1  0
 17 30  1  0
 18 31  1  0
 18 32  1  0
 19 33  1  0
 19 34  1  0
M  CHG  2   7  -1   9   1
M  END
>  <UniqueID>  (20) 
20

>  <SMILES>  (20) 
O=c1ccc2c([n-]1)C[N@H+](Cc1ccc(F)cc1)CC2

>  <Energy>  (20) 
42.53970841951492

>  <Genealogy>  (20) 
O=c1ccc2c([n-]1)C[NH+](Cc1ccc(F)cc1)CC2 (protonated)
O=c1ccc2c([n-]1)C[N@H+](Cc1ccc(F)cc1)CC2 (chirality)
O=c1ccc2c([n-]1)C[N@H+](Cc1ccc(F)cc1)CC2 (3D coordinates assigned)
O=c1ccc2c([n-]1)C[N@H+](Cc1ccc(F)cc1)CC2 (nonaromatic ring conformer: 42.53970841951492 kcal/mol)

>  <smiles>  (20) 
O=c1ccc2c([nH]1)CN(Cc1ccc(F)cc1)CC2

>  <score_type>  (20) 
oracle

>  <origin>  (20) 
adg

>  <m_score__min__energy>  (20) 
-6.6500000000000004

>  <m_primary>  (20) 
energy

$$$$
20:0
     RDKit          3D

 47 49  0  0  0  0  0  0  0  0999 V2000
   60.5750   26.7150   47.4740 C   0  0  0  0  0  0  0  0  0  0  0  0
   59.5240   27.3830   46.6360 C   0  0  0  0  0  0  0  0  0  0  0  0
   58.8060   28.4720   47.1450 C   0  0  0  0  0  0  0  0  0  0  0  0
   57.8560   29.1220   46.3540 C   0  0  0  0  0  0  0  0  0  0  0  0
   57.6190   28.7010   45.0320 C   0  0  0  0  0  0  0  0  0  0  0  0
   56.6780   29.3390   44.2060 O   0  0  0  0  0  0  0  0  0  0  0  0
   56.9590   30.4620   43.3760 C   0  0  0  0  0  0  0  0  0  0  0  0
   57.3650   31.6120   44.2340 C   0  0  0  0  0  0  0  0  0  0  0  0
   58.1200   32.6410   43.7910 N   0  0  0  0  0  0  0  0  0  0  0  0
   58.2590   33.4160   44.8820 C   0  0  0  0  0  0  0  0  0  0  0  0
   59.0010   34.6480   44.8780 C   0  0  0  0  0  0  0  0  0  0  0  0
   59.6000   35.6380   44.8770 N   0  0  0  0  0  0  0  0  0  0  0  0
   57.5890   32.8260   45.9400 C   0  0  0  0  0  0  0  0  0  0  0  0
   57.4630   33.2860   47.2950 N   0  0  0  0  0  0  0  0  0  0  0  0
   58.4960   33.0990   48.3120 C   0  0  0  0  0  0  0  0  0  0  0  0
   59.3120   31.8330   48.0360 C   0  0  0  0  0  0  0  0  0  0  0  0
   60.7310   32.1840   47.6780 C   0  0  0  0  0  0  0  0  0  0  0  0
   61.7630   31.2500   47.8710 C   0  0  0  0  0  0  0  0  0  0  0  0
   63.0860   31.5890   47.5710 C   0  0  0  0  0  0  0  0  0  0  0  0
   63.3880   32.8650   47.0840 C   0  0  0  0  0  0  0  0  0  0  0  0
   62.3690   33.8040   46.9030 C   0  0  0  0  0  0  0  0  0  0  0  0
   61.0450   33.4680   47.2020 C   0  0  0  0  0  0  0  0  0  0  0  0
   57.0510   31.7150   45.5070 O   0  0  0  0  0  0  0  0  0  0  0  0
   58.3460   27.6110   44.5130 C   0  0  0  0  0  0  0  0  0  0  0  0
   58.1210   27.1570   43.0990 C   0  0  0  0  0  0  0  0  0  0  0  0
   59.3040   26.9670   45.3150 C   0  0  0  0  0  0  0  0  0  0  0  0
   60.3431   26.8624   48.5391 H   0  0  0  0  0  0  0  0  0  0  0  0
   60.5943   25.6385   47.2485 H   0  0  0  0  0  0  0  0  0  0  0  0
   61.5578   27.1545   47.2485 H   0  0  0  0  0  0  0  0  0  0  0  0
   58.9910   28.8173   48.1729 H   0  0  0  0  0  0  0  0  0  0  0  0
   57.2889   29.9691   46.7672 H   0  0  0  0  0  0  0  0  0  0  0  0
   57.7760   30.2128   42.6829 H   0  0  0  0  0  0  0  0  0  0  0  0
   56.0626   30.7292   42.7972 H   0  0  0  0  0  0  0  0  0  0  0  0
   56.5730   33.7730   47.5480 H   0  0  0  0  0  0  0  0  0  0  0  0
   59.1686   33.9693   48.3063 H   0  0  0  0  0  0  0  0  0  0  0  0
   58.0088   32.9961   49.2929 H   0  0  0  0  0  0  0  0  0  0  0  0
   59.3123   31.2000   48.9356 H   0  0  0  0  0  0  0  0  0  0  0  0
   58.8564   31.2949   47.1917 H   0  0  0  0  0  0  0  0  0  0  0  0
   61.5291   30.2479   48.2597 H   0  0  0  0  0  0  0  0  0  0  0  0
   63.8894   30.8521   47.7180 H   0  0  0  0  0  0  0  0  0  0  0  0
   64.4283   33.1295   46.8433 H   0  0  0  0  0  0  0  0  0  0  0  0
   62.6087   34.8087   46.5248 H   0  0  0  0  0  0  0  0  0  0  0  0
   60.2464   34.2117   47.0640 H   0  0  0  0  0  0  0  0  0  0  0  0
   57.6325   26.1714   43.1037 H   0  0  0  0  0  0  0  0  0  0  0  0
   57.4781   27.8824   42.5789 H   0  0  0  0  0  0  0  0  0  0  0  0
   59.0876   27.0847   42.5789 H   0  0  0  0  0  0  0  0  0  0  0  0
   59.8861   26.1296   44.9029 H   0  0  0  0  0  0  0  0  0  0  0  0
  1  2  1  0
  2  3  2  0
  3  4  1  0
  4  5  2  0
  5  6  1  0
  6  7  1  0
  7  8  1  0
  8  9  2  0
  9 10  1  0
 10 11  1  0
 11 12  3  0
 10 13  2  0
 13 14  1  0
 14 15  1  0
 15 16  1  0
 16 17  1  0
 17 18  2  0
 18 19  1  0
 19 20  2  0
 20 21  1  0
 21 22  2  0
 13 23  1  0
  5 24  1  0
 24 25  1  0
 24 26  2  0
 26  2  1  0
 23  8  1  0
 22 17  1  0
  1 27  1  0
  1 28  1  0
  1 29  1  0
  3 30  1  0
  4 31  1  0
  7 32  1  0
  7 33  1  0
 14 34  1  0
 15 35  1  0
 15 36  1  0
 16 37  1  0
 16 38  1  0
 18 39  1  0
 19 40  1  0
 20 41  1  0
 21 42  1  0
 22 43  1  0
 25 44  1  0
 25 45  1  0
 25 46  1  0
 26 47  1  0
M  END
>  <UniqueID>  (21) 
21

>  <SMILES>  (21) 
Cc1ccc(OCc2nc(C#N)c(NCCc3ccccc3)o2)c(C)c1

>  <Energy>  (21) 
73.19888410214371

>  <Genealogy>  (21) 
Cc1ccc(OCc2nc(C#N)c(NCCc3ccccc3)o2)c(C)c1 (3D coordinates assigned)
Cc1ccc(OCc2nc(C#N)c(NCCc3ccccc3)o2)c(C)c1 (optimized conformer: 73.19888410214371 kcal/mol)

>  <smiles>  (21) 
Cc1ccc(OCc2nc(C#N)c(NCCc3ccccc3)o2)c(C)c1

>  <score_type>  (21) 
oracle

>  <origin>  (21) 
adg

>  <m_score__min__energy>  (21) 
-7.8399999999999999

>  <m_primary>  (21) 
energy

$$$$
21:0
     RDKit          3D

 43 46  0  0  0  0  0  0  0  0999 V2000
   57.7780   27.6900   43.9910 C   0  0  0  0  0  0  0  0  0  0  0  0
   57.7020   29.1180   44.4490 C   0  0  0  0  0  0  0  0  0  0  0  0
   56.6050   29.9140   44.1060 C   0  0  0  0  0  0  0  0  0  0  0  0
   56.5600   31.2140   44.4920 N   0  0  0  0  0  0  0  0  0  0  0  0
   57.5660   31.7830   45.2050 C   0  0  0  0  0  0  0  0  0  0  0  0
   57.4650   33.4000   45.6580 S   0  0  0  0  0  0  0  0  0  0  0  0
   58.8200   33.8890   46.5250 C   0  0  0  0  0  0  0  0  0  0  0  0
   59.8340   32.9610   46.7690 C   0  0  0  0  0  0  0  0  0  0  0  0
   60.9760   33.4090   47.5150 N   0  0  0  0  0  0  0  0  0  0  0  0
   60.8110   33.8540   48.9000 C   0  0  0  0  0  0  0  0  0  0  0  0
   61.9460   33.3000   49.7620 C   0  0  0  0  0  0  0  0  0  0  0  0
   63.2630   33.5440   49.1490 N   0  0  0  0  0  0  0  0  0  0  0  0
   64.4570   33.4200   49.9530 C   0  0  0  0  0  0  0  0  0  0  0  0
   64.4420   33.7800   51.3110 C   0  0  0  0  0  0  0  0  0  0  0  0
   65.6030   33.6510   52.0730 C   0  0  0  0  0  0  0  0  0  0  0  0
   66.7700   33.1690   51.4830 C   0  0  0  0  0  0  0  0  0  0  0  0
   66.7580   32.8210   50.1320 C   0  0  0  0  0  0  0  0  0  0  0  0
   65.6180   32.9520   49.4000 N   0  0  0  0  0  0  0  0  0  0  0  0
   63.3540   34.0610   47.7750 C   0  0  0  0  0  0  0  0  0  0  0  0
   62.2960   33.4110   46.8760 C   0  0  0  0  0  0  0  0  0  0  0  0
   59.7910   31.6140   46.3120 C   0  0  0  0  0  0  0  0  0  0  0  0
   60.7850   30.8830   46.5840 O   0  0  0  0  0  0  0  0  0  0  0  0
   58.7120   31.0430   45.5710 C   0  0  0  0  0  0  0  0  0  0  0  0
   58.7600   29.6910   45.1680 C   0  0  0  0  0  0  0  0  0  0  0  0
   57.8134   27.0254   44.8668 H   0  0  0  0  0  0  0  0  0  0  0  0
   56.8913   27.4515   43.3853 H   0  0  0  0  0  0  0  0  0  0  0  0
   58.6850   27.5470   43.3853 H   0  0  0  0  0  0  0  0  0  0  0  0
   55.7770   29.4856   43.5222 H   0  0  0  0  0  0  0  0  0  0  0  0
   58.9060   34.9219   46.8935 H   0  0  0  0  0  0  0  0  0  0  0  0
   60.8295   34.9533   48.9348 H   0  0  0  0  0  0  0  0  0  0  0  0
   59.8491   33.4864   49.2869 H   0  0  0  0  0  0  0  0  0  0  0  0
   61.9156   33.7871   50.7478 H   0  0  0  0  0  0  0  0  0  0  0  0
   61.8069   32.2129   49.8557 H   0  0  0  0  0  0  0  0  0  0  0  0
   63.5187   34.1619   51.7712 H   0  0  0  0  0  0  0  0  0  0  0  0
   65.5976   33.9291   53.1373 H   0  0  0  0  0  0  0  0  0  0  0  0
   67.6905   33.0641   52.0760 H   0  0  0  0  0  0  0  0  0  0  0  0
   67.6735   32.4392   49.6565 H   0  0  0  0  0  0  0  0  0  0  0  0
   65.6560   32.7040   48.3860 H   0  0  0  0  0  0  0  0  0  0  0  0
   63.1960   35.1495   47.7884 H   0  0  0  0  0  0  0  0  0  0  0  0
   64.3505   33.8228   47.3746 H   0  0  0  0  0  0  0  0  0  0  0  0
   62.2353   33.9723   45.9319 H   0  0  0  0  0  0  0  0  0  0  0  0
   62.5925   32.3677   46.6927 H   0  0  0  0  0  0  0  0  0  0  0  0
   59.6386   29.0795   45.4214 H   0  0  0  0  0  0  0  0  0  0  0  0
  1  2  1  0
  2  3  2  0
  3  4  1  0
  4  5  2  0
  5  6  1  0
  6  7  1  0
  7  8  2  0
  8  9  1  0
  9 10  1  0
 10 11  1  0
 11 12  1  0
 12 13  1  0
 13 14  2  0
 14 15  1  0
 15 16  2  0
 16 17  1  0
 17 18  2  0
 12 19  1  0
 19 20  1  0
  8 21  1  0
 21 22  2  0
 21 23  1  0
 23 24  2  0
 24  2  1  0
 23  5  1  0
 20  9  1  0
 18 13  1  0
  1 25  1  0
  1 26  1  0
  1 27  1  0
  3 28  1  0
  7 29  1  0
 10 30  1  0
 10 31  1  0
 11 32  1  0
 11 33  1  0
 14 34  1  0
 15 35  1  0
 16 36  1  0
 17 37  1  0
 18 38  1  0
 19 39  1  0
 19 40  1  0
 20 41  1  0
 20 42  1  0
 24 43  1  0
M  CHG  1  18   1
M  END
>  <UniqueID>  (22) 
22

>  <SMILES>  (22) 
Cc1cnc2scc(N3CCN(c4cccc[nH+]4)CC3)c(=O)c2c1

>  <Energy>  (22) 
63.08154755033067

>  <Genealogy>  (22) 
Cc1cnc2scc(N3CCN(c4cccc[nH+]4)CC3)c(=O)c2c1 (protonated)
Cc1cnc2scc(N3CCN(c4cccc[nH+]4)CC3)c(=O)c2c1 (3D coordinates assigned)
Cc1cnc2scc(N3CCN(c4cccc[nH+]4)CC3)c(=O)c2c1 (nonaromatic ring conformer: 63.08154755033067 kcal/mol)

>  <smiles>  (22) 
Cc1cnc2scc(N3CCN(c4ccccn4)CC3)c(=O)c2c1

>  <score_type>  (22) 
oracle

>  <origin>  (22) 
adg

>  <m_score__min__energy>  (22) 
-6.8799999999999999

>  <m_primary>  (22) 
energy

$$$$
22:0
     RDKit          3D

 47 48  0  0  0  0  0  0  0  0999 V2000
   60.5600   30.0680   46.6580 C   0  0  0  0  0  0  0  0  0  0  0  0
   59.8060   29.0980   45.7530 C   0  0  0  0  0  0  0  0  0  0  0  0
   58.5890   28.6990   46.3560 O   0  0  0  0  0  0  0  0  0  0  0  0
   57.7880   27.9560   45.4570 C   0  0  0  0  0  0  0  0  0  0  0  0
   57.8250   28.5890   44.0620 C   0  0  0  0  0  0  0  0  0  0  0  0
   56.6700   29.9460   43.9430 S   0  0  0  0  0  0  0  0  0  0  0  0
   55.5120   29.6960   44.8690 O   0  0  0  0  0  0  0  0  0  0  0  0
   56.1600   30.0590   42.5340 O   0  0  0  0  0  0  0  0  0  0  0  0
   57.4780   31.4370   44.3920 C   0  0  0  0  0  0  0  0  0  0  0  0
   57.7950   32.4800   43.5330 C   0  0  0  0  0  0  0  0  0  0  0  0
   58.2790   33.6110   44.2020 C   0  0  0  0  0  0  0  0  0  0  0  0
   58.3500   33.4430   45.5800 C   0  0  0  0  0  0  0  0  0  0  0  0
   58.6440   34.5200   46.5750 C   0  0  0  0  0  0  0  0  0  0  0  0
   59.7250   34.1010   47.4680 N   0  0  0  0  0  0  0  0  0  0  0  0
   61.0020   33.6900   46.9600 C   0  0  0  0  0  0  0  0  0  0  0  0
   61.2600   33.8390   45.7330 O   0  0  0  0  0  0  0  0  0  0  0  0
   61.9920   33.1090   47.8340 N   0  0  0  0  0  0  0  0  0  0  0  0
   63.3890   32.9940   47.3880 C   0  0  0  0  0  0  0  0  0  0  0  0
   64.3390   33.1720   48.5770 C   0  0  0  0  0  0  0  0  0  0  0  0
   64.0320   32.2060   49.7400 C   0  0  0  0  0  0  0  0  0  0  0  0
   62.6450   31.5500   49.6520 C   0  0  0  0  0  0  0  0  0  0  0  0
   61.5860   32.5230   49.1220 C   0  0  0  0  0  0  0  0  0  0  0  0
   57.7790   31.9110   45.9750 S   0  0  0  0  0  0  0  0  0  0  0  0
   60.3637   29.8155   47.7105 H   0  0  0  0  0  0  0  0  0  0  0  0
   61.6390   29.9927   46.4580 H   0  0  0  0  0  0  0  0  0  0  0  0
   60.2208   31.0951   46.4580 H   0  0  0  0  0  0  0  0  0  0  0  0
   59.5897   29.5918   44.7941 H   0  0  0  0  0  0  0  0  0  0  0  0
   60.4300   28.2070   45.5894 H   0  0  0  0  0  0  0  0  0  0  0  0
   58.1692   26.9258   45.3980 H   0  0  0  0  0  0  0  0  0  0  0  0
   56.7500   27.9541   45.8211 H   0  0  0  0  0  0  0  0  0  0  0  0
   58.8404   28.9626   43.8635 H   0  0  0  0  0  0  0  0  0  0  0  0
   57.5440   27.8242   43.3230 H   0  0  0  0  0  0  0  0  0  0  0  0
   57.6782   32.4241   42.4406 H   0  0  0  0  0  0  0  0  0  0  0  0
   58.5732   34.5385   43.6890 H   0  0  0  0  0  0  0  0  0  0  0  0
   58.9460   35.4340   46.0427 H   0  0  0  0  0  0  0  0  0  0  0  0
   57.7404   34.7143   47.1715 H   0  0  0  0  0  0  0  0  0  0  0  0
   59.5670   34.1130   48.5020 H   0  0  0  0  0  0  0  0  0  0  0  0
   63.5475   32.0013   46.9414 H   0  0  0  0  0  0  0  0  0  0  0  0
   63.5943   33.7772   46.6434 H   0  0  0  0  0  0  0  0  0  0  0  0
   65.3685   32.9923   48.2338 H   0  0  0  0  0  0  0  0  0  0  0  0
   64.2067   34.1965   48.9549 H   0  0  0  0  0  0  0  0  0  0  0  0
   64.7922   31.4110   49.7403 H   0  0  0  0  0  0  0  0  0  0  0  0
   64.0461   32.8025   50.6641 H   0  0  0  0  0  0  0  0  0  0  0  0
   62.7031   30.6844   48.9757 H   0  0  0  0  0  0  0  0  0  0  0  0
   62.3484   31.2417   50.6654 H   0  0  0  0  0  0  0  0  0  0  0  0
   60.6383   31.9813   48.9859 H   0  0  0  0  0  0  0  0  0  0  0  0
   61.4684   33.3379   49.8515 H   0  0  0  0  0  0  0  0  0  0  0  0
  1  2  1  0
  2  3  1  0
  3  4  1  0
  4  5  1  0
  5  6  1  0
  6  7  2  0
  6  8  2  0
  6  9  1  0
  9 10  2  0
 10 11  1  0
 11 12  2  0
 12 13  1  0
 13 14  1  0
 14 15  1  0
 15 16  2  0
 15 17  1  0
 17 18  1  0
 18 19  1  0
 19 20  1  0
 20 21  1  0
 21 22  1  0
 12 23  1  0
 23  9  1  0
 22 17  1  0
  1 24  1  0
  1 25  1  0
  1 26  1  0
  2 27  1  0
  2 28  1  0
  4 29  1  0
  4 30  1  0
  5 31  1  0
  5 32  1  0
 10 33  1  0
 11 34  1  0
 13 35  1  0
 13 36  1  0
 14 37  1  0
 18 38  1  0
 18 39  1  0
 19 40  1  0
 19 41  1  0
 20 42  1  0
 20 43  1  0
 21 44  1  0
 21 45  1  0
 22 46  1  0
 22 47  1  0
M  END
>  <UniqueID>  (23) 
23

>  <SMILES>  (23) 
CCOCCS(=O)(=O)c1ccc(CNC(=O)N2CCCCC2)s1

>  <Energy>  (23) 
63.889006861487346

>  <Genealogy>  (23) 
CCOCCS(=O)(=O)c1ccc(CNC(=O)N2CCCCC2)s1 (3D coordinates assigned)
CCOCCS(=O)(=O)c1ccc(CNC(=O)N2CCCCC2)s1 (nonaromatic ring conformer: 63.889006861487346 kcal/mol)

>  <smiles>  (23) 
CCOCCS(=O)(=O)c1ccc(CNC(=O)N2CCCCC2)s1

>  <score_type>  (23) 
oracle

>  <origin>  (23) 
adg

>  <m_score__min__energy>  (23) 
-8.0700000000000003

>  <m_primary>  (23) 
energy

$$$$
23:0
     RDKit          3D

 40 43  0  0  0  0  0  0  0  0999 V2000
   57.0110   26.7040   46.1260 C   0  0  0  0  0  0  0  0  0  0  0  0
   58.3530   26.0080   45.9260 C   0  0  0  0  0  0  0  0  0  0  0  0
   59.3080   26.4630   46.8850 O   0  0  0  0  0  0  0  0  0  0  0  0
   59.7850   27.7790   47.0010 C   0  0  0  0  0  0  0  0  0  0  0  0
   59.8390   28.6710   45.9130 C   0  0  0  0  0  0  0  0  0  0  0  0
   60.3220   29.9720   46.0880 C   0  0  0  0  0  0  0  0  0  0  0  0
   60.7540   30.4050   47.3510 C   0  0  0  0  0  0  0  0  0  0  0  0
   61.2350   31.7500   47.5470 N   0  0  0  0  0  0  0  0  0  0  0  0
   62.6180   32.0800   47.5140 C   0  0  0  0  0  0  0  0  0  0  0  0
   63.4920   31.2600   47.1220 O   0  0  0  0  0  0  0  0  0  0  0  0
   62.9760   33.4540   47.9310 C   0  0  0  0  0  0  0  0  0  0  0  0
   61.4600   34.2210   48.5940 S   0  0  0  0  0  0  0  0  0  0  0  0
   60.3950   32.8730   47.9640 C   0  0  2  0  0  0  0  0  0  0  0  0
   59.3590   32.4780   48.9820 C   0  0  0  0  0  0  0  0  0  0  0  0
   59.6190   31.9860   50.1110 O   0  0  0  0  0  0  0  0  0  0  0  0
   58.0300   32.7160   48.5300 N   0  0  0  0  0  0  0  0  0  0  0  0
   58.1810   33.2560   47.2280 C   0  0  0  0  0  0  0  0  0  0  0  0
   57.1520   33.6290   46.3640 C   0  0  0  0  0  0  0  0  0  0  0  0
   57.4950   34.1270   45.0970 C   0  0  0  0  0  0  0  0  0  0  0  0
   58.8480   34.2400   44.7180 C   0  0  0  0  0  0  0  0  0  0  0  0
   59.8680   33.8550   45.6040 C   0  0  0  0  0  0  0  0  0  0  0  0
   59.5080   33.3640   46.8600 C   0  0  0  0  0  0  0  0  0  0  0  0
   60.6980   29.5150   48.4350 C   0  0  0  0  0  0  0  0  0  0  0  0
   60.2160   28.2160   48.2590 C   0  0  0  0  0  0  0  0  0  0  0  0
   56.8091   26.8087   47.2022 H   0  0  0  0  0  0  0  0  0  0  0  0
   57.0414   27.7000   45.6600 H   0  0  0  0  0  0  0  0  0  0  0  0
   56.2144   26.1054   45.6600 H   0  0  0  0  0  0  0  0  0  0  0  0
   58.2167   24.9224   46.0398 H   0  0  0  0  0  0  0  0  0  0  0  0
   58.7256   26.2435   44.9182 H   0  0  0  0  0  0  0  0  0  0  0  0
   59.4994   28.3429   44.9195 H   0  0  0  0  0  0  0  0  0  0  0  0
   60.3635   30.6598   45.2305 H   0  0  0  0  0  0  0  0  0  0  0  0
   63.7544   33.4225   48.7076 H   0  0  0  0  0  0  0  0  0  0  0  0
   63.3699   34.0321   47.0821 H   0  0  0  0  0  0  0  0  0  0  0  0
   57.1400   32.5180   49.0380 H   0  0  0  0  0  0  0  0  0  0  0  0
   56.0988   33.5355   46.6673 H   0  0  0  0  0  0  0  0  0  0  0  0
   56.7035   34.4307   44.3961 H   0  0  0  0  0  0  0  0  0  0  0  0
   59.1065   34.6317   43.7232 H   0  0  0  0  0  0  0  0  0  0  0  0
   60.9259   33.9386   45.3146 H   0  0  0  0  0  0  0  0  0  0  0  0
   61.0358   29.8426   49.4292 H   0  0  0  0  0  0  0  0  0  0  0  0
   60.1747   27.5295   49.1175 H   0  0  0  0  0  0  0  0  0  0  0  0
  1  2  1  0
  2  3  1  0
  3  4  1  0
  4  5  2  0
  5  6  1  0
  6  7  2  0
  7  8  1  0
  8  9  1  0
  9 10  2  0
  9 11  1  0
 11 12  1  0
 13 12  1  1
 13 14  1  0
 14 15  2  0
 14 16  1  0
 16 17  1  0
 17 18  2  0
 18 19  1  0
 19 20  2  0
 20 21  1  0
 21 22  2  0
  7 23  1  0
 23 24  2  0
 24  4  1  0
 13  8  1  0
 22 17  1  0
 22 13  1  0
  1 25  1  0
  1 26  1  0
  1 27  1  0
  2 28  1  0
  2 29  1  0
  5 30  1  0
  6 31  1  0
 11 32  1  0
 11 33  1  0
 16 34  1  0
 18 35  1  0
 19 36  1  0
 20 37  1  0
 21 38  1  0
 23 39  1  0
 24 40  1  0
M  END
>  <UniqueID>  (24) 
24

>  <SMILES>  (24) 
CCOc1ccc(N2C(=O)CS[C@]23C(=O)Nc2ccccc23)cc1

>  <Energy>  (24) 
65.73465700418305

>  <Genealogy>  (24) 
CCOc1ccc(N2C(=O)CS[C@]23C(=O)Nc2ccccc23)cc1 (chirality)
CCOc1ccc(N2C(=O)CS[C@]23C(=O)Nc2ccccc23)cc1 (3D coordinates assigned)
CCOc1ccc(N2C(=O)CS[C@]23C(=O)Nc2ccccc23)cc1 (nonaromatic ring conformer: 65.73465700418305 kcal/mol)

>  <smiles>  (24) 
CCOc1ccc(N2C(=O)CSC23C(=O)Nc2ccccc23)cc1

>  <score_type>  (24) 
oracle

>  <origin>  (24) 
adg

>  <m_score__min__energy>  (24) 
-6.9500000000000002

>  <m_primary>  (24) 
energy

$$$$
24:0
     RDKit          3D

 38 41  0  0  0  0  0  0  0  0999 V2000
   56.3150   21.8330   42.6250 C   0  0  0  0  0  0  0  0  0  0  0  0
   57.0920   22.6500   43.6140 C   0  0  0  0  0  0  0  0  0  0  0  0
   57.7830   22.0230   44.6610 C   0  0  0  0  0  0  0  0  0  0  0  0
   58.4760   22.7860   45.6030 C   0  0  0  0  0  0  0  0  0  0  0  0
   58.4750   24.1800   45.5170 C   0  0  0  0  0  0  0  0  0  0  0  0
   57.7720   24.8250   44.4850 C   0  0  0  0  0  0  0  0  0  0  0  0
   57.7580   26.2980   44.3940 C   0  0  0  0  0  0  0  0  0  0  0  0
   57.5220   27.1210   45.4360 N   0  0  0  0  0  0  0  0  0  0  0  0
   57.6240   28.3320   44.8480 C   0  0  0  0  0  0  0  0  0  0  0  0
   57.3890   29.6310   45.5630 C   0  0  1  0  0  0  0  0  0  0  0  0
   58.7410   30.3240   45.9210 C   0  0  0  0  0  0  0  0  0  0  0  0
   58.6450   31.8180   45.8280 C   0  0  0  0  0  0  0  0  0  0  0  0
   59.4320   32.6620   46.6230 C   0  0  0  0  0  0  0  0  0  0  0  0
   59.3710   34.0490   46.4410 C   0  0  0  0  0  0  0  0  0  0  0  0
   58.5420   34.5900   45.4520 C   0  0  0  0  0  0  0  0  0  0  0  0
   57.7710   33.7470   44.6450 C   0  0  0  0  0  0  0  0  0  0  0  0
   57.8240   32.3600   44.8390 C   0  0  0  0  0  0  0  0  0  0  0  0
   57.0340   31.3960   44.0100 C   0  0  0  0  0  0  0  0  0  0  0  0
   56.4390   30.4230   44.8470 O   0  0  0  0  0  0  0  0  0  0  0  0
   57.8880   28.2460   43.5300 N   0  0  0  0  0  0  0  0  0  0  0  0
   57.9690   26.9730   43.2890 O   0  0  0  0  0  0  0  0  0  0  0  0
   57.0770   24.0520   43.5400 C   0  0  0  0  0  0  0  0  0  0  0  0
   55.6537   21.1377   43.1629 H   0  0  0  0  0  0  0  0  0  0  0  0
   55.7099   22.5000   41.9934 H   0  0  0  0  0  0  0  0  0  0  0  0
   57.0115   21.2621   41.9934 H   0  0  0  0  0  0  0  0  0  0  0  0
   57.7790   20.9259   44.7404 H   0  0  0  0  0  0  0  0  0  0  0  0
   59.0246   22.2874   46.4157 H   0  0  0  0  0  0  0  0  0  0  0  0
   59.0264   24.7753   46.2597 H   0  0  0  0  0  0  0  0  0  0  0  0
   56.9201   29.4569   46.5427 H   0  0  0  0  0  0  0  0  0  0  0  0
   59.0206   30.0488   46.9487 H   0  0  0  0  0  0  0  0  0  0  0  0
   59.4994   29.9853   45.1998 H   0  0  0  0  0  0  0  0  0  0  0  0
   60.0966   32.2356   47.3888 H   0  0  0  0  0  0  0  0  0  0  0  0
   59.9751   34.7138   47.0759 H   0  0  0  0  0  0  0  0  0  0  0  0
   58.4966   35.6797   45.3090 H   0  0  0  0  0  0  0  0  0  0  0  0
   57.1258   34.1708   43.8614 H   0  0  0  0  0  0  0  0  0  0  0  0
   56.2480   31.9403   43.4660 H   0  0  0  0  0  0  0  0  0  0  0  0
   57.7035   30.8989   43.2925 H   0  0  0  0  0  0  0  0  0  0  0  0
   56.5162   24.5495   42.7350 H   0  0  0  0  0  0  0  0  0  0  0  0
  1  2  1  0
  2  3  2  0
  3  4  1  0
  4  5  2  0
  5  6  1  0
  6  7  1  0
  7  8  2  0
  8  9  1  0
  9 10  1  0
 10 11  1  0
 11 12  1  0
 12 13  2  0
 13 14  1  0
 14 15  2  0
 15 16  1  0
 16 17  2  0
 17 18  1  0
 18 19  1  0
  9 20  2  0
 20 21  1  0
  6 22  2  0
 22  2  1  0
 21  7  1  0
 19 10  1  0
 17 12  1  0
  1 23  1  0
  1 24  1  0
  1 25  1  0
  3 26  1  0
  4 27  1  0
  5 28  1  0
 10 29  1  1
 11 30  1  0
 11 31  1  0
 13 32  1  0
 14 33  1  0
 15 34  1  0
 16 35  1  0
 18 36  1  0
 18 37  1  0
 22 38  1  0
M  END
>  <UniqueID>  (25) 
25

>  <SMILES>  (25) 
Cc1cccc(-c2nc([C@H]3Cc4ccccc4CO3)no2)c1

>  <Energy>  (25) 
85.63275797524079

>  <Genealogy>  (25) 
Cc1cccc(-c2nc([C@H]3Cc4ccccc4CO3)no2)c1 (chirality)
Cc1cccc(-c2nc([C@H]3Cc4ccccc4CO3)no2)c1 (3D coordinates assigned)
Cc1cccc(-c2nc([C@H]3Cc4ccccc4CO3)no2)c1 (nonaromatic ring conformer: 85.63275797524079 kcal/mol)

>  <smiles>  (25) 
Cc1cccc(-c2nc(C3Cc4ccccc4CO3)no2)c1

>  <score_type>  (25) 
oracle

>  <origin>  (25) 
adg

>  <m_score__min__energy>  (25) 
-8.0500000000000007

>  <m_primary>  (25) 
energy

$$$$
25:0
     RDKit          3D

 38 40  0  0  0  0  0  0  0  0999 V2000
   56.5910   29.3410   42.7510 C   0  0  0  0  0  0  0  0  0  0  0  0
   55.7370   30.0380   43.7980 C   0  0  0  0  0  0  0  0  0  0  0  0
   56.5640   30.4880   44.8640 O   0  0  0  0  0  0  0  0  0  0  0  0
   57.6630   31.3260   44.6650 C   0  0  0  0  0  0  0  0  0  0  0  0
   58.0010   31.6640   43.4990 O   0  0  0  0  0  0  0  0  0  0  0  0
   58.4570   31.7710   45.8250 C   0  0  0  0  0  0  0  0  0  0  0  0
   58.7580   33.0990   46.1470 C   0  0  0  0  0  0  0  0  0  0  0  0
   58.4060   34.3040   45.3310 C   0  0  0  0  0  0  0  0  0  0  0  0
   59.3810   33.1740   47.3450 N   0  0  0  0  0  0  0  0  0  0  0  0
   59.4800   31.9080   47.7800 C   0  0  0  0  0  0  0  0  0  0  0  0
   60.0190   31.5170   48.9600 N   0  0  0  0  0  0  0  0  0  0  0  0
   60.0430   30.1860   49.2580 C   0  0  0  0  0  0  0  0  0  0  0  0
   59.5600   29.2690   48.3660 N   0  0  0  0  0  0  0  0  0  0  0  0
   59.0150   29.6430   47.1710 C   0  0  0  0  0  0  0  0  0  0  0  0
   58.6260   28.5970   46.2050 C   0  0  0  0  0  0  0  0  0  0  0  0
   57.3960   27.9410   46.3470 C   0  0  0  0  0  0  0  0  0  0  0  0
   57.0170   27.0010   45.4440 N   0  0  0  0  0  0  0  0  0  0  0  0
   57.8100   26.6850   44.3900 C   0  0  0  0  0  0  0  0  0  0  0  0
   59.0010   27.3140   44.2230 N   0  0  0  0  0  0  0  0  0  0  0  0
   59.4330   28.2600   45.0990 C   0  0  0  0  0  0  0  0  0  0  0  0
   60.7610   28.9150   44.8600 C   0  0  0  0  0  0  0  0  0  0  0  0
   58.9510   31.0150   46.8860 C   0  0  0  0  0  0  0  0  0  0  0  0
   57.3503   28.7213   43.2504 H   0  0  0  0  0  0  0  0  0  0  0  0
   55.9524   28.7029   42.1225 H   0  0  0  0  0  0  0  0  0  0  0  0
   57.0882   30.0945   42.1225 H   0  0  0  0  0  0  0  0  0  0  0  0
   55.2275   30.8991   43.3410 H   0  0  0  0  0  0  0  0  0  0  0  0
   54.9885   29.3327   44.1883 H   0  0  0  0  0  0  0  0  0  0  0  0
   58.1613   35.1416   46.0007 H   0  0  0  0  0  0  0  0  0  0  0  0
   59.2612   34.5797   44.6964 H   0  0  0  0  0  0  0  0  0  0  0  0
   57.5369   34.0760   44.6964 H   0  0  0  0  0  0  0  0  0  0  0  0
   59.7020   34.0360   47.8400 H   0  0  0  0  0  0  0  0  0  0  0  0
   60.4040   32.2180   49.6320 H   0  0  0  0  0  0  0  0  0  0  0  0
   60.4532   29.8485   50.2212 H   0  0  0  0  0  0  0  0  0  0  0  0
   56.7363   28.1882   47.1918 H   0  0  0  0  0  0  0  0  0  0  0  0
   57.4876   25.9184   43.6700 H   0  0  0  0  0  0  0  0  0  0  0  0
   61.2338   29.1482   45.8254 H   0  0  0  0  0  0  0  0  0  0  0  0
   61.4088   28.2331   44.2897 H   0  0  0  0  0  0  0  0  0  0  0  0
   60.6143   29.8441   44.2897 H   0  0  0  0  0  0  0  0  0  0  0  0
  1  2  1  0
  2  3  1  0
  3  4  1  0
  4  5  2  0
  4  6  1  0
  6  7  2  0
  7  8  1  0
  7  9  1  0
  9 10  1  0
 10 11  2  0
 11 12  1  0
 12 13  2  0
 13 14  1  0
 14 15  1  0
 15 16  2  0
 16 17  1  0
 17 18  2  0
 18 19  1  0
 19 20  2  0
 20 21  1  0
 14 22  2  0
 22  6  1  0
 22 10  1  0
 20 15  1  0
  1 23  1  0
  1 24  1  0
  1 25  1  0
  2 26  1  0
  2 27  1  0
  8 28  1  0
  8 29  1  0
  8 30  1  0
  9 31  1  0
 11 32  1  0
 12 33  1  0
 16 34  1  0
 18 35  1  0
 21 36  1  0
 21 37  1  0
 21 38  1  0
M  CHG  1  11   1
M  END
>  <UniqueID>  (26) 
26

>  <SMILES>  (26) 
CCOC(=O)c1c(C)[nH]c2[nH+]cnc(-c3cncnc3C)c12

>  <Energy>  (26) 
80.47904527628542

>  <Genealogy>  (26) 
CCOC(=O)c1c(C)[nH]c2[nH+]cnc(-c3cncnc3C)c12 (protonated)
CCOC(=O)c1c(C)[nH]c2[nH+]cnc(-c3cncnc3C)c12 (3D coordinates assigned)
CCOC(=O)c1c(C)[nH]c2[nH+]cnc(-c3cncnc3C)c12 (optimized conformer: 80.47904527628542 kcal/mol)

>  <smiles>  (26) 
CCOC(=O)c1c(C)[nH]c2ncnc(-c3cncnc3C)c12

>  <score_type>  (26) 
oracle

>  <origin>  (26) 
adg

>  <m_score__min__energy>  (26) 
-4.9800000000000004

>  <m_primary>  (26) 
energy

$$$$
26:0
     RDKit          3D

 41 42  0  0  0  0  0  0  0  0999 V2000
   59.6310   35.5250   46.4830 C   0  0  0  0  0  0  0  0  0  0  0  0
   59.0560   34.2460   45.9490 C   0  0  0  0  0  0  0  0  0  0  0  0
   58.7410   33.1940   46.8230 C   0  0  0  0  0  0  0  0  0  0  0  0
   58.2400   31.9880   46.3230 C   0  0  0  0  0  0  0  0  0  0  0  0
   58.0590   31.8190   44.9440 C   0  0  0  0  0  0  0  0  0  0  0  0
   57.4250   30.3080   44.2980 S   0  0  0  0  0  0  0  0  0  0  0  0
   56.0940   30.0430   44.9460 O   0  0  0  0  0  0  0  0  0  0  0  0
   57.2390   30.4050   42.8100 O   0  0  0  0  0  0  0  0  0  0  0  0
   58.5330   29.0120   44.6470 N   0  0  0  0  0  0  0  0  0  0  0  0
   59.8850   29.3340   45.1030 C   0  0  0  0  0  0  0  0  0  0  0  0
   58.1450   27.6410   44.4390 C   0  0  0  0  0  0  0  0  0  0  0  0
   58.1390   27.0900   43.1490 C   0  0  0  0  0  0  0  0  0  0  0  0
   57.7700   25.7580   42.9460 C   0  0  0  0  0  0  0  0  0  0  0  0
   57.4000   24.9360   44.0310 C   0  0  0  0  0  0  0  0  0  0  0  0
   57.0150   23.5520   43.8210 N   0  0  0  0  0  0  0  0  0  0  0  0
   57.7840   22.4630   44.4360 C   0  0  0  0  0  0  0  0  0  0  0  0
   55.8530   23.2180   42.9900 C   0  0  0  0  0  0  0  0  0  0  0  0
   57.4160   25.4960   45.3250 C   0  0  0  0  0  0  0  0  0  0  0  0
   57.7860   26.8290   45.5250 C   0  0  0  0  0  0  0  0  0  0  0  0
   58.3940   32.8590   44.0680 C   0  0  0  0  0  0  0  0  0  0  0  0
   58.8950   34.0650   44.5660 C   0  0  0  0  0  0  0  0  0  0  0  0
   59.6202   35.5009   47.5827 H   0  0  0  0  0  0  0  0  0  0  0  0
   60.6663   35.6376   46.1289 H   0  0  0  0  0  0  0  0  0  0  0  0
   59.0280   36.3741   46.1289 H   0  0  0  0  0  0  0  0  0  0  0  0
   58.8888   33.3187   47.9059 H   0  0  0  0  0  0  0  0  0  0  0  0
   57.9874   31.1702   47.0139 H   0  0  0  0  0  0  0  0  0  0  0  0
   59.9094   29.3398   46.2027 H   0  0  0  0  0  0  0  0  0  0  0  0
   60.5893   28.5785   44.7246 H   0  0  0  0  0  0  0  0  0  0  0  0
   60.1731   30.3259   44.7246 H   0  0  0  0  0  0  0  0  0  0  0  0
   58.4275   27.7126   42.2892 H   0  0  0  0  0  0  0  0  0  0  0  0
   57.7679   25.3447   41.9266 H   0  0  0  0  0  0  0  0  0  0  0  0
   57.7255   22.5459   45.5313 H   0  0  0  0  0  0  0  0  0  0  0  0
   57.3677   21.4955   44.1187 H   0  0  0  0  0  0  0  0  0  0  0  0
   58.8350   22.5317   44.1187 H   0  0  0  0  0  0  0  0  0  0  0  0
   54.9980   22.9722   43.6370 H   0  0  0  0  0  0  0  0  0  0  0  0
   55.5968   24.0789   42.3550 H   0  0  0  0  0  0  0  0  0  0  0  0
   56.0930   22.3525   42.3550 H   0  0  0  0  0  0  0  0  0  0  0  0
   57.1336   24.8757   46.1884 H   0  0  0  0  0  0  0  0  0  0  0  0
   57.7957   27.2450   46.5432 H   0  0  0  0  0  0  0  0  0  0  0  0
   58.2624   32.7262   42.9840 H   0  0  0  0  0  0  0  0  0  0  0  0
   59.1641   34.8750   43.8721 H   0  0  0  0  0  0  0  0  0  0  0  0
  1  2  1  0
  2  3  2  0
  3  4  1  0
  4  5  2  0
  5  6  1  0
  6  7  2  0
  6  8  2  0
  6  9  1  0
  9 10  1  0
  9 11  1  0
 11 12  2  0
 12 13  1  0
 13 14  2  0
 14 15  1  0
 15 16  1  0
 15 17  1  0
 14 18  1  0
 18 19  2  0
  5 20  1  0
 20 21  2  0
 21  2  1  0
 19 11  1  0
  1 22  1  0
  1 23  1  0
  1 24  1  0
  3 25  1  0
  4 26  1  0
 10 27  1  0
 10 28  1  0
 10 29  1  0
 12 30  1  0
 13 31  1  0
 16 32  1  0
 16 33  1  0
 16 34  1  0
 17 35  1  0
 17 36  1  0
 17 37  1  0
 18 38  1  0
 19 39  1  0
 20 40  1  0
 21 41  1  0
M  END
>  <UniqueID>  (27) 
27

>  <SMILES>  (27) 
Cc1ccc(S(=O)(=O)N(C)c2ccc(N(C)C)cc2)cc1

>  <Energy>  (27) 
46.077844444254296

>  <Genealogy>  (27) 
Cc1ccc(S(=O)(=O)N(C)c2ccc(N(C)C)cc2)cc1 (3D coordinates assigned)
Cc1ccc(S(=O)(=O)N(C)c2ccc(N(C)C)cc2)cc1 (optimized conformer: 46.077844444254296 kcal/mol)

>  <smiles>  (27) 
Cc1ccc(S(=O)(=O)N(C)c2ccc(N(C)C)cc2)cc1

>  <score_type>  (27) 
oracle

>  <origin>  (27) 
adg

>  <m_score__min__energy>  (27) 
-7.5499999999999998

>  <m_primary>  (27) 
energy

$$$$
27:0
     RDKit          3D

 34 35  0  0  0  0  0  0  0  0999 V2000
   64.0550   33.0990   47.0250 C   0  0  0  0  0  0  0  0  0  0  0  0
   63.6290   33.1580   48.4280 N   0  0  0  0  0  0  0  0  0  0  0  0
   64.6180   32.9840   49.4970 C   0  0  0  0  0  0  0  0  0  0  0  0
   62.2310   33.3810   48.7300 C   0  0  0  0  0  0  0  0  0  0  0  0
   61.8100   33.3340   50.0250 N   0  0  0  0  0  0  0  0  0  0  0  0
   60.5100   33.5310   50.3560 C   0  0  0  0  0  0  0  0  0  0  0  0
   60.0230   33.4600   52.0370 Cl  0  0  0  0  0  0  0  0  0  0  0  0
   59.5720   33.7910   49.3620 C   0  0  0  0  0  0  0  0  0  0  0  0
   60.0020   33.8480   48.0310 C   0  0  0  0  0  0  0  0  0  0  0  0
   59.0590   34.1120   46.9740 N   0  0  0  0  0  0  0  0  0  0  0  0
   57.7410   33.4600   46.9870 C   0  0  0  0  0  0  0  0  0  0  0  0
   57.0510   33.5570   45.6180 C   0  0  0  0  0  0  0  0  0  0  0  0
   58.0560   33.2790   44.4930 C   0  0  0  0  0  0  0  0  0  0  0  0
   59.2620   34.2440   44.5180 C   0  0  0  0  0  0  0  0  0  0  0  0
   59.4200   34.9890   45.8520 C   0  0  0  0  0  0  0  0  0  0  0  0
   61.3190   33.6340   47.7420 N   0  0  0  0  0  0  0  0  0  0  0  0
   65.1436   32.9482   46.9784 H   0  0  0  0  0  0  0  0  0  0  0  0
   63.5471   32.2626   46.5225 H   0  0  0  0  0  0  0  0  0  0  0  0
   63.7936   34.0419   46.5225 H   0  0  0  0  0  0  0  0  0  0  0  0
   64.1208   33.0715   50.4743 H   0  0  0  0  0  0  0  0  0  0  0  0
   65.0818   31.9905   49.4092 H   0  0  0  0  0  0  0  0  0  0  0  0
   65.3931   33.7596   49.4092 H   0  0  0  0  0  0  0  0  0  0  0  0
   58.5136   33.9486   49.6168 H   0  0  0  0  0  0  0  0  0  0  0  0
   57.8696   32.3992   47.2480 H   0  0  0  0  0  0  0  0  0  0  0  0
   57.1101   33.9721   47.7284 H   0  0  0  0  0  0  0  0  0  0  0  0
   56.2378   32.8179   45.5686 H   0  0  0  0  0  0  0  0  0  0  0  0
   56.6465   34.5722   45.4929 H   0  0  0  0  0  0  0  0  0  0  0  0
   58.4273   32.2491   44.5996 H   0  0  0  0  0  0  0  0  0  0  0  0
   57.5328   33.4263   43.5367 H   0  0  0  0  0  0  0  0  0  0  0  0
   60.1774   33.6629   44.3327 H   0  0  0  0  0  0  0  0  0  0  0  0
   59.0867   35.0028   43.7412 H   0  0  0  0  0  0  0  0  0  0  0  0
   60.4656   35.3112   45.9656 H   0  0  0  0  0  0  0  0  0  0  0  0
   58.7528   35.8636   45.8536 H   0  0  0  0  0  0  0  0  0  0  0  0
   61.6140   33.6420   46.7410 H   0  0  0  0  0  0  0  0  0  0  0  0
  1  2  1  0
  2  3  1  0
  2  4  1  0
  4  5  2  0
  5  6  1  0
  6  7  1  0
  6  8  2  0
  8  9  1  0
  9 10  1  0
 10 11  1  0
 11 12  1  0
 12 13  1  0
 13 14  1  0
 14 15  1  0
  9 16  2  0
 16  4  1  0
 15 10  1  0
  1 17  1  0
  1 18  1  0
  1 19  1  0
  3 20  1  0
  3 21  1  0
  3 22  1  0
  8 23  1  0
 11 24  1  0
 11 25  1  0
 12 26  1  0
 12 27  1  0
 13 28  1  0
 13 29  1  0
 14 30  1  0
 14 31  1  0
 15 32  1  0
 15 33  1  0
 16 34  1  0
M  CHG  1  16   1
M  END
>  <UniqueID>  (28) 
28

>  <SMILES>  (28) 
CN(C)c1nc(Cl)cc(N2CCCCC2)[nH+]1

>  <Energy>  (28) 
36.24289412692886

>  <Genealogy>  (28) 
CN(C)c1nc(Cl)cc(N2CCCCC2)[nH+]1 (protonated)
CN(C)c1nc(Cl)cc(N2CCCCC2)[nH+]1 (3D coordinates assigned)
CN(C)c1nc(Cl)cc(N2CCCCC2)[nH+]1 (nonaromatic ring conformer: 36.24289412692886 kcal/mol)

>  <smiles>  (28) 
CN(C)c1nc(Cl)cc(N2CCCCC2)n1

>  <score_type>  (28) 
oracle

>  <origin>  (28) 
adg

>  <m_score__min__energy>  (28) 
-4.3399999999999999

>  <m_primary>  (28) 
energy

$$$$
28:0
     RDKit          3D

 43 46  0  0  1  0  0  0  0  0999 V2000
   56.2410   20.0460   43.9870 C   0  0  0  0  0  0  0  0  0  0  0  0
   55.9510   21.2820   43.3700 O   0  0  0  0  0  0  0  0  0  0  0  0
   56.3610   22.4890   43.8860 C   0  0  0  0  0  0  0  0  0  0  0  0
   56.6360   23.5950   43.0850 C   0  0  0  0  0  0  0  0  0  0  0  0
   57.0490   24.7900   43.6840 C   0  0  0  0  0  0  0  0  0  0  0  0
   57.1910   24.8970   45.0530 C   0  0  0  0  0  0  0  0  0  0  0  0
   57.6260   26.1750   45.6050 C   0  0  0  0  0  0  0  0  0  0  0  0
   58.6190   26.4120   46.5320 C   0  0  0  0  0  0  0  0  0  0  0  0
   58.6780   27.7770   46.7560 C   0  0  0  0  0  0  0  0  0  0  0  0
   59.4180   28.5950   47.5270 N   0  0  0  0  0  0  0  0  0  0  0  0
   59.2390   29.9430   47.5350 C   0  0  0  0  0  0  0  0  0  0  0  0
   58.2940   30.4950   46.7490 N   0  0  0  0  0  0  0  0  0  0  0  0
   57.5470   29.6940   45.9750 C   0  0  0  0  0  0  0  0  0  0  0  0
   56.6560   30.2470   45.2380 N   0  0  0  0  0  0  0  0  0  0  0  0
   56.8610   31.0410   44.1010 C   0  0  0  0  0  0  0  0  0  0  0  0
   58.1950   31.6840   43.9060 C   0  0  0  0  0  0  0  0  0  0  0  0
   57.8470   32.5350   42.6730 C   0  0  0  0  0  0  0  0  0  0  0  0
   57.0190   31.5820   41.8400 C   0  0  0  0  0  0  0  0  0  0  0  0
   56.6340   30.4180   42.7640 C   0  0  0  0  0  0  0  0  0  0  0  0
   57.7000   28.3300   45.9410 C   0  0  0  0  0  0  0  0  0  0  0  0
   57.0710   27.3480   45.2510 N   0  0  0  0  0  0  0  0  0  0  0  0
   56.9170   23.8000   45.8430 C   0  0  0  0  0  0  0  0  0  0  0  0
   56.5100   22.6240   45.2440 C   0  0  0  0  0  0  0  0  0  0  0  0
   56.2128   20.1663   45.0800 H   0  0  0  0  0  0  0  0  0  0  0  0
   55.4937   19.2991   43.6809 H   0  0  0  0  0  0  0  0  0  0  0  0
   57.2425   19.7094   43.6809 H   0  0  0  0  0  0  0  0  0  0  0  0
   56.5295   23.5294   41.9921 H   0  0  0  0  0  0  0  0  0  0  0  0
   57.2652   25.6630   43.0506 H   0  0  0  0  0  0  0  0  0  0  0  0
   59.2529   25.6504   47.0096 H   0  0  0  0  0  0  0  0  0  0  0  0
   60.1540   28.1660   48.1390 H   0  0  0  0  0  0  0  0  0  0  0  0
   59.8626   30.5796   48.1799 H   0  0  0  0  0  0  0  0  0  0  0  0
   56.0825   31.7653   44.3829 H   0  0  0  0  0  0  0  0  0  0  0  0
   58.4898   32.3008   44.7678 H   0  0  0  0  0  0  0  0  0  0  0  0
   59.0483   30.9990   43.7934 H   0  0  0  0  0  0  0  0  0  0  0  0
   57.2649   33.4246   42.9555 H   0  0  0  0  0  0  0  0  0  0  0  0
   58.7304   32.9242   42.1455 H   0  0  0  0  0  0  0  0  0  0  0  0
   56.1153   32.0879   41.4692 H   0  0  0  0  0  0  0  0  0  0  0  0
   57.5822   31.2259   40.9648 H   0  0  0  0  0  0  0  0  0  0  0  0
   55.5833   30.1223   42.6275 H   0  0  0  0  0  0  0  0  0  0  0  0
   57.1990   29.4903   42.5902 H   0  0  0  0  0  0  0  0  0  0  0  0
   56.3020   27.5600   44.5820 H   0  0  0  0  0  0  0  0  0  0  0  0
   57.0213   23.8610   46.9363 H   0  0  0  0  0  0  0  0  0  0  0  0
   56.2954   21.7558   45.8844 H   0  0  0  0  0  0  0  0  0  0  0  0
  1  2  1  0
  2  3  1  0
  3  4  2  0
  4  5  1  0
  5  6  2  0
  6  7  1  0
  7  8  2  0
  8  9  1  0
  9 10  1  0
 10 11  1  0
 11 12  2  0
 12 13  1  0
 13 14  2  0
 14 15  1  0
 15 16  1  0
 16 17  1  0
 17 18  1  0
 18 19  1  0
 13 20  1  0
 20 21  1  0
  6 22  1  0
 22 23  2  0
 23  3  1  0
 21  7  1  0
 20  9  2  0
 19 15  1  0
  1 24  1  0
  1 25  1  0
  1 26  1  0
  4 27  1  0
  5 28  1  0
  8 29  1  0
 10 30  1  0
 11 31  1  0
 15 32  1  0
 16 33  1  0
 16 34  1  0
 17 35  1  0
 17 36  1  0
 18 37  1  0
 18 38  1  0
 19 39  1  0
 19 40  1  0
 21 41  1  0
 22 42  1  0
 23 43  1  0
M  END
>  <smiles>  (29) 
COc1ccc(-c2cc3[nH]cnc(=NC4CCCC4)c3[nH]2)cc1

>  <score_type>  (29) 
oracle

>  <origin>  (29) 
adg

>  <m_score__min__energy>  (29) 
-7.6699999999999999

>  <m_primary>  (29) 
energy

$$$$
29:0
     RDKit          3D

 64 66  0  0  0  0  0  0  0  0999 V2000
   60.9792   26.7011   49.2401 H   0  0  0  0  0  0  0  0  0  0  0  0
   60.5140   27.3400   48.4750 C   0  0  0  0  0  0  0  0  0  0  0  0
   60.3860   28.7840   48.7350 C   0  0  0  0  0  0  0  0  0  0  0  0
   61.4080   29.4950   48.9440 O   0  0  0  0  0  0  0  0  0  0  0  0
   59.1090   29.3550   48.7470 O   0  0  0  0  0  0  0  0  0  0  0  0
   58.7570   30.4750   49.5560 C   0  0  0  0  0  0  0  0  0  0  0  0
   57.8581   30.9531   49.1395 H   0  0  0  0  0  0  0  0  0  0  0  0
   59.5977   31.1843   49.5633 H   0  0  0  0  0  0  0  0  0  0  0  0
   58.4730   30.0370   50.9870 C   0  0  0  0  0  0  0  0  0  0  0  0
   58.9347   30.7491   51.6869 H   0  0  0  0  0  0  0  0  0  0  0  0
   57.3860   30.0115   51.1538 H   0  0  0  0  0  0  0  0  0  0  0  0
   58.8932   29.0342   51.1538 H   0  0  0  0  0  0  0  0  0  0  0  0
   60.0820   26.7780   47.3360 C   0  0  0  0  0  0  0  0  0  0  0  0
   60.3630   25.7326   47.1404 H   0  0  0  0  0  0  0  0  0  0  0  0
   59.2490   27.4740   46.3210 C   0  0  0  0  0  0  0  0  0  0  0  0
   59.7850   28.0630   45.1580 C   0  0  0  0  0  0  0  0  0  0  0  0
   60.8714   28.0429   44.9866 H   0  0  0  0  0  0  0  0  0  0  0  0
   58.9450   28.6730   44.2200 C   0  0  0  0  0  0  0  0  0  0  0  0
   59.3783   29.1591   43.3335 H   0  0  0  0  0  0  0  0  0  0  0  0
   57.5550   28.6690   44.4020 C   0  0  0  0  0  0  0  0  0  0  0  0
   56.6440   29.3100   43.3800 C   0  0  0  0  0  0  0  0  0  0  0  0
   56.4930   28.5974   42.5557 H   0  0  0  0  0  0  0  0  0  0  0  0
   55.7075   29.5598   43.9001 H   0  0  0  0  0  0  0  0  0  0  0  0
   57.1700   30.5720   42.8140 N   0  0  0  0  0  0  0  0  0  0  0  0
   58.1170   30.3480   42.4260 H   0  0  0  0  0  0  0  0  0  0  0  0
   56.5910   30.8530   41.9890 H   0  0  0  0  0  0  0  0  0  0  0  0
   57.3330   31.7310   43.7370 C   0  0  0  0  0  0  0  0  0  0  0  0
   56.3980   32.3031   43.6449 H   0  0  0  0  0  0  0  0  0  0  0  0
   57.4220   31.3110   45.2340 C   0  0  0  0  0  0  0  0  0  0  0  0
   56.5397   31.7055   45.7592 H   0  0  0  0  0  0  0  0  0  0  0  0
   57.4663   30.2122   45.2595 H   0  0  0  0  0  0  0  0  0  0  0  0
   58.6790   31.8290   45.9410 C   0  0  0  0  0  0  0  0  0  0  0  0
   58.5782   31.6622   47.0236 H   0  0  0  0  0  0  0  0  0  0  0  0
   59.5521   31.2867   45.5491 H   0  0  0  0  0  0  0  0  0  0  0  0
   58.8660   33.2670   45.6900 N   0  0  0  0  0  0  0  0  0  0  0  0
   59.2920   34.1500   46.7460 C   0  0  0  0  0  0  0  0  0  0  0  0
   58.8830   35.3440   46.7560 O   0  0  0  0  0  0  0  0  0  0  0  0
   60.2020   33.6960   47.8250 C   0  0  0  0  0  0  0  0  0  0  0  0
   61.4870   33.2300   47.5080 C   0  0  0  0  0  0  0  0  0  0  0  0
   61.8102   33.1980   46.4570 H   0  0  0  0  0  0  0  0  0  0  0  0
   62.3650   32.8040   48.5180 C   0  0  0  0  0  0  0  0  0  0  0  0
   63.7690   32.3730   48.1750 C   0  0  0  0  0  0  0  0  0  0  0  0
   64.5190   33.4880   47.8490 F   0  0  0  0  0  0  0  0  0  0  0  0
   64.3600   31.7310   49.2490 F   0  0  0  0  0  0  0  0  0  0  0  0
   63.7650   31.5020   47.1000 F   0  0  0  0  0  0  0  0  0  0  0  0
   61.9540   32.8790   49.8600 C   0  0  0  0  0  0  0  0  0  0  0  0
   62.6561   32.6006   50.6597 H   0  0  0  0  0  0  0  0  0  0  0  0
   60.6580   33.3050   50.1920 C   0  0  0  0  0  0  0  0  0  0  0  0
   60.2550   33.4050   51.6420 C   0  0  0  0  0  0  0  0  0  0  0  0
   59.9130   32.1660   52.1590 F   0  0  0  0  0  0  0  0  0  0  0  0
   59.1670   34.2520   51.7530 F   0  0  0  0  0  0  0  0  0  0  0  0
   61.3010   33.9130   52.3920 F   0  0  0  0  0  0  0  0  0  0  0  0
   59.7860   33.7110   49.1670 C   0  0  0  0  0  0  0  0  0  0  0  0
   58.7680   34.0437   49.4179 H   0  0  0  0  0  0  0  0  0  0  0  0
   58.6050   33.8300   44.3560 C   0  0  0  0  0  0  0  0  0  0  0  0
   57.6829   34.4286   44.3935 H   0  0  0  0  0  0  0  0  0  0  0  0
   59.4627   34.4559   44.0685 H   0  0  0  0  0  0  0  0  0  0  0  0
   58.4400   32.7230   43.3090 C   0  0  0  0  0  0  0  0  0  0  0  0
   58.1670   33.1754   42.3442 H   0  0  0  0  0  0  0  0  0  0  0  0
   59.3903   32.1766   43.2171 H   0  0  0  0  0  0  0  0  0  0  0  0
   57.0230   28.1220   45.5800 C   0  0  0  0  0  0  0  0  0  0  0  0
   55.9395   28.1695   45.7638 H   0  0  0  0  0  0  0  0  0  0  0  0
   57.8600   27.5180   46.5200 C   0  0  0  0  0  0  0  0  0  0  0  0
   57.4262   27.0715   47.4269 H   0  0  0  0  0  0  0  0  0  0  0  0
  1  2  1  0
  2  3  1  0
  3  4  2  0
  3  5  1  0
  5  6  1  0
  6  7  1  0
  6  8  1  0
  6  9  1  0
  9 10  1  0
  9 11  1  0
  9 12  1  0
  2 13  2  0
 13 14  1  0
 13 15  1  0
 15 16  2  0
 16 17  1  0
 16 18  1  0
 18 19  1  0
 18 20  2  0
 20 21  1  0
 21 22  1  0
 21 23  1  0
 21 24  1  0
 24 25  1  0
 24 26  1  0
 24 27  1  0
 27 28  1  0
 27 29  1  0
 29 30  1  0
 29 31  1  0
 29 32  1  0
 32 33  1  0
 32 34  1  0
 32 35  1  0
 35 36  1  0
 36 37  2  0
 36 38  1  0
 38 39  2  0
 39 40  1  0
 39 41  1  0
 41 42  1  0
 42 43  1  0
 42 44  1  0
 42 45  1  0
 41 46  2  0
 46 47  1  0
 46 48  1  0
 48 49  1  0
 49 50  1  0
 49 51  1  0
 49 52  1  0
 48 53  2  0
 53 54  1  0
 35 55  1  0
 55 56  1  0
 55 57  1  0
 55 58  1  0
 58 59  1  0
 58 60  1  0
 20 61  1  0
 61 62  1  0
 61 63  2  0
 63 64  1  0
 63 15  1  0
 58 27  1  0
 53 38  1  0
M  CHG  1  24   1
M  END
>  <UniqueID>  (30) 
29

>  <SMILES>  (30) 
CCOC(=O)/C=C/c1ccc(C[NH2+]C2CCN(C(=O)c3cc(C(F)(F)F)cc(C(F)(F)F)c3)CC2)cc1

>  <Energy>  (30) 
74.53051875811917

>  <Genealogy>  (30) 
CCOC(=O)C=Cc1ccc(C[NH2+]C2CCN(C(=O)c3cc(C(F)(F)F)cc(C(F)(F)F)c3)CC2)cc1 (protonated)
CCOC(=O)/C=C/c1ccc(C[NH2+]C2CCN(C(=O)c3cc(C(F)(F)F)cc(C(F)(F)F)c3)CC2)cc1 (cis-trans isomerization)
CCOC(=O)/C=C/c1ccc(C[NH2+]C2CCN(C(=O)c3cc(C(F)(F)F)cc(C(F)(F)F)c3)CC2)cc1 (3D coordinates assigned)
CCOC(=O)/C=C/c1ccc(C[NH2+]C2CCN(C(=O)c3cc(C(F)(F)F)cc(C(F)(F)F)c3)CC2)cc1 (nonaromatic ring conformer: 74.53051875811917 kcal/mol)

>  <smiles>  (30) 
CCOC(=O)C=Cc1ccc(CNC2CCN(C(=O)c3cc(C(F)(F)F)cc(C(F)(F)F)c3)CC2)cc1

>  <score_type>  (30) 
oracle

>  <origin>  (30) 
adg

>  <m_score__min__energy>  (30) 
-8.0399999999999991

>  <m_primary>  (30) 
energy

$$$$
30:0
     RDKit          3D

 35 35  0  0  0  0  0  0  0  0999 V2000
   58.5527   35.6285   44.2056 H   0  0  0  0  0  0  0  0  0  0  0  0
   58.5850   34.7570   44.8760 C   0  0  0  0  0  0  0  0  0  0  0  0
   59.4290   34.7510   45.9690 C   0  0  0  0  0  0  0  0  0  0  0  0
   60.0855   35.6129   46.1593 H   0  0  0  0  0  0  0  0  0  0  0  0
   59.4520   33.6500   46.8370 C   0  0  0  0  0  0  0  0  0  0  0  0
   60.3950   33.7400   48.0200 C   0  0  0  0  0  0  0  0  0  0  0  0
   59.8173   33.6849   48.9544 H   0  0  0  0  0  0  0  0  0  0  0  0
   61.1114   32.9062   47.9821 H   0  0  0  0  0  0  0  0  0  0  0  0
   60.9408   34.6943   47.9821 H   0  0  0  0  0  0  0  0  0  0  0  0
   58.6500   32.5400   46.5950 N   0  0  0  0  0  0  0  0  0  0  0  0
   58.6200   31.4640   47.6160 C   0  0  0  0  0  0  0  0  0  0  0  0
   59.1546   31.8046   48.5150 H   0  0  0  0  0  0  0  0  0  0  0  0
   57.5714   31.2362   47.8579 H   0  0  0  0  0  0  0  0  0  0  0  0
   59.2880   30.1950   47.0860 C   0  0  0  0  0  0  0  0  0  0  0  0
   59.6157   29.5725   47.9317 H   0  0  0  0  0  0  0  0  0  0  0  0
   58.5697   29.6314   46.4725 H   0  0  0  0  0  0  0  0  0  0  0  0
   60.1592   30.4681   46.4725 H   0  0  0  0  0  0  0  0  0  0  0  0
   57.8180   32.5390   45.4700 C   0  0  0  0  0  0  0  0  0  0  0  0
   57.0420   31.5520   45.0870 N   0  0  0  0  0  0  0  0  0  0  0  0
   56.8720   30.7680   43.8670 C   0  0  0  0  0  0  0  0  0  0  0  0
   57.6949   30.0435   43.7778 H   0  0  0  0  0  0  0  0  0  0  0  0
   56.8803   31.4372   42.9940 H   0  0  0  0  0  0  0  0  0  0  0  0
   55.5420   30.0240   43.9290 C   0  0  0  0  0  0  0  0  0  0  0  0
   55.3138   29.5988   42.9405 H   0  0  0  0  0  0  0  0  0  0  0  0
   54.7450   30.7235   44.2214 H   0  0  0  0  0  0  0  0  0  0  0  0
   55.6260   28.9830   44.8810 O   0  0  0  0  0  0  0  0  0  0  0  0
   56.9550   28.5060   44.9790 C   0  0  0  0  0  0  0  0  0  0  0  0
   57.5986   29.3033   45.3792 H   0  0  0  0  0  0  0  0  0  0  0  0
   57.3038   28.2078   43.9793 H   0  0  0  0  0  0  0  0  0  0  0  0
   57.0140   27.2980   45.9070 C   0  0  0  0  0  0  0  0  0  0  0  0
   56.9974   27.6380   46.9530 H   0  0  0  0  0  0  0  0  0  0  0  0
   56.1465   26.6483   45.7188 H   0  0  0  0  0  0  0  0  0  0  0  0
   57.9407   26.7360   45.7188 H   0  0  0  0  0  0  0  0  0  0  0  0
   57.7820   33.6610   44.6310 C   0  0  0  0  0  0  0  0  0  0  0  0
   57.1041   33.6685   43.7647 H   0  0  0  0  0  0  0  0  0  0  0  0
  1  2  1  0
  2  3  1  0
  3  4  1  0
  3  5  2  0
  5  6  1  0
  6  7  1  0
  6  8  1  0
  6  9  1  0
  5 10  1  0
 10 11  1  0
 11 12  1  0
 11 13  1  0
 11 14  1  0
 14 15  1  0
 14 16  1  0
 14 17  1  0
 10 18  1  0
 18 19  2  0
 19 20  1  0
 20 21  1  0
 20 22  1  0
 20 23  1  0
 23 24  1  0
 23 25  1  0
 23 26  1  0
 26 27  1  0
 27 28  1  0
 27 29  1  0
 27 30  1  0
 30 31  1  0
 30 32  1  0
 30 33  1  0
 18 34  1  0
 34 35  1  0
 34  2  2  0
M  END
>  <UniqueID>  (31) 
30

>  <SMILES>  (31) 
CCOCC/N=c1/cccc(C)n1CC

>  <Energy>  (31) 
49.710004710632

>  <Genealogy>  (31) 
CCOCC/N=c1/cccc(C)n1CC (cis-trans isomerization)
CCOCC/N=c1/cccc(C)n1CC (3D coordinates assigned)
CCOCC/N=c1/cccc(C)n1CC (optimized conformer: 49.710004710632 kcal/mol)

>  <smiles>  (31) 
CCOCCN=c1cccc(C)n1CC

>  <score_type>  (31) 
oracle

>  <origin>  (31) 
adg

>  <m_score__min__energy>  (31) 
-5.6500000000000004

>  <m_primary>  (31) 
energy

$$$$
31:0
     RDKit          3D

 36 38  0  0  0  0  0  0  0  0999 V2000
   55.2880   30.0530   45.6300 H   0  0  0  0  0  0  0  0  0  0  0  0
   56.1830   30.0150   45.1020 N   0  0  0  0  0  0  0  0  0  0  0  0
   57.3900   30.0270   45.5930 C   0  0  0  0  0  0  0  0  0  0  0  0
   58.0890   31.2650   45.6360 C   0  0  0  0  0  0  0  0  0  0  0  0
   59.3570   31.3090   46.2940 C   0  0  0  0  0  0  0  0  0  0  0  0
   59.9090   30.1510   46.7570 N   0  0  0  0  0  0  0  0  0  0  0  0
   60.8590   30.1870   47.1950 H   0  0  0  0  0  0  0  0  0  0  0  0
   59.2860   28.9470   46.6740 C   0  0  0  0  0  0  0  0  0  0  0  0
   59.9250   27.8020   47.1790 C   0  0  0  0  0  0  0  0  0  0  0  0
   60.9238   27.8917   47.6310 H   0  0  0  0  0  0  0  0  0  0  0  0
   59.3090   26.5560   47.1140 C   0  0  0  0  0  0  0  0  0  0  0  0
   59.8208   25.6686   47.5148 H   0  0  0  0  0  0  0  0  0  0  0  0
   58.0360   26.4300   46.5380 C   0  0  0  0  0  0  0  0  0  0  0  0
   57.3760   25.1950   46.4440 O   0  0  0  0  0  0  0  0  0  0  0  0
   56.9380   24.4280   47.5610 C   0  0  0  0  0  0  0  0  0  0  0  0
   57.2286   24.9369   48.4919 H   0  0  0  0  0  0  0  0  0  0  0  0
   55.8436   24.3227   47.5270 H   0  0  0  0  0  0  0  0  0  0  0  0
   57.4034   23.4319   47.5270 H   0  0  0  0  0  0  0  0  0  0  0  0
   57.3940   27.5660   46.0330 C   0  0  0  0  0  0  0  0  0  0  0  0
   56.3968   27.4644   45.5800 H   0  0  0  0  0  0  0  0  0  0  0  0
   58.0020   28.8450   46.0930 C   0  0  0  0  0  0  0  0  0  0  0  0
   60.1950   32.5700   46.4540 C   0  0  0  0  0  0  0  0  0  0  0  0
   61.0265   32.3457   47.1384 H   0  0  0  0  0  0  0  0  0  0  0  0
   60.5326   32.8519   45.4457 H   0  0  0  0  0  0  0  0  0  0  0  0
   59.4290   33.7740   47.0100 C   0  0  0  0  0  0  0  0  0  0  0  0
   58.7015   33.4186   47.7546 H   0  0  0  0  0  0  0  0  0  0  0  0
   60.1593   34.4610   47.4624 H   0  0  0  0  0  0  0  0  0  0  0  0
   58.6800   34.5370   45.9120 C   0  0  0  0  0  0  0  0  0  0  0  0
   57.7475   34.9358   46.3379 H   0  0  0  0  0  0  0  0  0  0  0  0
   59.3480   35.3353   45.5564 H   0  0  0  0  0  0  0  0  0  0  0  0
   58.3280   33.6660   44.7000 C   0  0  0  0  0  0  0  0  0  0  0  0
   57.8327   34.2936   43.9445 H   0  0  0  0  0  0  0  0  0  0  0  0
   59.2621   33.2343   44.3114 H   0  0  0  0  0  0  0  0  0  0  0  0
   57.3930   32.5090   45.0710 C   0  0  0  0  0  0  0  0  0  0  0  0
   56.6821   32.8744   45.8267 H   0  0  0  0  0  0  0  0  0  0  0  0
   56.9121   32.1916   44.1340 H   0  0  0  0  0  0  0  0  0  0  0  0
  1  2  1  0
  2  3  2  0
  3  4  1  0
  4  5  2  0
  5  6  1  0
  6  7  1  0
  6  8  1  0
  8  9  2  0
  9 10  1  0
  9 11  1  0
 11 12  1  0
 11 13  2  0
 13 14  1  0
 14 15  1  0
 15 16  1  0
 15 17  1  0
 15 18  1  0
 13 19  1  0
 19 20  1  0
 19 21  2  0
  5 22  1  0
 22 23  1  0
 22 24  1  0
 22 25  1  0
 25 26  1  0
 25 27  1  0
 25 28  1  0
 28 29  1  0
 28 30  1  0
 28 31  1  0
 31 32  1  0
 31 33  1  0
 31 34  1  0
 34 35  1  0
 34 36  1  0
 21  3  1  0
 34  4  1  0
 21  8  1  0
M  END
>  <UniqueID>  (32) 
31

>  <SMILES>  (32) 
[H]/N=c1/c2c([nH]c3ccc(OC)cc13)CCCCC2

>  <Energy>  (32) 
55.32012480219418

>  <Genealogy>  (32) 
[H]/N=c1/c2c([nH]c3ccc(OC)cc13)CCCCC2 (cis-trans isomerization)
[H]/N=c1/c2c([nH]c3ccc(OC)cc13)CCCCC2 (3D coordinates assigned)
[H]/N=c1/c2c([nH]c3ccc(OC)cc13)CCCCC2 (nonaromatic ring conformer: 55.32012480219418 kcal/mol)

>  <smiles>  (32) 
COc1ccc2[nH]c3c(c(=N)c2c1)CCCCC3

>  <score_type>  (32) 
oracle

>  <origin>  (32) 
adg

>  <m_score__min__energy>  (32) 
-4.9500000000000002

>  <m_primary>  (32) 
energy

$$$$
32:0
     RDKit          3D

 32 34  0  0  0  0  0  0  0  0999 V2000
   55.6730   31.1410   52.7960 C   0  0  0  0  0  0  0  0  0  0  0  0
   56.8490   30.2040   52.8050 C   0  0  0  0  0  0  0  0  0  0  0  0
   57.9230   30.4200   51.9240 C   0  0  0  0  0  0  0  0  0  0  0  0
   59.0160   29.5520   51.9170 C   0  0  0  0  0  0  0  0  0  0  0  0
   59.0480   28.4610   52.7860 C   0  0  0  0  0  0  0  0  0  0  0  0
   57.9870   28.2330   53.6650 C   0  0  0  0  0  0  0  0  0  0  0  0
   56.8760   29.0980   53.6820 C   0  0  0  0  0  0  0  0  0  0  0  0
   55.7680   28.8790   54.5690 N   0  0  0  0  0  0  0  0  0  0  0  0
   54.2270   28.2280   54.1110 S   0  0  0  0  0  0  0  0  0  0  0  0
   54.4380   27.1120   53.1260 O   0  0  0  0  0  0  0  0  0  0  0  0
   53.5430   27.6820   55.3320 O   0  0  0  0  0  0  0  0  0  0  0  0
   53.2200   29.4910   53.4110 C   0  0  0  0  0  0  0  0  0  0  0  0
   52.5830   30.4390   54.2480 C   0  0  0  0  0  0  0  0  0  0  0  0
   51.7670   31.4440   53.6970 C   0  0  0  0  0  0  0  0  0  0  0  0
   51.6080   31.4740   52.3130 C   0  0  0  0  0  0  0  0  0  0  0  0
   50.8700   32.3500   51.6080 N   0  0  0  0  0  0  0  0  0  0  0  0
   51.0460   31.9560   50.3230 C   0  0  0  0  0  0  0  0  0  0  0  0
   50.4490   32.6000   49.2480 O   0  0  0  0  0  0  0  0  0  0  0  0
   51.8770   30.8520   50.2080 C   0  0  0  0  0  0  0  0  0  0  0  0
   52.2280   30.5580   51.5030 C   0  0  0  0  0  0  0  0  0  0  0  0
   53.0440   29.5520   52.0130 C   0  0  0  0  0  0  0  0  0  0  0  0
   55.3814   31.3734   53.8309 H   0  0  0  0  0  0  0  0  0  0  0  0
   55.9483   32.0700   52.2753 H   0  0  0  0  0  0  0  0  0  0  0  0
   54.8290   30.6651   52.2753 H   0  0  0  0  0  0  0  0  0  0  0  0
   57.9018   31.2781   51.2361 H   0  0  0  0  0  0  0  0  0  0  0  0
   59.8531   29.7283   51.2255 H   0  0  0  0  0  0  0  0  0  0  0  0
   59.9109   27.7788   52.7788 H   0  0  0  0  0  0  0  0  0  0  0  0
   58.0194   27.3719   54.3487 H   0  0  0  0  0  0  0  0  0  0  0  0
   52.7272   30.3893   55.3374 H   0  0  0  0  0  0  0  0  0  0  0  0
   51.2690   32.1846   54.3401 H   0  0  0  0  0  0  0  0  0  0  0  0
   52.1848   30.3307   49.2896 H   0  0  0  0  0  0  0  0  0  0  0  0
   53.5358   28.8278   51.3469 H   0  0  0  0  0  0  0  0  0  0  0  0
  1  2  1  0
  2  3  2  0
  3  4  1  0
  4  5  2  0
  5  6  1  0
  6  7  2  0
  7  8  1  0
  8  9  1  0
  9 10  2  0
  9 11  2  0
  9 12  1  0
 12 13  2  0
 13 14  1  0
 14 15  2  0
 15 16  1  0
 16 17  1  0
 17 18  1  0
 17 19  2  0
 19 20  1  0
 20 21  2  0
  7  2  1  0
 21 12  1  0
 20 15  1  0
  1 22  1  0
  1 23  1  0
  1 24  1  0
  3 25  1  0
  4 26  1  0
  5 27  1  0
  6 28  1  0
 13 29  1  0
 14 30  1  0
 19 31  1  0
 21 32  1  0
M  CHG  3   8  -1  16  -1  18  -1
M  END
>  <UniqueID>  (33) 
32

>  <SMILES>  (33) 
Cc1ccccc1[N-]S(=O)(=O)c1ccc2[n-]c([O-])cc2c1

>  <Energy>  (33) 
69.6503823899607

>  <Genealogy>  (33) 
Cc1ccccc1[N-]S(=O)(=O)c1ccc2[n-]c([O-])cc2c1 (protonated)
Cc1ccccc1[N-]S(=O)(=O)c1ccc2[n-]c([O-])cc2c1 (3D coordinates assigned)
Cc1ccccc1[N-]S(=O)(=O)c1ccc2[n-]c([O-])cc2c1 (optimized conformer: 69.6503823899607 kcal/mol)

>  <smiles>  (33) 
Cc1ccccc1NS(=O)(=O)c1ccc2[nH]c(O)cc2c1

>  <score_type>  (33) 
oracle

>  <origin>  (33) 
adg

>  <m_score__min__energy>  (33) 
-13.6

>  <m_primary>  (33) 
energy

$$$$
33:0
     RDKit          3D

 38 39  0  0  0  0  0  0  0  0999 V2000
   56.9400   27.4920   45.5880 C   0  0  0  0  0  0  0  0  0  0  0  0
   55.9090   28.4120   45.2510 O   0  0  0  0  0  0  0  0  0  0  0  0
   56.1730   29.6790   44.7220 C   0  0  0  0  0  0  0  0  0  0  0  0
   55.2330   30.4860   44.4850 O   0  0  0  0  0  0  0  0  0  0  0  0
   57.5810   30.0590   44.3910 C   0  0  0  0  0  0  0  0  0  0  0  0
   57.6270   31.4550   43.7710 C   0  0  0  0  0  0  0  0  0  0  0  0
   58.1210   32.4260   44.7440 N   0  0  0  0  0  0  0  0  0  0  0  0
   57.7760   33.8420   44.7740 C   0  0  0  0  0  0  0  0  0  0  0  0
   58.6230   34.4550   45.9180 C   0  0  0  0  0  0  0  0  0  0  0  0
   59.3810   33.3470   46.5000 N   0  0  0  0  0  0  0  0  0  0  0  0
   60.2100   33.4350   47.6770 C   0  0  0  0  0  0  0  0  0  0  0  0
   59.6420   33.6530   48.9440 C   0  0  0  0  0  0  0  0  0  0  0  0
   60.4530   33.7480   50.0790 C   0  0  0  0  0  0  0  0  0  0  0  0
   61.8510   33.6340   49.9660 C   0  0  0  0  0  0  0  0  0  0  0  0
   62.7040   33.7210   51.0770 O   0  0  0  0  0  0  0  0  0  0  0  0
   63.7740   34.6530   51.1980 C   0  0  0  0  0  0  0  0  0  0  0  0
   62.4180   33.4300   48.7030 C   0  0  0  0  0  0  0  0  0  0  0  0
   63.7640   33.3210   48.5740 F   0  0  0  0  0  0  0  0  0  0  0  0
   61.6070   33.3360   47.5680 C   0  0  0  0  0  0  0  0  0  0  0  0
   59.0800   32.1840   45.7520 C   0  0  0  0  0  0  0  0  0  0  0  0
   59.6540   31.0730   45.9120 O   0  0  0  0  0  0  0  0  0  0  0  0
   57.0224   27.4184   46.6824 H   0  0  0  0  0  0  0  0  0  0  0  0
   56.6995   26.5029   45.1711 H   0  0  0  0  0  0  0  0  0  0  0  0
   57.8954   27.8432   45.1711 H   0  0  0  0  0  0  0  0  0  0  0  0
   58.1838   30.0515   45.3111 H   0  0  0  0  0  0  0  0  0  0  0  0
   57.9842   29.3350   43.6676 H   0  0  0  0  0  0  0  0  0  0  0  0
   58.2968   31.4426   42.8985 H   0  0  0  0  0  0  0  0  0  0  0  0
   56.6112   31.7430   43.4623 H   0  0  0  0  0  0  0  0  0  0  0  0
   58.0256   34.3181   43.8143 H   0  0  0  0  0  0  0  0  0  0  0  0
   56.6992   33.9944   44.9391 H   0  0  0  0  0  0  0  0  0  0  0  0
   59.3076   35.2182   45.5194 H   0  0  0  0  0  0  0  0  0  0  0  0
   57.9876   34.9460   46.6698 H   0  0  0  0  0  0  0  0  0  0  0  0
   58.5508   33.7496   49.0435 H   0  0  0  0  0  0  0  0  0  0  0  0
   59.9957   33.9128   51.0658 H   0  0  0  0  0  0  0  0  0  0  0  0
   63.9830   34.8351   52.2625 H   0  0  0  0  0  0  0  0  0  0  0  0
   64.6726   34.2446   50.7125 H   0  0  0  0  0  0  0  0  0  0  0  0
   63.4928   35.5992   50.7125 H   0  0  0  0  0  0  0  0  0  0  0  0
   62.0671   33.1831   46.5806 H   0  0  0  0  0  0  0  0  0  0  0  0
  1  2  1  0
  2  3  1  0
  3  4  2  0
  3  5  1  0
  5  6  1  0
  6  7  1  0
  7  8  1  0
  8  9  1  0
  9 10  1  0
 10 11  1  0
 11 12  2  0
 12 13  1  0
 13 14  2  0
 14 15  1  0
 15 16  1  0
 14 17  1  0
 17 18  1  0
 17 19  2  0
 10 20  1  0
 20 21  2  0
 20  7  1  0
 19 11  1  0
  1 22  1  0
  1 23  1  0
  1 24  1  0
  5 25  1  0
  5 26  1  0
  6 27  1  0
  6 28  1  0
  8 29  1  0
  8 30  1  0
  9 31  1  0
  9 32  1  0
 12 33  1  0
 13 34  1  0
 16 35  1  0
 16 36  1  0
 16 37  1  0
 19 38  1  0
M  END
>  <UniqueID>  (34) 
33

>  <SMILES>  (34) 
COC(=O)CCN1CCN(c2ccc(OC)c(F)c2)C1=O

>  <Energy>  (34) 
46.212321180243535

>  <Genealogy>  (34) 
COC(=O)CCN1CCN(c2ccc(OC)c(F)c2)C1=O (3D coordinates assigned)
COC(=O)CCN1CCN(c2ccc(OC)c(F)c2)C1=O (nonaromatic ring conformer: 46.212321180243535 kcal/mol)

>  <smiles>  (34) 
COC(=O)CCN1CCN(c2ccc(OC)c(F)c2)C1=O

>  <score_type>  (34) 
oracle

>  <origin>  (34) 
adg

>  <m_score__min__energy>  (34) 
-6.0099999999999998

>  <m_primary>  (34) 
energy

$$$$
34:0
     RDKit          3D

 31 32  0  0  0  0  0  0  0  0999 V2000
   60.4410   34.2460   46.4110 C   0  0  0  0  0  0  0  0  0  0  0  0
   59.3660   34.3880   45.4900 O   0  0  0  0  0  0  0  0  0  0  0  0
   58.1680   33.6760   45.6110 C   0  0  0  0  0  0  0  0  0  0  0  0
   57.4270   33.8540   46.6170 O   0  0  0  0  0  0  0  0  0  0  0  0
   57.7730   32.7130   44.5590 C   0  0  0  0  0  0  0  0  0  0  0  0
   58.2550   32.8610   43.2470 C   0  0  0  0  0  0  0  0  0  0  0  0
   57.8730   31.9610   42.2490 C   0  0  0  0  0  0  0  0  0  0  0  0
   57.0150   30.9010   42.5490 C   0  0  0  0  0  0  0  0  0  0  0  0
   56.5430   30.7230   43.8570 C   0  0  0  0  0  0  0  0  0  0  0  0
   55.6330   29.6030   44.1620 C   0  0  0  0  0  0  0  0  0  0  0  0
   54.6170   29.4270   43.4380 O   0  0  0  0  0  0  0  0  0  0  0  0
   55.8760   28.6900   45.2420 N   0  0  0  0  0  0  0  0  0  0  0  0
   57.0460   27.8270   45.3850 C   0  0  0  0  0  0  0  0  0  0  0  0
   58.2830   28.6620   45.7400 C   0  0  0  0  0  0  0  0  0  0  0  0
   59.5990   27.8980   45.7490 C   0  0  0  0  0  0  0  0  0  0  0  0
   59.2830   28.8580   44.6120 C   0  0  0  0  0  0  0  0  0  0  0  0
   56.9070   31.6420   44.8530 C   0  0  0  0  0  0  0  0  0  0  0  0
   60.0525   34.2973   47.4388 H   0  0  0  0  0  0  0  0  0  0  0  0
   60.9332   33.2750   46.2531 H   0  0  0  0  0  0  0  0  0  0  0  0
   61.1685   35.0558   46.2531 H   0  0  0  0  0  0  0  0  0  0  0  0
   58.9365   33.6897   43.0047 H   0  0  0  0  0  0  0  0  0  0  0  0
   58.2495   32.0879   41.2233 H   0  0  0  0  0  0  0  0  0  0  0  0
   56.7083   30.2030   41.7561 H   0  0  0  0  0  0  0  0  0  0  0  0
   56.8610   27.0944   46.1844 H   0  0  0  0  0  0  0  0  0  0  0  0
   57.2262   27.3076   44.4323 H   0  0  0  0  0  0  0  0  0  0  0  0
   57.7624   29.3287   46.4432 H   0  0  0  0  0  0  0  0  0  0  0  0
   60.3777   28.1521   46.4832 H   0  0  0  0  0  0  0  0  0  0  0  0
   59.8825   26.8373   45.8157 H   0  0  0  0  0  0  0  0  0  0  0  0
   59.8336   29.8062   44.5238 H   0  0  0  0  0  0  0  0  0  0  0  0
   59.2438   28.7786   43.5156 H   0  0  0  0  0  0  0  0  0  0  0  0
   56.5122   31.5248   45.8730 H   0  0  0  0  0  0  0  0  0  0  0  0
  1  2  1  0
  2  3  1  0
  3  4  2  0
  3  5  1  0
  5  6  2  0
  6  7  1  0
  7  8  2  0
  8  9  1  0
  9 10  1  0
 10 11  2  0
 10 12  1  0
 12 13  1  0
 13 14  1  0
 14 15  1  0
 15 16  1  0
  9 17  2  0
 17  5  1  0
 16 14  1  0
  1 18  1  0
  1 19  1  0
  1 20  1  0
  6 21  1  0
  7 22  1  0
  8 23  1  0
 13 24  1  0
 13 25  1  0
 14 26  1  0
 15 27  1  0
 15 28  1  0
 16 29  1  0
 16 30  1  0
 17 31  1  0
M  CHG  1  12  -1
M  END
>  <UniqueID>  (35) 
34

>  <SMILES>  (35) 
COC(=O)c1cccc(C(=O)[N-]CC2CC2)c1

>  <Energy>  (35) 
294.99141178411384

>  <Genealogy>  (35) 
COC(=O)c1cccc(C(=O)[N-]CC2CC2)c1 (protonated)
COC(=O)c1cccc(C(=O)[N-]CC2CC2)c1 (3D coordinates assigned)
COC(=O)c1cccc(C(=O)[N-]CC2CC2)c1 (nonaromatic ring conformer: 294.99141178411384 kcal/mol)

>  <smiles>  (35) 
COC(=O)c1cccc(C(=O)NCC2CC2)c1

>  <score_type>  (35) 
oracle

>  <origin>  (35) 
adg

>  <m_score__min__energy>  (35) 
-7.9400000000000004

>  <m_primary>  (35) 
energy

$$$$
35:0
     RDKit          3D

 49 52  0  0  0  0  0  0  0  0999 V2000
   59.9150   28.8530   48.9460 C   0  0  0  0  0  0  0  0  0  0  0  0
   59.7580   27.4780   48.6130 O   0  0  0  0  0  0  0  0  0  0  0  0
   59.1730   27.0080   47.4270 C   0  0  0  0  0  0  0  0  0  0  0  0
   59.2250   27.8270   46.2970 C   0  0  0  0  0  0  0  0  0  0  0  0
   58.6620   27.4230   45.0730 C   0  0  0  0  0  0  0  0  0  0  0  0
   58.7750   28.2730   43.9160 N   0  0  0  0  0  0  0  0  0  0  0  0
   58.0450   29.5420   43.7930 C   0  0  1  0  0  0  0  0  0  0  0  0
   56.5800   29.3440   43.4360 C   0  0  0  0  0  0  0  0  0  0  0  0
   55.8310   30.4430   44.1880 C   0  0  0  0  0  0  0  0  0  0  0  0
   56.7790   31.1150   45.0950 N   0  0  0  0  0  0  0  0  0  0  0  0
   57.0170   32.5450   44.7710 C   0  0  0  0  0  0  0  0  0  0  0  0
   57.9750   33.2590   45.7090 C   0  0  0  0  0  0  0  0  0  0  0  0
   58.8110   34.2840   45.2260 C   0  0  0  0  0  0  0  0  0  0  0  0
   59.6710   34.9640   46.0920 C   0  0  0  0  0  0  0  0  0  0  0  0
   59.7230   34.6150   47.4430 C   0  0  0  0  0  0  0  0  0  0  0  0
   58.9240   33.5770   47.9280 C   0  0  0  0  0  0  0  0  0  0  0  0
   58.0600   32.8960   47.0660 C   0  0  0  0  0  0  0  0  0  0  0  0
   57.9940   30.2910   45.1170 C   0  0  0  0  0  0  0  0  0  0  0  0
   58.0130   26.1650   44.9910 C   0  0  0  0  0  0  0  0  0  0  0  0
   57.3980   25.7480   43.8410 N   0  0  0  0  0  0  0  0  0  0  0  0
   56.7780   24.5380   43.7590 C   0  0  0  0  0  0  0  0  0  0  0  0
   56.7410   23.6870   44.8610 C   0  0  0  0  0  0  0  0  0  0  0  0
   57.3360   24.0860   46.0540 C   0  0  0  0  0  0  0  0  0  0  0  0
   57.9710   25.3310   46.1370 C   0  0  0  0  0  0  0  0  0  0  0  0
   58.5490   25.7540   47.3420 C   0  0  0  0  0  0  0  0  0  0  0  0
   59.9279   28.9661   50.0401 H   0  0  0  0  0  0  0  0  0  0  0  0
   60.8616   29.2258   48.5276 H   0  0  0  0  0  0  0  0  0  0  0  0
   59.0769   29.4296   48.5276 H   0  0  0  0  0  0  0  0  0  0  0  0
   59.7166   28.8087   46.3656 H   0  0  0  0  0  0  0  0  0  0  0  0
   59.4220   27.9860   43.1470 H   0  0  0  0  0  0  0  0  0  0  0  0
   58.5899   30.0890   43.0095 H   0  0  0  0  0  0  0  0  0  0  0  0
   56.4301   29.4481   42.3513 H   0  0  0  0  0  0  0  0  0  0  0  0
   56.2222   28.3409   43.7114 H   0  0  0  0  0  0  0  0  0  0  0  0
   55.4224   31.1711   43.4718 H   0  0  0  0  0  0  0  0  0  0  0  0
   55.0004   30.0086   44.7636 H   0  0  0  0  0  0  0  0  0  0  0  0
   57.4292   32.6013   43.7527 H   0  0  0  0  0  0  0  0  0  0  0  0
   56.0463   33.0520   44.8745 H   0  0  0  0  0  0  0  0  0  0  0  0
   58.7868   34.5512   44.1592 H   0  0  0  0  0  0  0  0  0  0  0  0
   60.3078   35.7751   45.7091 H   0  0  0  0  0  0  0  0  0  0  0  0
   60.3934   35.1577   48.1256 H   0  0  0  0  0  0  0  0  0  0  0  0
   58.9749   33.2951   48.9901 H   0  0  0  0  0  0  0  0  0  0  0  0
   57.4425   32.0710   47.4507 H   0  0  0  0  0  0  0  0  0  0  0  0
   58.8827   30.9304   45.2243 H   0  0  0  0  0  0  0  0  0  0  0  0
   57.9791   29.5905   45.9650 H   0  0  0  0  0  0  0  0  0  0  0  0
   57.3650   26.3530   42.9920 H   0  0  0  0  0  0  0  0  0  0  0  0
   56.3031   24.2307   42.8156 H   0  0  0  0  0  0  0  0  0  0  0  0
   56.2455   22.7076   44.7889 H   0  0  0  0  0  0  0  0  0  0  0  0
   57.3074   23.4234   46.9316 H   0  0  0  0  0  0  0  0  0  0  0  0
   58.5132   25.0996   48.2254 H   0  0  0  0  0  0  0  0  0  0  0  0
  1  2  1  0
  2  3  1  0
  3  4  2  0
  4  5  1  0
  5  6  1  0
  6  7  1  0
  7  8  1  0
  8  9  1  0
  9 10  1  0
 10 11  1  0
 11 12  1  0
 12 13  2  0
 13 14  1  0
 14 15  2  0
 15 16  1  0
 16 17  2  0
 10 18  1  0
  5 19  2  0
 19 20  1  0
 20 21  2  0
 21 22  1  0
 22 23  2  0
 23 24  1  0
 24 25  2  0
 25  3  1  0
 18  7  1  0
 24 19  1  0
 17 12  1  0
  1 26  1  0
  1 27  1  0
  1 28  1  0
  4 29  1  0
  6 30  1  0
  7 31  1  6
  8 32  1  0
  8 33  1  0
  9 34  1  0
  9 35  1  0
 11 36  1  0
 11 37  1  0
 13 38  1  0
 14 39  1  0
 15 40  1  0
 16 41  1  0
 17 42  1  0
 18 43  1  0
 18 44  1  0
 20 45  1  0
 21 46  1  0
 22 47  1  0
 23 48  1  0
 25 49  1  0
M  CHG  1  20   1
M  END
>  <UniqueID>  (36) 
35

>  <SMILES>  (36) 
COc1cc(N[C@H]2CCN(Cc3ccccc3)C2)c2[nH+]cccc2c1

>  <Energy>  (36) 
65.00913020338734

>  <Genealogy>  (36) 
COc1cc(NC2CCN(Cc3ccccc3)C2)c2[nH+]cccc2c1 (protonated)
COc1cc(N[C@H]2CCN(Cc3ccccc3)C2)c2[nH+]cccc2c1 (chirality)
COc1cc(N[C@H]2CCN(Cc3ccccc3)C2)c2[nH+]cccc2c1 (3D coordinates assigned)
COc1cc(N[C@H]2CCN(Cc3ccccc3)C2)c2[nH+]cccc2c1 (nonaromatic ring conformer: 65.00913020338734 kcal/mol)

>  <smiles>  (36) 
COc1cc(NC2CCN(Cc3ccccc3)C2)c2ncccc2c1

>  <score_type>  (36) 
oracle

>  <origin>  (36) 
adg

>  <m_score__min__energy>  (36) 
-6.5899999999999999

>  <m_primary>  (36) 
energy

$$$$
36:0
     RDKit          3D

 59 62  0  0  0  0  0  0  0  0999 V2000
   57.7840   32.3160   41.5440 C   0  0  0  0  0  0  0  0  0  0  0  0
   57.4240   32.6700   42.8750 O   0  0  0  0  0  0  0  0  0  0  0  0
   57.9250   32.0010   43.9980 C   0  0  0  0  0  0  0  0  0  0  0  0
   58.0540   30.6450   43.9860 N   0  0  0  0  0  0  0  0  0  0  0  0
   58.5300   29.9530   45.0520 C   0  0  0  0  0  0  0  0  0  0  0  0
   58.9160   30.6290   46.2170 C   0  0  0  0  0  0  0  0  0  0  0  0
   59.4320   29.9050   47.3500 N   0  0  0  0  0  0  0  0  0  0  0  0
   60.4500   28.8660   47.1390 C   0  0  0  0  0  0  0  0  0  0  0  0
   60.2550   27.7250   48.1350 C   0  0  0  0  0  0  0  0  0  0  0  0
   60.2530   28.2620   49.5320 C   0  0  0  0  0  0  0  0  0  0  0  0
   60.7410   27.5020   50.5460 N   0  0  0  0  0  0  0  0  0  0  0  0
   60.7360   27.9570   51.8260 C   0  0  0  0  0  0  0  0  0  0  0  0
   60.2360   29.1860   52.1090 N   0  0  0  0  0  0  0  0  0  0  0  0
   59.7240   29.9830   51.1300 C   0  0  0  0  0  0  0  0  0  0  0  0
   59.2080   31.2450   51.4440 O   0  0  0  0  0  0  0  0  0  0  0  0
   59.9930   32.4350   51.3930 C   0  0  0  0  0  0  0  0  0  0  0  0
   59.6350   33.3110   50.2390 C   0  0  0  0  0  0  0  0  0  0  0  0
   60.8870   33.1030   49.4890 N   0  0  0  0  0  0  0  0  0  0  0  0
   61.4060   33.5630   48.2350 C   0  0  0  0  0  0  0  0  0  0  0  0
   60.6940   34.3510   47.5500 O   0  0  0  0  0  0  0  0  0  0  0  0
   62.7550   33.0900   47.6960 C   0  0  0  0  0  0  0  0  0  0  0  0
   63.0950   33.8220   46.3760 C   0  0  0  0  0  0  0  0  0  0  0  0
   62.6890   31.5780   47.4140 C   0  0  0  0  0  0  0  0  0  0  0  0
   63.8770   33.3840   48.7130 C   0  0  0  0  0  0  0  0  0  0  0  0
   61.2580   32.2390   50.6270 C   0  0  0  0  0  0  0  0  0  0  0  0
   59.7170   29.5320   49.8010 C   0  0  0  0  0  0  0  0  0  0  0  0
   59.0680   30.3540   48.7070 C   0  0  0  0  0  0  0  0  0  0  0  0
   58.7930   32.0270   46.2530 C   0  0  0  0  0  0  0  0  0  0  0  0
   58.2980   32.7300   45.1420 C   0  0  0  0  0  0  0  0  0  0  0  0
   58.1420   34.2340   45.1670 C   0  0  0  0  0  0  0  0  0  0  0  0
   58.1620   34.6780   46.4770 F   0  0  0  0  0  0  0  0  0  0  0  0
   59.1580   34.8660   44.4710 F   0  0  0  0  0  0  0  0  0  0  0  0
   56.9330   34.5840   44.5900 F   0  0  0  0  0  0  0  0  0  0  0  0
   58.5681   31.5450   41.5690 H   0  0  0  0  0  0  0  0  0  0  0  0
   56.9013   31.9244   41.0173 H   0  0  0  0  0  0  0  0  0  0  0  0
   58.1607   33.2052   41.0173 H   0  0  0  0  0  0  0  0  0  0  0  0
   58.6131   28.8573   45.0012 H   0  0  0  0  0  0  0  0  0  0  0  0
   60.3615   28.4735   46.1152 H   0  0  0  0  0  0  0  0  0  0  0  0
   61.4472   29.3057   47.2884 H   0  0  0  0  0  0  0  0  0  0  0  0
   59.2952   27.2263   47.9347 H   0  0  0  0  0  0  0  0  0  0  0  0
   61.0789   27.0044   48.0255 H   0  0  0  0  0  0  0  0  0  0  0  0
   61.1379   27.3281   52.6341 H   0  0  0  0  0  0  0  0  0  0  0  0
   59.9444   32.7533   52.4448 H   0  0  0  0  0  0  0  0  0  0  0  0
   58.7492   32.9535   49.6936 H   0  0  0  0  0  0  0  0  0  0  0  0
   59.3549   34.3500   50.4672 H   0  0  0  0  0  0  0  0  0  0  0  0
   63.5483   34.7979   46.6042 H   0  0  0  0  0  0  0  0  0  0  0  0
   63.8038   33.2159   45.7927 H   0  0  0  0  0  0  0  0  0  0  0  0
   62.1746   33.9726   45.7927 H   0  0  0  0  0  0  0  0  0  0  0  0
   62.6650   31.0281   48.3664 H   0  0  0  0  0  0  0  0  0  0  0  0
   61.7801   31.3519   46.8371 H   0  0  0  0  0  0  0  0  0  0  0  0
   63.5747   31.2736   46.8371 H   0  0  0  0  0  0  0  0  0  0  0  0
   63.4823   33.2806   49.7345 H   0  0  0  0  0  0  0  0  0  0  0  0
   64.7021   32.6717   48.5648 H   0  0  0  0  0  0  0  0  0  0  0  0
   64.2467   34.4093   48.5648 H   0  0  0  0  0  0  0  0  0  0  0  0
   61.4171   31.1916   50.3308 H   0  0  0  0  0  0  0  0  0  0  0  0
   62.1994   32.4712   51.1464 H   0  0  0  0  0  0  0  0  0  0  0  0
   57.9759   30.2832   48.8176 H   0  0  0  0  0  0  0  0  0  0  0  0
   59.4281   31.3876   48.8171 H   0  0  0  0  0  0  0  0  0  0  0  0
   59.0868   32.5769   47.1593 H   0  0  0  0  0  0  0  0  0  0  0  0
  1  2  1  0
  2  3  1  0
  3  4  2  0
  4  5  1  0
  5  6  2  0
  6  7  1  0
  7  8  1  0
  8  9  1  0
  9 10  1  0
 10 11  2  0
 11 12  1  0
 12 13  2  0
 13 14  1  0
 14 15  1  0
 15 16  1  0
 16 17  1  0
 17 18  1  0
 18 19  1  0
 19 20  2  0
 19 21  1  0
 21 22  1  0
 21 23  1  0
 21 24  1  0
 18 25  1  0
 14 26  2  0
 26 27  1  0
  6 28  1  0
 28 29  2  0
 29 30  1  0
 30 31  1  0
 30 32  1  0
 30 33  1  0
 29  3  1  0
 27  7  1  0
 26 10  1  0
 25 16  1  0
  1 34  1  0
  1 35  1  0
  1 36  1  0
  5 37  1  0
  8 38  1  0
  8 39  1  0
  9 40  1  0
  9 41  1  0
 12 42  1  0
 16 43  1  0
 17 44  1  0
 17 45  1  0
 22 46  1  0
 22 47  1  0
 22 48  1  0
 23 49  1  0
 23 50  1  0
 23 51  1  0
 24 52  1  0
 24 53  1  0
 24 54  1  0
 25 55  1  0
 25 56  1  0
 27 57  1  0
 27 58  1  0
 28 59  1  0
M  END
>  <UniqueID>  (37) 
36

>  <SMILES>  (37) 
COc1ncc(N2CCc3ncnc(OC4CN(C(=O)C(C)(C)C)C4)c3C2)cc1C(F)(F)F

>  <Energy>  (37) 
107.97119134914666

>  <Genealogy>  (37) 
COc1ncc(N2CCc3ncnc(OC4CN(C(=O)C(C)(C)C)C4)c3C2)cc1C(F)(F)F (3D coordinates assigned)
COc1ncc(N2CCc3ncnc(OC4CN(C(=O)C(C)(C)C)C4)c3C2)cc1C(F)(F)F (nonaromatic ring conformer: 107.97119134914666 kcal/mol)

>  <smiles>  (37) 
COc1ncc(N2CCc3ncnc(OC4CN(C(=O)C(C)(C)C)C4)c3C2)cc1C(F)(F)F

>  <score_type>  (37) 
oracle

>  <origin>  (37) 
adg

>  <m_score__min__energy>  (37) 
-8.2300000000000004

>  <m_primary>  (37) 
energy

$$$$
37:0
     RDKit          3D

 46 50  0  0  0  0  0  0  0  0999 V2000
   58.4030   22.0430   45.2050 C   0  0  0  0  0  0  0  0  0  0  0  0
   57.5150   22.9310   45.8770 O   0  0  0  0  0  0  0  0  0  0  0  0
   57.6790   24.3230   45.9670 C   0  0  0  0  0  0  0  0  0  0  0  0
   57.7560   24.9540   47.2210 C   0  0  0  0  0  0  0  0  0  0  0  0
   57.9180   26.3300   47.3160 C   0  0  0  0  0  0  0  0  0  0  0  0
   58.0260   27.1150   46.1660 C   0  0  0  0  0  0  0  0  0  0  0  0
   57.9400   26.5150   44.8940 C   0  0  0  0  0  0  0  0  0  0  0  0
   57.7660   25.1090   44.7860 C   0  0  0  0  0  0  0  0  0  0  0  0
   57.6780   24.5520   43.4940 O   0  0  0  0  0  0  0  0  0  0  0  0
   56.6530   23.7040   42.9900 C   0  0  0  0  0  0  0  0  0  0  0  0
   58.0530   27.3910   43.6930 C   0  0  0  0  0  0  0  0  0  0  0  0
   58.1380   26.8840   42.5410 O   0  0  0  0  0  0  0  0  0  0  0  0
   58.0340   28.8320   43.8160 N   0  0  1  0  0  0  0  0  0  0  0  0
   56.6460   29.3290   43.7320 C   0  0  0  0  0  0  0  0  0  0  0  0
   56.6160   30.8610   43.6410 C   0  0  0  0  0  0  0  0  0  0  0  0
   57.5760   31.5210   44.5960 C   0  0  0  0  0  0  0  0  0  0  0  0
   57.4800   32.9150   44.8010 C   0  0  0  0  0  0  0  0  0  0  0  0
   58.4220   33.5250   45.6220 C   0  0  0  0  0  0  0  0  0  0  0  0
   59.4220   32.8260   46.2100 C   0  0  0  0  0  0  0  0  0  0  0  0
   59.5680   31.4550   46.0320 C   0  0  0  0  0  0  0  0  0  0  0  0
   58.6370   30.7880   45.2050 C   0  0  0  0  0  0  0  0  0  0  0  0
   58.7200   29.2830   45.0510 C   0  0  1  0  0  0  0  0  0  0  0  0
   58.1590   28.6060   46.3210 C   0  0  0  0  0  0  0  0  0  0  0  0
   60.2030   33.6830   46.9620 O   0  0  0  0  0  0  0  0  0  0  0  0
   59.6590   35.0040   46.8340 C   0  0  0  0  0  0  0  0  0  0  0  0
   58.5240   34.8590   45.9700 O   0  0  0  0  0  0  0  0  0  0  0  0
   58.9776   21.4684   45.9464 H   0  0  0  0  0  0  0  0  0  0  0  0
   57.8235   21.3523   44.5748 H   0  0  0  0  0  0  0  0  0  0  0  0
   59.0937   22.6225   44.5748 H   0  0  0  0  0  0  0  0  0  0  0  0
   57.6871   24.3505   48.1381 H   0  0  0  0  0  0  0  0  0  0  0  0
   57.9617   26.8062   48.3066 H   0  0  0  0  0  0  0  0  0  0  0  0
   56.1057   23.2512   43.8299 H   0  0  0  0  0  0  0  0  0  0  0  0
   55.9578   24.2946   42.3752 H   0  0  0  0  0  0  0  0  0  0  0  0
   57.1029   22.9105   42.3752 H   0  0  0  0  0  0  0  0  0  0  0  0
   58.5680   29.2210   43.0000 H   0  0  0  0  0  0  0  0  0  0  0  0
   56.1657   28.9058   42.8374 H   0  0  0  0  0  0  0  0  0  0  0  0
   56.1073   29.0208   44.6402 H   0  0  0  0  0  0  0  0  0  0  0  0
   56.8809   31.1575   42.6154 H   0  0  0  0  0  0  0  0  0  0  0  0
   55.6015   31.1892   43.9113 H   0  0  0  0  0  0  0  0  0  0  0  0
   56.6816   33.5024   44.3241 H   0  0  0  0  0  0  0  0  0  0  0  0
   60.3854   30.9051   46.5213 H   0  0  0  0  0  0  0  0  0  0  0  0
   59.7727   28.9830   44.9421 H   0  0  0  0  0  0  0  0  0  0  0  0
   58.8374   28.8146   47.1614 H   0  0  0  0  0  0  0  0  0  0  0  0
   57.1541   29.0150   46.5027 H   0  0  0  0  0  0  0  0  0  0  0  0
   59.3497   35.3910   47.8161 H   0  0  0  0  0  0  0  0  0  0  0  0
   60.3951   35.7154   46.4313 H   0  0  0  0  0  0  0  0  0  0  0  0
  1  2  1  0
  2  3  1  0
  3  4  2  0
  4  5  1  0
  5  6  2  0
  6  7  1  0
  7  8  2  0
  8  9  1  0
  9 10  1  0
  7 11  1  0
 11 12  2  0
 11 13  1  0
 13 14  1  0
 14 15  1  0
 15 16  1  0
 16 17  2  0
 17 18  1  0
 18 19  2  0
 19 20  1  0
 20 21  2  0
 21 22  1  0
 22 23  1  0
 19 24  1  0
 24 25  1  0
 25 26  1  0
  8  3  1  0
 22 13  1  0
 23  6  1  0
 21 16  1  0
 26 18  1  0
  1 27  1  0
  1 28  1  0
  1 29  1  0
  4 30  1  0
  5 31  1  0
 10 32  1  0
 10 33  1  0
 10 34  1  0
 13 35  1  6
 14 36  1  0
 14 37  1  0
 15 38  1  0
 15 39  1  0
 17 40  1  0
 20 41  1  0
 22 42  1  6
 23 43  1  0
 23 44  1  0
 25 45  1  0
 25 46  1  0
M  CHG  1  13   1
M  END
>  <UniqueID>  (38) 
37

>  <SMILES>  (38) 
COc1ccc2c(c1OC)C(=O)[N@H+]1CCc3cc4c(cc3[C@H]1C2)OCO4

>  <Energy>  (38) 
91.60661879753401

>  <Genealogy>  (38) 
COc1ccc2c(c1OC)C(=O)[NH+]1CCc3cc4c(cc3C1C2)OCO4 (protonated)
COc1ccc2c(c1OC)C(=O)[N@H+]1CCc3cc4c(cc3[C@H]1C2)OCO4 (chirality)
COc1ccc2c(c1OC)C(=O)[N@H+]1CCc3cc4c(cc3[C@H]1C2)OCO4 (3D coordinates assigned)
COc1ccc2c(c1OC)C(=O)[N@H+]1CCc3cc4c(cc3[C@H]1C2)OCO4 (nonaromatic ring conformer: 91.60661879753401 kcal/mol)

>  <smiles>  (38) 
COc1ccc2c(c1OC)C(=O)N1CCc3cc4c(cc3C1C2)OCO4

>  <score_type>  (38) 
oracle

>  <origin>  (38) 
adg

>  <m_score__min__energy>  (38) 
-6.1299999999999999

>  <m_primary>  (38) 
energy

$$$$
38:0
     RDKit          3D

 22 23  0  0  0  0  0  0  0  0999 V2000
   60.9648   34.6629   48.5179 H   0  0  0  0  0  0  0  0  0  0  0  0
   60.1250   34.2640   47.9300 C   0  0  0  0  0  0  0  0  0  0  0  0
   59.6610   34.7820   46.3990 S   0  0  0  0  0  0  0  0  0  0  0  0
   58.3580   33.7280   46.2330 C   0  0  0  0  0  0  0  0  0  0  0  0
   57.4880   33.6090   45.0480 C   0  0  0  0  0  0  0  0  0  0  0  0
   56.6490   34.5150   44.8010 O   0  0  0  0  0  0  0  0  0  0  0  0
   57.5220   32.4470   44.2090 N   0  0  0  0  0  0  0  0  0  0  0  0
   57.1640   31.2530   44.5740 C   0  0  0  0  0  0  0  0  0  0  0  0
   55.8850   30.8280   44.4910 N   0  0  0  0  0  0  0  0  0  0  0  0
   55.7300   29.5630   44.8780 N   0  0  0  0  0  0  0  0  0  0  0  0
   56.8840   28.9780   45.2610 C   0  0  0  0  0  0  0  0  0  0  0  0
   56.9980   27.3180   45.8120 S   0  0  0  0  0  0  0  0  0  0  0  0
   57.7630   26.5070   44.8050 O   0  0  0  0  0  0  0  0  0  0  0  0
   57.7210   27.2770   47.1280 O   0  0  0  0  0  0  0  0  0  0  0  0
   55.4120   26.6580   46.0130 N   0  0  0  0  0  0  0  0  0  0  0  0
   54.7800   27.4520   46.2580 H   0  0  0  0  0  0  0  0  0  0  0  0
   55.1070   26.3060   45.0780 H   0  0  0  0  0  0  0  0  0  0  0  0
   58.1930   30.0300   45.1290 S   0  0  0  0  0  0  0  0  0  0  0  0
   58.2830   32.9400   47.3770 C   0  0  0  0  0  0  0  0  0  0  0  0
   57.5267   32.1546   47.5224 H   0  0  0  0  0  0  0  0  0  0  0  0
   59.2670   33.2470   48.3250 C   0  0  0  0  0  0  0  0  0  0  0  0
   59.3520   32.7304   49.2924 H   0  0  0  0  0  0  0  0  0  0  0  0
  1  2  1  0
  2  3  1  0
  3  4  1  0
  4  5  1  0
  5  6  2  0
  5  7  1  0
  7  8  2  0
  8  9  1  0
  9 10  1  0
 10 11  2  0
 11 12  1  0
 12 13  2  0
 12 14  2  0
 12 15  1  0
 15 16  1  0
 15 17  1  0
 11 18  1  0
  4 19  2  0
 19 20  1  0
 19 21  1  0
 21 22  1  0
 21  2  2  0
 18  8  1  0
M  CHG  1   9  -1
M  END
>  <UniqueID>  (39) 
38

>  <SMILES>  (39) 
NS(=O)(=O)c1n[n-]/c(=N/C(=O)c2cccs2)s1

>  <Energy>  (39) 
88.36062089198546

>  <Genealogy>  (39) 
NS(=O)(=O)c1n[n-]c(=NC(=O)c2cccs2)s1 (protonated)
NS(=O)(=O)c1n[n-]/c(=N/C(=O)c2cccs2)s1 (cis-trans isomerization)
NS(=O)(=O)c1n[n-]/c(=N/C(=O)c2cccs2)s1 (3D coordinates assigned)
NS(=O)(=O)c1n[n-]/c(=N/C(=O)c2cccs2)s1 (optimized conformer: 88.36062089198546 kcal/mol)

>  <smiles>  (39) 
NS(=O)(=O)c1n[nH]c(=NC(=O)c2cccs2)s1

>  <score_type>  (39) 
oracle

>  <origin>  (39) 
adg

>  <m_score__min__energy>  (39) 
-8.8399999999999999

>  <m_primary>  (39) 
energy

$$$$
39:0
     RDKit          3D

 57 59  0  0  0  0  0  0  0  0999 V2000
   63.2940   33.8490   46.3230 C   0  0  0  0  0  0  0  0  0  0  0  0
   62.7290   32.7010   46.9490 O   0  0  0  0  0  0  0  0  0  0  0  0
   63.0380   32.2680   48.2500 C   0  0  0  0  0  0  0  0  0  0  0  0
   64.0930   32.8400   48.9890 C   0  0  0  0  0  0  0  0  0  0  0  0
   64.3600   32.4120   50.2920 C   0  0  0  0  0  0  0  0  0  0  0  0
   63.5810   31.4120   50.8730 C   0  0  0  0  0  0  0  0  0  0  0  0
   62.5330   30.8340   50.1530 C   0  0  0  0  0  0  0  0  0  0  0  0
   62.2570   31.2470   48.8380 C   0  0  0  0  0  0  0  0  0  0  0  0
   61.1470   30.6090   48.0930 C   0  0  0  0  0  0  0  0  0  0  0  0
   61.2950   30.2770   46.7340 C   0  0  0  0  0  0  0  0  0  0  0  0
   60.2470   29.6670   46.0370 C   0  0  0  0  0  0  0  0  0  0  0  0
   59.0350   29.3810   46.6860 C   0  0  0  0  0  0  0  0  0  0  0  0
   57.8950   28.7370   45.9320 C   0  0  0  0  0  0  0  0  0  0  0  0
   56.9460   29.7350   45.4060 N   0  0  0  0  0  0  0  0  0  0  0  0
   56.8610   29.7300   43.9370 C   0  0  0  0  0  0  0  0  0  0  0  0
   56.9280   31.1540   43.3610 C   0  0  0  0  0  0  0  0  0  0  0  0
   58.0900   31.9770   43.9370 C   0  0  0  0  0  0  0  0  0  0  0  0
   57.6450   32.7450   45.1240 N   0  0  0  0  0  0  0  0  0  0  0  0
   57.5350   34.1990   44.8760 C   0  0  0  0  0  0  0  0  0  0  0  0
   58.9060   34.9090   44.8700 C   0  0  0  0  0  0  0  0  0  0  0  0
   59.7240   34.5900   46.0560 N   0  0  0  0  0  0  0  0  0  0  0  0
   59.2820   35.3210   47.2550 C   0  0  0  0  0  0  0  0  0  0  0  0
   59.8200   33.1340   46.2810 C   0  0  0  0  0  0  0  0  0  0  0  0
   58.4390   32.4620   46.3340 C   0  0  0  0  0  0  0  0  0  0  0  0
   58.8890   29.7070   48.0440 C   0  0  0  0  0  0  0  0  0  0  0  0
   59.9380   30.3120   48.7420 C   0  0  0  0  0  0  0  0  0  0  0  0
   63.6407   34.5534   47.0934 H   0  0  0  0  0  0  0  0  0  0  0  0
   64.1446   33.5434   45.6961 H   0  0  0  0  0  0  0  0  0  0  0  0
   62.5330   34.3366   45.6961 H   0  0  0  0  0  0  0  0  0  0  0  0
   64.7110   33.6295   48.5365 H   0  0  0  0  0  0  0  0  0  0  0  0
   65.1859   32.8646   50.8603 H   0  0  0  0  0  0  0  0  0  0  0  0
   63.7921   31.0780   51.8996 H   0  0  0  0  0  0  0  0  0  0  0  0
   61.9187   30.0493   50.6187 H   0  0  0  0  0  0  0  0  0  0  0  0
   62.2402   30.4984   46.2167 H   0  0  0  0  0  0  0  0  0  0  0  0
   60.3728   29.4099   44.9749 H   0  0  0  0  0  0  0  0  0  0  0  0
   58.3068   28.1606   45.0904 H   0  0  0  0  0  0  0  0  0  0  0  0
   57.3500   28.0863   46.6317 H   0  0  0  0  0  0  0  0  0  0  0  0
   57.2310   30.6900   45.7270 H   0  0  0  0  0  0  0  0  0  0  0  0
   57.6982   29.1418   43.5330 H   0  0  0  0  0  0  0  0  0  0  0  0
   55.8955   29.2880   43.6499 H   0  0  0  0  0  0  0  0  0  0  0  0
   57.0527   31.0860   42.2702 H   0  0  0  0  0  0  0  0  0  0  0  0
   55.9934   31.6654   43.6347 H   0  0  0  0  0  0  0  0  0  0  0  0
   58.9042   31.2978   44.2299 H   0  0  0  0  0  0  0  0  0  0  0  0
   58.4413   32.6818   43.1690 H   0  0  0  0  0  0  0  0  0  0  0  0
   57.0545   34.3537   43.8986 H   0  0  0  0  0  0  0  0  0  0  0  0
   56.9412   34.6312   45.6949 H   0  0  0  0  0  0  0  0  0  0  0  0
   59.4574   34.5995   43.9699 H   0  0  0  0  0  0  0  0  0  0  0  0
   58.7163   35.9924   44.8820 H   0  0  0  0  0  0  0  0  0  0  0  0
   59.6090   34.7803   48.1554 H   0  0  0  0  0  0  0  0  0  0  0  0
   59.7220   36.3292   47.2527 H   0  0  0  0  0  0  0  0  0  0  0  0
   58.1848   35.3997   47.2527 H   0  0  0  0  0  0  0  0  0  0  0  0
   60.4004   32.6864   45.4608 H   0  0  0  0  0  0  0  0  0  0  0  0
   60.3105   32.9743   47.2525 H   0  0  0  0  0  0  0  0  0  0  0  0
   58.5756   31.3742   46.4238 H   0  0  0  0  0  0  0  0  0  0  0  0
   57.8958   32.8654   47.2013 H   0  0  0  0  0  0  0  0  0  0  0  0
   57.9439   29.4850   48.5613 H   0  0  0  0  0  0  0  0  0  0  0  0
   59.8154   30.5572   49.8073 H   0  0  0  0  0  0  0  0  0  0  0  0
  1  2  1  0
  2  3  1  0
  3  4  2  0
  4  5  1  0
  5  6  2  0
  6  7  1  0
  7  8  2  0
  8  9  1  0
  9 10  2  0
 10 11  1  0
 11 12  2  0
 12 13  1  0
 13 14  1  0
 14 15  1  0
 15 16  1  0
 16 17  1  0
 17 18  1  0
 18 19  1  0
 19 20  1  0
 20 21  1  0
 21 22  1  0
 21 23  1  0
 23 24  1  0
 12 25  1  0
 25 26  2  0
  8  3  1  0
 26  9  1  0
 24 18  1  0
  1 27  1  0
  1 28  1  0
  1 29  1  0
  4 30  1  0
  5 31  1  0
  6 32  1  0
  7 33  1  0
 10 34  1  0
 11 35  1  0
 13 36  1  0
 13 37  1  0
 14 38  1  0
 15 39  1  0
 15 40  1  0
 16 41  1  0
 16 42  1  0
 17 43  1  0
 17 44  1  0
 19 45  1  0
 19 46  1  0
 20 47  1  0
 20 48  1  0
 22 49  1  0
 22 50  1  0
 22 51  1  0
 23 52  1  0
 23 53  1  0
 24 54  1  0
 24 55  1  0
 25 56  1  0
 26 57  1  0
M  END
>  <UniqueID>  (40) 
39

>  <SMILES>  (40) 
COc1ccccc1-c1ccc(CNCCCN2CCN(C)CC2)cc1

>  <Energy>  (40) 
68.59483541632113

>  <Genealogy>  (40) 
COc1ccccc1-c1ccc(CNCCCN2CCN(C)CC2)cc1 (3D coordinates assigned)
COc1ccccc1-c1ccc(CNCCCN2CCN(C)CC2)cc1 (nonaromatic ring conformer: 68.59483541632113 kcal/mol)

>  <smiles>  (40) 
COc1ccccc1-c1ccc(CNCCCN2CCN(C)CC2)cc1

>  <score_type>  (40) 
oracle

>  <origin>  (40) 
adg

>  <m_score__min__energy>  (40) 
-7.4400000000000004

>  <m_primary>  (40) 
energy

$$$$
40:0
     RDKit          3D

 24 25  0  0  0  0  0  0  0  0999 V2000
   56.5120   24.1324   46.7040 H   0  0  0  0  0  0  0  0  0  0  0  0
   56.9390   25.1020   46.4080 C   0  0  0  0  0  0  0  0  0  0  0  0
   58.3370   25.2850   46.4260 C   0  0  0  0  0  0  0  0  0  0  0  0
   58.9925   24.4576   46.7354 H   0  0  0  0  0  0  0  0  0  0  0  0
   58.8970   26.5150   46.0520 C   0  0  0  0  0  0  0  0  0  0  0  0
   59.9863   26.6675   46.0643 H   0  0  0  0  0  0  0  0  0  0  0  0
   58.0360   27.5370   45.6650 C   0  0  0  0  0  0  0  0  0  0  0  0
   58.4170   29.0950   45.1780 S   0  0  0  0  0  0  0  0  0  0  0  0
   56.7820   29.4980   44.9430 C   0  0  0  0  0  0  0  0  0  0  0  0
   56.3130   30.6550   44.5730 N   0  0  0  0  0  0  0  0  0  0  0  0
   56.9890   31.9230   44.4940 C   0  0  0  0  0  0  0  0  0  0  0  0
   56.7140   32.8030   45.3510 O   0  0  0  0  0  0  0  0  0  0  0  0
   57.9690   32.2610   43.4120 C   0  0  0  0  0  0  0  0  0  0  0  0
   58.9167   32.5879   43.8647 H   0  0  0  0  0  0  0  0  0  0  0  0
   58.1477   31.3726   42.7885 H   0  0  0  0  0  0  0  0  0  0  0  0
   57.5620   33.0707   42.7885 H   0  0  0  0  0  0  0  0  0  0  0  0
   55.9580   28.4670   45.2450 N   0  0  0  0  0  0  0  0  0  0  0  0
   56.6590   27.3740   45.6420 C   0  0  0  0  0  0  0  0  0  0  0  0
   56.0800   26.1560   46.0120 C   0  0  0  0  0  0  0  0  0  0  0  0
   54.6840   26.0240   45.9790 O   0  0  0  0  0  0  0  0  0  0  0  0
   54.0010   24.8280   45.6190 C   0  0  0  0  0  0  0  0  0  0  0  0
   53.6950   24.2922   46.5297 H   0  0  0  0  0  0  0  0  0  0  0  0
   53.1102   25.0792   45.0246 H   0  0  0  0  0  0  0  0  0  0  0  0
   54.6700   24.1884   45.0246 H   0  0  0  0  0  0  0  0  0  0  0  0
  1  2  1  0
  2  3  2  0
  3  4  1  0
  3  5  1  0
  5  6  1  0
  5  7  2  0
  7  8  1  0
  8  9  1  0
  9 10  2  0
 10 11  1  0
 11 12  2  0
 11 13  1  0
 13 14  1  0
 13 15  1  0
 13 16  1  0
  9 17  1  0
 17 18  1  0
 18 19  2  0
 19 20  1  0
 20 21  1  0
 21 22  1  0
 21 23  1  0
 21 24  1  0
 19  2  1  0
 18  7  1  0
M  CHG  1  17  -1
M  END
>  <UniqueID>  (41) 
40

>  <SMILES>  (41) 
COc1cccc2s/c(=N\C(C)=O)[n-]c12

>  <Energy>  (41) 
62.94047683517205

>  <Genealogy>  (41) 
COc1cccc2sc(=NC(C)=O)[n-]c12 (protonated)
COc1cccc2s/c(=N\C(C)=O)[n-]c12 (cis-trans isomerization)
COc1cccc2s/c(=N\C(C)=O)[n-]c12 (3D coordinates assigned)
COc1cccc2s/c(=N\C(C)=O)[n-]c12 (optimized conformer: 62.94047683517205 kcal/mol)

>  <smiles>  (41) 
COc1cccc2sc(=NC(C)=O)[nH]c12

>  <score_type>  (41) 
oracle

>  <origin>  (41) 
adg

>  <m_score__min__energy>  (41) 
-8.1999999999999993

>  <m_primary>  (41) 
energy

$$$$
41:0
     RDKit          3D

 40 42  0  0  0  0  0  0  0  0999 V2000
   56.1830   24.9090   46.7940 O   0  0  0  0  0  0  0  0  0  0  0  0
   55.9060   26.0470   46.3260 C   0  0  0  0  0  0  0  0  0  0  0  0
   54.5870   26.3380   45.9920 O   0  0  0  0  0  0  0  0  0  0  0  0
   56.9670   27.0580   46.1270 C   0  0  0  0  0  0  0  0  0  0  0  0
   58.2280   26.8870   46.7160 C   0  0  0  0  0  0  0  0  0  0  0  0
   59.2310   27.8400   46.5340 C   0  0  0  0  0  0  0  0  0  0  0  0
   59.0030   28.9920   45.7570 C   0  0  0  0  0  0  0  0  0  0  0  0
   60.1130   29.8780   45.4760 N   0  0  0  0  0  0  0  0  0  0  0  0
   60.3560   30.7280   46.6170 C   0  0  0  0  0  0  0  0  0  0  0  0
   61.1020   30.2560   47.7110 C   0  0  0  0  0  0  0  0  0  0  0  0
   61.3190   31.0700   48.8270 C   0  0  0  0  0  0  0  0  0  0  0  0
   60.8060   32.3800   48.8610 C   0  0  0  0  0  0  0  0  0  0  0  0
   60.9820   33.2250   49.9680 O   0  0  0  0  0  0  0  0  0  0  0  0
   60.1390   33.3050   51.0870 C   0  0  0  0  0  0  0  0  0  0  0  0
   60.6760   33.7680   52.2960 C   0  0  0  0  0  0  0  0  0  0  0  0
   59.8750   33.8520   53.4390 C   0  0  0  0  0  0  0  0  0  0  0  0
   58.5340   33.4590   53.3850 C   0  0  0  0  0  0  0  0  0  0  0  0
   57.9940   32.9750   52.1890 C   0  0  0  0  0  0  0  0  0  0  0  0
   58.7930   32.8890   51.0440 C   0  0  0  0  0  0  0  0  0  0  0  0
   60.0450   32.8440   47.7830 C   0  0  0  0  0  0  0  0  0  0  0  0
   59.8190   32.0270   46.6700 C   0  0  0  0  0  0  0  0  0  0  0  0
   57.7230   29.1810   45.1740 C   0  0  0  0  0  0  0  0  0  0  0  0
   57.4050   30.3640   44.4230 N   0  0  0  0  0  0  0  0  0  0  0  0
   56.2830   30.8980   44.5470 O   0  0  0  0  0  0  0  0  0  0  0  0
   58.4090   31.0640   43.7940 O   0  0  0  0  0  0  0  0  0  0  0  0
   56.7270   28.2050   45.3530 C   0  0  0  0  0  0  0  0  0  0  0  0
   58.4282   25.9942   47.3266 H   0  0  0  0  0  0  0  0  0  0  0  0
   60.2139   27.6891   47.0043 H   0  0  0  0  0  0  0  0  0  0  0  0
   59.8890   30.4580   44.6340 H   0  0  0  0  0  0  0  0  0  0  0  0
   60.9860   29.3580   45.2440 H   0  0  0  0  0  0  0  0  0  0  0  0
   61.5184   29.2381   47.6889 H   0  0  0  0  0  0  0  0  0  0  0  0
   61.8934   30.6846   49.6823 H   0  0  0  0  0  0  0  0  0  0  0  0
   61.7334   34.0669   52.3459 H   0  0  0  0  0  0  0  0  0  0  0  0
   60.3000   34.2275   54.3815 H   0  0  0  0  0  0  0  0  0  0  0  0
   57.9036   33.5306   54.2836 H   0  0  0  0  0  0  0  0  0  0  0  0
   56.9403   32.6618   52.1487 H   0  0  0  0  0  0  0  0  0  0  0  0
   58.3698   32.4958   50.1079 H   0  0  0  0  0  0  0  0  0  0  0  0
   59.6211   33.8587   47.8105 H   0  0  0  0  0  0  0  0  0  0  0  0
   59.2168   32.4033   45.8299 H   0  0  0  0  0  0  0  0  0  0  0  0
   55.7438   28.3420   44.8791 H   0  0  0  0  0  0  0  0  0  0  0  0
  1  2  2  0
  2  3  1  0
  2  4  1  0
  4  5  2  0
  5  6  1  0
  6  7  2  0
  7  8  1  0
  8  9  1  0
  9 10  2  0
 10 11  1  0
 11 12  2  0
 12 13  1  0
 13 14  1  0
 14 15  2  0
 15 16  1  0
 16 17  2  0
 17 18  1  0
 18 19  2  0
 12 20  1  0
 20 21  2  0
  7 22  1  0
 22 23  1  0
 23 24  2  0
 23 25  1  0
 22 26  2  0
 26  4  1  0
 21  9  1  0
 19 14  1  0
  5 27  1  0
  6 28  1  0
  8 29  1  0
  8 30  1  0
 10 31  1  0
 11 32  1  0
 15 33  1  0
 16 34  1  0
 17 35  1  0
 18 36  1  0
 19 37  1  0
 20 38  1  0
 21 39  1  0
 26 40  1  0
M  CHG  4   3  -1   8   1  23   1  25  -1
M  END
>  <UniqueID>  (42) 
41

>  <SMILES>  (42) 
O=C([O-])c1ccc([NH2+]c2ccc(Oc3ccccc3)cc2)c([N+](=O)[O-])c1

>  <Energy>  (42) 
59.70069661697869

>  <Genealogy>  (42) 
O=C([O-])c1ccc([NH2+]c2ccc(Oc3ccccc3)cc2)c([N+](=O)[O-])c1 (protonated)
O=C([O-])c1ccc([NH2+]c2ccc(Oc3ccccc3)cc2)c([N+](=O)[O-])c1 (3D coordinates assigned)
O=C([O-])c1ccc([NH2+]c2ccc(Oc3ccccc3)cc2)c([N+](=O)[O-])c1 (optimized conformer: 59.70069661697869 kcal/mol)

>  <smiles>  (42) 
O=C(O)c1ccc(Nc2ccc(Oc3ccccc3)cc2)c([N+](=O)[O-])c1

>  <score_type>  (42) 
oracle

>  <origin>  (42) 
adg

>  <m_score__min__energy>  (42) 
-8.4499999999999993

>  <m_primary>  (42) 
energy

$$$$
42:0
     RDKit          3D

 64 67  0  0  0  0  0  0  0  0999 V2000
   58.5090   30.2310   50.1260 C   0  0  0  0  0  0  0  0  0  0  0  0
   59.5630   30.8820   50.9260 N   0  0  0  0  0  0  0  0  0  0  0  0
   60.6360   29.9260   51.2460 C   0  0  0  0  0  0  0  0  0  0  0  0
   59.0270   31.5900   52.1210 C   0  0  0  0  0  0  0  0  0  0  0  0
   59.4240   33.0840   52.2530 C   0  0  0  0  0  0  0  0  0  0  0  0
   59.3750   33.8700   50.9240 C   0  0  0  0  0  0  0  0  0  0  0  0
   60.5220   33.5030   50.0660 N   0  0  0  0  0  0  0  0  0  0  0  0
   61.7640   33.2770   50.8500 C   0  0  0  0  0  0  0  0  0  0  0  0
   63.0570   33.4710   50.0190 C   0  0  0  0  0  0  0  0  0  0  0  0
   62.8740   33.2440   48.5680 N   0  0  0  0  0  0  0  0  0  0  0  0
   63.2010   31.8860   48.0810 C   0  0  0  0  0  0  0  0  0  0  0  0
   62.1440   31.2870   47.1190 C   0  0  0  0  0  0  0  0  0  0  0  0
   60.9860   30.6250   47.8890 C   0  0  0  0  0  0  0  0  0  0  0  0
   59.8070   30.3850   47.0380 N   0  0  0  0  0  0  0  0  0  0  0  0
   58.9720   31.4900   46.6230 C   0  0  0  0  0  0  0  0  0  0  0  0
   58.7350   32.5890   47.4710 C   0  0  0  0  0  0  0  0  0  0  0  0
   57.8050   33.5690   47.1130 C   0  0  0  0  0  0  0  0  0  0  0  0
   57.0880   33.4560   45.9190 C   0  0  0  0  0  0  0  0  0  0  0  0
   57.3160   32.3750   45.0670 C   0  0  0  0  0  0  0  0  0  0  0  0
   58.2610   31.4010   45.4110 C   0  0  0  0  0  0  0  0  0  0  0  0
   58.6330   30.0700   44.2690 S   0  0  0  0  0  0  0  0  0  0  0  0
   58.6220   28.8170   45.5560 C   0  0  0  0  0  0  0  0  0  0  0  0
   57.9870   27.5920   45.3340 C   0  0  0  0  0  0  0  0  0  0  0  0
   58.0490   26.5870   46.3010 C   0  0  0  0  0  0  0  0  0  0  0  0
   58.7360   26.8090   47.4980 C   0  0  0  0  0  0  0  0  0  0  0  0
   59.3520   28.0410   47.7350 C   0  0  0  0  0  0  0  0  0  0  0  0
   59.3110   29.0550   46.7620 C   0  0  0  0  0  0  0  0  0  0  0  0
   61.6680   33.8470   47.9540 C   0  0  0  0  0  0  0  0  0  0  0  0
   60.7380   34.4790   48.9880 C   0  0  0  0  0  0  0  0  0  0  0  0
   57.7683   29.7735   50.7983 H   0  0  0  0  0  0  0  0  0  0  0  0
   58.0143   30.9811   49.4915 H   0  0  0  0  0  0  0  0  0  0  0  0
   58.9582   29.4528   49.4915 H   0  0  0  0  0  0  0  0  0  0  0  0
   59.9910   31.6200   50.3150 H   0  0  0  0  0  0  0  0  0  0  0  0
   60.7349   29.8379   52.3380 H   0  0  0  0  0  0  0  0  0  0  0  0
   60.3899   28.9423   50.8195 H   0  0  0  0  0  0  0  0  0  0  0  0
   61.5848   30.2835   50.8195 H   0  0  0  0  0  0  0  0  0  0  0  0
   57.9291   31.5343   52.0824 H   0  0  0  0  0  0  0  0  0  0  0  0
   59.4693   31.0845   52.9921 H   0  0  0  0  0  0  0  0  0  0  0  0
   58.7341   33.5632   52.9633 H   0  0  0  0  0  0  0  0  0  0  0  0
   60.4691   33.1052   52.5954 H   0  0  0  0  0  0  0  0  0  0  0  0
   58.4384   33.6341   50.3976 H   0  0  0  0  0  0  0  0  0  0  0  0
   59.4238   34.9467   51.1440 H   0  0  0  0  0  0  0  0  0  0  0  0
   61.7798   33.9858   51.6910 H   0  0  0  0  0  0  0  0  0  0  0  0
   61.7490   32.2309   51.1898 H   0  0  0  0  0  0  0  0  0  0  0  0
   63.4129   34.5013   50.1667 H   0  0  0  0  0  0  0  0  0  0  0  0
   63.7803   32.7211   50.3719 H   0  0  0  0  0  0  0  0  0  0  0  0
   64.1638   31.9317   47.5510 H   0  0  0  0  0  0  0  0  0  0  0  0
   63.2328   31.2314   48.9645 H   0  0  0  0  0  0  0  0  0  0  0  0
   61.7389   32.0919   46.4881 H   0  0  0  0  0  0  0  0  0  0  0  0
   62.6345   30.5162   46.5064 H   0  0  0  0  0  0  0  0  0  0  0  0
   61.3340   29.6614   48.2896 H   0  0  0  0  0  0  0  0  0  0  0  0
   60.6836   31.3118   48.6933 H   0  0  0  0  0  0  0  0  0  0  0  0
   59.2845   32.6766   48.4199 H   0  0  0  0  0  0  0  0  0  0  0  0
   57.6369   34.4324   47.7736 H   0  0  0  0  0  0  0  0  0  0  0  0
   56.3433   34.2198   45.6506 H   0  0  0  0  0  0  0  0  0  0  0  0
   56.7537   32.2880   44.1256 H   0  0  0  0  0  0  0  0  0  0  0  0
   57.4379   27.4195   44.3966 H   0  0  0  0  0  0  0  0  0  0  0  0
   57.5569   25.6198   46.1209 H   0  0  0  0  0  0  0  0  0  0  0  0
   58.7919   26.0126   48.2548 H   0  0  0  0  0  0  0  0  0  0  0  0
   59.8718   28.2182   48.6881 H   0  0  0  0  0  0  0  0  0  0  0  0
   61.9853   34.6243   47.2433 H   0  0  0  0  0  0  0  0  0  0  0  0
   61.1111   33.0422   47.4517 H   0  0  0  0  0  0  0  0  0  0  0  0
   61.1995   35.3900   49.3969 H   0  0  0  0  0  0  0  0  0  0  0  0
   59.7791   34.7504   48.5223 H   0  0  0  0  0  0  0  0  0  0  0  0
  1  2  1  0
  2  3  1  0
  2  4  1  0
  4  5  1  0
  5  6  1  0
  6  7  1  0
  7  8  1  0
  8  9  1  0
  9 10  1  0
 10 11  1  0
 11 12  1  0
 12 13  1  0
 13 14  1  0
 14 15  1  0
 15 16  2  0
 16 17  1  0
 17 18  2  0
 18 19  1  0
 19 20  2  0
 20 21  1  0
 21 22  1  0
 22 23  2  0
 23 24  1  0
 24 25  2  0
 25 26  1  0
 26 27  2  0
 10 28  1  0
 28 29  1  0
 29  7  1  0
 27 14  1  0
 20 15  1  0
 27 22  1  0
  1 30  1  0
  1 31  1  0
  1 32  1  0
  2 33  1  0
  3 34  1  0
  3 35  1  0
  3 36  1  0
  4 37  1  0
  4 38  1  0
  5 39  1  0
  5 40  1  0
  6 41  1  0
  6 42  1  0
  8 43  1  0
  8 44  1  0
  9 45  1  0
  9 46  1  0
 11 47  1  0
 11 48  1  0
 12 49  1  0
 12 50  1  0
 13 51  1  0
 13 52  1  0
 16 53  1  0
 17 54  1  0
 18 55  1  0
 19 56  1  0
 23 57  1  0
 24 58  1  0
 25 59  1  0
 26 60  1  0
 28 61  1  0
 28 62  1  0
 29 63  1  0
 29 64  1  0
M  CHG  1   2   1
M  END
>  <UniqueID>  (43) 
42

>  <SMILES>  (43) 
C[NH+](C)CCCN1CCN(CCCN2c3ccccc3Sc3ccccc32)CC1

>  <Energy>  (43) 
102.30058244389204

>  <Genealogy>  (43) 
C[NH+](C)CCCN1CCN(CCCN2c3ccccc3Sc3ccccc32)CC1 (protonated)
C[NH+](C)CCCN1CCN(CCCN2c3ccccc3Sc3ccccc32)CC1 (3D coordinates assigned)
C[NH+](C)CCCN1CCN(CCCN2c3ccccc3Sc3ccccc32)CC1 (nonaromatic ring conformer: 102.30058244389204 kcal/mol)

>  <smiles>  (43) 
CN(C)CCCN1CCN(CCCN2c3ccccc3Sc3ccccc32)CC1

>  <score_type>  (43) 
oracle

>  <origin>  (43) 
adg

>  <m_score__min__energy>  (43) 
-7.4100000000000001

>  <m_primary>  (43) 
energy

$$$$
43:0
     RDKit          3D

 29 30  0  0  0  0  0  0  0  0999 V2000
   58.3980   32.6200   41.2550 C   0  0  0  0  0  0  0  0  0  0  0  0
   57.0280   31.9670   41.4080 C   0  0  0  0  0  0  0  0  0  0  0  0
   56.9410   31.2620   42.6860 N   0  0  0  0  0  0  0  0  0  0  0  0
   56.5290   29.8810   42.8510 C   0  0  0  0  0  0  0  0  0  0  0  0
   56.6290   29.6480   44.3670 C   0  0  0  0  0  0  0  0  0  0  0  0
   57.1200   30.9070   44.9180 N   0  0  0  0  0  0  0  0  0  0  0  0
   57.2910   31.7600   43.9660 C   0  0  0  0  0  0  0  0  0  0  0  0
   57.7530   33.1020   44.1960 N   0  0  0  0  0  0  0  0  0  0  0  0
   58.2990   33.5620   45.4450 C   0  0  0  0  0  0  0  0  0  0  0  0
   59.2570   34.5890   45.4390 C   0  0  0  0  0  0  0  0  0  0  0  0
   59.8190   35.0370   46.6380 C   0  0  0  0  0  0  0  0  0  0  0  0
   59.4430   34.4530   47.8500 C   0  0  0  0  0  0  0  0  0  0  0  0
   58.5100   33.4140   47.8640 C   0  0  0  0  0  0  0  0  0  0  0  0
   57.9440   32.9620   46.6680 C   0  0  0  0  0  0  0  0  0  0  0  0
   58.8212   32.8217   42.2501 H   0  0  0  0  0  0  0  0  0  0  0  0
   59.0668   31.9438   40.7023 H   0  0  0  0  0  0  0  0  0  0  0  0
   58.2939   33.5653   40.7023 H   0  0  0  0  0  0  0  0  0  0  0  0
   56.2497   32.7433   41.3682 H   0  0  0  0  0  0  0  0  0  0  0  0
   56.8828   31.2451   40.5908 H   0  0  0  0  0  0  0  0  0  0  0  0
   55.4970   29.7351   42.4992 H   0  0  0  0  0  0  0  0  0  0  0  0
   57.1472   29.1801   42.2709 H   0  0  0  0  0  0  0  0  0  0  0  0
   55.6415   29.4033   44.7853 H   0  0  0  0  0  0  0  0  0  0  0  0
   57.2946   28.8065   44.6098 H   0  0  0  0  0  0  0  0  0  0  0  0
   57.6080   33.8080   43.4430 H   0  0  0  0  0  0  0  0  0  0  0  0
   59.5666   35.0431   44.4861 H   0  0  0  0  0  0  0  0  0  0  0  0
   60.5588   35.8510   46.6271 H   0  0  0  0  0  0  0  0  0  0  0  0
   59.8816   34.8114   48.7930 H   0  0  0  0  0  0  0  0  0  0  0  0
   58.2197   32.9501   48.8182 H   0  0  0  0  0  0  0  0  0  0  0  0
   57.2190   32.1349   46.6828 H   0  0  0  0  0  0  0  0  0  0  0  0
  1  2  1  0
  2  3  1  0
  3  4  1  0
  4  5  1  0
  5  6  1  0
  6  7  2  0
  7  8  1  0
  8  9  1  0
  9 10  2  0
 10 11  1  0
 11 12  2  0
 12 13  1  0
 13 14  2  0
  7  3  1  0
 14  9  1  0
  1 15  1  0
  1 16  1  0
  1 17  1  0
  2 18  1  0
  2 19  1  0
  4 20  1  0
  4 21  1  0
  5 22  1  0
  5 23  1  0
  8 24  1  0
 10 25  1  0
 11 26  1  0
 12 27  1  0
 13 28  1  0
 14 29  1  0
M  END
>  <UniqueID>  (44) 
43

>  <SMILES>  (44) 
CCN1CCN=C1Nc1ccccc1

>  <Energy>  (44) 
39.84765438494012

>  <Genealogy>  (44) 
CCN1CCN=C1Nc1ccccc1 (3D coordinates assigned)
CCN1CCN=C1Nc1ccccc1 (nonaromatic ring conformer: 39.84765438494012 kcal/mol)

>  <smiles>  (44) 
CCN1CCN=C1Nc1ccccc1

>  <score_type>  (44) 
oracle

>  <origin>  (44) 
adg

>  <m_score__min__energy>  (44) 
-5.8700000000000001

>  <m_primary>  (44) 
energy

$$$$
44:0
     RDKit          3D

 50 54  0  0  0  0  0  0  0  0999 V2000
   58.7610   21.4650   52.4500 C   0  0  0  0  0  0  0  0  0  0  0  0
   58.1690   20.3760   51.7510 O   0  0  0  0  0  0  0  0  0  0  0  0
   57.5920   20.4740   50.4760 C   0  0  0  0  0  0  0  0  0  0  0  0
   56.5140   21.3480   50.2980 C   0  0  0  0  0  0  0  0  0  0  0  0
   55.9060   21.4820   49.0470 C   0  0  0  0  0  0  0  0  0  0  0  0
   56.3690   20.7390   47.9510 C   0  0  0  0  0  0  0  0  0  0  0  0
   55.7280   20.9060   46.5950 C   0  0  0  0  0  0  0  0  0  0  0  0
   55.3820   22.3240   46.3560 N   0  0  0  0  0  0  0  0  0  0  0  0
   56.3580   23.2920   46.4130 C   0  0  0  0  0  0  0  0  0  0  0  0
   57.5500   22.9730   46.6870 O   0  0  0  0  0  0  0  0  0  0  0  0
   56.0530   24.6440   46.1560 C   0  0  0  0  0  0  0  0  0  0  0  0
   57.1070   25.6850   46.2190 C   0  0  0  0  0  0  0  0  0  0  0  0
   58.1870   25.4350   46.8970 N   0  0  0  0  0  0  0  0  0  0  0  0
   59.4930   26.5490   47.0530 S   0  0  0  0  0  0  0  0  0  0  0  0
   59.7460   26.8260   48.5080 O   0  0  0  0  0  0  0  0  0  0  0  0
   60.7230   25.9770   46.4060 O   0  0  0  0  0  0  0  0  0  0  0  0
   59.0250   28.0180   46.2450 C   0  0  0  0  0  0  0  0  0  0  0  0
   59.8710   29.1350   46.2690 C   0  0  0  0  0  0  0  0  0  0  0  0
   59.4970   30.3090   45.6100 C   0  0  0  0  0  0  0  0  0  0  0  0
   58.2810   30.3670   44.9250 C   0  0  0  0  0  0  0  0  0  0  0  0
   57.4380   29.2520   44.8980 C   0  0  0  0  0  0  0  0  0  0  0  0
   57.8010   28.0670   45.5610 C   0  0  0  0  0  0  0  0  0  0  0  0
   56.9150   26.9320   45.5170 N   0  0  0  0  0  0  0  0  0  0  0  0
   54.7320   24.9980   45.8450 C   0  0  0  0  0  0  0  0  0  0  0  0
   54.4000   26.3340   45.6260 O   0  0  0  0  0  0  0  0  0  0  0  0
   53.7440   24.0100   45.7750 C   0  0  0  0  0  0  0  0  0  0  0  0
   52.4130   24.3230   45.4540 C   0  0  0  0  0  0  0  0  0  0  0  0
   51.4530   23.3140   45.3930 C   0  0  0  0  0  0  0  0  0  0  0  0
   51.8280   21.9970   45.6560 C   0  0  0  0  0  0  0  0  0  0  0  0
   53.1180   21.7080   45.9680 N   0  0  0  0  0  0  0  0  0  0  0  0
   54.0890   22.6640   46.0360 C   0  0  0  0  0  0  0  0  0  0  0  0
   57.4490   19.8600   48.1260 C   0  0  0  0  0  0  0  0  0  0  0  0
   58.0580   19.7280   49.3770 C   0  0  0  0  0  0  0  0  0  0  0  0
   58.6702   21.2980   53.5335 H   0  0  0  0  0  0  0  0  0  0  0  0
   59.8243   21.5404   52.1784 H   0  0  0  0  0  0  0  0  0  0  0  0
   58.2461   22.3983   52.1784 H   0  0  0  0  0  0  0  0  0  0  0  0
   56.1417   21.9350   51.1506 H   0  0  0  0  0  0  0  0  0  0  0  0
   55.0600   22.1737   48.9210 H   0  0  0  0  0  0  0  0  0  0  0  0
   56.4307   20.5691   45.8186 H   0  0  0  0  0  0  0  0  0  0  0  0
   54.8075   20.3048   46.5605 H   0  0  0  0  0  0  0  0  0  0  0  0
   60.8295   29.0875   46.8066 H   0  0  0  0  0  0  0  0  0  0  0  0
   60.1596   31.1868   45.6306 H   0  0  0  0  0  0  0  0  0  0  0  0
   57.9863   31.2911   44.4062 H   0  0  0  0  0  0  0  0  0  0  0  0
   56.4834   29.3025   44.3538 H   0  0  0  0  0  0  0  0  0  0  0  0
   56.0620   27.0150   44.9180 H   0  0  0  0  0  0  0  0  0  0  0  0
   52.1277   25.3657   45.2505 H   0  0  0  0  0  0  0  0  0  0  0  0
   50.4099   23.5544   45.1399 H   0  0  0  0  0  0  0  0  0  0  0  0
   51.0794   21.1923   45.6108 H   0  0  0  0  0  0  0  0  0  0  0  0
   57.8184   19.2714   47.2733 H   0  0  0  0  0  0  0  0  0  0  0  0
   58.9053   19.0380   49.5034 H   0  0  0  0  0  0  0  0  0  0  0  0
  1  2  1  0
  2  3  1  0
  3  4  2  0
  4  5  1  0
  5  6  2  0
  6  7  1  0
  7  8  1  0
  8  9  1  0
  9 10  2  0
  9 11  1  0
 11 12  1  0
 12 13  2  0
 13 14  1  0
 14 15  2  0
 14 16  2  0
 14 17  1  0
 17 18  2  0
 18 19  1  0
 19 20  2  0
 20 21  1  0
 21 22  2  0
 22 23  1  0
 11 24  2  0
 24 25  1  0
 24 26  1  0
 26 27  2  0
 27 28  1  0
 28 29  2  0
 29 30  1  0
 30 31  2  0
  6 32  1  0
 32 33  2  0
 33  3  1  0
 31  8  1  0
 23 12  1  0
 31 26  1  0
 22 17  1  0
  1 34  1  0
  1 35  1  0
  1 36  1  0
  4 37  1  0
  5 38  1  0
  7 39  1  0
  7 40  1  0
 18 41  1  0
 19 42  1  0
 20 43  1  0
 21 44  1  0
 23 45  1  0
 27 46  1  0
 28 47  1  0
 29 48  1  0
 32 49  1  0
 33 50  1  0
M  CHG  1  25  -1
M  END
>  <UniqueID>  (45) 
44

>  <SMILES>  (45) 
COc1ccc(Cn2c(=O)c(C3=NS(=O)(=O)c4ccccc4N3)c([O-])c3cccnc32)cc1

>  <Energy>  (45) 
75.83090109920175

>  <Genealogy>  (45) 
COc1ccc(Cn2c(=O)c(C3=NS(=O)(=O)c4ccccc4N3)c([O-])c3cccnc32)cc1 (protonated)
COc1ccc(Cn2c(=O)c(C3=NS(=O)(=O)c4ccccc4N3)c([O-])c3cccnc32)cc1 (3D coordinates assigned)
COc1ccc(Cn2c(=O)c(C3=NS(=O)(=O)c4ccccc4N3)c([O-])c3cccnc32)cc1 (nonaromatic ring conformer: 75.83090109920175 kcal/mol)

>  <smiles>  (45) 
COc1ccc(Cn2c(=O)c(C3=NS(=O)(=O)c4ccccc4N3)c(O)c3cccnc32)cc1

>  <score_type>  (45) 
oracle

>  <origin>  (45) 
adg

>  <m_score__min__energy>  (45) 
-10.300000000000001

>  <m_primary>  (45) 
energy

$$$$
45:0
     RDKit          3D

 54 57  0  0  0  0  0  0  0  0999 V2000
   57.3570   24.8510   43.9270 C   0  0  0  0  0  0  0  0  0  0  0  0
   58.1090   24.9770   45.2470 C   0  0  0  0  0  0  0  0  0  0  0  0
   57.2600   25.5120   46.2610 O   0  0  0  0  0  0  0  0  0  0  0  0
   56.4390   26.6290   46.0680 C   0  0  0  0  0  0  0  0  0  0  0  0
   55.1850   26.5100   46.0250 O   0  0  0  0  0  0  0  0  0  0  0  0
   57.0620   27.9860   45.9250 C   0  0  0  0  0  0  0  0  0  0  0  0
   57.1300   28.3960   44.5040 N   0  0  0  0  0  0  0  0  0  0  0  0
   56.0650   29.3630   44.1790 C   0  0  0  0  0  0  0  0  0  0  0  0
   56.6180   30.7580   44.4230 C   0  0  0  0  0  0  0  0  0  0  0  0
   58.1270   30.6260   44.2610 C   0  0  2  0  0  0  0  0  0  0  0  0
   58.3730   29.1080   44.1210 C   0  0  1  0  0  0  0  0  0  0  0  0
   59.7080   28.5890   44.7370 C   0  0  0  0  0  0  0  0  0  0  0  0
   60.0630   29.1560   46.1240 C   0  0  0  0  0  0  0  0  0  0  0  0
   59.7310   30.6040   46.2090 C   0  0  0  0  0  0  0  0  0  0  0  0
   60.2580   31.4590   47.1140 N   0  0  0  0  0  0  0  0  0  0  0  0
   59.6940   32.6330   46.8720 N   0  0  0  0  0  0  0  0  0  0  0  0
   60.0430   33.8730   47.5590 C   0  0  0  0  0  0  0  0  0  0  0  0
   61.4350   33.7710   48.1190 C   0  0  0  0  0  0  0  0  0  0  0  0
   61.6520   33.8990   49.4990 C   0  0  0  0  0  0  0  0  0  0  0  0
   62.9390   33.7650   50.0280 C   0  0  0  0  0  0  0  0  0  0  0  0
   64.0290   33.4860   49.1800 C   0  0  0  0  0  0  0  0  0  0  0  0
   65.3380   33.3410   49.6600 O   0  0  0  0  0  0  0  0  0  0  0  0
   65.8110   32.2030   50.3740 C   0  0  0  0  0  0  0  0  0  0  0  0
   63.8040   33.3430   47.8040 C   0  0  0  0  0  0  0  0  0  0  0  0
   62.5180   33.4780   47.2760 C   0  0  0  0  0  0  0  0  0  0  0  0
   58.8550   32.4820   45.8310 C   0  0  0  0  0  0  0  0  0  0  0  0
   58.1900   33.4180   45.3080 O   0  0  0  0  0  0  0  0  0  0  0  0
   58.8340   31.2070   45.4060 N   0  0  0  0  0  0  0  0  0  0  0  0
   56.2904   24.6723   44.1282 H   0  0  0  0  0  0  0  0  0  0  0  0
   57.4705   25.7807   43.3501 H   0  0  0  0  0  0  0  0  0  0  0  0
   57.7674   24.0091   43.3501 H   0  0  0  0  0  0  0  0  0  0  0  0
   58.4613   23.9826   45.5584 H   0  0  0  0  0  0  0  0  0  0  0  0
   58.9623   25.6565   45.1049 H   0  0  0  0  0  0  0  0  0  0  0  0
   56.4587   28.7184   46.4814 H   0  0  0  0  0  0  0  0  0  0  0  0
   58.0858   27.9435   46.3250 H   0  0  0  0  0  0  0  0  0  0  0  0
   55.7705   29.2558   43.1246 H   0  0  0  0  0  0  0  0  0  0  0  0
   55.1783   29.1848   44.8051 H   0  0  0  0  0  0  0  0  0  0  0  0
   56.2121   31.4676   43.6870 H   0  0  0  0  0  0  0  0  0  0  0  0
   56.3441   31.1397   45.4176 H   0  0  0  0  0  0  0  0  0  0  0  0
   58.5095   31.1742   43.3874 H   0  0  0  0  0  0  0  0  0  0  0  0
   58.5733   28.8671   43.0666 H   0  0  0  0  0  0  0  0  0  0  0  0
   59.6373   27.4949   44.8262 H   0  0  0  0  0  0  0  0  0  0  0  0
   60.5052   28.9282   44.0592 H   0  0  0  0  0  0  0  0  0  0  0  0
   59.4943   28.6109   46.8918 H   0  0  0  0  0  0  0  0  0  0  0  0
   61.1441   29.0342   46.2862 H   0  0  0  0  0  0  0  0  0  0  0  0
   59.9962   34.7104   46.8473 H   0  0  0  0  0  0  0  0  0  0  0  0
   59.3326   34.0450   48.3810 H   0  0  0  0  0  0  0  0  0  0  0  0
   60.8044   34.1060   50.1688 H   0  0  0  0  0  0  0  0  0  0  0  0
   63.1013   33.8778   51.1101 H   0  0  0  0  0  0  0  0  0  0  0  0
   65.7332   32.3901   51.4552 H   0  0  0  0  0  0  0  0  0  0  0  0
   65.2032   31.3253   50.1091 H   0  0  0  0  0  0  0  0  0  0  0  0
   66.8619   32.0147   50.1091 H   0  0  0  0  0  0  0  0  0  0  0  0
   64.6479   33.1224   47.1338 H   0  0  0  0  0  0  0  0  0  0  0  0
   62.3535   33.3542   46.1954 H   0  0  0  0  0  0  0  0  0  0  0  0
  1  2  1  0
  2  3  1  0
  3  4  1  0
  4  5  2  0
  4  6  1  0
  6  7  1  0
  7  8  1  0
  8  9  1  0
  9 10  1  0
 10 11  1  0
 11 12  1  0
 12 13  1  0
 13 14  1  0
 14 15  2  0
 15 16  1  0
 16 17  1  0
 17 18  1  0
 18 19  2  0
 19 20  1  0
 20 21  2  0
 21 22  1  0
 22 23  1  0
 21 24  1  0
 24 25  2  0
 16 26  1  0
 26 27  2  0
 26 28  1  0
 11  7  1  0
 28 14  1  0
 28 10  1  0
 25 18  1  0
  1 29  1  0
  1 30  1  0
  1 31  1  0
  2 32  1  0
  2 33  1  0
  6 34  1  0
  6 35  1  0
  8 36  1  0
  8 37  1  0
  9 38  1  0
  9 39  1  0
 10 40  1  6
 11 41  1  6
 12 42  1  0
 12 43  1  0
 13 44  1  0
 13 45  1  0
 17 46  1  0
 17 47  1  0
 19 48  1  0
 20 49  1  0
 23 50  1  0
 23 51  1  0
 23 52  1  0
 24 53  1  0
 25 54  1  0
M  END
>  <UniqueID>  (46) 
45

>  <SMILES>  (46) 
CCOC(=O)CN1CC[C@@H]2[C@H]1CCc1nn(Cc3ccc(OC)cc3)c(=O)n12

>  <Energy>  (46) 
100.71600212675926

>  <Genealogy>  (46) 
CCOC(=O)CN1CC[C@@H]2[C@H]1CCc1nn(Cc3ccc(OC)cc3)c(=O)n12 (chirality)
CCOC(=O)CN1CC[C@@H]2[C@H]1CCc1nn(Cc3ccc(OC)cc3)c(=O)n12 (3D coordinates assigned)
CCOC(=O)CN1CC[C@@H]2[C@H]1CCc1nn(Cc3ccc(OC)cc3)c(=O)n12 (nonaromatic ring conformer: 100.71600212675926 kcal/mol)

>  <smiles>  (46) 
CCOC(=O)CN1CCC2C1CCc1nn(Cc3ccc(OC)cc3)c(=O)n12

>  <score_type>  (46) 
oracle

>  <origin>  (46) 
adg

>  <m_score__min__energy>  (46) 
-7.5899999999999999

>  <m_primary>  (46) 
energy

$$$$
46:0
     RDKit          3D

 58 61  0  0  0  0  0  0  0  0999 V2000
   58.8670   30.4960   49.8960 C   0  0  0  0  0  0  0  0  0  0  0  0
   58.5630   31.9920   49.8610 C   0  0  0  0  0  0  0  0  0  0  0  0
   58.9620   32.5810   48.5650 N   0  0  0  0  0  0  0  0  0  0  0  0
   57.9620   32.7150   47.6400 C   0  0  0  0  0  0  0  0  0  0  0  0
   58.2080   33.1560   46.3350 C   0  0  0  0  0  0  0  0  0  0  0  0
   57.0930   33.1860   45.3460 C   0  0  0  0  0  0  0  0  0  0  0  0
   56.6700   34.2770   44.8790 O   0  0  0  0  0  0  0  0  0  0  0  0
   56.5050   31.9680   44.8820 N   0  0  0  0  0  0  0  0  0  0  0  0
   57.1040   31.2000   43.7980 C   0  0  0  0  0  0  0  0  0  0  0  0
   57.8030   29.9920   44.3580 C   0  0  0  0  0  0  0  0  0  0  0  0
   57.4930   28.7080   43.8800 C   0  0  0  0  0  0  0  0  0  0  0  0
   58.2140   27.5960   44.3260 C   0  0  0  0  0  0  0  0  0  0  0  0
   59.2530   27.7580   45.2470 C   0  0  0  0  0  0  0  0  0  0  0  0
   59.9560   26.6800   45.6720 F   0  0  0  0  0  0  0  0  0  0  0  0
   59.5710   29.0330   45.7230 C   0  0  0  0  0  0  0  0  0  0  0  0
   58.8530   30.1480   45.2780 C   0  0  0  0  0  0  0  0  0  0  0  0
   59.5210   33.5070   45.9860 C   0  0  0  0  0  0  0  0  0  0  0  0
   59.7830   33.8890   44.8110 O   0  0  0  0  0  0  0  0  0  0  0  0
   60.5480   33.4330   46.9450 C   0  0  0  0  0  0  0  0  0  0  0  0
   61.8610   33.8050   46.6000 C   0  0  0  0  0  0  0  0  0  0  0  0
   62.8850   33.7520   47.5370 C   0  0  0  0  0  0  0  0  0  0  0  0
   64.1430   34.0990   47.1670 F   0  0  0  0  0  0  0  0  0  0  0  0
   62.6210   33.3420   48.8450 C   0  0  0  0  0  0  0  0  0  0  0  0
   63.6830   33.3120   49.8130 N   0  0  0  0  0  0  0  0  0  0  0  0
   64.7330   32.2920   49.7140 C   0  0  0  0  0  0  0  0  0  0  0  0
   66.0790   32.8910   50.1300 C   0  0  0  0  0  0  0  0  0  0  0  0
   66.0350   33.5770   51.5140 C   0  0  0  0  0  0  0  0  0  0  0  0
   64.6070   33.7730   52.0720 C   0  0  1  0  0  0  0  0  0  0  0  0
   64.6100   34.7310   53.1830 N   0  0  0  0  0  0  0  0  0  0  0  0
   63.6340   34.2220   50.9650 C   0  0  0  0  0  0  0  0  0  0  0  0
   61.3190   32.9710   49.2150 C   0  0  0  0  0  0  0  0  0  0  0  0
   61.1190   32.6820   50.5240 F   0  0  0  0  0  0  0  0  0  0  0  0
   60.2540   32.9810   48.2630 C   0  0  0  0  0  0  0  0  0  0  0  0
   58.9353   30.1601   50.9412 H   0  0  0  0  0  0  0  0  0  0  0  0
   58.0622   29.9463   49.3860 H   0  0  0  0  0  0  0  0  0  0  0  0
   59.8225   30.3040   49.3860 H   0  0  0  0  0  0  0  0  0  0  0  0
   57.4836   32.1437   50.0085 H   0  0  0  0  0  0  0  0  0  0  0  0
   59.1332   32.4854   50.6619 H   0  0  0  0  0  0  0  0  0  0  0  0
   56.9307   32.4678   47.9322 H   0  0  0  0  0  0  0  0  0  0  0  0
   56.3170   30.8765   43.1009 H   0  0  0  0  0  0  0  0  0  0  0  0
   57.8333   31.8287   43.2662 H   0  0  0  0  0  0  0  0  0  0  0  0
   56.6793   28.5767   43.1515 H   0  0  0  0  0  0  0  0  0  0  0  0
   57.9633   26.5925   43.9516 H   0  0  0  0  0  0  0  0  0  0  0  0
   60.3875   29.1600   46.4490 H   0  0  0  0  0  0  0  0  0  0  0  0
   59.1115   31.1505   45.6498 H   0  0  0  0  0  0  0  0  0  0  0  0
   62.0788   34.1418   45.5757 H   0  0  0  0  0  0  0  0  0  0  0  0
   64.4875   31.4497   50.3775 H   0  0  0  0  0  0  0  0  0  0  0  0
   64.7987   31.9382   48.6745 H   0  0  0  0  0  0  0  0  0  0  0  0
   66.8261   32.0843   50.1626 H   0  0  0  0  0  0  0  0  0  0  0  0
   66.3379   33.6622   49.3896 H   0  0  0  0  0  0  0  0  0  0  0  0
   66.6026   32.9587   52.2250 H   0  0  0  0  0  0  0  0  0  0  0  0
   66.4679   34.5802   51.3865 H   0  0  0  0  0  0  0  0  0  0  0  0
   64.2576   32.8026   52.4544 H   0  0  0  0  0  0  0  0  0  0  0  0
   64.1690   35.6350   52.8920 H   0  0  0  0  0  0  0  0  0  0  0  0
   65.5920   34.9120   53.4930 H   0  0  0  0  0  0  0  0  0  0  0  0
   64.0770   34.3370   53.9920 H   0  0  0  0  0  0  0  0  0  0  0  0
   62.6112   34.2338   51.3696 H   0  0  0  0  0  0  0  0  0  0  0  0
   63.9297   35.2265   50.6280 H   0  0  0  0  0  0  0  0  0  0  0  0
  1  2  1  0
  2  3  1  0
  3  4  1  0
  4  5  2  0
  5  6  1  0
  6  7  2  0
  6  8  1  0
  8  9  1  0
  9 10  1  0
 10 11  2  0
 11 12  1  0
 12 13  2  0
 13 14  1  0
 13 15  1  0
 15 16  2  0
  5 17  1  0
 17 18  2  0
 17 19  1  0
 19 20  2  0
 20 21  1  0
 21 22  1  0
 21 23  2  0
 23 24  1  0
 24 25  1  0
 25 26  1  0
 26 27  1  0
 27 28  1  0
 28 29  1  0
 28 30  1  0
 23 31  1  0
 31 32  1  0
 31 33  2  0
 33  3  1  0
 16 10  1  0
 33 19  1  0
 30 24  1  0
  1 34  1  0
  1 35  1  0
  1 36  1  0
  2 37  1  0
  2 38  1  0
  4 39  1  0
  9 40  1  0
  9 41  1  0
 11 42  1  0
 12 43  1  0
 15 44  1  0
 16 45  1  0
 20 46  1  0
 25 47  1  0
 25 48  1  0
 26 49  1  0
 26 50  1  0
 27 51  1  0
 27 52  1  0
 28 53  1  1
 29 54  1  0
 29 55  1  0
 29 56  1  0
 30 57  1  0
 30 58  1  0
M  CHG  2   8  -1  29   1
M  END
>  <UniqueID>  (47) 
46

>  <SMILES>  (47) 
CCn1cc(C(=O)[N-]Cc2ccc(F)cc2)c(=O)c2cc(F)c(N3CCC[C@@H]([NH3+])C3)c(F)c21

>  <Energy>  (47) 
85.11527808849546

>  <Genealogy>  (47) 
CCn1cc(C(=O)[N-]Cc2ccc(F)cc2)c(=O)c2cc(F)c(N3CCCC([NH3+])C3)c(F)c21 (protonated)
CCn1cc(C(=O)[N-]Cc2ccc(F)cc2)c(=O)c2cc(F)c(N3CCC[C@@H]([NH3+])C3)c(F)c21 (chirality)
CCn1cc(C(=O)[N-]Cc2ccc(F)cc2)c(=O)c2cc(F)c(N3CCC[C@@H]([NH3+])C3)c(F)c21 (3D coordinates assigned)
CCn1cc(C(=O)[N-]Cc2ccc(F)cc2)c(=O)c2cc(F)c(N3CCC[C@@H]([NH3+])C3)c(F)c21 (nonaromatic ring conformer: 85.11527808849546 kcal/mol)

>  <smiles>  (47) 
CCn1cc(C(=O)NCc2ccc(F)cc2)c(=O)c2cc(F)c(N3CCCC(N)C3)c(F)c21

>  <score_type>  (47) 
oracle

>  <origin>  (47) 
adg

>  <m_score__min__energy>  (47) 
-8.4399999999999995

>  <m_primary>  (47) 
energy

$$$$
47:0
     RDKit          3D

 55 58  0  0  0  0  0  0  0  0999 V2000
   57.5143   33.8591   52.7369 H   0  0  0  0  0  0  0  0  0  0  0  0
   57.4260   32.8670   52.2700 C   0  0  0  0  0  0  0  0  0  0  0  0
   58.1910   32.5520   51.1960 N   0  0  0  0  0  0  0  0  0  0  0  0
   58.0900   31.3260   50.6140 C   0  0  0  0  0  0  0  0  0  0  0  0
   58.9120   30.9930   49.4760 N   0  0  0  0  0  0  0  0  0  0  0  0
   59.8580   29.8680   49.5260 C   0  0  0  0  0  0  0  0  0  0  0  0
   60.8750   30.2605   49.6730 H   0  0  0  0  0  0  0  0  0  0  0  0
   59.5725   29.2093   50.3594 H   0  0  0  0  0  0  0  0  0  0  0  0
   59.8190   29.0510   48.2240 C   0  0  0  0  0  0  0  0  0  0  0  0
   60.7580   28.4834   48.1450 H   0  0  0  0  0  0  0  0  0  0  0  0
   58.9322   28.4030   48.2847 H   0  0  0  0  0  0  0  0  0  0  0  0
   59.6580   29.9070   46.9380 C   0  0  0  0  0  0  0  0  0  0  0  0
   58.6302   29.7532   46.5776 H   0  0  0  0  0  0  0  0  0  0  0  0
   60.5980   29.4990   45.9580 O   0  0  0  0  0  0  0  0  0  0  0  0
   59.9670   28.8140   44.8910 C   0  0  0  0  0  0  0  0  0  0  0  0
   60.5842   28.9063   43.9852 H   0  0  0  0  0  0  0  0  0  0  0  0
   59.8536   27.7543   45.1636 H   0  0  0  0  0  0  0  0  0  0  0  0
   58.6050   29.4000   44.6260 C   0  0  0  0  0  0  0  0  0  0  0  0
   57.4510   28.6500   44.9080 C   0  0  0  0  0  0  0  0  0  0  0  0
   57.5442   27.6419   45.3382 H   0  0  0  0  0  0  0  0  0  0  0  0
   56.1850   29.1800   44.6440 C   0  0  0  0  0  0  0  0  0  0  0  0
   55.2844   28.5902   44.8700 H   0  0  0  0  0  0  0  0  0  0  0  0
   56.0620   30.4590   44.0930 C   0  0  0  0  0  0  0  0  0  0  0  0
   55.0650   30.8759   43.8877 H   0  0  0  0  0  0  0  0  0  0  0  0
   57.2060   31.2080   43.8030 C   0  0  0  0  0  0  0  0  0  0  0  0
   57.1080   32.2132   43.3671 H   0  0  0  0  0  0  0  0  0  0  0  0
   58.4750   30.6820   44.0660 C   0  0  0  0  0  0  0  0  0  0  0  0
   59.3731   31.2732   43.8339 H   0  0  0  0  0  0  0  0  0  0  0  0
   59.8680   31.4000   47.2140 C   0  0  0  0  0  0  0  0  0  0  0  0
   60.9024   31.5649   47.5498 H   0  0  0  0  0  0  0  0  0  0  0  0
   59.6771   31.9649   46.2896 H   0  0  0  0  0  0  0  0  0  0  0  0
   58.9000   31.8820   48.3020 C   0  0  0  0  0  0  0  0  0  0  0  0
   59.1944   32.8936   48.6181 H   0  0  0  0  0  0  0  0  0  0  0  0
   57.8836   31.8800   47.8814 H   0  0  0  0  0  0  0  0  0  0  0  0
   57.2100   30.4210   51.1230 N   0  0  0  0  0  0  0  0  0  0  0  0
   56.4330   30.7330   52.1900 C   0  0  0  0  0  0  0  0  0  0  0  0
   55.6200   29.8360   52.6660 N   0  0  0  0  0  0  0  0  0  0  0  0
   54.2040   29.7440   52.4370 C   0  0  0  0  0  0  0  0  0  0  0  0
   53.4620   28.6070   52.8050 C   0  0  0  0  0  0  0  0  0  0  0  0
   53.9724   27.7398   53.2494 H   0  0  0  0  0  0  0  0  0  0  0  0
   52.0780   28.5750   52.6080 C   0  0  0  0  0  0  0  0  0  0  0  0
   51.3670   27.4830   52.9800 F   0  0  0  0  0  0  0  0  0  0  0  0
   51.4230   29.6780   52.0530 C   0  0  0  0  0  0  0  0  0  0  0  0
   50.3339   29.6490   51.9010 H   0  0  0  0  0  0  0  0  0  0  0  0
   52.1490   30.8220   51.6890 C   0  0  0  0  0  0  0  0  0  0  0  0
   51.4650   32.0060   51.1310 C   0  0  0  0  0  0  0  0  0  0  0  0
   51.2380   32.0540   49.8930 O   0  0  0  0  0  0  0  0  0  0  0  0
   51.0160   33.0880   51.9560 N   0  0  0  0  0  0  0  0  0  0  0  0
   49.9770   32.9850   52.9730 C   0  0  0  0  0  0  0  0  0  0  0  0
   50.4357   33.0305   53.9717 H   0  0  0  0  0  0  0  0  0  0  0  0
   49.2670   33.8172   52.8574 H   0  0  0  0  0  0  0  0  0  0  0  0
   49.4442   32.0296   52.8574 H   0  0  0  0  0  0  0  0  0  0  0  0
   53.5340   30.8580   51.9120 C   0  0  0  0  0  0  0  0  0  0  0  0
   54.1001   31.7702   51.6723 H   0  0  0  0  0  0  0  0  0  0  0  0
   56.5520   31.9580   52.7680 N   0  0  0  0  0  0  0  0  0  0  0  0
  1  2  1  0
  2  3  2  0
  3  4  1  0
  4  5  1  0
  5  6  1  0
  6  7  1  0
  6  8  1  0
  6  9  1  0
  9 10  1  0
  9 11  1  0
  9 12  1  0
 12 13  1  0
 12 14  1  0
 14 15  1  0
 15 16  1  0
 15 17  1  0
 15 18  1  0
 18 19  2  0
 19 20  1  0
 19 21  1  0
 21 22  1  0
 21 23  2  0
 23 24  1  0
 23 25  1  0
 25 26  1  0
 25 27  2  0
 27 28  1  0
 12 29  1  0
 29 30  1  0
 29 31  1  0
 29 32  1  0
 32 33  1  0
 32 34  1  0
  4 35  2  0
 35 36  1  0
 36 37  2  0
 37 38  1  0
 38 39  2  0
 39 40  1  0
 39 41  1  0
 41 42  1  0
 41 43  2  0
 43 44  1  0
 43 45  1  0
 45 46  1  0
 46 47  2  0
 46 48  1  0
 48 49  1  0
 49 50  1  0
 49 51  1  0
 49 52  1  0
 45 53  2  0
 53 54  1  0
 36 55  1  0
 55  2  1  0
 32  5  1  0
 53 38  1  0
 27 18  1  0
M  CHG  2  48  -1  55  -1
M  END
>  <UniqueID>  (48) 
47

>  <SMILES>  (48) 
C[N-]C(=O)c1cc(F)cc(/N=c2/nc(N3CCC(OCc4ccccc4)CC3)nc[n-]2)c1

>  <Energy>  (48) 
73.9014330488606

>  <Genealogy>  (48) 
C[N-]C(=O)c1cc(F)cc(N=c2nc(N3CCC(OCc4ccccc4)CC3)nc[n-]2)c1 (protonated)
C[N-]C(=O)c1cc(F)cc(/N=c2/nc(N3CCC(OCc4ccccc4)CC3)nc[n-]2)c1 (cis-trans isomerization)
C[N-]C(=O)c1cc(F)cc(/N=c2/nc(N3CCC(OCc4ccccc4)CC3)nc[n-]2)c1 (3D coordinates assigned)
C[N-]C(=O)c1cc(F)cc(/N=c2/nc(N3CCC(OCc4ccccc4)CC3)nc[n-]2)c1 (nonaromatic ring conformer: 73.9014330488606 kcal/mol)

>  <smiles>  (48) 
CNC(=O)c1cc(F)cc(N=c2nc(N3CCC(OCc4ccccc4)CC3)nc[nH]2)c1

>  <score_type>  (48) 
oracle

>  <origin>  (48) 
adg

>  <m_score__min__energy>  (48) 
-13.17

>  <m_primary>  (48) 
energy

$$$$
48:0
     RDKit          3D

 43 45  0  0  0  0  0  0  0  0999 V2000
   59.9990   29.2380   50.1670 C   0  0  0  0  0  0  0  0  0  0  0  0
   60.7960   28.0070   49.7710 C   0  0  0  0  0  0  0  0  0  0  0  0
   60.1190   27.3190   48.7220 O   0  0  0  0  0  0  0  0  0  0  0  0
   59.6700   27.9240   47.5390 C   0  0  0  0  0  0  0  0  0  0  0  0
   60.3830   28.9560   46.9000 C   0  0  0  0  0  0  0  0  0  0  0  0
   59.8950   29.5230   45.7200 C   0  0  0  0  0  0  0  0  0  0  0  0
   58.6910   29.0760   45.1550 C   0  0  0  0  0  0  0  0  0  0  0  0
   58.2210   29.6850   43.9390 N   0  0  0  0  0  0  0  0  0  0  0  0
   57.2150   31.0980   43.8820 S   0  0  0  0  0  0  0  0  0  0  0  0
   57.0210   31.5310   42.4540 O   0  0  0  0  0  0  0  0  0  0  0  0
   55.8760   30.8010   44.4960 O   0  0  0  0  0  0  0  0  0  0  0  0
   57.9960   32.3920   44.7850 C   0  0  0  0  0  0  0  0  0  0  0  0
   58.4830   33.5220   44.1180 C   0  0  0  0  0  0  0  0  0  0  0  0
   59.1190   34.5380   44.8330 C   0  0  0  0  0  0  0  0  0  0  0  0
   59.2760   34.4320   46.2170 C   0  0  0  0  0  0  0  0  0  0  0  0
   58.7950   33.3000   46.9070 C   0  0  0  0  0  0  0  0  0  0  0  0
   58.9580   33.1600   48.3790 C   0  0  0  0  0  0  0  0  0  0  0  0
   59.8800   33.8820   49.1450 C   0  0  0  0  0  0  0  0  0  0  0  0
   59.6990   33.4220   50.7520 S   0  0  0  0  0  0  0  0  0  0  0  0
   58.4800   32.3200   50.4150 C   0  0  0  0  0  0  0  0  0  0  0  0
   57.7370   31.5320   51.4390 C   0  0  0  0  0  0  0  0  0  0  0  0
   58.1790   32.3040   49.1000 N   0  0  0  0  0  0  0  0  0  0  0  0
   58.1600   32.2810   46.1720 C   0  0  0  0  0  0  0  0  0  0  0  0
   57.9790   28.0470   45.7980 C   0  0  0  0  0  0  0  0  0  0  0  0
   58.4690   27.4790   46.9780 C   0  0  0  0  0  0  0  0  0  0  0  0
   59.9536   29.3082   51.2638 H   0  0  0  0  0  0  0  0  0  0  0  0
   60.4871   30.1367   49.7620 H   0  0  0  0  0  0  0  0  0  0  0  0
   58.9792   29.1605   49.7620 H   0  0  0  0  0  0  0  0  0  0  0  0
   61.7943   28.3125   49.4245 H   0  0  0  0  0  0  0  0  0  0  0  0
   60.8973   27.3408   50.6404 H   0  0  0  0  0  0  0  0  0  0  0  0
   61.3281   29.3174   47.3314 H   0  0  0  0  0  0  0  0  0  0  0  0
   60.4607   30.3284   45.2287 H   0  0  0  0  0  0  0  0  0  0  0  0
   58.4860   29.2590   43.0220 H   0  0  0  0  0  0  0  0  0  0  0  0
   58.3642   33.6095   43.0279 H   0  0  0  0  0  0  0  0  0  0  0  0
   59.4980   35.4254   44.3048 H   0  0  0  0  0  0  0  0  0  0  0  0
   59.7785   35.2374   46.7727 H   0  0  0  0  0  0  0  0  0  0  0  0
   60.5984   34.6219   48.7623 H   0  0  0  0  0  0  0  0  0  0  0  0
   58.0430   31.8566   52.4445 H   0  0  0  0  0  0  0  0  0  0  0  0
   56.6564   31.6951   51.3141 H   0  0  0  0  0  0  0  0  0  0  0  0
   57.9633   30.4628   51.3141 H   0  0  0  0  0  0  0  0  0  0  0  0
   57.7880   31.3865   46.6931 H   0  0  0  0  0  0  0  0  0  0  0  0
   57.0316   27.6873   45.3701 H   0  0  0  0  0  0  0  0  0  0  0  0
   57.9038   26.6737   47.4701 H   0  0  0  0  0  0  0  0  0  0  0  0
  1  2  1  0
  2  3  1  0
  3  4  1  0
  4  5  2  0
  5  6  1  0
  6  7  2  0
  7  8  1  0
  8  9  1  0
  9 10  2  0
  9 11  2  0
  9 12  1  0
 12 13  2  0
 13 14  1  0
 14 15  2  0
 15 16  1  0
 16 17  1  0
 17 18  2  0
 18 19  1  0
 19 20  1  0
 20 21  1  0
 20 22  2  0
 16 23  2  0
  7 24  1  0
 24 25  2  0
 25  4  1  0
 23 12  1  0
 22 17  1  0
  1 26  1  0
  1 27  1  0
  1 28  1  0
  2 29  1  0
  2 30  1  0
  5 31  1  0
  6 32  1  0
  8 33  1  0
 13 34  1  0
 14 35  1  0
 15 36  1  0
 18 37  1  0
 21 38  1  0
 21 39  1  0
 21 40  1  0
 23 41  1  0
 24 42  1  0
 25 43  1  0
M  END
>  <UniqueID>  (49) 
48

>  <SMILES>  (49) 
CCOc1ccc(NS(=O)(=O)c2cccc(-c3csc(C)n3)c2)cc1

>  <Energy>  (49) 
75.61334556411407

>  <Genealogy>  (49) 
CCOc1ccc(NS(=O)(=O)c2cccc(-c3csc(C)n3)c2)cc1 (3D coordinates assigned)
CCOc1ccc(NS(=O)(=O)c2cccc(-c3csc(C)n3)c2)cc1 (optimized conformer: 75.61334556411407 kcal/mol)

>  <smiles>  (49) 
CCOc1ccc(NS(=O)(=O)c2cccc(-c3csc(C)n3)c2)cc1

>  <score_type>  (49) 
oracle

>  <origin>  (49) 
adg

>  <m_score__min__energy>  (49) 
-8.3399999999999999

>  <m_primary>  (49) 
energy

$$$$
