0:0
     RDKit          3D

 25 26  0  0  0  0  0  0  0  0999 V2000
   57.7584   34.1207   43.3271 H   0  0  0  0  0  0  0  0  0  0  0  0
   58.1240   33.3160   43.9820 C   0  0  0  0  0  0  0  0  0  0  0  0
   58.1960   32.0810   43.4590 C   0  0  0  0  0  0  0  0  0  0  0  0
   58.7993   31.9526   42.5482 H   0  0  0  0  0  0  0  0  0  0  0  0
   57.5300   30.8790   44.0080 C   0  0  0  0  0  0  0  0  0  0  0  0
   58.2280   29.9440   44.7960 C   0  0  0  0  0  0  0  0  0  0  0  0
   59.3000   30.0881   44.9963 H   0  0  0  0  0  0  0  0  0  0  0  0
   57.5640   28.8330   45.3250 C   0  0  0  0  0  0  0  0  0  0  0  0
   58.1184   28.0963   45.9249 H   0  0  0  0  0  0  0  0  0  0  0  0
   56.1980   28.6570   45.0930 C   0  0  0  0  0  0  0  0  0  0  0  0
   55.5390   27.5520   45.6190 O   0  0  0  0  0  0  0  0  0  0  0  0
   55.4910   29.5960   44.3350 C   0  0  0  0  0  0  0  0  0  0  0  0
   54.4141   29.4595   44.1571 H   0  0  0  0  0  0  0  0  0  0  0  0
   56.1510   30.7080   43.8030 C   0  0  0  0  0  0  0  0  0  0  0  0
   55.5876   31.4524   43.2212 H   0  0  0  0  0  0  0  0  0  0  0  0
   58.4960   33.6840   45.3670 C   0  0  0  0  0  0  0  0  0  0  0  0
   57.8980   33.0730   46.4840 C   0  0  0  0  0  0  0  0  0  0  0  0
   57.1102   32.3188   46.3405 H   0  0  0  0  0  0  0  0  0  0  0  0
   58.2910   33.4120   47.7400 N   0  0  0  0  0  0  0  0  0  0  0  0
   59.2710   34.3290   47.9600 C   0  0  0  0  0  0  0  0  0  0  0  0
   59.5586   34.5901   48.9891 H   0  0  0  0  0  0  0  0  0  0  0  0
   59.9110   34.9380   46.8820 C   0  0  0  0  0  0  0  0  0  0  0  0
   60.7098   35.6743   47.0546 H   0  0  0  0  0  0  0  0  0  0  0  0
   59.5290   34.6050   45.5810 C   0  0  0  0  0  0  0  0  0  0  0  0
   60.0400   35.0666   44.7232 H   0  0  0  0  0  0  0  0  0  0  0  0
  1  2  1  0
  2  3  2  0
  3  4  1  0
  3  5  1  0
  5  6  2  0
  6  7  1  0
  6  8  1  0
  8  9  1  0
  8 10  2  0
 10 11  1  0
 10 12  1  0
 12 13  1  0
 12 14  2  0
 14 15  1  0
  2 16  1  0
 16 17  2  0
 17 18  1  0
 17 19  1  0
 19 20  2  0
 20 21  1  0
 20 22  1  0
 22 23  1  0
 22 24  2  0
 24 25  1  0
 14  5  1  0
 24 16  1  0
M  CHG  1  11  -1
M  END
>  <UniqueID>  (1) 
1

>  <SMILES>  (1) 
[O-]c1ccc(/C=C\c2cccnc2)cc1

>  <Energy>  (1) 
36.36771029949435

>  <Genealogy>  (1) 
[O-]c1ccc(C=Cc2cccnc2)cc1 (protonated)
[O-]c1ccc(/C=C\c2cccnc2)cc1 (cis-trans isomerization)
[O-]c1ccc(/C=C\c2cccnc2)cc1 (3D coordinates assigned)
[O-]c1ccc(/C=C\c2cccnc2)cc1 (optimized conformer: 36.36771029949435 kcal/mol)

>  <smiles>  (1) 
Oc1ccc(C=Cc2cccnc2)cc1

>  <score_type>  (1) 
oracle

>  <origin>  (1) 
adg

>  <m_score__min__energy>  (1) 
-9.5800000000000001

>  <m_primary>  (1) 
energy

$$$$
1:0
     RDKit          3D

 38 40  0  0  0  0  0  0  0  0999 V2000
   64.9830   33.8050   50.4730 C   0  0  0  0  0  0  0  0  0  0  0  0
   63.8020   33.5440   49.5940 C   0  0  0  0  0  0  0  0  0  0  0  0
   63.9640   32.8900   48.3660 C   0  0  0  0  0  0  0  0  0  0  0  0
   62.8500   32.6700   47.5540 C   0  0  0  0  0  0  0  0  0  0  0  0
   61.5820   33.0970   47.9720 C   0  0  0  0  0  0  0  0  0  0  0  0
   60.3940   32.9000   47.1100 C   0  0  0  0  0  0  0  0  0  0  0  0
   59.8440   31.6130   47.0060 C   0  0  0  0  0  0  0  0  0  0  0  0
   58.6910   31.3830   46.2410 C   0  0  0  0  0  0  0  0  0  0  0  0
   58.1040   30.0220   46.1380 C   0  0  0  0  0  0  0  0  0  0  0  0
   57.1970   29.7090   45.1100 C   0  0  0  0  0  0  0  0  0  0  0  0
   56.6450   28.4290   45.0160 C   0  0  0  0  0  0  0  0  0  0  0  0
   56.9880   27.4420   45.9500 C   0  0  0  0  0  0  0  0  0  0  0  0
   56.3020   25.8260   45.8290 S   0  0  0  0  0  0  0  0  0  0  0  0
   54.5770   25.9200   45.7740 N   0  0  0  0  0  0  0  0  0  0  0  0
   56.7210   25.0150   47.0220 O   0  0  0  0  0  0  0  0  0  0  0  0
   56.7890   25.1540   44.5750 O   0  0  0  0  0  0  0  0  0  0  0  0
   57.8950   27.7440   46.9720 C   0  0  0  0  0  0  0  0  0  0  0  0
   58.4480   29.0250   47.0690 C   0  0  0  0  0  0  0  0  0  0  0  0
   58.1040   32.4720   45.5810 C   0  0  0  0  0  0  0  0  0  0  0  0
   58.6550   33.7090   45.6720 N   0  0  0  0  0  0  0  0  0  0  0  0
   59.7740   33.9590   46.4020 C   0  0  0  0  0  0  0  0  0  0  0  0
   60.2570   35.1630   46.3970 N   0  0  0  0  0  0  0  0  0  0  0  0
   61.4670   33.7660   49.1990 C   0  0  0  0  0  0  0  0  0  0  0  0
   62.5660   33.9690   49.9730 N   0  0  0  0  0  0  0  0  0  0  0  0
   64.6773   33.7374   51.5275 H   0  0  0  0  0  0  0  0  0  0  0  0
   65.7641   33.0578   50.2691 H   0  0  0  0  0  0  0  0  0  0  0  0
   65.3765   34.8118   50.2691 H   0  0  0  0  0  0  0  0  0  0  0  0
   64.9604   32.5527   48.0443 H   0  0  0  0  0  0  0  0  0  0  0  0
   62.9673   32.1613   46.5857 H   0  0  0  0  0  0  0  0  0  0  0  0
   60.3233   30.7737   47.5312 H   0  0  0  0  0  0  0  0  0  0  0  0
   56.9199   30.4781   44.3740 H   0  0  0  0  0  0  0  0  0  0  0  0
   55.9386   28.1950   44.2059 H   0  0  0  0  0  0  0  0  0  0  0  0
   54.2960   26.7270   46.3740 H   0  0  0  0  0  0  0  0  0  0  0  0
   58.1743   26.9704   47.7024 H   0  0  0  0  0  0  0  0  0  0  0  0
   59.1565   29.2544   47.8785 H   0  0  0  0  0  0  0  0  0  0  0  0
   57.1911   32.3228   44.9857 H   0  0  0  0  0  0  0  0  0  0  0  0
   59.9160   35.9370   47.0090 H   0  0  0  0  0  0  0  0  0  0  0  0
   60.4844   34.1277   49.5363 H   0  0  0  0  0  0  0  0  0  0  0  0
  1  2  1  0
  2  3  2  0
  3  4  1  0
  4  5  2  0
  5  6  1  0
  6  7  2  0
  7  8  1  0
  8  9  1  0
  9 10  2  0
 10 11  1  0
 11 12  2  0
 12 13  1  0
 13 14  1  0
 13 15  2  0
 13 16  2  0
 12 17  1  0
 17 18  2  0
  8 19  2  0
 19 20  1  0
 20 21  1  0
 21 22  2  3
  5 23  1  0
 23 24  2  0
 24  2  1  0
 21  6  1  0
 18  9  1  0
  1 25  1  0
  1 26  1  0
  1 27  1  0
  3 28  1  0
  4 29  1  0
  7 30  1  0
 10 31  1  0
 11 32  1  0
 14 33  1  0
 17 34  1  0
 18 35  1  0
 19 36  1  0
 22 37  1  0
 23 38  1  0
M  CHG  2  14  -1  20  -1
M  END
>  <UniqueID>  (2) 
2

>  <SMILES>  (2) 
Cc1ccc(-c2cc(-c3ccc(S([NH-])(=O)=O)cc3)c[n-]c2=N)cn1

>  <Energy>  (2) 
54.95082386240257

>  <Genealogy>  (2) 
Cc1ccc(-c2cc(-c3ccc(S([NH-])(=O)=O)cc3)c[n-]c2=N)cn1 (protonated)
Cc1ccc(-c2cc(-c3ccc(S([NH-])(=O)=O)cc3)c[n-]c2=N)cn1 (3D coordinates assigned)
Cc1ccc(-c2cc(-c3ccc(S([NH-])(=O)=O)cc3)c[n-]c2=N)cn1 (optimized conformer: 54.95082386240257 kcal/mol)

>  <smiles>  (2) 
Cc1ccc(-c2cc(-c3ccc(S(N)(=O)=O)cc3)c[nH]c2=N)cn1

>  <score_type>  (2) 
oracle

>  <origin>  (2) 
adg

>  <m_score__min__energy>  (2) 
-11.42

>  <m_primary>  (2) 
energy

$$$$
2:0
     RDKit          3D

 44 46  0  0  0  0  0  0  0  0999 V2000
   58.0980   31.9420   43.4780 O   0  0  0  0  0  0  0  0  0  0  0  0
   58.1530   31.7490   44.7240 C   0  0  0  0  0  0  0  0  0  0  0  0
   58.4200   32.8550   45.5990 N   0  0  0  0  0  0  0  0  0  0  0  0
   58.3820   34.2350   45.1140 C   0  0  0  0  0  0  0  0  0  0  0  0
   59.5780   35.0450   45.6250 C   0  0  0  0  0  0  0  0  0  0  0  0
   60.0630   34.5280   46.9490 C   0  0  0  0  0  0  0  0  0  0  0  0
   59.3640   34.5390   48.1540 C   0  0  0  0  0  0  0  0  0  0  0  0
   60.1370   34.0570   49.1530 N   0  0  0  0  0  0  0  0  0  0  0  0
   61.3200   33.7500   48.5930 C   0  0  0  0  0  0  0  0  0  0  0  0
   62.4480   33.2330   49.2300 C   0  0  0  0  0  0  0  0  0  0  0  0
   63.5940   33.0000   48.4490 C   0  0  0  0  0  0  0  0  0  0  0  0
   63.5900   33.2880   47.0660 C   0  0  0  0  0  0  0  0  0  0  0  0
   62.4380   33.8100   46.4500 C   0  0  0  0  0  0  0  0  0  0  0  0
   61.3150   34.0270   47.2500 C   0  0  0  0  0  0  0  0  0  0  0  0
   57.9530   30.3810   45.2590 C   0  0  0  0  0  0  0  0  0  0  0  0
   58.4670   30.0120   46.5150 C   0  0  0  0  0  0  0  0  0  0  0  0
   58.2660   28.7200   47.0130 C   0  0  0  0  0  0  0  0  0  0  0  0
   57.5460   27.7720   46.2630 C   0  0  0  0  0  0  0  0  0  0  0  0
   57.3110   26.4600   46.7080 O   0  0  0  0  0  0  0  0  0  0  0  0
   57.1170   25.3120   45.8790 C   0  0  0  0  0  0  0  0  0  0  0  0
   55.6410   25.1380   45.5180 C   0  0  0  0  0  0  0  0  0  0  0  0
   54.8730   26.2080   45.9950 O   0  0  0  0  0  0  0  0  0  0  0  0
   57.0190   28.1460   45.0220 C   0  0  0  0  0  0  0  0  0  0  0  0
   57.2180   29.4380   44.5240 C   0  0  0  0  0  0  0  0  0  0  0  0
   58.6840   32.6660   46.5920 H   0  0  0  0  0  0  0  0  0  0  0  0
   58.3995   34.2276   44.0142 H   0  0  0  0  0  0  0  0  0  0  0  0
   57.4615   34.7064   45.4888 H   0  0  0  0  0  0  0  0  0  0  0  0
   60.3959   34.9768   44.8926 H   0  0  0  0  0  0  0  0  0  0  0  0
   59.2586   36.0894   45.7565 H   0  0  0  0  0  0  0  0  0  0  0  0
   58.3288   34.8904   48.2756 H   0  0  0  0  0  0  0  0  0  0  0  0
   59.8690   33.9580   50.1570 H   0  0  0  0  0  0  0  0  0  0  0  0
   62.4414   33.0147   50.3081 H   0  0  0  0  0  0  0  0  0  0  0  0
   64.5005   32.5904   48.9186 H   0  0  0  0  0  0  0  0  0  0  0  0
   64.4937   33.1029   46.4668 H   0  0  0  0  0  0  0  0  0  0  0  0
   62.4228   34.0394   45.3743 H   0  0  0  0  0  0  0  0  0  0  0  0
   59.0314   30.7448   47.1104 H   0  0  0  0  0  0  0  0  0  0  0  0
   58.6733   28.4438   47.9968 H   0  0  0  0  0  0  0  0  0  0  0  0
   57.7012   25.4331   44.9549 H   0  0  0  0  0  0  0  0  0  0  0  0
   57.4493   24.4210   46.4319 H   0  0  0  0  0  0  0  0  0  0  0  0
   55.5431   25.0859   44.4236 H   0  0  0  0  0  0  0  0  0  0  0  0
   55.2752   24.2115   45.9848 H   0  0  0  0  0  0  0  0  0  0  0  0
   55.1430   26.3520   46.9400 H   0  0  0  0  0  0  0  0  0  0  0  0
   56.4430   27.4175   44.4326 H   0  0  0  0  0  0  0  0  0  0  0  0
   56.7947   29.7173   43.5479 H   0  0  0  0  0  0  0  0  0  0  0  0
  1  2  2  0
  2  3  1  0
  3  4  1  0
  4  5  1  0
  5  6  1  0
  6  7  2  0
  7  8  1  0
  8  9  1  0
  9 10  2  0
 10 11  1  0
 11 12  2  0
 12 13  1  0
 13 14  2  0
  2 15  1  0
 15 16  2  0
 16 17  1  0
 17 18  2  0
 18 19  1  0
 19 20  1  0
 20 21  1  0
 21 22  1  0
 18 23  1  0
 23 24  2  0
 14  6  1  0
 24 15  1  0
 14  9  1  0
  3 25  1  0
  4 26  1  0
  4 27  1  0
  5 28  1  0
  5 29  1  0
  7 30  1  0
  8 31  1  0
 10 32  1  0
 11 33  1  0
 12 34  1  0
 13 35  1  0
 16 36  1  0
 17 37  1  0
 20 38  1  0
 20 39  1  0
 21 40  1  0
 21 41  1  0
 22 42  1  0
 23 43  1  0
 24 44  1  0
M  END
>  <UniqueID>  (3) 
3

>  <SMILES>  (3) 
O=C(NCCc1c[nH]c2ccccc12)c1ccc(OCCO)cc1

>  <Energy>  (3) 
75.46412225196978

>  <Genealogy>  (3) 
O=C(NCCc1c[nH]c2ccccc12)c1ccc(OCCO)cc1 (3D coordinates assigned)
O=C(NCCc1c[nH]c2ccccc12)c1ccc(OCCO)cc1 (optimized conformer: 75.46412225196978 kcal/mol)

>  <smiles>  (3) 
O=C(NCCc1c[nH]c2ccccc12)c1ccc(OCCO)cc1

>  <score_type>  (3) 
oracle

>  <origin>  (3) 
adg

>  <m_score__min__energy>  (3) 
-7.9800000000000004

>  <m_primary>  (3) 
energy

$$$$
3:0
     RDKit          3D

 33 34  0  0  0  0  0  0  0  0999 V2000
   56.9890   34.2300   45.2430 C   0  0  0  0  0  0  0  0  0  0  0  0
   58.2200   33.4240   45.1600 N   0  0  0  0  0  0  0  0  0  0  0  0
   58.1460   32.5120   44.0000 C   0  0  0  0  0  0  0  0  0  0  0  0
   57.5130   31.2140   44.4000 C   0  0  0  0  0  0  0  0  0  0  0  0
   56.2120   30.8120   44.1660 C   0  0  0  0  0  0  0  0  0  0  0  0
   56.0320   29.5800   44.6820 N   0  0  0  0  0  0  0  0  0  0  0  0
   57.1740   29.2100   45.2410 N   0  0  0  0  0  0  0  0  0  0  0  0
   57.3940   27.9080   45.8540 C   0  0  0  0  0  0  0  0  0  0  0  0
   58.1030   30.1710   45.0790 C   0  0  0  0  0  0  0  0  0  0  0  0
   59.4070   34.3010   45.0700 C   0  0  0  0  0  0  0  0  0  0  0  0
   60.2320   34.1820   46.3150 C   0  0  0  0  0  0  0  0  0  0  0  0
   59.8250   34.4350   47.6100 C   0  0  0  0  0  0  0  0  0  0  0  0
   60.8630   34.2320   48.4450 N   0  0  0  0  0  0  0  0  0  0  0  0
   61.9050   33.8770   47.7090 N   0  0  0  0  0  0  0  0  0  0  0  0
   63.2040   33.5140   48.2590 C   0  0  0  0  0  0  0  0  0  0  0  0
   61.5590   33.8250   46.4090 C   0  0  0  0  0  0  0  0  0  0  0  0
   56.7316   34.3985   46.2991 H   0  0  0  0  0  0  0  0  0  0  0  0
   57.1503   35.1979   44.7459 H   0  0  0  0  0  0  0  0  0  0  0  0
   56.1663   33.6951   44.7459 H   0  0  0  0  0  0  0  0  0  0  0  0
   57.5439   32.9806   43.2076 H   0  0  0  0  0  0  0  0  0  0  0  0
   59.1642   32.3160   43.6328 H   0  0  0  0  0  0  0  0  0  0  0  0
   55.4459   31.4028   43.6425 H   0  0  0  0  0  0  0  0  0  0  0  0
   57.3767   28.0107   46.9491 H   0  0  0  0  0  0  0  0  0  0  0  0
   56.6002   27.2151   45.5381 H   0  0  0  0  0  0  0  0  0  0  0  0
   58.3714   27.5144   45.5381 H   0  0  0  0  0  0  0  0  0  0  0  0
   59.1459   30.1304   45.4265 H   0  0  0  0  0  0  0  0  0  0  0  0
   60.0137   34.0038   44.2019 H   0  0  0  0  0  0  0  0  0  0  0  0
   59.0758   35.3438   44.9564 H   0  0  0  0  0  0  0  0  0  0  0  0
   58.8156   34.7514   47.9116 H   0  0  0  0  0  0  0  0  0  0  0  0
   63.1538   33.5280   49.3578 H   0  0  0  0  0  0  0  0  0  0  0  0
   63.4778   32.5049   47.9173 H   0  0  0  0  0  0  0  0  0  0  0  0
   63.9613   34.2349   47.9173 H   0  0  0  0  0  0  0  0  0  0  0  0
   62.2174   33.5474   45.5726 H   0  0  0  0  0  0  0  0  0  0  0  0
  1  2  1  0
  2  3  1  0
  3  4  1  0
  4  5  1  0
  5  6  2  0
  6  7  1  0
  7  8  1  0
  7  9  1  0
  2 10  1  0
 10 11  1  0
 11 12  1  0
 12 13  2  0
 13 14  1  0
 14 15  1  0
 14 16  1  0
  9  4  2  0
 16 11  2  0
  1 17  1  0
  1 18  1  0
  1 19  1  0
  3 20  1  0
  3 21  1  0
  5 22  1  0
  8 23  1  0
  8 24  1  0
  8 25  1  0
  9 26  1  0
 10 27  1  0
 10 28  1  0
 12 29  1  0
 15 30  1  0
 15 31  1  0
 15 32  1  0
 16 33  1  0
M  END
>  <UniqueID>  (4) 
4

>  <SMILES>  (4) 
CN(Cc1cnn(C)c1)Cc1cnn(C)c1

>  <Energy>  (4) 
89.43583323844459

>  <Genealogy>  (4) 
CN(Cc1cnn(C)c1)Cc1cnn(C)c1 (3D coordinates assigned)
CN(Cc1cnn(C)c1)Cc1cnn(C)c1 (optimized conformer: 89.43583323844459 kcal/mol)

>  <smiles>  (4) 
CN(Cc1cnn(C)c1)Cc1cnn(C)c1

>  <score_type>  (4) 
oracle

>  <origin>  (4) 
adg

>  <m_score__min__energy>  (4) 
-5.6200000000000001

>  <m_primary>  (4) 
energy

$$$$
4:0
     RDKit          3D

 30 31  0  0  0  0  0  0  0  0999 V2000
   55.8170   29.4360   45.2180 O   0  0  0  0  0  0  0  0  0  0  0  0
   56.6290   30.1020   44.5230 C   0  0  0  0  0  0  0  0  0  0  0  0
   56.5140   31.5300   44.5040 N   0  0  0  0  0  0  0  0  0  0  0  0
   57.4610   32.4580   45.0500 C   0  0  0  0  0  0  0  0  0  0  0  0
   58.0300   33.4780   44.2670 C   0  0  0  0  0  0  0  0  0  0  0  0
   58.9260   34.3870   44.8400 C   0  0  0  0  0  0  0  0  0  0  0  0
   59.2450   34.2960   46.1970 C   0  0  0  0  0  0  0  0  0  0  0  0
   58.6630   33.3000   46.9860 C   0  0  0  0  0  0  0  0  0  0  0  0
   58.9620   33.2200   48.3060 F   0  0  0  0  0  0  0  0  0  0  0  0
   57.7660   32.3900   46.4170 C   0  0  0  0  0  0  0  0  0  0  0  0
   57.6880   29.4370   43.8180 N   0  0  0  0  0  0  0  0  0  0  0  0
   57.7860   27.9810   43.7440 C   0  0  0  0  0  0  0  0  0  0  0  0
   58.2750   27.4220   45.0540 C   0  0  0  0  0  0  0  0  0  0  0  0
   59.6430   27.4640   45.3760 C   0  0  0  0  0  0  0  0  0  0  0  0
   60.0990   26.9290   46.5830 C   0  0  0  0  0  0  0  0  0  0  0  0
   59.1970   26.3460   47.4780 C   0  0  0  0  0  0  0  0  0  0  0  0
   57.8360   26.2960   47.1640 C   0  0  0  0  0  0  0  0  0  0  0  0
   57.3730   26.8290   45.9560 C   0  0  0  0  0  0  0  0  0  0  0  0
   56.0480   26.7670   45.6680 F   0  0  0  0  0  0  0  0  0  0  0  0
   57.7700   33.5614   43.2014 H   0  0  0  0  0  0  0  0  0  0  0  0
   59.3801   35.1747   44.2209 H   0  0  0  0  0  0  0  0  0  0  0  0
   59.9541   35.0081   46.6444 H   0  0  0  0  0  0  0  0  0  0  0  0
   57.2977   31.6175   47.0447 H   0  0  0  0  0  0  0  0  0  0  0  0
   58.4460   30.0030   43.3750 H   0  0  0  0  0  0  0  0  0  0  0  0
   56.7944   27.5617   43.5183 H   0  0  0  0  0  0  0  0  0  0  0  0
   58.4993   27.7106   42.9515 H   0  0  0  0  0  0  0  0  0  0  0  0
   60.3571   27.9201   44.6745 H   0  0  0  0  0  0  0  0  0  0  0  0
   61.1703   26.9665   46.8299 H   0  0  0  0  0  0  0  0  0  0  0  0
   59.5582   25.9269   48.4287 H   0  0  0  0  0  0  0  0  0  0  0  0
   57.1270   25.8364   47.8684 H   0  0  0  0  0  0  0  0  0  0  0  0
  1  2  2  0
  2  3  1  0
  3  4  1  0
  4  5  2  0
  5  6  1  0
  6  7  2  0
  7  8  1  0
  8  9  1  0
  8 10  2  0
  2 11  1  0
 11 12  1  0
 12 13  1  0
 13 14  2  0
 14 15  1  0
 15 16  2  0
 16 17  1  0
 17 18  2  0
 18 19  1  0
 10  4  1  0
 18 13  1  0
  5 20  1  0
  6 21  1  0
  7 22  1  0
 10 23  1  0
 11 24  1  0
 12 25  1  0
 12 26  1  0
 14 27  1  0
 15 28  1  0
 16 29  1  0
 17 30  1  0
M  CHG  1   3  -1
M  END
>  <UniqueID>  (5) 
5

>  <SMILES>  (5) 
O=C([N-]c1cccc(F)c1)NCc1ccccc1F

>  <Energy>  (5) 
32.697883343759685

>  <Genealogy>  (5) 
O=C([N-]c1cccc(F)c1)NCc1ccccc1F (protonated)
O=C([N-]c1cccc(F)c1)NCc1ccccc1F (3D coordinates assigned)
O=C([N-]c1cccc(F)c1)NCc1ccccc1F (optimized conformer: 32.697883343759685 kcal/mol)

>  <smiles>  (5) 
O=C(NCc1ccccc1F)Nc1cccc(F)c1

>  <score_type>  (5) 
oracle

>  <origin>  (5) 
adg

>  <m_score__min__energy>  (5) 
-8.4499999999999993

>  <m_primary>  (5) 
energy

$$$$
5:0
     RDKit          3D

 44 46  0  0  0  0  0  0  0  0999 V2000
   56.2610   30.4580   52.3510 C   0  0  0  0  0  0  0  0  0  0  0  0
   57.3410   29.8990   51.6080 O   0  0  0  0  0  0  0  0  0  0  0  0
   58.1510   30.6230   50.7210 C   0  0  0  0  0  0  0  0  0  0  0  0
   58.7390   29.9440   49.6520 C   0  0  0  0  0  0  0  0  0  0  0  0
   59.5560   30.6160   48.7400 C   0  0  0  0  0  0  0  0  0  0  0  0
   59.8250   31.9960   48.8870 C   0  0  0  0  0  0  0  0  0  0  0  0
   60.6820   32.8080   47.8900 C   0  0  0  0  0  0  0  0  0  0  0  0
   59.8810   32.9930   46.5970 C   0  0  0  0  0  0  0  0  0  0  0  0
   60.4170   33.6090   45.6330 O   0  0  0  0  0  0  0  0  0  0  0  0
   58.5850   32.3960   46.4080 N   0  0  0  0  0  0  0  0  0  0  0  0
   58.0760   32.0060   45.1210 C   0  0  0  0  0  0  0  0  0  0  0  0
   57.4550   30.7550   44.9720 C   0  0  0  0  0  0  0  0  0  0  0  0
   56.9750   30.3480   43.7240 C   0  0  0  0  0  0  0  0  0  0  0  0
   57.1220   31.1790   42.6110 C   0  0  0  0  0  0  0  0  0  0  0  0
   57.7580   32.4170   42.7440 C   0  0  0  0  0  0  0  0  0  0  0  0
   58.2380   32.8300   43.9900 C   0  0  0  0  0  0  0  0  0  0  0  0
   62.0050   32.0090   47.6710 C   0  0  0  0  0  0  0  0  0  0  0  0
   63.1940   32.9410   47.3700 C   0  0  0  0  0  0  0  0  0  0  0  0
   63.4900   33.8490   48.4240 O   0  0  0  0  0  0  0  0  0  0  0  0
   62.3550   34.2550   49.1810 C   0  0  0  0  0  0  0  0  0  0  0  0
   61.0360   34.2460   48.3840 C   0  0  0  0  0  0  0  0  0  0  0  0
   59.2020   32.6750   49.9560 C   0  0  0  0  0  0  0  0  0  0  0  0
   58.3840   32.0000   50.8660 C   0  0  0  0  0  0  0  0  0  0  0  0
   56.4633   30.3533   53.4272 H   0  0  0  0  0  0  0  0  0  0  0  0
   56.1559   31.5237   52.0997 H   0  0  0  0  0  0  0  0  0  0  0  0
   55.3302   29.9285   52.0997 H   0  0  0  0  0  0  0  0  0  0  0  0
   58.5565   28.8665   49.5265 H   0  0  0  0  0  0  0  0  0  0  0  0
   59.9959   30.0641   47.8962 H   0  0  0  0  0  0  0  0  0  0  0  0
   57.9330   32.3190   47.2190 H   0  0  0  0  0  0  0  0  0  0  0  0
   57.3458   30.0917   45.8427 H   0  0  0  0  0  0  0  0  0  0  0  0
   56.4804   29.3712   43.6181 H   0  0  0  0  0  0  0  0  0  0  0  0
   56.7378   30.8598   41.6309 H   0  0  0  0  0  0  0  0  0  0  0  0
   57.8809   33.0677   41.8657 H   0  0  0  0  0  0  0  0  0  0  0  0
   58.7440   33.8018   44.0878 H   0  0  0  0  0  0  0  0  0  0  0  0
   62.2268   31.4316   48.5806 H   0  0  0  0  0  0  0  0  0  0  0  0
   61.8638   31.3451   46.8054 H   0  0  0  0  0  0  0  0  0  0  0  0
   64.0836   32.3207   47.1860 H   0  0  0  0  0  0  0  0  0  0  0  0
   62.9151   33.5452   46.4941 H   0  0  0  0  0  0  0  0  0  0  0  0
   62.2472   33.5721   50.0366 H   0  0  0  0  0  0  0  0  0  0  0  0
   62.5336   35.2954   49.4904 H   0  0  0  0  0  0  0  0  0  0  0  0
   60.2246   34.6130   49.0297 H   0  0  0  0  0  0  0  0  0  0  0  0
   61.1572   34.8954   47.5045 H   0  0  0  0  0  0  0  0  0  0  0  0
   59.3635   33.7565   50.0752 H   0  0  0  0  0  0  0  0  0  0  0  0
   57.9210   32.5494   51.6989 H   0  0  0  0  0  0  0  0  0  0  0  0
  1  2  1  0
  2  3  1  0
  3  4  2  0
  4  5  1  0
  5  6  2  0
  6  7  1  0
  7  8  1  0
  8  9  2  0
  8 10  1  0
 10 11  1  0
 11 12  2  0
 12 13  1  0
 13 14  2  0
 14 15  1  0
 15 16  2  0
  7 17  1  0
 17 18  1  0
 18 19  1  0
 19 20  1  0
 20 21  1  0
  6 22  1  0
 22 23  2  0
 23  3  1  0
 21  7  1  0
 16 11  1  0
  1 24  1  0
  1 25  1  0
  1 26  1  0
  4 27  1  0
  5 28  1  0
 10 29  1  0
 12 30  1  0
 13 31  1  0
 14 32  1  0
 15 33  1  0
 16 34  1  0
 17 35  1  0
 17 36  1  0
 18 37  1  0
 18 38  1  0
 20 39  1  0
 20 40  1  0
 21 41  1  0
 21 42  1  0
 22 43  1  0
 23 44  1  0
M  END
>  <UniqueID>  (6) 
6

>  <SMILES>  (6) 
COc1ccc(C2(C(=O)Nc3ccccc3)CCOCC2)cc1

>  <Energy>  (6) 
70.09338335351723

>  <Genealogy>  (6) 
COc1ccc(C2(C(=O)Nc3ccccc3)CCOCC2)cc1 (3D coordinates assigned)
COc1ccc(C2(C(=O)Nc3ccccc3)CCOCC2)cc1 (nonaromatic ring conformer: 70.09338335351723 kcal/mol)

>  <smiles>  (6) 
COc1ccc(C2(C(=O)Nc3ccccc3)CCOCC2)cc1

>  <score_type>  (6) 
oracle

>  <origin>  (6) 
adg

>  <m_score__min__energy>  (6) 
-7.0700000000000003

>  <m_primary>  (6) 
energy

$$$$
6:0
     RDKit          3D

 34 36  0  0  0  0  0  0  0  0999 V2000
   56.3210   22.8750   43.0260 C   0  0  0  0  0  0  0  0  0  0  0  0
   56.4290   23.3750   44.4620 C   0  0  0  0  0  0  0  0  0  0  0  0
   56.3590   24.8340   44.5060 N   0  0  0  0  0  0  0  0  0  0  0  0
   56.0390   25.5570   45.7010 C   0  0  0  0  0  0  0  0  0  0  0  0
   55.7860   24.9380   46.7700 O   0  0  0  0  0  0  0  0  0  0  0  0
   55.9640   26.9870   45.6520 N   0  0  0  0  0  0  0  0  0  0  0  0
   57.0360   27.9090   45.9000 C   0  0  0  0  0  0  0  0  0  0  0  0
   58.0150   27.5660   46.8390 C   0  0  0  0  0  0  0  0  0  0  0  0
   59.0650   28.4420   47.1260 C   0  0  0  0  0  0  0  0  0  0  0  0
   59.1420   29.6900   46.4850 C   0  0  0  0  0  0  0  0  0  0  0  0
   60.2540   30.6140   46.7920 C   0  0  0  0  0  0  0  0  0  0  0  0
   61.3740   30.2380   47.4740 N   0  0  0  0  0  0  0  0  0  0  0  0
   62.0670   31.3870   47.5010 C   0  0  0  0  0  0  0  0  0  0  0  0
   63.2830   31.5860   48.0690 N   0  0  0  0  0  0  0  0  0  0  0  0
   63.8430   32.8330   48.0010 C   0  0  0  0  0  0  0  0  0  0  0  0
   63.1630   33.8930   47.3510 C   0  0  0  0  0  0  0  0  0  0  0  0
   61.9030   33.6630   46.7700 C   0  0  0  0  0  0  0  0  0  0  0  0
   61.3870   32.3750   46.8720 C   0  0  0  0  0  0  0  0  0  0  0  0
   60.2600   31.8900   46.4320 O   0  0  0  0  0  0  0  0  0  0  0  0
   58.1460   30.0470   45.5620 C   0  0  0  0  0  0  0  0  0  0  0  0
   57.0970   29.1680   45.2760 C   0  0  0  0  0  0  0  0  0  0  0  0
   56.0888   21.7998   43.0286 H   0  0  0  0  0  0  0  0  0  0  0  0
   55.5203   23.4218   42.5066 H   0  0  0  0  0  0  0  0  0  0  0  0
   57.2761   23.0426   42.5066 H   0  0  0  0  0  0  0  0  0  0  0  0
   55.6021   22.9555   45.0539 H   0  0  0  0  0  0  0  0  0  0  0  0
   57.3957   23.0540   44.8772 H   0  0  0  0  0  0  0  0  0  0  0  0
   56.6120   25.3730   43.6480 H   0  0  0  0  0  0  0  0  0  0  0  0
   57.9574   26.5970   47.3564 H   0  0  0  0  0  0  0  0  0  0  0  0
   59.8347   28.1534   47.8569 H   0  0  0  0  0  0  0  0  0  0  0  0
   64.8287   33.0139   48.4545 H   0  0  0  0  0  0  0  0  0  0  0  0
   63.6193   34.8926   47.3011 H   0  0  0  0  0  0  0  0  0  0  0  0
   61.3507   34.4649   46.2583 H   0  0  0  0  0  0  0  0  0  0  0  0
   58.1913   31.0250   45.0605 H   0  0  0  0  0  0  0  0  0  0  0  0
   56.3158   29.4624   44.5597 H   0  0  0  0  0  0  0  0  0  0  0  0
  1  2  1  0
  2  3  1  0
  3  4  1  0
  4  5  2  0
  4  6  1  0
  6  7  1  0
  7  8  2  0
  8  9  1  0
  9 10  2  0
 10 11  1  0
 11 12  2  0
 12 13  1  0
 13 14  2  0
 14 15  1  0
 15 16  2  0
 16 17  1  0
 17 18  2  0
 18 19  1  0
 10 20  1  0
 20 21  2  0
 21  7  1  0
 19 11  1  0
 18 13  1  0
  1 22  1  0
  1 23  1  0
  1 24  1  0
  2 25  1  0
  2 26  1  0
  3 27  1  0
  8 28  1  0
  9 29  1  0
 15 30  1  0
 16 31  1  0
 17 32  1  0
 20 33  1  0
 21 34  1  0
M  CHG  1   6  -1
M  END
>  <UniqueID>  (7) 
7

>  <SMILES>  (7) 
CCNC(=O)[N-]c1ccc(-c2nc3ncccc3o2)cc1

>  <Energy>  (7) 
74.65751554854737

>  <Genealogy>  (7) 
CCNC(=O)[N-]c1ccc(-c2nc3ncccc3o2)cc1 (protonated)
CCNC(=O)[N-]c1ccc(-c2nc3ncccc3o2)cc1 (3D coordinates assigned)
CCNC(=O)[N-]c1ccc(-c2nc3ncccc3o2)cc1 (optimized conformer: 74.65751554854737 kcal/mol)

>  <smiles>  (7) 
CCNC(=O)Nc1ccc(-c2nc3ncccc3o2)cc1

>  <score_type>  (7) 
oracle

>  <origin>  (7) 
adg

>  <m_score__min__energy>  (7) 
-7.6699999999999999

>  <m_primary>  (7) 
energy

$$$$
7:0
     RDKit          3D

 27 28  0  0  0  0  0  0  0  0999 V2000
   58.0260   32.5240   41.0670 C   0  0  0  0  0  0  0  0  0  0  0  0
   57.1960   31.5860   41.9380 C   0  0  0  0  0  0  0  0  0  0  0  0
   57.4520   31.8450   43.4070 C   0  0  0  0  0  0  0  0  0  0  0  0
   58.1380   33.0170   43.7690 C   0  0  0  0  0  0  0  0  0  0  0  0
   58.4310   33.2830   45.1100 C   0  0  0  0  0  0  0  0  0  0  0  0
   59.1140   34.4490   45.4900 C   0  0  0  0  0  0  0  0  0  0  0  0
   59.3970   34.6840   46.8400 C   0  0  0  0  0  0  0  0  0  0  0  0
   59.0000   33.7590   47.8130 C   0  0  0  0  0  0  0  0  0  0  0  0
   58.3210   32.5950   47.4400 C   0  0  0  0  0  0  0  0  0  0  0  0
   58.0350   32.3520   46.0920 C   0  0  0  0  0  0  0  0  0  0  0  0
   57.3770   31.2220   45.7270 N   0  0  0  0  0  0  0  0  0  0  0  0
   57.0730   30.9370   44.4300 C   0  0  0  0  0  0  0  0  0  0  0  0
   56.3380   29.6530   44.1490 C   0  0  0  0  0  0  0  0  0  0  0  0
   55.4560   29.3480   45.1930 O   0  0  0  0  0  0  0  0  0  0  0  0
   58.6179   33.1929   41.7091 H   0  0  0  0  0  0  0  0  0  0  0  0
   58.7019   31.9325   40.4319 H   0  0  0  0  0  0  0  0  0  0  0  0
   57.3567   33.1229   40.4319 H   0  0  0  0  0  0  0  0  0  0  0  0
   56.1289   31.7464   41.7247 H   0  0  0  0  0  0  0  0  0  0  0  0
   57.4820   30.5488   41.7090 H   0  0  0  0  0  0  0  0  0  0  0  0
   58.4469   33.7307   42.9911 H   0  0  0  0  0  0  0  0  0  0  0  0
   59.4265   35.1773   44.7272 H   0  0  0  0  0  0  0  0  0  0  0  0
   59.9326   35.5976   47.1375 H   0  0  0  0  0  0  0  0  0  0  0  0
   59.2228   33.9484   48.8734 H   0  0  0  0  0  0  0  0  0  0  0  0
   58.0114   31.8697   48.2069 H   0  0  0  0  0  0  0  0  0  0  0  0
   55.7677   29.7606   43.2145 H   0  0  0  0  0  0  0  0  0  0  0  0
   57.0718   28.8387   44.0572 H   0  0  0  0  0  0  0  0  0  0  0  0
   55.8580   29.7200   46.0210 H   0  0  0  0  0  0  0  0  0  0  0  0
  1  2  1  0
  2  3  1  0
  3  4  2  0
  4  5  1  0
  5  6  2  0
  6  7  1  0
  7  8  2  0
  8  9  1  0
  9 10  2  0
 10 11  1  0
 11 12  2  0
 12 13  1  0
 13 14  1  0
 12  3  1  0
 10  5  1  0
  1 15  1  0
  1 16  1  0
  1 17  1  0
  2 18  1  0
  2 19  1  0
  4 20  1  0
  6 21  1  0
  7 22  1  0
  8 23  1  0
  9 24  1  0
 13 25  1  0
 13 26  1  0
 14 27  1  0
M  END
>  <UniqueID>  (8) 
8

>  <SMILES>  (8) 
CCc1cc2ccccc2nc1CO

>  <Energy>  (8) 
28.39569322677882

>  <Genealogy>  (8) 
CCc1cc2ccccc2nc1CO (3D coordinates assigned)
CCc1cc2ccccc2nc1CO (optimized conformer: 28.39569322677882 kcal/mol)

>  <smiles>  (8) 
CCc1cc2ccccc2nc1CO

>  <score_type>  (8) 
oracle

>  <origin>  (8) 
adg

>  <m_score__min__energy>  (8) 
-7.5599999999999996

>  <m_primary>  (8) 
energy

$$$$
8:0
     RDKit          3D

 45 47  0  0  0  0  0  0  0  0999 V2000
   55.2240   29.7210   43.5340 C   0  0  0  0  0  0  0  0  0  0  0  0
   55.4850   29.3240   44.8750 O   0  0  0  0  0  0  0  0  0  0  0  0
   56.5960   28.5550   45.2370 C   0  0  0  0  0  0  0  0  0  0  0  0
   56.4330   27.3890   45.9260 N   0  0  0  0  0  0  0  0  0  0  0  0
   57.4850   26.6090   46.2830 C   0  0  0  0  0  0  0  0  0  0  0  0
   58.7840   26.9880   45.9390 C   0  0  0  0  0  0  0  0  0  0  0  0
   60.1490   25.9800   46.3830 Cl  0  0  0  0  0  0  0  0  0  0  0  0
   58.9840   28.1760   45.2340 C   0  0  0  0  0  0  0  0  0  0  0  0
   57.8900   28.9820   44.8870 C   0  0  0  0  0  0  0  0  0  0  0  0
   58.1000   30.2480   44.0960 C   0  0  0  0  0  0  0  0  0  0  0  0
   57.3860   31.3670   44.7130 N   0  0  0  0  0  0  0  0  0  0  0  0
   58.0460   32.5410   45.2260 C   0  0  0  0  0  0  0  0  0  0  0  0
   57.8580   33.8060   44.6480 C   0  0  0  0  0  0  0  0  0  0  0  0
   58.5240   34.9170   45.1590 C   0  0  0  0  0  0  0  0  0  0  0  0
   59.3780   34.7930   46.2560 C   0  0  0  0  0  0  0  0  0  0  0  0
   60.0230   35.9050   46.6840 F   0  0  0  0  0  0  0  0  0  0  0  0
   59.5730   33.5370   46.8790 C   0  0  0  0  0  0  0  0  0  0  0  0
   60.5280   33.3720   48.0720 C   0  0  1  0  0  0  0  0  0  0  0  0
   60.5200   34.5820   49.0250 C   0  0  0  0  0  0  0  0  0  0  0  0
   60.1950   32.1840   48.8580 N   0  0  0  0  0  0  0  0  0  0  0  0
   61.2100   31.3880   48.8100 C   0  0  0  0  0  0  0  0  0  0  0  0
   61.2250   30.1240   49.4670 N   0  0  0  0  0  0  0  0  0  0  0  0
   62.3010   31.8710   48.0460 N   0  0  0  0  0  0  0  0  0  0  0  0
   61.9260   33.0290   47.6160 C   0  0  0  0  0  0  0  0  0  0  0  0
   62.7970   33.8660   46.7320 C   0  0  0  0  0  0  0  0  0  0  0  0
   58.9050   32.4160   46.3300 C   0  0  0  0  0  0  0  0  0  0  0  0
   54.6197   30.6402   43.5347 H   0  0  0  0  0  0  0  0  0  0  0  0
   56.1757   29.9083   43.0152 H   0  0  0  0  0  0  0  0  0  0  0  0
   54.6748   28.9215   43.0152 H   0  0  0  0  0  0  0  0  0  0  0  0
   57.3140   25.6781   46.8435 H   0  0  0  0  0  0  0  0  0  0  0  0
   60.0021   28.4807   44.9499 H   0  0  0  0  0  0  0  0  0  0  0  0
   59.1749   30.4794   44.0632 H   0  0  0  0  0  0  0  0  0  0  0  0
   57.7111   30.0980   43.0780 H   0  0  0  0  0  0  0  0  0  0  0  0
   56.3440   31.3160   44.7900 H   0  0  0  0  0  0  0  0  0  0  0  0
   57.1819   33.9203   43.7879 H   0  0  0  0  0  0  0  0  0  0  0  0
   58.3755   35.9025   44.6933 H   0  0  0  0  0  0  0  0  0  0  0  0
   60.5223   34.2284   50.0666 H   0  0  0  0  0  0  0  0  0  0  0  0
   61.4141   35.1968   48.8445 H   0  0  0  0  0  0  0  0  0  0  0  0
   59.6178   35.1849   48.8445 H   0  0  0  0  0  0  0  0  0  0  0  0
   60.3970   29.8040   50.0180 H   0  0  0  0  0  0  0  0  0  0  0  0
   62.0650   29.5080   49.4000 H   0  0  0  0  0  0  0  0  0  0  0  0
   63.4520   34.4954   47.3524 H   0  0  0  0  0  0  0  0  0  0  0  0
   63.4119   33.2112   46.0970 H   0  0  0  0  0  0  0  0  0  0  0  0
   62.1672   34.5064   46.0970 H   0  0  0  0  0  0  0  0  0  0  0  0
   59.0624   31.4240   46.7786 H   0  0  0  0  0  0  0  0  0  0  0  0
  1  2  1  0
  2  3  1  0
  3  4  2  0
  4  5  1  0
  5  6  2  0
  6  7  1  0
  6  8  1  0
  8  9  2  0
  9 10  1  0
 10 11  1  0
 11 12  1  0
 12 13  2  0
 13 14  1  0
 14 15  2  0
 15 16  1  0
 15 17  1  0
 17 18  1  0
 18 19  1  1
 18 20  1  0
 20 21  2  0
 21 22  1  0
 21 23  1  0
 23 24  2  0
 24 25  1  0
 17 26  2  0
  9  3  1  0
 26 12  1  0
 24 18  1  0
  1 27  1  0
  1 28  1  0
  1 29  1  0
  5 30  1  0
  8 31  1  0
 10 32  1  0
 10 33  1  0
 11 34  1  0
 13 35  1  0
 14 36  1  0
 19 37  1  0
 19 38  1  0
 19 39  1  0
 22 40  1  0
 22 41  1  0
 25 42  1  0
 25 43  1  0
 25 44  1  0
 26 45  1  0
M  END
>  <UniqueID>  (9) 
9

>  <SMILES>  (9) 
COc1ncc(Cl)cc1CNc1ccc(F)c([C@@]2(C)N=C(N)N=C2C)c1

>  <Energy>  (9) 
64.86774482277615

>  <Genealogy>  (9) 
COc1ncc(Cl)cc1CNc1ccc(F)c([C@@]2(C)N=C(N)N=C2C)c1 (chirality)
COc1ncc(Cl)cc1CNc1ccc(F)c([C@@]2(C)N=C(N)N=C2C)c1 (3D coordinates assigned)
COc1ncc(Cl)cc1CNc1ccc(F)c([C@@]2(C)N=C(N)N=C2C)c1 (nonaromatic ring conformer: 64.86774482277615 kcal/mol)

>  <smiles>  (9) 
COc1ncc(Cl)cc1CNc1ccc(F)c(C2(C)N=C(N)N=C2C)c1

>  <score_type>  (9) 
oracle

>  <origin>  (9) 
adg

>  <m_score__min__energy>  (9) 
-8.1500000000000004

>  <m_primary>  (9) 
energy

$$$$
9:0
     RDKit          3D

 42 43  0  0  0  0  0  0  0  0999 V2000
   60.9450   30.6950   47.1030 C   0  0  0  0  0  0  0  0  0  0  0  0
   59.9160   30.6820   46.1180 O   0  0  0  0  0  0  0  0  0  0  0  0
   59.0940   29.5790   45.8370 C   0  0  0  0  0  0  0  0  0  0  0  0
   59.5810   28.2600   45.8810 C   0  0  0  0  0  0  0  0  0  0  0  0
   58.7350   27.1910   45.6010 C   0  0  0  0  0  0  0  0  0  0  0  0
   57.4000   27.4180   45.2710 C   0  0  0  0  0  0  0  0  0  0  0  0
   56.8880   28.7300   45.2150 C   0  0  0  0  0  0  0  0  0  0  0  0
   55.5480   28.9640   44.8700 O   0  0  0  0  0  0  0  0  0  0  0  0
   55.1130   29.7080   43.7360 C   0  0  0  0  0  0  0  0  0  0  0  0
   57.7500   29.8210   45.5070 C   0  0  0  0  0  0  0  0  0  0  0  0
   57.3400   31.1670   45.4880 O   0  0  0  0  0  0  0  0  0  0  0  0
   57.3840   32.0590   44.3790 C   0  0  0  0  0  0  0  0  0  0  0  0
   58.5610   33.0260   44.5330 C   0  0  0  0  0  0  0  0  0  0  0  0
   58.2120   34.1660   45.4150 N   0  0  0  0  0  0  0  0  0  0  0  0
   57.4820   33.7790   46.6470 C   0  0  0  0  0  0  0  0  0  0  0  0
   58.3820   33.0940   47.6900 C   0  0  0  0  0  0  0  0  0  0  0  0
   59.6100   33.9490   48.0010 C   0  0  0  0  0  0  0  0  0  0  0  0
   60.3440   34.3330   46.7150 C   0  0  0  0  0  0  0  0  0  0  0  0
   59.3810   35.0160   45.7320 C   0  0  0  0  0  0  0  0  0  0  0  0
   60.4928   30.6893   48.1057 H   0  0  0  0  0  0  0  0  0  0  0  0
   61.5797   29.8048   46.9819 H   0  0  0  0  0  0  0  0  0  0  0  0
   61.5570   31.6009   46.9819 H   0  0  0  0  0  0  0  0  0  0  0  0
   60.6342   28.0729   46.1376 H   0  0  0  0  0  0  0  0  0  0  0  0
   59.1218   26.1620   45.6403 H   0  0  0  0  0  0  0  0  0  0  0  0
   56.7401   26.5656   45.0523 H   0  0  0  0  0  0  0  0  0  0  0  0
   54.5843   30.6123   44.0716 H   0  0  0  0  0  0  0  0  0  0  0  0
   55.9847   29.9965   43.1303 H   0  0  0  0  0  0  0  0  0  0  0  0
   54.4341   29.0898   43.1303 H   0  0  0  0  0  0  0  0  0  0  0  0
   57.5060   31.4811   43.4510 H   0  0  0  0  0  0  0  0  0  0  0  0
   56.4467   32.6334   44.3395 H   0  0  0  0  0  0  0  0  0  0  0  0
   59.4143   32.4850   44.9679 H   0  0  0  0  0  0  0  0  0  0  0  0
   58.8161   33.4223   43.5391 H   0  0  0  0  0  0  0  0  0  0  0  0
   57.0503   34.6849   47.0976 H   0  0  0  0  0  0  0  0  0  0  0  0
   56.7066   33.0551   46.3559 H   0  0  0  0  0  0  0  0  0  0  0  0
   57.8073   32.9401   48.6152 H   0  0  0  0  0  0  0  0  0  0  0  0
   58.7206   32.1305   47.2814 H   0  0  0  0  0  0  0  0  0  0  0  0
   59.2901   34.8642   48.5207 H   0  0  0  0  0  0  0  0  0  0  0  0
   60.2933   33.3668   48.6367 H   0  0  0  0  0  0  0  0  0  0  0  0
   61.1641   35.0245   46.9585 H   0  0  0  0  0  0  0  0  0  0  0  0
   60.7443   33.4216   46.2470 H   0  0  0  0  0  0  0  0  0  0  0  0
   59.0251   35.9557   46.1796 H   0  0  0  0  0  0  0  0  0  0  0  0
   59.9283   35.2013   44.7960 H   0  0  0  0  0  0  0  0  0  0  0  0
  1  2  1  0
  2  3  1  0
  3  4  2  0
  4  5  1  0
  5  6  2  0
  6  7  1  0
  7  8  1  0
  8  9  1  0
  7 10  2  0
 10 11  1  0
 11 12  1  0
 12 13  1  0
 13 14  1  0
 14 15  1  0
 15 16  1  0
 16 17  1  0
 17 18  1  0
 18 19  1  0
 10  3  1  0
 19 14  1  0
  1 20  1  0
  1 21  1  0
  1 22  1  0
  4 23  1  0
  5 24  1  0
  6 25  1  0
  9 26  1  0
  9 27  1  0
  9 28  1  0
 12 29  1  0
 12 30  1  0
 13 31  1  0
 13 32  1  0
 15 33  1  0
 15 34  1  0
 16 35  1  0
 16 36  1  0
 17 37  1  0
 17 38  1  0
 18 39  1  0
 18 40  1  0
 19 41  1  0
 19 42  1  0
M  END
>  <UniqueID>  (10) 
10

>  <SMILES>  (10) 
COc1cccc(OC)c1OCCN1CCCCC1

>  <Energy>  (10) 
41.75835024362321

>  <Genealogy>  (10) 
COc1cccc(OC)c1OCCN1CCCCC1 (3D coordinates assigned)
COc1cccc(OC)c1OCCN1CCCCC1 (nonaromatic ring conformer: 41.75835024362321 kcal/mol)

>  <smiles>  (10) 
COc1cccc(OC)c1OCCN1CCCCC1

>  <score_type>  (10) 
oracle

>  <origin>  (10) 
adg

>  <m_score__min__energy>  (10) 
-6.4000000000000004

>  <m_primary>  (10) 
energy

$$$$
10:0
     RDKit          3D

 38 41  0  0  0  0  0  0  0  0999 V2000
   61.1150   26.8000   50.5080 C   0  0  0  0  0  0  0  0  0  0  0  0
   60.3950   26.9510   49.2500 N   0  0  0  0  0  0  0  0  0  0  0  0
   59.7710   28.1910   48.8830 C   0  0  0  0  0  0  0  0  0  0  0  0
   59.8430   29.1800   49.6640 O   0  0  0  0  0  0  0  0  0  0  0  0
   59.0460   28.3170   47.6010 C   0  0  0  0  0  0  0  0  0  0  0  0
   58.9750   29.5570   46.9300 C   0  0  0  0  0  0  0  0  0  0  0  0
   58.2860   29.5900   45.7240 C   0  0  0  0  0  0  0  0  0  0  0  0
   57.6850   28.4690   45.1930 C   0  0  0  0  0  0  0  0  0  0  0  0
   57.1330   28.7330   43.9850 N   0  0  0  0  0  0  0  0  0  0  0  0
   57.3810   30.0440   43.7690 C   0  0  0  0  0  0  0  0  0  0  0  0
   57.0240   30.7950   42.6520 C   0  0  0  0  0  0  0  0  0  0  0  0
   57.3990   32.1520   42.6220 C   0  0  0  0  0  0  0  0  0  0  0  0
   58.1210   32.7210   43.6950 C   0  0  0  0  0  0  0  0  0  0  0  0
   58.4760   31.9410   44.8100 C   0  0  0  0  0  0  0  0  0  0  0  0
   58.0850   30.6040   44.8160 C   0  0  0  0  0  0  0  0  0  0  0  0
   57.7470   27.2480   45.8760 C   0  0  0  0  0  0  0  0  0  0  0  0
   57.1080   26.0130   45.3750 C   0  0  0  0  0  0  0  0  0  0  0  0
   57.6210   25.3360   44.2540 C   0  0  0  0  0  0  0  0  0  0  0  0
   56.9900   24.1830   43.7780 C   0  0  0  0  0  0  0  0  0  0  0  0
   55.8360   23.7040   44.4040 C   0  0  0  0  0  0  0  0  0  0  0  0
   55.2250   22.5870   43.9380 F   0  0  0  0  0  0  0  0  0  0  0  0
   55.3070   24.3840   45.5040 C   0  0  0  0  0  0  0  0  0  0  0  0
   55.9340   25.5380   45.9840 C   0  0  0  0  0  0  0  0  0  0  0  0
   58.4370   27.2160   47.0560 N   0  0  0  0  0  0  0  0  0  0  0  0
   60.4200   26.9458   51.3480 H   0  0  0  0  0  0  0  0  0  0  0  0
   61.5499   25.7911   50.5628 H   0  0  0  0  0  0  0  0  0  0  0  0
   61.9186   27.5491   50.5628 H   0  0  0  0  0  0  0  0  0  0  0  0
   60.3430   26.1280   48.6080 H   0  0  0  0  0  0  0  0  0  0  0  0
   59.4460   30.4603   47.3451 H   0  0  0  0  0  0  0  0  0  0  0  0
   56.6540   28.0730   43.3330 H   0  0  0  0  0  0  0  0  0  0  0  0
   56.4663   30.3423   41.8189 H   0  0  0  0  0  0  0  0  0  0  0  0
   57.1277   32.7740   41.7563 H   0  0  0  0  0  0  0  0  0  0  0  0
   58.4076   33.7823   43.6579 H   0  0  0  0  0  0  0  0  0  0  0  0
   59.0429   32.3718   45.6485 H   0  0  0  0  0  0  0  0  0  0  0  0
   58.5222   25.7152   43.7499 H   0  0  0  0  0  0  0  0  0  0  0  0
   57.4030   23.6512   42.9082 H   0  0  0  0  0  0  0  0  0  0  0  0
   54.3953   24.0107   45.9934 H   0  0  0  0  0  0  0  0  0  0  0  0
   55.5062   26.0766   46.8424 H   0  0  0  0  0  0  0  0  0  0  0  0
  1  2  1  0
  2  3  1  0
  3  4  2  0
  3  5  1  0
  5  6  2  0
  6  7  1  0
  7  8  2  0
  8  9  1  0
  9 10  1  0
 10 11  2  0
 11 12  1  0
 12 13  2  0
 13 14  1  0
 14 15  2  0
  8 16  1  0
 16 17  1  0
 17 18  2  0
 18 19  1  0
 19 20  2  0
 20 21  1  0
 20 22  1  0
 22 23  2  0
 16 24  2  0
 24  5  1  0
 15  7  1  0
 23 17  1  0
 15 10  1  0
  1 25  1  0
  1 26  1  0
  1 27  1  0
  2 28  1  0
  6 29  1  0
  9 30  1  0
 11 31  1  0
 12 32  1  0
 13 33  1  0
 14 34  1  0
 18 35  1  0
 19 36  1  0
 22 37  1  0
 23 38  1  0
M  END
>  <UniqueID>  (11) 
11

>  <SMILES>  (11) 
CNC(=O)c1cc2c([nH]c3ccccc32)c(-c2ccc(F)cc2)n1

>  <Energy>  (11) 
86.71946089804547

>  <Genealogy>  (11) 
CNC(=O)c1cc2c([nH]c3ccccc32)c(-c2ccc(F)cc2)n1 (3D coordinates assigned)
CNC(=O)c1cc2c([nH]c3ccccc32)c(-c2ccc(F)cc2)n1 (optimized conformer: 86.71946089804547 kcal/mol)

>  <smiles>  (11) 
CNC(=O)c1cc2c([nH]c3ccccc32)c(-c2ccc(F)cc2)n1

>  <score_type>  (11) 
oracle

>  <origin>  (11) 
adg

>  <m_score__min__energy>  (11) 
-7.1100000000000003

>  <m_primary>  (11) 
energy

$$$$
11:0
     RDKit          3D

 30 33  0  0  0  0  0  0  0  0999 V2000
   59.3010   35.7020   46.6980 N   0  0  0  0  0  0  0  0  0  0  0  0
   58.8810   34.3970   46.2920 C   0  0  0  0  0  0  0  0  0  0  0  0
   58.9570   33.3140   47.1990 C   0  0  0  0  0  0  0  0  0  0  0  0
   58.5470   32.0250   46.8140 C   0  0  0  0  0  0  0  0  0  0  0  0
   58.0660   31.8510   45.5140 C   0  0  0  0  0  0  0  0  0  0  0  0
   57.5960   30.7340   44.8400 C   0  0  0  0  0  0  0  0  0  0  0  0
   57.4640   29.3500   45.3290 C   0  0  0  0  0  0  0  0  0  0  0  0
   58.4980   28.6790   45.9050 N   0  0  0  0  0  0  0  0  0  0  0  0
   57.9500   27.4900   46.1920 C   0  0  0  0  0  0  0  0  0  0  0  0
   58.5610   26.3940   46.7990 C   0  0  0  0  0  0  0  0  0  0  0  0
   57.7790   25.2410   47.0010 C   0  0  0  0  0  0  0  0  0  0  0  0
   56.4250   25.2160   46.5940 C   0  0  0  0  0  0  0  0  0  0  0  0
   55.8440   26.3430   45.9840 C   0  0  0  0  0  0  0  0  0  0  0  0
   56.6480   27.4650   45.8010 C   0  0  0  0  0  0  0  0  0  0  0  0
   56.3090   28.6370   45.2470 N   0  0  0  0  0  0  0  0  0  0  0  0
   57.2580   31.1800   43.5660 C   0  0  0  0  0  0  0  0  0  0  0  0
   57.5030   32.5040   43.4460 N   0  0  0  0  0  0  0  0  0  0  0  0
   57.9930   32.9010   44.6330 C   0  0  0  0  0  0  0  0  0  0  0  0
   58.3920   34.1890   44.9860 C   0  0  0  0  0  0  0  0  0  0  0  0
   58.8570   36.1770   47.5160 H   0  0  0  0  0  0  0  0  0  0  0  0
   60.0610   36.2030   46.1840 H   0  0  0  0  0  0  0  0  0  0  0  0
   59.3408   33.4819   48.2161 H   0  0  0  0  0  0  0  0  0  0  0  0
   58.6033   31.1794   47.5153 H   0  0  0  0  0  0  0  0  0  0  0  0
   59.6159   26.4288   47.1089 H   0  0  0  0  0  0  0  0  0  0  0  0
   58.2235   24.3550   47.4779 H   0  0  0  0  0  0  0  0  0  0  0  0
   55.8223   24.3100   46.7553 H   0  0  0  0  0  0  0  0  0  0  0  0
   54.7919   26.3379   45.6631 H   0  0  0  0  0  0  0  0  0  0  0  0
   56.8484   30.5437   42.7676 H   0  0  0  0  0  0  0  0  0  0  0  0
   57.3420   33.0940   42.6000 H   0  0  0  0  0  0  0  0  0  0  0  0
   58.3273   35.0188   44.2668 H   0  0  0  0  0  0  0  0  0  0  0  0
  1  2  1  0
  2  3  2  0
  3  4  1  0
  4  5  2  0
  5  6  1  0
  6  7  1  0
  7  8  2  0
  8  9  1  0
  9 10  2  0
 10 11  1  0
 11 12  2  0
 12 13  1  0
 13 14  2  0
 14 15  1  0
  6 16  2  0
 16 17  1  0
 17 18  1  0
 18 19  2  0
 19  2  1  0
 18  5  1  0
 15  7  1  0
 14  9  1  0
  1 20  1  0
  1 21  1  0
  3 22  1  0
  4 23  1  0
 10 24  1  0
 11 25  1  0
 12 26  1  0
 13 27  1  0
 16 28  1  0
 17 29  1  0
 19 30  1  0
M  CHG  1  15  -1
M  END
>  <UniqueID>  (12) 
12

>  <SMILES>  (12) 
Nc1ccc2c(-c3nc4ccccc4[n-]3)c[nH]c2c1

>  <Energy>  (12) 
101.84875546857937

>  <Genealogy>  (12) 
Nc1ccc2c(-c3nc4ccccc4[n-]3)c[nH]c2c1 (protonated)
Nc1ccc2c(-c3nc4ccccc4[n-]3)c[nH]c2c1 (3D coordinates assigned)
Nc1ccc2c(-c3nc4ccccc4[n-]3)c[nH]c2c1 (optimized conformer: 101.84875546857937 kcal/mol)

>  <smiles>  (12) 
Nc1ccc2c(-c3nc4ccccc4[nH]3)c[nH]c2c1

>  <score_type>  (12) 
oracle

>  <origin>  (12) 
adg

>  <m_score__min__energy>  (12) 
-7.75

>  <m_primary>  (12) 
energy

$$$$
12:0
     RDKit          3D

 34 36  0  0  0  0  0  0  0  0999 V2000
   55.0830   29.3200   44.4910 O   0  0  0  0  0  0  0  0  0  0  0  0
   56.3180   29.2860   44.7460 C   0  0  0  0  0  0  0  0  0  0  0  0
   56.9980   28.0330   44.8510 N   0  0  0  0  0  0  0  0  0  0  0  0
   56.8050   27.1140   45.9660 C   0  0  0  0  0  0  0  0  0  0  0  0
   58.1580   26.6740   46.5260 C   0  0  0  0  0  0  0  0  0  0  0  0
   59.1090   27.8370   46.6420 C   0  0  0  0  0  0  0  0  0  0  0  0
   59.9010   28.2190   45.5440 C   0  0  0  0  0  0  0  0  0  0  0  0
   60.7550   29.3220   45.6430 C   0  0  0  0  0  0  0  0  0  0  0  0
   60.8200   30.0550   46.8310 C   0  0  0  0  0  0  0  0  0  0  0  0
   60.0290   29.6870   47.9230 C   0  0  0  0  0  0  0  0  0  0  0  0
   59.1720   28.5860   47.8290 C   0  0  0  0  0  0  0  0  0  0  0  0
   57.0580   30.5370   44.9400 C   0  0  0  0  0  0  0  0  0  0  0  0
   57.2900   31.5020   43.9610 C   0  0  0  0  0  0  0  0  0  0  0  0
   58.0190   32.4600   44.6290 C   0  0  0  0  0  0  0  0  0  0  0  0
   58.5370   33.6630   44.1580 C   0  0  0  0  0  0  0  0  0  0  0  0
   59.2510   34.4610   45.0670 C   0  0  0  0  0  0  0  0  0  0  0  0
   59.4240   34.0390   46.3990 C   0  0  0  0  0  0  0  0  0  0  0  0
   58.8780   32.8140   46.8140 C   0  0  0  0  0  0  0  0  0  0  0  0
   58.1950   32.0750   45.9030 N   0  0  0  0  0  0  0  0  0  0  0  0
   57.6180   30.9060   46.1150 N   0  0  0  0  0  0  0  0  0  0  0  0
   56.2305   27.6179   46.7572 H   0  0  0  0  0  0  0  0  0  0  0  0
   56.2575   26.2283   45.6113 H   0  0  0  0  0  0  0  0  0  0  0  0
   58.0069   26.2343   47.5229 H   0  0  0  0  0  0  0  0  0  0  0  0
   58.5950   25.9366   45.8366 H   0  0  0  0  0  0  0  0  0  0  0  0
   59.8484   27.6486   44.6049 H   0  0  0  0  0  0  0  0  0  0  0  0
   61.3770   29.6133   44.7838 H   0  0  0  0  0  0  0  0  0  0  0  0
   61.4935   30.9214   46.9067 H   0  0  0  0  0  0  0  0  0  0  0  0
   60.0807   30.2644   48.8579 H   0  0  0  0  0  0  0  0  0  0  0  0
   58.5447   28.3052   48.6878 H   0  0  0  0  0  0  0  0  0  0  0  0
   56.9684   31.4988   42.9091 H   0  0  0  0  0  0  0  0  0  0  0  0
   58.3927   33.9768   43.1136 H   0  0  0  0  0  0  0  0  0  0  0  0
   59.6769   35.4199   44.7367 H   0  0  0  0  0  0  0  0  0  0  0  0
   59.9833   34.6650   47.1099 H   0  0  0  0  0  0  0  0  0  0  0  0
   59.0003   32.4626   47.8492 H   0  0  0  0  0  0  0  0  0  0  0  0
  1  2  2  0
  2  3  1  0
  3  4  1  0
  4  5  1  0
  5  6  1  0
  6  7  2  0
  7  8  1  0
  8  9  2  0
  9 10  1  0
 10 11  2  0
  2 12  1  0
 12 13  1  0
 13 14  2  0
 14 15  1  0
 15 16  2  0
 16 17  1  0
 17 18  2  0
 18 19  1  0
 19 20  1  0
 11  6  1  0
 20 12  2  0
 19 14  1  0
  4 21  1  0
  4 22  1  0
  5 23  1  0
  5 24  1  0
  7 25  1  0
  8 26  1  0
  9 27  1  0
 10 28  1  0
 11 29  1  0
 13 30  1  0
 15 31  1  0
 16 32  1  0
 17 33  1  0
 18 34  1  0
M  CHG  1   3  -1
M  END
>  <UniqueID>  (13) 
13

>  <SMILES>  (13) 
O=C([N-]CCc1ccccc1)c1cc2ccccn2n1

>  <Energy>  (13) 
65.14374313855612

>  <Genealogy>  (13) 
O=C([N-]CCc1ccccc1)c1cc2ccccn2n1 (protonated)
O=C([N-]CCc1ccccc1)c1cc2ccccn2n1 (3D coordinates assigned)
O=C([N-]CCc1ccccc1)c1cc2ccccn2n1 (optimized conformer: 65.14374313855612 kcal/mol)

>  <smiles>  (13) 
O=C(NCCc1ccccc1)c1cc2ccccn2n1

>  <score_type>  (13) 
oracle

>  <origin>  (13) 
adg

>  <m_score__min__energy>  (13) 
-8.8000000000000007

>  <m_primary>  (13) 
energy

$$$$
13:0
     RDKit          3D

 42 44  0  0  0  0  0  0  0  0999 V2000
   65.6680   33.5390   51.1480 F   0  0  0  0  0  0  0  0  0  0  0  0
   64.5500   33.5760   50.3810 C   0  0  0  0  0  0  0  0  0  0  0  0
   64.5670   33.0330   49.0950 C   0  0  0  0  0  0  0  0  0  0  0  0
   63.4150   33.0670   48.3030 C   0  0  0  0  0  0  0  0  0  0  0  0
   62.2300   33.6500   48.7920 C   0  0  0  0  0  0  0  0  0  0  0  0
   61.0330   33.6760   47.9840 N   0  0  0  0  0  0  0  0  0  0  0  0
   61.1220   33.7210   46.5170 C   0  0  0  0  0  0  0  0  0  0  0  0
   59.9450   34.5150   45.9290 C   0  0  0  0  0  0  0  0  0  0  0  0
   58.6290   34.1630   46.5230 N   0  0  0  0  0  0  0  0  0  0  0  0
   57.5660   33.9410   45.5210 C   0  0  0  0  0  0  0  0  0  0  0  0
   57.9730   32.9870   44.3680 C   0  0  0  0  0  0  0  0  0  0  0  0
   57.7560   31.5330   44.7190 C   0  0  0  0  0  0  0  0  0  0  0  0
   56.5250   30.9110   44.4460 C   0  0  0  0  0  0  0  0  0  0  0  0
   56.3250   29.5660   44.7710 C   0  0  0  0  0  0  0  0  0  0  0  0
   55.1360   28.9730   44.4990 F   0  0  0  0  0  0  0  0  0  0  0  0
   57.3470   28.8340   45.3800 C   0  0  0  0  0  0  0  0  0  0  0  0
   58.5680   29.4470   45.6710 C   0  0  0  0  0  0  0  0  0  0  0  0
   58.7750   30.7910   45.3460 C   0  0  0  0  0  0  0  0  0  0  0  0
   59.9660   31.3700   45.6460 F   0  0  0  0  0  0  0  0  0  0  0  0
   58.6600   33.1290   47.5730 C   0  0  0  0  0  0  0  0  0  0  0  0
   59.7220   33.4720   48.6180 C   0  0  0  0  0  0  0  0  0  0  0  0
   62.2260   34.1940   50.0900 C   0  0  0  0  0  0  0  0  0  0  0  0
   63.3810   34.1580   50.8770 C   0  0  0  0  0  0  0  0  0  0  0  0
   65.4886   32.5774   48.7038 H   0  0  0  0  0  0  0  0  0  0  0  0
   63.4346   32.6355   47.2914 H   0  0  0  0  0  0  0  0  0  0  0  0
   62.0660   34.2052   46.2266 H   0  0  0  0  0  0  0  0  0  0  0  0
   61.0868   32.6929   46.1274 H   0  0  0  0  0  0  0  0  0  0  0  0
   60.1282   35.5859   46.1014 H   0  0  0  0  0  0  0  0  0  0  0  0
   59.8915   34.2644   44.8593 H   0  0  0  0  0  0  0  0  0  0  0  0
   56.6926   33.5111   46.0332 H   0  0  0  0  0  0  0  0  0  0  0  0
   57.3515   34.9182   45.0638 H   0  0  0  0  0  0  0  0  0  0  0  0
   57.3711   33.2295   43.4798 H   0  0  0  0  0  0  0  0  0  0  0  0
   59.0471   33.1294   44.1784 H   0  0  0  0  0  0  0  0  0  0  0  0
   55.7146   31.4859   43.9740 H   0  0  0  0  0  0  0  0  0  0  0  0
   57.1903   27.7744   45.6305 H   0  0  0  0  0  0  0  0  0  0  0  0
   59.3689   28.8707   46.1572 H   0  0  0  0  0  0  0  0  0  0  0  0
   57.6750   33.0752   48.0596 H   0  0  0  0  0  0  0  0  0  0  0  0
   58.9054   32.1592   47.1157 H   0  0  0  0  0  0  0  0  0  0  0  0
   59.4277   34.3933   49.1420 H   0  0  0  0  0  0  0  0  0  0  0  0
   59.8005   32.6355   49.3280 H   0  0  0  0  0  0  0  0  0  0  0  0
   61.3078   34.6506   50.4880 H   0  0  0  0  0  0  0  0  0  0  0  0
   63.3692   34.5889   51.8890 H   0  0  0  0  0  0  0  0  0  0  0  0
  1  2  1  0
  2  3  2  0
  3  4  1  0
  4  5  2  0
  5  6  1  0
  6  7  1  0
  7  8  1  0
  8  9  1  0
  9 10  1  0
 10 11  1  0
 11 12  1  0
 12 13  2  0
 13 14  1  0
 14 15  1  0
 14 16  2  0
 16 17  1  0
 17 18  2  0
 18 19  1  0
  9 20  1  0
 20 21  1  0
  5 22  1  0
 22 23  2  0
 23  2  1  0
 21  6  1  0
 18 12  1  0
  3 24  1  0
  4 25  1  0
  7 26  1  0
  7 27  1  0
  8 28  1  0
  8 29  1  0
 10 30  1  0
 10 31  1  0
 11 32  1  0
 11 33  1  0
 13 34  1  0
 16 35  1  0
 17 36  1  0
 20 37  1  0
 20 38  1  0
 21 39  1  0
 21 40  1  0
 22 41  1  0
 23 42  1  0
M  END
>  <UniqueID>  (14) 
14

>  <SMILES>  (14) 
Fc1ccc(N2CCN(CCc3cc(F)ccc3F)CC2)cc1

>  <Energy>  (14) 
56.90589969068185

>  <Genealogy>  (14) 
Fc1ccc(N2CCN(CCc3cc(F)ccc3F)CC2)cc1 (3D coordinates assigned)
Fc1ccc(N2CCN(CCc3cc(F)ccc3F)CC2)cc1 (nonaromatic ring conformer: 56.90589969068185 kcal/mol)

>  <smiles>  (14) 
Fc1ccc(N2CCN(CCc3cc(F)ccc3F)CC2)cc1

>  <score_type>  (14) 
oracle

>  <origin>  (14) 
adg

>  <m_score__min__energy>  (14) 
-7.04

>  <m_primary>  (14) 
energy

$$$$
14:0
     RDKit          3D

 35 37  0  0  0  0  0  0  0  0999 V2000
   55.9890   25.3840   46.8760 O   0  0  0  0  0  0  0  0  0  0  0  0
   56.6250   26.3580   46.3950 C   0  0  0  0  0  0  0  0  0  0  0  0
   55.9070   27.3370   45.6290 N   0  0  0  0  0  0  0  0  0  0  0  0
   56.3620   28.6600   45.3020 C   0  0  0  0  0  0  0  0  0  0  0  0
   57.5840   29.1560   45.7910 C   0  0  0  0  0  0  0  0  0  0  0  0
   58.0050   30.4620   45.4830 C   0  0  0  0  0  0  0  0  0  0  0  0
   59.2680   30.9960   46.0520 C   0  0  0  0  0  0  0  0  0  0  0  0
   60.2950   30.1210   46.4540 C   0  0  0  0  0  0  0  0  0  0  0  0
   61.4840   30.6240   46.9910 C   0  0  0  0  0  0  0  0  0  0  0  0
   61.6610   32.0020   47.1320 C   0  0  0  0  0  0  0  0  0  0  0  0
   60.6490   32.8800   46.7380 C   0  0  0  0  0  0  0  0  0  0  0  0
   59.4580   32.3830   46.2010 C   0  0  0  0  0  0  0  0  0  0  0  0
   57.2060   31.2520   44.6380 C   0  0  0  0  0  0  0  0  0  0  0  0
   56.0130   30.7470   44.1170 C   0  0  0  0  0  0  0  0  0  0  0  0
   55.5910   29.4570   44.4460 C   0  0  0  0  0  0  0  0  0  0  0  0
   54.3960   28.9710   43.9260 O   0  0  0  0  0  0  0  0  0  0  0  0
   58.0770   26.4820   46.6700 C   0  0  0  0  0  0  0  0  0  0  0  0
   59.0270   25.9500   45.7790 C   0  0  0  0  0  0  0  0  0  0  0  0
   60.3930   26.0530   46.0590 C   0  0  0  0  0  0  0  0  0  0  0  0
   60.8240   26.6960   47.2220 C   0  0  0  0  0  0  0  0  0  0  0  0
   59.8880   27.2450   48.1030 C   0  0  0  0  0  0  0  0  0  0  0  0
   58.5210   27.1440   47.8280 C   0  0  0  0  0  0  0  0  0  0  0  0
   58.2176   28.5150   46.4216 H   0  0  0  0  0  0  0  0  0  0  0  0
   60.1612   29.0346   46.3449 H   0  0  0  0  0  0  0  0  0  0  0  0
   62.2812   29.9332   47.3029 H   0  0  0  0  0  0  0  0  0  0  0  0
   62.5976   32.3959   47.5534 H   0  0  0  0  0  0  0  0  0  0  0  0
   60.7895   33.9652   46.8505 H   0  0  0  0  0  0  0  0  0  0  0  0
   58.6645   33.0797   45.8930 H   0  0  0  0  0  0  0  0  0  0  0  0
   57.5228   32.2747   44.3856 H   0  0  0  0  0  0  0  0  0  0  0  0
   55.4029   31.3679   43.4445 H   0  0  0  0  0  0  0  0  0  0  0  0
   58.6934   25.4505   44.8575 H   0  0  0  0  0  0  0  0  0  0  0  0
   61.1298   25.6269   45.3622 H   0  0  0  0  0  0  0  0  0  0  0  0
   61.8988   26.7701   47.4441 H   0  0  0  0  0  0  0  0  0  0  0  0
   60.2278   27.7578   49.0149 H   0  0  0  0  0  0  0  0  0  0  0  0
   57.7893   27.5847   48.5211 H   0  0  0  0  0  0  0  0  0  0  0  0
  1  2  2  0
  2  3  1  0
  3  4  1  0
  4  5  2  0
  5  6  1  0
  6  7  1  0
  7  8  2  0
  8  9  1  0
  9 10  2  0
 10 11  1  0
 11 12  2  0
  6 13  2  0
 13 14  1  0
 14 15  2  0
 15 16  1  0
  2 17  1  0
 17 18  2  0
 18 19  1  0
 19 20  2  0
 20 21  1  0
 21 22  2  0
 15  4  1  0
 22 17  1  0
 12  7  1  0
  5 23  1  0
  8 24  1  0
  9 25  1  0
 10 26  1  0
 11 27  1  0
 12 28  1  0
 13 29  1  0
 14 30  1  0
 18 31  1  0
 19 32  1  0
 20 33  1  0
 21 34  1  0
 22 35  1  0
M  CHG  2   3  -1  16  -1
M  END
>  <UniqueID>  (15) 
15

>  <SMILES>  (15) 
O=C([N-]c1cc(-c2ccccc2)ccc1[O-])c1ccccc1

>  <Energy>  (15) 
49.511548244197776

>  <Genealogy>  (15) 
O=C([N-]c1cc(-c2ccccc2)ccc1[O-])c1ccccc1 (protonated)
O=C([N-]c1cc(-c2ccccc2)ccc1[O-])c1ccccc1 (3D coordinates assigned)
O=C([N-]c1cc(-c2ccccc2)ccc1[O-])c1ccccc1 (optimized conformer: 49.511548244197776 kcal/mol)

>  <smiles>  (15) 
O=C(Nc1cc(-c2ccccc2)ccc1O)c1ccccc1

>  <score_type>  (15) 
oracle

>  <origin>  (15) 
adg

>  <m_score__min__energy>  (15) 
-12.17

>  <m_primary>  (15) 
energy

$$$$
15:0
     RDKit          3D

 26 28  0  0  0  0  0  0  0  0999 V2000
   55.5990   28.6570   44.8610 O   0  0  0  0  0  0  0  0  0  0  0  0
   56.5500   29.6380   45.1330 C   0  0  0  0  0  0  0  0  0  0  0  0
   57.5350   29.3980   46.0980 C   0  0  0  0  0  0  0  0  0  0  0  0
   58.4950   30.3740   46.3810 C   0  0  0  0  0  0  0  0  0  0  0  0
   58.4740   31.6070   45.7080 C   0  0  0  0  0  0  0  0  0  0  0  0
   59.4740   32.6000   45.9920 N   0  0  0  0  0  0  0  0  0  0  0  0
   59.4050   33.9240   45.6990 C   0  0  0  0  0  0  0  0  0  0  0  0
   60.4980   34.6220   46.1020 N   0  0  0  0  0  0  0  0  0  0  0  0
   61.2750   33.6760   46.6620 C   0  0  0  0  0  0  0  0  0  0  0  0
   62.5420   33.8400   47.2170 C   0  0  0  0  0  0  0  0  0  0  0  0
   63.1950   32.6960   47.7080 C   0  0  0  0  0  0  0  0  0  0  0  0
   62.5790   31.4270   47.6220 C   0  0  0  0  0  0  0  0  0  0  0  0
   61.2990   31.2940   47.0530 C   0  0  0  0  0  0  0  0  0  0  0  0
   60.6670   32.4540   46.5970 C   0  0  0  0  0  0  0  0  0  0  0  0
   57.4930   31.8370   44.7290 C   0  0  0  0  0  0  0  0  0  0  0  0
   56.5340   30.8590   44.4460 C   0  0  0  0  0  0  0  0  0  0  0  0
   55.1460   28.1380   45.6050 H   0  0  0  0  0  0  0  0  0  0  0  0
   57.5538   28.4384   46.6354 H   0  0  0  0  0  0  0  0  0  0  0  0
   59.2711   30.1755   47.1348 H   0  0  0  0  0  0  0  0  0  0  0  0
   58.5485   34.3856   45.1859 H   0  0  0  0  0  0  0  0  0  0  0  0
   63.0157   34.8314   47.2693 H   0  0  0  0  0  0  0  0  0  0  0  0
   64.1924   32.7892   48.1623 H   0  0  0  0  0  0  0  0  0  0  0  0
   63.1033   30.5379   48.0022 H   0  0  0  0  0  0  0  0  0  0  0  0
   60.8126   30.3109   46.9700 H   0  0  0  0  0  0  0  0  0  0  0  0
   57.4790   32.7913   44.1821 H   0  0  0  0  0  0  0  0  0  0  0  0
   55.7654   31.0489   43.6823 H   0  0  0  0  0  0  0  0  0  0  0  0
  1  2  1  0
  2  3  2  0
  3  4  1  0
  4  5  2  0
  5  6  1  0
  6  7  1  0
  7  8  2  0
  8  9  1  0
  9 10  2  0
 10 11  1  0
 11 12  2  0
 12 13  1  0
 13 14  2  0
  5 15  1  0
 15 16  2  0
 16  2  1  0
 14  6  1  0
 14  9  1  0
  1 17  1  0
  3 18  1  0
  4 19  1  0
  7 20  1  0
 10 21  1  0
 11 22  1  0
 12 23  1  0
 13 24  1  0
 15 25  1  0
 16 26  1  0
M  END
>  <UniqueID>  (16) 
16

>  <SMILES>  (16) 
Oc1ccc(-n2cnc3ccccc32)cc1

>  <Energy>  (16) 
71.30379039892236

>  <Genealogy>  (16) 
Oc1ccc(-n2cnc3ccccc32)cc1 (3D coordinates assigned)
Oc1ccc(-n2cnc3ccccc32)cc1 (optimized conformer: 71.30379039892236 kcal/mol)

>  <smiles>  (16) 
Oc1ccc(-n2cnc3ccccc32)cc1

>  <score_type>  (16) 
oracle

>  <origin>  (16) 
adg

>  <m_score__min__energy>  (16) 
-6.4000000000000004

>  <m_primary>  (16) 
energy

$$$$
16:0
     RDKit          3D

 41 43  0  0  0  0  0  0  0  0999 V2000
   57.6480   32.6350   40.8300 C   0  0  0  0  0  0  0  0  0  0  0  0
   57.0830   31.8050   41.8390 O   0  0  0  0  0  0  0  0  0  0  0  0
   57.5220   31.7650   43.1700 C   0  0  0  0  0  0  0  0  0  0  0  0
   58.0000   32.9200   43.8460 C   0  0  0  0  0  0  0  0  0  0  0  0
   58.4400   32.8410   45.1780 C   0  0  0  0  0  0  0  0  0  0  0  0
   58.3870   31.5990   45.8220 C   0  0  0  0  0  0  0  0  0  0  0  0
   57.9180   30.4850   45.1710 C   0  0  0  0  0  0  0  0  0  0  0  0
   57.4870   30.5320   43.8450 C   0  0  0  0  0  0  0  0  0  0  0  0
   58.0200   29.4210   46.0470 C   0  0  0  0  0  0  0  0  0  0  0  0
   57.7460   27.9760   45.7340 C   0  0  0  0  0  0  0  0  0  0  0  0
   56.2730   27.7450   45.6240 C   0  0  0  0  0  0  0  0  0  0  0  0
   55.5330   28.6190   45.1010 O   0  0  0  0  0  0  0  0  0  0  0  0
   55.7230   26.5440   46.0550 O   0  0  0  0  0  0  0  0  0  0  0  0
   58.5700   29.9510   47.2190 C   0  0  0  0  0  0  0  0  0  0  0  0
   59.0040   29.1460   48.4120 C   0  0  0  0  0  0  0  0  0  0  0  0
   58.7890   31.2880   47.0760 N   0  0  0  0  0  0  0  0  0  0  0  0
   59.4490   32.1770   48.0410 C   0  0  0  0  0  0  0  0  0  0  0  0
   60.8820   32.4150   47.6440 C   0  0  0  0  0  0  0  0  0  0  0  0
   61.8590   31.4390   47.8990 C   0  0  0  0  0  0  0  0  0  0  0  0
   63.1930   31.6670   47.5510 C   0  0  0  0  0  0  0  0  0  0  0  0
   63.5630   32.8720   46.9460 C   0  0  0  0  0  0  0  0  0  0  0  0
   62.5980   33.8490   46.6870 C   0  0  0  0  0  0  0  0  0  0  0  0
   61.2620   33.6240   47.0340 C   0  0  0  0  0  0  0  0  0  0  0  0
   58.2072   33.4565   41.3016 H   0  0  0  0  0  0  0  0  0  0  0  0
   58.3292   32.0395   40.2043 H   0  0  0  0  0  0  0  0  0  0  0  0
   56.8443   33.0504   40.2043 H   0  0  0  0  0  0  0  0  0  0  0  0
   58.0258   33.8862   43.3208 H   0  0  0  0  0  0  0  0  0  0  0  0
   58.8165   33.7322   45.7015 H   0  0  0  0  0  0  0  0  0  0  0  0
   57.1276   29.6241   43.3385 H   0  0  0  0  0  0  0  0  0  0  0  0
   58.2279   27.7124   44.7810 H   0  0  0  0  0  0  0  0  0  0  0  0
   58.1495   27.3494   46.5431 H   0  0  0  0  0  0  0  0  0  0  0  0
   58.7193   29.6741   49.3340 H   0  0  0  0  0  0  0  0  0  0  0  0
   58.5146   28.1612   48.3875 H   0  0  0  0  0  0  0  0  0  0  0  0
   60.0957   29.0136   48.3875 H   0  0  0  0  0  0  0  0  0  0  0  0
   58.9167   33.1392   48.0697 H   0  0  0  0  0  0  0  0  0  0  0  0
   59.4287   31.7028   49.0333 H   0  0  0  0  0  0  0  0  0  0  0  0
   61.5726   30.4898   48.3753 H   0  0  0  0  0  0  0  0  0  0  0  0
   63.9528   30.8977   47.7532 H   0  0  0  0  0  0  0  0  0  0  0  0
   64.6137   33.0510   46.6739 H   0  0  0  0  0  0  0  0  0  0  0  0
   62.8896   34.7962   46.2096 H   0  0  0  0  0  0  0  0  0  0  0  0
   60.5054   34.3957   46.8290 H   0  0  0  0  0  0  0  0  0  0  0  0
  1  2  1  0
  2  3  1  0
  3  4  2  0
  4  5  1  0
  5  6  2  0
  6  7  1  0
  7  8  2  0
  7  9  1  0
  9 10  1  0
 10 11  1  0
 11 12  2  0
 11 13  1  0
  9 14  2  0
 14 15  1  0
 14 16  1  0
 16 17  1  0
 17 18  1  0
 18 19  2  0
 19 20  1  0
 20 21  2  0
 21 22  1  0
 22 23  2  0
  8  3  1  0
 23 18  1  0
 16  6  1  0
  1 24  1  0
  1 25  1  0
  1 26  1  0
  4 27  1  0
  5 28  1  0
  8 29  1  0
 10 30  1  0
 10 31  1  0
 15 32  1  0
 15 33  1  0
 15 34  1  0
 17 35  1  0
 17 36  1  0
 19 37  1  0
 20 38  1  0
 21 39  1  0
 22 40  1  0
 23 41  1  0
M  CHG  1  13  -1
M  END
>  <UniqueID>  (17) 
17

>  <SMILES>  (17) 
COc1ccc2c(c1)c(CC(=O)[O-])c(C)n2Cc1ccccc1

>  <Energy>  (17) 
72.79392655861173

>  <Genealogy>  (17) 
COc1ccc2c(c1)c(CC(=O)[O-])c(C)n2Cc1ccccc1 (protonated)
COc1ccc2c(c1)c(CC(=O)[O-])c(C)n2Cc1ccccc1 (3D coordinates assigned)
COc1ccc2c(c1)c(CC(=O)[O-])c(C)n2Cc1ccccc1 (optimized conformer: 72.79392655861173 kcal/mol)

>  <smiles>  (17) 
COc1ccc2c(c1)c(CC(=O)O)c(C)n2Cc1ccccc1

>  <score_type>  (17) 
oracle

>  <origin>  (17) 
adg

>  <m_score__min__energy>  (17) 
-10.369999999999999

>  <m_primary>  (17) 
energy

$$$$
17:0
     RDKit          3D

 53 56  0  0  0  0  0  0  0  0999 V2000
   62.6820   33.6950   51.9890 C   0  0  0  0  0  0  0  0  0  0  0  0
   63.8380   34.2860   51.1860 C   0  0  0  0  0  0  0  0  0  0  0  0
   64.2090   33.4080   50.0670 N   0  0  0  0  0  0  0  0  0  0  0  0
   65.6280   33.0790   49.8530 C   0  0  0  0  0  0  0  0  0  0  0  0
   66.0270   31.8480   50.6620 C   0  0  0  0  0  0  0  0  0  0  0  0
   63.1860   32.8720   49.1940 C   0  0  0  0  0  0  0  0  0  0  0  0
   63.0830   31.4880   48.9730 C   0  0  0  0  0  0  0  0  0  0  0  0
   62.1030   30.9730   48.1210 C   0  0  0  0  0  0  0  0  0  0  0  0
   61.1910   31.8310   47.4740 C   0  0  0  0  0  0  0  0  0  0  0  0
   60.2160   31.3510   46.5680 C   0  0  0  0  0  0  0  0  0  0  0  0
   60.2800   30.0880   46.2230 N   0  0  0  0  0  0  0  0  0  0  0  0
   59.2550   29.0860   46.1690 C   0  0  0  0  0  0  0  0  0  0  0  0
   59.0080   28.2950   47.2970 C   0  0  0  0  0  0  0  0  0  0  0  0
   58.0490   27.2780   47.2480 C   0  0  0  0  0  0  0  0  0  0  0  0
   57.3450   27.0300   46.0620 C   0  0  0  0  0  0  0  0  0  0  0  0
   56.1470   25.7410   45.9960 S   0  0  0  0  0  0  0  0  0  0  0  0
   56.3830   24.8000   44.5660 N   0  0  0  0  0  0  0  0  0  0  0  0
   54.7650   26.3320   45.9850 O   0  0  0  0  0  0  0  0  0  0  0  0
   56.2830   24.8580   47.2050 O   0  0  0  0  0  0  0  0  0  0  0  0
   57.6260   27.7880   44.9180 C   0  0  0  0  0  0  0  0  0  0  0  0
   58.5840   28.8040   44.9670 C   0  0  0  0  0  0  0  0  0  0  0  0
   59.2630   32.2820   46.0510 C   0  0  0  0  0  0  0  0  0  0  0  0
   58.0640   31.9160   45.3950 C   0  0  0  0  0  0  0  0  0  0  0  0
   57.2060   32.8890   44.8760 C   0  0  0  0  0  0  0  0  0  0  0  0
   57.4950   34.2410   45.0430 C   0  0  0  0  0  0  0  0  0  0  0  0
   58.6160   34.6280   45.7730 C   0  0  0  0  0  0  0  0  0  0  0  0
   59.4760   33.6630   46.3120 C   0  0  0  0  0  0  0  0  0  0  0  0
   60.4680   34.0620   47.0940 O   0  0  0  0  0  0  0  0  0  0  0  0
   61.2950   33.2210   47.6950 C   0  0  0  0  0  0  0  0  0  0  0  0
   62.2830   33.7300   48.5450 C   0  0  0  0  0  0  0  0  0  0  0  0
   62.8901   33.8014   53.0639 H   0  0  0  0  0  0  0  0  0  0  0  0
   61.7526   34.2286   51.7409 H   0  0  0  0  0  0  0  0  0  0  0  0
   62.5703   32.6292   51.7409 H   0  0  0  0  0  0  0  0  0  0  0  0
   63.5352   35.2660   50.7885 H   0  0  0  0  0  0  0  0  0  0  0  0
   64.7078   34.3903   51.8512 H   0  0  0  0  0  0  0  0  0  0  0  0
   65.7943   32.8777   48.7844 H   0  0  0  0  0  0  0  0  0  0  0  0
   66.2409   33.9310   50.1821 H   0  0  0  0  0  0  0  0  0  0  0  0
   65.9534   32.0752   51.7358 H   0  0  0  0  0  0  0  0  0  0  0  0
   65.3532   31.0138   50.4167 H   0  0  0  0  0  0  0  0  0  0  0  0
   67.0620   31.5677   50.4167 H   0  0  0  0  0  0  0  0  0  0  0  0
   63.7813   30.8030   49.4761 H   0  0  0  0  0  0  0  0  0  0  0  0
   62.0425   29.8875   47.9535 H   0  0  0  0  0  0  0  0  0  0  0  0
   59.5701   28.4738   48.2254 H   0  0  0  0  0  0  0  0  0  0  0  0
   57.8469   26.6712   48.1429 H   0  0  0  0  0  0  0  0  0  0  0  0
   56.2790   25.4480   43.7540 H   0  0  0  0  0  0  0  0  0  0  0  0
   57.3780   24.4830   44.5710 H   0  0  0  0  0  0  0  0  0  0  0  0
   57.0912   27.5829   43.9789 H   0  0  0  0  0  0  0  0  0  0  0  0
   58.8137   29.3850   44.0616 H   0  0  0  0  0  0  0  0  0  0  0  0
   57.8041   30.8521   45.2923 H   0  0  0  0  0  0  0  0  0  0  0  0
   56.2985   32.5858   44.3333 H   0  0  0  0  0  0  0  0  0  0  0  0
   56.8380   35.0030   44.5984 H   0  0  0  0  0  0  0  0  0  0  0  0
   58.8270   35.6965   45.9270 H   0  0  0  0  0  0  0  0  0  0  0  0
   62.3534   34.8157   48.7070 H   0  0  0  0  0  0  0  0  0  0  0  0
  1  2  1  0
  2  3  1  0
  3  4  1  0
  4  5  1  0
  3  6  1  0
  6  7  2  0
  7  8  1  0
  8  9  2  0
  9 10  1  0
 10 11  2  3
 11 12  1  0
 12 13  2  0
 13 14  1  0
 14 15  2  0
 15 16  1  0
 16 17  1  0
 16 18  2  0
 16 19  2  0
 15 20  1  0
 20 21  2  0
 10 22  1  0
 22 23  2  0
 23 24  1  0
 24 25  2  0
 25 26  1  0
 26 27  2  0
 27 28  1  0
 28 29  1  0
 29 30  2  0
 30  6  1  0
 29  9  1  0
 21 12  1  0
 27 22  1  0
  1 31  1  0
  1 32  1  0
  1 33  1  0
  2 34  1  0
  2 35  1  0
  4 36  1  0
  4 37  1  0
  5 38  1  0
  5 39  1  0
  5 40  1  0
  7 41  1  0
  8 42  1  0
 13 43  1  0
 14 44  1  0
 17 45  1  0
 17 46  1  0
 20 47  1  0
 21 48  1  0
 23 49  1  0
 24 50  1  0
 25 51  1  0
 26 52  1  0
 30 53  1  0
M  END
>  <UniqueID>  (18) 
18

>  <SMILES>  (18) 
CCN(CC)c1ccc2c(=Nc3ccc(S(N)(=O)=O)cc3)c3ccccc3oc2c1

>  <Energy>  (18) 
81.48728778817589

>  <Genealogy>  (18) 
CCN(CC)c1ccc2c(=Nc3ccc(S(N)(=O)=O)cc3)c3ccccc3oc2c1 (3D coordinates assigned)
CCN(CC)c1ccc2c(=Nc3ccc(S(N)(=O)=O)cc3)c3ccccc3oc2c1 (optimized conformer: 81.48728778817589 kcal/mol)

>  <smiles>  (18) 
CCN(CC)c1ccc2c(=Nc3ccc(S(N)(=O)=O)cc3)c3ccccc3oc2c1

>  <score_type>  (18) 
oracle

>  <origin>  (18) 
adg

>  <m_score__min__energy>  (18) 
-8.8800000000000008

>  <m_primary>  (18) 
energy

$$$$
18:0
     RDKit          3D

 26 27  0  0  0  0  0  0  0  0999 V2000
   58.0242   25.8012   45.0395 H   0  0  0  0  0  0  0  0  0  0  0  0
   57.8600   26.8610   44.7950 C   0  0  0  0  0  0  0  0  0  0  0  0
   57.3020   28.0460   45.8530 S   0  0  0  0  0  0  0  0  0  0  0  0
   57.3730   29.2640   44.7010 C   0  0  0  0  0  0  0  0  0  0  0  0
   57.0130   30.4930   44.9480 N   0  0  0  0  0  0  0  0  0  0  0  0
   57.4590   31.7000   44.3080 C   0  0  0  0  0  0  0  0  0  0  0  0
   57.3640   31.8380   43.0580 O   0  0  0  0  0  0  0  0  0  0  0  0
   58.0960   32.7680   45.1160 C   0  0  0  0  0  0  0  0  0  0  0  0
   58.5950   33.9300   44.5000 C   0  0  0  0  0  0  0  0  0  0  0  0
   58.5120   34.0493   43.4096 H   0  0  0  0  0  0  0  0  0  0  0  0
   59.1950   34.9330   45.2640 C   0  0  0  0  0  0  0  0  0  0  0  0
   59.5820   35.8378   44.7726 H   0  0  0  0  0  0  0  0  0  0  0  0
   59.3060   34.7930   46.6480 C   0  0  0  0  0  0  0  0  0  0  0  0
   59.7787   35.5880   47.2434 H   0  0  0  0  0  0  0  0  0  0  0  0
   58.8150   33.6380   47.2840 C   0  0  0  0  0  0  0  0  0  0  0  0
   58.9030   33.4480   48.6700 O   0  0  0  0  0  0  0  0  0  0  0  0
   60.0050   33.8640   49.4710 C   0  0  0  0  0  0  0  0  0  0  0  0
   59.7431   33.7651   50.5348 H   0  0  0  0  0  0  0  0  0  0  0  0
   60.8787   33.2338   49.2484 H   0  0  0  0  0  0  0  0  0  0  0  0
   60.2443   34.9143   49.2484 H   0  0  0  0  0  0  0  0  0  0  0  0
   58.2140   32.6350   46.5120 C   0  0  0  0  0  0  0  0  0  0  0  0
   57.8286   31.7300   47.0045 H   0  0  0  0  0  0  0  0  0  0  0  0
   57.8030   28.7890   43.5070 N   0  0  0  0  0  0  0  0  0  0  0  0
   57.8910   29.3330   42.6230 H   0  0  0  0  0  0  0  0  0  0  0  0
   58.0770   27.4580   43.5570 C   0  0  0  0  0  0  0  0  0  0  0  0
   58.4425   26.8959   42.6849 H   0  0  0  0  0  0  0  0  0  0  0  0
  1  2  1  0
  2  3  1  0
  3  4  1  0
  4  5  2  0
  5  6  1  0
  6  7  2  0
  6  8  1  0
  8  9  2  0
  9 10  1  0
  9 11  1  0
 11 12  1  0
 11 13  2  0
 13 14  1  0
 13 15  1  0
 15 16  1  0
 16 17  1  0
 17 18  1  0
 17 19  1  0
 17 20  1  0
 15 21  2  0
 21 22  1  0
  4 23  1  0
 23 24  1  0
 23 25  1  0
 25 26  1  0
 25  2  2  0
 21  8  1  0
M  END
>  <UniqueID>  (19) 
19

>  <SMILES>  (19) 
COc1cccc(C(=O)/N=c2\[nH]ccs2)c1

>  <Energy>  (19) 
61.56809471478108

>  <Genealogy>  (19) 
COc1cccc(C(=O)/N=c2\[nH]ccs2)c1 (cis-trans isomerization)
COc1cccc(C(=O)/N=c2\[nH]ccs2)c1 (3D coordinates assigned)
COc1cccc(C(=O)/N=c2\[nH]ccs2)c1 (optimized conformer: 61.56809471478108 kcal/mol)

>  <smiles>  (19) 
COc1cccc(C(=O)N=c2[nH]ccs2)c1

>  <score_type>  (19) 
oracle

>  <origin>  (19) 
adg

>  <m_score__min__energy>  (19) 
-6.5800000000000001

>  <m_primary>  (19) 
energy

$$$$
19:0
     RDKit          3D

 26 27  0  0  0  0  0  0  0  0999 V2000
   57.9760   33.6760   45.6240 C   0  0  0  0  0  0  0  0  0  0  0  0
   57.6360   32.5310   44.7150 C   0  0  0  0  0  0  0  0  0  0  0  0
   57.7750   32.6730   43.3270 C   0  0  0  0  0  0  0  0  0  0  0  0
   57.4320   31.6100   42.4930 C   0  0  0  0  0  0  0  0  0  0  0  0
   56.9360   30.4290   43.0410 C   0  0  0  0  0  0  0  0  0  0  0  0
   56.7730   30.3250   44.4330 C   0  0  0  0  0  0  0  0  0  0  0  0
   56.2850   29.1540   45.0310 O   0  0  0  0  0  0  0  0  0  0  0  0
   57.0780   28.1040   45.5180 C   0  0  0  0  0  0  0  0  0  0  0  0
   58.4650   28.2850   45.5830 C   0  0  0  0  0  0  0  0  0  0  0  0
   59.2890   27.2640   46.0660 C   0  0  0  0  0  0  0  0  0  0  0  0
   60.6320   27.4430   46.1150 F   0  0  0  0  0  0  0  0  0  0  0  0
   58.7300   26.0600   46.5000 C   0  0  0  0  0  0  0  0  0  0  0  0
   57.3440   25.8780   46.4630 C   0  0  0  0  0  0  0  0  0  0  0  0
   56.8040   24.7170   46.9080 F   0  0  0  0  0  0  0  0  0  0  0  0
   56.5150   26.8970   45.9800 C   0  0  0  0  0  0  0  0  0  0  0  0
   55.1690   26.7250   46.0040 F   0  0  0  0  0  0  0  0  0  0  0  0
   57.1330   31.3700   45.2300 N   0  0  0  0  0  0  0  0  0  0  0  0
   57.8803   33.3536   46.6713 H   0  0  0  0  0  0  0  0  0  0  0  0
   59.0094   34.0011   45.4334 H   0  0  0  0  0  0  0  0  0  0  0  0
   57.2875   34.5124   45.4334 H   0  0  0  0  0  0  0  0  0  0  0  0
   58.1512   33.6144   42.9002 H   0  0  0  0  0  0  0  0  0  0  0  0
   57.5528   31.7035   41.4037 H   0  0  0  0  0  0  0  0  0  0  0  0
   56.6736   29.5833   42.3883 H   0  0  0  0  0  0  0  0  0  0  0  0
   58.9087   29.2357   45.2522 H   0  0  0  0  0  0  0  0  0  0  0  0
   59.3804   25.2543   46.8712 H   0  0  0  0  0  0  0  0  0  0  0  0
   57.0110   31.2760   46.2640 H   0  0  0  0  0  0  0  0  0  0  0  0
  1  2  1  0
  2  3  2  0
  3  4  1  0
  4  5  2  0
  5  6  1  0
  6  7  1  0
  7  8  1  0
  8  9  2  0
  9 10  1  0
 10 11  1  0
 10 12  2  0
 12 13  1  0
 13 14  1  0
 13 15  2  0
 15 16  1  0
  6 17  2  0
 17  2  1  0
 15  8  1  0
  1 18  1  0
  1 19  1  0
  1 20  1  0
  3 21  1  0
  4 22  1  0
  5 23  1  0
  9 24  1  0
 12 25  1  0
 17 26  1  0
M  CHG  1  17   1
M  END
>  <UniqueID>  (20) 
20

>  <SMILES>  (20) 
Cc1cccc(Oc2cc(F)cc(F)c2F)[nH+]1

>  <Energy>  (20) 
33.64238863183495

>  <Genealogy>  (20) 
Cc1cccc(Oc2cc(F)cc(F)c2F)[nH+]1 (protonated)
Cc1cccc(Oc2cc(F)cc(F)c2F)[nH+]1 (3D coordinates assigned)
Cc1cccc(Oc2cc(F)cc(F)c2F)[nH+]1 (optimized conformer: 33.64238863183495 kcal/mol)

>  <smiles>  (20) 
Cc1cccc(Oc2cc(F)cc(F)c2F)n1

>  <score_type>  (20) 
oracle

>  <origin>  (20) 
adg

>  <m_score__min__energy>  (20) 
-4.4000000000000004

>  <m_primary>  (20) 
energy

$$$$
20:0
     RDKit          3D

 21 21  0  0  0  0  0  0  0  0999 V2000
   65.0710   32.6680   49.3040 N   0  0  0  0  0  0  0  0  0  0  0  0
   64.1220   33.2620   48.6460 C   0  0  0  0  0  0  0  0  0  0  0  0
   63.0760   34.0710   49.3730 C   0  0  0  0  0  0  0  0  0  0  0  0
   61.6710   33.4490   49.2540 C   0  0  0  0  0  0  0  0  0  0  0  0
   60.9020   33.8010   47.9640 C   0  0  0  0  0  0  0  0  0  0  0  0
   61.5760   33.3090   46.6700 C   0  0  0  0  0  0  0  0  0  0  0  0
   63.0210   33.8080   46.4250 C   0  0  0  0  0  0  0  0  0  0  0  0
   64.0210   33.0920   47.2220 N   0  0  0  0  0  0  0  0  0  0  0  0
   66.0520   32.6670   48.9450 H   0  0  0  0  0  0  0  0  0  0  0  0
   64.8820   32.1740   50.2040 H   0  0  0  0  0  0  0  0  0  0  0  0
   63.3490   34.1281   50.4371 H   0  0  0  0  0  0  0  0  0  0  0  0
   63.0427   35.0699   48.9135 H   0  0  0  0  0  0  0  0  0  0  0  0
   61.7787   32.3552   49.2978 H   0  0  0  0  0  0  0  0  0  0  0  0
   61.0817   33.8671   50.0834 H   0  0  0  0  0  0  0  0  0  0  0  0
   59.9015   33.3480   48.0250 H   0  0  0  0  0  0  0  0  0  0  0  0
   60.8715   34.8990   47.9053 H   0  0  0  0  0  0  0  0  0  0  0  0
   61.6002   32.2097   46.7002 H   0  0  0  0  0  0  0  0  0  0  0  0
   60.9756   33.7237   45.8469 H   0  0  0  0  0  0  0  0  0  0  0  0
   63.2614   33.6742   45.3600 H   0  0  0  0  0  0  0  0  0  0  0  0
   63.0578   34.8652   46.7267 H   0  0  0  0  0  0  0  0  0  0  0  0
   64.7090   32.4820   46.7260 H   0  0  0  0  0  0  0  0  0  0  0  0
  1  2  2  0
  2  3  1  0
  3  4  1  0
  4  5  1  0
  5  6  1  0
  6  7  1  0
  7  8  1  0
  8  2  1  0
  1  9  1  0
  1 10  1  0
  3 11  1  0
  3 12  1  0
  4 13  1  0
  4 14  1  0
  5 15  1  0
  5 16  1  0
  6 17  1  0
  6 18  1  0
  7 19  1  0
  7 20  1  0
  8 21  1  0
M  CHG  1   1   1
M  END
>  <UniqueID>  (21) 
21

>  <SMILES>  (21) 
[NH2+]=C1CCCCCN1

>  <Energy>  (21) 
19.793547141667187

>  <Genealogy>  (21) 
[NH2+]=C1CCCCCN1 (protonated)
[NH2+]=C1CCCCCN1 (3D coordinates assigned)
[NH2+]=C1CCCCCN1 (nonaromatic ring conformer: 19.793547141667187 kcal/mol)

>  <smiles>  (21) 
N=C1CCCCCN1

>  <score_type>  (21) 
oracle

>  <origin>  (21) 
adg

>  <m_score__min__energy>  (21) 
-1.0700000000000001

>  <m_primary>  (21) 
energy

$$$$
21:0
     RDKit          3D

 40 43  0  0  0  0  0  0  0  0999 V2000
   57.3860   32.4880   40.7830 C   0  0  0  0  0  0  0  0  0  0  0  0
   57.4690   31.9510   42.1800 C   0  0  0  0  0  0  0  0  0  0  0  0
   56.8640   30.7080   42.5020 C   0  0  0  0  0  0  0  0  0  0  0  0
   56.9030   30.2110   43.8180 C   0  0  0  0  0  0  0  0  0  0  0  0
   57.5410   30.9820   44.7840 C   0  0  0  0  0  0  0  0  0  0  0  0
   57.6710   30.7100   46.0960 N   0  0  0  0  0  0  0  0  0  0  0  0
   58.3430   31.7920   46.5690 C   0  0  0  0  0  0  0  0  0  0  0  0
   58.6320   32.7040   45.6090 N   0  0  0  0  0  0  0  0  0  0  0  0
   59.2650   34.0080   45.8020 C   0  0  0  0  0  0  0  0  0  0  0  0
   60.3900   33.8940   46.7960 C   0  0  0  0  0  0  0  0  0  0  0  0
   61.6750   33.5160   46.3820 C   0  0  0  0  0  0  0  0  0  0  0  0
   62.7230   33.4480   47.3030 C   0  0  0  0  0  0  0  0  0  0  0  0
   62.5070   33.7530   48.6590 C   0  0  0  0  0  0  0  0  0  0  0  0
   63.6360   33.6820   49.6220 C   0  0  0  0  0  0  0  0  0  0  0  0
   63.5480   34.2430   50.9090 C   0  0  0  0  0  0  0  0  0  0  0  0
   64.6360   34.1460   51.7780 C   0  0  0  0  0  0  0  0  0  0  0  0
   65.7980   33.4920   51.3700 C   0  0  0  0  0  0  0  0  0  0  0  0
   65.8530   32.9360   50.0920 C   0  0  0  0  0  0  0  0  0  0  0  0
   64.7840   33.0410   49.2580 N   0  0  0  0  0  0  0  0  0  0  0  0
   61.2190   34.1470   49.0660 C   0  0  0  0  0  0  0  0  0  0  0  0
   60.1710   34.2160   48.1430 C   0  0  0  0  0  0  0  0  0  0  0  0
   58.1120   32.1840   44.4860 C   0  0  0  0  0  0  0  0  0  0  0  0
   58.0930   32.7120   43.1930 C   0  0  0  0  0  0  0  0  0  0  0  0
   57.2181   33.5746   40.8172 H   0  0  0  0  0  0  0  0  0  0  0  0
   58.3271   32.2789   40.2533 H   0  0  0  0  0  0  0  0  0  0  0  0
   56.5519   32.0046   40.2533 H   0  0  0  0  0  0  0  0  0  0  0  0
   56.3598   30.1276   41.7153 H   0  0  0  0  0  0  0  0  0  0  0  0
   56.4441   29.2447   44.0742 H   0  0  0  0  0  0  0  0  0  0  0  0
   58.6243   31.9154   47.6252 H   0  0  0  0  0  0  0  0  0  0  0  0
   59.6633   34.3651   44.8408 H   0  0  0  0  0  0  0  0  0  0  0  0
   58.5172   34.7186   46.1840 H   0  0  0  0  0  0  0  0  0  0  0  0
   61.8591   33.2715   45.3254 H   0  0  0  0  0  0  0  0  0  0  0  0
   63.7272   33.1530   46.9645 H   0  0  0  0  0  0  0  0  0  0  0  0
   62.6281   34.7546   51.2284 H   0  0  0  0  0  0  0  0  0  0  0  0
   64.5768   34.5855   52.7847 H   0  0  0  0  0  0  0  0  0  0  0  0
   66.6609   33.4155   52.0479 H   0  0  0  0  0  0  0  0  0  0  0  0
   66.7612   32.4125   49.7587 H   0  0  0  0  0  0  0  0  0  0  0  0
   61.0349   34.4030   50.1198 H   0  0  0  0  0  0  0  0  0  0  0  0
   59.1689   34.5247   48.4755 H   0  0  0  0  0  0  0  0  0  0  0  0
   58.5489   33.6882   42.9711 H   0  0  0  0  0  0  0  0  0  0  0  0
  1  2  1  0
  2  3  2  0
  3  4  1  0
  4  5  2  0
  5  6  1  0
  6  7  2  0
  7  8  1  0
  8  9  1  0
  9 10  1  0
 10 11  2  0
 11 12  1  0
 12 13  2  0
 13 14  1  0
 14 15  2  0
 15 16  1  0
 16 17  2  0
 17 18  1  0
 18 19  2  0
 13 20  1  0
 20 21  2  0
  8 22  1  0
 22 23  2  0
 23  2  1  0
 22  5  1  0
 21 10  1  0
 19 14  1  0
  1 24  1  0
  1 25  1  0
  1 26  1  0
  3 27  1  0
  4 28  1  0
  7 29  1  0
  9 30  1  0
  9 31  1  0
 11 32  1  0
 12 33  1  0
 15 34  1  0
 16 35  1  0
 17 36  1  0
 18 37  1  0
 20 38  1  0
 21 39  1  0
 23 40  1  0
M  END
>  <UniqueID>  (22) 
22

>  <SMILES>  (22) 
Cc1ccc2ncn(Cc3ccc(-c4ccccn4)cc3)c2c1

>  <Energy>  (22) 
84.04035604627853

>  <Genealogy>  (22) 
Cc1ccc2ncn(Cc3ccc(-c4ccccn4)cc3)c2c1 (3D coordinates assigned)
Cc1ccc2ncn(Cc3ccc(-c4ccccn4)cc3)c2c1 (optimized conformer: 84.04035604627853 kcal/mol)

>  <smiles>  (22) 
Cc1ccc2ncn(Cc3ccc(-c4ccccn4)cc3)c2c1

>  <score_type>  (22) 
oracle

>  <origin>  (22) 
adg

>  <m_score__min__energy>  (22) 
-8.1400000000000006

>  <m_primary>  (22) 
energy

$$$$
22:0
     RDKit          3D

 28 29  0  0  0  0  0  0  0  0999 V2000
   55.2010   29.8440   44.8730 O   0  0  0  0  0  0  0  0  0  0  0  0
   56.1080   28.9680   44.8750 C   0  0  0  0  0  0  0  0  0  0  0  0
   57.4090   29.2380   44.1950 C   0  0  0  0  0  0  0  0  0  0  0  0
   57.8070   30.6560   44.4580 C   0  0  0  0  0  0  0  0  0  0  0  0
   57.7410   31.6990   43.5420 C   0  0  0  0  0  0  0  0  0  0  0  0
   58.0300   32.9470   44.1070 C   0  0  0  0  0  0  0  0  0  0  0  0
   58.3050   32.8930   45.4670 C   0  0  0  0  0  0  0  0  0  0  0  0
   58.1840   31.2920   45.9680 S   0  0  0  0  0  0  0  0  0  0  0  0
   55.9420   27.7550   45.6150 N   0  0  0  0  0  0  0  0  0  0  0  0
   56.8740   26.6380   45.5200 C   0  0  0  0  0  0  0  0  0  0  0  0
   58.1070   26.9440   46.3260 C   0  0  0  0  0  0  0  0  0  0  0  0
   59.2870   26.2110   46.1070 C   0  0  0  0  0  0  0  0  0  0  0  0
   60.4580   26.5380   46.7950 C   0  0  0  0  0  0  0  0  0  0  0  0
   60.4620   27.5990   47.7040 C   0  0  0  0  0  0  0  0  0  0  0  0
   59.2950   28.3340   47.9270 C   0  0  0  0  0  0  0  0  0  0  0  0
   58.1210   28.0120   47.2380 C   0  0  0  0  0  0  0  0  0  0  0  0
   58.1796   28.5589   44.5887 H   0  0  0  0  0  0  0  0  0  0  0  0
   57.3051   29.0743   43.1122 H   0  0  0  0  0  0  0  0  0  0  0  0
   57.4875   31.5584   42.4809 H   0  0  0  0  0  0  0  0  0  0  0  0
   58.0384   33.8823   43.5280 H   0  0  0  0  0  0  0  0  0  0  0  0
   58.5586   33.7507   46.1073 H   0  0  0  0  0  0  0  0  0  0  0  0
   56.3965   25.7277   45.9115 H   0  0  0  0  0  0  0  0  0  0  0  0
   57.1532   26.4818   44.4676 H   0  0  0  0  0  0  0  0  0  0  0  0
   59.2879   25.3763   45.3906 H   0  0  0  0  0  0  0  0  0  0  0  0
   61.3775   25.9598   46.6210 H   0  0  0  0  0  0  0  0  0  0  0  0
   61.3849   27.8559   48.2446 H   0  0  0  0  0  0  0  0  0  0  0  0
   59.2994   29.1670   48.6454 H   0  0  0  0  0  0  0  0  0  0  0  0
   57.2058   28.5972   47.4110 H   0  0  0  0  0  0  0  0  0  0  0  0
  1  2  2  0
  2  3  1  0
  3  4  1  0
  4  5  2  0
  5  6  1  0
  6  7  2  0
  7  8  1  0
  2  9  1  0
  9 10  1  0
 10 11  1  0
 11 12  2  0
 12 13  1  0
 13 14  2  0
 14 15  1  0
 15 16  2  0
  8  4  1  0
 16 11  1  0
  3 17  1  0
  3 18  1  0
  5 19  1  0
  6 20  1  0
  7 21  1  0
 10 22  1  0
 10 23  1  0
 12 24  1  0
 13 25  1  0
 14 26  1  0
 15 27  1  0
 16 28  1  0
M  CHG  1   9  -1
M  END
>  <UniqueID>  (23) 
23

>  <SMILES>  (23) 
O=C(Cc1cccs1)[N-]Cc1ccccc1

>  <Energy>  (23) 
48.07301740742918

>  <Genealogy>  (23) 
O=C(Cc1cccs1)[N-]Cc1ccccc1 (protonated)
O=C(Cc1cccs1)[N-]Cc1ccccc1 (3D coordinates assigned)
O=C(Cc1cccs1)[N-]Cc1ccccc1 (optimized conformer: 48.07301740742918 kcal/mol)

>  <smiles>  (23) 
O=C(Cc1cccs1)NCc1ccccc1

>  <score_type>  (23) 
oracle

>  <origin>  (23) 
adg

>  <m_score__min__energy>  (23) 
-8.5099999999999998

>  <m_primary>  (23) 
energy

$$$$
23:0
     RDKit          3D

 35 36  0  0  0  0  0  0  0  0999 V2000
   63.5837   34.1444   46.5161 H   0  0  0  0  0  0  0  0  0  0  0  0
   62.7680   33.8220   47.1800 C   0  0  0  0  0  0  0  0  0  0  0  0
   61.4550   33.7890   46.7070 C   0  0  0  0  0  0  0  0  0  0  0  0
   61.2374   34.0842   45.6699 H   0  0  0  0  0  0  0  0  0  0  0  0
   60.4150   33.3810   47.5500 C   0  0  0  0  0  0  0  0  0  0  0  0
   59.3829   33.3560   47.1702 H   0  0  0  0  0  0  0  0  0  0  0  0
   60.6790   33.0020   48.8810 C   0  0  0  0  0  0  0  0  0  0  0  0
   59.5850   32.5650   49.7870 C   0  0  0  0  0  0  0  0  0  0  0  0
   58.6160   31.1970   49.5650 S   0  0  0  0  0  0  0  0  0  0  0  0
   57.7230   31.4650   50.9680 C   0  0  0  0  0  0  0  0  0  0  0  0
   56.7450   30.7270   51.4070 N   0  0  0  0  0  0  0  0  0  0  0  0
   55.5090   31.2350   51.9980 C   0  0  0  0  0  0  0  0  0  0  0  0
   55.1829   32.1271   51.4432 H   0  0  0  0  0  0  0  0  0  0  0  0
   55.6981   31.4901   53.0512 H   0  0  0  0  0  0  0  0  0  0  0  0
   54.4040   30.1710   51.9370 C   0  0  0  0  0  0  0  0  0  0  0  0
   54.5683   29.4436   52.7457 H   0  0  0  0  0  0  0  0  0  0  0  0
   54.4534   29.6908   50.9486 H   0  0  0  0  0  0  0  0  0  0  0  0
   52.9950   30.7800   52.0960 C   0  0  0  0  0  0  0  0  0  0  0  0
   53.1032   31.8401   52.3689 H   0  0  0  0  0  0  0  0  0  0  0  0
   52.4782   30.1983   52.8735 H   0  0  0  0  0  0  0  0  0  0  0  0
   52.1380   30.6910   50.8220 C   0  0  0  0  0  0  0  0  0  0  0  0
   51.3929   29.8928   50.9553 H   0  0  0  0  0  0  0  0  0  0  0  0
   52.8166   30.4817   49.9819 H   0  0  0  0  0  0  0  0  0  0  0  0
   51.4040   31.9960   50.5050 C   0  0  0  0  0  0  0  0  0  0  0  0
   50.5758   31.7881   49.8115 H   0  0  0  0  0  0  0  0  0  0  0  0
   52.1100   32.7029   50.0447 H   0  0  0  0  0  0  0  0  0  0  0  0
   50.7540   32.7130   52.0000 S   0  0  0  0  0  0  0  0  0  0  0  0
   58.1390   32.5770   51.6070 N   0  0  0  0  0  0  0  0  0  0  0  0
   57.7240   32.9280   52.4990 H   0  0  0  0  0  0  0  0  0  0  0  0
   59.1690   33.1930   50.9670 C   0  0  0  0  0  0  0  0  0  0  0  0
   59.6383   34.1125   51.3468 H   0  0  0  0  0  0  0  0  0  0  0  0
   62.0110   33.0370   49.3420 C   0  0  0  0  0  0  0  0  0  0  0  0
   62.2380   32.7401   50.3766 H   0  0  0  0  0  0  0  0  0  0  0  0
   63.0460   33.4460   48.4950 C   0  0  0  0  0  0  0  0  0  0  0  0
   64.0812   33.4714   48.8660 H   0  0  0  0  0  0  0  0  0  0  0  0
  1  2  1  0
  2  3  2  0
  3  4  1  0
  3  5  1  0
  5  6  1  0
  5  7  2  0
  7  8  1  0
  8  9  1  0
  9 10  1  0
 10 11  2  0
 11 12  1  0
 12 13  1  0
 12 14  1  0
 12 15  1  0
 15 16  1  0
 15 17  1  0
 15 18  1  0
 18 19  1  0
 18 20  1  0
 18 21  1  0
 21 22  1  0
 21 23  1  0
 21 24  1  0
 24 25  1  0
 24 26  1  0
 24 27  1  0
 10 28  1  0
 28 29  1  0
 28 30  1  0
 30 31  1  0
  7 32  1  0
 32 33  1  0
 32 34  2  0
 34 35  1  0
 34  2  1  0
 30  8  2  0
M  CHG  1  27  -1
M  END
>  <UniqueID>  (24) 
24

>  <SMILES>  (24) 
[S-]CCCCC/N=c1/[nH]cc(-c2ccccc2)s1

>  <Energy>  (24) 
61.55809449256681

>  <Genealogy>  (24) 
[S-]CCCCCN=c1[nH]cc(-c2ccccc2)s1 (protonated)
[S-]CCCCC/N=c1/[nH]cc(-c2ccccc2)s1 (cis-trans isomerization)
[S-]CCCCC/N=c1/[nH]cc(-c2ccccc2)s1 (3D coordinates assigned)
[S-]CCCCC/N=c1/[nH]cc(-c2ccccc2)s1 (optimized conformer: 61.55809449256681 kcal/mol)

>  <smiles>  (24) 
SCCCCCN=c1[nH]cc(-c2ccccc2)s1

>  <score_type>  (24) 
oracle

>  <origin>  (24) 
adg

>  <m_score__min__energy>  (24) 
-8.75

>  <m_primary>  (24) 
energy

$$$$
24:0
     RDKit          3D

 19 20  0  0  0  0  0  0  0  0999 V2000
   59.6440   35.4400   45.6360 C   0  0  0  0  0  0  0  0  0  0  0  0
   59.0650   34.4400   44.8510 C   0  0  0  0  0  0  0  0  0  0  0  0
   58.5130   33.3020   45.4660 C   0  0  0  0  0  0  0  0  0  0  0  0
   57.8940   32.2250   44.6510 C   0  0  0  0  0  0  0  0  0  0  0  0
   57.7900   32.3360   43.2560 C   0  0  0  0  0  0  0  0  0  0  0  0
   57.2190   31.3400   42.5310 N   0  0  0  0  0  0  0  0  0  0  0  0
   56.7440   30.2210   43.1350 C   0  0  0  0  0  0  0  0  0  0  0  0
   56.8330   30.0850   44.4820 N   0  0  0  0  0  0  0  0  0  0  0  0
   57.3930   31.0570   45.2480 C   0  0  0  0  0  0  0  0  0  0  0  0
   58.5600   33.2040   46.8680 C   0  0  0  0  0  0  0  0  0  0  0  0
   59.1460   34.2300   47.6140 C   0  0  0  0  0  0  0  0  0  0  0  0
   59.6710   35.3150   46.9900 N   0  0  0  0  0  0  0  0  0  0  0  0
   60.0789   36.3302   45.1581 H   0  0  0  0  0  0  0  0  0  0  0  0
   59.0409   34.5423   43.7560 H   0  0  0  0  0  0  0  0  0  0  0  0
   58.1726   33.2334   42.7478 H   0  0  0  0  0  0  0  0  0  0  0  0
   56.2863   29.4233   42.5315 H   0  0  0  0  0  0  0  0  0  0  0  0
   57.4542   30.9288   46.3388 H   0  0  0  0  0  0  0  0  0  0  0  0
   58.1375   32.3240   47.3750 H   0  0  0  0  0  0  0  0  0  0  0  0
   59.1820   34.1581   48.7111 H   0  0  0  0  0  0  0  0  0  0  0  0
  1  2  2  0
  2  3  1  0
  3  4  1  0
  4  5  2  0
  5  6  1  0
  6  7  2  0
  7  8  1  0
  8  9  2  0
  3 10  2  0
 10 11  1  0
 11 12  2  0
 12  1  1  0
  9  4  1  0
  1 13  1  0
  2 14  1  0
  5 15  1  0
  7 16  1  0
  9 17  1  0
 10 18  1  0
 11 19  1  0
M  END
>  <UniqueID>  (25) 
25

>  <SMILES>  (25) 
c1cc(-c2cncnc2)ccn1

>  <Energy>  (25) 
27.23780437272613

>  <Genealogy>  (25) 
c1cc(-c2cncnc2)ccn1 (3D coordinates assigned)
c1cc(-c2cncnc2)ccn1 (optimized conformer: 27.23780437272613 kcal/mol)

>  <smiles>  (25) 
c1cc(-c2cncnc2)ccn1

>  <score_type>  (25) 
oracle

>  <origin>  (25) 
adg

>  <m_score__min__energy>  (25) 
-4.8499999999999996

>  <m_primary>  (25) 
energy

$$$$
25:0
     RDKit          3D

 35 35  0  0  0  0  0  0  0  0999 V2000
   59.7750   27.3850   46.7880 C   0  0  0  0  0  0  0  0  0  0  0  0
   58.7790   26.4120   47.0880 O   0  0  0  0  0  0  0  0  0  0  0  0
   58.4050   25.3630   46.2310 C   0  0  0  0  0  0  0  0  0  0  0  0
   59.2560   24.2690   45.9800 C   0  0  0  0  0  0  0  0  0  0  0  0
   58.8590   23.2300   45.1260 C   0  0  0  0  0  0  0  0  0  0  0  0
   59.7500   22.1300   44.8970 N   0  0  0  0  0  0  0  0  0  0  0  0
   57.5960   23.2880   44.5060 C   0  0  0  0  0  0  0  0  0  0  0  0
   57.0410   22.0270   43.4120 Cl  0  0  0  0  0  0  0  0  0  0  0  0
   56.7510   24.3740   44.7500 C   0  0  0  0  0  0  0  0  0  0  0  0
   57.1390   25.4040   45.6180 C   0  0  0  0  0  0  0  0  0  0  0  0
   56.2340   26.5480   45.8470 C   0  0  0  0  0  0  0  0  0  0  0  0
   55.0010   26.3360   45.9960 O   0  0  0  0  0  0  0  0  0  0  0  0
   56.7140   27.8970   45.8920 N   0  0  0  0  0  0  0  0  0  0  0  0
   56.5020   28.8860   44.8410 C   0  0  0  0  0  0  0  0  0  0  0  0
   57.8510   29.4020   44.3040 C   0  0  0  0  0  0  0  0  0  0  0  0
   58.2920   30.7010   44.8620 N   0  0  0  0  0  0  0  0  0  0  0  0
   57.4210   31.8250   44.4880 C   0  0  0  0  0  0  0  0  0  0  0  0
   58.5180   30.6610   46.3150 C   0  0  0  0  0  0  0  0  0  0  0  0
   60.1877   27.7881   47.7246 H   0  0  0  0  0  0  0  0  0  0  0  0
   60.5809   26.9167   46.2039 H   0  0  0  0  0  0  0  0  0  0  0  0
   59.3257   28.2016   46.2039 H   0  0  0  0  0  0  0  0  0  0  0  0
   60.2449   24.2291   46.4601 H   0  0  0  0  0  0  0  0  0  0  0  0
   60.7610   22.3000   44.6930 H   0  0  0  0  0  0  0  0  0  0  0  0
   59.4250   21.1390   44.9290 H   0  0  0  0  0  0  0  0  0  0  0  0
   55.7698   24.4211   44.2550 H   0  0  0  0  0  0  0  0  0  0  0  0
   55.9378   28.4237   44.0176 H   0  0  0  0  0  0  0  0  0  0  0  0
   55.9384   29.7332   45.2588 H   0  0  0  0  0  0  0  0  0  0  0  0
   58.6206   28.6516   44.5375 H   0  0  0  0  0  0  0  0  0  0  0  0
   57.7106   29.5631   43.2250 H   0  0  0  0  0  0  0  0  0  0  0  0
   57.0422   32.3138   45.3977 H   0  0  0  0  0  0  0  0  0  0  0  0
   57.9945   32.5512   43.8932 H   0  0  0  0  0  0  0  0  0  0  0  0
   56.5746   31.4509   43.8932 H   0  0  0  0  0  0  0  0  0  0  0  0
   57.5656   30.8296   46.8390 H   0  0  0  0  0  0  0  0  0  0  0  0
   58.9222   29.6774   46.5963 H   0  0  0  0  0  0  0  0  0  0  0  0
   59.2352   31.4462   46.5963 H   0  0  0  0  0  0  0  0  0  0  0  0
  1  2  1  0
  2  3  1  0
  3  4  2  0
  4  5  1  0
  5  6  1  0
  5  7  2  0
  7  8  1  0
  7  9  1  0
  9 10  2  0
 10 11  1  0
 11 12  2  0
 11 13  1  0
 13 14  1  0
 14 15  1  0
 15 16  1  0
 16 17  1  0
 16 18  1  0
 10  3  1  0
  1 19  1  0
  1 20  1  0
  1 21  1  0
  4 22  1  0
  6 23  1  0
  6 24  1  0
  9 25  1  0
 14 26  1  0
 14 27  1  0
 15 28  1  0
 15 29  1  0
 17 30  1  0
 17 31  1  0
 17 32  1  0
 18 33  1  0
 18 34  1  0
 18 35  1  0
M  CHG  1  13  -1
M  END
>  <UniqueID>  (26) 
26

>  <SMILES>  (26) 
COc1cc(N)c(Cl)cc1C(=O)[N-]CCN(C)C

>  <Energy>  (26) 
39.522095774608296

>  <Genealogy>  (26) 
COc1cc(N)c(Cl)cc1C(=O)[N-]CCN(C)C (protonated)
COc1cc(N)c(Cl)cc1C(=O)[N-]CCN(C)C (3D coordinates assigned)
COc1cc(N)c(Cl)cc1C(=O)[N-]CCN(C)C (optimized conformer: 39.522095774608296 kcal/mol)

>  <smiles>  (26) 
COc1cc(N)c(Cl)cc1C(=O)NCCN(C)C

>  <score_type>  (26) 
oracle

>  <origin>  (26) 
adg

>  <m_score__min__energy>  (26) 
-8.5500000000000007

>  <m_primary>  (26) 
energy

$$$$
26:0
     RDKit          3D

 51 54  0  0  0  0  0  0  0  0999 V2000
   55.8440   30.7810   44.5180 O   0  0  0  0  0  0  0  0  0  0  0  0
   57.0980   30.8710   44.6170 C   0  0  0  0  0  0  0  0  0  0  0  0
   57.6740   32.1330   45.1050 C   0  0  0  0  0  0  0  0  0  0  0  0
   57.7770   33.3270   44.3970 C   0  0  0  0  0  0  0  0  0  0  0  0
   58.3360   34.3690   45.1450 C   0  0  0  0  0  0  0  0  0  0  0  0
   58.6680   33.9980   46.4440 C   0  0  0  0  0  0  0  0  0  0  0  0
   59.2880   34.8960   47.4860 C   0  0  0  0  0  0  0  0  0  0  0  0
   60.7040   34.5820   47.7900 N   0  0  0  0  0  0  0  0  0  0  0  0
   61.3910   33.8510   46.7190 C   0  0  0  0  0  0  0  0  0  0  0  0
   61.4610   32.3870   47.1260 C   0  0  0  0  0  0  0  0  0  0  0  0
   61.2640   32.3730   48.6300 C   0  0  0  0  0  0  0  0  0  0  0  0
   60.8830   33.7970   49.0210 C   0  0  0  0  0  0  0  0  0  0  0  0
   58.2400   32.3860   46.6680 S   0  0  0  0  0  0  0  0  0  0  0  0
   57.9230   29.7380   44.2830 N   0  0  0  0  0  0  0  0  0  0  0  0
   59.2190   29.4800   44.8940 C   0  0  0  0  0  0  0  0  0  0  0  0
   59.6420   28.0970   44.4140 C   0  0  0  0  0  0  0  0  0  0  0  0
   58.3910   27.4470   43.8080 C   0  0  1  0  0  0  0  0  0  0  0  0
   57.8050   26.3960   44.7380 C   0  0  0  0  0  0  0  0  0  0  0  0
   57.3980   25.1540   44.2250 C   0  0  0  0  0  0  0  0  0  0  0  0
   56.8750   24.1730   45.0730 C   0  0  0  0  0  0  0  0  0  0  0  0
   56.7390   24.4160   46.4490 C   0  0  0  0  0  0  0  0  0  0  0  0
   56.2180   23.3330   47.3600 C   0  0  0  0  0  0  0  0  0  0  0  0
   56.9260   23.3570   48.5470 F   0  0  0  0  0  0  0  0  0  0  0  0
   54.8740   23.5180   47.6350 F   0  0  0  0  0  0  0  0  0  0  0  0
   56.3720   22.0930   46.7680 F   0  0  0  0  0  0  0  0  0  0  0  0
   57.1750   25.6460   46.9690 C   0  0  0  0  0  0  0  0  0  0  0  0
   57.6950   26.6290   46.1220 C   0  0  0  0  0  0  0  0  0  0  0  0
   57.4110   28.5960   43.5420 C   0  0  0  0  0  0  0  0  0  0  0  0
   57.4511   33.4402   43.3525 H   0  0  0  0  0  0  0  0  0  0  0  0
   58.4970   35.3812   44.7455 H   0  0  0  0  0  0  0  0  0  0  0  0
   59.2342   35.9334   47.1242 H   0  0  0  0  0  0  0  0  0  0  0  0
   58.7218   34.7406   48.4162 H   0  0  0  0  0  0  0  0  0  0  0  0
   60.8302   33.9514   45.7780 H   0  0  0  0  0  0  0  0  0  0  0  0
   62.4022   34.2557   46.5649 H   0  0  0  0  0  0  0  0  0  0  0  0
   60.6660   31.8117   46.6290 H   0  0  0  0  0  0  0  0  0  0  0  0
   62.4181   31.9288   46.8361 H   0  0  0  0  0  0  0  0  0  0  0  0
   60.4596   31.6742   48.9030 H   0  0  0  0  0  0  0  0  0  0  0  0
   62.1750   32.0437   49.1511 H   0  0  0  0  0  0  0  0  0  0  0  0
   59.9448   33.7866   49.5952 H   0  0  0  0  0  0  0  0  0  0  0  0
   61.6726   34.2432   49.6434 H   0  0  0  0  0  0  0  0  0  0  0  0
   59.9503   30.2363   44.5727 H   0  0  0  0  0  0  0  0  0  0  0  0
   59.1632   29.5258   45.9916 H   0  0  0  0  0  0  0  0  0  0  0  0
   60.4320   28.1835   43.6535 H   0  0  0  0  0  0  0  0  0  0  0  0
   60.0438   27.4935   45.2413 H   0  0  0  0  0  0  0  0  0  0  0  0
   58.6247   26.9088   42.8776 H   0  0  0  0  0  0  0  0  0  0  0  0
   57.4913   24.9512   43.1479 H   0  0  0  0  0  0  0  0  0  0  0  0
   56.5673   23.2018   44.6582 H   0  0  0  0  0  0  0  0  0  0  0  0
   57.1067   25.8369   48.0502 H   0  0  0  0  0  0  0  0  0  0  0  0
   58.0210   27.5927   46.5404 H   0  0  0  0  0  0  0  0  0  0  0  0
   57.3721   28.8242   42.4666 H   0  0  0  0  0  0  0  0  0  0  0  0
   56.3896   28.3360   43.8569 H   0  0  0  0  0  0  0  0  0  0  0  0
  1  2  2  0
  2  3  1  0
  3  4  2  0
  4  5  1  0
  5  6  2  0
  6  7  1  0
  7  8  1  0
  8  9  1  0
  9 10  1  0
 10 11  1  0
 11 12  1  0
  6 13  1  0
  2 14  1  0
 14 15  1  0
 15 16  1  0
 16 17  1  0
 17 18  1  0
 18 19  2  0
 19 20  1  0
 20 21  2  0
 21 22  1  0
 22 23  1  0
 22 24  1  0
 22 25  1  0
 21 26  1  0
 26 27  2  0
 17 28  1  0
 13  3  1  0
 28 14  1  0
 12  8  1  0
 27 18  1  0
  4 29  1  0
  5 30  1  0
  7 31  1  0
  7 32  1  0
  9 33  1  0
  9 34  1  0
 10 35  1  0
 10 36  1  0
 11 37  1  0
 11 38  1  0
 12 39  1  0
 12 40  1  0
 15 41  1  0
 15 42  1  0
 16 43  1  0
 16 44  1  0
 17 45  1  6
 19 46  1  0
 20 47  1  0
 26 48  1  0
 27 49  1  0
 28 50  1  0
 28 51  1  0
M  END
>  <UniqueID>  (27) 
27

>  <SMILES>  (27) 
O=C(c1ccc(CN2CCCC2)s1)N1CC[C@@H](c2ccc(C(F)(F)F)cc2)C1

>  <Energy>  (27) 
88.90424124616118

>  <Genealogy>  (27) 
O=C(c1ccc(CN2CCCC2)s1)N1CC[C@@H](c2ccc(C(F)(F)F)cc2)C1 (chirality)
O=C(c1ccc(CN2CCCC2)s1)N1CC[C@@H](c2ccc(C(F)(F)F)cc2)C1 (3D coordinates assigned)
O=C(c1ccc(CN2CCCC2)s1)N1CC[C@@H](c2ccc(C(F)(F)F)cc2)C1 (nonaromatic ring conformer: 88.90424124616118 kcal/mol)

>  <smiles>  (27) 
O=C(c1ccc(CN2CCCC2)s1)N1CCC(c2ccc(C(F)(F)F)cc2)C1

>  <score_type>  (27) 
oracle

>  <origin>  (27) 
adg

>  <m_score__min__energy>  (27) 
-8.3300000000000001

>  <m_primary>  (27) 
energy

$$$$
27:0
     RDKit          3D

 34 36  0  0  0  0  0  0  0  0999 V2000
   60.1540   28.8040   44.8660 C   0  0  0  0  0  0  0  0  0  0  0  0
   58.6890   28.6040   45.0860 C   0  0  0  0  0  0  0  0  0  0  0  0
   58.1660   27.5270   44.1370 C   0  0  0  0  0  0  0  0  0  0  0  0
   57.9030   29.8190   44.9950 N   0  0  0  0  0  0  0  0  0  0  0  0
   56.7100   29.9580   44.3630 C   0  0  0  0  0  0  0  0  0  0  0  0
   56.2670   31.2200   44.4790 N   0  0  0  0  0  0  0  0  0  0  0  0
   57.2010   31.8630   45.1910 C   0  0  0  0  0  0  0  0  0  0  0  0
   57.2900   33.1690   45.6210 C   0  0  0  0  0  0  0  0  0  0  0  0
   58.3880   33.6140   46.3690 C   0  0  0  0  0  0  0  0  0  0  0  0
   59.4250   32.7690   46.7080 C   0  0  0  0  0  0  0  0  0  0  0  0
   60.5650   33.2310   47.4840 C   0  0  0  0  0  0  0  0  0  0  0  0
   61.8570   33.1150   47.0220 C   0  0  0  0  0  0  0  0  0  0  0  0
   62.9420   33.5630   47.7770 C   0  0  0  0  0  0  0  0  0  0  0  0
   64.1620   33.4470   47.3270 N   0  0  0  0  0  0  0  0  0  0  0  0
   62.7400   34.1210   48.9840 N   0  0  0  0  0  0  0  0  0  0  0  0
   61.4770   34.2300   49.4290 C   0  0  0  0  0  0  0  0  0  0  0  0
   60.4090   33.7950   48.6950 N   0  0  0  0  0  0  0  0  0  0  0  0
   59.3210   31.4630   46.2700 C   0  0  0  0  0  0  0  0  0  0  0  0
   58.2380   31.0220   45.5320 C   0  0  0  0  0  0  0  0  0  0  0  0
   60.6646   28.8737   45.8378 H   0  0  0  0  0  0  0  0  0  0  0  0
   60.5592   27.9528   44.2991 H   0  0  0  0  0  0  0  0  0  0  0  0
   60.3162   29.7326   44.2991 H   0  0  0  0  0  0  0  0  0  0  0  0
   58.5692   28.2698   46.1271 H   0  0  0  0  0  0  0  0  0  0  0  0
   57.7591   26.6890   44.7220 H   0  0  0  0  0  0  0  0  0  0  0  0
   57.3733   27.9506   43.5029 H   0  0  0  0  0  0  0  0  0  0  0  0
   58.9891   27.1659   43.5029 H   0  0  0  0  0  0  0  0  0  0  0  0
   56.1819   29.1523   43.8320 H   0  0  0  0  0  0  0  0  0  0  0  0
   56.4842   33.8753   45.3725 H   0  0  0  0  0  0  0  0  0  0  0  0
   58.4244   34.6641   46.6944 H   0  0  0  0  0  0  0  0  0  0  0  0
   62.0378   32.6597   46.0371 H   0  0  0  0  0  0  0  0  0  0  0  0
   64.5560   32.5250   47.0900 H   0  0  0  0  0  0  0  0  0  0  0  0
   61.2967   34.6835   50.4148 H   0  0  0  0  0  0  0  0  0  0  0  0
   59.4850   33.9370   49.1500 H   0  0  0  0  0  0  0  0  0  0  0  0
   60.1239   30.7524   46.5157 H   0  0  0  0  0  0  0  0  0  0  0  0
  1  2  1  0
  2  3  1  0
  2  4  1  0
  4  5  1  0
  5  6  2  0
  6  7  1  0
  7  8  2  0
  8  9  1  0
  9 10  2  0
 10 11  1  0
 11 12  2  0
 12 13  1  0
 13 14  2  3
 13 15  1  0
 15 16  2  0
 16 17  1  0
 10 18  1  0
 18 19  2  0
 19  4  1  0
 19  7  1  0
 17 11  1  0
  1 20  1  0
  1 21  1  0
  1 22  1  0
  2 23  1  0
  3 24  1  0
  3 25  1  0
  3 26  1  0
  5 27  1  0
  8 28  1  0
  9 29  1  0
 12 30  1  0
 14 31  1  0
 16 32  1  0
 17 33  1  0
 18 34  1  0
M  END
>  <smiles>  (28) 
CC(C)n1cnc2ccc(-c3cc(=N)nc[nH]3)cc21

>  <score_type>  (28) 
oracle

>  <origin>  (28) 
adg

>  <m_score__min__energy>  (28) 
-6.7199999999999998

>  <m_primary>  (28) 
energy

$$$$
28:0
     RDKit          3D

 38 40  0  0  0  0  0  0  0  0999 V2000
   56.1586   33.4071   44.7090 H   0  0  0  0  0  0  0  0  0  0  0  0
   57.1490   32.9340   44.7820 C   0  0  0  0  0  0  0  0  0  0  0  0
   57.3910   31.8670   43.9950 C   0  0  0  0  0  0  0  0  0  0  0  0
   57.2050   30.5040   44.5520 C   0  0  0  0  0  0  0  0  0  0  0  0
   55.9490   29.8810   44.4800 C   0  0  0  0  0  0  0  0  0  0  0  0
   55.1064   30.4117   44.0128 H   0  0  0  0  0  0  0  0  0  0  0  0
   55.7640   28.6600   44.9680 O   0  0  0  0  0  0  0  0  0  0  0  0
   56.7380   27.9620   45.5440 C   0  0  0  0  0  0  0  0  0  0  0  0
   56.4720   26.6800   46.0350 C   0  0  0  0  0  0  0  0  0  0  0  0
   55.4602   26.2592   45.9394 H   0  0  0  0  0  0  0  0  0  0  0  0
   57.4810   25.9270   46.6470 C   0  0  0  0  0  0  0  0  0  0  0  0
   57.1590   24.6460   47.1220 O   0  0  0  0  0  0  0  0  0  0  0  0
   56.6210   23.6030   46.3170 C   0  0  0  0  0  0  0  0  0  0  0  0
   56.2135   22.8129   46.9648 H   0  0  0  0  0  0  0  0  0  0  0  0
   55.8186   24.0067   45.6820 H   0  0  0  0  0  0  0  0  0  0  0  0
   57.4151   23.1832   45.6820 H   0  0  0  0  0  0  0  0  0  0  0  0
   58.7730   26.4720   46.7630 C   0  0  0  0  0  0  0  0  0  0  0  0
   59.5721   25.8863   47.2409 H   0  0  0  0  0  0  0  0  0  0  0  0
   59.0480   27.7530   46.2750 C   0  0  0  0  0  0  0  0  0  0  0  0
   60.0609   28.1708   46.3727 H   0  0  0  0  0  0  0  0  0  0  0  0
   58.0350   28.5090   45.6600 C   0  0  0  0  0  0  0  0  0  0  0  0
   58.2640   29.8020   45.1570 C   0  0  0  0  0  0  0  0  0  0  0  0
   59.4040   30.3340   45.2570 O   0  0  0  0  0  0  0  0  0  0  0  0
   57.8620   32.0100   42.5680 C   0  0  0  0  0  0  0  0  0  0  0  0
   58.9145   32.3296   42.5596 H   0  0  0  0  0  0  0  0  0  0  0  0
   57.7683   31.0429   42.0523 H   0  0  0  0  0  0  0  0  0  0  0  0
   57.2464   32.7617   42.0523 H   0  0  0  0  0  0  0  0  0  0  0  0
   58.1170   33.5150   45.7360 C   0  0  0  0  0  0  0  0  0  0  0  0
   58.2140   33.0450   47.0570 C   0  0  0  0  0  0  0  0  0  0  0  0
   57.5437   32.2453   47.4051 H   0  0  0  0  0  0  0  0  0  0  0  0
   59.1600   33.5910   47.9300 C   0  0  0  0  0  0  0  0  0  0  0  0
   59.2222   33.2307   48.9674 H   0  0  0  0  0  0  0  0  0  0  0  0
   60.0260   34.5930   47.4870 C   0  0  0  0  0  0  0  0  0  0  0  0
   60.7647   35.0263   48.1773 H   0  0  0  0  0  0  0  0  0  0  0  0
   59.9540   35.0450   46.1670 C   0  0  0  0  0  0  0  0  0  0  0  0
   60.6412   35.8294   45.8170 H   0  0  0  0  0  0  0  0  0  0  0  0
   59.0100   34.5020   45.2900 C   0  0  0  0  0  0  0  0  0  0  0  0
   58.9670   34.8494   44.2472 H   0  0  0  0  0  0  0  0  0  0  0  0
  1  2  1  0
  2  3  2  0
  3  4  1  0
  4  5  2  0
  5  6  1  0
  5  7  1  0
  7  8  1  0
  8  9  2  0
  9 10  1  0
  9 11  1  0
 11 12  1  0
 12 13  1  0
 13 14  1  0
 13 15  1  0
 13 16  1  0
 11 17  2  0
 17 18  1  0
 17 19  1  0
 19 20  1  0
 19 21  2  0
 21 22  1  0
 22 23  2  0
  3 24  1  0
 24 25  1  0
 24 26  1  0
 24 27  1  0
  2 28  1  0
 28 29  2  0
 29 30  1  0
 29 31  1  0
 31 32  1  0
 31 33  2  0
 33 34  1  0
 33 35  1  0
 35 36  1  0
 35 37  2  0
 37 38  1  0
 22  4  1  0
 37 28  1  0
 21  8  1  0
M  END
>  <UniqueID>  (29) 
28

>  <SMILES>  (29) 
COc1ccc2c(=O)c(/C(C)=C/c3ccccc3)coc2c1

>  <Energy>  (29) 
57.850064198003025

>  <Genealogy>  (29) 
COc1ccc2c(=O)c(/C(C)=C/c3ccccc3)coc2c1 (cis-trans isomerization)
COc1ccc2c(=O)c(/C(C)=C/c3ccccc3)coc2c1 (3D coordinates assigned)
COc1ccc2c(=O)c(/C(C)=C/c3ccccc3)coc2c1 (optimized conformer: 57.850064198003025 kcal/mol)

>  <smiles>  (29) 
COc1ccc2c(=O)c(C(C)=Cc3ccccc3)coc2c1

>  <score_type>  (29) 
oracle

>  <origin>  (29) 
adg

>  <m_score__min__energy>  (29) 
-7.8499999999999996

>  <m_primary>  (29) 
energy

$$$$
29:0
     RDKit          3D

 57 61  0  0  0  0  0  0  0  0999 V2000
   55.7240   30.5180   52.2080 C   0  0  0  0  0  0  0  0  0  0  0  0
   57.0450   30.4180   51.6860 O   0  0  0  0  0  0  0  0  0  0  0  0
   57.8790   31.5130   51.4080 C   0  0  0  0  0  0  0  0  0  0  0  0
   58.2270   31.8650   50.0920 C   0  0  0  0  0  0  0  0  0  0  0  0
   59.0670   32.9550   49.8440 C   0  0  0  0  0  0  0  0  0  0  0  0
   59.4270   33.3110   48.4530 C   0  0  0  0  0  0  0  0  0  0  0  0
   58.5290   33.7180   47.4840 C   0  0  0  0  0  0  0  0  0  0  0  0
   59.3210   34.0440   46.4010 C   0  0  0  0  0  0  0  0  0  0  0  0
   58.8310   34.4870   45.0590 C   0  0  0  0  0  0  0  0  0  0  0  0
   58.2120   33.3270   44.3320 C   0  0  0  0  0  0  0  0  0  0  0  0
   58.5220   33.0940   42.9670 C   0  0  0  0  0  0  0  0  0  0  0  0
   57.9780   31.9870   42.2900 C   0  0  0  0  0  0  0  0  0  0  0  0
   57.1440   31.1340   43.0060 C   0  0  0  0  0  0  0  0  0  0  0  0
   56.8530   31.3440   44.3150 C   0  0  0  0  0  0  0  0  0  0  0  0
   57.3690   32.4270   45.0220 C   0  0  0  0  0  0  0  0  0  0  0  0
   56.0130   30.3440   44.7660 O   0  0  0  0  0  0  0  0  0  0  0  0
   55.7590   29.4510   43.6720 C   0  0  0  0  0  0  0  0  0  0  0  0
   56.5000   29.9930   42.5690 O   0  0  0  0  0  0  0  0  0  0  0  0
   60.6170   33.8190   46.6900 N   0  0  0  0  0  0  0  0  0  0  0  0
   60.6790   33.3760   47.9360 N   0  0  0  0  0  0  0  0  0  0  0  0
   61.9130   32.9670   48.5500 C   0  0  0  0  0  0  0  0  0  0  0  0
   63.0330   33.8080   48.5040 C   0  0  0  0  0  0  0  0  0  0  0  0
   64.2320   33.4070   49.0980 C   0  0  0  0  0  0  0  0  0  0  0  0
   64.3030   32.1610   49.7210 C   0  0  0  0  0  0  0  0  0  0  0  0
   63.2170   31.3420   49.7400 N   0  0  0  0  0  0  0  0  0  0  0  0
   62.0390   31.7110   49.1670 C   0  0  0  0  0  0  0  0  0  0  0  0
   59.5340   33.7190   50.9190 C   0  0  0  0  0  0  0  0  0  0  0  0
   59.2120   33.3800   52.2460 C   0  0  0  0  0  0  0  0  0  0  0  0
   59.7140   34.1300   53.3210 O   0  0  0  0  0  0  0  0  0  0  0  0
   58.9480   35.0280   54.1190 C   0  0  0  0  0  0  0  0  0  0  0  0
   58.3710   32.2630   52.4900 C   0  0  0  0  0  0  0  0  0  0  0  0
   57.9840   31.8420   53.7770 O   0  0  0  0  0  0  0  0  0  0  0  0
   58.5620   30.7840   54.5340 C   0  0  0  0  0  0  0  0  0  0  0  0
   55.7629   30.5151   53.3073 H   0  0  0  0  0  0  0  0  0  0  0  0
   55.2621   31.4537   51.8600 H   0  0  0  0  0  0  0  0  0  0  0  0
   55.1265   29.6625   51.8600 H   0  0  0  0  0  0  0  0  0  0  0  0
   57.8346   31.2771   49.2492 H   0  0  0  0  0  0  0  0  0  0  0  0
   57.4328   33.7703   47.5587 H   0  0  0  0  0  0  0  0  0  0  0  0
   58.0791   35.2794   45.1886 H   0  0  0  0  0  0  0  0  0  0  0  0
   59.6788   34.8711   44.4727 H   0  0  0  0  0  0  0  0  0  0  0  0
   59.1927   33.7841   42.4341 H   0  0  0  0  0  0  0  0  0  0  0  0
   58.2046   31.8020   41.2296 H   0  0  0  0  0  0  0  0  0  0  0  0
   57.1279   32.5773   46.0847 H   0  0  0  0  0  0  0  0  0  0  0  0
   56.1098   28.4364   43.9119 H   0  0  0  0  0  0  0  0  0  0  0  0
   54.6854   29.3686   43.4472 H   0  0  0  0  0  0  0  0  0  0  0  0
   62.9680   34.7837   48.0002 H   0  0  0  0  0  0  0  0  0  0  0  0
   65.1115   34.0673   49.0747 H   0  0  0  0  0  0  0  0  0  0  0  0
   65.2403   31.8396   50.1986 H   0  0  0  0  0  0  0  0  0  0  0  0
   63.2890   30.4080   50.2010 H   0  0  0  0  0  0  0  0  0  0  0  0
   61.1813   31.0225   49.1870 H   0  0  0  0  0  0  0  0  0  0  0  0
   60.1635   34.5996   50.7234 H   0  0  0  0  0  0  0  0  0  0  0  0
   59.1278   34.8172   55.1835 H   0  0  0  0  0  0  0  0  0  0  0  0
   59.2457   36.0629   53.8948 H   0  0  0  0  0  0  0  0  0  0  0  0
   57.8791   34.8972   53.8948 H   0  0  0  0  0  0  0  0  0  0  0  0
   58.4465   30.9955   55.6073 H   0  0  0  0  0  0  0  0  0  0  0  0
   58.0549   29.8389   54.2898 H   0  0  0  0  0  0  0  0  0  0  0  0
   59.6313   30.7001   54.2898 H   0  0  0  0  0  0  0  0  0  0  0  0
  1  2  1  0
  2  3  1  0
  3  4  2  0
  4  5  1  0
  5  6  1  0
  6  7  2  0
  7  8  1  0
  8  9  1  0
  9 10  1  0
 10 11  2  0
 11 12  1  0
 12 13  2  0
 13 14  1  0
 14 15  2  0
 14 16  1  0
 16 17  1  0
 17 18  1  0
  8 19  2  0
 19 20  1  0
 20 21  1  0
 21 22  2  0
 22 23  1  0
 23 24  2  0
 24 25  1  0
 25 26  2  0
  5 27  2  0
 27 28  1  0
 28 29  1  0
 29 30  1  0
 28 31  2  0
 31 32  1  0
 32 33  1  0
 31  3  1  0
 20  6  1  0
 26 21  1  0
 15 10  1  0
 18 13  1  0
  1 34  1  0
  1 35  1  0
  1 36  1  0
  4 37  1  0
  7 38  1  0
  9 39  1  0
  9 40  1  0
 11 41  1  0
 12 42  1  0
 15 43  1  0
 17 44  1  0
 17 45  1  0
 22 46  1  0
 23 47  1  0
 24 48  1  0
 25 49  1  0
 26 50  1  0
 27 51  1  0
 30 52  1  0
 30 53  1  0
 30 54  1  0
 33 55  1  0
 33 56  1  0
 33 57  1  0
M  CHG  1  25   1
M  END
>  <UniqueID>  (30) 
29

>  <SMILES>  (30) 
COc1cc(-c2cc(Cc3ccc4c(c3)OCO4)nn2-c2ccc[nH+]c2)cc(OC)c1OC

>  <Energy>  (30) 
128.09042711005085

>  <Genealogy>  (30) 
COc1cc(-c2cc(Cc3ccc4c(c3)OCO4)nn2-c2ccc[nH+]c2)cc(OC)c1OC (protonated)
COc1cc(-c2cc(Cc3ccc4c(c3)OCO4)nn2-c2ccc[nH+]c2)cc(OC)c1OC (3D coordinates assigned)
COc1cc(-c2cc(Cc3ccc4c(c3)OCO4)nn2-c2ccc[nH+]c2)cc(OC)c1OC (nonaromatic ring conformer: 128.09042711005085 kcal/mol)

>  <smiles>  (30) 
COc1cc(-c2cc(Cc3ccc4c(c3)OCO4)nn2-c2cccnc2)cc(OC)c1OC

>  <score_type>  (30) 
oracle

>  <origin>  (30) 
adg

>  <m_score__min__energy>  (30) 
-7.4900000000000002

>  <m_primary>  (30) 
energy

$$$$
30:0
     RDKit          3D

 36 38  0  0  0  0  0  0  0  0999 V2000
   56.1290   24.0900   44.5100 C   0  0  0  0  0  0  0  0  0  0  0  0
   57.0280   24.9800   45.2520 N   0  0  0  0  0  0  0  0  0  0  0  0
   58.3810   24.5340   45.6020 C   0  0  0  0  0  0  0  0  0  0  0  0
   56.5120   26.2240   45.7660 C   0  0  0  0  0  0  0  0  0  0  0  0
   55.2790   26.3330   46.0090 O   0  0  0  0  0  0  0  0  0  0  0  0
   57.3930   27.3820   46.0290 C   0  0  0  0  0  0  0  0  0  0  0  0
   58.2280   27.3890   47.1560 C   0  0  0  0  0  0  0  0  0  0  0  0
   59.0540   28.4850   47.4190 C   0  0  0  0  0  0  0  0  0  0  0  0
   59.0490   29.6030   46.5670 C   0  0  0  0  0  0  0  0  0  0  0  0
   59.9250   30.7690   46.8480 C   0  0  0  0  0  0  0  0  0  0  0  0
   59.3600   32.0540   47.0790 C   0  0  0  0  0  0  0  0  0  0  0  0
   60.1810   33.1650   47.3450 C   0  0  0  0  0  0  0  0  0  0  0  0
   61.5560   32.9650   47.3750 C   0  0  0  0  0  0  0  0  0  0  0  0
   62.5870   33.8500   47.6040 C   0  0  0  0  0  0  0  0  0  0  0  0
   63.7480   33.0880   47.5070 C   0  0  0  0  0  0  0  0  0  0  0  0
   63.4530   31.7960   47.2320 N   0  0  0  0  0  0  0  0  0  0  0  0
   62.1140   31.7350   47.1550 C   0  0  0  0  0  0  0  0  0  0  0  0
   61.3320   30.6130   46.8880 C   0  0  0  0  0  0  0  0  0  0  0  0
   58.1940   29.6030   45.4510 C   0  0  0  0  0  0  0  0  0  0  0  0
   57.3710   28.5040   45.1880 C   0  0  0  0  0  0  0  0  0  0  0  0
   55.5314   23.4983   45.2191 H   0  0  0  0  0  0  0  0  0  0  0  0
   55.4588   24.6903   43.8772 H   0  0  0  0  0  0  0  0  0  0  0  0
   56.7226   23.4138   43.8772 H   0  0  0  0  0  0  0  0  0  0  0  0
   58.4842   24.5000   46.6966 H   0  0  0  0  0  0  0  0  0  0  0  0
   58.5555   23.5308   45.1859 H   0  0  0  0  0  0  0  0  0  0  0  0
   59.1179   25.2368   45.1859 H   0  0  0  0  0  0  0  0  0  0  0  0
   58.2327   26.5256   47.8376 H   0  0  0  0  0  0  0  0  0  0  0  0
   59.7132   28.4728   48.2995 H   0  0  0  0  0  0  0  0  0  0  0  0
   58.2677   32.1805   47.0493 H   0  0  0  0  0  0  0  0  0  0  0  0
   59.7484   34.1605   47.5236 H   0  0  0  0  0  0  0  0  0  0  0  0
   62.5094   34.9263   47.8174 H   0  0  0  0  0  0  0  0  0  0  0  0
   64.7667   33.4823   47.6363 H   0  0  0  0  0  0  0  0  0  0  0  0
   64.1300   31.0130   47.1060 H   0  0  0  0  0  0  0  0  0  0  0  0
   61.7958   29.6311   46.7128 H   0  0  0  0  0  0  0  0  0  0  0  0
   58.1724   30.4742   44.7798 H   0  0  0  0  0  0  0  0  0  0  0  0
   56.7015   28.5194   44.3153 H   0  0  0  0  0  0  0  0  0  0  0  0
  1  2  1  0
  2  3  1  0
  2  4  1  0
  4  5  2  0
  4  6  1  0
  6  7  2  0
  7  8  1  0
  8  9  2  0
  9 10  1  0
 10 11  2  0
 11 12  1  0
 12 13  2  0
 13 14  1  0
 14 15  2  0
 15 16  1  0
 16 17  1  0
 17 18  2  0
  9 19  1  0
 19 20  2  0
 20  6  1  0
 18 10  1  0
 17 13  1  0
  1 21  1  0
  1 22  1  0
  1 23  1  0
  3 24  1  0
  3 25  1  0
  3 26  1  0
  7 27  1  0
  8 28  1  0
 11 29  1  0
 12 30  1  0
 14 31  1  0
 15 32  1  0
 16 33  1  0
 18 34  1  0
 19 35  1  0
 20 36  1  0
M  END
>  <UniqueID>  (31) 
30

>  <SMILES>  (31) 
CN(C)C(=O)c1ccc(-c2ccc3cc[nH]c3c2)cc1

>  <Energy>  (31) 
79.06679456484717

>  <Genealogy>  (31) 
CN(C)C(=O)c1ccc(-c2ccc3cc[nH]c3c2)cc1 (3D coordinates assigned)
CN(C)C(=O)c1ccc(-c2ccc3cc[nH]c3c2)cc1 (optimized conformer: 79.06679456484717 kcal/mol)

>  <smiles>  (31) 
CN(C)C(=O)c1ccc(-c2ccc3cc[nH]c3c2)cc1

>  <score_type>  (31) 
oracle

>  <origin>  (31) 
adg

>  <m_score__min__energy>  (31) 
-6.9900000000000002

>  <m_primary>  (31) 
energy

$$$$
31:0
     RDKit          3D

 24 25  0  0  0  0  0  0  0  0999 V2000
   58.1000   32.4650   41.5000 C   0  0  0  0  0  0  0  0  0  0  0  0
   57.9960   32.2000   42.9720 C   0  0  0  0  0  0  0  0  0  0  0  0
   58.4700   33.1380   43.9000 C   0  0  0  0  0  0  0  0  0  0  0  0
   58.3540   32.8980   45.2320 N   0  0  0  0  0  0  0  0  0  0  0  0
   57.7660   31.7700   45.7100 C   0  0  0  0  0  0  0  0  0  0  0  0
   57.2400   30.8180   44.8260 C   0  0  0  0  0  0  0  0  0  0  0  0
   56.6320   29.6220   45.3460 N   0  0  0  0  0  0  0  0  0  0  0  0
   56.9650   28.2990   44.9010 C   0  0  0  0  0  0  0  0  0  0  0  0
   57.4350   28.1230   43.7440 O   0  0  0  0  0  0  0  0  0  0  0  0
   56.6980   27.1250   45.7490 C   0  0  0  0  0  0  0  0  0  0  0  0
   55.4580   26.6480   45.9740 N   0  0  0  0  0  0  0  0  0  0  0  0
   55.5530   25.5760   46.7460 N   0  0  0  0  0  0  0  0  0  0  0  0
   56.8520   25.3550   47.0160 C   0  0  0  0  0  0  0  0  0  0  0  0
   57.6170   26.3180   46.3980 C   0  0  0  0  0  0  0  0  0  0  0  0
   59.5270   26.3720   46.3620 Br  0  0  0  0  0  0  0  0  0  0  0  0
   57.3700   31.0390   43.4450 C   0  0  0  0  0  0  0  0  0  0  0  0
   58.4974   33.4777   41.3369 H   0  0  0  0  0  0  0  0  0  0  0  0
   58.7755   31.7278   41.0415 H   0  0  0  0  0  0  0  0  0  0  0  0
   57.1034   32.3840   41.0415 H   0  0  0  0  0  0  0  0  0  0  0  0
   58.9367   34.0701   43.5488 H   0  0  0  0  0  0  0  0  0  0  0  0
   57.7026   31.6033   46.7954 H   0  0  0  0  0  0  0  0  0  0  0  0
   55.8220   29.7260   45.9980 H   0  0  0  0  0  0  0  0  0  0  0  0
   57.2421   24.5330   47.6342 H   0  0  0  0  0  0  0  0  0  0  0  0
   56.9790   30.2980   42.7322 H   0  0  0  0  0  0  0  0  0  0  0  0
  1  2  1  0
  2  3  2  0
  3  4  1  0
  4  5  2  0
  5  6  1  0
  6  7  1  0
  7  8  1  0
  8  9  2  0
  8 10  1  0
 10 11  1  0
 11 12  1  0
 12 13  2  0
 13 14  1  0
 14 15  1  0
  6 16  2  0
 16  2  1  0
 14 10  2  0
  1 17  1  0
  1 18  1  0
  1 19  1  0
  3 20  1  0
  5 21  1  0
  7 22  1  0
 13 23  1  0
 16 24  1  0
M  CHG  1  11  -1
M  END
>  <UniqueID>  (32) 
31

>  <SMILES>  (32) 
Cc1cncc(NC(=O)c2[n-]ncc2Br)c1

>  <Energy>  (32) 
59.24063907245607

>  <Genealogy>  (32) 
Cc1cncc(NC(=O)c2[n-]ncc2Br)c1 (protonated)
Cc1cncc(NC(=O)c2[n-]ncc2Br)c1 (3D coordinates assigned)
Cc1cncc(NC(=O)c2[n-]ncc2Br)c1 (optimized conformer: 59.24063907245607 kcal/mol)

>  <smiles>  (32) 
Cc1cncc(NC(=O)c2[nH]ncc2Br)c1

>  <score_type>  (32) 
oracle

>  <origin>  (32) 
adg

>  <m_score__min__energy>  (32) 
-9.1999999999999993

>  <m_primary>  (32) 
energy

$$$$
32:0
     RDKit          3D

 32 34  0  0  0  0  0  0  0  0999 V2000
   58.3764   32.0862   43.3900 H   0  0  0  0  0  0  0  0  0  0  0  0
   58.1200   31.7670   44.4110 C   0  0  0  0  0  0  0  0  0  0  0  0
   58.4840   32.5510   45.4390 C   0  0  0  0  0  0  0  0  0  0  0  0
   58.0060   33.8780   45.6200 N   0  0  0  0  0  0  0  0  0  0  0  0
   56.9410   34.5160   44.8500 C   0  0  0  0  0  0  0  0  0  0  0  0
   56.2048   34.9570   45.5381 H   0  0  0  0  0  0  0  0  0  0  0  0
   57.3697   35.3061   44.2161 H   0  0  0  0  0  0  0  0  0  0  0  0
   56.4466   33.7652   44.2161 H   0  0  0  0  0  0  0  0  0  0  0  0
   58.6400   34.4920   46.7720 C   0  0  0  0  0  0  0  0  0  0  0  0
   59.0905   35.4556   46.4919 H   0  0  0  0  0  0  0  0  0  0  0  0
   57.9130   34.6924   47.5728 H   0  0  0  0  0  0  0  0  0  0  0  0
   59.7270   33.5080   47.2320 C   0  0  0  0  0  0  0  0  0  0  0  0
   60.7238   33.9084   46.9950 H   0  0  0  0  0  0  0  0  0  0  0  0
   59.6771   33.3482   48.3192 H   0  0  0  0  0  0  0  0  0  0  0  0
   59.4930   32.1940   46.4740 C   0  0  0  0  0  0  0  0  0  0  0  0
   60.4242   31.8407   46.0070 H   0  0  0  0  0  0  0  0  0  0  0  0
   59.1553   31.3797   47.1319 H   0  0  0  0  0  0  0  0  0  0  0  0
   57.3940   30.5010   44.5900 C   0  0  0  0  0  0  0  0  0  0  0  0
   56.0560   30.2800   44.2870 C   0  0  0  0  0  0  0  0  0  0  0  0
   55.3823   31.0253   43.8391 H   0  0  0  0  0  0  0  0  0  0  0  0
   55.6990   29.0180   44.6210 N   0  0  0  0  0  0  0  0  0  0  0  0
   54.7570   28.5840   44.5070 H   0  0  0  0  0  0  0  0  0  0  0  0
   56.7970   28.4490   45.1510 C   0  0  0  0  0  0  0  0  0  0  0  0
   56.9080   27.1660   45.6830 C   0  0  0  0  0  0  0  0  0  0  0  0
   56.0575   26.4686   45.6648 H   0  0  0  0  0  0  0  0  0  0  0  0
   58.1420   26.7910   46.2440 C   0  0  0  0  0  0  0  0  0  0  0  0
   58.2674   25.7812   46.6617 H   0  0  0  0  0  0  0  0  0  0  0  0
   59.2220   27.7020   46.2750 C   0  0  0  0  0  0  0  0  0  0  0  0
   60.3980   27.3350   46.8390 F   0  0  0  0  0  0  0  0  0  0  0  0
   59.0780   28.9940   45.7370 C   0  0  0  0  0  0  0  0  0  0  0  0
   59.9055   29.7179   45.7698 H   0  0  0  0  0  0  0  0  0  0  0  0
   57.8510   29.3280   45.1600 C   0  0  0  0  0  0  0  0  0  0  0  0
  1  2  1  0
  2  3  2  0
  3  4  1  0
  4  5  1  0
  5  6  1  0
  5  7  1  0
  5  8  1  0
  4  9  1  0
  9 10  1  0
  9 11  1  0
  9 12  1  0
 12 13  1  0
 12 14  1  0
 12 15  1  0
 15 16  1  0
 15 17  1  0
  2 18  1  0
 18 19  2  0
 19 20  1  0
 19 21  1  0
 21 22  1  0
 21 23  1  0
 23 24  2  0
 24 25  1  0
 24 26  1  0
 26 27  1  0
 26 28  2  0
 28 29  1  0
 28 30  1  0
 30 31  1  0
 30 32  2  0
 15  3  1  0
 32 18  1  0
 32 23  1  0
M  END
>  <UniqueID>  (33) 
32

>  <SMILES>  (33) 
CN1CCC/C1=C\c1c[nH]c2ccc(F)cc12

>  <Energy>  (33) 
76.48248505153019

>  <Genealogy>  (33) 
CN1CCC/C1=C\c1c[nH]c2ccc(F)cc12 (cis-trans isomerization)
CN1CCC/C1=C\c1c[nH]c2ccc(F)cc12 (3D coordinates assigned)
CN1CCC/C1=C\c1c[nH]c2ccc(F)cc12 (nonaromatic ring conformer: 76.48248505153019 kcal/mol)

>  <smiles>  (33) 
CN1CCCC1=Cc1c[nH]c2ccc(F)cc12

>  <score_type>  (33) 
oracle

>  <origin>  (33) 
adg

>  <m_score__min__energy>  (33) 
-6.71

>  <m_primary>  (33) 
energy

$$$$
33:0
     RDKit          3D

 44 46  0  0  0  0  0  0  0  0999 V2000
   54.5590   24.8460   45.6150 C   0  0  0  0  0  0  0  0  0  0  0  0
   55.1200   26.0830   45.9960 O   0  0  0  0  0  0  0  0  0  0  0  0
   56.5180   26.0420   45.8060 C   0  0  0  0  0  0  0  0  0  0  0  0
   57.1960   27.0900   46.6980 C   0  0  0  0  0  0  0  0  0  0  0  0
   58.6090   27.3260   46.3120 N   0  0  0  0  0  0  0  0  0  0  0  0
   58.8400   27.3490   44.8430 C   0  0  0  0  0  0  0  0  0  0  0  0
   58.1250   28.5210   44.1330 C   0  0  0  0  0  0  0  0  0  0  0  0
   58.2630   29.7950   44.9190 C   0  0  0  0  0  0  0  0  0  0  0  0
   58.6740   29.7850   46.2430 C   0  0  0  0  0  0  0  0  0  0  0  0
   58.6880   31.3540   46.8430 S   0  0  0  0  0  0  0  0  0  0  0  0
   58.1170   32.0660   45.4210 C   0  0  0  0  0  0  0  0  0  0  0  0
   57.8700   33.4670   45.2310 N   0  0  0  0  0  0  0  0  0  0  0  0
   58.9380   34.4650   45.2280 C   0  0  0  0  0  0  0  0  0  0  0  0
   59.7970   34.3200   46.4560 C   0  0  0  0  0  0  0  0  0  0  0  0
   59.2700   34.6230   47.7220 C   0  0  0  0  0  0  0  0  0  0  0  0
   60.0600   34.4790   48.8670 C   0  0  0  0  0  0  0  0  0  0  0  0
   61.3810   34.0360   48.7550 C   0  0  0  0  0  0  0  0  0  0  0  0
   61.9130   33.7350   47.4980 C   0  0  0  0  0  0  0  0  0  0  0  0
   61.1270   33.8770   46.3510 C   0  0  0  0  0  0  0  0  0  0  0  0
   57.9280   31.0770   44.4550 C   0  0  0  0  0  0  0  0  0  0  0  0
   57.4350   31.3410   43.1270 C   0  0  0  0  0  0  0  0  0  0  0  0
   57.0390   31.5520   42.0600 N   0  0  0  0  0  0  0  0  0  0  0  0
   59.1470   28.5510   46.9490 C   0  0  0  0  0  0  0  0  0  0  0  0
   54.2975   24.2694   46.5145 H   0  0  0  0  0  0  0  0  0  0  0  0
   53.6531   25.0230   45.0167 H   0  0  0  0  0  0  0  0  0  0  0  0
   55.2890   24.2811   45.0167 H   0  0  0  0  0  0  0  0  0  0  0  0
   56.8928   25.0417   46.0687 H   0  0  0  0  0  0  0  0  0  0  0  0
   56.7473   26.2596   44.7524 H   0  0  0  0  0  0  0  0  0  0  0  0
   56.6431   28.0373   46.6143 H   0  0  0  0  0  0  0  0  0  0  0  0
   57.1872   26.7107   47.7305 H   0  0  0  0  0  0  0  0  0  0  0  0
   59.9212   27.4368   44.6603 H   0  0  0  0  0  0  0  0  0  0  0  0
   58.4262   26.4163   44.4322 H   0  0  0  0  0  0  0  0  0  0  0  0
   58.5702   28.6632   43.1372 H   0  0  0  0  0  0  0  0  0  0  0  0
   57.0557   28.2775   44.0472 H   0  0  0  0  0  0  0  0  0  0  0  0
   56.8880   33.7990   45.1000 H   0  0  0  0  0  0  0  0  0  0  0  0
   59.5607   34.3264   44.3319 H   0  0  0  0  0  0  0  0  0  0  0  0
   58.4878   35.4686   45.2246 H   0  0  0  0  0  0  0  0  0  0  0  0
   58.2318   34.9750   47.8134 H   0  0  0  0  0  0  0  0  0  0  0  0
   59.6414   34.7146   49.8566 H   0  0  0  0  0  0  0  0  0  0  0  0
   62.0019   33.9243   49.6561 H   0  0  0  0  0  0  0  0  0  0  0  0
   62.9524   33.3856   47.4113 H   0  0  0  0  0  0  0  0  0  0  0  0
   61.5503   33.6415   45.3634 H   0  0  0  0  0  0  0  0  0  0  0  0
   60.2460   28.5186   46.9163 H   0  0  0  0  0  0  0  0  0  0  0  0
   58.7892   28.5873   47.9885 H   0  0  0  0  0  0  0  0  0  0  0  0
  1  2  1  0
  2  3  1  0
  3  4  1  0
  4  5  1  0
  5  6  1  0
  6  7  1  0
  7  8  1  0
  8  9  2  0
  9 10  1  0
 10 11  1  0
 11 12  1  0
 12 13  1  0
 13 14  1  0
 14 15  2  0
 15 16  1  0
 16 17  2  0
 17 18  1  0
 18 19  2  0
 11 20  2  0
 20 21  1  0
 21 22  3  0
  9 23  1  0
 23  5  1  0
 20  8  1  0
 19 14  1  0
  1 24  1  0
  1 25  1  0
  1 26  1  0
  3 27  1  0
  3 28  1  0
  4 29  1  0
  4 30  1  0
  6 31  1  0
  6 32  1  0
  7 33  1  0
  7 34  1  0
 12 35  1  0
 13 36  1  0
 13 37  1  0
 15 38  1  0
 16 39  1  0
 17 40  1  0
 18 41  1  0
 19 42  1  0
 23 43  1  0
 23 44  1  0
M  END
>  <UniqueID>  (34) 
33

>  <SMILES>  (34) 
COCCN1CCc2c(sc(NCc3ccccc3)c2C#N)C1

>  <Energy>  (34) 
75.72830401671902

>  <Genealogy>  (34) 
COCCN1CCc2c(sc(NCc3ccccc3)c2C#N)C1 (3D coordinates assigned)
COCCN1CCc2c(sc(NCc3ccccc3)c2C#N)C1 (nonaromatic ring conformer: 75.72830401671902 kcal/mol)

>  <smiles>  (34) 
COCCN1CCc2c(sc(NCc3ccccc3)c2C#N)C1

>  <score_type>  (34) 
oracle

>  <origin>  (34) 
adg

>  <m_score__min__energy>  (34) 
-7.5499999999999998

>  <m_primary>  (34) 
energy

$$$$
34:0
     RDKit          3D

 33 34  0  0  0  0  0  0  0  0999 V2000
   55.7890   29.5090   45.0110 O   0  0  0  0  0  0  0  0  0  0  0  0
   57.0140   29.4010   45.2930 C   0  0  0  0  0  0  0  0  0  0  0  0
   57.9200   30.4620   44.9550 N   0  0  0  0  0  0  0  0  0  0  0  0
   57.4620   31.7330   44.3970 C   0  0  0  0  0  0  0  0  0  0  0  0
   58.0530   32.8820   45.1660 C   0  0  0  0  0  0  0  0  0  0  0  0
   58.7570   33.9030   44.5080 C   0  0  0  0  0  0  0  0  0  0  0  0
   59.3140   34.9510   45.2430 C   0  0  0  0  0  0  0  0  0  0  0  0
   59.1670   34.9670   46.6320 C   0  0  0  0  0  0  0  0  0  0  0  0
   58.4860   33.9690   47.2560 N   0  0  0  0  0  0  0  0  0  0  0  0
   57.9340   32.9370   46.5620 C   0  0  0  0  0  0  0  0  0  0  0  0
   57.4940   28.1940   45.9140 N   0  0  0  0  0  0  0  0  0  0  0  0
   56.8150   26.9220   45.6210 C   0  0  0  0  0  0  0  0  0  0  0  0
   57.5620   25.7280   46.2320 C   0  0  0  0  0  0  0  0  0  0  0  0
   59.0720   25.8650   45.9960 C   0  0  0  0  0  0  0  0  0  0  0  0
   59.6510   27.1820   46.5620 C   0  0  0  0  0  0  0  0  0  0  0  0
   58.5750   28.2240   46.9080 C   0  0  0  0  0  0  0  0  0  0  0  0
   58.9500   30.3040   45.0260 H   0  0  0  0  0  0  0  0  0  0  0  0
   57.7747   31.8013   43.3446 H   0  0  0  0  0  0  0  0  0  0  0  0
   56.3653   31.7809   44.4673 H   0  0  0  0  0  0  0  0  0  0  0  0
   58.8696   33.8772   43.4141 H   0  0  0  0  0  0  0  0  0  0  0  0
   59.8633   35.7563   44.7333 H   0  0  0  0  0  0  0  0  0  0  0  0
   59.6024   35.7874   47.2214 H   0  0  0  0  0  0  0  0  0  0  0  0
   57.3927   32.1433   47.0978 H   0  0  0  0  0  0  0  0  0  0  0  0
   55.7972   26.9568   46.0367 H   0  0  0  0  0  0  0  0  0  0  0  0
   56.7895   26.7894   44.5293 H   0  0  0  0  0  0  0  0  0  0  0  0
   57.3658   25.6927   47.3138 H   0  0  0  0  0  0  0  0  0  0  0  0
   57.2083   24.8028   45.7536 H   0  0  0  0  0  0  0  0  0  0  0  0
   59.5815   25.0199   46.4819 H   0  0  0  0  0  0  0  0  0  0  0  0
   59.2375   25.8715   44.9085 H   0  0  0  0  0  0  0  0  0  0  0  0
   60.2175   26.9494   47.4758 H   0  0  0  0  0  0  0  0  0  0  0  0
   60.2867   27.6201   45.7784 H   0  0  0  0  0  0  0  0  0  0  0  0
   58.1598   27.9999   47.9017 H   0  0  0  0  0  0  0  0  0  0  0  0
   59.0334   29.2240   46.9063 H   0  0  0  0  0  0  0  0  0  0  0  0
  1  2  2  0
  2  3  1  0
  3  4  1  0
  4  5  1  0
  5  6  2  0
  6  7  1  0
  7  8  2  0
  8  9  1  0
  9 10  2  0
  2 11  1  0
 11 12  1  0
 12 13  1  0
 13 14  1  0
 14 15  1  0
 15 16  1  0
 10  5  1  0
 16 11  1  0
  3 17  1  0
  4 18  1  0
  4 19  1  0
  6 20  1  0
  7 21  1  0
  8 22  1  0
 10 23  1  0
 12 24  1  0
 12 25  1  0
 13 26  1  0
 13 27  1  0
 14 28  1  0
 14 29  1  0
 15 30  1  0
 15 31  1  0
 16 32  1  0
 16 33  1  0
M  END
>  <UniqueID>  (35) 
34

>  <SMILES>  (35) 
O=C(NCc1cccnc1)N1CCCCC1

>  <Energy>  (35) 
33.263444280412365

>  <Genealogy>  (35) 
O=C(NCc1cccnc1)N1CCCCC1 (3D coordinates assigned)
O=C(NCc1cccnc1)N1CCCCC1 (nonaromatic ring conformer: 33.263444280412365 kcal/mol)

>  <smiles>  (35) 
O=C(NCc1cccnc1)N1CCCCC1

>  <score_type>  (35) 
oracle

>  <origin>  (35) 
adg

>  <m_score__min__energy>  (35) 
-6.5300000000000002

>  <m_primary>  (35) 
energy

$$$$
35:0
     RDKit          3D

 31 32  0  0  0  0  0  0  0  0999 V2000
   57.8440   32.7010   48.2100 F   0  0  0  0  0  0  0  0  0  0  0  0
   58.2070   33.4320   47.1270 C   0  0  0  0  0  0  0  0  0  0  0  0
   57.3860   33.4200   45.9940 C   0  0  0  0  0  0  0  0  0  0  0  0
   57.7300   34.1710   44.8680 C   0  0  0  0  0  0  0  0  0  0  0  0
   58.8960   34.9400   44.8700 C   0  0  0  0  0  0  0  0  0  0  0  0
   59.7220   34.9560   45.9980 C   0  0  0  0  0  0  0  0  0  0  0  0
   59.3890   34.1990   47.1350 C   0  0  0  0  0  0  0  0  0  0  0  0
   60.3040   34.2190   48.3430 C   0  0  0  0  0  0  0  0  0  0  0  0
   61.0080   32.9240   48.5430 N   0  0  0  0  0  0  0  0  0  0  0  0
   61.5460   32.3840   47.2560 C   0  0  0  0  0  0  0  0  0  0  0  0
   63.0800   32.4740   47.1170 C   0  0  0  0  0  0  0  0  0  0  0  0
   63.6130   33.7630   47.7320 C   0  0  0  0  0  0  0  0  0  0  0  0
   63.2510   33.8640   49.2220 C   0  0  0  0  0  0  0  0  0  0  0  0
   62.0380   32.9920   49.6090 C   0  0  0  0  0  0  0  0  0  0  0  0
   56.4662   32.8168   45.9902 H   0  0  0  0  0  0  0  0  0  0  0  0
   57.0823   34.1569   43.9790 H   0  0  0  0  0  0  0  0  0  0  0  0
   59.1646   35.5334   43.9836 H   0  0  0  0  0  0  0  0  0  0  0  0
   60.6382   35.5647   45.9959 H   0  0  0  0  0  0  0  0  0  0  0  0
   61.0544   35.0113   48.2046 H   0  0  0  0  0  0  0  0  0  0  0  0
   59.6822   34.4033   49.2315 H   0  0  0  0  0  0  0  0  0  0  0  0
   60.2900   32.2350   48.8720 H   0  0  0  0  0  0  0  0  0  0  0  0
   61.2553   31.3259   47.1789 H   0  0  0  0  0  0  0  0  0  0  0  0
   61.1217   33.0056   46.4537 H   0  0  0  0  0  0  0  0  0  0  0  0
   63.5380   31.6153   47.6297 H   0  0  0  0  0  0  0  0  0  0  0  0
   63.3345   32.4666   46.0469 H   0  0  0  0  0  0  0  0  0  0  0  0
   64.7078   33.7836   47.6273 H   0  0  0  0  0  0  0  0  0  0  0  0
   63.1548   34.6133   47.2057 H   0  0  0  0  0  0  0  0  0  0  0  0
   64.1186   33.5409   49.8161 H   0  0  0  0  0  0  0  0  0  0  0  0
   62.9812   34.9110   49.4245 H   0  0  0  0  0  0  0  0  0  0  0  0
   62.3925   31.9721   49.8192 H   0  0  0  0  0  0  0  0  0  0  0  0
   61.5689   33.4540   50.4902 H   0  0  0  0  0  0  0  0  0  0  0  0
  1  2  1  0
  2  3  2  0
  3  4  1  0
  4  5  2  0
  5  6  1  0
  6  7  2  0
  7  8  1  0
  8  9  1  0
  9 10  1  0
 10 11  1  0
 11 12  1  0
 12 13  1  0
 13 14  1  0
  7  2  1  0
 14  9  1  0
  3 15  1  0
  4 16  1  0
  5 17  1  0
  6 18  1  0
  8 19  1  0
  8 20  1  0
  9 21  1  0
 10 22  1  0
 10 23  1  0
 11 24  1  0
 11 25  1  0
 12 26  1  0
 12 27  1  0
 13 28  1  0
 13 29  1  0
 14 30  1  0
 14 31  1  0
M  CHG  1   9   1
M  END
>  <UniqueID>  (36) 
35

>  <SMILES>  (36) 
Fc1ccccc1C[NH+]1CCCCC1

>  <Energy>  (36) 
40.23272271728746

>  <Genealogy>  (36) 
Fc1ccccc1C[NH+]1CCCCC1 (protonated)
Fc1ccccc1C[NH+]1CCCCC1 (3D coordinates assigned)
Fc1ccccc1C[NH+]1CCCCC1 (nonaromatic ring conformer: 40.23272271728746 kcal/mol)

>  <smiles>  (36) 
Fc1ccccc1CN1CCCCC1

>  <score_type>  (36) 
oracle

>  <origin>  (36) 
adg

>  <m_score__min__energy>  (36) 
-4.1100000000000003

>  <m_primary>  (36) 
energy

$$$$
36:0
     RDKit          3D

 30 32  0  0  0  0  0  0  0  0999 V2000
   60.1240   34.5900   48.9600 C   0  0  0  0  0  0  0  0  0  0  0  0
   59.2830   33.5530   48.3600 N   0  0  0  0  0  0  0  0  0  0  0  0
   58.7790   32.4320   49.1560 C   0  0  0  0  0  0  0  0  0  0  0  0
   58.9480   33.6440   46.9670 C   0  0  0  0  0  0  0  0  0  0  0  0
   59.1640   34.7360   46.2070 N   0  0  0  0  0  0  0  0  0  0  0  0
   58.7330   34.4260   44.9940 N   0  0  0  0  0  0  0  0  0  0  0  0
   58.2680   33.1640   45.0680 C   0  0  0  0  0  0  0  0  0  0  0  0
   57.7170   32.4010   43.9080 C   0  0  0  0  0  0  0  0  0  0  0  0
   57.1920   31.1190   44.3640 N   0  0  0  0  0  0  0  0  0  0  0  0
   55.9000   30.8390   44.5060 N   0  0  0  0  0  0  0  0  0  0  0  0
   55.7220   29.5690   44.8690 N   0  0  0  0  0  0  0  0  0  0  0  0
   56.9550   29.0360   44.9440 C   0  0  0  0  0  0  0  0  0  0  0  0
   57.3240   27.7330   45.2620 C   0  0  0  0  0  0  0  0  0  0  0  0
   58.7010   27.4270   45.2440 C   0  0  0  0  0  0  0  0  0  0  0  0
   59.6530   28.4200   44.9100 C   0  0  0  0  0  0  0  0  0  0  0  0
   59.2390   29.7290   44.5920 C   0  0  0  0  0  0  0  0  0  0  0  0
   57.8690   29.9900   44.6270 C   0  0  0  0  0  0  0  0  0  0  0  0
   58.4010   32.6740   46.2770 O   0  0  0  0  0  0  0  0  0  0  0  0
   60.0669   34.5196   50.0563 H   0  0  0  0  0  0  0  0  0  0  0  0
   61.1661   34.4491   48.6373 H   0  0  0  0  0  0  0  0  0  0  0  0
   59.7710   35.5806   48.6373 H   0  0  0  0  0  0  0  0  0  0  0  0
   58.8840   32.6655   50.2258 H   0  0  0  0  0  0  0  0  0  0  0  0
   57.7181   32.2625   48.9201 H   0  0  0  0  0  0  0  0  0  0  0  0
   59.3564   31.5259   48.9201 H   0  0  0  0  0  0  0  0  0  0  0  0
   56.9080   32.9814   43.4404 H   0  0  0  0  0  0  0  0  0  0  0  0
   58.5185   32.2252   43.1754 H   0  0  0  0  0  0  0  0  0  0  0  0
   56.5722   26.9717   45.5173 H   0  0  0  0  0  0  0  0  0  0  0  0
   59.0374   26.4093   45.4913 H   0  0  0  0  0  0  0  0  0  0  0  0
   60.7237   28.1680   44.8986 H   0  0  0  0  0  0  0  0  0  0  0  0
   59.9652   30.5117   44.3274 H   0  0  0  0  0  0  0  0  0  0  0  0
  1  2  1  0
  2  3  1  0
  2  4  1  0
  4  5  2  0
  5  6  1  0
  6  7  2  0
  7  8  1  0
  8  9  1  0
  9 10  1  0
 10 11  2  0
 11 12  1  0
 12 13  2  0
 13 14  1  0
 14 15  2  0
 15 16  1  0
 16 17  2  0
  7 18  1  0
 18  4  1  0
 17  9  1  0
 17 12  1  0
  1 19  1  0
  1 20  1  0
  1 21  1  0
  3 22  1  0
  3 23  1  0
  3 24  1  0
  8 25  1  0
  8 26  1  0
 13 27  1  0
 14 28  1  0
 15 29  1  0
 16 30  1  0
M  END
>  <UniqueID>  (37) 
36

>  <SMILES>  (37) 
CN(C)c1nnc(Cn2nnc3ccccc32)o1

>  <Energy>  (37) 
105.4143131909071

>  <Genealogy>  (37) 
CN(C)c1nnc(Cn2nnc3ccccc32)o1 (3D coordinates assigned)
CN(C)c1nnc(Cn2nnc3ccccc32)o1 (optimized conformer: 105.4143131909071 kcal/mol)

>  <smiles>  (37) 
CN(C)c1nnc(Cn2nnc3ccccc32)o1

>  <score_type>  (37) 
oracle

>  <origin>  (37) 
adg

>  <m_score__min__energy>  (37) 
-6.8099999999999996

>  <m_primary>  (37) 
energy

$$$$
37:0
     RDKit          3D

 43 46  0  0  0  0  0  0  0  0999 V2000
   60.3150   27.5540   45.6950 C   0  0  0  0  0  0  0  0  0  0  0  0
   59.2250   26.9290   46.1490 C   0  0  0  0  0  0  0  0  0  0  0  0
   57.8890   27.6160   46.2070 C   0  0  0  0  0  0  0  0  0  0  0  0
   58.0470   29.0760   46.0970 N   0  0  0  0  0  0  0  0  0  0  0  0
   58.5190   29.7840   47.3090 C   0  0  0  0  0  0  0  0  0  0  0  0
   58.9780   31.1700   46.9960 C   0  0  0  0  0  0  0  0  0  0  0  0
   59.6530   32.0800   47.7820 C   0  0  0  0  0  0  0  0  0  0  0  0
   59.7850   33.2180   47.0650 N   0  0  0  0  0  0  0  0  0  0  0  0
   60.5090   34.4140   47.4800 C   0  0  0  0  0  0  0  0  0  0  0  0
   61.8450   34.0280   48.0500 C   0  0  0  0  0  0  0  0  0  0  0  0
   62.8370   33.4790   47.2200 C   0  0  0  0  0  0  0  0  0  0  0  0
   64.0630   33.0790   47.7590 C   0  0  0  0  0  0  0  0  0  0  0  0
   64.3030   33.2140   49.1300 C   0  0  0  0  0  0  0  0  0  0  0  0
   63.3150   33.7440   49.9640 C   0  0  0  0  0  0  0  0  0  0  0  0
   62.0870   34.1450   49.4280 C   0  0  0  0  0  0  0  0  0  0  0  0
   59.2320   33.0560   45.8700 N   0  0  0  0  0  0  0  0  0  0  0  0
   58.7240   31.8100   45.8190 C   0  0  0  0  0  0  0  0  0  0  0  0
   58.0150   31.1580   44.7180 C   0  0  0  0  0  0  0  0  0  0  0  0
   57.6790   31.8500   43.5440 C   0  0  0  0  0  0  0  0  0  0  0  0
   56.9930   31.1950   42.5200 C   0  0  0  0  0  0  0  0  0  0  0  0
   56.6410   29.8540   42.6610 C   0  0  0  0  0  0  0  0  0  0  0  0
   56.9720   29.1560   43.8260 C   0  0  0  0  0  0  0  0  0  0  0  0
   57.6670   29.7940   44.8770 C   0  0  0  0  0  0  0  0  0  0  0  0
   61.2793   27.0256   45.6643 H   0  0  0  0  0  0  0  0  0  0  0  0
   60.2482   28.5970   45.3519 H   0  0  0  0  0  0  0  0  0  0  0  0
   59.3071   25.8860   46.4887 H   0  0  0  0  0  0  0  0  0  0  0  0
   57.2627   27.2574   45.3769 H   0  0  0  0  0  0  0  0  0  0  0  0
   57.4147   27.3842   47.1721 H   0  0  0  0  0  0  0  0  0  0  0  0
   57.6940   29.8371   48.0347 H   0  0  0  0  0  0  0  0  0  0  0  0
   59.3721   29.2255   47.7217 H   0  0  0  0  0  0  0  0  0  0  0  0
   60.0176   31.9106   48.8059 H   0  0  0  0  0  0  0  0  0  0  0  0
   60.6589   35.0704   46.6101 H   0  0  0  0  0  0  0  0  0  0  0  0
   59.9258   34.9436   48.2477 H   0  0  0  0  0  0  0  0  0  0  0  0
   62.6481   33.3636   46.1425 H   0  0  0  0  0  0  0  0  0  0  0  0
   64.8398   32.6576   47.1041 H   0  0  0  0  0  0  0  0  0  0  0  0
   65.2700   32.9028   49.5521 H   0  0  0  0  0  0  0  0  0  0  0  0
   63.5032   33.8459   51.0430 H   0  0  0  0  0  0  0  0  0  0  0  0
   61.3080   34.5535   50.0885 H   0  0  0  0  0  0  0  0  0  0  0  0
   59.2200   33.7790   45.1160 H   0  0  0  0  0  0  0  0  0  0  0  0
   57.9563   32.9085   43.4309 H   0  0  0  0  0  0  0  0  0  0  0  0
   56.7298   31.7381   41.6003 H   0  0  0  0  0  0  0  0  0  0  0  0
   56.1000   29.3422   41.8515 H   0  0  0  0  0  0  0  0  0  0  0  0
   56.6880   28.0979   43.9253 H   0  0  0  0  0  0  0  0  0  0  0  0
  1  2  2  0
  2  3  1  0
  3  4  1  0
  4  5  1  0
  5  6  1  0
  6  7  2  0
  7  8  1  0
  8  9  1  0
  9 10  1  0
 10 11  2  0
 11 12  1  0
 12 13  2  0
 13 14  1  0
 14 15  2  0
  8 16  1  0
 16 17  2  0
 17 18  1  0
 18 19  2  0
 19 20  1  0
 20 21  2  0
 21 22  1  0
 22 23  2  0
 23  4  1  0
 17  6  1  0
 23 18  1  0
 15 10  1  0
  1 24  1  0
  1 25  1  0
  2 26  1  0
  3 27  1  0
  3 28  1  0
  5 29  1  0
  5 30  1  0
  7 31  1  0
  9 32  1  0
  9 33  1  0
 11 34  1  0
 12 35  1  0
 13 36  1  0
 14 37  1  0
 15 38  1  0
 16 39  1  0
 19 40  1  0
 20 41  1  0
 21 42  1  0
 22 43  1  0
M  CHG  1  16   1
M  END
>  <UniqueID>  (38) 
37

>  <SMILES>  (38) 
C=CCN1Cc2cn(Cc3ccccc3)[nH+]c2-c2ccccc21

>  <Energy>  (38) 
80.50825565420772

>  <Genealogy>  (38) 
C=CCN1Cc2cn(Cc3ccccc3)[nH+]c2-c2ccccc21 (protonated)
C=CCN1Cc2cn(Cc3ccccc3)[nH+]c2-c2ccccc21 (3D coordinates assigned)
C=CCN1Cc2cn(Cc3ccccc3)[nH+]c2-c2ccccc21 (nonaromatic ring conformer: 80.50825565420772 kcal/mol)

>  <smiles>  (38) 
C=CCN1Cc2cn(Cc3ccccc3)nc2-c2ccccc21

>  <score_type>  (38) 
oracle

>  <origin>  (38) 
adg

>  <m_score__min__energy>  (38) 
-6.3200000000000003

>  <m_primary>  (38) 
energy

$$$$
38:0
     RDKit          3D

 38 39  0  0  0  0  0  0  0  0999 V2000
   59.2590   35.0090   45.0860 C   0  0  0  0  0  0  0  0  0  0  0  0
   58.1240   33.9780   45.0970 C   0  0  1  0  0  0  0  0  0  0  0  0
   58.4920   32.7030   44.3070 C   0  0  0  0  0  0  0  0  0  0  0  0
   57.6730   31.5170   44.6930 N   0  0  0  0  0  0  0  0  0  0  0  0
   56.6830   31.1810   43.6470 C   0  0  0  0  0  0  0  0  0  0  0  0
   55.8270   29.9640   44.0710 C   0  0  0  0  0  0  0  0  0  0  0  0
   56.3300   29.3250   45.2300 O   0  0  0  0  0  0  0  0  0  0  0  0
   57.7040   29.0390   45.0620 C   0  0  0  0  0  0  0  0  0  0  0  0
   58.5330   30.3370   44.9490 C   0  0  0  0  0  0  0  0  0  0  0  0
   57.8330   33.6020   46.4440 O   0  0  0  0  0  0  0  0  0  0  0  0
   58.6110   32.7060   47.1890 C   0  0  0  0  0  0  0  0  0  0  0  0
   58.1430   31.5800   47.5150 O   0  0  0  0  0  0  0  0  0  0  0  0
   59.9860   33.0810   47.5850 C   0  0  0  0  0  0  0  0  0  0  0  0
   61.0870   32.6580   46.8170 C   0  0  0  0  0  0  0  0  0  0  0  0
   62.3870   33.0100   47.1900 C   0  0  0  0  0  0  0  0  0  0  0  0
   62.6030   33.7880   48.3290 C   0  0  0  0  0  0  0  0  0  0  0  0
   63.8660   34.1290   48.6880 F   0  0  0  0  0  0  0  0  0  0  0  0
   61.5190   34.2150   49.1000 C   0  0  0  0  0  0  0  0  0  0  0  0
   60.2160   33.8650   48.7320 C   0  0  0  0  0  0  0  0  0  0  0  0
   59.5359   35.2605   46.1204 H   0  0  0  0  0  0  0  0  0  0  0  0
   60.1315   34.5882   44.5648 H   0  0  0  0  0  0  0  0  0  0  0  0
   58.9238   35.9178   44.5648 H   0  0  0  0  0  0  0  0  0  0  0  0
   57.2513   34.4471   44.6191 H   0  0  0  0  0  0  0  0  0  0  0  0
   58.3400   32.8993   43.2354 H   0  0  0  0  0  0  0  0  0  0  0  0
   59.5410   32.4659   44.5382 H   0  0  0  0  0  0  0  0  0  0  0  0
   57.1540   31.7200   45.5810 H   0  0  0  0  0  0  0  0  0  0  0  0
   56.0237   32.0461   43.4833 H   0  0  0  0  0  0  0  0  0  0  0  0
   57.2205   30.9285   42.7211 H   0  0  0  0  0  0  0  0  0  0  0  0
   54.8019   30.3073   44.2742 H   0  0  0  0  0  0  0  0  0  0  0  0
   55.8534   29.2339   43.2486 H   0  0  0  0  0  0  0  0  0  0  0  0
   58.0589   28.4604   45.9276 H   0  0  0  0  0  0  0  0  0  0  0  0
   57.8296   28.4626   44.1336 H   0  0  0  0  0  0  0  0  0  0  0  0
   59.0811   30.4929   45.8899 H   0  0  0  0  0  0  0  0  0  0  0  0
   59.2263   30.2281   44.1020 H   0  0  0  0  0  0  0  0  0  0  0  0
   60.9232   32.0465   45.9175 H   0  0  0  0  0  0  0  0  0  0  0  0
   63.2418   32.6734   46.5850 H   0  0  0  0  0  0  0  0  0  0  0  0
   61.6906   34.8272   49.9976 H   0  0  0  0  0  0  0  0  0  0  0  0
   59.3658   34.2041   49.3420 H   0  0  0  0  0  0  0  0  0  0  0  0
  1  2  1  0
  2  3  1  0
  3  4  1  0
  4  5  1  0
  5  6  1  0
  6  7  1  0
  7  8  1  0
  8  9  1  0
  2 10  1  0
 10 11  1  0
 11 12  2  0
 11 13  1  0
 13 14  2  0
 14 15  1  0
 15 16  2  0
 16 17  1  0
 16 18  1  0
 18 19  2  0
  9  4  1  0
 19 13  1  0
  1 20  1  0
  1 21  1  0
  1 22  1  0
  2 23  1  6
  3 24  1  0
  3 25  1  0
  4 26  1  0
  5 27  1  0
  5 28  1  0
  6 29  1  0
  6 30  1  0
  8 31  1  0
  8 32  1  0
  9 33  1  0
  9 34  1  0
 14 35  1  0
 15 36  1  0
 18 37  1  0
 19 38  1  0
M  CHG  1   4   1
M  END
>  <UniqueID>  (39) 
38

>  <SMILES>  (39) 
C[C@@H](C[NH+]1CCOCC1)OC(=O)c1ccc(F)cc1

>  <Energy>  (39) 
47.19348542901407

>  <Genealogy>  (39) 
CC(C[NH+]1CCOCC1)OC(=O)c1ccc(F)cc1 (protonated)
C[C@@H](C[NH+]1CCOCC1)OC(=O)c1ccc(F)cc1 (chirality)
C[C@@H](C[NH+]1CCOCC1)OC(=O)c1ccc(F)cc1 (3D coordinates assigned)
C[C@@H](C[NH+]1CCOCC1)OC(=O)c1ccc(F)cc1 (nonaromatic ring conformer: 47.19348542901407 kcal/mol)

>  <smiles>  (39) 
CC(CN1CCOCC1)OC(=O)c1ccc(F)cc1

>  <score_type>  (39) 
oracle

>  <origin>  (39) 
adg

>  <m_score__min__energy>  (39) 
-4.8499999999999996

>  <m_primary>  (39) 
energy

$$$$
39:0
     RDKit          3D

 59 62  0  0  0  0  0  0  0  0999 V2000
   56.5040   30.2480   44.8630 O   0  0  0  0  0  0  0  0  0  0  0  0
   57.6160   30.8090   45.0680 C   0  0  0  0  0  0  0  0  0  0  0  0
   57.8620   32.1560   44.4100 C   0  0  0  0  0  0  0  0  0  0  0  0
   57.5190   33.3100   45.2690 N   0  0  0  0  0  0  0  0  0  0  0  0
   57.5000   33.0340   46.7270 C   0  0  0  0  0  0  0  0  0  0  0  0
   58.5120   33.8760   47.5280 C   0  0  0  0  0  0  0  0  0  0  0  0
   59.7090   34.1360   46.7250 N   0  0  0  0  0  0  0  0  0  0  0  0
   61.0320   33.8690   47.2430 C   0  0  0  0  0  0  0  0  0  0  0  0
   62.0920   33.5580   46.3710 C   0  0  0  0  0  0  0  0  0  0  0  0
   63.3670   33.2750   46.8760 C   0  0  0  0  0  0  0  0  0  0  0  0
   63.5950   33.3030   48.2540 C   0  0  0  0  0  0  0  0  0  0  0  0
   62.5490   33.6130   49.1300 C   0  0  0  0  0  0  0  0  0  0  0  0
   61.2740   33.8910   48.6290 C   0  0  0  0  0  0  0  0  0  0  0  0
   59.5500   34.7690   45.4100 C   0  0  0  0  0  0  0  0  0  0  0  0
   58.1200   34.5970   44.8730 C   0  0  0  0  0  0  0  0  0  0  0  0
   58.6010   30.1580   45.9120 N   0  0  0  0  0  0  0  0  0  0  0  0
   59.9850   30.6600   45.9900 C   0  0  0  0  0  0  0  0  0  0  0  0
   60.8630   29.7850   46.8990 C   0  0  0  0  0  0  0  0  0  0  0  0
   60.1910   29.5160   48.2670 C   0  0  0  0  0  0  0  0  0  0  0  0
   60.3740   30.7300   49.2130 C   0  0  0  0  0  0  0  0  0  0  0  0
   59.2790   30.8210   50.2470 C   0  0  0  0  0  0  0  0  0  0  0  0
   59.1250   29.8090   51.2150 C   0  0  0  0  0  0  0  0  0  0  0  0
   58.1420   29.9200   52.2000 C   0  0  0  0  0  0  0  0  0  0  0  0
   57.2930   31.0330   52.2170 C   0  0  0  0  0  0  0  0  0  0  0  0
   57.4250   32.0330   51.2480 C   0  0  0  0  0  0  0  0  0  0  0  0
   58.4180   31.9330   50.2680 C   0  0  0  0  0  0  0  0  0  0  0  0
   58.6920   29.0990   48.1300 C   0  0  0  0  0  0  0  0  0  0  0  0
   58.2380   28.9500   46.6750 C   0  0  0  0  0  0  0  0  0  0  0  0
   58.9278   32.2241   44.1466 H   0  0  0  0  0  0  0  0  0  0  0  0
   57.2069   32.2067   43.5278 H   0  0  0  0  0  0  0  0  0  0  0  0
   56.4907   33.2482   47.1083 H   0  0  0  0  0  0  0  0  0  0  0  0
   57.7823   31.9791   46.8591 H   0  0  0  0  0  0  0  0  0  0  0  0
   58.0472   34.8334   47.8061 H   0  0  0  0  0  0  0  0  0  0  0  0
   58.8025   33.3201   48.4317 H   0  0  0  0  0  0  0  0  0  0  0  0
   61.9177   33.5371   45.2851 H   0  0  0  0  0  0  0  0  0  0  0  0
   64.1893   33.0306   46.1875 H   0  0  0  0  0  0  0  0  0  0  0  0
   64.5969   33.0813   48.6503 H   0  0  0  0  0  0  0  0  0  0  0  0
   62.7303   33.6380   50.2147 H   0  0  0  0  0  0  0  0  0  0  0  0
   60.4542   34.1286   49.3229 H   0  0  0  0  0  0  0  0  0  0  0  0
   59.7713   35.8427   45.5007 H   0  0  0  0  0  0  0  0  0  0  0  0
   60.2439   34.2850   44.7070 H   0  0  0  0  0  0  0  0  0  0  0  0
   57.4955   35.4134   45.2648 H   0  0  0  0  0  0  0  0  0  0  0  0
   58.1708   34.6181   43.7744 H   0  0  0  0  0  0  0  0  0  0  0  0
   60.4177   30.6679   44.9787 H   0  0  0  0  0  0  0  0  0  0  0  0
   59.9560   31.6731   46.4176 H   0  0  0  0  0  0  0  0  0  0  0  0
   61.0458   28.8232   46.3976 H   0  0  0  0  0  0  0  0  0  0  0  0
   61.8050   30.3226   47.0823 H   0  0  0  0  0  0  0  0  0  0  0  0
   60.7008   28.6524   48.7190 H   0  0  0  0  0  0  0  0  0  0  0  0
   61.3406   30.6336   49.7291 H   0  0  0  0  0  0  0  0  0  0  0  0
   60.3347   31.6427   48.6003 H   0  0  0  0  0  0  0  0  0  0  0  0
   59.7824   28.9273   51.1946 H   0  0  0  0  0  0  0  0  0  0  0  0
   58.0347   29.1339   52.9619 H   0  0  0  0  0  0  0  0  0  0  0  0
   56.5200   31.1213   52.9946 H   0  0  0  0  0  0  0  0  0  0  0  0
   56.7470   32.8992   51.2567 H   0  0  0  0  0  0  0  0  0  0  0  0
   58.5257   32.7253   49.5125 H   0  0  0  0  0  0  0  0  0  0  0  0
   58.5489   28.1356   48.6413 H   0  0  0  0  0  0  0  0  0  0  0  0
   58.0874   29.8997   48.5808 H   0  0  0  0  0  0  0  0  0  0  0  0
   58.7296   28.0738   46.2271 H   0  0  0  0  0  0  0  0  0  0  0  0
   57.1464   28.8174   46.6471 H   0  0  0  0  0  0  0  0  0  0  0  0
  1  2  2  0
  2  3  1  0
  3  4  1  0
  4  5  1  0
  5  6  1  0
  6  7  1  0
  7  8  1  0
  8  9  2  0
  9 10  1  0
 10 11  2  0
 11 12  1  0
 12 13  2  0
  7 14  1  0
 14 15  1  0
  2 16  1  0
 16 17  1  0
 17 18  1  0
 18 19  1  0
 19 20  1  0
 20 21  1  0
 21 22  2  0
 22 23  1  0
 23 24  2  0
 24 25  1  0
 25 26  2  0
 19 27  1  0
 27 28  1  0
 15  4  1  0
 28 16  1  0
 13  8  1  0
 26 21  1  0
  3 29  1  0
  3 30  1  0
  5 31  1  0
  5 32  1  0
  6 33  1  0
  6 34  1  0
  9 35  1  0
 10 36  1  0
 11 37  1  0
 12 38  1  0
 13 39  1  0
 14 40  1  0
 14 41  1  0
 15 42  1  0
 15 43  1  0
 17 44  1  0
 17 45  1  0
 18 46  1  0
 18 47  1  0
 19 48  1  0
 20 49  1  0
 20 50  1  0
 22 51  1  0
 23 52  1  0
 24 53  1  0
 25 54  1  0
 26 55  1  0
 27 56  1  0
 27 57  1  0
 28 58  1  0
 28 59  1  0
M  END
>  <UniqueID>  (40) 
39

>  <SMILES>  (40) 
O=C(CN1CCN(c2ccccc2)CC1)N1CCC(Cc2ccccc2)CC1

>  <Energy>  (40) 
73.57665035085363

>  <Genealogy>  (40) 
O=C(CN1CCN(c2ccccc2)CC1)N1CCC(Cc2ccccc2)CC1 (3D coordinates assigned)
O=C(CN1CCN(c2ccccc2)CC1)N1CCC(Cc2ccccc2)CC1 (nonaromatic ring conformer: 73.57665035085363 kcal/mol)

>  <smiles>  (40) 
O=C(CN1CCN(c2ccccc2)CC1)N1CCC(Cc2ccccc2)CC1

>  <score_type>  (40) 
oracle

>  <origin>  (40) 
adg

>  <m_score__min__energy>  (40) 
-9.1500000000000004

>  <m_primary>  (40) 
energy

$$$$
40:0
     RDKit          3D

 25 26  0  0  0  0  0  0  0  0999 V2000
   54.4730   29.3260   43.5840 O   0  0  0  0  0  0  0  0  0  0  0  0
   55.5570   29.4990   44.1790 N   0  0  0  0  0  0  0  0  0  0  0  0
   55.9050   28.6330   45.1890 O   0  0  0  0  0  0  0  0  0  0  0  0
   56.4290   30.5860   43.8130 C   0  0  0  0  0  0  0  0  0  0  0  0
   56.6910   30.8710   42.4620 C   0  0  0  0  0  0  0  0  0  0  0  0
   57.5360   31.9300   42.1090 C   0  0  0  0  0  0  0  0  0  0  0  0
   57.7990   32.2110   40.7690 O   0  0  0  0  0  0  0  0  0  0  0  0
   58.1260   32.7130   43.1040 C   0  0  0  0  0  0  0  0  0  0  0  0
   57.8800   32.4470   44.4620 C   0  0  0  0  0  0  0  0  0  0  0  0
   58.5100   33.2800   45.5170 C   0  0  0  0  0  0  0  0  0  0  0  0
   59.0850   34.5250   45.1980 C   0  0  0  0  0  0  0  0  0  0  0  0
   59.6780   35.3080   46.1940 C   0  0  0  0  0  0  0  0  0  0  0  0
   59.7030   34.8600   47.5160 C   0  0  0  0  0  0  0  0  0  0  0  0
   59.1360   33.6260   47.8460 C   0  0  0  0  0  0  0  0  0  0  0  0
   58.5420   32.8400   46.8540 C   0  0  0  0  0  0  0  0  0  0  0  0
   57.0300   31.3800   44.8060 C   0  0  0  0  0  0  0  0  0  0  0  0
   56.2283   30.2569   41.6754 H   0  0  0  0  0  0  0  0  0  0  0  0
   57.1440   31.9630   40.0370 H   0  0  0  0  0  0  0  0  0  0  0  0
   58.7886   33.5447   42.8224 H   0  0  0  0  0  0  0  0  0  0  0  0
   59.0678   34.8844   44.1585 H   0  0  0  0  0  0  0  0  0  0  0  0
   60.1256   36.2789   45.9350 H   0  0  0  0  0  0  0  0  0  0  0  0
   60.1688   35.4781   48.2976 H   0  0  0  0  0  0  0  0  0  0  0  0
   59.1571   33.2727   48.8875 H   0  0  0  0  0  0  0  0  0  0  0  0
   58.0962   31.8703   47.1202 H   0  0  0  0  0  0  0  0  0  0  0  0
   56.8328   31.1638   45.8664 H   0  0  0  0  0  0  0  0  0  0  0  0
  1  2  2  0
  2  3  1  0
  2  4  1  0
  4  5  2  0
  5  6  1  0
  6  7  1  0
  6  8  2  0
  8  9  1  0
  9 10  1  0
 10 11  2  0
 11 12  1  0
 12 13  2  0
 13 14  1  0
 14 15  2  0
  9 16  2  0
 16  4  1  0
 15 10  1  0
  5 17  1  0
  7 18  1  0
  8 19  1  0
 11 20  1  0
 12 21  1  0
 13 22  1  0
 14 23  1  0
 15 24  1  0
 16 25  1  0
M  CHG  2   2   1   3  -1
M  END
>  <UniqueID>  (41) 
40

>  <SMILES>  (41) 
O=[N+]([O-])c1cc(O)cc(-c2ccccc2)c1

>  <Energy>  (41) 
32.042068980642185

>  <Genealogy>  (41) 
O=[N+]([O-])c1cc(O)cc(-c2ccccc2)c1 (3D coordinates assigned)
O=[N+]([O-])c1cc(O)cc(-c2ccccc2)c1 (optimized conformer: 32.042068980642185 kcal/mol)

>  <smiles>  (41) 
O=[N+]([O-])c1cc(O)cc(-c2ccccc2)c1

>  <score_type>  (41) 
oracle

>  <origin>  (41) 
adg

>  <m_score__min__energy>  (41) 
-6.6100000000000003

>  <m_primary>  (41) 
energy

$$$$
41:0
     RDKit          3D

 26 27  0  0  1  0  0  0  0  0999 V2000
   57.7970   32.3150   41.5340 C   0  0  0  0  0  0  0  0  0  0  0  0
   57.0950   31.8420   42.6690 O   0  0  0  0  0  0  0  0  0  0  0  0
   57.5970   32.1540   43.9240 C   0  0  0  0  0  0  0  0  0  0  0  0
   58.0850   33.4220   44.2200 C   0  0  0  0  0  0  0  0  0  0  0  0
   58.5890   33.7610   45.4520 C   0  0  0  0  0  0  0  0  0  0  0  0
   58.6050   32.7930   46.4250 C   0  0  0  0  0  0  0  0  0  0  0  0
   59.2880   33.1610   48.1800 Br  0  0  0  0  0  0  0  0  0  0  0  0
   58.1300   31.5300   46.1620 C   0  0  0  0  0  0  0  0  0  0  0  0
   57.6150   31.1730   44.9100 C   0  0  0  0  0  0  0  0  0  0  0  0
   57.0160   29.6130   44.5250 S   0  0  0  0  0  0  0  0  0  0  0  0
   57.1300   29.3340   43.0390 O   0  0  0  0  0  0  0  0  0  0  0  0
   55.5300   29.6010   44.8080 O   0  0  0  0  0  0  0  0  0  0  0  0
   57.7330   28.3070   45.3420 N   0  0  0  0  0  0  0  0  0  0  0  0
   57.1960   27.2930   45.7690 C   0  0  0  0  0  0  0  0  0  0  0  0
   55.8360   26.8860   45.7400 N   0  0  0  0  0  0  0  0  0  0  0  0
   55.6350   25.7680   46.2780 N   0  0  0  0  0  0  0  0  0  0  0  0
   56.3610   24.9640   46.8190 C   0  0  0  0  0  0  0  0  0  0  0  0
   58.0180   25.8790   46.6400 S   0  0  0  0  0  0  0  0  0  0  0  0
   58.6682   32.9020   41.8601 H   0  0  0  0  0  0  0  0  0  0  0  0
   58.1359   31.4604   40.9301 H   0  0  0  0  0  0  0  0  0  0  0  0
   57.1322   32.9501   40.9301 H   0  0  0  0  0  0  0  0  0  0  0  0
   58.0666   34.1887   43.4314 H   0  0  0  0  0  0  0  0  0  0  0  0
   58.9672   34.7744   45.6522 H   0  0  0  0  0  0  0  0  0  0  0  0
   58.1554   30.7750   46.9616 H   0  0  0  0  0  0  0  0  0  0  0  0
   55.1420   27.5200   45.2910 H   0  0  0  0  0  0  0  0  0  0  0  0
   56.1301   23.9915   47.2783 H   0  0  0  0  0  0  0  0  0  0  0  0
  1  2  1  0
  2  3  1  0
  3  4  2  0
  4  5  1  0
  5  6  2  0
  6  7  1  0
  6  8  1  0
  8  9  2  0
  9 10  1  0
 10 11  2  0
 10 12  2  0
 10 13  1  0
 13 14  2  0
 14 15  1  0
 15 16  1  0
 16 17  2  0
 17 18  1  0
  9  3  1  0
 18 14  1  0
  1 19  1  0
  1 20  1  0
  1 21  1  0
  4 22  1  0
  5 23  1  0
  8 24  1  0
 15 25  1  0
 17 26  1  0
M  END
>  <smiles>  (42) 
COc1ccc(Br)cc1S(=O)(=O)N=c1[nH]ncs1

>  <score_type>  (42) 
oracle

>  <origin>  (42) 
adg

>  <m_score__min__energy>  (42) 
-8.0999999999999996

>  <m_primary>  (42) 
energy

$$$$
42:0
     RDKit          3D

 29 30  0  0  0  0  0  0  0  0999 V2000
   59.2790   34.7760   47.0020 C   0  0  0  0  0  0  0  0  0  0  0  0
   58.2560   33.6410   47.1150 C   0  0  0  0  0  0  0  0  0  0  0  0
   57.5000   33.3440   45.8050 C   0  0  1  0  0  0  0  0  0  0  0  0
   58.1440   33.9870   44.5530 C   0  0  0  0  0  0  0  0  0  0  0  0
   58.4360   32.8550   43.6930 N   0  0  0  0  0  0  0  0  0  0  0  0
   57.9990   31.6850   44.3570 C   0  0  0  0  0  0  0  0  0  0  0  0
   58.0150   30.3960   43.7280 N   0  0  0  0  0  0  0  0  0  0  0  0
   57.9150   29.1460   44.4310 C   0  0  0  0  0  0  0  0  0  0  0  0
   59.0010   28.2590   44.5110 C   0  0  0  0  0  0  0  0  0  0  0  0
   58.8590   27.0410   45.1770 C   0  0  0  0  0  0  0  0  0  0  0  0
   57.6260   26.7100   45.7420 C   0  0  0  0  0  0  0  0  0  0  0  0
   56.5760   27.5670   45.6350 N   0  0  0  0  0  0  0  0  0  0  0  0
   56.6910   28.7600   44.9920 C   0  0  0  0  0  0  0  0  0  0  0  0
   57.4730   31.9130   45.5120 N   0  0  0  0  0  0  0  0  0  0  0  0
   59.5750   35.1044   48.0092 H   0  0  0  0  0  0  0  0  0  0  0  0
   60.1654   34.4179   46.4578 H   0  0  0  0  0  0  0  0  0  0  0  0
   58.8311   35.6205   46.4578 H   0  0  0  0  0  0  0  0  0  0  0  0
   58.7858   32.7275   47.4231 H   0  0  0  0  0  0  0  0  0  0  0  0
   57.5037   33.9634   47.8499 H   0  0  0  0  0  0  0  0  0  0  0  0
   56.4988   33.7627   45.9849 H   0  0  0  0  0  0  0  0  0  0  0  0
   57.4433   34.6799   44.0642 H   0  0  0  0  0  0  0  0  0  0  0  0
   59.0385   34.5808   44.7925 H   0  0  0  0  0  0  0  0  0  0  0  0
   58.8450   32.9010   42.7340 H   0  0  0  0  0  0  0  0  0  0  0  0
   58.0630   30.3710   42.6840 H   0  0  0  0  0  0  0  0  0  0  0  0
   59.9633   28.5244   44.0488 H   0  0  0  0  0  0  0  0  0  0  0  0
   59.7101   26.3486   45.2560 H   0  0  0  0  0  0  0  0  0  0  0  0
   57.5039   25.7551   46.2742 H   0  0  0  0  0  0  0  0  0  0  0  0
   55.8184   29.4250   44.9122 H   0  0  0  0  0  0  0  0  0  0  0  0
   57.0170   31.1970   46.1190 H   0  0  0  0  0  0  0  0  0  0  0  0
  1  2  1  0
  2  3  1  0
  3  4  1  0
  4  5  1  0
  5  6  1  0
  6  7  1  0
  7  8  1  0
  8  9  2  0
  9 10  1  0
 10 11  2  0
 11 12  1  0
 12 13  2  0
  6 14  2  0
 14  3  1  0
 13  8  1  0
  1 15  1  0
  1 16  1  0
  1 17  1  0
  2 18  1  0
  2 19  1  0
  3 20  1  1
  4 21  1  0
  4 22  1  0
  5 23  1  0
  7 24  1  0
  9 25  1  0
 10 26  1  0
 11 27  1  0
 13 28  1  0
 14 29  1  0
M  CHG  1  14   1
M  END
>  <UniqueID>  (43) 
41

>  <SMILES>  (43) 
CC[C@H]1CNC(Nc2cccnc2)=[NH+]1

>  <Energy>  (43) 
41.503224021317905

>  <Genealogy>  (43) 
CCC1CNC(Nc2cccnc2)=[NH+]1 (protonated)
CC[C@H]1CNC(Nc2cccnc2)=[NH+]1 (chirality)
CC[C@H]1CNC(Nc2cccnc2)=[NH+]1 (3D coordinates assigned)
CC[C@H]1CNC(Nc2cccnc2)=[NH+]1 (nonaromatic ring conformer: 41.503224021317905 kcal/mol)

>  <smiles>  (43) 
CCC1CNC(Nc2cccnc2)=N1

>  <score_type>  (43) 
oracle

>  <origin>  (43) 
adg

>  <m_score__min__energy>  (43) 
-3.8300000000000001

>  <m_primary>  (43) 
energy

$$$$
43:0
     RDKit          3D

 29 30  0  0  0  0  0  0  0  0999 V2000
   58.6345   34.5730   47.8244 H   0  0  0  0  0  0  0  0  0  0  0  0
   58.5880   34.1550   46.8080 C   0  0  0  0  0  0  0  0  0  0  0  0
   57.9370   32.9950   46.5260 N   0  0  0  0  0  0  0  0  0  0  0  0
   58.0120   32.6780   45.2150 C   0  0  0  0  0  0  0  0  0  0  0  0
   57.3940   31.4740   44.6420 C   0  0  0  0  0  0  0  0  0  0  0  0
   57.0240   30.4240   45.4260 N   0  0  0  0  0  0  0  0  0  0  0  0
   56.4780   29.4230   44.7060 C   0  0  0  0  0  0  0  0  0  0  0  0
   56.0620   28.3230   45.2620 N   0  0  0  0  0  0  0  0  0  0  0  0
   56.8370   27.1560   45.5840 C   0  0  0  0  0  0  0  0  0  0  0  0
   56.3260   26.1750   46.1900 O   0  0  0  0  0  0  0  0  0  0  0  0
   58.2810   27.0990   45.1770 C   0  0  0  0  0  0  0  0  0  0  0  0
   58.3828   27.5632   44.1850 H   0  0  0  0  0  0  0  0  0  0  0  0
   58.5764   26.0394   45.1709 H   0  0  0  0  0  0  0  0  0  0  0  0
   59.2220   27.8310   46.1600 C   0  0  0  0  0  0  0  0  0  0  0  0
   59.9759   27.0928   46.4709 H   0  0  0  0  0  0  0  0  0  0  0  0
   59.9610   28.9990   45.4900 C   0  0  0  0  0  0  0  0  0  0  0  0
   60.3793   29.6601   46.2633 H   0  0  0  0  0  0  0  0  0  0  0  0
   60.7755   28.6065   44.8634 H   0  0  0  0  0  0  0  0  0  0  0  0
   59.2575   29.5669   44.8634 H   0  0  0  0  0  0  0  0  0  0  0  0
   58.4870   28.3030   47.4210 C   0  0  0  0  0  0  0  0  0  0  0  0
   59.0287   27.9552   48.3130 H   0  0  0  0  0  0  0  0  0  0  0  0
   58.4380   29.4019   47.4271 H   0  0  0  0  0  0  0  0  0  0  0  0
   57.4673   27.8904   47.4271 H   0  0  0  0  0  0  0  0  0  0  0  0
   56.4340   29.7990   43.0610 S   0  0  0  0  0  0  0  0  0  0  0  0
   57.1420   31.3090   43.2800 C   0  0  0  0  0  0  0  0  0  0  0  0
   57.3669   32.0385   42.4880 H   0  0  0  0  0  0  0  0  0  0  0  0
   58.8930   33.8310   44.3600 S   0  0  0  0  0  0  0  0  0  0  0  0
   59.1900   34.7740   45.7200 C   0  0  0  0  0  0  0  0  0  0  0  0
   59.7600   35.7145   45.7439 H   0  0  0  0  0  0  0  0  0  0  0  0
  1  2  1  0
  2  3  1  0
  3  4  2  0
  4  5  1  0
  5  6  1  0
  6  7  1  0
  7  8  2  0
  8  9  1  0
  9 10  2  0
  9 11  1  0
 11 12  1  0
 11 13  1  0
 11 14  1  0
 14 15  1  0
 14 16  1  0
 16 17  1  0
 16 18  1  0
 16 19  1  0
 14 20  1  0
 20 21  1  0
 20 22  1  0
 20 23  1  0
  7 24  1  0
 24 25  1  0
 25 26  1  0
  4 27  1  0
 27 28  1  0
 28 29  1  0
 28  2  2  0
 25  5  2  0
M  CHG  1   6  -1
M  END
>  <UniqueID>  (44) 
42

>  <SMILES>  (44) 
CC(C)CC(=O)/N=c1/[n-]c(-c2nccs2)cs1

>  <Energy>  (44) 
85.12117602800137

>  <Genealogy>  (44) 
CC(C)CC(=O)N=c1[n-]c(-c2nccs2)cs1 (protonated)
CC(C)CC(=O)/N=c1/[n-]c(-c2nccs2)cs1 (cis-trans isomerization)
CC(C)CC(=O)/N=c1/[n-]c(-c2nccs2)cs1 (3D coordinates assigned)
CC(C)CC(=O)/N=c1/[n-]c(-c2nccs2)cs1 (optimized conformer: 85.12117602800137 kcal/mol)

>  <smiles>  (44) 
CC(C)CC(=O)N=c1[nH]c(-c2nccs2)cs1

>  <score_type>  (44) 
oracle

>  <origin>  (44) 
adg

>  <m_score__min__energy>  (44) 
-8.6899999999999995

>  <m_primary>  (44) 
energy

$$$$
44:0
     RDKit          3D

 50 53  0  0  0  0  0  0  0  0999 V2000
   63.5470   33.1600   48.0560 C   0  0  0  0  0  0  0  0  0  0  0  0
   62.0800   33.0680   48.1020 N   0  0  0  0  0  0  0  0  0  0  0  0
   61.4920   33.0750   46.7390 C   0  0  0  0  0  0  0  0  0  0  0  0
   60.9350   34.4550   46.3480 C   0  0  0  0  0  0  0  0  0  0  0  0
   59.8920   34.9320   47.2920 N   0  0  0  0  0  0  0  0  0  0  0  0
   58.5320   34.6810   46.7700 C   0  0  0  0  0  0  0  0  0  0  0  0
   58.4390   33.3130   46.1430 C   0  0  0  0  0  0  0  0  0  0  0  0
   58.4210   32.1690   46.9550 C   0  0  0  0  0  0  0  0  0  0  0  0
   58.3630   30.8970   46.3810 C   0  0  0  0  0  0  0  0  0  0  0  0
   58.3100   30.7460   44.9870 C   0  0  0  0  0  0  0  0  0  0  0  0
   58.2740   29.4250   44.4200 N   0  0  0  0  0  0  0  0  0  0  0  0
   58.3660   28.2180   45.1950 C   0  0  0  0  0  0  0  0  0  0  0  0
   58.7730   28.2590   46.3870 O   0  0  0  0  0  0  0  0  0  0  0  0
   58.0230   26.9160   44.5960 C   0  0  0  0  0  0  0  0  0  0  0  0
   57.7750   26.6850   43.2470 C   0  0  0  0  0  0  0  0  0  0  0  0
   57.4850   25.3460   42.9550 C   0  0  0  0  0  0  0  0  0  0  0  0
   57.5080   24.5200   44.0740 C   0  0  0  0  0  0  0  0  0  0  0  0
   57.2460   23.0720   44.0840 C   0  0  0  0  0  0  0  0  0  0  0  0
   57.4630   22.2100   45.1530 C   0  0  0  0  0  0  0  0  0  0  0  0
   57.1210   20.8820   44.8700 C   0  0  0  0  0  0  0  0  0  0  0  0
   56.6350   20.6920   43.5830 C   0  0  0  0  0  0  0  0  0  0  0  0
   56.6310   22.1780   42.7970 S   0  0  0  0  0  0  0  0  0  0  0  0
   57.8880   25.4540   45.4210 S   0  0  0  0  0  0  0  0  0  0  0  0
   58.3560   31.8930   44.1730 C   0  0  0  0  0  0  0  0  0  0  0  0
   58.4150   33.1650   44.7480 C   0  0  0  0  0  0  0  0  0  0  0  0
   60.0530   34.3900   48.6670 C   0  0  0  0  0  0  0  0  0  0  0  0
   61.5250   34.1140   48.9920 C   0  0  0  0  0  0  0  0  0  0  0  0
   63.9451   33.1850   49.0811 H   0  0  0  0  0  0  0  0  0  0  0  0
   63.9528   32.2855   47.5262 H   0  0  0  0  0  0  0  0  0  0  0  0
   63.8404   34.0783   47.5262 H   0  0  0  0  0  0  0  0  0  0  0  0
   62.2713   32.7909   46.0165 H   0  0  0  0  0  0  0  0  0  0  0  0
   60.6554   32.3609   46.7308 H   0  0  0  0  0  0  0  0  0  0  0  0
   61.7620   35.1803   46.3391 H   0  0  0  0  0  0  0  0  0  0  0  0
   60.4713   34.3608   45.3550 H   0  0  0  0  0  0  0  0  0  0  0  0
   57.8108   34.7472   47.5979 H   0  0  0  0  0  0  0  0  0  0  0  0
   58.3063   35.4352   46.0017 H   0  0  0  0  0  0  0  0  0  0  0  0
   58.4527   32.2744   48.0495 H   0  0  0  0  0  0  0  0  0  0  0  0
   58.3588   30.0066   47.0269 H   0  0  0  0  0  0  0  0  0  0  0  0
   58.2740   29.3450   43.3780 H   0  0  0  0  0  0  0  0  0  0  0  0
   57.8038   27.4766   42.4838 H   0  0  0  0  0  0  0  0  0  0  0  0
   57.2612   24.9835   41.9409 H   0  0  0  0  0  0  0  0  0  0  0  0
   57.8632   22.5383   46.1236 H   0  0  0  0  0  0  0  0  0  0  0  0
   57.2274   20.0653   45.5992 H   0  0  0  0  0  0  0  0  0  0  0  0
   56.3088   19.7339   43.1520 H   0  0  0  0  0  0  0  0  0  0  0  0
   58.3454   31.7876   43.0781 H   0  0  0  0  0  0  0  0  0  0  0  0
   58.4428   34.0557   44.1032 H   0  0  0  0  0  0  0  0  0  0  0  0
   59.6586   35.1211   49.3881 H   0  0  0  0  0  0  0  0  0  0  0  0
   59.5011   33.4406   48.7311 H   0  0  0  0  0  0  0  0  0  0  0  0
   62.1021   35.0412   48.8603 H   0  0  0  0  0  0  0  0  0  0  0  0
   61.5933   33.7608   50.0315 H   0  0  0  0  0  0  0  0  0  0  0  0
  1  2  1  0
  2  3  1  0
  3  4  1  0
  4  5  1  0
  5  6  1  0
  6  7  1  0
  7  8  2  0
  8  9  1  0
  9 10  2  0
 10 11  1  0
 11 12  1  0
 12 13  2  0
 12 14  1  0
 14 15  2  0
 15 16  1  0
 16 17  2  0
 17 18  1  0
 18 19  2  0
 19 20  1  0
 20 21  2  0
 21 22  1  0
 17 23  1  0
 10 24  1  0
 24 25  2  0
  5 26  1  0
 26 27  1  0
 27  2  1  0
 25  7  1  0
 23 14  1  0
 22 18  1  0
  1 28  1  0
  1 29  1  0
  1 30  1  0
  3 31  1  0
  3 32  1  0
  4 33  1  0
  4 34  1  0
  6 35  1  0
  6 36  1  0
  8 37  1  0
  9 38  1  0
 11 39  1  0
 15 40  1  0
 16 41  1  0
 19 42  1  0
 20 43  1  0
 21 44  1  0
 24 45  1  0
 25 46  1  0
 26 47  1  0
 26 48  1  0
 27 49  1  0
 27 50  1  0
M  END
>  <UniqueID>  (45) 
43

>  <SMILES>  (45) 
CN1CCN(Cc2ccc(NC(=O)c3ccc(-c4cccs4)s3)cc2)CC1

>  <Energy>  (45) 
120.09435508789427

>  <Genealogy>  (45) 
CN1CCN(Cc2ccc(NC(=O)c3ccc(-c4cccs4)s3)cc2)CC1 (3D coordinates assigned)
CN1CCN(Cc2ccc(NC(=O)c3ccc(-c4cccs4)s3)cc2)CC1 (nonaromatic ring conformer: 120.09435508789427 kcal/mol)

>  <smiles>  (45) 
CN1CCN(Cc2ccc(NC(=O)c3ccc(-c4cccs4)s3)cc2)CC1

>  <score_type>  (45) 
oracle

>  <origin>  (45) 
adg

>  <m_score__min__energy>  (45) 
-7.9800000000000004

>  <m_primary>  (45) 
energy

$$$$
45:0
     RDKit          3D

 18 19  0  0  0  0  0  0  0  0999 V2000
   56.5400   29.7140   42.9600 C   0  0  0  0  0  0  0  0  0  0  0  0
   57.0800   30.8990   43.6870 C   0  0  0  0  0  0  0  0  0  0  0  0
   57.9540   31.7800   43.1410 N   0  0  0  0  0  0  0  0  0  0  0  0
   58.1450   32.6740   44.1230 C   0  0  0  0  0  0  0  0  0  0  0  0
   58.9530   33.8090   44.1220 C   0  0  0  0  0  0  0  0  0  0  0  0
   58.9740   34.5900   45.2950 C   0  0  0  0  0  0  0  0  0  0  0  0
   58.1970   34.2200   46.4170 C   0  0  0  0  0  0  0  0  0  0  0  0
   57.3910   33.0650   46.3790 C   0  0  0  0  0  0  0  0  0  0  0  0
   57.3950   32.3170   45.2050 C   0  0  0  0  0  0  0  0  0  0  0  0
   56.7370   31.2200   44.9250 O   0  0  0  0  0  0  0  0  0  0  0  0
   56.1976   28.9627   43.6868 H   0  0  0  0  0  0  0  0  0  0  0  0
   55.6948   30.0251   42.3285 H   0  0  0  0  0  0  0  0  0  0  0  0
   57.3293   29.2802   42.3285 H   0  0  0  0  0  0  0  0  0  0  0  0
   58.3750   31.7670   42.1860 H   0  0  0  0  0  0  0  0  0  0  0  0
   59.5508   34.0846   43.2407 H   0  0  0  0  0  0  0  0  0  0  0  0
   59.5993   35.4939   45.3380 H   0  0  0  0  0  0  0  0  0  0  0  0
   58.2220   34.8385   47.3263 H   0  0  0  0  0  0  0  0  0  0  0  0
   56.7815   32.7656   47.2444 H   0  0  0  0  0  0  0  0  0  0  0  0
  1  2  1  0
  2  3  2  0
  3  4  1  0
  4  5  2  0
  5  6  1  0
  6  7  2  0
  7  8  1  0
  8  9  2  0
  9 10  1  0
 10  2  1  0
  9  4  1  0
  1 11  1  0
  1 12  1  0
  1 13  1  0
  3 14  1  0
  5 15  1  0
  6 16  1  0
  7 17  1  0
  8 18  1  0
M  CHG  1   3   1
M  END
>  <UniqueID>  (46) 
44

>  <SMILES>  (46) 
Cc1[nH+]c2ccccc2o1

>  <Energy>  (46) 
55.9088591398199

>  <Genealogy>  (46) 
Cc1[nH+]c2ccccc2o1 (protonated)
Cc1[nH+]c2ccccc2o1 (3D coordinates assigned)
Cc1[nH+]c2ccccc2o1 (optimized conformer: 55.9088591398199 kcal/mol)

>  <smiles>  (46) 
Cc1nc2ccccc2o1

>  <score_type>  (46) 
oracle

>  <origin>  (46) 
adg

>  <m_score__min__energy>  (46) 
-3.46

>  <m_primary>  (46) 
energy

$$$$
46:0
     RDKit          3D

 35 36  0  0  1  0  0  0  0  0999 V2000
   59.9180   26.6610   47.1410 C   0  0  0  0  0  0  0  0  0  0  0  0
   58.5690   26.9860   46.6120 C   0  0  0  0  0  0  0  0  0  0  0  0
   58.3240   28.2630   46.1800 C   0  0  0  0  0  0  0  0  0  0  0  0
   57.0560   28.5340   45.6920 C   0  0  0  0  0  0  0  0  0  0  0  0
   56.8050   29.7310   45.2810 N   0  0  0  0  0  0  0  0  0  0  0  0
   57.2620   30.2470   44.0040 C   0  0  0  0  0  0  0  0  0  0  0  0
   56.0590   30.0910   43.0630 C   0  0  0  0  0  0  0  0  0  0  0  0
   54.9350   29.4700   43.7170 N   0  0  0  0  0  0  0  0  0  0  0  0
   56.0870   27.6010   45.6330 N   0  0  0  0  0  0  0  0  0  0  0  0
   56.3560   26.3550   46.0640 C   0  0  0  0  0  0  0  0  0  0  0  0
   55.4930   25.3960   46.0460 N   0  0  0  0  0  0  0  0  0  0  0  0
   55.7890   24.2700   45.2290 C   0  0  0  0  0  0  0  0  0  0  0  0
   56.3100   24.4590   43.9510 C   0  0  0  0  0  0  0  0  0  0  0  0
   56.6180   23.4220   43.1090 C   0  0  0  0  0  0  0  0  0  0  0  0
   56.3950   22.1410   43.5700 C   0  0  0  0  0  0  0  0  0  0  0  0
   56.7020   21.0990   42.7340 F   0  0  0  0  0  0  0  0  0  0  0  0
   55.8790   21.8790   44.8330 C   0  0  0  0  0  0  0  0  0  0  0  0
   55.5900   22.9680   45.6300 C   0  0  0  0  0  0  0  0  0  0  0  0
   57.5870   26.0730   46.5420 N   0  0  0  0  0  0  0  0  0  0  0  0
   59.8919   26.6673   48.2407 H   0  0  0  0  0  0  0  0  0  0  0  0
   60.2203   25.6643   46.7871 H   0  0  0  0  0  0  0  0  0  0  0  0
   60.6410   27.4107   46.7871 H   0  0  0  0  0  0  0  0  0  0  0  0
   59.1014   29.0403   46.2190 H   0  0  0  0  0  0  0  0  0  0  0  0
   57.5485   31.3052   44.0941 H   0  0  0  0  0  0  0  0  0  0  0  0
   58.1495   29.7124   43.6345 H   0  0  0  0  0  0  0  0  0  0  0  0
   55.7561   31.0867   42.7067 H   0  0  0  0  0  0  0  0  0  0  0  0
   56.3645   29.4436   42.2278 H   0  0  0  0  0  0  0  0  0  0  0  0
   54.7020   30.0730   44.5340 H   0  0  0  0  0  0  0  0  0  0  0  0
   55.1940   28.5420   44.1310 H   0  0  0  0  0  0  0  0  0  0  0  0
   55.1430   27.8300   45.2620 H   0  0  0  0  0  0  0  0  0  0  0  0
   56.4822   25.4877   43.6014 H   0  0  0  0  0  0  0  0  0  0  0  0
   57.0272   23.6043   42.1044 H   0  0  0  0  0  0  0  0  0  0  0  0
   55.7085   20.8499   45.1821 H   0  0  0  0  0  0  0  0  0  0  0  0
   55.1806   22.7869   46.6348 H   0  0  0  0  0  0  0  0  0  0  0  0
   57.7980   25.0920   46.8810 H   0  0  0  0  0  0  0  0  0  0  0  0
  1  2  1  0
  2  3  2  0
  3  4  1  0
  4  5  2  0
  5  6  1  0
  6  7  1  0
  7  8  1  0
  4  9  1  0
  9 10  1  0
 10 11  2  0
 11 12  1  0
 12 13  2  0
 13 14  1  0
 14 15  2  0
 15 16  1  0
 15 17  1  0
 17 18  2  0
 10 19  1  0
 19  2  1  0
 18 12  1  0
  1 20  1  0
  1 21  1  0
  1 22  1  0
  3 23  1  0
  6 24  1  0
  6 25  1  0
  7 26  1  0
  7 27  1  0
  8 28  1  0
  8 29  1  0
  9 30  1  0
 13 31  1  0
 14 32  1  0
 17 33  1  0
 18 34  1  0
 19 35  1  0
M  END
>  <smiles>  (47) 
Cc1cc(=NCCN)[nH]c(=Nc2ccc(F)cc2)[nH]1

>  <score_type>  (47) 
oracle

>  <origin>  (47) 
adg

>  <m_score__min__energy>  (47) 
-7.1900000000000004

>  <m_primary>  (47) 
energy

$$$$
47:0
     RDKit          3D

 33 34  0  0  0  0  0  0  0  0999 V2000
   56.6745   24.8862   47.0638 H   0  0  0  0  0  0  0  0  0  0  0  0
   57.0070   25.8600   46.6750 C   0  0  0  0  0  0  0  0  0  0  0  0
   58.3480   26.2340   46.7880 C   0  0  0  0  0  0  0  0  0  0  0  0
   59.0702   25.5477   47.2543 H   0  0  0  0  0  0  0  0  0  0  0  0
   58.7770   27.4770   46.3110 C   0  0  0  0  0  0  0  0  0  0  0  0
   60.1670   27.8240   46.4200 N   0  0  0  0  0  0  0  0  0  0  0  0
   60.6730   28.6380   47.2690 N   0  0  0  0  0  0  0  0  0  0  0  0
   60.4240   30.0510   47.3280 C   0  0  0  0  0  0  0  0  0  0  0  0
   59.1550   30.5560   47.6530 C   0  0  0  0  0  0  0  0  0  0  0  0
   58.3265   29.8630   47.8613 H   0  0  0  0  0  0  0  0  0  0  0  0
   58.9400   31.9360   47.7130 C   0  0  0  0  0  0  0  0  0  0  0  0
   57.9372   32.3210   47.9501 H   0  0  0  0  0  0  0  0  0  0  0  0
   59.9940   32.8380   47.4730 C   0  0  0  0  0  0  0  0  0  0  0  0
   59.7480   34.3030   47.5330 C   0  0  0  0  0  0  0  0  0  0  0  0
   59.6220   34.8720   48.6520 O   0  0  0  0  0  0  0  0  0  0  0  0
   59.6410   35.1410   46.2940 C   0  0  0  0  0  0  0  0  0  0  0  0
   59.5063   36.1959   46.5753 H   0  0  0  0  0  0  0  0  0  0  0  0
   60.5600   35.0347   45.6989 H   0  0  0  0  0  0  0  0  0  0  0  0
   58.7782   34.8072   45.6989 H   0  0  0  0  0  0  0  0  0  0  0  0
   61.2730   32.3210   47.1870 C   0  0  0  0  0  0  0  0  0  0  0  0
   62.1125   33.0093   47.0095 H   0  0  0  0  0  0  0  0  0  0  0  0
   61.4840   30.9400   47.1270 C   0  0  0  0  0  0  0  0  0  0  0  0
   62.4916   30.5502   46.9201 H   0  0  0  0  0  0  0  0  0  0  0  0
   57.8590   28.3210   45.6610 C   0  0  0  0  0  0  0  0  0  0  0  0
   58.2028   29.2728   45.2299 H   0  0  0  0  0  0  0  0  0  0  0  0
   56.5020   27.9560   45.5580 C   0  0  0  0  0  0  0  0  0  0  0  0
   55.5470   28.7920   44.9580 O   0  0  0  0  0  0  0  0  0  0  0  0
   55.8340   29.7300   43.9260 C   0  0  0  0  0  0  0  0  0  0  0  0
   56.1278   30.6904   44.3747 H   0  0  0  0  0  0  0  0  0  0  0  0
   56.6568   29.3494   43.3030 H   0  0  0  0  0  0  0  0  0  0  0  0
   54.9391   29.8749   43.3030 H   0  0  0  0  0  0  0  0  0  0  0  0
   56.0860   26.7200   46.0690 C   0  0  0  0  0  0  0  0  0  0  0  0
   54.7510   26.3400   45.9750 O   0  0  0  0  0  0  0  0  0  0  0  0
  1  2  1  0
  2  3  2  0
  3  4  1  0
  3  5  1  0
  5  6  1  0
  6  7  2  0
  7  8  1  0
  8  9  2  0
  9 10  1  0
  9 11  1  0
 11 12  1  0
 11 13  2  0
 13 14  1  0
 14 15  2  0
 14 16  1  0
 16 17  1  0
 16 18  1  0
 16 19  1  0
 13 20  1  0
 20 21  1  0
 20 22  2  0
 22 23  1  0
  5 24  2  0
 24 25  1  0
 24 26  1  0
 26 27  1  0
 27 28  1  0
 28 29  1  0
 28 30  1  0
 28 31  1  0
 26 32  2  0
 32 33  1  0
 32  2  1  0
 22  8  1  0
M  CHG  1  33  -1
M  END
>  <UniqueID>  (48) 
45

>  <SMILES>  (48) 
COc1cc(/N=N\c2ccc(C(C)=O)cc2)ccc1[O-]

>  <Energy>  (48) 
45.898523276470506

>  <Genealogy>  (48) 
COc1cc(N=Nc2ccc(C(C)=O)cc2)ccc1[O-] (protonated)
COc1cc(/N=N\c2ccc(C(C)=O)cc2)ccc1[O-] (cis-trans isomerization)
COc1cc(/N=N\c2ccc(C(C)=O)cc2)ccc1[O-] (3D coordinates assigned)
COc1cc(/N=N\c2ccc(C(C)=O)cc2)ccc1[O-] (optimized conformer: 45.898523276470506 kcal/mol)

>  <smiles>  (48) 
COc1cc(N=Nc2ccc(C(C)=O)cc2)ccc1O

>  <score_type>  (48) 
oracle

>  <origin>  (48) 
adg

>  <m_score__min__energy>  (48) 
-10.550000000000001

>  <m_primary>  (48) 
energy

$$$$
48:0
     RDKit          3D

 42 45  0  0  0  0  0  0  0  0999 V2000
   55.0450   30.1450   52.2680 C   0  0  0  0  0  0  0  0  0  0  0  0
   56.3870   30.7490   52.0290 C   0  0  0  0  0  0  0  0  0  0  0  0
   56.7680   32.0310   52.3620 C   0  0  0  0  0  0  0  0  0  0  0  0
   58.0910   32.1370   51.9920 C   0  0  0  0  0  0  0  0  0  0  0  0
   58.4330   30.9070   51.4670 C   0  0  0  0  0  0  0  0  0  0  0  0
   59.7770   30.5380   50.9160 C   0  0  0  0  0  0  0  0  0  0  0  0
   60.2550   31.5610   49.9700 N   0  0  0  0  0  0  0  0  0  0  0  0
   59.5470   31.6990   48.7130 C   0  0  0  0  0  0  0  0  0  0  0  0
   58.4010   31.1830   48.5890 O   0  0  0  0  0  0  0  0  0  0  0  0
   60.1370   32.3750   47.5910 N   0  0  0  0  0  0  0  0  0  0  0  0
   59.3630   32.7280   46.4300 C   0  0  0  0  0  0  0  0  0  0  0  0
   59.2610   34.0690   46.0220 C   0  0  0  0  0  0  0  0  0  0  0  0
   58.5020   34.4100   44.8980 C   0  0  0  0  0  0  0  0  0  0  0  0
   57.8330   33.4180   44.1780 C   0  0  0  0  0  0  0  0  0  0  0  0
   57.9220   32.0810   44.5780 C   0  0  0  0  0  0  0  0  0  0  0  0
   57.0770   30.8370   43.6790 Cl  0  0  0  0  0  0  0  0  0  0  0  0
   58.6840   31.7360   45.7010 C   0  0  0  0  0  0  0  0  0  0  0  0
   61.8160   32.7620   47.6620 S   0  0  0  0  0  0  0  0  0  0  0  0
   62.0810   34.0190   46.8810 O   0  0  0  0  0  0  0  0  0  0  0  0
   62.6380   31.6280   47.1180 O   0  0  0  0  0  0  0  0  0  0  0  0
   62.1770   33.0230   49.3460 C   0  0  0  0  0  0  0  0  0  0  0  0
   63.2640   33.8310   49.7050 C   0  0  0  0  0  0  0  0  0  0  0  0
   63.5400   34.0770   51.0490 C   0  0  0  0  0  0  0  0  0  0  0  0
   62.7280   33.5230   52.0370 C   0  0  0  0  0  0  0  0  0  0  0  0
   61.6480   32.7120   51.6870 C   0  0  0  0  0  0  0  0  0  0  0  0
   61.3590   32.4370   50.3330 C   0  0  0  0  0  0  0  0  0  0  0  0
   57.3970   30.0980   51.5010 O   0  0  0  0  0  0  0  0  0  0  0  0
   54.8666   30.0647   53.3505 H   0  0  0  0  0  0  0  0  0  0  0  0
   54.2705   30.7814   51.8149 H   0  0  0  0  0  0  0  0  0  0  0  0
   55.0078   29.1433   51.8149 H   0  0  0  0  0  0  0  0  0  0  0  0
   56.1446   32.8089   52.8271 H   0  0  0  0  0  0  0  0  0  0  0  0
   58.7402   33.0191   52.0939 H   0  0  0  0  0  0  0  0  0  0  0  0
   60.4947   30.4504   51.7450 H   0  0  0  0  0  0  0  0  0  0  0  0
   59.6878   29.5799   50.3829 H   0  0  0  0  0  0  0  0  0  0  0  0
   59.7810   34.8546   46.5898 H   0  0  0  0  0  0  0  0  0  0  0  0
   58.4319   35.4609   44.5807 H   0  0  0  0  0  0  0  0  0  0  0  0
   57.2353   33.6886   43.2951 H   0  0  0  0  0  0  0  0  0  0  0  0
   58.7517   30.6837   46.0143 H   0  0  0  0  0  0  0  0  0  0  0  0
   63.9011   34.2723   48.9244 H   0  0  0  0  0  0  0  0  0  0  0  0
   64.3970   34.7071   51.3292 H   0  0  0  0  0  0  0  0  0  0  0  0
   62.9395   33.7260   53.0972 H   0  0  0  0  0  0  0  0  0  0  0  0
   61.0138   32.2816   52.4760 H   0  0  0  0  0  0  0  0  0  0  0  0
  1  2  1  0
  2  3  2  0
  3  4  1  0
  4  5  2  0
  5  6  1  0
  6  7  1  0
  7  8  1  0
  8  9  2  0
  8 10  1  0
 10 11  1  0
 11 12  2  0
 12 13  1  0
 13 14  2  0
 14 15  1  0
 15 16  1  0
 15 17  2  0
 10 18  1  0
 18 19  2  0
 18 20  2  0
 18 21  1  0
 21 22  2  0
 22 23  1  0
 23 24  2  0
 24 25  1  0
 25 26  2  0
  5 27  1  0
 27  2  1  0
 26  7  1  0
 17 11  1  0
 26 21  1  0
  1 28  1  0
  1 29  1  0
  1 30  1  0
  3 31  1  0
  4 32  1  0
  6 33  1  0
  6 34  1  0
 12 35  1  0
 13 36  1  0
 14 37  1  0
 17 38  1  0
 22 39  1  0
 23 40  1  0
 24 41  1  0
 25 42  1  0
M  END
>  <UniqueID>  (49) 
46

>  <SMILES>  (49) 
Cc1ccc(CN2C(=O)N(c3cccc(Cl)c3)S(=O)(=O)c3ccccc32)o1

>  <Energy>  (49) 
84.26555802094562

>  <Genealogy>  (49) 
Cc1ccc(CN2C(=O)N(c3cccc(Cl)c3)S(=O)(=O)c3ccccc32)o1 (3D coordinates assigned)
Cc1ccc(CN2C(=O)N(c3cccc(Cl)c3)S(=O)(=O)c3ccccc32)o1 (nonaromatic ring conformer: 84.26555802094562 kcal/mol)

>  <smiles>  (49) 
Cc1ccc(CN2C(=O)N(c3cccc(Cl)c3)S(=O)(=O)c3ccccc32)o1

>  <score_type>  (49) 
oracle

>  <origin>  (49) 
adg

>  <m_score__min__energy>  (49) 
-7.9199999999999999

>  <m_primary>  (49) 
energy

$$$$
