0:0
     RDKit          3D

 69 71  0  0  0  0  0  0  0  0999 V2000
   59.7030   33.4170   52.0660 C   0  0  0  0  0  0  0  0  0  0  0  0
   58.1710   33.4210   52.0390 C   0  0  0  0  0  0  0  0  0  0  0  0
   57.6180   32.3260   51.2240 N   0  0  0  0  0  0  0  0  0  0  0  0
   56.8960   31.3080   52.0140 C   0  0  0  0  0  0  0  0  0  0  0  0
   57.7940   30.1010   52.3550 C   0  0  0  0  0  0  0  0  0  0  0  0
   59.0060   29.9770   51.4200 C   0  0  0  0  0  0  0  0  0  0  0  0
   58.5970   29.7900   49.9500 C   0  0  0  0  0  0  0  0  0  0  0  0
   59.2830   30.7480   49.0830 N   0  0  0  0  0  0  0  0  0  0  0  0
   59.1420   30.6980   47.6560 C   0  0  0  0  0  0  0  0  0  0  0  0
   59.3850   29.4910   46.9810 C   0  0  0  0  0  0  0  0  0  0  0  0
   60.0270   28.4180   47.6330 C   0  0  0  0  0  0  0  0  0  0  0  0
   60.3030   27.2350   46.9510 C   0  0  0  0  0  0  0  0  0  0  0  0
   59.9640   27.1100   45.6100 C   0  0  0  0  0  0  0  0  0  0  0  0
   59.3240   28.1570   44.9490 C   0  0  0  0  0  0  0  0  0  0  0  0
   58.9890   29.3570   45.6280 C   0  0  0  0  0  0  0  0  0  0  0  0
   58.2940   30.3770   45.0100 N   0  0  0  0  0  0  0  0  0  0  0  0
   57.5900   30.1180   43.7330 C   0  0  0  0  0  0  0  0  0  0  0  0
   58.2440   31.6330   45.5900 C   0  0  0  0  0  0  0  0  0  0  0  0
   57.7640   32.7560   44.8700 C   0  0  0  0  0  0  0  0  0  0  0  0
   57.6760   34.0080   45.4630 C   0  0  0  0  0  0  0  0  0  0  0  0
   58.1060   34.1970   46.7650 C   0  0  0  0  0  0  0  0  0  0  0  0
   58.6370   33.1330   47.5090 C   0  0  0  0  0  0  0  0  0  0  0  0
   59.2630   33.4270   48.7710 N   0  0  0  0  0  0  0  0  0  0  0  0
   60.5820   34.0550   48.8600 C   0  0  0  0  0  0  0  0  0  0  0  0
   61.4700   33.7880   47.6130 C   0  0  0  0  0  0  0  0  0  0  0  0
   62.7260   32.9800   47.7930 N   0  0  0  0  0  0  0  0  0  0  0  0
   62.3820   31.5490   47.5880 C   0  0  0  0  0  0  0  0  0  0  0  0
   63.7490   33.3390   46.7810 C   0  0  0  0  0  0  0  0  0  0  0  0
   63.3080   33.1220   49.1500 C   0  0  0  0  0  0  0  0  0  0  0  0
   58.6880   31.8260   46.9330 C   0  0  0  0  0  0  0  0  0  0  0  0
   60.0513   33.4161   53.1094 H   0  0  0  0  0  0  0  0  0  0  0  0
   60.0764   32.5179   51.5540 H   0  0  0  0  0  0  0  0  0  0  0  0
   60.0811   34.3142   51.5540 H   0  0  0  0  0  0  0  0  0  0  0  0
   57.7998   33.3161   53.0692 H   0  0  0  0  0  0  0  0  0  0  0  0
   57.8474   34.3702   51.5870 H   0  0  0  0  0  0  0  0  0  0  0  0
   57.0210   32.7190   50.4590 H   0  0  0  0  0  0  0  0  0  0  0  0
   56.5463   31.7669   52.9506 H   0  0  0  0  0  0  0  0  0  0  0  0
   56.0510   30.9445   51.4107 H   0  0  0  0  0  0  0  0  0  0  0  0
   58.1568   30.2136   53.3873 H   0  0  0  0  0  0  0  0  0  0  0  0
   57.1870   29.1919   52.2322 H   0  0  0  0  0  0  0  0  0  0  0  0
   59.6119   30.8912   51.5043 H   0  0  0  0  0  0  0  0  0  0  0  0
   59.5746   29.0862   51.7253 H   0  0  0  0  0  0  0  0  0  0  0  0
   58.8566   28.7693   49.6326 H   0  0  0  0  0  0  0  0  0  0  0  0
   57.5133   29.9590   49.8662 H   0  0  0  0  0  0  0  0  0  0  0  0
   60.0520   31.3270   49.4870 H   0  0  0  0  0  0  0  0  0  0  0  0
   60.3127   28.5161   48.6907 H   0  0  0  0  0  0  0  0  0  0  0  0
   60.7898   26.3993   47.4750 H   0  0  0  0  0  0  0  0  0  0  0  0
   60.2012   26.1825   45.0682 H   0  0  0  0  0  0  0  0  0  0  0  0
   59.0744   28.0512   43.8829 H   0  0  0  0  0  0  0  0  0  0  0  0
   56.5765   29.7451   43.9421 H   0  0  0  0  0  0  0  0  0  0  0  0
   57.5252   31.0512   43.1542 H   0  0  0  0  0  0  0  0  0  0  0  0
   58.1454   29.3653   43.1542 H   0  0  0  0  0  0  0  0  0  0  0  0
   57.4554   32.6328   43.8214 H   0  0  0  0  0  0  0  0  0  0  0  0
   57.2623   34.8544   44.8952 H   0  0  0  0  0  0  0  0  0  0  0  0
   58.0303   35.1946   47.2222 H   0  0  0  0  0  0  0  0  0  0  0  0
   58.9320   32.8560   49.5720 H   0  0  0  0  0  0  0  0  0  0  0  0
   60.4460   35.1413   48.9667 H   0  0  0  0  0  0  0  0  0  0  0  0
   61.0958   33.6168   49.7283 H   0  0  0  0  0  0  0  0  0  0  0  0
   60.8465   33.2612   46.8757 H   0  0  0  0  0  0  0  0  0  0  0  0
   61.8281   34.7847   47.3157 H   0  0  0  0  0  0  0  0  0  0  0  0
   62.2637   31.0568   48.5646 H   0  0  0  0  0  0  0  0  0  0  0  0
   61.4406   31.4754   47.0238 H   0  0  0  0  0  0  0  0  0  0  0  0
   63.1871   31.0555   47.0238 H   0  0  0  0  0  0  0  0  0  0  0  0
   64.6697   33.6621   47.2889 H   0  0  0  0  0  0  0  0  0  0  0  0
   63.9655   32.4631   46.1517 H   0  0  0  0  0  0  0  0  0  0  0  0
   63.3706   34.1581   46.1517 H   0  0  0  0  0  0  0  0  0  0  0  0
   62.5301   32.9322   49.9043 H   0  0  0  0  0  0  0  0  0  0  0  0
   64.1256   32.3970   49.2760 H   0  0  0  0  0  0  0  0  0  0  0  0
   63.6998   34.1421   49.2760 H   0  0  0  0  0  0  0  0  0  0  0  0
  1  2  1  0
  2  3  1  0
  3  4  1  0
  4  5  1  0
  5  6  1  0
  6  7  1  0
  7  8  1  0
  8  9  1  0
  9 10  2  0
 10 11  1  0
 11 12  2  0
 12 13  1  0
 13 14  2  0
 14 15  1  0
 15 16  2  0
 16 17  1  0
 16 18  1  0
 18 19  2  0
 19 20  1  0
 20 21  2  0
 21 22  1  0
 22 23  1  0
 23 24  1  0
 24 25  1  0
 25 26  1  0
 26 27  1  0
 26 28  1  0
 26 29  1  0
 22 30  2  0
 30  9  1  0
 15 10  1  0
 30 18  1  0
  1 31  1  0
  1 32  1  0
  1 33  1  0
  2 34  1  0
  2 35  1  0
  3 36  1  0
  4 37  1  0
  4 38  1  0
  5 39  1  0
  5 40  1  0
  6 41  1  0
  6 42  1  0
  7 43  1  0
  7 44  1  0
  8 45  1  0
 11 46  1  0
 12 47  1  0
 13 48  1  0
 14 49  1  0
 17 50  1  0
 17 51  1  0
 17 52  1  0
 19 53  1  0
 20 54  1  0
 21 55  1  0
 23 56  1  0
 24 57  1  0
 24 58  1  0
 25 59  1  0
 25 60  1  0
 27 61  1  0
 27 62  1  0
 27 63  1  0
 28 64  1  0
 28 65  1  0
 28 66  1  0
 29 67  1  0
 29 68  1  0
 29 69  1  0
M  CHG  2  16   1  26   1
M  END
>  <UniqueID>  (1) 
1

>  <SMILES>  (1) 
CCNCCCCNc1c2ccccc2[n+](C)c2cccc(NCC[N+](C)(C)C)c12

>  <Energy>  (1) 
110.02585549456629

>  <Genealogy>  (1) 
CCNCCCCNc1c2ccccc2[n+](C)c2cccc(NCC[N+](C)(C)C)c12 (3D coordinates assigned)
CCNCCCCNc1c2ccccc2[n+](C)c2cccc(NCC[N+](C)(C)C)c12 (optimized conformer: 110.02585549456629 kcal/mol)

>  <smiles>  (1) 
CCNCCCCNc1c2ccccc2[n+](C)c2cccc(NCC[N+](C)(C)C)c12

>  <score_type>  (1) 
oracle

>  <origin>  (1) 
adg

>  <m_score__min__energy>  (1) 
-4.3300000000000001

>  <m_primary>  (1) 
energy

$$$$
1:0
     RDKit          3D

 51 53  0  0  0  0  0  0  0  0999 V2000
   63.3760   31.6010   47.2470 C   0  0  0  0  0  0  0  0  0  0  0  0
   62.9020   31.6250   48.7030 C   0  0  0  0  0  0  0  0  0  0  0  0
   61.4520   31.4020   48.8190 N   0  0  0  0  0  0  0  0  0  0  0  0
   60.7140   32.2760   47.9430 C   0  0  0  0  0  0  0  0  0  0  0  0
   61.0830   33.6230   47.7980 C   0  0  0  0  0  0  0  0  0  0  0  0
   60.3540   34.4490   46.9390 C   0  0  0  0  0  0  0  0  0  0  0  0
   59.2680   33.9290   46.2260 C   0  0  0  0  0  0  0  0  0  0  0  0
   58.5150   34.7360   45.3640 C   0  0  0  0  0  0  0  0  0  0  0  0
   57.4340   34.1910   44.6670 C   0  0  0  0  0  0  0  0  0  0  0  0
   57.0990   32.8430   44.8230 C   0  0  0  0  0  0  0  0  0  0  0  0
   57.8480   32.0160   45.6850 C   0  0  0  0  0  0  0  0  0  0  0  0
   57.5540   30.6530   45.8670 O   0  0  0  0  0  0  0  0  0  0  0  0
   57.0090   29.7780   44.8800 C   0  0  0  0  0  0  0  0  0  0  0  0
   57.8970   28.5430   44.6740 C   0  0  0  0  0  0  0  0  0  0  0  0
   59.3970   28.8680   44.5270 C   0  0  0  0  0  0  0  0  0  0  0  0
   60.3170   28.0500   45.4800 C   0  0  2  0  0  0  0  0  0  0  0  0
   59.6530   26.7290   45.9570 C   0  0  0  0  0  0  0  0  0  0  0  0
   59.1360   26.7950   47.4030 C   0  0  0  0  0  0  0  0  0  0  0  0
   58.6090   28.1940   47.7340 C   0  0  0  0  0  0  0  0  0  0  0  0
   59.6380   29.2450   47.5910 N   0  0  0  0  0  0  0  0  0  0  0  0
   60.7580   28.8960   46.6960 C   0  0  0  0  0  0  0  0  0  0  0  0
   58.9320   32.5660   46.3850 C   0  0  0  0  0  0  0  0  0  0  0  0
   59.6600   31.7880   47.2310 N   0  0  0  0  0  0  0  0  0  0  0  0
   64.4743   31.5454   47.2198 H   0  0  0  0  0  0  0  0  0  0  0  0
   62.9517   30.7232   46.7377 H   0  0  0  0  0  0  0  0  0  0  0  0
   63.0425   32.5172   46.7377 H   0  0  0  0  0  0  0  0  0  0  0  0
   63.4276   30.8352   49.2598 H   0  0  0  0  0  0  0  0  0  0  0  0
   63.1247   32.6206   49.1144 H   0  0  0  0  0  0  0  0  0  0  0  0
   61.1580   31.5780   49.8080 H   0  0  0  0  0  0  0  0  0  0  0  0
   61.2220   30.4040   48.5990 H   0  0  0  0  0  0  0  0  0  0  0  0
   61.9406   34.0253   48.3572 H   0  0  0  0  0  0  0  0  0  0  0  0
   60.6333   35.5066   46.8233 H   0  0  0  0  0  0  0  0  0  0  0  0
   58.7744   35.7973   45.2360 H   0  0  0  0  0  0  0  0  0  0  0  0
   56.8428   34.8266   43.9913 H   0  0  0  0  0  0  0  0  0  0  0  0
   56.2454   32.4246   44.2696 H   0  0  0  0  0  0  0  0  0  0  0  0
   56.0103   29.4505   45.2045 H   0  0  0  0  0  0  0  0  0  0  0  0
   56.9504   30.3248   43.9273 H   0  0  0  0  0  0  0  0  0  0  0  0
   57.7704   27.8773   45.5405 H   0  0  0  0  0  0  0  0  0  0  0  0
   57.5783   28.0750   43.7309 H   0  0  0  0  0  0  0  0  0  0  0  0
   59.6971   28.6563   43.4901 H   0  0  0  0  0  0  0  0  0  0  0  0
   59.5215   29.9275   44.7953 H   0  0  0  0  0  0  0  0  0  0  0  0
   61.2081   27.7796   44.8945 H   0  0  0  0  0  0  0  0  0  0  0  0
   58.8050   26.5051   45.2931 H   0  0  0  0  0  0  0  0  0  0  0  0
   60.4248   25.9460   45.9228 H   0  0  0  0  0  0  0  0  0  0  0  0
   58.3224   26.0653   47.5278 H   0  0  0  0  0  0  0  0  0  0  0  0
   59.9686   26.5640   48.0837 H   0  0  0  0  0  0  0  0  0  0  0  0
   57.7750   28.4246   47.0548 H   0  0  0  0  0  0  0  0  0  0  0  0
   58.2896   28.1859   48.7866 H   0  0  0  0  0  0  0  0  0  0  0  0
   59.1770   30.1120   47.2290 H   0  0  0  0  0  0  0  0  0  0  0  0
   61.2162   29.8261   46.3285 H   0  0  0  0  0  0  0  0  0  0  0  0
   61.4686   28.2908   47.2781 H   0  0  0  0  0  0  0  0  0  0  0  0
  1  2  1  0
  2  3  1  0
  3  4  1  0
  4  5  2  0
  5  6  1  0
  6  7  2  0
  7  8  1  0
  8  9  2  0
  9 10  1  0
 10 11  2  0
 11 12  1  0
 12 13  1  0
 13 14  1  0
 14 15  1  0
 15 16  1  0
 16 17  1  0
 17 18  1  0
 18 19  1  0
 19 20  1  0
 20 21  1  0
 11 22  1  0
 22 23  2  0
 23  4  1  0
 22  7  1  0
 21 16  1  0
  1 24  1  0
  1 25  1  0
  1 26  1  0
  2 27  1  0
  2 28  1  0
  3 29  1  0
  3 30  1  0
  5 31  1  0
  6 32  1  0
  8 33  1  0
  9 34  1  0
 10 35  1  0
 13 36  1  0
 13 37  1  0
 14 38  1  0
 14 39  1  0
 15 40  1  0
 15 41  1  0
 16 42  1  6
 17 43  1  0
 17 44  1  0
 18 45  1  0
 18 46  1  0
 19 47  1  0
 19 48  1  0
 20 49  1  0
 21 50  1  0
 21 51  1  0
M  CHG  1   3   1
M  END
>  <UniqueID>  (2) 
2

>  <SMILES>  (2) 
CC[NH2+]c1ccc2cccc(OCCC[C@@H]3CCCNC3)c2n1

>  <Energy>  (2) 
57.16460394410471

>  <Genealogy>  (2) 
CC[NH2+]c1ccc2cccc(OCCCC3CCCNC3)c2n1 (protonated)
CC[NH2+]c1ccc2cccc(OCCC[C@@H]3CCCNC3)c2n1 (chirality)
CC[NH2+]c1ccc2cccc(OCCC[C@@H]3CCCNC3)c2n1 (3D coordinates assigned)
CC[NH2+]c1ccc2cccc(OCCC[C@@H]3CCCNC3)c2n1 (nonaromatic ring conformer: 57.16460394410471 kcal/mol)

>  <smiles>  (2) 
CCNc1ccc2cccc(OCCCC3CCCNC3)c2n1

>  <score_type>  (2) 
oracle

>  <origin>  (2) 
adg

>  <m_score__min__energy>  (2) 
-5.4199999999999999

>  <m_primary>  (2) 
energy

$$$$
2:0
     RDKit          3D

 48 50  0  0  0  0  0  0  0  0999 V2000
   63.0420   31.8310   47.4990 C   0  0  0  0  0  0  0  0  0  0  0  0
   61.6880   32.3820   47.7090 N   0  0  0  0  0  0  0  0  0  0  0  0
   61.3340   33.5700   47.1070 C   0  0  0  0  0  0  0  0  0  0  0  0
   62.1610   34.1870   46.3750 O   0  0  0  0  0  0  0  0  0  0  0  0
   60.0530   34.1200   47.2880 C   0  0  0  0  0  0  0  0  0  0  0  0
   59.6510   35.4030   46.5990 C   0  0  0  0  0  0  0  0  0  0  0  0
   59.2780   35.1400   45.2030 N   0  0  0  0  0  0  0  0  0  0  0  0
   58.0020   34.4160   45.1180 C   0  0  0  0  0  0  0  0  0  0  0  0
   58.2080   33.0820   44.3970 C   0  0  0  0  0  0  0  0  0  0  0  0
   58.3030   31.9210   45.4090 C   0  0  0  0  0  0  0  0  0  0  0  0
   57.3330   30.8260   45.1820 N   0  0  0  0  0  0  0  0  0  0  0  0
   57.9140   29.4760   45.2650 C   0  0  0  0  0  0  0  0  0  0  0  0
   56.7820   28.4270   45.2520 C   0  0  0  0  0  0  0  0  0  0  0  0
   55.5290   28.9800   44.8810 O   0  0  0  0  0  0  0  0  0  0  0  0
   55.6680   29.7400   43.6970 C   0  0  0  0  0  0  0  0  0  0  0  0
   56.5280   30.9940   43.9560 C   0  0  0  0  0  0  0  0  0  0  0  0
   59.1310   33.4460   48.0880 C   0  0  0  0  0  0  0  0  0  0  0  0
   59.4790   32.2430   48.7010 C   0  0  0  0  0  0  0  0  0  0  0  0
   58.5450   31.5700   49.5020 C   0  0  0  0  0  0  0  0  0  0  0  0
   58.8840   30.3640   50.1150 C   0  0  0  0  0  0  0  0  0  0  0  0
   60.1530   29.8210   49.9320 C   0  0  0  0  0  0  0  0  0  0  0  0
   61.0930   30.4790   49.1350 C   0  0  0  0  0  0  0  0  0  0  0  0
   60.7770   31.7070   48.5020 C   0  0  0  0  0  0  0  0  0  0  0  0
   63.5148   31.6386   48.4734 H   0  0  0  0  0  0  0  0  0  0  0  0
   62.9713   30.8901   46.9336 H   0  0  0  0  0  0  0  0  0  0  0  0
   63.6484   32.5539   46.9336 H   0  0  0  0  0  0  0  0  0  0  0  0
   58.7924   35.8439   47.1266 H   0  0  0  0  0  0  0  0  0  0  0  0
   60.5030   36.0986   46.6154 H   0  0  0  0  0  0  0  0  0  0  0  0
   59.1520   36.0650   44.7290 H   0  0  0  0  0  0  0  0  0  0  0  0
   57.6212   34.2274   46.1326 H   0  0  0  0  0  0  0  0  0  0  0  0
   57.2772   35.0235   44.5562 H   0  0  0  0  0  0  0  0  0  0  0  0
   57.3590   32.9026   43.7210 H   0  0  0  0  0  0  0  0  0  0  0  0
   59.1476   33.1307   43.8271 H   0  0  0  0  0  0  0  0  0  0  0  0
   59.3171   31.4985   45.3526 H   0  0  0  0  0  0  0  0  0  0  0  0
   58.0679   32.3468   46.3956 H   0  0  0  0  0  0  0  0  0  0  0  0
   58.5784   29.3092   44.4043 H   0  0  0  0  0  0  0  0  0  0  0  0
   58.4906   29.3817   46.1970 H   0  0  0  0  0  0  0  0  0  0  0  0
   57.0438   27.6352   44.5347 H   0  0  0  0  0  0  0  0  0  0  0  0
   56.6822   28.0323   46.2739 H   0  0  0  0  0  0  0  0  0  0  0  0
   56.1517   29.1227   42.9256 H   0  0  0  0  0  0  0  0  0  0  0  0
   54.6703   30.0572   43.3594 H   0  0  0  0  0  0  0  0  0  0  0  0
   57.2007   31.1543   43.1006 H   0  0  0  0  0  0  0  0  0  0  0  0
   55.8629   31.8608   44.0837 H   0  0  0  0  0  0  0  0  0  0  0  0
   58.1248   33.8652   48.2361 H   0  0  0  0  0  0  0  0  0  0  0  0
   57.5409   31.9951   49.6474 H   0  0  0  0  0  0  0  0  0  0  0  0
   58.1481   29.8413   50.7437 H   0  0  0  0  0  0  0  0  0  0  0  0
   60.4166   28.8696   50.4172 H   0  0  0  0  0  0  0  0  0  0  0  0
   62.0913   30.0382   48.9970 H   0  0  0  0  0  0  0  0  0  0  0  0
  1  2  1  0
  2  3  1  0
  3  4  2  0
  3  5  1  0
  5  6  1  0
  6  7  1  0
  7  8  1  0
  8  9  1  0
  9 10  1  0
 10 11  1  0
 11 12  1  0
 12 13  1  0
 13 14  1  0
 14 15  1  0
 15 16  1  0
  5 17  2  0
 17 18  1  0
 18 19  2  0
 19 20  1  0
 20 21  2  0
 21 22  1  0
 22 23  2  0
 23  2  1  0
 16 11  1  0
 23 18  1  0
  1 24  1  0
  1 25  1  0
  1 26  1  0
  6 27  1  0
  6 28  1  0
  7 29  1  0
  8 30  1  0
  8 31  1  0
  9 32  1  0
  9 33  1  0
 10 34  1  0
 10 35  1  0
 12 36  1  0
 12 37  1  0
 13 38  1  0
 13 39  1  0
 15 40  1  0
 15 41  1  0
 16 42  1  0
 16 43  1  0
 17 44  1  0
 19 45  1  0
 20 46  1  0
 21 47  1  0
 22 48  1  0
M  END
>  <UniqueID>  (3) 
3

>  <SMILES>  (3) 
Cn1c(=O)c(CNCCCN2CCOCC2)cc2ccccc21

>  <Energy>  (3) 
67.37725436904351

>  <Genealogy>  (3) 
Cn1c(=O)c(CNCCCN2CCOCC2)cc2ccccc21 (3D coordinates assigned)
Cn1c(=O)c(CNCCCN2CCOCC2)cc2ccccc21 (nonaromatic ring conformer: 67.37725436904351 kcal/mol)

>  <smiles>  (3) 
Cn1c(=O)c(CNCCCN2CCOCC2)cc2ccccc21

>  <score_type>  (3) 
oracle

>  <origin>  (3) 
adg

>  <m_score__min__energy>  (3) 
-7.9199999999999999

>  <m_primary>  (3) 
energy

$$$$
3:0
     RDKit          3D

 43 44  0  0  0  0  0  0  0  0999 V2000
   58.1743   33.4275   43.2886 H   0  0  0  0  0  0  0  0  0  0  0  0
   57.7710   32.9990   44.2180 C   0  0  0  0  0  0  0  0  0  0  0  0
   57.4050   33.8500   45.1890 C   0  0  0  0  0  0  0  0  0  0  0  0
   56.7995   34.7221   44.9012 H   0  0  0  0  0  0  0  0  0  0  0  0
   57.7630   33.6980   46.6450 C   0  0  0  0  0  0  0  0  0  0  0  0
   58.0539   32.6546   46.8366 H   0  0  0  0  0  0  0  0  0  0  0  0
   56.8869   33.9722   47.2511 H   0  0  0  0  0  0  0  0  0  0  0  0
   58.8860   34.5880   47.0120 N   0  0  0  0  0  0  0  0  0  0  0  0
   59.9680   34.6570   45.9940 C   0  0  0  0  0  0  0  0  0  0  0  0
   60.2305   35.7137   45.8372 H   0  0  0  0  0  0  0  0  0  0  0  0
   59.5813   34.1808   45.0809 H   0  0  0  0  0  0  0  0  0  0  0  0
   61.2460   33.8920   46.3950 C   0  0  0  0  0  0  0  0  0  0  0  0
   61.8658   34.5353   47.0369 H   0  0  0  0  0  0  0  0  0  0  0  0
   61.7970   33.6200   45.4826 H   0  0  0  0  0  0  0  0  0  0  0  0
   60.9050   32.6580   47.1300 N   0  0  0  0  0  0  0  0  0  0  0  0
   60.2200   32.1190   46.5540 H   0  0  0  0  0  0  0  0  0  0  0  0
   62.1090   31.8060   47.3490 C   0  0  0  0  0  0  0  0  0  0  0  0
   62.0821   30.9715   46.6329 H   0  0  0  0  0  0  0  0  0  0  0  0
   62.0775   31.4559   48.3913 H   0  0  0  0  0  0  0  0  0  0  0  0
   63.4360   32.5720   47.1610 C   0  0  0  0  0  0  0  0  0  0  0  0
   63.2528   33.4294   46.4967 H   0  0  0  0  0  0  0  0  0  0  0  0
   64.1624   31.8644   46.7349 H   0  0  0  0  0  0  0  0  0  0  0  0
   64.0260   33.0910   48.4700 C   0  0  0  0  0  0  0  0  0  0  0  0
   63.5001   32.6284   49.3181 H   0  0  0  0  0  0  0  0  0  0  0  0
   65.0947   32.8349   48.5175 H   0  0  0  0  0  0  0  0  0  0  0  0
   63.9083   34.1837   48.5175 H   0  0  0  0  0  0  0  0  0  0  0  0
   60.2440   32.9960   48.4200 C   0  0  0  0  0  0  0  0  0  0  0  0
   61.0220   33.1184   49.1880 H   0  0  0  0  0  0  0  0  0  0  0  0
   59.5520   32.1734   48.6535 H   0  0  0  0  0  0  0  0  0  0  0  0
   59.4020   34.2970   48.3630 C   0  0  0  0  0  0  0  0  0  0  0  0
   60.0330   35.1380   48.6864 H   0  0  0  0  0  0  0  0  0  0  0  0
   58.5345   34.1581   49.0249 H   0  0  0  0  0  0  0  0  0  0  0  0
   57.6710   31.5280   44.3080 C   0  0  0  0  0  0  0  0  0  0  0  0
   58.5040   30.8340   45.1980 C   0  0  0  0  0  0  0  0  0  0  0  0
   59.2373   31.3853   45.8048 H   0  0  0  0  0  0  0  0  0  0  0  0
   58.4060   29.4440   45.3170 C   0  0  0  0  0  0  0  0  0  0  0  0
   59.0717   28.9031   46.0056 H   0  0  0  0  0  0  0  0  0  0  0  0
   57.4620   28.7410   44.5610 C   0  0  0  0  0  0  0  0  0  0  0  0
   57.3920   27.6467   44.6482 H   0  0  0  0  0  0  0  0  0  0  0  0
   56.6080   29.4290   43.6950 C   0  0  0  0  0  0  0  0  0  0  0  0
   55.8616   28.8763   43.1055 H   0  0  0  0  0  0  0  0  0  0  0  0
   56.7010   30.8180   43.5770 C   0  0  0  0  0  0  0  0  0  0  0  0
   56.0132   31.3585   42.9101 H   0  0  0  0  0  0  0  0  0  0  0  0
  1  2  1  0
  2  3  2  0
  3  4  1  0
  3  5  1  0
  5  6  1  0
  5  7  1  0
  5  8  1  0
  8  9  1  0
  9 10  1  0
  9 11  1  0
  9 12  1  0
 12 13  1  0
 12 14  1  0
 12 15  1  0
 15 16  1  0
 15 17  1  0
 17 18  1  0
 17 19  1  0
 17 20  1  0
 20 21  1  0
 20 22  1  0
 20 23  1  0
 23 24  1  0
 23 25  1  0
 23 26  1  0
 15 27  1  0
 27 28  1  0
 27 29  1  0
 27 30  1  0
 30 31  1  0
 30 32  1  0
  2 33  1  0
 33 34  2  0
 34 35  1  0
 34 36  1  0
 36 37  1  0
 36 38  2  0
 38 39  1  0
 38 40  1  0
 40 41  1  0
 40 42  2  0
 42 43  1  0
 30  8  1  0
 42 33  1  0
M  CHG  1  15   1
M  END
>  <UniqueID>  (4) 
4

>  <SMILES>  (4) 
CCC[NH+]1CCN(C/C=C\c2ccccc2)CC1

>  <Energy>  (4) 
60.50612004769399

>  <Genealogy>  (4) 
CCC[NH+]1CCN(CC=Cc2ccccc2)CC1 (protonated)
CCC[NH+]1CCN(C/C=C\c2ccccc2)CC1 (cis-trans isomerization)
CCC[NH+]1CCN(C/C=C\c2ccccc2)CC1 (3D coordinates assigned)
CCC[NH+]1CCN(C/C=C\c2ccccc2)CC1 (nonaromatic ring conformer: 60.50612004769399 kcal/mol)

>  <smiles>  (4) 
CCCN1CCN(CC=Cc2ccccc2)CC1

>  <score_type>  (4) 
oracle

>  <origin>  (4) 
adg

>  <m_score__min__energy>  (4) 
-5.5800000000000001

>  <m_primary>  (4) 
energy

$$$$
4:0
     RDKit          3D

 55 56  0  0  0  0  0  0  0  0999 V2000
   59.6320   35.2760   45.7030 C   0  0  0  0  0  0  0  0  0  0  0  0
   58.6950   34.3770   44.8990 C   0  0  0  0  0  0  0  0  0  0  0  0
   58.3580   33.1440   45.6440 N   0  0  0  0  0  0  0  0  0  0  0  0
   58.3970   33.3430   47.1110 C   0  0  0  0  0  0  0  0  0  0  0  0
   59.6680   32.7910   47.7890 C   0  0  0  0  0  0  0  0  0  0  0  0
   60.1230   33.7820   49.3960 Br  0  0  0  0  0  0  0  0  0  0  0  0
   57.0960   32.5100   45.1910 C   0  0  0  0  0  0  0  0  0  0  0  0
   57.3520   31.1060   44.7030 C   0  0  0  0  0  0  0  0  0  0  0  0
   56.7560   30.6470   43.5170 C   0  0  0  0  0  0  0  0  0  0  0  0
   57.0100   29.3540   43.0530 C   0  0  0  0  0  0  0  0  0  0  0  0
   57.8880   28.5110   43.7520 C   0  0  0  0  0  0  0  0  0  0  0  0
   58.1450   27.1070   43.2680 C   0  0  0  0  0  0  0  0  0  0  0  0
   57.3880   26.1340   44.0740 N   0  0  0  0  0  0  0  0  0  0  0  0
   58.2640   25.3660   44.9780 C   0  0  0  0  0  0  0  0  0  0  0  0
   57.7200   23.9520   45.2450 C   0  0  0  0  0  0  0  0  0  0  0  0
   56.5280   23.6940   44.4040 N   0  0  0  0  0  0  0  0  0  0  0  0
   55.5670   22.7720   45.0420 C   0  0  0  0  0  0  0  0  0  0  0  0
   56.0610   21.3200   44.9960 C   0  0  0  0  0  0  0  0  0  0  0  0
   56.2800   20.9130   43.6060 N   0  0  0  0  0  0  0  0  0  0  0  0
   57.2940   21.7680   42.9810 C   0  0  0  0  0  0  0  0  0  0  0  0
   56.8660   23.2470   43.0330 C   0  0  0  0  0  0  0  0  0  0  0  0
   58.4900   28.9710   44.9320 C   0  0  0  0  0  0  0  0  0  0  0  0
   58.2310   30.2620   45.4000 C   0  0  0  0  0  0  0  0  0  0  0  0
   59.4630   35.1139   46.7778 H   0  0  0  0  0  0  0  0  0  0  0  0
   60.6757   35.0327   45.4551 H   0  0  0  0  0  0  0  0  0  0  0  0
   59.4321   36.3289   45.4551 H   0  0  0  0  0  0  0  0  0  0  0  0
   57.7683   34.9287   44.6824 H   0  0  0  0  0  0  0  0  0  0  0  0
   59.2055   34.0900   43.9678 H   0  0  0  0  0  0  0  0  0  0  0  0
   58.3381   34.4224   47.3147 H   0  0  0  0  0  0  0  0  0  0  0  0
   57.5468   32.7841   47.5291 H   0  0  0  0  0  0  0  0  0  0  0  0
   59.4987   31.7377   48.0571 H   0  0  0  0  0  0  0  0  0  0  0  0
   60.5028   32.8914   47.0797 H   0  0  0  0  0  0  0  0  0  0  0  0
   56.3864   32.4769   46.0309 H   0  0  0  0  0  0  0  0  0  0  0  0
   56.6790   33.1024   44.3633 H   0  0  0  0  0  0  0  0  0  0  0  0
   56.0853   31.3095   42.9501 H   0  0  0  0  0  0  0  0  0  0  0  0
   56.5198   28.9950   42.1360 H   0  0  0  0  0  0  0  0  0  0  0  0
   57.8341   27.0247   42.2161 H   0  0  0  0  0  0  0  0  0  0  0  0
   59.2188   26.8892   43.3657 H   0  0  0  0  0  0  0  0  0  0  0  0
   56.6950   26.6610   44.6590 H   0  0  0  0  0  0  0  0  0  0  0  0
   56.8540   25.4870   43.4470 H   0  0  0  0  0  0  0  0  0  0  0  0
   59.2607   25.2823   44.5202 H   0  0  0  0  0  0  0  0  0  0  0  0
   58.3107   25.8989   45.9392 H   0  0  0  0  0  0  0  0  0  0  0  0
   58.4989   23.2124   45.0076 H   0  0  0  0  0  0  0  0  0  0  0  0
   57.4354   23.8716   46.3045 H   0  0  0  0  0  0  0  0  0  0  0  0
   55.4304   23.0694   46.0922 H   0  0  0  0  0  0  0  0  0  0  0  0
   54.6170   22.8297   44.4904 H   0  0  0  0  0  0  0  0  0  0  0  0
   57.0057   21.2381   45.5534 H   0  0  0  0  0  0  0  0  0  0  0  0
   55.3036   20.6646   45.4508 H   0  0  0  0  0  0  0  0  0  0  0  0
   56.6460   19.9320   43.6130 H   0  0  0  0  0  0  0  0  0  0  0  0
   58.2471   21.6488   43.5171 H   0  0  0  0  0  0  0  0  0  0  0  0
   57.4083   21.4696   41.9284 H   0  0  0  0  0  0  0  0  0  0  0  0
   57.6923   23.8664   42.6541 H   0  0  0  0  0  0  0  0  0  0  0  0
   55.9623   23.3543   42.4152 H   0  0  0  0  0  0  0  0  0  0  0  0
   59.1697   28.3121   45.4922 H   0  0  0  0  0  0  0  0  0  0  0  0
   58.7184   30.6188   46.3193 H   0  0  0  0  0  0  0  0  0  0  0  0
  1  2  1  0
  2  3  1  0
  3  4  1  0
  4  5  1  0
  5  6  1  0
  3  7  1  0
  7  8  1  0
  8  9  2  0
  9 10  1  0
 10 11  2  0
 11 12  1  0
 12 13  1  0
 13 14  1  0
 14 15  1  0
 15 16  1  0
 16 17  1  0
 17 18  1  0
 18 19  1  0
 19 20  1  0
 20 21  1  0
 11 22  1  0
 22 23  2  0
 23  8  1  0
 21 16  1  0
  1 24  1  0
  1 25  1  0
  1 26  1  0
  2 27  1  0
  2 28  1  0
  4 29  1  0
  4 30  1  0
  5 31  1  0
  5 32  1  0
  7 33  1  0
  7 34  1  0
  9 35  1  0
 10 36  1  0
 12 37  1  0
 12 38  1  0
 13 39  1  0
 13 40  1  0
 14 41  1  0
 14 42  1  0
 15 43  1  0
 15 44  1  0
 17 45  1  0
 17 46  1  0
 18 47  1  0
 18 48  1  0
 19 49  1  0
 20 50  1  0
 20 51  1  0
 21 52  1  0
 21 53  1  0
 22 54  1  0
 23 55  1  0
M  CHG  1  13   1
M  END
>  <UniqueID>  (5) 
5

>  <SMILES>  (5) 
CCN(CCBr)Cc1ccc(C[NH2+]CCN2CCNCC2)cc1

>  <Energy>  (5) 
57.783945774099934

>  <Genealogy>  (5) 
CCN(CCBr)Cc1ccc(C[NH2+]CCN2CCNCC2)cc1 (protonated)
CCN(CCBr)Cc1ccc(C[NH2+]CCN2CCNCC2)cc1 (3D coordinates assigned)
CCN(CCBr)Cc1ccc(C[NH2+]CCN2CCNCC2)cc1 (nonaromatic ring conformer: 57.783945774099934 kcal/mol)

>  <smiles>  (5) 
CCN(CCBr)Cc1ccc(CNCCN2CCNCC2)cc1

>  <score_type>  (5) 
oracle

>  <origin>  (5) 
adg

>  <m_score__min__energy>  (5) 
-5.6500000000000004

>  <m_primary>  (5) 
energy

$$$$
5:0
     RDKit          3D

 74 78  0  0  0  0  0  0  0  0999 V2000
   62.0840   26.0610   51.6420 C   0  0  0  0  0  0  0  0  0  0  0  0
   61.3080   27.3260   51.9880 C   0  0  0  0  0  0  0  0  0  0  0  0
   60.9390   28.0690   50.7600 N   0  0  0  0  0  0  0  0  0  0  0  0
   60.7700   27.1200   49.6420 C   0  0  0  0  0  0  0  0  0  0  0  0
   59.6990   28.8510   50.9870 C   0  0  0  0  0  0  0  0  0  0  0  0
   59.5490   30.0520   50.0360 C   0  0  0  0  0  0  0  0  0  0  0  0
   60.6170   30.1160   49.0340 N   0  0  0  0  0  0  0  0  0  0  0  0
   61.2370   31.3540   48.6600 C   0  0  0  0  0  0  0  0  0  0  0  0
   60.5370   32.2150   47.7940 C   0  0  0  0  0  0  0  0  0  0  0  0
   59.1490   32.0560   47.5780 C   0  0  0  0  0  0  0  0  0  0  0  0
   58.4580   32.9110   46.7230 C   0  0  0  0  0  0  0  0  0  0  0  0
   59.1310   33.9460   46.0830 C   0  0  0  0  0  0  0  0  0  0  0  0
   60.4990   34.1240   46.2860 C   0  0  0  0  0  0  0  0  0  0  0  0
   61.2320   33.2510   47.1300 C   0  0  0  0  0  0  0  0  0  0  0  0
   62.5870   33.3910   47.3160 N   0  0  0  0  0  0  0  0  0  0  0  0
   63.3770   34.2110   46.3710 C   0  0  0  0  0  0  0  0  0  0  0  0
   63.2060   32.7670   48.3830 C   0  0  0  0  0  0  0  0  0  0  0  0
   64.4890   33.1830   48.8050 C   0  0  0  0  0  0  0  0  0  0  0  0
   65.1340   32.5710   49.8650 C   0  0  0  0  0  0  0  0  0  0  0  0
   64.5220   31.5380   50.5480 C   0  0  0  0  0  0  0  0  0  0  0  0
   63.2420   31.0770   50.1920 C   0  0  0  0  0  0  0  0  0  0  0  0
   62.6580   30.0660   51.0520 N   0  0  0  0  0  0  0  0  0  0  0  0
   63.2450   30.1370   52.4010 C   0  0  0  0  0  0  0  0  0  0  0  0
   62.1660   30.2170   53.4980 C   0  0  0  0  0  0  0  0  0  0  0  0
   61.7800   31.6550   53.8960 C   0  0  0  0  0  0  0  0  0  0  0  0
   60.9100   32.2910   52.8840 N   0  0  0  0  0  0  0  0  0  0  0  0
   61.4900   33.2010   52.0370 C   0  0  0  0  0  0  0  0  0  0  0  0
   60.7550   33.8300   51.0350 C   0  0  0  0  0  0  0  0  0  0  0  0
   59.4070   33.5400   50.8870 C   0  0  0  0  0  0  0  0  0  0  0  0
   58.7950   32.6230   51.7440 C   0  0  0  0  0  0  0  0  0  0  0  0
   57.4300   32.3330   51.6000 C   0  0  0  0  0  0  0  0  0  0  0  0
   56.8120   31.4220   52.4540 C   0  0  0  0  0  0  0  0  0  0  0  0
   57.5480   30.7970   53.4580 C   0  0  0  0  0  0  0  0  0  0  0  0
   58.9080   31.0750   53.6160 C   0  0  0  0  0  0  0  0  0  0  0  0
   59.5640   31.9920   52.7600 C   0  0  0  0  0  0  0  0  0  0  0  0
   62.5490   31.7060   49.0910 C   0  0  0  0  0  0  0  0  0  0  0  0
   62.3938   25.5559   52.5687 H   0  0  0  0  0  0  0  0  0  0  0  0
   61.4436   25.3873   51.0537 H   0  0  0  0  0  0  0  0  0  0  0  0
   62.9747   26.3266   51.0537 H   0  0  0  0  0  0  0  0  0  0  0  0
   60.3923   27.0501   52.5315 H   0  0  0  0  0  0  0  0  0  0  0  0
   61.9442   27.9704   52.6124 H   0  0  0  0  0  0  0  0  0  0  0  0
   60.5903   26.1110   50.0415 H   0  0  0  0  0  0  0  0  0  0  0  0
   59.9126   27.4284   49.0257 H   0  0  0  0  0  0  0  0  0  0  0  0
   61.6811   27.1135   49.0257 H   0  0  0  0  0  0  0  0  0  0  0  0
   58.8357   28.1842   50.8450 H   0  0  0  0  0  0  0  0  0  0  0  0
   59.7517   29.2523   52.0098 H   0  0  0  0  0  0  0  0  0  0  0  0
   58.5830   29.9710   49.5162 H   0  0  0  0  0  0  0  0  0  0  0  0
   59.6079   30.9669   50.6438 H   0  0  0  0  0  0  0  0  0  0  0  0
   61.1180   29.2290   48.8080 H   0  0  0  0  0  0  0  0  0  0  0  0
   58.6083   31.2473   48.0914 H   0  0  0  0  0  0  0  0  0  0  0  0
   57.3805   32.7677   46.5540 H   0  0  0  0  0  0  0  0  0  0  0  0
   58.5826   34.6262   45.4147 H   0  0  0  0  0  0  0  0  0  0  0  0
   61.0176   34.9541   45.7840 H   0  0  0  0  0  0  0  0  0  0  0  0
   64.0323   34.8912   46.9349 H   0  0  0  0  0  0  0  0  0  0  0  0
   63.9898   33.5526   45.7378 H   0  0  0  0  0  0  0  0  0  0  0  0
   62.6962   34.7988   45.7378 H   0  0  0  0  0  0  0  0  0  0  0  0
   64.9858   34.0116   48.2791 H   0  0  0  0  0  0  0  0  0  0  0  0
   66.1373   32.9081   50.1648 H   0  0  0  0  0  0  0  0  0  0  0  0
   65.0482   31.0649   51.3902 H   0  0  0  0  0  0  0  0  0  0  0  0
   61.6200   30.1030   51.0560 H   0  0  0  0  0  0  0  0  0  0  0  0
   62.8640   29.1200   50.6570 H   0  0  0  0  0  0  0  0  0  0  0  0
   63.8566   29.2384   52.5696 H   0  0  0  0  0  0  0  0  0  0  0  0
   63.8549   31.0507   52.4579 H   0  0  0  0  0  0  0  0  0  0  0  0
   61.2633   29.7053   53.1329 H   0  0  0  0  0  0  0  0  0  0  0  0
   62.5895   29.7420   54.3952 H   0  0  0  0  0  0  0  0  0  0  0  0
   61.2460   31.6270   54.8573 H   0  0  0  0  0  0  0  0  0  0  0  0
   62.7036   32.2475   53.9732 H   0  0  0  0  0  0  0  0  0  0  0  0
   62.5578   33.4389   52.1516 H   0  0  0  0  0  0  0  0  0  0  0  0
   61.2415   34.5534   50.3642 H   0  0  0  0  0  0  0  0  0  0  0  0
   58.8211   34.0313   50.0962 H   0  0  0  0  0  0  0  0  0  0  0  0
   56.8454   32.8268   50.8098 H   0  0  0  0  0  0  0  0  0  0  0  0
   55.7420   31.1961   52.3353 H   0  0  0  0  0  0  0  0  0  0  0  0
   57.0552   30.0798   54.1309 H   0  0  0  0  0  0  0  0  0  0  0  0
   59.4757   30.5755   54.4149 H   0  0  0  0  0  0  0  0  0  0  0  0
  1  2  1  0
  2  3  1  0
  3  4  1  0
  3  5  1  0
  5  6  1  0
  6  7  1  0
  7  8  1  0
  8  9  2  0
  9 10  1  0
 10 11  2  0
 11 12  1  0
 12 13  2  0
 13 14  1  0
 14 15  2  0
 15 16  1  0
 15 17  1  0
 17 18  2  0
 18 19  1  0
 19 20  2  0
 20 21  1  0
 21 22  1  0
 22 23  1  0
 23 24  1  0
 24 25  1  0
 25 26  1  0
 26 27  2  0
 27 28  1  0
 28 29  2  0
 29 30  1  0
 30 31  2  0
 31 32  1  0
 32 33  2  0
 33 34  1  0
 34 35  2  0
 21 36  2  0
 36  8  1  0
 14  9  1  0
 36 17  1  0
 35 26  1  0
 35 30  1  0
  1 37  1  0
  1 38  1  0
  1 39  1  0
  2 40  1  0
  2 41  1  0
  4 42  1  0
  4 43  1  0
  4 44  1  0
  5 45  1  0
  5 46  1  0
  6 47  1  0
  6 48  1  0
  7 49  1  0
 10 50  1  0
 11 51  1  0
 12 52  1  0
 13 53  1  0
 16 54  1  0
 16 55  1  0
 16 56  1  0
 18 57  1  0
 19 58  1  0
 20 59  1  0
 22 60  1  0
 22 61  1  0
 23 62  1  0
 23 63  1  0
 24 64  1  0
 24 65  1  0
 25 66  1  0
 25 67  1  0
 27 68  1  0
 28 69  1  0
 29 70  1  0
 31 71  1  0
 32 72  1  0
 33 73  1  0
 34 74  1  0
M  CHG  3  15   1  22   1  26   1
M  END
>  <UniqueID>  (6) 
6

>  <SMILES>  (6) 
CCN(C)CCNc1c2ccccc2[n+](C)c2cccc([NH2+]CCC[n+]3cccc4ccccc43)c12

>  <Energy>  (6) 
118.05554839770367

>  <Genealogy>  (6) 
CCN(C)CCNc1c2ccccc2[n+](C)c2cccc([NH2+]CCC[n+]3cccc4ccccc43)c12 (protonated)
CCN(C)CCNc1c2ccccc2[n+](C)c2cccc([NH2+]CCC[n+]3cccc4ccccc43)c12 (3D coordinates assigned)
CCN(C)CCNc1c2ccccc2[n+](C)c2cccc([NH2+]CCC[n+]3cccc4ccccc43)c12 (optimized conformer: 118.05554839770367 kcal/mol)

>  <smiles>  (6) 
CCN(C)CCNc1c2ccccc2[n+](C)c2cccc(NCCC[n+]3cccc4ccccc43)c12

>  <score_type>  (6) 
oracle

>  <origin>  (6) 
adg

>  <m_score__min__energy>  (6) 
-4.29

>  <m_primary>  (6) 
energy

$$$$
6:0
     RDKit          3D

 42 44  0  0  0  0  0  0  0  0999 V2000
   55.8690   29.7010   44.1410 C   0  0  0  0  0  0  0  0  0  0  0  0
   56.6890   30.9400   43.7990 C   0  0  0  0  0  0  0  0  0  0  0  0
   56.6460   31.8860   44.8690 O   0  0  0  0  0  0  0  0  0  0  0  0
   57.7620   32.4740   45.4890 C   0  0  0  0  0  0  0  0  0  0  0  0
   57.9520   33.8690   45.5430 C   0  0  0  0  0  0  0  0  0  0  0  0
   59.0800   34.4050   46.1690 C   0  0  0  0  0  0  0  0  0  0  0  0
   60.0340   33.5650   46.7460 C   0  0  0  0  0  0  0  0  0  0  0  0
   59.8640   32.1710   46.6990 C   0  0  0  0  0  0  0  0  0  0  0  0
   60.7980   31.2860   47.2580 C   0  0  0  0  0  0  0  0  0  0  0  0
   61.8400   31.7120   47.8250 O   0  0  0  0  0  0  0  0  0  0  0  0
   60.5720   29.9110   47.1790 C   0  0  0  0  0  0  0  0  0  0  0  0
   59.4090   29.4390   46.5440 C   0  0  0  0  0  0  0  0  0  0  0  0
   59.1130   27.9890   46.4280 C   0  0  0  0  0  0  0  0  0  0  0  0
   57.7790   27.5610   46.3380 C   0  0  0  0  0  0  0  0  0  0  0  0
   57.4700   26.2020   46.2370 C   0  0  0  0  0  0  0  0  0  0  0  0
   58.4880   25.2270   46.2320 C   0  0  0  0  0  0  0  0  0  0  0  0
   58.1680   23.8150   46.1260 N   0  0  0  0  0  0  0  0  0  0  0  0
   58.9470   22.9360   45.2470 C   0  0  0  0  0  0  0  0  0  0  0  0
   57.0590   23.2420   46.9000 C   0  0  0  0  0  0  0  0  0  0  0  0
   59.8240   25.6620   46.3370 C   0  0  0  0  0  0  0  0  0  0  0  0
   60.1330   27.0210   46.4380 C   0  0  0  0  0  0  0  0  0  0  0  0
   58.5500   30.3110   46.0170 O   0  0  0  0  0  0  0  0  0  0  0  0
   58.7230   31.6280   46.0670 C   0  0  0  0  0  0  0  0  0  0  0  0
   55.8002   29.5970   45.2339 H   0  0  0  0  0  0  0  0  0  0  0  0
   54.8586   29.8017   43.7179 H   0  0  0  0  0  0  0  0  0  0  0  0
   56.3566   28.8103   43.7179 H   0  0  0  0  0  0  0  0  0  0  0  0
   57.7333   30.6439   43.6207 H   0  0  0  0  0  0  0  0  0  0  0  0
   56.2651   31.4066   42.8975 H   0  0  0  0  0  0  0  0  0  0  0  0
   57.2077   34.5401   45.0895 H   0  0  0  0  0  0  0  0  0  0  0  0
   59.2173   35.4957   46.2075 H   0  0  0  0  0  0  0  0  0  0  0  0
   60.9193   33.9946   47.2377 H   0  0  0  0  0  0  0  0  0  0  0  0
   61.2962   29.2034   47.6090 H   0  0  0  0  0  0  0  0  0  0  0  0
   56.9678   28.3039   46.3471 H   0  0  0  0  0  0  0  0  0  0  0  0
   56.4183   25.8889   46.1604 H   0  0  0  0  0  0  0  0  0  0  0  0
   59.5538   22.2513   45.8576 H   0  0  0  0  0  0  0  0  0  0  0  0
   58.2635   22.3531   44.6121 H   0  0  0  0  0  0  0  0  0  0  0  0
   59.6078   23.5445   44.6121 H   0  0  0  0  0  0  0  0  0  0  0  0
   57.2677   23.3498   47.9746 H   0  0  0  0  0  0  0  0  0  0  0  0
   56.1271   23.7715   46.6525 H   0  0  0  0  0  0  0  0  0  0  0  0
   56.9517   22.1756   46.6525 H   0  0  0  0  0  0  0  0  0  0  0  0
   60.6364   24.9203   46.3395 H   0  0  0  0  0  0  0  0  0  0  0  0
   61.1831   27.3363   46.5261 H   0  0  0  0  0  0  0  0  0  0  0  0
  1  2  1  0
  2  3  1  0
  3  4  1  0
  4  5  2  0
  5  6  1  0
  6  7  2  0
  7  8  1  0
  8  9  1  0
  9 10  2  0
  9 11  1  0
 11 12  2  0
 12 13  1  0
 13 14  2  0
 14 15  1  0
 15 16  2  0
 16 17  1  0
 17 18  1  0
 17 19  1  0
 16 20  1  0
 20 21  2  0
 12 22  1  0
 22 23  1  0
 23  4  1  0
 23  8  2  0
 21 13  1  0
  1 24  1  0
  1 25  1  0
  1 26  1  0
  2 27  1  0
  2 28  1  0
  5 29  1  0
  6 30  1  0
  7 31  1  0
 11 32  1  0
 14 33  1  0
 15 34  1  0
 18 35  1  0
 18 36  1  0
 18 37  1  0
 19 38  1  0
 19 39  1  0
 19 40  1  0
 20 41  1  0
 21 42  1  0
M  END
>  <UniqueID>  (7) 
7

>  <SMILES>  (7) 
CCOc1cccc2c(=O)cc(-c3ccc(N(C)C)cc3)oc12

>  <Energy>  (7) 
52.32006750658993

>  <Genealogy>  (7) 
CCOc1cccc2c(=O)cc(-c3ccc(N(C)C)cc3)oc12 (3D coordinates assigned)
CCOc1cccc2c(=O)cc(-c3ccc(N(C)C)cc3)oc12 (optimized conformer: 52.32006750658993 kcal/mol)

>  <smiles>  (7) 
CCOc1cccc2c(=O)cc(-c3ccc(N(C)C)cc3)oc12

>  <score_type>  (7) 
oracle

>  <origin>  (7) 
adg

>  <m_score__min__energy>  (7) 
-6.5199999999999996

>  <m_primary>  (7) 
energy

$$$$
7:0
     RDKit          3D

 68 70  0  0  0  0  0  0  0  0999 V2000
   60.3320   28.9150   44.9180 C   0  0  0  0  0  0  0  0  0  0  0  0
   59.3790   28.1290   45.8150 C   0  0  0  0  0  0  0  0  0  0  0  0
   57.9760   28.5380   45.5750 N   0  0  0  0  0  0  0  0  0  0  0  0
   57.0520   27.4610   45.9890 C   0  0  0  0  0  0  0  0  0  0  0  0
   57.7720   28.8800   44.1460 C   0  0  0  0  0  0  0  0  0  0  0  0
   56.9010   30.1280   43.9830 C   0  0  0  0  0  0  0  0  0  0  0  0
   56.9040   30.8540   45.1940 O   0  0  0  0  0  0  0  0  0  0  0  0
   57.0900   32.2380   44.9540 C   0  0  0  0  0  0  0  0  0  0  0  0
   58.3010   32.7600   45.7310 C   0  0  0  0  0  0  0  0  0  0  0  0
   58.3320   32.2040   47.0290 O   0  0  0  0  0  0  0  0  0  0  0  0
   58.8560   30.9510   46.9190 N   0  0  0  0  0  0  0  0  0  0  0  0
   59.5760   30.6400   48.1540 C   0  0  0  0  0  0  0  0  0  0  0  0
   58.9070   31.3190   49.3520 C   0  0  0  0  0  0  0  0  0  0  0  0
   59.2280   32.7460   49.3920 N   0  0  0  0  0  0  0  0  0  0  0  0
   60.5510   33.1830   49.7460 C   0  0  0  0  0  0  0  0  0  0  0  0
   61.4940   33.3930   48.7250 C   0  0  0  0  0  0  0  0  0  0  0  0
   61.0890   33.4950   47.3760 C   0  0  0  0  0  0  0  0  0  0  0  0
   62.0200   33.7520   46.3730 C   0  0  0  0  0  0  0  0  0  0  0  0
   63.3610   33.9240   46.6960 C   0  0  0  0  0  0  0  0  0  0  0  0
   63.7840   33.8090   48.0200 C   0  0  0  0  0  0  0  0  0  0  0  0
   62.8650   33.5060   49.0560 C   0  0  0  0  0  0  0  0  0  0  0  0
   63.2730   33.3100   50.3600 N   0  0  0  0  0  0  0  0  0  0  0  0
   64.7020   33.0540   50.6510 C   0  0  0  0  0  0  0  0  0  0  0  0
   62.3460   33.3380   51.3870 C   0  0  0  0  0  0  0  0  0  0  0  0
   62.7600   33.4080   52.7390 C   0  0  0  0  0  0  0  0  0  0  0  0
   61.8390   33.3940   53.7860 C   0  0  0  0  0  0  0  0  0  0  0  0
   62.3120   33.4750   55.2080 C   0  0  0  0  0  0  0  0  0  0  0  0
   60.4770   33.4230   53.5010 C   0  0  0  0  0  0  0  0  0  0  0  0
   60.0130   33.4270   52.1780 C   0  0  0  0  0  0  0  0  0  0  0  0
   58.5360   33.6700   51.9770 C   0  0  0  0  0  0  0  0  0  0  0  0
   60.9470   33.3110   51.1010 C   0  0  0  0  0  0  0  0  0  0  0  0
   61.0310   29.4915   45.5417 H   0  0  0  0  0  0  0  0  0  0  0  0
   60.8973   28.2170   44.2830 H   0  0  0  0  0  0  0  0  0  0  0  0
   59.7544   29.6028   44.2830 H   0  0  0  0  0  0  0  0  0  0  0  0
   59.4838   27.0553   45.5999 H   0  0  0  0  0  0  0  0  0  0  0  0
   59.6322   28.3346   46.8655 H   0  0  0  0  0  0  0  0  0  0  0  0
   57.0119   27.4143   47.0873 H   0  0  0  0  0  0  0  0  0  0  0  0
   56.0466   27.6684   45.5939 H   0  0  0  0  0  0  0  0  0  0  0  0
   57.4099   26.4988   45.5939 H   0  0  0  0  0  0  0  0  0  0  0  0
   58.7512   29.0650   43.6801 H   0  0  0  0  0  0  0  0  0  0  0  0
   57.2585   28.0368   43.6608 H   0  0  0  0  0  0  0  0  0  0  0  0
   57.3050   30.7564   43.1756 H   0  0  0  0  0  0  0  0  0  0  0  0
   55.8721   29.8319   43.7306 H   0  0  0  0  0  0  0  0  0  0  0  0
   57.2532   32.3999   43.8783 H   0  0  0  0  0  0  0  0  0  0  0  0
   56.1930   32.7802   45.2879 H   0  0  0  0  0  0  0  0  0  0  0  0
   59.2214   32.4828   45.1962 H   0  0  0  0  0  0  0  0  0  0  0  0
   58.2262   33.8543   45.8140 H   0  0  0  0  0  0  0  0  0  0  0  0
   58.0450   30.2900   46.8590 H   0  0  0  0  0  0  0  0  0  0  0  0
   59.5753   29.5509   48.3086 H   0  0  0  0  0  0  0  0  0  0  0  0
   60.6079   31.0107   48.0664 H   0  0  0  0  0  0  0  0  0  0  0  0
   57.8167   31.1976   49.2717 H   0  0  0  0  0  0  0  0  0  0  0  0
   59.2799   30.8497   50.2743 H   0  0  0  0  0  0  0  0  0  0  0  0
   58.6160   33.4040   48.8590 H   0  0  0  0  0  0  0  0  0  0  0  0
   60.0277   33.3702   47.1150 H   0  0  0  0  0  0  0  0  0  0  0  0
   61.6941   33.8189   45.3245 H   0  0  0  0  0  0  0  0  0  0  0  0
   64.0908   34.1515   45.9050 H   0  0  0  0  0  0  0  0  0  0  0  0
   64.8465   33.9556   48.2640 H   0  0  0  0  0  0  0  0  0  0  0  0
   64.8552   33.0265   51.7399 H   0  0  0  0  0  0  0  0  0  0  0  0
   64.9978   32.0886   50.2146 H   0  0  0  0  0  0  0  0  0  0  0  0
   65.3146   33.8567   50.2146 H   0  0  0  0  0  0  0  0  0  0  0  0
   63.8336   33.4750   52.9691 H   0  0  0  0  0  0  0  0  0  0  0  0
   61.4590   33.3289   55.8870 H   0  0  0  0  0  0  0  0  0  0  0  0
   63.0634   32.6925   55.3896 H   0  0  0  0  0  0  0  0  0  0  0  0
   62.7602   34.4630   55.3896 H   0  0  0  0  0  0  0  0  0  0  0  0
   59.7521   33.4431   54.3281 H   0  0  0  0  0  0  0  0  0  0  0  0
   58.0412   33.7514   52.9561 H   0  0  0  0  0  0  0  0  0  0  0  0
   58.3913   34.6040   51.4143 H   0  0  0  0  0  0  0  0  0  0  0  0
   58.0997   32.8316   51.4143 H   0  0  0  0  0  0  0  0  0  0  0  0
  1  2  1  0
  2  3  1  0
  3  4  1  0
  3  5  1  0
  5  6  1  0
  6  7  1  0
  7  8  1  0
  8  9  1  0
  9 10  1  0
 10 11  1  0
 11 12  1  0
 12 13  1  0
 13 14  1  0
 14 15  1  0
 15 16  2  0
 16 17  1  0
 17 18  2  0
 18 19  1  0
 19 20  2  0
 20 21  1  0
 21 22  2  0
 22 23  1  0
 22 24  1  0
 24 25  2  0
 25 26  1  0
 26 27  1  0
 26 28  2  0
 28 29  1  0
 29 30  1  0
 29 31  2  0
 31 15  1  0
 21 16  1  0
 31 24  1  0
  1 32  1  0
  1 33  1  0
  1 34  1  0
  2 35  1  0
  2 36  1  0
  4 37  1  0
  4 38  1  0
  4 39  1  0
  5 40  1  0
  5 41  1  0
  6 42  1  0
  6 43  1  0
  8 44  1  0
  8 45  1  0
  9 46  1  0
  9 47  1  0
 11 48  1  0
 12 49  1  0
 12 50  1  0
 13 51  1  0
 13 52  1  0
 14 53  1  0
 17 54  1  0
 18 55  1  0
 19 56  1  0
 20 57  1  0
 23 58  1  0
 23 59  1  0
 23 60  1  0
 25 61  1  0
 27 62  1  0
 27 63  1  0
 27 64  1  0
 28 65  1  0
 30 66  1  0
 30 67  1  0
 30 68  1  0
M  CHG  1  22   1
M  END
>  <UniqueID>  (8) 
8

>  <SMILES>  (8) 
CCN(C)CCOCCONCCNc1c2ccccc2[n+](C)c2cc(C)cc(C)c12

>  <Energy>  (8) 
98.66472153605285

>  <Genealogy>  (8) 
CCN(C)CCOCCONCCNc1c2ccccc2[n+](C)c2cc(C)cc(C)c12 (3D coordinates assigned)
CCN(C)CCOCCONCCNc1c2ccccc2[n+](C)c2cc(C)cc(C)c12 (optimized conformer: 98.66472153605285 kcal/mol)

>  <smiles>  (8) 
CCN(C)CCOCCONCCNc1c2ccccc2[n+](C)c2cc(C)cc(C)c12

>  <score_type>  (8) 
oracle

>  <origin>  (8) 
adg

>  <m_score__min__energy>  (8) 
-6.3099999999999996

>  <m_primary>  (8) 
energy

$$$$
8:0
     RDKit          3D

 51 53  0  0  0  0  0  0  0  0999 V2000
   59.5450   33.8410   51.0280 C   0  0  0  0  0  0  0  0  0  0  0  0
   58.8380   33.6620   52.3640 C   0  0  0  0  0  0  0  0  0  0  0  0
   58.4150   32.3200   52.4940 O   0  0  0  0  0  0  0  0  0  0  0  0
   57.1040   32.1740   51.9800 C   0  0  0  0  0  0  0  0  0  0  0  0
   56.5520   30.7960   52.3480 C   0  0  0  0  0  0  0  0  0  0  0  0
   57.3690   29.7640   51.8220 O   0  0  0  0  0  0  0  0  0  0  0  0
   58.0440   29.0420   52.8380 C   0  0  0  0  0  0  0  0  0  0  0  0
   59.5540   29.2050   52.6320 C   0  0  0  0  0  0  0  0  0  0  0  0
   59.8930   30.3800   51.8090 N   0  0  0  0  0  0  0  0  0  0  0  0
   60.9370   30.0860   50.8140 C   0  0  0  0  0  0  0  0  0  0  0  0
   60.8320   31.0300   49.6500 C   0  0  0  0  0  0  0  0  0  0  0  0
   59.7060   31.2540   48.8700 C   0  0  0  0  0  0  0  0  0  0  0  0
   60.0040   32.0870   47.8430 N   0  0  0  0  0  0  0  0  0  0  0  0
   59.0860   32.5000   46.8140 C   0  0  0  0  0  0  0  0  0  0  0  0
   59.0660   33.8240   46.3510 C   0  0  0  0  0  0  0  0  0  0  0  0
   58.1690   34.2000   45.3480 C   0  0  0  0  0  0  0  0  0  0  0  0
   57.3100   33.2440   44.8050 C   0  0  0  0  0  0  0  0  0  0  0  0
   57.3550   31.9600   45.2470 N   0  0  0  0  0  0  0  0  0  0  0  0
   58.2150   31.5690   46.2250 C   0  0  0  0  0  0  0  0  0  0  0  0
   61.3160   32.3890   47.9670 C   0  0  0  0  0  0  0  0  0  0  0  0
   62.0940   33.2360   47.1710 C   0  0  0  0  0  0  0  0  0  0  0  0
   63.4530   33.3870   47.4950 C   0  0  0  0  0  0  0  0  0  0  0  0
   64.0020   32.7110   48.6060 C   0  0  0  0  0  0  0  0  0  0  0  0
   63.1960   31.8820   49.4050 C   0  0  0  0  0  0  0  0  0  0  0  0
   61.8520   31.7510   49.0600 C   0  0  0  0  0  0  0  0  0  0  0  0
   60.5978   34.1075   51.2031 H   0  0  0  0  0  0  0  0  0  0  0  0
   59.4945   32.9017   50.4577 H   0  0  0  0  0  0  0  0  0  0  0  0
   59.0536   34.6431   50.4577 H   0  0  0  0  0  0  0  0  0  0  0  0
   59.5305   33.9096   53.1820 H   0  0  0  0  0  0  0  0  0  0  0  0
   57.9646   34.3291   52.4103 H   0  0  0  0  0  0  0  0  0  0  0  0
   56.4556   32.9529   52.4076 H   0  0  0  0  0  0  0  0  0  0  0  0
   57.1309   32.2731   50.8848 H   0  0  0  0  0  0  0  0  0  0  0  0
   56.5167   30.7036   53.4435 H   0  0  0  0  0  0  0  0  0  0  0  0
   55.5436   30.6969   51.9199 H   0  0  0  0  0  0  0  0  0  0  0  0
   57.7597   29.4368   53.8246 H   0  0  0  0  0  0  0  0  0  0  0  0
   57.7704   27.9777   52.7881 H   0  0  0  0  0  0  0  0  0  0  0  0
   60.0335   29.3145   53.6159 H   0  0  0  0  0  0  0  0  0  0  0  0
   59.9148   28.3121   52.1004 H   0  0  0  0  0  0  0  0  0  0  0  0
   60.2400   31.1300   52.4530 H   0  0  0  0  0  0  0  0  0  0  0  0
   59.0320   30.7370   51.3300 H   0  0  0  0  0  0  0  0  0  0  0  0
   61.9259   30.1971   51.2827 H   0  0  0  0  0  0  0  0  0  0  0  0
   60.8042   29.0561   50.4512 H   0  0  0  0  0  0  0  0  0  0  0  0
   58.7138   30.8180   49.0583 H   0  0  0  0  0  0  0  0  0  0  0  0
   59.7566   34.5663   46.7777 H   0  0  0  0  0  0  0  0  0  0  0  0
   58.1403   35.2397   44.9899 H   0  0  0  0  0  0  0  0  0  0  0  0
   56.5960   33.5300   44.0186 H   0  0  0  0  0  0  0  0  0  0  0  0
   58.2285   30.5200   46.5559 H   0  0  0  0  0  0  0  0  0  0  0  0
   61.6543   33.7691   46.3152 H   0  0  0  0  0  0  0  0  0  0  0  0
   64.0929   34.0360   46.8791 H   0  0  0  0  0  0  0  0  0  0  0  0
   65.0680   32.8339   48.8480 H   0  0  0  0  0  0  0  0  0  0  0  0
   63.6127   31.3533   50.2750 H   0  0  0  0  0  0  0  0  0  0  0  0
  1  2  1  0
  2  3  1  0
  3  4  1  0
  4  5  1  0
  5  6  1  0
  6  7  1  0
  7  8  1  0
  8  9  1  0
  9 10  1  0
 10 11  1  0
 11 12  2  0
 12 13  1  0
 13 14  1  0
 14 15  2  0
 15 16  1  0
 16 17  2  0
 17 18  1  0
 18 19  2  0
 13 20  1  0
 20 21  2  0
 21 22  1  0
 22 23  2  0
 23 24  1  0
 24 25  2  0
 25 11  1  0
 19 14  1  0
 25 20  1  0
  1 26  1  0
  1 27  1  0
  1 28  1  0
  2 29  1  0
  2 30  1  0
  4 31  1  0
  4 32  1  0
  5 33  1  0
  5 34  1  0
  7 35  1  0
  7 36  1  0
  8 37  1  0
  8 38  1  0
  9 39  1  0
  9 40  1  0
 10 41  1  0
 10 42  1  0
 12 43  1  0
 15 44  1  0
 16 45  1  0
 17 46  1  0
 19 47  1  0
 21 48  1  0
 22 49  1  0
 23 50  1  0
 24 51  1  0
M  CHG  1   9   1
M  END
>  <UniqueID>  (9) 
9

>  <SMILES>  (9) 
CCOCCOCC[NH2+]Cc1cn(-c2cccnc2)c2ccccc12

>  <Energy>  (9) 
91.00795980724567

>  <Genealogy>  (9) 
CCOCCOCC[NH2+]Cc1cn(-c2cccnc2)c2ccccc12 (protonated)
CCOCCOCC[NH2+]Cc1cn(-c2cccnc2)c2ccccc12 (3D coordinates assigned)
CCOCCOCC[NH2+]Cc1cn(-c2cccnc2)c2ccccc12 (optimized conformer: 91.00795980724567 kcal/mol)

>  <smiles>  (9) 
CCOCCOCCNCc1cn(-c2cccnc2)c2ccccc12

>  <score_type>  (9) 
oracle

>  <origin>  (9) 
adg

>  <m_score__min__energy>  (9) 
-4.3899999999999997

>  <m_primary>  (9) 
energy

$$$$
9:0
     RDKit          3D

 78 81  0  0  0  0  0  0  0  0999 V2000
   56.4330   23.8120   43.6710 C   0  0  0  0  0  0  0  0  0  0  0  0
   57.3660   24.9620   43.2660 C   0  0  0  0  0  0  0  0  0  0  0  0
   57.4290   26.0800   44.2470 N   0  0  0  0  0  0  0  0  0  0  0  0
   58.0390   25.6890   45.5460 C   0  0  0  0  0  0  0  0  0  0  0  0
   57.1350   25.9840   46.7470 C   0  0  0  0  0  0  0  0  0  0  0  0
   58.1290   27.2600   43.6690 C   0  0  0  0  0  0  0  0  0  0  0  0
   57.4810   28.5910   44.0930 C   0  0  0  0  0  0  0  0  0  0  0  0
   58.5010   29.6270   44.2520 N   0  0  0  0  0  0  0  0  0  0  0  0
   58.6680   30.3270   45.4960 C   0  0  0  0  0  0  0  0  0  0  0  0
   58.3440   31.6880   45.5910 C   0  0  0  0  0  0  0  0  0  0  0  0
   57.9840   32.4270   44.4450 C   0  0  0  0  0  0  0  0  0  0  0  0
   57.7030   33.7890   44.5360 C   0  0  0  0  0  0  0  0  0  0  0  0
   57.7990   34.4370   45.7620 C   0  0  0  0  0  0  0  0  0  0  0  0
   58.1550   33.7250   46.9070 C   0  0  0  0  0  0  0  0  0  0  0  0
   58.4080   32.3300   46.8540 C   0  0  0  0  0  0  0  0  0  0  0  0
   58.7190   31.6030   47.9870 N   0  0  0  0  0  0  0  0  0  0  0  0
   58.3750   32.1640   49.3100 C   0  0  0  0  0  0  0  0  0  0  0  0
   59.2790   30.3370   47.8690 C   0  0  0  0  0  0  0  0  0  0  0  0
   59.9570   29.6780   48.9490 C   0  0  0  0  0  0  0  0  0  0  0  0
   60.1540   30.3390   50.1740 O   0  0  0  0  0  0  0  0  0  0  0  0
   61.3130   31.0750   50.5690 C   0  0  0  0  0  0  0  0  0  0  0  0
   62.5520   30.9000   49.6460 C   0  0  0  0  0  0  0  0  0  0  0  0
   63.2550   32.1310   49.1380 N   0  0  0  0  0  0  0  0  0  0  0  0
   64.6310   32.1940   49.7040 C   0  0  0  0  0  0  0  0  0  0  0  0
   62.5250   33.3940   49.4940 C   0  0  0  0  0  0  0  0  0  0  0  0
   61.4690   33.7610   48.4430 C   0  0  0  0  0  0  0  0  0  0  0  0
   62.1070   34.0890   47.1470 N   0  0  0  0  0  0  0  0  0  0  0  0
   61.1520   33.9080   46.0430 C   0  0  0  0  0  0  0  0  0  0  0  0
   63.3680   33.3450   46.9060 C   0  0  0  0  0  0  0  0  0  0  0  0
   63.3920   31.9910   47.6430 C   0  0  0  0  0  0  0  0  0  0  0  0
   60.4550   28.3760   48.7660 C   0  0  0  0  0  0  0  0  0  0  0  0
   60.3120   27.7180   47.5540 C   0  0  0  0  0  0  0  0  0  0  0  0
   59.7100   28.3570   46.4820 C   0  0  0  0  0  0  0  0  0  0  0  0
   59.2180   29.6690   46.6100 C   0  0  0  0  0  0  0  0  0  0  0  0
   56.3825   23.7498   44.7681 H   0  0  0  0  0  0  0  0  0  0  0  0
   55.4265   23.9970   43.2676 H   0  0  0  0  0  0  0  0  0  0  0  0
   56.8215   22.8653   43.2676 H   0  0  0  0  0  0  0  0  0  0  0  0
   58.3804   24.5546   43.1436 H   0  0  0  0  0  0  0  0  0  0  0  0
   56.9571   25.3841   42.3361 H   0  0  0  0  0  0  0  0  0  0  0  0
   56.4340   26.3530   44.4340 H   0  0  0  0  0  0  0  0  0  0  0  0
   58.2497   24.6096   45.5231 H   0  0  0  0  0  0  0  0  0  0  0  0
   58.9553   26.2847   45.6708 H   0  0  0  0  0  0  0  0  0  0  0  0
   57.6916   25.8024   47.6782 H   0  0  0  0  0  0  0  0  0  0  0  0
   56.8108   27.0346   46.7126 H   0  0  0  0  0  0  0  0  0  0  0  0
   56.2535   25.3269   46.7126 H   0  0  0  0  0  0  0  0  0  0  0  0
   59.1751   27.2520   44.0090 H   0  0  0  0  0  0  0  0  0  0  0  0
   58.0614   27.1874   42.5735 H   0  0  0  0  0  0  0  0  0  0  0  0
   56.7619   28.9057   43.3224 H   0  0  0  0  0  0  0  0  0  0  0  0
   56.9661   28.4468   45.0543 H   0  0  0  0  0  0  0  0  0  0  0  0
   59.1400   29.8470   43.4550 H   0  0  0  0  0  0  0  0  0  0  0  0
   57.9244   31.9231   43.4690 H   0  0  0  0  0  0  0  0  0  0  0  0
   57.4055   34.3508   43.6383 H   0  0  0  0  0  0  0  0  0  0  0  0
   57.5934   35.5155   45.8293 H   0  0  0  0  0  0  0  0  0  0  0  0
   58.2411   34.2540   47.8676 H   0  0  0  0  0  0  0  0  0  0  0  0
   58.7750   31.5116   50.1002 H   0  0  0  0  0  0  0  0  0  0  0  0
   58.8126   33.1685   49.4074 H   0  0  0  0  0  0  0  0  0  0  0  0
   57.2813   32.2295   49.4074 H   0  0  0  0  0  0  0  0  0  0  0  0
   61.0491   32.1427   50.5863 H   0  0  0  0  0  0  0  0  0  0  0  0
   61.6059   30.6801   51.5530 H   0  0  0  0  0  0  0  0  0  0  0  0
   63.2933   30.3122   50.2072 H   0  0  0  0  0  0  0  0  0  0  0  0
   62.1446   30.4313   48.7381 H   0  0  0  0  0  0  0  0  0  0  0  0
   64.5760   32.1915   50.8026 H   0  0  0  0  0  0  0  0  0  0  0  0
   65.2078   31.3213   49.3637 H   0  0  0  0  0  0  0  0  0  0  0  0
   65.1256   33.1157   49.3637 H   0  0  0  0  0  0  0  0  0  0  0  0
   62.0270   33.2551   50.4649 H   0  0  0  0  0  0  0  0  0  0  0  0
   63.2599   34.2113   49.5382 H   0  0  0  0  0  0  0  0  0  0  0  0
   60.7876   32.9088   48.3038 H   0  0  0  0  0  0  0  0  0  0  0  0
   60.9134   34.6427   48.7951 H   0  0  0  0  0  0  0  0  0  0  0  0
   60.1492   33.7179   46.4531 H   0  0  0  0  0  0  0  0  0  0  0  0
   61.1291   34.8178   45.4251 H   0  0  0  0  0  0  0  0  0  0  0  0
   61.4636   33.0529   45.4251 H   0  0  0  0  0  0  0  0  0  0  0  0
   63.4717   33.1630   45.8261 H   0  0  0  0  0  0  0  0  0  0  0  0
   64.1996   33.9544   47.2895 H   0  0  0  0  0  0  0  0  0  0  0  0
   62.5602   31.3747   47.2710 H   0  0  0  0  0  0  0  0  0  0  0  0
   64.3688   31.5258   47.4444 H   0  0  0  0  0  0  0  0  0  0  0  0
   60.9667   27.8708   49.5984 H   0  0  0  0  0  0  0  0  0  0  0  0
   60.6773   26.6864   47.4432 H   0  0  0  0  0  0  0  0  0  0  0  0
   59.6156   27.8325   45.5197 H   0  0  0  0  0  0  0  0  0  0  0  0
  1  2  1  0
  2  3  1  0
  3  4  1  0
  4  5  1  0
  3  6  1  0
  6  7  1  0
  7  8  1  0
  8  9  1  0
  9 10  2  0
 10 11  1  0
 11 12  2  0
 12 13  1  0
 13 14  2  0
 14 15  1  0
 15 16  2  0
 16 17  1  0
 16 18  1  0
 18 19  2  0
 19 20  1  0
 20 21  1  0
 21 22  1  0
 22 23  1  0
 23 24  1  0
 23 25  1  0
 25 26  1  0
 26 27  1  0
 27 28  1  0
 27 29  1  0
 29 30  1  0
 19 31  1  0
 31 32  2  0
 32 33  1  0
 33 34  2  0
 34  9  1  0
 15 10  1  0
 34 18  1  0
 30 23  1  0
  1 35  1  0
  1 36  1  0
  1 37  1  0
  2 38  1  0
  2 39  1  0
  3 40  1  0
  4 41  1  0
  4 42  1  0
  5 43  1  0
  5 44  1  0
  5 45  1  0
  6 46  1  0
  6 47  1  0
  7 48  1  0
  7 49  1  0
  8 50  1  0
 11 51  1  0
 12 52  1  0
 13 53  1  0
 14 54  1  0
 17 55  1  0
 17 56  1  0
 17 57  1  0
 21 58  1  0
 21 59  1  0
 22 60  1  0
 22 61  1  0
 24 62  1  0
 24 63  1  0
 24 64  1  0
 25 65  1  0
 25 66  1  0
 26 67  1  0
 26 68  1  0
 28 69  1  0
 28 70  1  0
 28 71  1  0
 29 72  1  0
 29 73  1  0
 30 74  1  0
 30 75  1  0
 31 76  1  0
 32 77  1  0
 33 78  1  0
M  CHG  3   3   1  16   1  23   1
M  END
>  <UniqueID>  (10) 
10

>  <SMILES>  (10) 
CC[NH+](CC)CCNc1c2ccccc2[n+](C)c2c(OCC[N+]3(C)CCN(C)CC3)cccc12

>  <Energy>  (10) 
139.50886273113892

>  <Genealogy>  (10) 
CC[NH+](CC)CCNc1c2ccccc2[n+](C)c2c(OCC[N+]3(C)CCN(C)CC3)cccc12 (protonated)
CC[NH+](CC)CCNc1c2ccccc2[n+](C)c2c(OCC[N+]3(C)CCN(C)CC3)cccc12 (3D coordinates assigned)
CC[NH+](CC)CCNc1c2ccccc2[n+](C)c2c(OCC[N+]3(C)CCN(C)CC3)cccc12 (nonaromatic ring conformer: 139.50886273113892 kcal/mol)

>  <smiles>  (10) 
CCN(CC)CCNc1c2ccccc2[n+](C)c2c(OCC[N+]3(C)CCN(C)CC3)cccc12

>  <score_type>  (10) 
oracle

>  <origin>  (10) 
adg

>  <m_score__min__energy>  (10) 
-4.2000000000000002

>  <m_primary>  (10) 
energy

$$$$
10:0
     RDKit          3D

 57 59  0  0  0  0  0  0  0  0999 V2000
   56.6470   29.6940   43.9200 C   0  0  0  0  0  0  0  0  0  0  0  0
   56.5680   30.7520   44.8470 O   0  0  0  0  0  0  0  0  0  0  0  0
   57.3910   31.8160   44.4150 C   0  0  0  0  0  0  0  0  0  0  0  0
   57.3570   32.9480   45.4470 C   0  0  0  0  0  0  0  0  0  0  0  0
   57.8490   34.2850   44.8770 C   0  0  0  0  0  0  0  0  0  0  0  0
   59.3030   34.4090   45.0260 N   0  0  0  0  0  0  0  0  0  0  0  0
   59.6380   35.3390   46.1090 C   0  0  0  0  0  0  0  0  0  0  0  0
   60.0710   34.5740   47.3650 C   0  0  0  0  0  0  0  0  0  0  0  0
   60.9190   33.4730   47.0260 O   0  0  0  0  0  0  0  0  0  0  0  0
   60.6680   32.1240   47.3200 C   0  0  0  0  0  0  0  0  0  0  0  0
   61.2240   31.5890   48.5070 C   0  0  0  0  0  0  0  0  0  0  0  0
   61.0500   30.2330   48.8430 C   0  0  0  0  0  0  0  0  0  0  0  0
   60.3020   29.4430   47.9710 C   0  0  0  0  0  0  0  0  0  0  0  0
   59.7420   29.9560   46.8400 C   0  0  0  0  0  0  0  0  0  0  0  0
   59.8850   31.2920   46.4800 C   0  0  0  0  0  0  0  0  0  0  0  0
   59.1100   29.0040   46.2000 O   0  0  0  0  0  0  0  0  0  0  0  0
   59.2700   27.9020   46.9190 C   0  0  0  0  0  0  0  0  0  0  0  0
   58.6930   26.6040   46.5120 C   0  0  0  0  0  0  0  0  0  0  0  0
   57.3150   26.3880   46.6600 C   0  0  0  0  0  0  0  0  0  0  0  0
   56.7470   25.1630   46.3030 C   0  0  0  0  0  0  0  0  0  0  0  0
   57.5510   24.1280   45.7920 C   0  0  0  0  0  0  0  0  0  0  0  0
   56.9970   22.8500   45.4330 N   0  0  0  0  0  0  0  0  0  0  0  0
   57.0260   21.6910   46.2800 C   0  0  0  0  0  0  0  0  0  0  0  0
   56.6090   20.3640   45.7340 C   0  0  0  0  0  0  0  0  0  0  0  0
   57.3540   21.7860   47.4930 O   0  0  0  0  0  0  0  0  0  0  0  0
   58.9350   24.3290   45.6910 C   0  0  0  0  0  0  0  0  0  0  0  0
   59.5040   25.5550   46.0490 C   0  0  0  0  0  0  0  0  0  0  0  0
   60.0280   28.1260   48.0310 N   0  0  0  0  0  0  0  0  0  0  0  0
   60.4990   27.1680   49.0320 C   0  0  0  0  0  0  0  0  0  0  0  0
   56.7184   28.7382   44.4597 H   0  0  0  0  0  0  0  0  0  0  0  0
   55.7465   29.6920   43.2883 H   0  0  0  0  0  0  0  0  0  0  0  0
   57.5378   29.8258   43.2883 H   0  0  0  0  0  0  0  0  0  0  0  0
   58.4242   31.4560   44.3013 H   0  0  0  0  0  0  0  0  0  0  0  0
   57.0222   32.1925   43.4495 H   0  0  0  0  0  0  0  0  0  0  0  0
   56.3217   33.0743   45.7966 H   0  0  0  0  0  0  0  0  0  0  0  0
   58.0330   32.6686   46.2686 H   0  0  0  0  0  0  0  0  0  0  0  0
   57.5895   34.3397   43.8094 H   0  0  0  0  0  0  0  0  0  0  0  0
   57.3659   35.1041   45.4298 H   0  0  0  0  0  0  0  0  0  0  0  0
   59.6830   33.4680   45.2870 H   0  0  0  0  0  0  0  0  0  0  0  0
   60.4605   35.9923   45.7825 H   0  0  0  0  0  0  0  0  0  0  0  0
   58.7473   35.9382   46.3491 H   0  0  0  0  0  0  0  0  0  0  0  0
   60.6173   35.2570   48.0321 H   0  0  0  0  0  0  0  0  0  0  0  0
   59.1726   34.1840   47.8658 H   0  0  0  0  0  0  0  0  0  0  0  0
   61.8010   32.2431   49.1772 H   0  0  0  0  0  0  0  0  0  0  0  0
   61.4882   29.8121   49.7600 H   0  0  0  0  0  0  0  0  0  0  0  0
   59.4063   31.6902   45.5732 H   0  0  0  0  0  0  0  0  0  0  0  0
   56.6768   27.1895   47.0603 H   0  0  0  0  0  0  0  0  0  0  0  0
   55.6647   25.0067   46.4221 H   0  0  0  0  0  0  0  0  0  0  0  0
   56.4690   22.7780   44.5350 H   0  0  0  0  0  0  0  0  0  0  0  0
   56.3931   19.6769   46.5654 H   0  0  0  0  0  0  0  0  0  0  0  0
   55.7066   20.4884   45.1173 H   0  0  0  0  0  0  0  0  0  0  0  0
   57.4203   19.9499   45.1173 H   0  0  0  0  0  0  0  0  0  0  0  0
   59.5789   23.5149   45.3269 H   0  0  0  0  0  0  0  0  0  0  0  0
   60.5916   25.6985   45.9677 H   0  0  0  0  0  0  0  0  0  0  0  0
   60.3040   27.5646   50.0393 H   0  0  0  0  0  0  0  0  0  0  0  0
   59.9675   26.2134   48.9045 H   0  0  0  0  0  0  0  0  0  0  0  0
   61.5795   27.0059   48.9045 H   0  0  0  0  0  0  0  0  0  0  0  0
  1  2  1  0
  2  3  1  0
  3  4  1  0
  4  5  1  0
  5  6  1  0
  6  7  1  0
  7  8  1  0
  8  9  1  0
  9 10  1  0
 10 11  2  0
 11 12  1  0
 12 13  2  0
 13 14  1  0
 14 15  2  0
 14 16  1  0
 16 17  1  0
 17 18  1  0
 18 19  2  0
 19 20  1  0
 20 21  2  0
 21 22  1  0
 22 23  1  0
 23 24  1  0
 23 25  2  0
 21 26  1  0
 26 27  2  0
 17 28  2  0
 28 29  1  0
 15 10  1  0
 27 18  1  0
 28 13  1  0
  1 30  1  0
  1 31  1  0
  1 32  1  0
  3 33  1  0
  3 34  1  0
  4 35  1  0
  4 36  1  0
  5 37  1  0
  5 38  1  0
  6 39  1  0
  7 40  1  0
  7 41  1  0
  8 42  1  0
  8 43  1  0
 11 44  1  0
 12 45  1  0
 15 46  1  0
 19 47  1  0
 20 48  1  0
 22 49  1  0
 24 50  1  0
 24 51  1  0
 24 52  1  0
 26 53  1  0
 27 54  1  0
 29 55  1  0
 29 56  1  0
 29 57  1  0
M  CHG  1  28   1
M  END
>  <UniqueID>  (11) 
11

>  <SMILES>  (11) 
COCCCNCCOc1ccc2c(c1)oc(-c1ccc(NC(C)=O)cc1)[n+]2C

>  <Energy>  (11) 
95.87289347450603

>  <Genealogy>  (11) 
COCCCNCCOc1ccc2c(c1)oc(-c1ccc(NC(C)=O)cc1)[n+]2C (3D coordinates assigned)
COCCCNCCOc1ccc2c(c1)oc(-c1ccc(NC(C)=O)cc1)[n+]2C (optimized conformer: 95.87289347450603 kcal/mol)

>  <smiles>  (11) 
COCCCNCCOc1ccc2c(c1)oc(-c1ccc(NC(C)=O)cc1)[n+]2C

>  <score_type>  (11) 
oracle

>  <origin>  (11) 
adg

>  <m_score__min__energy>  (11) 
-6.4199999999999999

>  <m_primary>  (11) 
energy

$$$$
11:0
     RDKit          3D

 59 61  0  0  0  0  0  0  0  0999 V2000
   57.5390   32.2850   41.3350 C   0  0  0  0  0  0  0  0  0  0  0  0
   58.1270   32.5060   42.7240 C   0  0  0  0  0  0  0  0  0  0  0  0
   57.5410   31.6160   43.6540 O   0  0  0  0  0  0  0  0  0  0  0  0
   57.0050   30.4720   43.0140 C   0  0  0  0  0  0  0  0  0  0  0  0
   56.2580   29.5580   44.0160 C   0  0  0  0  0  0  0  0  0  0  0  0
   56.4940   29.8100   45.4660 N   0  0  0  0  0  0  0  0  0  0  0  0
   57.5840   29.0710   46.0890 C   0  0  0  0  0  0  0  0  0  0  0  0
   57.4860   27.6580   46.2080 C   0  0  0  0  0  0  0  0  0  0  0  0
   56.2600   26.9750   46.0020 C   0  0  0  0  0  0  0  0  0  0  0  0
   56.1600   25.5850   46.1730 C   0  0  0  0  0  0  0  0  0  0  0  0
   54.9590   24.8840   45.9830 O   0  0  0  0  0  0  0  0  0  0  0  0
   54.7230   23.5500   46.4250 C   0  0  0  0  0  0  0  0  0  0  0  0
   57.2840   24.8690   46.5590 C   0  0  0  0  0  0  0  0  0  0  0  0
   58.5040   25.5120   46.7490 C   0  0  0  0  0  0  0  0  0  0  0  0
   58.6370   26.9080   46.5440 C   0  0  0  0  0  0  0  0  0  0  0  0
   59.8550   27.5330   46.6650 N   0  0  0  0  0  0  0  0  0  0  0  0
   61.0980   26.7280   46.6050 C   0  0  0  0  0  0  0  0  0  0  0  0
   59.9190   28.9030   46.8200 C   0  0  0  0  0  0  0  0  0  0  0  0
   61.1080   29.5130   47.2740 C   0  0  0  0  0  0  0  0  0  0  0  0
   61.2260   30.8970   47.3990 C   0  0  0  0  0  0  0  0  0  0  0  0
   62.4380   31.5050   47.7690 O   0  0  0  0  0  0  0  0  0  0  0  0
   63.0160   32.6360   47.1240 C   0  0  0  0  0  0  0  0  0  0  0  0
   60.1210   31.7090   47.1430 C   0  0  0  0  0  0  0  0  0  0  0  0
   60.2320   33.0890   47.3440 O   0  0  0  0  0  0  0  0  0  0  0  0
   60.0050   33.7040   48.6090 C   0  0  0  0  0  0  0  0  0  0  0  0
   58.9000   31.1450   46.6960 C   0  0  0  0  0  0  0  0  0  0  0  0
   57.7700   31.9570   46.4740 O   0  0  0  0  0  0  0  0  0  0  0  0
   57.7410   33.3200   46.0660 C   0  0  0  0  0  0  0  0  0  0  0  0
   58.7870   29.7220   46.5280 C   0  0  0  0  0  0  0  0  0  0  0  0
   56.5130   31.8994   41.4283 H   0  0  0  0  0  0  0  0  0  0  0  0
   57.5239   33.2388   40.7872 H   0  0  0  0  0  0  0  0  0  0  0  0
   58.1558   31.5573   40.7872 H   0  0  0  0  0  0  0  0  0  0  0  0
   59.2126   32.3320   42.6901 H   0  0  0  0  0  0  0  0  0  0  0  0
   57.9199   33.5393   43.0392 H   0  0  0  0  0  0  0  0  0  0  0  0
   56.3014   30.7962   42.2331 H   0  0  0  0  0  0  0  0  0  0  0  0
   57.8369   29.8989   42.5787 H   0  0  0  0  0  0  0  0  0  0  0  0
   55.1799   29.6729   43.8302 H   0  0  0  0  0  0  0  0  0  0  0  0
   56.6545   28.5484   43.8328 H   0  0  0  0  0  0  0  0  0  0  0  0
   56.6570   30.8340   45.6000 H   0  0  0  0  0  0  0  0  0  0  0  0
   55.6130   29.7000   46.0140 H   0  0  0  0  0  0  0  0  0  0  0  0
   55.3691   27.5462   45.7020 H   0  0  0  0  0  0  0  0  0  0  0  0
   54.7183   23.5235   47.5247 H   0  0  0  0  0  0  0  0  0  0  0  0
   53.7498   23.2048   46.0458 H   0  0  0  0  0  0  0  0  0  0  0  0
   55.5187   22.8919   46.0458 H   0  0  0  0  0  0  0  0  0  0  0  0
   57.2104   23.7828   46.7164 H   0  0  0  0  0  0  0  0  0  0  0  0
   59.3802   24.9262   47.0638 H   0  0  0  0  0  0  0  0  0  0  0  0
   61.4407   26.5060   47.6264 H   0  0  0  0  0  0  0  0  0  0  0  0
   60.8997   25.7864   46.0720 H   0  0  0  0  0  0  0  0  0  0  0  0
   61.8761   27.2941   46.0720 H   0  0  0  0  0  0  0  0  0  0  0  0
   61.9669   28.8781   47.5370 H   0  0  0  0  0  0  0  0  0  0  0  0
   63.3785   33.3453   47.8827 H   0  0  0  0  0  0  0  0  0  0  0  0
   63.8577   32.3093   46.4956 H   0  0  0  0  0  0  0  0  0  0  0  0
   62.2582   33.1268   46.4956 H   0  0  0  0  0  0  0  0  0  0  0  0
   60.2654   32.9984   49.4117 H   0  0  0  0  0  0  0  0  0  0  0  0
   60.6297   34.6052   48.6960 H   0  0  0  0  0  0  0  0  0  0  0  0
   58.9446   33.9832   48.6960 H   0  0  0  0  0  0  0  0  0  0  0  0
   57.7272   33.9685   46.9544 H   0  0  0  0  0  0  0  0  0  0  0  0
   58.6346   33.5417   45.4641 H   0  0  0  0  0  0  0  0  0  0  0  0
   56.8387   33.5035   45.4641 H   0  0  0  0  0  0  0  0  0  0  0  0
  1  2  1  0
  2  3  1  0
  3  4  1  0
  4  5  1  0
  5  6  1  0
  6  7  1  0
  7  8  2  0
  8  9  1  0
  9 10  2  0
 10 11  1  0
 11 12  1  0
 10 13  1  0
 13 14  2  0
 14 15  1  0
 15 16  2  0
 16 17  1  0
 16 18  1  0
 18 19  2  0
 19 20  1  0
 20 21  1  0
 21 22  1  0
 20 23  2  0
 23 24  1  0
 24 25  1  0
 23 26  1  0
 26 27  1  0
 27 28  1  0
 26 29  2  0
 29  7  1  0
 15  8  1  0
 29 18  1  0
  1 30  1  0
  1 31  1  0
  1 32  1  0
  2 33  1  0
  2 34  1  0
  4 35  1  0
  4 36  1  0
  5 37  1  0
  5 38  1  0
  6 39  1  0
  6 40  1  0
  9 41  1  0
 12 42  1  0
 12 43  1  0
 12 44  1  0
 13 45  1  0
 14 46  1  0
 17 47  1  0
 17 48  1  0
 17 49  1  0
 19 50  1  0
 22 51  1  0
 22 52  1  0
 22 53  1  0
 25 54  1  0
 25 55  1  0
 25 56  1  0
 28 57  1  0
 28 58  1  0
 28 59  1  0
M  CHG  2   6   1  16   1
M  END
>  <UniqueID>  (12) 
12

>  <SMILES>  (12) 
CCOCC[NH2+]c1c2cc(OC)ccc2[n+](C)c2cc(OC)c(OC)c(OC)c12

>  <Energy>  (12) 
108.26205507683889

>  <Genealogy>  (12) 
CCOCC[NH2+]c1c2cc(OC)ccc2[n+](C)c2cc(OC)c(OC)c(OC)c12 (protonated)
CCOCC[NH2+]c1c2cc(OC)ccc2[n+](C)c2cc(OC)c(OC)c(OC)c12 (3D coordinates assigned)
CCOCC[NH2+]c1c2cc(OC)ccc2[n+](C)c2cc(OC)c(OC)c(OC)c12 (optimized conformer: 108.26205507683889 kcal/mol)

>  <smiles>  (12) 
CCOCCNc1c2cc(OC)ccc2[n+](C)c2cc(OC)c(OC)c(OC)c12

>  <score_type>  (12) 
oracle

>  <origin>  (12) 
adg

>  <m_score__min__energy>  (12) 
-2.8700000000000001

>  <m_primary>  (12) 
energy

$$$$
12:0
     RDKit          3D

 58 60  0  0  0  0  0  0  0  0999 V2000
   66.6900   32.7040   50.1320 C   0  0  0  0  0  0  0  0  0  0  0  0
   65.4000   33.1760   50.7990 C   0  0  0  0  0  0  0  0  0  0  0  0
   64.2730   32.2990   50.4360 N   0  0  0  0  0  0  0  0  0  0  0  0
   62.9700   32.9840   50.5410 C   0  0  0  0  0  0  0  0  0  0  0  0
   62.8630   34.2740   49.6980 C   0  0  0  0  0  0  0  0  0  0  0  0
   62.5640   34.0210   48.2060 C   0  0  0  0  0  0  0  0  0  0  0  0
   63.7690   33.4310   47.4620 C   0  0  0  0  0  0  0  0  0  0  0  0
   63.7540   31.9670   47.5730 N   0  0  0  0  0  0  0  0  0  0  0  0
   62.4610   31.4060   47.1540 C   0  0  0  0  0  0  0  0  0  0  0  0
   61.7170   30.7820   48.3390 C   0  0  0  0  0  0  0  0  0  0  0  0
   60.2780   31.0250   48.2380 N   0  0  0  0  0  0  0  0  0  0  0  0
   59.6080   30.9990   46.9640 C   0  0  0  0  0  0  0  0  0  0  0  0
   59.2480   32.1970   46.3240 C   0  0  0  0  0  0  0  0  0  0  0  0
   59.5880   33.4500   46.8810 C   0  0  0  0  0  0  0  0  0  0  0  0
   59.2660   34.6330   46.2220 C   0  0  0  0  0  0  0  0  0  0  0  0
   58.6140   34.5920   44.9970 C   0  0  0  0  0  0  0  0  0  0  0  0
   58.2510   33.3700   44.4350 C   0  0  0  0  0  0  0  0  0  0  0  0
   58.5260   32.1480   45.1010 C   0  0  0  0  0  0  0  0  0  0  0  0
   58.1200   30.9310   44.5840 N   0  0  0  0  0  0  0  0  0  0  0  0
   57.1260   30.8870   43.4890 C   0  0  0  0  0  0  0  0  0  0  0  0
   58.6290   29.7560   45.1050 C   0  0  0  0  0  0  0  0  0  0  0  0
   58.4650   28.5120   44.4400 C   0  0  0  0  0  0  0  0  0  0  0  0
   58.9590   27.3310   44.9900 C   0  0  0  0  0  0  0  0  0  0  0  0
   59.6450   27.3540   46.1990 C   0  0  0  0  0  0  0  0  0  0  0  0
   60.1320   26.2030   46.7230 F   0  0  0  0  0  0  0  0  0  0  0  0
   59.8540   28.5630   46.8570 C   0  0  0  0  0  0  0  0  0  0  0  0
   59.3590   29.7720   46.3230 C   0  0  0  0  0  0  0  0  0  0  0  0
   67.4252   32.4350   50.9048 H   0  0  0  0  0  0  0  0  0  0  0  0
   66.4784   31.8250   49.5054 H   0  0  0  0  0  0  0  0  0  0  0  0
   67.0957   33.5119   49.5054 H   0  0  0  0  0  0  0  0  0  0  0  0
   65.5319   33.1607   51.8910 H   0  0  0  0  0  0  0  0  0  0  0  0
   65.1778   34.1969   50.4549 H   0  0  0  0  0  0  0  0  0  0  0  0
   64.2790   31.4320   51.0170 H   0  0  0  0  0  0  0  0  0  0  0  0
   64.3940   32.0070   49.4380 H   0  0  0  0  0  0  0  0  0  0  0  0
   62.1864   32.2878   50.2073 H   0  0  0  0  0  0  0  0  0  0  0  0
   62.8542   33.2834   51.5931 H   0  0  0  0  0  0  0  0  0  0  0  0
   62.0544   34.8934   50.1134 H   0  0  0  0  0  0  0  0  0  0  0  0
   63.8430   34.7711   49.7481 H   0  0  0  0  0  0  0  0  0  0  0  0
   61.7216   33.3179   48.1284 H   0  0  0  0  0  0  0  0  0  0  0  0
   62.3236   34.9891   47.7424 H   0  0  0  0  0  0  0  0  0  0  0  0
   63.7191   33.7173   46.4011 H   0  0  0  0  0  0  0  0  0  0  0  0
   64.6967   33.8195   47.9075 H   0  0  0  0  0  0  0  0  0  0  0  0
   64.4880   31.5930   46.9260 H   0  0  0  0  0  0  0  0  0  0  0  0
   61.8435   32.2092   46.7255 H   0  0  0  0  0  0  0  0  0  0  0  0
   62.6481   30.6200   46.4076 H   0  0  0  0  0  0  0  0  0  0  0  0
   61.8994   29.6973   48.3480 H   0  0  0  0  0  0  0  0  0  0  0  0
   62.0868   31.2413   49.2676 H   0  0  0  0  0  0  0  0  0  0  0  0
   59.7060   30.9890   49.1110 H   0  0  0  0  0  0  0  0  0  0  0  0
   60.1133   33.4912   47.8466 H   0  0  0  0  0  0  0  0  0  0  0  0
   59.5285   35.6016   46.6724 H   0  0  0  0  0  0  0  0  0  0  0  0
   58.3830   35.5283   44.4679 H   0  0  0  0  0  0  0  0  0  0  0  0
   57.7431   33.3524   43.4594 H   0  0  0  0  0  0  0  0  0  0  0  0
   56.1129   30.8422   43.9151 H   0  0  0  0  0  0  0  0  0  0  0  0
   57.2233   31.7903   42.8689 H   0  0  0  0  0  0  0  0  0  0  0  0
   57.3028   29.9958   42.8689 H   0  0  0  0  0  0  0  0  0  0  0  0
   57.9391   28.4803   43.4744 H   0  0  0  0  0  0  0  0  0  0  0  0
   58.8056   26.3764   44.4654 H   0  0  0  0  0  0  0  0  0  0  0  0
   60.4119   28.5761   47.8049 H   0  0  0  0  0  0  0  0  0  0  0  0
  1  2  1  0
  2  3  1  0
  3  4  1  0
  4  5  1  0
  5  6  1  0
  6  7  1  0
  7  8  1  0
  8  9  1  0
  9 10  1  0
 10 11  1  0
 11 12  1  0
 12 13  2  0
 13 14  1  0
 14 15  2  0
 15 16  1  0
 16 17  2  0
 17 18  1  0
 18 19  2  0
 19 20  1  0
 19 21  1  0
 21 22  2  0
 22 23  1  0
 23 24  2  0
 24 25  1  0
 24 26  1  0
 26 27  2  0
 27 12  1  0
 18 13  1  0
 27 21  1  0
  1 28  1  0
  1 29  1  0
  1 30  1  0
  2 31  1  0
  2 32  1  0
  3 33  1  0
  3 34  1  0
  4 35  1  0
  4 36  1  0
  5 37  1  0
  5 38  1  0
  6 39  1  0
  6 40  1  0
  7 41  1  0
  7 42  1  0
  8 43  1  0
  9 44  1  0
  9 45  1  0
 10 46  1  0
 10 47  1  0
 11 48  1  0
 14 49  1  0
 15 50  1  0
 16 51  1  0
 17 52  1  0
 20 53  1  0
 20 54  1  0
 20 55  1  0
 22 56  1  0
 23 57  1  0
 26 58  1  0
M  CHG  2   3   1  19   1
M  END
>  <UniqueID>  (13) 
13

>  <SMILES>  (13) 
CC[NH2+]CCCCNCCNc1c2ccccc2[n+](C)c2ccc(F)cc12

>  <Energy>  (13) 
77.39319155323982

>  <Genealogy>  (13) 
CC[NH2+]CCCCNCCNc1c2ccccc2[n+](C)c2ccc(F)cc12 (protonated)
CC[NH2+]CCCCNCCNc1c2ccccc2[n+](C)c2ccc(F)cc12 (3D coordinates assigned)
CC[NH2+]CCCCNCCNc1c2ccccc2[n+](C)c2ccc(F)cc12 (optimized conformer: 77.39319155323982 kcal/mol)

>  <smiles>  (13) 
CCNCCCCNCCNc1c2ccccc2[n+](C)c2ccc(F)cc12

>  <score_type>  (13) 
oracle

>  <origin>  (13) 
adg

>  <m_score__min__energy>  (13) 
-4.79

>  <m_primary>  (13) 
energy

$$$$
13:0
     RDKit          3D

 48 50  0  0  1  0  0  0  0  0999 V2000
   57.3500   33.1730   44.9660 C   0  0  0  0  0  0  0  0  0  0  0  0
   58.0200   32.6920   43.6980 C   0  0  0  0  0  0  0  0  0  0  0  0
   58.0630   31.2580   43.5840 N   0  0  0  0  0  0  0  0  0  0  0  0
   57.0130   30.7260   42.7350 C   0  0  0  0  0  0  0  0  0  0  0  0
   55.8230   30.3130   43.6130 C   0  0  0  0  0  0  0  0  0  0  0  0
   56.3550   30.1170   44.9490 N   0  0  0  0  0  0  0  0  0  0  0  0
   56.7950   28.9900   45.3930 C   0  0  0  0  0  0  0  0  0  0  0  0
   56.0880   27.8430   45.3220 N   0  0  0  0  0  0  0  0  0  0  0  0
   56.5430   26.6660   45.7800 C   0  0  0  0  0  0  0  0  0  0  0  0
   57.7840   26.6590   46.3400 N   0  0  0  0  0  0  0  0  0  0  0  0
   58.5240   27.7630   46.4350 C   0  0  0  0  0  0  0  0  0  0  0  0
   58.0450   28.9450   45.9640 C   0  0  0  0  0  0  0  0  0  0  0  0
   58.9420   29.8630   46.1710 N   0  0  0  0  0  0  0  0  0  0  0  0
   60.0770   29.3140   46.8000 C   0  0  0  0  0  0  0  0  0  0  0  0
   61.1380   30.2470   47.1270 C   0  0  0  0  0  0  0  0  0  0  0  0
   60.9900   31.3860   47.9980 C   0  0  0  0  0  0  0  0  0  0  0  0
   60.5190   32.6730   47.4760 C   0  0  0  0  0  0  0  0  0  0  0  0
   60.9130   33.3580   46.3760 C   0  0  0  0  0  0  0  0  0  0  0  0
   60.3410   34.5610   45.9860 C   0  0  0  0  0  0  0  0  0  0  0  0
   59.3220   35.1440   46.7030 C   0  0  0  0  0  0  0  0  0  0  0  0
   58.9020   34.4560   47.8380 C   0  0  0  0  0  0  0  0  0  0  0  0
   59.4720   33.2670   48.2190 C   0  0  0  0  0  0  0  0  0  0  0  0
   59.7690   28.0550   46.9340 N   0  0  0  0  0  0  0  0  0  0  0  0
   60.5430   27.0050   47.5610 C   0  0  0  0  0  0  0  0  0  0  0  0
   57.8938   32.7826   45.8388 H   0  0  0  0  0  0  0  0  0  0  0  0
   57.3583   34.2727   44.9906 H   0  0  0  0  0  0  0  0  0  0  0  0
   56.3107   32.8135   44.9906 H   0  0  0  0  0  0  0  0  0  0  0  0
   57.4663   33.0940   42.8367 H   0  0  0  0  0  0  0  0  0  0  0  0
   59.0607   33.0474   43.7252 H   0  0  0  0  0  0  0  0  0  0  0  0
   57.9350   30.8750   44.5470 H   0  0  0  0  0  0  0  0  0  0  0  0
   56.6927   31.4961   42.0178 H   0  0  0  0  0  0  0  0  0  0  0  0
   57.3884   29.8523   42.1821 H   0  0  0  0  0  0  0  0  0  0  0  0
   55.0601   31.1054   43.6187 H   0  0  0  0  0  0  0  0  0  0  0  0
   55.3434   29.3984   43.2341 H   0  0  0  0  0  0  0  0  0  0  0  0
   55.1450   27.9170   44.8820 H   0  0  0  0  0  0  0  0  0  0  0  0
   55.9404   25.7487   45.7062 H   0  0  0  0  0  0  0  0  0  0  0  0
   61.9391   29.6382   47.5716 H   0  0  0  0  0  0  0  0  0  0  0  0
   61.2693   30.7504   46.1578 H   0  0  0  0  0  0  0  0  0  0  0  0
   60.2822   31.0888   48.7859 H   0  0  0  0  0  0  0  0  0  0  0  0
   62.0271   31.6059   48.2915 H   0  0  0  0  0  0  0  0  0  0  0  0
   61.7251   32.9410   45.7624 H   0  0  0  0  0  0  0  0  0  0  0  0
   60.7124   35.0615   45.0796 H   0  0  0  0  0  0  0  0  0  0  0  0
   58.8661   36.0973   46.3976 H   0  0  0  0  0  0  0  0  0  0  0  0
   58.0892   34.8778   48.4475 H   0  0  0  0  0  0  0  0  0  0  0  0
   59.1053   32.7630   49.1254 H   0  0  0  0  0  0  0  0  0  0  0  0
   60.4725   27.1006   48.6546 H   0  0  0  0  0  0  0  0  0  0  0  0
   60.1494   26.0252   47.2525 H   0  0  0  0  0  0  0  0  0  0  0  0
   61.5953   27.0911   47.2525 H   0  0  0  0  0  0  0  0  0  0  0  0
  1  2  1  0
  2  3  1  0
  3  4  1  0
  4  5  1  0
  5  6  1  0
  6  7  2  0
  7  8  1  0
  8  9  1  0
  9 10  2  0
 10 11  1  0
 11 12  2  0
 12 13  1  0
 13 14  2  0
 14 15  1  0
 15 16  1  0
 16 17  1  0
 17 18  2  0
 18 19  1  0
 19 20  2  0
 20 21  1  0
 21 22  2  0
 14 23  1  0
 23 24  1  0
 12  7  1  0
 22 17  1  0
 23 11  1  0
  1 25  1  0
  1 26  1  0
  1 27  1  0
  2 28  1  0
  2 29  1  0
  3 30  1  0
  4 31  1  0
  4 32  1  0
  5 33  1  0
  5 34  1  0
  8 35  1  0
  9 36  1  0
 15 37  1  0
 15 38  1  0
 16 39  1  0
 16 40  1  0
 18 41  1  0
 19 42  1  0
 20 43  1  0
 21 44  1  0
 22 45  1  0
 24 46  1  0
 24 47  1  0
 24 48  1  0
M  END
>  <smiles>  (14) 
CCNCCN=c1[nH]cnc2c1nc(CCc1ccccc1)n2C

>  <score_type>  (14) 
oracle

>  <origin>  (14) 
adg

>  <m_score__min__energy>  (14) 
-7.3799999999999999

>  <m_primary>  (14) 
energy

$$$$
14:0
     RDKit          3D

 48 51  0  0  0  0  0  0  0  0999 V2000
   57.7710   31.9640   42.7680 C   0  0  0  0  0  0  0  0  0  0  0  0
   58.0630   33.0940   43.7460 C   0  0  0  0  0  0  0  0  0  0  0  0
   57.3570   32.9030   45.1010 C   0  0  0  0  0  0  0  0  0  0  0  0
   58.2040   32.1770   46.0560 N   0  0  0  0  0  0  0  0  0  0  0  0
   59.2280   32.6700   46.8100 C   0  0  0  0  0  0  0  0  0  0  0  0
   59.9090   34.3320   46.6710 S   0  0  0  0  0  0  0  0  0  0  0  0
   61.4540   33.9320   47.4860 C   0  0  0  0  0  0  0  0  0  0  0  0
   62.4890   33.3390   46.7560 C   0  0  0  0  0  0  0  0  0  0  0  0
   63.6990   33.0160   47.3760 C   0  0  0  0  0  0  0  0  0  0  0  0
   63.8760   33.2660   48.7460 C   0  0  0  0  0  0  0  0  0  0  0  0
   65.0870   32.9490   49.3810 C   0  0  0  0  0  0  0  0  0  0  0  0
   65.2470   33.1950   50.7470 C   0  0  0  0  0  0  0  0  0  0  0  0
   64.2030   33.7550   51.4890 C   0  0  0  0  0  0  0  0  0  0  0  0
   62.9910   34.0730   50.8690 C   0  0  0  0  0  0  0  0  0  0  0  0
   62.8180   33.8350   49.4970 C   0  0  0  0  0  0  0  0  0  0  0  0
   61.6080   34.1520   48.8610 C   0  0  0  0  0  0  0  0  0  0  0  0
   59.8280   31.7180   47.5620 N   0  0  0  0  0  0  0  0  0  0  0  0
   59.1670   30.5890   47.2570 C   0  0  0  0  0  0  0  0  0  0  0  0
   58.2070   30.8500   46.3340 C   0  0  0  0  0  0  0  0  0  0  0  0
   57.5000   29.7970   45.7560 C   0  0  0  0  0  0  0  0  0  0  0  0
   56.6590   30.0110   44.8410 O   0  0  0  0  0  0  0  0  0  0  0  0
   57.7640   28.5150   46.1860 N   0  0  0  0  0  0  0  0  0  0  0  0
   56.9980   27.3840   45.6360 C   0  0  0  0  0  0  0  0  0  0  0  0
   58.7100   28.2890   47.1720 C   0  0  0  0  0  0  0  0  0  0  0  0
   58.9180   27.1110   47.5800 O   0  0  0  0  0  0  0  0  0  0  0  0
   59.4320   29.3330   47.7090 N   0  0  0  0  0  0  0  0  0  0  0  0
   60.4900   29.1190   48.7070 C   0  0  0  0  0  0  0  0  0  0  0  0
   57.5340   31.0470   43.3274 H   0  0  0  0  0  0  0  0  0  0  0  0
   56.9144   32.2391   42.1350 H   0  0  0  0  0  0  0  0  0  0  0  0
   58.6536   31.7896   42.1350 H   0  0  0  0  0  0  0  0  0  0  0  0
   59.1486   33.1392   43.9179 H   0  0  0  0  0  0  0  0  0  0  0  0
   57.6830   34.0255   43.3012 H   0  0  0  0  0  0  0  0  0  0  0  0
   57.1141   33.8910   45.5191 H   0  0  0  0  0  0  0  0  0  0  0  0
   56.4448   32.3118   44.9326 H   0  0  0  0  0  0  0  0  0  0  0  0
   62.3496   33.1253   45.6860 H   0  0  0  0  0  0  0  0  0  0  0  0
   64.5136   32.5654   46.7900 H   0  0  0  0  0  0  0  0  0  0  0  0
   65.9112   32.5063   48.8024 H   0  0  0  0  0  0  0  0  0  0  0  0
   66.1983   32.9470   51.2405 H   0  0  0  0  0  0  0  0  0  0  0  0
   64.3355   33.9461   52.5641 H   0  0  0  0  0  0  0  0  0  0  0  0
   62.1714   34.5106   51.4578 H   0  0  0  0  0  0  0  0  0  0  0  0
   60.7769   34.5750   49.4445 H   0  0  0  0  0  0  0  0  0  0  0  0
   60.6670   31.8310   48.1730 H   0  0  0  0  0  0  0  0  0  0  0  0
   56.5901   26.7817   46.4611 H   0  0  0  0  0  0  0  0  0  0  0  0
   56.1722   27.7664   45.0180 H   0  0  0  0  0  0  0  0  0  0  0  0
   57.6595   26.7591   45.0180 H   0  0  0  0  0  0  0  0  0  0  0  0
   60.0638   29.2052   49.7174 H   0  0  0  0  0  0  0  0  0  0  0  0
   60.9209   28.1155   48.5752 H   0  0  0  0  0  0  0  0  0  0  0  0
   61.2770   29.8762   48.5752 H   0  0  0  0  0  0  0  0  0  0  0  0
  1  2  1  0
  2  3  1  0
  3  4  1  0
  4  5  1  0
  5  6  1  0
  6  7  1  0
  7  8  2  0
  8  9  1  0
  9 10  2  0
 10 11  1  0
 11 12  2  0
 12 13  1  0
 13 14  2  0
 14 15  1  0
 15 16  2  0
  5 17  2  0
 17 18  1  0
 18 19  2  0
 19 20  1  0
 20 21  2  0
 20 22  1  0
 22 23  1  0
 22 24  1  0
 24 25  2  0
 24 26  1  0
 26 27  1  0
 19  4  1  0
 16  7  1  0
 26 18  1  0
 15 10  1  0
  1 28  1  0
  1 29  1  0
  1 30  1  0
  2 31  1  0
  2 32  1  0
  3 33  1  0
  3 34  1  0
  8 35  1  0
  9 36  1  0
 11 37  1  0
 12 38  1  0
 13 39  1  0
 14 40  1  0
 16 41  1  0
 17 42  1  0
 23 43  1  0
 23 44  1  0
 23 45  1  0
 27 46  1  0
 27 47  1  0
 27 48  1  0
M  CHG  1  17   1
M  END
>  <UniqueID>  (15) 
14

>  <SMILES>  (15) 
CCCn1c(Sc2ccc3ccccc3c2)[nH+]c2c1c(=O)n(C)c(=O)n2C

>  <Energy>  (15) 
95.90878433273184

>  <Genealogy>  (15) 
CCCn1c(Sc2ccc3ccccc3c2)[nH+]c2c1c(=O)n(C)c(=O)n2C (protonated)
CCCn1c(Sc2ccc3ccccc3c2)[nH+]c2c1c(=O)n(C)c(=O)n2C (3D coordinates assigned)
CCCn1c(Sc2ccc3ccccc3c2)[nH+]c2c1c(=O)n(C)c(=O)n2C (optimized conformer: 95.90878433273184 kcal/mol)

>  <smiles>  (15) 
CCCn1c(Sc2ccc3ccccc3c2)nc2c1c(=O)n(C)c(=O)n2C

>  <score_type>  (15) 
oracle

>  <origin>  (15) 
adg

>  <m_score__min__energy>  (15) 
-7.2599999999999998

>  <m_primary>  (15) 
energy

$$$$
15:0
     RDKit          3D

 72 74  0  0  0  0  0  0  0  0999 V2000
   59.4770   27.5820   47.9270 C   0  0  0  0  0  0  0  0  0  0  0  0
   60.0120   28.8400   47.2390 C   0  0  0  0  0  0  0  0  0  0  0  0
   59.0320   29.3660   46.2600 N   0  0  0  0  0  0  0  0  0  0  0  0
   59.6280   29.3970   44.9040 C   0  0  0  0  0  0  0  0  0  0  0  0
   60.9640   28.6530   44.8660 C   0  0  0  0  0  0  0  0  0  0  0  0
   57.7630   28.5930   46.2880 C   0  0  0  0  0  0  0  0  0  0  0  0
   57.0870   28.6700   44.9210 C   0  0  0  0  0  0  0  0  0  0  0  0
   55.8180   29.2770   45.0710 O   0  0  0  0  0  0  0  0  0  0  0  0
   55.4240   29.9560   43.8950 C   0  0  0  0  0  0  0  0  0  0  0  0
   56.5680   29.9850   42.8670 C   0  0  0  0  0  0  0  0  0  0  0  0
   57.4520   31.2450   42.9490 C   0  0  0  0  0  0  0  0  0  0  0  0
   57.4170   31.9360   44.3190 C   0  0  0  0  0  0  0  0  0  0  0  0
   58.7280   32.2930   44.7020 O   0  0  0  0  0  0  0  0  0  0  0  0
   58.7730   33.6530   45.0780 C   0  0  0  0  0  0  0  0  0  0  0  0
   57.6750   33.9100   46.1090 C   0  0  0  0  0  0  0  0  0  0  0  0
   58.0580   33.3660   47.4880 C   0  0  0  0  0  0  0  0  0  0  0  0
   58.8580   32.1500   47.3560 N   0  0  0  0  0  0  0  0  0  0  0  0
   59.9840   31.9230   48.2150 C   0  0  0  0  0  0  0  0  0  0  0  0
   59.8150   31.2380   49.4280 C   0  0  0  0  0  0  0  0  0  0  0  0
   58.5360   30.8030   49.8360 C   0  0  0  0  0  0  0  0  0  0  0  0
   58.3630   30.1660   51.0630 C   0  0  0  0  0  0  0  0  0  0  0  0
   59.4510   29.9620   51.9040 C   0  0  0  0  0  0  0  0  0  0  0  0
   60.7260   30.3690   51.5130 C   0  0  0  0  0  0  0  0  0  0  0  0
   60.9440   30.9860   50.2520 C   0  0  0  0  0  0  0  0  0  0  0  0
   62.2090   31.3500   49.8270 N   0  0  0  0  0  0  0  0  0  0  0  0
   63.4040   30.8410   50.5360 C   0  0  0  0  0  0  0  0  0  0  0  0
   62.3570   32.1740   48.7260 C   0  0  0  0  0  0  0  0  0  0  0  0
   63.5980   32.7870   48.4130 C   0  0  0  0  0  0  0  0  0  0  0  0
   63.7410   33.5870   47.2790 C   0  0  0  0  0  0  0  0  0  0  0  0
   62.6550   33.8150   46.4420 C   0  0  0  0  0  0  0  0  0  0  0  0
   61.4130   33.2620   46.7430 C   0  0  0  0  0  0  0  0  0  0  0  0
   61.2460   32.4480   47.8840 C   0  0  0  0  0  0  0  0  0  0  0  0
   59.5313   27.7096   49.0182 H   0  0  0  0  0  0  0  0  0  0  0  0
   58.4311   27.4176   47.6286 H   0  0  0  0  0  0  0  0  0  0  0  0
   60.0841   26.7146   47.6286 H   0  0  0  0  0  0  0  0  0  0  0  0
   60.2096   29.6098   47.9995 H   0  0  0  0  0  0  0  0  0  0  0  0
   60.9377   28.5808   46.7043 H   0  0  0  0  0  0  0  0  0  0  0  0
   58.9330   28.9215   44.1963 H   0  0  0  0  0  0  0  0  0  0  0  0
   59.8075   30.4466   44.6280 H   0  0  0  0  0  0  0  0  0  0  0  0
   61.3067   28.4621   45.8937 H   0  0  0  0  0  0  0  0  0  0  0  0
   60.8360   27.6962   44.3385 H   0  0  0  0  0  0  0  0  0  0  0  0
   61.7100   29.2656   44.3385 H   0  0  0  0  0  0  0  0  0  0  0  0
   57.9795   27.5422   46.5308 H   0  0  0  0  0  0  0  0  0  0  0  0
   57.0936   29.0165   47.0513 H   0  0  0  0  0  0  0  0  0  0  0  0
   57.7048   29.2701   44.2368 H   0  0  0  0  0  0  0  0  0  0  0  0
   56.9695   27.6582   44.5058 H   0  0  0  0  0  0  0  0  0  0  0  0
   54.5576   29.4405   43.4549 H   0  0  0  0  0  0  0  0  0  0  0  0
   55.1626   30.9915   44.1585 H   0  0  0  0  0  0  0  0  0  0  0  0
   57.2051   29.1039   43.0334 H   0  0  0  0  0  0  0  0  0  0  0  0
   56.1012   29.9877   41.8710 H   0  0  0  0  0  0  0  0  0  0  0  0
   58.4908   30.9549   42.7330 H   0  0  0  0  0  0  0  0  0  0  0  0
   57.0556   31.9637   42.2166 H   0  0  0  0  0  0  0  0  0  0  0  0
   56.7944   32.8407   44.2571 H   0  0  0  0  0  0  0  0  0  0  0  0
   56.9927   31.2478   45.0649 H   0  0  0  0  0  0  0  0  0  0  0  0
   59.7549   33.8839   45.5169 H   0  0  0  0  0  0  0  0  0  0  0  0
   58.6178   34.2921   44.1963 H   0  0  0  0  0  0  0  0  0  0  0  0
   57.5056   34.9940   46.1874 H   0  0  0  0  0  0  0  0  0  0  0  0
   56.7629   33.3928   45.7764 H   0  0  0  0  0  0  0  0  0  0  0  0
   58.6419   34.1263   48.0274 H   0  0  0  0  0  0  0  0  0  0  0  0
   57.1390   33.1279   48.0436 H   0  0  0  0  0  0  0  0  0  0  0  0
   58.6900   31.4810   46.5690 H   0  0  0  0  0  0  0  0  0  0  0  0
   57.6686   30.9682   49.1800 H   0  0  0  0  0  0  0  0  0  0  0  0
   57.3629   29.8236   51.3671 H   0  0  0  0  0  0  0  0  0  0  0  0
   59.3056   29.4780   52.8810 H   0  0  0  0  0  0  0  0  0  0  0  0
   61.5768   30.2098   52.1918 H   0  0  0  0  0  0  0  0  0  0  0  0
   63.2429   30.9096   51.6220 H   0  0  0  0  0  0  0  0  0  0  0  0
   63.5767   29.7912   50.2565 H   0  0  0  0  0  0  0  0  0  0  0  0
   64.2806   31.4438   50.2565 H   0  0  0  0  0  0  0  0  0  0  0  0
   64.4617   32.6287   49.0756 H   0  0  0  0  0  0  0  0  0  0  0  0
   64.7166   34.0389   47.0465 H   0  0  0  0  0  0  0  0  0  0  0  0
   62.7769   34.4333   45.5404 H   0  0  0  0  0  0  0  0  0  0  0  0
   60.5540   33.4614   46.0855 H   0  0  0  0  0  0  0  0  0  0  0  0
  1  2  1  0
  2  3  1  0
  3  4  1  0
  4  5  1  0
  3  6  1  0
  6  7  1  0
  7  8  1  0
  8  9  1  0
  9 10  1  0
 10 11  1  0
 11 12  1  0
 12 13  1  0
 13 14  1  0
 14 15  1  0
 15 16  1  0
 16 17  1  0
 17 18  1  0
 18 19  2  0
 19 20  1  0
 20 21  2  0
 21 22  1  0
 22 23  2  0
 23 24  1  0
 24 25  2  0
 25 26  1  0
 25 27  1  0
 27 28  2  0
 28 29  1  0
 29 30  2  0
 30 31  1  0
 31 32  2  0
 32 18  1  0
 24 19  1  0
 32 27  1  0
  1 33  1  0
  1 34  1  0
  1 35  1  0
  2 36  1  0
  2 37  1  0
  4 38  1  0
  4 39  1  0
  5 40  1  0
  5 41  1  0
  5 42  1  0
  6 43  1  0
  6 44  1  0
  7 45  1  0
  7 46  1  0
  9 47  1  0
  9 48  1  0
 10 49  1  0
 10 50  1  0
 11 51  1  0
 11 52  1  0
 12 53  1  0
 12 54  1  0
 14 55  1  0
 14 56  1  0
 15 57  1  0
 15 58  1  0
 16 59  1  0
 16 60  1  0
 17 61  1  0
 20 62  1  0
 21 63  1  0
 22 64  1  0
 23 65  1  0
 26 66  1  0
 26 67  1  0
 26 68  1  0
 28 69  1  0
 29 70  1  0
 30 71  1  0
 31 72  1  0
M  CHG  1  25   1
M  END
>  <UniqueID>  (16) 
15

>  <SMILES>  (16) 
CCN(CC)CCOCCCCOCCCNc1c2ccccc2[n+](C)c2ccccc12

>  <Energy>  (16) 
88.51979630968916

>  <Genealogy>  (16) 
CCN(CC)CCOCCCCOCCCNc1c2ccccc2[n+](C)c2ccccc12 (3D coordinates assigned)
CCN(CC)CCOCCCCOCCCNc1c2ccccc2[n+](C)c2ccccc12 (optimized conformer: 88.51979630968916 kcal/mol)

>  <smiles>  (16) 
CCN(CC)CCOCCCCOCCCNc1c2ccccc2[n+](C)c2ccccc12

>  <score_type>  (16) 
oracle

>  <origin>  (16) 
adg

>  <m_score__min__energy>  (16) 
-6.2800000000000002

>  <m_primary>  (16) 
energy

$$$$
16:0
     RDKit          3D

 58 60  0  0  0  0  0  0  0  0999 V2000
   59.5970   34.9200   46.0360 C   0  0  0  0  0  0  0  0  0  0  0  0
   59.4270   33.5300   46.2920 O   0  0  0  0  0  0  0  0  0  0  0  0
   58.8960   32.5990   45.3820 C   0  0  0  0  0  0  0  0  0  0  0  0
   58.1110   33.0290   44.3000 C   0  0  0  0  0  0  0  0  0  0  0  0
   57.4830   32.1080   43.4730 C   0  0  0  0  0  0  0  0  0  0  0  0
   57.6230   30.7460   43.7060 C   0  0  0  0  0  0  0  0  0  0  0  0
   58.4460   30.2620   44.7510 C   0  0  0  0  0  0  0  0  0  0  0  0
   59.1100   31.2060   45.5840 C   0  0  0  0  0  0  0  0  0  0  0  0
   59.9330   30.7230   46.6270 C   0  0  0  0  0  0  0  0  0  0  0  0
   60.9040   31.5740   47.2640 N   0  0  0  0  0  0  0  0  0  0  0  0
   62.3440   31.3170   47.1520 C   0  0  0  0  0  0  0  0  0  0  0  0
   63.1760   32.5900   47.4110 C   0  0  0  0  0  0  0  0  0  0  0  0
   62.3510   33.7910   47.6060 N   0  0  0  0  0  0  0  0  0  0  0  0
   62.1490   34.1010   49.0260 C   0  0  0  0  0  0  0  0  0  0  0  0
   60.6560   34.2180   49.3560 C   0  0  0  0  0  0  0  0  0  0  0  0
   60.0790   33.0620   50.2100 C   0  0  0  0  0  0  0  0  0  0  0  0
   59.2510   32.0600   49.4950 N   0  0  0  0  0  0  0  0  0  0  0  0
   58.7790   30.9430   50.3260 C   0  0  0  0  0  0  0  0  0  0  0  0
   58.1700   32.6360   48.6750 C   0  0  0  0  0  0  0  0  0  0  0  0
   59.8440   29.3730   47.0010 C   0  0  0  0  0  0  0  0  0  0  0  0
   60.4440   28.9090   48.1890 C   0  0  0  0  0  0  0  0  0  0  0  0
   60.3550   27.5690   48.5570 C   0  0  0  0  0  0  0  0  0  0  0  0
   59.6470   26.6770   47.7630 C   0  0  0  0  0  0  0  0  0  0  0  0
   59.0390   27.1150   46.5870 C   0  0  0  0  0  0  0  0  0  0  0  0
   59.1460   28.4650   46.1660 C   0  0  0  0  0  0  0  0  0  0  0  0
   58.5930   28.9050   44.9800 N   0  0  0  0  0  0  0  0  0  0  0  0
   58.1580   27.9250   43.9600 C   0  0  0  0  0  0  0  0  0  0  0  0
   59.6634   35.4631   46.9902 H   0  0  0  0  0  0  0  0  0  0  0  0
   60.5210   35.0764   45.4600 H   0  0  0  0  0  0  0  0  0  0  0  0
   58.7380   35.2945   45.4600 H   0  0  0  0  0  0  0  0  0  0  0  0
   57.9927   34.1053   44.1061 H   0  0  0  0  0  0  0  0  0  0  0  0
   56.8713   32.4586   42.6287 H   0  0  0  0  0  0  0  0  0  0  0  0
   57.0847   30.0306   43.0670 H   0  0  0  0  0  0  0  0  0  0  0  0
   60.5760   32.4010   47.8120 H   0  0  0  0  0  0  0  0  0  0  0  0
   62.6271   30.5508   47.8887 H   0  0  0  0  0  0  0  0  0  0  0  0
   62.5513   30.9762   46.1269 H   0  0  0  0  0  0  0  0  0  0  0  0
   63.7837   32.4328   48.3143 H   0  0  0  0  0  0  0  0  0  0  0  0
   63.7975   32.7614   46.5197 H   0  0  0  0  0  0  0  0  0  0  0  0
   61.4210   33.6580   47.1450 H   0  0  0  0  0  0  0  0  0  0  0  0
   62.5904   33.2988   49.6356 H   0  0  0  0  0  0  0  0  0  0  0  0
   62.6332   35.0637   49.2469 H   0  0  0  0  0  0  0  0  0  0  0  0
   60.5013   35.1580   49.9060 H   0  0  0  0  0  0  0  0  0  0  0  0
   60.1258   34.1814   48.3929 H   0  0  0  0  0  0  0  0  0  0  0  0
   60.9259   32.5300   50.6681 H   0  0  0  0  0  0  0  0  0  0  0  0
   59.3986   33.5425   50.9284 H   0  0  0  0  0  0  0  0  0  0  0  0
   58.8895   31.2044   51.3888 H   0  0  0  0  0  0  0  0  0  0  0  0
   57.7199   30.7440   50.1055 H   0  0  0  0  0  0  0  0  0  0  0  0
   59.3745   30.0448   50.1055 H   0  0  0  0  0  0  0  0  0  0  0  0
   57.3919   33.0506   49.3328 H   0  0  0  0  0  0  0  0  0  0  0  0
   58.5780   33.4363   48.0401 H   0  0  0  0  0  0  0  0  0  0  0  0
   57.7333   31.8510   48.0401 H   0  0  0  0  0  0  0  0  0  0  0  0
   60.9893   29.6142   48.8334 H   0  0  0  0  0  0  0  0  0  0  0  0
   60.8455   27.2173   49.4766 H   0  0  0  0  0  0  0  0  0  0  0  0
   59.5654   25.6217   48.0624 H   0  0  0  0  0  0  0  0  0  0  0  0
   58.4669   26.4015   45.9757 H   0  0  0  0  0  0  0  0  0  0  0  0
   57.7602   27.0288   44.4587 H   0  0  0  0  0  0  0  0  0  0  0  0
   57.3743   28.3732   43.3316 H   0  0  0  0  0  0  0  0  0  0  0  0
   59.0161   27.6445   43.3316 H   0  0  0  0  0  0  0  0  0  0  0  0
  1  2  1  0
  2  3  1  0
  3  4  2  0
  4  5  1  0
  5  6  2  0
  6  7  1  0
  7  8  2  0
  8  9  1  0
  9 10  1  0
 10 11  1  0
 11 12  1  0
 12 13  1  0
 13 14  1  0
 14 15  1  0
 15 16  1  0
 16 17  1  0
 17 18  1  0
 17 19  1  0
  9 20  2  0
 20 21  1  0
 21 22  2  0
 22 23  1  0
 23 24  2  0
 24 25  1  0
 25 26  2  0
 26 27  1  0
  8  3  1  0
 25 20  1  0
 26  7  1  0
  1 28  1  0
  1 29  1  0
  1 30  1  0
  4 31  1  0
  5 32  1  0
  6 33  1  0
 10 34  1  0
 11 35  1  0
 11 36  1  0
 12 37  1  0
 12 38  1  0
 13 39  1  0
 14 40  1  0
 14 41  1  0
 15 42  1  0
 15 43  1  0
 16 44  1  0
 16 45  1  0
 18 46  1  0
 18 47  1  0
 18 48  1  0
 19 49  1  0
 19 50  1  0
 19 51  1  0
 21 52  1  0
 22 53  1  0
 23 54  1  0
 24 55  1  0
 27 56  1  0
 27 57  1  0
 27 58  1  0
M  CHG  1  26   1
M  END
>  <UniqueID>  (17) 
16

>  <SMILES>  (17) 
COc1cccc2c1c(NCCNCCCN(C)C)c1ccccc1[n+]2C

>  <Energy>  (17) 
91.93368855451443

>  <Genealogy>  (17) 
COc1cccc2c1c(NCCNCCCN(C)C)c1ccccc1[n+]2C (3D coordinates assigned)
COc1cccc2c1c(NCCNCCCN(C)C)c1ccccc1[n+]2C (optimized conformer: 91.93368855451443 kcal/mol)

>  <smiles>  (17) 
COc1cccc2c1c(NCCNCCCN(C)C)c1ccccc1[n+]2C

>  <score_type>  (17) 
oracle

>  <origin>  (17) 
adg

>  <m_score__min__energy>  (17) 
-5.2999999999999998

>  <m_primary>  (17) 
energy

$$$$
17:0
     RDKit          3D

 47 49  0  0  0  0  0  0  0  0999 V2000
   56.5580   29.8110   42.9790 C   0  0  0  0  0  0  0  0  0  0  0  0
   55.5730   30.0950   44.1080 C   0  0  0  0  0  0  0  0  0  0  0  0
   55.5210   29.0050   45.0090 O   0  0  0  0  0  0  0  0  0  0  0  0
   56.7390   28.2890   44.9810 C   0  0  0  0  0  0  0  0  0  0  0  0
   57.6580   28.7850   46.1030 C   0  0  0  0  0  0  0  0  0  0  0  0
   57.8860   30.1780   45.9920 O   0  0  0  0  0  0  0  0  0  0  0  0
   59.2340   30.4630   45.6590 C   0  0  0  0  0  0  0  0  0  0  0  0
   60.0810   30.4790   46.9340 C   0  0  0  0  0  0  0  0  0  0  0  0
   59.2690   30.9120   48.0960 N   0  0  0  0  0  0  0  0  0  0  0  0
   58.7280   32.1810   48.1690 C   0  0  0  0  0  0  0  0  0  0  0  0
   58.6960   33.1030   47.0120 C   0  0  0  0  0  0  0  0  0  0  0  0
   57.5070   33.2350   46.2710 C   0  0  0  0  0  0  0  0  0  0  0  0
   57.4370   34.1250   45.1990 C   0  0  0  0  0  0  0  0  0  0  0  0
   58.5460   34.9040   44.8640 C   0  0  0  0  0  0  0  0  0  0  0  0
   59.7230   34.8040   45.6110 C   0  0  0  0  0  0  0  0  0  0  0  0
   59.8020   33.9140   46.6880 C   0  0  0  0  0  0  0  0  0  0  0  0
   61.3030   33.8440   47.6060 Cl  0  0  0  0  0  0  0  0  0  0  0  0
   58.1630   32.6180   49.3240 N   0  0  0  0  0  0  0  0  0  0  0  0
   58.0940   31.8370   50.4260 C   0  0  0  0  0  0  0  0  0  0  0  0
   57.5340   32.3400   51.6060 C   0  0  0  0  0  0  0  0  0  0  0  0
   57.4640   31.5330   52.7450 C   0  0  0  0  0  0  0  0  0  0  0  0
   57.9490   30.2230   52.7080 C   0  0  0  0  0  0  0  0  0  0  0  0
   58.5060   29.7130   51.5300 C   0  0  0  0  0  0  0  0  0  0  0  0
   58.5860   30.5220   50.3790 C   0  0  0  0  0  0  0  0  0  0  0  0
   59.1690   30.0720   49.1810 C   0  0  0  0  0  0  0  0  0  0  0  0
   59.6230   28.8930   49.1150 O   0  0  0  0  0  0  0  0  0  0  0  0
   57.5326   29.5300   43.4047 H   0  0  0  0  0  0  0  0  0  0  0  0
   56.1771   28.9861   42.3590 H   0  0  0  0  0  0  0  0  0  0  0  0
   56.6748   30.7121   42.3590 H   0  0  0  0  0  0  0  0  0  0  0  0
   55.8941   30.9969   44.6497 H   0  0  0  0  0  0  0  0  0  0  0  0
   54.5726   30.2466   43.6764 H   0  0  0  0  0  0  0  0  0  0  0  0
   56.5360   27.2171   45.1221 H   0  0  0  0  0  0  0  0  0  0  0  0
   57.2318   28.4480   44.0105 H   0  0  0  0  0  0  0  0  0  0  0  0
   57.1867   28.5737   47.0742 H   0  0  0  0  0  0  0  0  0  0  0  0
   58.6233   28.2638   46.0223 H   0  0  0  0  0  0  0  0  0  0  0  0
   59.6144   29.6896   44.9755 H   0  0  0  0  0  0  0  0  0  0  0  0
   59.2910   31.4457   45.1680 H   0  0  0  0  0  0  0  0  0  0  0  0
   60.4700   29.4674   47.1220 H   0  0  0  0  0  0  0  0  0  0  0  0
   60.9113   31.1877   46.7986 H   0  0  0  0  0  0  0  0  0  0  0  0
   56.6267   32.6323   46.5389 H   0  0  0  0  0  0  0  0  0  0  0  0
   56.5075   34.2130   44.6174 H   0  0  0  0  0  0  0  0  0  0  0  0
   58.4934   35.5971   44.0114 H   0  0  0  0  0  0  0  0  0  0  0  0
   60.5911   35.4276   45.3512 H   0  0  0  0  0  0  0  0  0  0  0  0
   57.1491   33.3700   51.6369 H   0  0  0  0  0  0  0  0  0  0  0  0
   57.0261   31.9300   53.6727 H   0  0  0  0  0  0  0  0  0  0  0  0
   57.8928   29.5914   53.6068 H   0  0  0  0  0  0  0  0  0  0  0  0
   58.8818   28.6795   51.5024 H   0  0  0  0  0  0  0  0  0  0  0  0
  1  2  1  0
  2  3  1  0
  3  4  1  0
  4  5  1  0
  5  6  1  0
  6  7  1  0
  7  8  1  0
  8  9  1  0
  9 10  1  0
 10 11  1  0
 11 12  2  0
 12 13  1  0
 13 14  2  0
 14 15  1  0
 15 16  2  0
 16 17  1  0
 10 18  2  0
 18 19  1  0
 19 20  2  0
 20 21  1  0
 21 22  2  0
 22 23  1  0
 23 24  2  0
 24 25  1  0
 25 26  2  0
 25  9  1  0
 16 11  1  0
 24 19  1  0
  1 27  1  0
  1 28  1  0
  1 29  1  0
  2 30  1  0
  2 31  1  0
  4 32  1  0
  4 33  1  0
  5 34  1  0
  5 35  1  0
  7 36  1  0
  7 37  1  0
  8 38  1  0
  8 39  1  0
 12 40  1  0
 13 41  1  0
 14 42  1  0
 15 43  1  0
 20 44  1  0
 21 45  1  0
 22 46  1  0
 23 47  1  0
M  END
>  <UniqueID>  (18) 
17

>  <SMILES>  (18) 
CCOCCOCCn1c(-c2ccccc2Cl)nc2ccccc2c1=O

>  <Energy>  (18) 
60.797493666455374

>  <Genealogy>  (18) 
CCOCCOCCn1c(-c2ccccc2Cl)nc2ccccc2c1=O (3D coordinates assigned)
CCOCCOCCn1c(-c2ccccc2Cl)nc2ccccc2c1=O (optimized conformer: 60.797493666455374 kcal/mol)

>  <smiles>  (18) 
CCOCCOCCn1c(-c2ccccc2Cl)nc2ccccc2c1=O

>  <score_type>  (18) 
oracle

>  <origin>  (18) 
adg

>  <m_score__min__energy>  (18) 
-7.2699999999999996

>  <m_primary>  (18) 
energy

$$$$
18:0
     RDKit          3D

 46 50  0  0  0  0  0  0  0  0999 V2000
   57.0360   30.9630   43.1660 C   0  0  0  0  0  0  0  0  0  0  0  0
   56.3370   29.7290   43.7230 C   0  0  0  0  0  0  0  0  0  0  0  0
   56.3390   29.7470   45.1490 O   0  0  0  0  0  0  0  0  0  0  0  0
   57.2930   29.0540   45.9040 C   0  0  0  0  0  0  0  0  0  0  0  0
   57.1040   27.6820   46.1370 C   0  0  0  0  0  0  0  0  0  0  0  0
   55.9490   27.0710   45.6240 O   0  0  0  0  0  0  0  0  0  0  0  0
   55.7120   25.6670   45.6230 C   0  0  0  0  0  0  0  0  0  0  0  0
   58.0700   26.9630   46.8630 C   0  0  0  0  0  0  0  0  0  0  0  0
   59.2030   27.6050   47.3600 C   0  0  0  0  0  0  0  0  0  0  0  0
   59.3840   28.9800   47.1570 C   0  0  0  0  0  0  0  0  0  0  0  0
   60.5070   29.6310   47.6780 C   0  0  0  0  0  0  0  0  0  0  0  0
   60.6650   31.0160   47.4960 C   0  0  0  0  0  0  0  0  0  0  0  0
   59.7300   31.7150   46.7670 N   0  0  0  0  0  0  0  0  0  0  0  0
   58.6170   31.0950   46.2700 C   0  0  0  0  0  0  0  0  0  0  0  0
   58.4250   29.7140   46.4330 C   0  0  0  0  0  0  0  0  0  0  0  0
   59.8620   33.1720   46.5880 C   0  0  0  0  0  0  0  0  0  0  0  0
   61.3250   33.5710   46.3800 C   0  0  0  0  0  0  0  0  0  0  0  0
   62.1750   33.0120   47.4850 C   0  0  0  0  0  0  0  0  0  0  0  0
   63.3050   33.7240   47.9380 C   0  0  0  0  0  0  0  0  0  0  0  0
   64.0670   33.1600   48.9540 C   0  0  0  0  0  0  0  0  0  0  0  0
   63.7550   31.9610   49.5030 C   0  0  0  0  0  0  0  0  0  0  0  0
   62.6610   31.2140   49.0790 C   0  0  0  0  0  0  0  0  0  0  0  0
   61.8600   31.7350   48.0310 C   0  0  0  0  0  0  0  0  0  0  0  0
   64.6710   31.6560   50.4920 O   0  0  0  0  0  0  0  0  0  0  0  0
   65.6190   32.7290   50.5640 C   0  0  0  0  0  0  0  0  0  0  0  0
   65.1970   33.6680   49.5660 O   0  0  0  0  0  0  0  0  0  0  0  0
   57.3911   31.5898   43.9973 H   0  0  0  0  0  0  0  0  0  0  0  0
   57.8923   30.6524   42.5493 H   0  0  0  0  0  0  0  0  0  0  0  0
   56.3293   31.5377   42.5493 H   0  0  0  0  0  0  0  0  0  0  0  0
   55.2974   29.7103   43.3639 H   0  0  0  0  0  0  0  0  0  0  0  0
   56.8761   28.8334   43.3807 H   0  0  0  0  0  0  0  0  0  0  0  0
   55.6509   25.3047   46.6598 H   0  0  0  0  0  0  0  0  0  0  0  0
   54.7654   25.4553   45.1042 H   0  0  0  0  0  0  0  0  0  0  0  0
   56.5366   25.1563   45.1042 H   0  0  0  0  0  0  0  0  0  0  0  0
   57.9306   25.8863   47.0400 H   0  0  0  0  0  0  0  0  0  0  0  0
   59.9590   27.0296   47.9144 H   0  0  0  0  0  0  0  0  0  0  0  0
   61.2670   29.0589   48.2305 H   0  0  0  0  0  0  0  0  0  0  0  0
   57.8607   31.6875   45.7343 H   0  0  0  0  0  0  0  0  0  0  0  0
   59.2770   33.4805   45.7090 H   0  0  0  0  0  0  0  0  0  0  0  0
   59.4892   33.6707   47.4948 H   0  0  0  0  0  0  0  0  0  0  0  0
   61.6762   33.1757   45.4154 H   0  0  0  0  0  0  0  0  0  0  0  0
   61.4031   34.6682   46.3859 H   0  0  0  0  0  0  0  0  0  0  0  0
   63.5750   34.6964   47.5003 H   0  0  0  0  0  0  0  0  0  0  0  0
   62.4236   30.2457   49.5438 H   0  0  0  0  0  0  0  0  0  0  0  0
   65.6028   33.1923   51.5615 H   0  0  0  0  0  0  0  0  0  0  0  0
   66.6486   32.3814   50.3936 H   0  0  0  0  0  0  0  0  0  0  0  0
  1  2  1  0
  2  3  1  0
  3  4  1  0
  4  5  2  0
  5  6  1  0
  6  7  1  0
  5  8  1  0
  8  9  2  0
  9 10  1  0
 10 11  2  0
 11 12  1  0
 12 13  2  0
 13 14  1  0
 14 15  2  0
 13 16  1  0
 16 17  1  0
 17 18  1  0
 18 19  2  0
 19 20  1  0
 20 21  2  0
 21 22  1  0
 22 23  2  0
 21 24  1  0
 24 25  1  0
 25 26  1  0
 15  4  1  0
 23 18  1  0
 15 10  1  0
 26 20  1  0
 23 12  1  0
  1 27  1  0
  1 28  1  0
  1 29  1  0
  2 30  1  0
  2 31  1  0
  7 32  1  0
  7 33  1  0
  7 34  1  0
  8 35  1  0
  9 36  1  0
 11 37  1  0
 14 38  1  0
 16 39  1  0
 16 40  1  0
 17 41  1  0
 17 42  1  0
 19 43  1  0
 22 44  1  0
 25 45  1  0
 25 46  1  0
M  CHG  1  13   1
M  END
>  <UniqueID>  (19) 
18

>  <SMILES>  (19) 
CCOc1c(OC)ccc2cc3[n+](cc12)CCc1cc2c(cc1-3)OCO2

>  <Energy>  (19) 
92.49964502385399

>  <Genealogy>  (19) 
CCOc1c(OC)ccc2cc3[n+](cc12)CCc1cc2c(cc1-3)OCO2 (3D coordinates assigned)
CCOc1c(OC)ccc2cc3[n+](cc12)CCc1cc2c(cc1-3)OCO2 (nonaromatic ring conformer: 92.49964502385399 kcal/mol)

>  <smiles>  (19) 
CCOc1c(OC)ccc2cc3[n+](cc12)CCc1cc2c(cc1-3)OCO2

>  <score_type>  (19) 
oracle

>  <origin>  (19) 
adg

>  <m_score__min__energy>  (19) 
-6.3799999999999999

>  <m_primary>  (19) 
energy

$$$$
