0:0
     RDKit          3D

 41 43  0  0  0  0  0  0  0  0999 V2000
   57.7390   25.6010   43.6050 C   0  0  0  0  0  0  0  0  0  0  0  0
   58.1660   27.0380   43.3270 C   0  0  0  0  0  0  0  0  0  0  0  0
   58.0280   27.8530   44.5380 N   0  0  0  0  0  0  0  0  0  0  0  0
   57.1980   28.9120   44.7620 C   0  0  0  0  0  0  0  0  0  0  0  0
   56.1770   29.4280   43.7790 C   0  0  0  0  0  0  0  0  0  0  0  0
   56.5060   30.8500   43.3080 C   0  0  0  0  0  0  0  0  0  0  0  0
   57.0230   31.6610   44.4100 N   0  0  0  0  0  0  0  0  0  0  0  0
   58.0150   32.6810   44.2170 C   0  0  0  0  0  0  0  0  0  0  0  0
   58.4720   32.9010   43.0620 O   0  0  0  0  0  0  0  0  0  0  0  0
   58.5460   33.4530   45.3620 C   0  0  0  0  0  0  0  0  0  0  0  0
   59.1510   34.7020   45.1320 C   0  0  0  0  0  0  0  0  0  0  0  0
   59.6710   35.4440   46.1960 C   0  0  0  0  0  0  0  0  0  0  0  0
   59.5840   34.9530   47.5000 C   0  0  0  0  0  0  0  0  0  0  0  0
   58.9700   33.7230   47.7440 C   0  0  0  0  0  0  0  0  0  0  0  0
   58.4480   32.9730   46.6830 C   0  0  0  0  0  0  0  0  0  0  0  0
   57.8060   31.8100   46.9610 F   0  0  0  0  0  0  0  0  0  0  0  0
   57.3490   29.4580   46.0000 N   0  0  0  0  0  0  0  0  0  0  0  0
   58.3340   28.7210   46.5420 C   0  0  0  0  0  0  0  0  0  0  0  0
   58.9060   28.8700   47.8030 C   0  0  0  0  0  0  0  0  0  0  0  0
   59.9470   27.9930   48.1580 C   0  0  0  0  0  0  0  0  0  0  0  0
   60.3870   27.0020   47.2520 C   0  0  0  0  0  0  0  0  0  0  0  0
   59.7880   26.8780   45.9850 C   0  0  0  0  0  0  0  0  0  0  0  0
   58.7520   27.7620   45.6680 C   0  0  0  0  0  0  0  0  0  0  0  0
   57.6902   25.4367   44.6916 H   0  0  0  0  0  0  0  0  0  0  0  0
   56.7484   25.4206   43.1620 H   0  0  0  0  0  0  0  0  0  0  0  0
   58.4703   24.9090   43.1620 H   0  0  0  0  0  0  0  0  0  0  0  0
   59.2165   27.0478   43.0007 H   0  0  0  0  0  0  0  0  0  0  0  0
   57.5228   27.4564   42.5388 H   0  0  0  0  0  0  0  0  0  0  0  0
   56.1548   28.7600   42.9054 H   0  0  0  0  0  0  0  0  0  0  0  0
   55.1997   29.4529   44.2833 H   0  0  0  0  0  0  0  0  0  0  0  0
   57.2640   30.7991   42.5125 H   0  0  0  0  0  0  0  0  0  0  0  0
   55.5836   31.3168   42.9322 H   0  0  0  0  0  0  0  0  0  0  0  0
   56.7040   31.4250   45.3760 H   0  0  0  0  0  0  0  0  0  0  0  0
   59.2152   35.0974   44.1075 H   0  0  0  0  0  0  0  0  0  0  0  0
   60.1494   36.4161   46.0058 H   0  0  0  0  0  0  0  0  0  0  0  0
   59.9994   35.5354   48.3356 H   0  0  0  0  0  0  0  0  0  0  0  0
   58.8961   33.3418   48.7732 H   0  0  0  0  0  0  0  0  0  0  0  0
   58.5556   29.6473   48.4980 H   0  0  0  0  0  0  0  0  0  0  0  0
   60.4213   28.0792   49.1467 H   0  0  0  0  0  0  0  0  0  0  0  0
   61.2033   26.3229   47.5392 H   0  0  0  0  0  0  0  0  0  0  0  0
   60.1228   26.1128   45.2692 H   0  0  0  0  0  0  0  0  0  0  0  0
  1  2  1  0
  2  3  1  0
  3  4  1  0
  4  5  1  0
  5  6  1  0
  6  7  1  0
  7  8  1  0
  8  9  2  0
  8 10  1  0
 10 11  2  0
 11 12  1  0
 12 13  2  0
 13 14  1  0
 14 15  2  0
 15 16  1  0
  4 17  2  0
 17 18  1  0
 18 19  2  0
 19 20  1  0
 20 21  2  0
 21 22  1  0
 22 23  2  0
 23  3  1  0
 15 10  1  0
 23 18  1  0
  1 24  1  0
  1 25  1  0
  1 26  1  0
  2 27  1  0
  2 28  1  0
  5 29  1  0
  5 30  1  0
  6 31  1  0
  6 32  1  0
  7 33  1  0
 11 34  1  0
 12 35  1  0
 13 36  1  0
 14 37  1  0
 19 38  1  0
 20 39  1  0
 21 40  1  0
 22 41  1  0
M  END
>  <UniqueID>  (1) 
1

>  <SMILES>  (1) 
CCn1c(CCNC(=O)c2ccccc2F)nc2ccccc21

>  <Energy>  (1) 
76.27849660027664

>  <Genealogy>  (1) 
CCn1c(CCNC(=O)c2ccccc2F)nc2ccccc21 (3D coordinates assigned)
CCn1c(CCNC(=O)c2ccccc2F)nc2ccccc21 (optimized conformer: 76.27849660027664 kcal/mol)

>  <smiles>  (1) 
CCn1c(CCNC(=O)c2ccccc2F)nc2ccccc21

>  <score_type>  (1) 
oracle

>  <origin>  (1) 
adg

>  <m_score__min__energy>  (1) 
-7.7400000000000002

>  <m_primary>  (1) 
energy

$$$$
1:0
     RDKit          3D

 53 55  0  0  0  0  0  0  0  0999 V2000
   59.7910   35.1320   46.5060 C   0  0  0  0  0  0  0  0  0  0  0  0
   59.5370   34.2040   45.3180 C   0  0  0  0  0  0  0  0  0  0  0  0
   58.4940   33.1980   45.6230 N   0  0  0  0  0  0  0  0  0  0  0  0
   57.3840   33.8110   46.3810 C   0  0  0  0  0  0  0  0  0  0  0  0
   57.9850   32.5790   44.3770 C   0  0  0  0  0  0  0  0  0  0  0  0
   57.9350   31.0530   44.5150 C   0  0  0  0  0  0  0  0  0  0  0  0
   57.6840   30.6990   45.8630 O   0  0  0  0  0  0  0  0  0  0  0  0
   58.4270   29.5540   46.2240 C   0  0  0  0  0  0  0  0  0  0  0  0
   59.4620   29.9330   47.2800 C   0  0  0  0  0  0  0  0  0  0  0  0
   59.3220   31.3340   47.6770 N   0  0  0  0  0  0  0  0  0  0  0  0
   60.1230   31.8750   48.7370 C   0  0  0  0  0  0  0  0  0  0  0  0
   59.5390   32.1860   49.9750 C   0  0  0  0  0  0  0  0  0  0  0  0
   58.1600   31.9760   50.1940 C   0  0  0  0  0  0  0  0  0  0  0  0
   57.5690   32.3420   51.4000 C   0  0  0  0  0  0  0  0  0  0  0  0
   58.3340   32.9330   52.3990 C   0  0  0  0  0  0  0  0  0  0  0  0
   59.7020   33.1330   52.2120 C   0  0  0  0  0  0  0  0  0  0  0  0
   60.3430   32.7290   51.0120 C   0  0  0  0  0  0  0  0  0  0  0  0
   61.7080   32.8690   50.8310 N   0  0  0  0  0  0  0  0  0  0  0  0
   62.5810   33.1710   51.9880 C   0  0  0  0  0  0  0  0  0  0  0  0
   62.2600   32.6930   49.5760 C   0  0  0  0  0  0  0  0  0  0  0  0
   63.5990   33.0550   49.2820 C   0  0  0  0  0  0  0  0  0  0  0  0
   64.1340   32.8190   48.0550 N   0  0  0  0  0  0  0  0  0  0  0  0
   63.4120   32.2430   47.0640 C   0  0  0  0  0  0  0  0  0  0  0  0
   62.0800   31.9040   47.2730 C   0  0  0  0  0  0  0  0  0  0  0  0
   61.4830   32.1510   48.5230 C   0  0  0  0  0  0  0  0  0  0  0  0
   59.6392   34.5772   47.4436 H   0  0  0  0  0  0  0  0  0  0  0  0
   60.8246   35.5061   46.4646 H   0  0  0  0  0  0  0  0  0  0  0  0
   59.0920   35.9804   46.4646 H   0  0  0  0  0  0  0  0  0  0  0  0
   59.2103   34.8070   44.4579 H   0  0  0  0  0  0  0  0  0  0  0  0
   60.4725   33.6710   45.0926 H   0  0  0  0  0  0  0  0  0  0  0  0
   57.5743   33.7059   47.4593 H   0  0  0  0  0  0  0  0  0  0  0  0
   57.3098   34.8780   46.1241 H   0  0  0  0  0  0  0  0  0  0  0  0
   56.4414   33.3056   46.1241 H   0  0  0  0  0  0  0  0  0  0  0  0
   56.9724   32.9570   44.1728 H   0  0  0  0  0  0  0  0  0  0  0  0
   58.6617   32.8386   43.5495 H   0  0  0  0  0  0  0  0  0  0  0  0
   57.1314   30.6553   43.8777 H   0  0  0  0  0  0  0  0  0  0  0  0
   58.9010   30.6293   44.2031 H   0  0  0  0  0  0  0  0  0  0  0  0
   57.7488   28.7902   46.6324 H   0  0  0  0  0  0  0  0  0  0  0  0
   58.9379   29.1528   45.3363 H   0  0  0  0  0  0  0  0  0  0  0  0
   59.3235   29.2936   48.1643 H   0  0  0  0  0  0  0  0  0  0  0  0
   60.4653   29.7901   46.8523 H   0  0  0  0  0  0  0  0  0  0  0  0
   58.6330   31.9630   47.2040 H   0  0  0  0  0  0  0  0  0  0  0  0
   57.5466   31.5186   49.4037 H   0  0  0  0  0  0  0  0  0  0  0  0
   56.4958   32.1634   51.5626 H   0  0  0  0  0  0  0  0  0  0  0  0
   57.8587   33.2443   53.3409 H   0  0  0  0  0  0  0  0  0  0  0  0
   60.2930   33.6113   53.0070 H   0  0  0  0  0  0  0  0  0  0  0  0
   62.0313   32.9808   52.9216 H   0  0  0  0  0  0  0  0  0  0  0  0
   63.4738   32.5295   51.9510 H   0  0  0  0  0  0  0  0  0  0  0  0
   62.8865   34.2271   51.9510 H   0  0  0  0  0  0  0  0  0  0  0  0
   64.2138   33.5339   50.0583 H   0  0  0  0  0  0  0  0  0  0  0  0
   65.1240   33.0930   47.8700 H   0  0  0  0  0  0  0  0  0  0  0  0
   63.8817   32.0426   46.0897 H   0  0  0  0  0  0  0  0  0  0  0  0
   61.4944   31.4439   46.4634 H   0  0  0  0  0  0  0  0  0  0  0  0
  1  2  1  0
  2  3  1  0
  3  4  1  0
  3  5  1  0
  5  6  1  0
  6  7  1  0
  7  8  1  0
  8  9  1  0
  9 10  1  0
 10 11  1  0
 11 12  2  0
 12 13  1  0
 13 14  2  0
 14 15  1  0
 15 16  2  0
 16 17  1  0
 17 18  2  0
 18 19  1  0
 18 20  1  0
 20 21  2  0
 21 22  1  0
 22 23  2  0
 23 24  1  0
 24 25  2  0
 25 11  1  0
 17 12  1  0
 25 20  1  0
  1 26  1  0
  1 27  1  0
  1 28  1  0
  2 29  1  0
  2 30  1  0
  4 31  1  0
  4 32  1  0
  4 33  1  0
  5 34  1  0
  5 35  1  0
  6 36  1  0
  6 37  1  0
  8 38  1  0
  8 39  1  0
  9 40  1  0
  9 41  1  0
 10 42  1  0
 13 43  1  0
 14 44  1  0
 15 45  1  0
 16 46  1  0
 19 47  1  0
 19 48  1  0
 19 49  1  0
 21 50  1  0
 22 51  1  0
 23 52  1  0
 24 53  1  0
M  CHG  2  18   1  22   1
M  END
>  <UniqueID>  (2) 
2

>  <SMILES>  (2) 
CCN(C)CCOCCNc1c2ccccc2[n+](C)c2c[nH+]ccc12

>  <Energy>  (2) 
79.7318704226595

>  <Genealogy>  (2) 
CCN(C)CCOCCNc1c2ccccc2[n+](C)c2c[nH+]ccc12 (protonated)
CCN(C)CCOCCNc1c2ccccc2[n+](C)c2c[nH+]ccc12 (3D coordinates assigned)
CCN(C)CCOCCNc1c2ccccc2[n+](C)c2c[nH+]ccc12 (optimized conformer: 79.7318704226595 kcal/mol)

>  <smiles>  (2) 
CCN(C)CCOCCNc1c2ccccc2[n+](C)c2cnccc12

>  <score_type>  (2) 
oracle

>  <origin>  (2) 
adg

>  <m_score__min__energy>  (2) 
-4.3499999999999996

>  <m_primary>  (2) 
energy

$$$$
2:0
     RDKit          3D

 68 71  0  0  0  0  0  0  0  0999 V2000
   63.4350   33.1060   47.1180 C   0  0  0  0  0  0  0  0  0  0  0  0
   63.5390   32.7330   48.5960 C   0  0  0  0  0  0  0  0  0  0  0  0
   62.2140   32.7610   49.2370 N   0  0  0  0  0  0  0  0  0  0  0  0
   61.6600   34.1260   49.3120 C   0  0  0  0  0  0  0  0  0  0  0  0
   60.1750   34.1780   48.9160 C   0  0  0  0  0  0  0  0  0  0  0  0
   59.5500   32.8630   49.0780 N   0  0  0  0  0  0  0  0  0  0  0  0
   59.3820   31.9780   47.9590 C   0  0  0  0  0  0  0  0  0  0  0  0
   58.7400   32.4500   46.7960 C   0  0  0  0  0  0  0  0  0  0  0  0
   58.2140   33.7590   46.7390 C   0  0  0  0  0  0  0  0  0  0  0  0
   57.5720   34.2220   45.5920 C   0  0  0  0  0  0  0  0  0  0  0  0
   57.4200   33.3840   44.4950 C   0  0  0  0  0  0  0  0  0  0  0  0
   57.9070   32.0780   44.5370 C   0  0  0  0  0  0  0  0  0  0  0  0
   58.5870   31.5860   45.6820 C   0  0  0  0  0  0  0  0  0  0  0  0
   59.0550   30.2900   45.7420 N   0  0  0  0  0  0  0  0  0  0  0  0
   59.1410   29.4760   44.5090 C   0  0  0  0  0  0  0  0  0  0  0  0
   59.4480   29.7540   46.9530 C   0  0  0  0  0  0  0  0  0  0  0  0
   59.5710   28.3550   47.1250 C   0  0  0  0  0  0  0  0  0  0  0  0
   59.9940   27.8150   48.3320 C   0  0  0  0  0  0  0  0  0  0  0  0
   60.3480   28.6450   49.3840 C   0  0  0  0  0  0  0  0  0  0  0  0
   60.2620   30.0420   49.2570 C   0  0  0  0  0  0  0  0  0  0  0  0
   60.7420   30.8860   50.2760 O   0  0  0  0  0  0  0  0  0  0  0  0
   61.1930   30.4880   51.5720 C   0  0  0  0  0  0  0  0  0  0  0  0
   60.1070   29.7920   52.4400 C   0  0  0  0  0  0  0  0  0  0  0  0
   58.9110   30.6160   52.8210 N   0  0  0  0  0  0  0  0  0  0  0  0
   58.1030   29.9020   53.8440 C   0  0  0  0  0  0  0  0  0  0  0  0
   58.0670   30.9040   51.6150 C   0  0  0  0  0  0  0  0  0  0  0  0
   57.4050   32.2920   51.6820 C   0  0  0  0  0  0  0  0  0  0  0  0
   58.3420   33.3590   51.7290 O   0  0  0  0  0  0  0  0  0  0  0  0
   59.5570   33.0150   52.3820 C   0  0  0  0  0  0  0  0  0  0  0  0
   59.3940   31.9010   53.4340 C   0  0  0  0  0  0  0  0  0  0  0  0
   59.7100   30.6030   48.0670 C   0  0  0  0  0  0  0  0  0  0  0  0
   63.1406   34.1619   47.0261 H   0  0  0  0  0  0  0  0  0  0  0  0
   64.4099   32.9535   46.6319 H   0  0  0  0  0  0  0  0  0  0  0  0
   62.6796   32.4711   46.6319 H   0  0  0  0  0  0  0  0  0  0  0  0
   63.9606   31.7208   48.6836 H   0  0  0  0  0  0  0  0  0  0  0  0
   64.1894   33.4637   49.0990 H   0  0  0  0  0  0  0  0  0  0  0  0
   62.3060   32.3990   50.2150 H   0  0  0  0  0  0  0  0  0  0  0  0
   61.5540   32.1350   48.7190 H   0  0  0  0  0  0  0  0  0  0  0  0
   61.7636   34.4932   50.3437 H   0  0  0  0  0  0  0  0  0  0  0  0
   62.2187   34.7544   48.6027 H   0  0  0  0  0  0  0  0  0  0  0  0
   59.6557   34.9061   49.5565 H   0  0  0  0  0  0  0  0  0  0  0  0
   60.1006   34.4775   47.8602 H   0  0  0  0  0  0  0  0  0  0  0  0
   59.2730   32.5190   50.0250 H   0  0  0  0  0  0  0  0  0  0  0  0
   58.3122   34.4220   47.6112 H   0  0  0  0  0  0  0  0  0  0  0  0
   57.1856   35.2513   45.5555 H   0  0  0  0  0  0  0  0  0  0  0  0
   56.9139   33.7516   43.5902 H   0  0  0  0  0  0  0  0  0  0  0  0
   57.7619   31.4183   43.6688 H   0  0  0  0  0  0  0  0  0  0  0  0
   59.2531   28.4151   44.7771 H   0  0  0  0  0  0  0  0  0  0  0  0
   58.2237   29.6096   43.9167 H   0  0  0  0  0  0  0  0  0  0  0  0
   60.0101   29.7983   43.9167 H   0  0  0  0  0  0  0  0  0  0  0  0
   59.3273   27.6839   46.2882 H   0  0  0  0  0  0  0  0  0  0  0  0
   60.0485   26.7231   48.4540 H   0  0  0  0  0  0  0  0  0  0  0  0
   60.7002   28.2054   50.3288 H   0  0  0  0  0  0  0  0  0  0  0  0
   62.0330   29.7892   51.4452 H   0  0  0  0  0  0  0  0  0  0  0  0
   61.4795   31.4079   52.1027 H   0  0  0  0  0  0  0  0  0  0  0  0
   59.7435   28.9180   51.8797 H   0  0  0  0  0  0  0  0  0  0  0  0
   60.6075   29.5562   53.3908 H   0  0  0  0  0  0  0  0  0  0  0  0
   58.4386   30.1985   54.8487 H   0  0  0  0  0  0  0  0  0  0  0  0
   57.0415   30.1626   53.7202 H   0  0  0  0  0  0  0  0  0  0  0  0
   58.2310   28.8165   53.7202 H   0  0  0  0  0  0  0  0  0  0  0  0
   58.7035   30.8588   50.7190 H   0  0  0  0  0  0  0  0  0  0  0  0
   57.2660   30.1510   51.5778 H   0  0  0  0  0  0  0  0  0  0  0  0
   56.7731   32.4210   50.7909 H   0  0  0  0  0  0  0  0  0  0  0  0
   56.8205   32.3300   52.6131 H   0  0  0  0  0  0  0  0  0  0  0  0
   60.2764   32.6745   51.6226 H   0  0  0  0  0  0  0  0  0  0  0  0
   59.9053   33.9134   52.9127 H   0  0  0  0  0  0  0  0  0  0  0  0
   60.3667   31.7216   53.9154 H   0  0  0  0  0  0  0  0  0  0  0  0
   58.6433   32.2319   54.1668 H   0  0  0  0  0  0  0  0  0  0  0  0
  1  2  1  0
  2  3  1  0
  3  4  1  0
  4  5  1  0
  5  6  1  0
  6  7  1  0
  7  8  2  0
  8  9  1  0
  9 10  2  0
 10 11  1  0
 11 12  2  0
 12 13  1  0
 13 14  2  0
 14 15  1  0
 14 16  1  0
 16 17  2  0
 17 18  1  0
 18 19  2  0
 19 20  1  0
 20 21  1  0
 21 22  1  0
 22 23  1  0
 23 24  1  0
 24 25  1  0
 24 26  1  0
 26 27  1  0
 27 28  1  0
 28 29  1  0
 29 30  1  0
 20 31  2  0
 31  7  1  0
 13  8  1  0
 31 16  1  0
 30 24  1  0
  1 32  1  0
  1 33  1  0
  1 34  1  0
  2 35  1  0
  2 36  1  0
  3 37  1  0
  3 38  1  0
  4 39  1  0
  4 40  1  0
  5 41  1  0
  5 42  1  0
  6 43  1  0
  9 44  1  0
 10 45  1  0
 11 46  1  0
 12 47  1  0
 15 48  1  0
 15 49  1  0
 15 50  1  0
 17 51  1  0
 18 52  1  0
 19 53  1  0
 22 54  1  0
 22 55  1  0
 23 56  1  0
 23 57  1  0
 25 58  1  0
 25 59  1  0
 25 60  1  0
 26 61  1  0
 26 62  1  0
 27 63  1  0
 27 64  1  0
 29 65  1  0
 29 66  1  0
 30 67  1  0
 30 68  1  0
M  CHG  3   3   1  14   1  24   1
M  END
>  <UniqueID>  (3) 
3

>  <SMILES>  (3) 
CC[NH2+]CCNc1c2ccccc2[n+](C)c2cccc(OCC[N+]3(C)CCOCC3)c12

>  <Energy>  (3) 
119.04777526576454

>  <Genealogy>  (3) 
CC[NH2+]CCNc1c2ccccc2[n+](C)c2cccc(OCC[N+]3(C)CCOCC3)c12 (protonated)
CC[NH2+]CCNc1c2ccccc2[n+](C)c2cccc(OCC[N+]3(C)CCOCC3)c12 (3D coordinates assigned)
CC[NH2+]CCNc1c2ccccc2[n+](C)c2cccc(OCC[N+]3(C)CCOCC3)c12 (nonaromatic ring conformer: 119.04777526576454 kcal/mol)

>  <smiles>  (3) 
CCNCCNc1c2ccccc2[n+](C)c2cccc(OCC[N+]3(C)CCOCC3)c12

>  <score_type>  (3) 
oracle

>  <origin>  (3) 
adg

>  <m_score__min__energy>  (3) 
-2.9500000000000002

>  <m_primary>  (3) 
energy

$$$$
3:0
     RDKit          3D

 42 44  0  0  0  0  0  0  0  0999 V2000
   59.2770   34.9980   47.0860 C   0  0  0  0  0  0  0  0  0  0  0  0
   60.3980   34.2430   46.3720 C   0  0  0  0  0  0  0  0  0  0  0  0
   60.2700   32.7790   46.5820 N   0  0  0  0  0  0  0  0  0  0  0  0
   61.2060   32.1070   47.3530 C   0  0  0  0  0  0  0  0  0  0  0  0
   62.3770   32.8020   48.0380 C   0  0  0  0  0  0  0  0  0  0  0  0
   62.1020   33.0800   49.4640 N   0  0  0  0  0  0  0  0  0  0  0  0
   60.9770   34.0100   49.6770 C   0  0  0  0  0  0  0  0  0  0  0  0
   59.7990   33.3370   50.3200 C   0  0  0  0  0  0  0  0  0  0  0  0
   59.3850   33.4980   51.6360 C   0  0  0  0  0  0  0  0  0  0  0  0
   58.2590   32.7320   51.9560 C   0  0  0  0  0  0  0  0  0  0  0  0
   57.7830   31.9680   50.8970 C   0  0  0  0  0  0  0  0  0  0  0  0
   58.7660   32.2470   49.5610 S   0  0  0  0  0  0  0  0  0  0  0  0
   61.0960   30.7250   47.5510 C   0  0  0  0  0  0  0  0  0  0  0  0
   60.0560   30.0100   46.9870 C   0  0  0  0  0  0  0  0  0  0  0  0
   59.9780   28.7680   47.1980 O   0  0  0  0  0  0  0  0  0  0  0  0
   59.1140   30.6680   46.1860 C   0  0  0  0  0  0  0  0  0  0  0  0
   58.0590   29.9470   45.5900 C   0  0  0  0  0  0  0  0  0  0  0  0
   57.1250   30.5850   44.7650 C   0  0  0  0  0  0  0  0  0  0  0  0
   56.0520   29.8360   44.1610 N   0  0  0  0  0  0  0  0  0  0  0  0
   55.1460   29.3410   44.8620 O   0  0  0  0  0  0  0  0  0  0  0  0
   56.0110   29.6500   42.7970 O   0  0  0  0  0  0  0  0  0  0  0  0
   57.2580   31.9570   44.5300 C   0  0  0  0  0  0  0  0  0  0  0  0
   58.2930   32.6860   45.1150 C   0  0  0  0  0  0  0  0  0  0  0  0
   59.2410   32.0680   45.9720 C   0  0  0  0  0  0  0  0  0  0  0  0
   59.4099   34.9085   48.1743 H   0  0  0  0  0  0  0  0  0  0  0  0
   59.3089   36.0594   46.7988 H   0  0  0  0  0  0  0  0  0  0  0  0
   58.3055   34.5695   46.7988 H   0  0  0  0  0  0  0  0  0  0  0  0
   60.3470   34.4578   45.2944 H   0  0  0  0  0  0  0  0  0  0  0  0
   61.3623   34.5737   46.7852 H   0  0  0  0  0  0  0  0  0  0  0  0
   63.2639   32.1552   47.9674 H   0  0  0  0  0  0  0  0  0  0  0  0
   62.5433   33.7641   47.5313 H   0  0  0  0  0  0  0  0  0  0  0  0
   61.8990   32.1770   49.9530 H   0  0  0  0  0  0  0  0  0  0  0  0
   62.9500   33.4910   49.9190 H   0  0  0  0  0  0  0  0  0  0  0  0
   61.3142   34.8310   50.3268 H   0  0  0  0  0  0  0  0  0  0  0  0
   60.6569   34.3838   48.6932 H   0  0  0  0  0  0  0  0  0  0  0  0
   59.8911   34.1605   52.3537 H   0  0  0  0  0  0  0  0  0  0  0  0
   57.7937   32.7341   52.9528 H   0  0  0  0  0  0  0  0  0  0  0  0
   56.9126   31.2961   50.9274 H   0  0  0  0  0  0  0  0  0  0  0  0
   61.8461   30.2022   48.1626 H   0  0  0  0  0  0  0  0  0  0  0  0
   57.9684   28.8666   45.7761 H   0  0  0  0  0  0  0  0  0  0  0  0
   56.5368   32.4680   43.8751 H   0  0  0  0  0  0  0  0  0  0  0  0
   58.3766   33.7631   44.9079 H   0  0  0  0  0  0  0  0  0  0  0  0
  1  2  1  0
  2  3  1  0
  3  4  1  0
  4  5  1  0
  5  6  1  0
  6  7  1  0
  7  8  1  0
  8  9  2  0
  9 10  1  0
 10 11  2  0
 11 12  1  0
  4 13  2  0
 13 14  1  0
 14 15  2  0
 14 16  1  0
 16 17  2  0
 17 18  1  0
 18 19  1  0
 19 20  2  0
 19 21  1  0
 18 22  2  0
 22 23  1  0
 23 24  2  0
 24  3  1  0
 12  8  1  0
 24 16  1  0
  1 25  1  0
  1 26  1  0
  1 27  1  0
  2 28  1  0
  2 29  1  0
  5 30  1  0
  5 31  1  0
  6 32  1  0
  6 33  1  0
  7 34  1  0
  7 35  1  0
  9 36  1  0
 10 37  1  0
 11 38  1  0
 13 39  1  0
 17 40  1  0
 22 41  1  0
 23 42  1  0
M  CHG  3   6   1  19   1  21  -1
M  END
>  <UniqueID>  (4) 
4

>  <SMILES>  (4) 
CCn1c(C[NH2+]Cc2cccs2)cc(=O)c2cc([N+](=O)[O-])ccc21

>  <Energy>  (4) 
84.00173867499021

>  <Genealogy>  (4) 
CCn1c(C[NH2+]Cc2cccs2)cc(=O)c2cc([N+](=O)[O-])ccc21 (protonated)
CCn1c(C[NH2+]Cc2cccs2)cc(=O)c2cc([N+](=O)[O-])ccc21 (3D coordinates assigned)
CCn1c(C[NH2+]Cc2cccs2)cc(=O)c2cc([N+](=O)[O-])ccc21 (optimized conformer: 84.00173867499021 kcal/mol)

>  <smiles>  (4) 
CCn1c(CNCc2cccs2)cc(=O)c2cc([N+](=O)[O-])ccc21

>  <score_type>  (4) 
oracle

>  <origin>  (4) 
adg

>  <m_score__min__energy>  (4) 
-5.8799999999999999

>  <m_primary>  (4) 
energy

$$$$
4:0
     RDKit          3D

 47 49  0  0  0  0  0  0  0  0999 V2000
   59.3580   29.5360   45.9720 C   0  0  0  0  0  0  0  0  0  0  0  0
   58.8350   30.6730   45.0830 C   0  0  0  0  0  0  0  0  0  0  0  0
   57.3970   30.9700   45.2840 N   0  0  0  0  0  0  0  0  0  0  0  0
   56.5140   29.9240   44.7150 C   0  0  0  0  0  0  0  0  0  0  0  0
   56.4340   30.0850   43.2020 C   0  0  0  0  0  0  0  0  0  0  0  0
   57.0380   32.3440   44.8630 C   0  0  0  0  0  0  0  0  0  0  0  0
   57.9260   33.3940   45.5480 C   0  0  0  0  0  0  0  0  0  0  0  0
   57.7310   33.4300   46.9460 O   0  0  0  0  0  0  0  0  0  0  0  0
   58.4870   32.4350   47.4860 N   0  0  0  0  0  0  0  0  0  0  0  0
   59.4850   32.7250   48.4740 C   0  0  0  0  0  0  0  0  0  0  0  0
   60.7880   33.1240   48.1190 C   0  0  0  0  0  0  0  0  0  0  0  0
   61.1530   33.2650   46.7640 C   0  0  0  0  0  0  0  0  0  0  0  0
   62.4510   33.6280   46.4140 C   0  0  0  0  0  0  0  0  0  0  0  0
   63.4060   33.8500   47.4010 C   0  0  0  0  0  0  0  0  0  0  0  0
   63.0660   33.7390   48.7500 C   0  0  0  0  0  0  0  0  0  0  0  0
   61.7470   33.4050   49.1460 C   0  0  0  0  0  0  0  0  0  0  0  0
   61.3820   33.3360   50.4840 N   0  0  0  0  0  0  0  0  0  0  0  0
   62.3170   33.7560   51.5470 C   0  0  0  0  0  0  0  0  0  0  0  0
   60.1320   32.8600   50.8080 C   0  0  0  0  0  0  0  0  0  0  0  0
   59.6490   32.5780   52.1050 C   0  0  0  0  0  0  0  0  0  0  0  0
   58.3450   32.0920   52.1140 C   0  0  0  0  0  0  0  0  0  0  0  0
   57.7900   31.9900   50.5280 S   0  0  0  0  0  0  0  0  0  0  0  0
   59.2000   32.5770   49.8250 C   0  0  0  0  0  0  0  0  0  0  0  0
   59.2319   29.8101   47.0298 H   0  0  0  0  0  0  0  0  0  0  0  0
   58.7925   28.6163   45.7616 H   0  0  0  0  0  0  0  0  0  0  0  0
   60.4244   29.3669   45.7616 H   0  0  0  0  0  0  0  0  0  0  0  0
   59.4124   31.5824   45.3060 H   0  0  0  0  0  0  0  0  0  0  0  0
   58.9542   30.3471   44.0392 H   0  0  0  0  0  0  0  0  0  0  0  0
   56.9216   28.9311   44.9558 H   0  0  0  0  0  0  0  0  0  0  0  0
   55.5067   30.0248   45.1453 H   0  0  0  0  0  0  0  0  0  0  0  0
   55.9565   31.0460   42.9603 H   0  0  0  0  0  0  0  0  0  0  0  0
   57.4482   30.0623   42.7767 H   0  0  0  0  0  0  0  0  0  0  0  0
   55.8396   29.2629   42.7767 H   0  0  0  0  0  0  0  0  0  0  0  0
   57.1618   32.4276   43.7732 H   0  0  0  0  0  0  0  0  0  0  0  0
   55.9942   32.5322   45.1546 H   0  0  0  0  0  0  0  0  0  0  0  0
   58.9798   33.1538   45.3438 H   0  0  0  0  0  0  0  0  0  0  0  0
   57.6537   34.3804   45.1444 H   0  0  0  0  0  0  0  0  0  0  0  0
   58.2750   31.4400   47.2470 H   0  0  0  0  0  0  0  0  0  0  0  0
   60.4057   33.0866   45.9767 H   0  0  0  0  0  0  0  0  0  0  0  0
   62.7221   33.7396   45.3538 H   0  0  0  0  0  0  0  0  0  0  0  0
   64.4351   34.1146   47.1165 H   0  0  0  0  0  0  0  0  0  0  0  0
   63.8340   33.9135   49.5180 H   0  0  0  0  0  0  0  0  0  0  0  0
   61.8682   33.5544   52.5308 H   0  0  0  0  0  0  0  0  0  0  0  0
   63.2577   33.1940   51.4510 H   0  0  0  0  0  0  0  0  0  0  0  0
   62.5216   34.8325   51.4510 H   0  0  0  0  0  0  0  0  0  0  0  0
   60.2446   32.7277   53.0176 H   0  0  0  0  0  0  0  0  0  0  0  0
   57.7705   31.8189   53.0114 H   0  0  0  0  0  0  0  0  0  0  0  0
  1  2  1  0
  2  3  1  0
  3  4  1  0
  4  5  1  0
  3  6  1  0
  6  7  1  0
  7  8  1  0
  8  9  1  0
  9 10  1  0
 10 11  2  0
 11 12  1  0
 12 13  2  0
 13 14  1  0
 14 15  2  0
 15 16  1  0
 16 17  2  0
 17 18  1  0
 17 19  1  0
 19 20  1  0
 20 21  2  0
 21 22  1  0
 22 23  1  0
 23 10  1  0
 16 11  1  0
 23 19  2  0
  1 24  1  0
  1 25  1  0
  1 26  1  0
  2 27  1  0
  2 28  1  0
  4 29  1  0
  4 30  1  0
  5 31  1  0
  5 32  1  0
  5 33  1  0
  6 34  1  0
  6 35  1  0
  7 36  1  0
  7 37  1  0
  9 38  1  0
 12 39  1  0
 13 40  1  0
 14 41  1  0
 15 42  1  0
 18 43  1  0
 18 44  1  0
 18 45  1  0
 20 46  1  0
 21 47  1  0
M  CHG  1  17   1
M  END
>  <UniqueID>  (5) 
5

>  <SMILES>  (5) 
CCN(CC)CCONc1c2ccccc2[n+](C)c2ccsc12

>  <Energy>  (5) 
95.11543778657014

>  <Genealogy>  (5) 
CCN(CC)CCONc1c2ccccc2[n+](C)c2ccsc12 (3D coordinates assigned)
CCN(CC)CCONc1c2ccccc2[n+](C)c2ccsc12 (optimized conformer: 95.11543778657014 kcal/mol)

>  <smiles>  (5) 
CCN(CC)CCONc1c2ccccc2[n+](C)c2ccsc12

>  <score_type>  (5) 
oracle

>  <origin>  (5) 
adg

>  <m_score__min__energy>  (5) 
-5.1399999999999997

>  <m_primary>  (5) 
energy

$$$$
5:0
     RDKit          3D

 73 76  0  0  0  0  0  0  0  0999 V2000
   58.7650   34.1820   44.8820 C   0  0  0  0  0  0  0  0  0  0  0  0
   58.1840   33.0040   44.1060 C   0  0  0  0  0  0  0  0  0  0  0  0
   57.1480   32.1970   44.9090 C   0  0  0  0  0  0  0  0  0  0  0  0
   56.9180   30.7970   44.3330 C   0  0  0  0  0  0  0  0  0  0  0  0
   58.1780   30.0500   44.2870 N   0  0  0  0  0  0  0  0  0  0  0  0
   58.9650   29.8050   45.4620 C   0  0  0  0  0  0  0  0  0  0  0  0
   59.9790   30.6850   45.7890 C   0  0  0  0  0  0  0  0  0  0  0  0
   60.6500   30.6290   47.0330 C   0  0  0  0  0  0  0  0  0  0  0  0
   60.4500   29.4960   47.8910 C   0  0  0  0  0  0  0  0  0  0  0  0
   61.0250   29.5590   49.2190 C   0  0  0  0  0  0  0  0  0  0  0  0
   60.6010   28.6760   50.2980 N   0  0  0  0  0  0  0  0  0  0  0  0
   59.6200   29.3200   51.2060 C   0  0  0  0  0  0  0  0  0  0  0  0
   58.5510   30.0970   50.4180 C   0  0  0  0  0  0  0  0  0  0  0  0
   58.0190   31.3160   51.1970 C   0  0  0  0  0  0  0  0  0  0  0  0
   58.4470   32.5770   50.5410 N   0  0  0  0  0  0  0  0  0  0  0  0
   59.0590   32.3930   49.2020 C   0  0  0  0  0  0  0  0  0  0  0  0
   58.1270   32.7430   48.0280 C   0  0  0  0  0  0  0  0  0  0  0  0
   59.2560   33.4530   51.4170 C   0  0  0  0  0  0  0  0  0  0  0  0
   60.5950   33.7840   50.7590 C   0  0  0  0  0  0  0  0  0  0  0  0
   61.9430   30.6150   49.5210 C   0  0  0  0  0  0  0  0  0  0  0  0
   62.5210   30.7830   50.8100 C   0  0  0  0  0  0  0  0  0  0  0  0
   63.5030   31.7460   51.0480 C   0  0  0  0  0  0  0  0  0  0  0  0
   63.9350   32.5610   50.0150 C   0  0  0  0  0  0  0  0  0  0  0  0
   63.3110   32.4890   48.7710 C   0  0  0  0  0  0  0  0  0  0  0  0
   62.2490   31.5780   48.5340 C   0  0  0  0  0  0  0  0  0  0  0  0
   61.4650   31.6780   47.4130 N   0  0  0  0  0  0  0  0  0  0  0  0
   61.4200   32.9680   46.6800 C   0  0  0  0  0  0  0  0  0  0  0  0
   59.6120   28.4250   47.3840 C   0  0  0  0  0  0  0  0  0  0  0  0
   59.6030   27.1090   47.9060 C   0  0  0  0  0  0  0  0  0  0  0  0
   58.6700   26.1570   47.4890 C   0  0  0  0  0  0  0  0  0  0  0  0
   57.7330   26.4760   46.5220 C   0  0  0  0  0  0  0  0  0  0  0  0
   57.7960   27.7120   45.8850 C   0  0  0  0  0  0  0  0  0  0  0  0
   58.7840   28.6510   46.2400 C   0  0  0  0  0  0  0  0  0  0  0  0
   58.6713   33.9920   45.9614 H   0  0  0  0  0  0  0  0  0  0  0  0
   59.8268   34.3044   44.6221 H   0  0  0  0  0  0  0  0  0  0  0  0
   58.2158   35.0990   44.6221 H   0  0  0  0  0  0  0  0  0  0  0  0
   57.6980   33.3899   43.1977 H   0  0  0  0  0  0  0  0  0  0  0  0
   59.0172   32.3244   43.8737 H   0  0  0  0  0  0  0  0  0  0  0  0
   57.5046   32.0977   45.9448 H   0  0  0  0  0  0  0  0  0  0  0  0
   56.1921   32.7390   44.8596 H   0  0  0  0  0  0  0  0  0  0  0  0
   56.1998   30.2574   44.9678 H   0  0  0  0  0  0  0  0  0  0  0  0
   56.5222   30.8923   43.3111 H   0  0  0  0  0  0  0  0  0  0  0  0
   58.5290   29.7080   43.3580 H   0  0  0  0  0  0  0  0  0  0  0  0
   60.2737   31.4532   45.0589 H   0  0  0  0  0  0  0  0  0  0  0  0
   60.1670   27.8260   49.8710 H   0  0  0  0  0  0  0  0  0  0  0  0
   61.4040   28.2680   50.8220 H   0  0  0  0  0  0  0  0  0  0  0  0
   59.1264   28.5432   51.8084 H   0  0  0  0  0  0  0  0  0  0  0  0
   60.1591   30.0300   51.8503 H   0  0  0  0  0  0  0  0  0  0  0  0
   58.9927   30.4466   49.4732 H   0  0  0  0  0  0  0  0  0  0  0  0
   57.7049   29.4171   50.2394 H   0  0  0  0  0  0  0  0  0  0  0  0
   56.9200   31.2769   51.2247 H   0  0  0  0  0  0  0  0  0  0  0  0
   58.4243   31.2905   52.2193 H   0  0  0  0  0  0  0  0  0  0  0  0
   59.9496   33.0355   49.1387 H   0  0  0  0  0  0  0  0  0  0  0  0
   59.2972   31.3232   49.1080 H   0  0  0  0  0  0  0  0  0  0  0  0
   57.1645   33.1045   48.4191 H   0  0  0  0  0  0  0  0  0  0  0  0
   58.5910   33.5281   47.4130 H   0  0  0  0  0  0  0  0  0  0  0  0
   57.9595   31.8465   47.4130 H   0  0  0  0  0  0  0  0  0  0  0  0
   58.7045   34.3863   51.6035 H   0  0  0  0  0  0  0  0  0  0  0  0
   59.4470   32.9277   52.3644 H   0  0  0  0  0  0  0  0  0  0  0  0
   61.3498   33.9706   51.5372 H   0  0  0  0  0  0  0  0  0  0  0  0
   60.9151   32.9379   50.1331 H   0  0  0  0  0  0  0  0  0  0  0  0
   60.4840   34.6817   50.1331 H   0  0  0  0  0  0  0  0  0  0  0  0
   62.1867   30.1398   51.6374 H   0  0  0  0  0  0  0  0  0  0  0  0
   63.9330   31.8574   52.0543 H   0  0  0  0  0  0  0  0  0  0  0  0
   64.7672   33.2622   50.1757 H   0  0  0  0  0  0  0  0  0  0  0  0
   63.6475   33.1499   47.9586 H   0  0  0  0  0  0  0  0  0  0  0  0
   61.3910   33.7985   47.4008 H   0  0  0  0  0  0  0  0  0  0  0  0
   62.3154   33.0621   46.0480 H   0  0  0  0  0  0  0  0  0  0  0  0
   60.5202   32.9994   46.0480 H   0  0  0  0  0  0  0  0  0  0  0  0
   60.3519   26.8284   48.6613 H   0  0  0  0  0  0  0  0  0  0  0  0
   58.6801   25.1497   47.9310 H   0  0  0  0  0  0  0  0  0  0  0  0
   56.9432   25.7572   46.2583 H   0  0  0  0  0  0  0  0  0  0  0  0
   57.0681   27.9575   45.0977 H   0  0  0  0  0  0  0  0  0  0  0  0
  1  2  1  0
  2  3  1  0
  3  4  1  0
  4  5  1  0
  5  6  1  0
  6  7  2  0
  7  8  1  0
  8  9  2  0
  9 10  1  0
 10 11  1  0
 11 12  1  0
 12 13  1  0
 13 14  1  0
 14 15  1  0
 15 16  1  0
 16 17  1  0
 15 18  1  0
 18 19  1  0
 10 20  2  0
 20 21  1  0
 21 22  2  0
 22 23  1  0
 23 24  2  0
 24 25  1  0
 25 26  2  0
 26 27  1  0
  9 28  1  0
 28 29  2  0
 29 30  1  0
 30 31  2  0
 31 32  1  0
 32 33  2  0
 33  6  1  0
 26  8  1  0
 33 28  1  0
 25 20  1  0
  1 34  1  0
  1 35  1  0
  1 36  1  0
  2 37  1  0
  2 38  1  0
  3 39  1  0
  3 40  1  0
  4 41  1  0
  4 42  1  0
  5 43  1  0
  7 44  1  0
 11 45  1  0
 11 46  1  0
 12 47  1  0
 12 48  1  0
 13 49  1  0
 13 50  1  0
 14 51  1  0
 14 52  1  0
 16 53  1  0
 16 54  1  0
 17 55  1  0
 17 56  1  0
 17 57  1  0
 18 58  1  0
 18 59  1  0
 19 60  1  0
 19 61  1  0
 19 62  1  0
 21 63  1  0
 22 64  1  0
 23 65  1  0
 24 66  1  0
 27 67  1  0
 27 68  1  0
 27 69  1  0
 29 70  1  0
 30 71  1  0
 31 72  1  0
 32 73  1  0
M  CHG  2  11   1  26   1
M  END
>  <UniqueID>  (6) 
6

>  <SMILES>  (6) 
CCCCNc1cc2c(c([NH2+]CCCN(CC)CC)c3ccccc3[n+]2C)c2ccccc12

>  <Energy>  (6) 
131.92144776675968

>  <Genealogy>  (6) 
CCCCNc1cc2c(c([NH2+]CCCN(CC)CC)c3ccccc3[n+]2C)c2ccccc12 (protonated)
CCCCNc1cc2c(c([NH2+]CCCN(CC)CC)c3ccccc3[n+]2C)c2ccccc12 (3D coordinates assigned)
CCCCNc1cc2c(c([NH2+]CCCN(CC)CC)c3ccccc3[n+]2C)c2ccccc12 (optimized conformer: 131.92144776675968 kcal/mol)

>  <smiles>  (6) 
CCCCNc1cc2c(c(NCCCN(CC)CC)c3ccccc3[n+]2C)c2ccccc12

>  <score_type>  (6) 
oracle

>  <origin>  (6) 
adg

>  <m_score__min__energy>  (6) 
-6.2999999999999998

>  <m_primary>  (6) 
energy

$$$$
6:0
     RDKit          3D

 47 50  0  0  0  0  0  0  0  0999 V2000
   63.3890   33.8450   46.3700 C   0  0  0  0  0  0  0  0  0  0  0  0
   63.6960   32.7960   47.1370 C   0  0  0  0  0  0  0  0  0  0  0  0
   63.0560   32.5890   48.4800 C   0  0  0  0  0  0  0  0  0  0  0  0
   62.1040   31.4840   48.4210 N   0  0  0  0  0  0  0  0  0  0  0  0
   61.6360   30.9020   47.3010 C   0  0  0  0  0  0  0  0  0  0  0  0
   60.7920   29.8760   47.6770 C   0  0  0  0  0  0  0  0  0  0  0  0
   60.0390   28.9540   46.8080 C   0  0  0  0  0  0  0  0  0  0  0  0
   60.0960   27.5630   46.8200 C   0  0  0  0  0  0  0  0  0  0  0  0
   59.2660   27.0780   45.8640 N   0  0  0  0  0  0  0  0  0  0  0  0
   58.7300   28.1700   45.2880 C   0  0  0  0  0  0  0  0  0  0  0  0
   57.8350   28.2060   44.2290 C   0  0  0  0  0  0  0  0  0  0  0  0
   57.4390   29.4690   43.7640 C   0  0  0  0  0  0  0  0  0  0  0  0
   57.9590   30.6470   44.3660 C   0  0  0  0  0  0  0  0  0  0  0  0
   57.6010   31.9700   43.8960 N   0  0  0  0  0  0  0  0  0  0  0  0
   57.8440   32.3670   42.5040 C   0  0  0  0  0  0  0  0  0  0  0  0
   57.0400   32.9560   44.8330 C   0  0  0  0  0  0  0  0  0  0  0  0
   58.1260   33.5010   45.7220 C   0  0  0  0  0  0  0  0  0  0  0  0
   58.2210   33.0770   47.0580 C   0  0  0  0  0  0  0  0  0  0  0  0
   59.2120   33.6000   47.8950 C   0  0  0  0  0  0  0  0  0  0  0  0
   60.1080   34.5560   47.4080 C   0  0  0  0  0  0  0  0  0  0  0  0
   60.0120   34.9920   46.0840 C   0  0  0  0  0  0  0  0  0  0  0  0
   59.0220   34.4720   45.2440 C   0  0  0  0  0  0  0  0  0  0  0  0
   58.8310   30.5140   45.4100 N   0  0  0  0  0  0  0  0  0  0  0  0
   59.1770   29.3030   45.8370 N   0  0  0  0  0  0  0  0  0  0  0  0
   60.7970   29.8940   49.0610 C   0  0  0  0  0  0  0  0  0  0  0  0
   61.6110   30.8780   49.4900 N   0  0  0  0  0  0  0  0  0  0  0  0
   63.8738   33.9709   45.3907 H   0  0  0  0  0  0  0  0  0  0  0  0
   62.6513   34.5833   46.7175 H   0  0  0  0  0  0  0  0  0  0  0  0
   64.4355   32.0658   46.7766 H   0  0  0  0  0  0  0  0  0  0  0  0
   63.8348   32.3581   49.2217 H   0  0  0  0  0  0  0  0  0  0  0  0
   62.5225   33.5068   48.7681 H   0  0  0  0  0  0  0  0  0  0  0  0
   61.8824   31.1924   46.2690 H   0  0  0  0  0  0  0  0  0  0  0  0
   60.7149   26.9552   47.4964 H   0  0  0  0  0  0  0  0  0  0  0  0
   59.0950   26.0770   45.6230 H   0  0  0  0  0  0  0  0  0  0  0  0
   57.4513   27.2818   43.7723 H   0  0  0  0  0  0  0  0  0  0  0  0
   56.7243   29.5479   42.9315 H   0  0  0  0  0  0  0  0  0  0  0  0
   58.4182   33.3051   42.4852 H   0  0  0  0  0  0  0  0  0  0  0  0
   58.4140   31.5779   41.9918 H   0  0  0  0  0  0  0  0  0  0  0  0
   56.8819   32.5156   41.9918 H   0  0  0  0  0  0  0  0  0  0  0  0
   56.5868   33.7814   44.2644 H   0  0  0  0  0  0  0  0  0  0  0  0
   56.2764   32.4670   45.4558 H   0  0  0  0  0  0  0  0  0  0  0  0
   57.5130   32.3306   47.4474 H   0  0  0  0  0  0  0  0  0  0  0  0
   59.2864   33.2585   48.9380 H   0  0  0  0  0  0  0  0  0  0  0  0
   60.8883   34.9649   48.0668 H   0  0  0  0  0  0  0  0  0  0  0  0
   60.7163   35.7455   45.7017 H   0  0  0  0  0  0  0  0  0  0  0  0
   58.9445   34.8246   44.2049 H   0  0  0  0  0  0  0  0  0  0  0  0
   60.2262   29.2122   49.7086 H   0  0  0  0  0  0  0  0  0  0  0  0
  1  2  2  0
  2  3  1  0
  3  4  1  0
  4  5  1  0
  5  6  2  0
  6  7  1  0
  7  8  2  0
  8  9  1  0
  9 10  2  0
 10 11  1  0
 11 12  2  0
 12 13  1  0
 13 14  1  0
 14 15  1  0
 14 16  1  0
 16 17  1  0
 17 18  2  0
 18 19  1  0
 19 20  2  0
 20 21  1  0
 21 22  2  0
 13 23  2  0
 23 24  1  0
  6 25  1  0
 25 26  2  0
 26  4  1  0
 24  7  1  0
 24 10  1  0
 22 17  1  0
  1 27  1  0
  1 28  1  0
  2 29  1  0
  3 30  1  0
  3 31  1  0
  5 32  1  0
  8 33  1  0
  9 34  1  0
 11 35  1  0
 12 36  1  0
 15 37  1  0
 15 38  1  0
 15 39  1  0
 16 40  1  0
 16 41  1  0
 18 42  1  0
 19 43  1  0
 20 44  1  0
 21 45  1  0
 22 46  1  0
 25 47  1  0
M  CHG  1   9   1
M  END
>  <UniqueID>  (7) 
7

>  <SMILES>  (7) 
C=CCn1cc(-c2c[nH+]c3ccc(N(C)Cc4ccccc4)nn23)cn1

>  <Energy>  (7) 
112.38527881130513

>  <Genealogy>  (7) 
C=CCn1cc(-c2c[nH+]c3ccc(N(C)Cc4ccccc4)nn23)cn1 (protonated)
C=CCn1cc(-c2c[nH+]c3ccc(N(C)Cc4ccccc4)nn23)cn1 (3D coordinates assigned)
C=CCn1cc(-c2c[nH+]c3ccc(N(C)Cc4ccccc4)nn23)cn1 (optimized conformer: 112.38527881130513 kcal/mol)

>  <smiles>  (7) 
C=CCn1cc(-c2cnc3ccc(N(C)Cc4ccccc4)nn23)cn1

>  <score_type>  (7) 
oracle

>  <origin>  (7) 
adg

>  <m_score__min__energy>  (7) 
-6.3399999999999999

>  <m_primary>  (7) 
energy

$$$$
7:0
     RDKit          3D

 51 53  0  0  0  0  0  0  0  0999 V2000
   62.8780   33.8520   46.4280 C   0  0  0  0  0  0  0  0  0  0  0  0
   63.7670   33.0840   47.0650 C   0  0  0  0  0  0  0  0  0  0  0  0
   63.5580   32.6660   48.4940 C   0  0  0  0  0  0  0  0  0  0  0  0
   62.1670   32.2520   48.7110 N   0  0  0  0  0  0  0  0  0  0  0  0
   62.0760   31.2080   49.7400 C   0  0  0  0  0  0  0  0  0  0  0  0
   60.6830   30.5630   49.7300 C   0  0  0  0  0  0  0  0  0  0  0  0
   60.4170   29.6950   48.4800 C   0  0  0  0  0  0  0  0  0  0  0  0
   60.8600   30.3250   47.2180 N   0  0  0  0  0  0  0  0  0  0  0  0
   59.7900   30.4220   46.2310 C   0  0  0  0  0  0  0  0  0  0  0  0
   59.2730   29.2640   45.5740 C   0  0  0  0  0  0  0  0  0  0  0  0
   59.7440   27.9530   45.8500 C   0  0  0  0  0  0  0  0  0  0  0  0
   59.1880   26.8370   45.2310 C   0  0  0  0  0  0  0  0  0  0  0  0
   58.1490   26.9870   44.3280 C   0  0  0  0  0  0  0  0  0  0  0  0
   57.6830   28.2560   44.0100 C   0  0  0  0  0  0  0  0  0  0  0  0
   58.2570   29.4190   44.5850 C   0  0  0  0  0  0  0  0  0  0  0  0
   57.8400   30.6770   44.2040 N   0  0  0  0  0  0  0  0  0  0  0  0
   57.0610   30.8500   42.9560 C   0  0  0  0  0  0  0  0  0  0  0  0
   58.1790   31.7780   44.9580 C   0  0  0  0  0  0  0  0  0  0  0  0
   57.5170   33.0180   44.7790 C   0  0  0  0  0  0  0  0  0  0  0  0
   57.9140   34.1570   45.4700 C   0  0  0  0  0  0  0  0  0  0  0  0
   58.9820   34.0990   46.3600 C   0  0  0  0  0  0  0  0  0  0  0  0
   59.4030   35.3280   47.1130 C   0  0  0  0  0  0  0  0  0  0  0  0
   59.6010   32.8710   46.6140 C   0  0  0  0  0  0  0  0  0  0  0  0
   59.2000   31.6870   45.9420 C   0  0  0  0  0  0  0  0  0  0  0  0
   63.0533   34.1446   45.3822 H   0  0  0  0  0  0  0  0  0  0  0  0
   61.9709   34.1915   46.9494 H   0  0  0  0  0  0  0  0  0  0  0  0
   64.6702   32.7508   46.5329 H   0  0  0  0  0  0  0  0  0  0  0  0
   64.2266   31.8239   48.7262 H   0  0  0  0  0  0  0  0  0  0  0  0
   63.7812   33.5200   49.1504 H   0  0  0  0  0  0  0  0  0  0  0  0
   61.6350   33.0860   49.0550 H   0  0  0  0  0  0  0  0  0  0  0  0
   62.8338   30.4360   49.5404 H   0  0  0  0  0  0  0  0  0  0  0  0
   62.2497   31.6641   50.7258 H   0  0  0  0  0  0  0  0  0  0  0  0
   60.5868   29.9274   50.6226 H   0  0  0  0  0  0  0  0  0  0  0  0
   59.9470   31.3805   49.7199 H   0  0  0  0  0  0  0  0  0  0  0  0
   60.9513   28.7408   48.5988 H   0  0  0  0  0  0  0  0  0  0  0  0
   59.3280   29.5579   48.4077 H   0  0  0  0  0  0  0  0  0  0  0  0
   61.3370   31.2270   47.4190 H   0  0  0  0  0  0  0  0  0  0  0  0
   61.6470   29.7690   46.8150 H   0  0  0  0  0  0  0  0  0  0  0  0
   60.5658   27.8165   46.5683 H   0  0  0  0  0  0  0  0  0  0  0  0
   59.5751   25.8331   45.4598 H   0  0  0  0  0  0  0  0  0  0  0  0
   57.6927   26.1009   43.8625 H   0  0  0  0  0  0  0  0  0  0  0  0
   56.8516   28.3616   43.2975 H   0  0  0  0  0  0  0  0  0  0  0  0
   56.0152   31.0822   43.2058 H   0  0  0  0  0  0  0  0  0  0  0  0
   57.4894   31.6749   42.3677 H   0  0  0  0  0  0  0  0  0  0  0  0
   57.0999   29.9213   42.3677 H   0  0  0  0  0  0  0  0  0  0  0  0
   56.6712   33.0806   44.0785 H   0  0  0  0  0  0  0  0  0  0  0  0
   57.3822   35.1070   45.3127 H   0  0  0  0  0  0  0  0  0  0  0  0
   59.3373   35.1361   48.1941 H   0  0  0  0  0  0  0  0  0  0  0  0
   60.4398   35.5831   46.8482 H   0  0  0  0  0  0  0  0  0  0  0  0
   58.7404   36.1652   46.8482 H   0  0  0  0  0  0  0  0  0  0  0  0
   60.4164   32.8217   47.3506 H   0  0  0  0  0  0  0  0  0  0  0  0
  1  2  2  0
  2  3  1  0
  3  4  1  0
  4  5  1  0
  5  6  1  0
  6  7  1  0
  7  8  1  0
  8  9  1  0
  9 10  2  0
 10 11  1  0
 11 12  2  0
 12 13  1  0
 13 14  2  0
 14 15  1  0
 15 16  2  0
 16 17  1  0
 16 18  1  0
 18 19  2  0
 19 20  1  0
 20 21  2  0
 21 22  1  0
 21 23  1  0
 23 24  2  0
 24  9  1  0
 15 10  1  0
 24 18  1  0
  1 25  1  0
  1 26  1  0
  2 27  1  0
  3 28  1  0
  3 29  1  0
  4 30  1  0
  5 31  1  0
  5 32  1  0
  6 33  1  0
  6 34  1  0
  7 35  1  0
  7 36  1  0
  8 37  1  0
  8 38  1  0
 11 39  1  0
 12 40  1  0
 13 41  1  0
 14 42  1  0
 17 43  1  0
 17 44  1  0
 17 45  1  0
 19 46  1  0
 20 47  1  0
 22 48  1  0
 22 49  1  0
 22 50  1  0
 23 51  1  0
M  CHG  2   8   1  16   1
M  END
>  <UniqueID>  (8) 
8

>  <SMILES>  (8) 
C=CCNCCC[NH2+]c1c2ccccc2[n+](C)c2ccc(C)cc12

>  <Energy>  (8) 
73.1317152640294

>  <Genealogy>  (8) 
C=CCNCCC[NH2+]c1c2ccccc2[n+](C)c2ccc(C)cc12 (protonated)
C=CCNCCC[NH2+]c1c2ccccc2[n+](C)c2ccc(C)cc12 (3D coordinates assigned)
C=CCNCCC[NH2+]c1c2ccccc2[n+](C)c2ccc(C)cc12 (optimized conformer: 73.1317152640294 kcal/mol)

>  <smiles>  (8) 
C=CCNCCCNc1c2ccccc2[n+](C)c2ccc(C)cc12

>  <score_type>  (8) 
oracle

>  <origin>  (8) 
adg

>  <m_score__min__energy>  (8) 
-4.0700000000000003

>  <m_primary>  (8) 
energy

$$$$
8:0
     RDKit          3D

 59 63  0  0  0  0  0  0  0  0999 V2000
   59.8560   33.5130   49.9440 C   0  0  0  0  0  0  0  0  0  0  0  0
   60.3850   32.0770   50.0110 C   0  0  0  0  0  0  0  0  0  0  0  0
   61.8530   32.0180   49.8720 N   0  0  0  0  0  0  0  0  0  0  0  0
   62.4880   33.3340   50.0410 C   0  0  0  0  0  0  0  0  0  0  0  0
   63.7200   33.4380   49.1290 C   0  0  0  0  0  0  0  0  0  0  0  0
   63.6470   32.5230   47.9780 N   0  0  0  0  0  0  0  0  0  0  0  0
   63.6470   33.2260   46.6850 C   0  0  0  0  0  0  0  0  0  0  0  0
   62.2670   33.8170   46.3760 C   0  0  0  0  0  0  0  0  0  0  0  0
   61.2180   33.0960   47.0950 N   0  0  0  0  0  0  0  0  0  0  0  0
   59.9580   32.7900   46.4810 C   0  0  0  0  0  0  0  0  0  0  0  0
   59.1780   33.8260   45.9270 C   0  0  0  0  0  0  0  0  0  0  0  0
   59.7340   35.6580   46.0080 Br  0  0  0  0  0  0  0  0  0  0  0  0
   57.9420   33.5380   45.3430 C   0  0  0  0  0  0  0  0  0  0  0  0
   57.4630   32.2300   45.3100 C   0  0  0  0  0  0  0  0  0  0  0  0
   58.2140   31.1880   45.8710 C   0  0  0  0  0  0  0  0  0  0  0  0
   57.7270   29.8790   45.8450 C   0  0  0  0  0  0  0  0  0  0  0  0
   58.4800   28.8360   46.4120 C   0  0  0  0  0  0  0  0  0  0  0  0
   59.7170   29.1100   46.9500 N   0  0  0  0  0  0  0  0  0  0  0  0
   60.2020   30.3890   46.9950 C   0  0  0  0  0  0  0  0  0  0  0  0
   59.4670   31.4610   46.4610 C   0  0  0  0  0  0  0  0  0  0  0  0
   60.5080   28.0350   47.5750 C   0  0  0  0  0  0  0  0  0  0  0  0
   60.4000   26.7370   46.7750 C   0  0  0  0  0  0  0  0  0  0  0  0
   58.9560   26.3840   46.5560 C   0  0  0  0  0  0  0  0  0  0  0  0
   58.5650   25.0310   46.4790 C   0  0  0  0  0  0  0  0  0  0  0  0
   57.2220   24.7520   46.2500 C   0  0  0  0  0  0  0  0  0  0  0  0
   56.3010   25.7340   46.1040 C   0  0  0  0  0  0  0  0  0  0  0  0
   56.6400   27.0830   46.1630 C   0  0  0  0  0  0  0  0  0  0  0  0
   58.0010   27.4220   46.3660 C   0  0  0  0  0  0  0  0  0  0  0  0
   55.0580   25.1700   45.9030 O   0  0  0  0  0  0  0  0  0  0  0  0
   55.2100   23.7450   45.9160 C   0  0  0  0  0  0  0  0  0  0  0  0
   56.6050   23.5210   46.1460 O   0  0  0  0  0  0  0  0  0  0  0  0
   59.7137   33.8993   50.9641 H   0  0  0  0  0  0  0  0  0  0  0  0
   60.5800   34.1459   49.4099 H   0  0  0  0  0  0  0  0  0  0  0  0
   58.8944   33.5250   49.4099 H   0  0  0  0  0  0  0  0  0  0  0  0
   60.1029   31.6402   50.9803 H   0  0  0  0  0  0  0  0  0  0  0  0
   59.9432   31.5144   49.1753 H   0  0  0  0  0  0  0  0  0  0  0  0
   62.1090   31.6260   48.9380 H   0  0  0  0  0  0  0  0  0  0  0  0
   61.7692   34.1232   49.7753 H   0  0  0  0  0  0  0  0  0  0  0  0
   62.8004   33.4548   51.0888 H   0  0  0  0  0  0  0  0  0  0  0  0
   63.7965   34.4698   48.7554 H   0  0  0  0  0  0  0  0  0  0  0  0
   64.6016   33.1575   49.7241 H   0  0  0  0  0  0  0  0  0  0  0  0
   64.4500   31.8540   48.0030 H   0  0  0  0  0  0  0  0  0  0  0  0
   64.3865   34.0397   46.7189 H   0  0  0  0  0  0  0  0  0  0  0  0
   63.9015   32.5036   45.8955 H   0  0  0  0  0  0  0  0  0  0  0  0
   62.2514   34.8739   46.6807 H   0  0  0  0  0  0  0  0  0  0  0  0
   62.0793   33.7257   45.2960 H   0  0  0  0  0  0  0  0  0  0  0  0
   61.4590   32.6330   48.0020 H   0  0  0  0  0  0  0  0  0  0  0  0
   57.3424   34.3500   44.9059 H   0  0  0  0  0  0  0  0  0  0  0  0
   56.4913   32.0142   44.8417 H   0  0  0  0  0  0  0  0  0  0  0  0
   56.7534   29.6641   45.3804 H   0  0  0  0  0  0  0  0  0  0  0  0
   61.1821   30.5807   47.4562 H   0  0  0  0  0  0  0  0  0  0  0  0
   61.5629   28.3437   47.6184 H   0  0  0  0  0  0  0  0  0  0  0  0
   60.1161   27.8556   48.5871 H   0  0  0  0  0  0  0  0  0  0  0  0
   60.8943   26.8677   45.8011 H   0  0  0  0  0  0  0  0  0  0  0  0
   60.8876   25.9264   47.3365 H   0  0  0  0  0  0  0  0  0  0  0  0
   59.3000   24.2211   46.5965 H   0  0  0  0  0  0  0  0  0  0  0  0
   55.8729   27.8639   46.0551 H   0  0  0  0  0  0  0  0  0  0  0  0
   54.6092   23.2999   46.7228 H   0  0  0  0  0  0  0  0  0  0  0  0
   54.8680   23.2854   44.9769 H   0  0  0  0  0  0  0  0  0  0  0  0
  1  2  1  0
  2  3  1  0
  3  4  1  0
  4  5  1  0
  5  6  1  0
  6  7  1  0
  7  8  1  0
  8  9  1  0
  9 10  1  0
 10 11  2  0
 11 12  1  0
 11 13  1  0
 13 14  2  0
 14 15  1  0
 15 16  2  0
 16 17  1  0
 17 18  2  0
 18 19  1  0
 19 20  2  0
 18 21  1  0
 21 22  1  0
 22 23  1  0
 23 24  2  0
 24 25  1  0
 25 26  2  0
 26 27  1  0
 27 28  2  0
 26 29  1  0
 29 30  1  0
 30 31  1  0
 20 10  1  0
 28 23  1  0
 20 15  1  0
 31 25  1  0
 28 17  1  0
  1 32  1  0
  1 33  1  0
  1 34  1  0
  2 35  1  0
  2 36  1  0
  3 37  1  0
  4 38  1  0
  4 39  1  0
  5 40  1  0
  5 41  1  0
  6 42  1  0
  7 43  1  0
  7 44  1  0
  8 45  1  0
  8 46  1  0
  9 47  1  0
 13 48  1  0
 14 49  1  0
 16 50  1  0
 19 51  1  0
 21 52  1  0
 21 53  1  0
 22 54  1  0
 22 55  1  0
 24 56  1  0
 27 57  1  0
 30 58  1  0
 30 59  1  0
M  CHG  1  18   1
M  END
>  <UniqueID>  (9) 
9

>  <SMILES>  (9) 
CCNCCNCCNc1c(Br)ccc2cc3[n+](cc12)CCc1cc2c(cc1-3)OCO2

>  <Energy>  (9) 
104.57889022851627

>  <Genealogy>  (9) 
CCNCCNCCNc1c(Br)ccc2cc3[n+](cc12)CCc1cc2c(cc1-3)OCO2 (3D coordinates assigned)
CCNCCNCCNc1c(Br)ccc2cc3[n+](cc12)CCc1cc2c(cc1-3)OCO2 (nonaromatic ring conformer: 104.57889022851627 kcal/mol)

>  <smiles>  (9) 
CCNCCNCCNc1c(Br)ccc2cc3[n+](cc12)CCc1cc2c(cc1-3)OCO2

>  <score_type>  (9) 
oracle

>  <origin>  (9) 
adg

>  <m_score__min__energy>  (9) 
-6.6500000000000004

>  <m_primary>  (9) 
energy

$$$$
9:0
     RDKit          3D

 57 59  0  0  0  0  0  0  0  0999 V2000
   60.7660   28.9600   45.1050 C   0  0  0  0  0  0  0  0  0  0  0  0
   60.5320   29.9990   46.1950 C   0  0  0  0  0  0  0  0  0  0  0  0
   59.1010   30.3080   46.2940 N   0  0  0  0  0  0  0  0  0  0  0  0
   58.2950   29.1290   45.9530 C   0  0  0  0  0  0  0  0  0  0  0  0
   57.0110   29.5540   45.2440 C   0  0  0  0  0  0  0  0  0  0  0  0
   57.0360   30.9490   45.0410 O   0  0  0  0  0  0  0  0  0  0  0  0
   57.4340   31.2420   43.7190 C   0  0  0  0  0  0  0  0  0  0  0  0
   57.7870   32.7200   43.6340 C   0  0  0  0  0  0  0  0  0  0  0  0
   58.7270   33.0180   44.6470 O   0  0  0  0  0  0  0  0  0  0  0  0
   58.4900   34.2920   45.2100 C   0  0  0  0  0  0  0  0  0  0  0  0
   58.3640   34.2110   46.7370 C   0  0  0  0  0  0  0  0  0  0  0  0
   58.7440   32.8850   47.2210 N   0  0  0  0  0  0  0  0  0  0  0  0
   59.7670   32.7130   48.2150 C   0  0  0  0  0  0  0  0  0  0  0  0
   61.1100   32.9740   47.8980 C   0  0  0  0  0  0  0  0  0  0  0  0
   61.4640   33.5010   46.6370 C   0  0  0  0  0  0  0  0  0  0  0  0
   62.7880   33.8200   46.3460 C   0  0  0  0  0  0  0  0  0  0  0  0
   63.7750   33.6340   47.3070 C   0  0  0  0  0  0  0  0  0  0  0  0
   63.4500   33.1090   48.5560 C   0  0  0  0  0  0  0  0  0  0  0  0
   62.1160   32.7450   48.8730 C   0  0  0  0  0  0  0  0  0  0  0  0
   61.7800   32.2110   50.1020 N   0  0  0  0  0  0  0  0  0  0  0  0
   62.8410   31.7040   51.0020 C   0  0  0  0  0  0  0  0  0  0  0  0
   60.4540   32.1420   50.4870 C   0  0  0  0  0  0  0  0  0  0  0  0
   60.0760   31.8600   51.8260 C   0  0  0  0  0  0  0  0  0  0  0  0
   58.7340   31.7550   52.1900 C   0  0  0  0  0  0  0  0  0  0  0  0
   57.7360   31.9380   51.2400 C   0  0  0  0  0  0  0  0  0  0  0  0
   58.0720   32.2430   49.9220 C   0  0  0  0  0  0  0  0  0  0  0  0
   59.4240   32.3680   49.5340 C   0  0  0  0  0  0  0  0  0  0  0  0
   60.9853   27.9864   45.5675 H   0  0  0  0  0  0  0  0  0  0  0  0
   59.8646   28.8745   44.4803 H   0  0  0  0  0  0  0  0  0  0  0  0
   61.6170   29.2692   44.4803 H   0  0  0  0  0  0  0  0  0  0  0  0
   60.8868   29.6031   47.1580 H   0  0  0  0  0  0  0  0  0  0  0  0
   61.0834   30.9170   45.9435 H   0  0  0  0  0  0  0  0  0  0  0  0
   58.8850   31.0610   45.5990 H   0  0  0  0  0  0  0  0  0  0  0  0
   58.8758   28.4716   45.2893 H   0  0  0  0  0  0  0  0  0  0  0  0
   58.0336   28.5937   46.8777 H   0  0  0  0  0  0  0  0  0  0  0  0
   56.9395   29.0418   44.2732 H   0  0  0  0  0  0  0  0  0  0  0  0
   56.1408   29.2848   45.8606 H   0  0  0  0  0  0  0  0  0  0  0  0
   58.3124   30.6354   43.4535 H   0  0  0  0  0  0  0  0  0  0  0  0
   56.6164   31.0103   43.0205 H   0  0  0  0  0  0  0  0  0  0  0  0
   58.2220   32.9410   42.6481 H   0  0  0  0  0  0  0  0  0  0  0  0
   56.8823   33.3309   43.7692 H   0  0  0  0  0  0  0  0  0  0  0  0
   59.3270   34.9583   44.9542 H   0  0  0  0  0  0  0  0  0  0  0  0
   57.5450   34.6813   44.8034 H   0  0  0  0  0  0  0  0  0  0  0  0
   59.0234   34.9639   47.1934 H   0  0  0  0  0  0  0  0  0  0  0  0
   57.3164   34.4000   47.0142 H   0  0  0  0  0  0  0  0  0  0  0  0
   58.3940   32.0460   46.7090 H   0  0  0  0  0  0  0  0  0  0  0  0
   60.6858   33.6613   45.8763 H   0  0  0  0  0  0  0  0  0  0  0  0
   63.0527   34.2191   45.3557 H   0  0  0  0  0  0  0  0  0  0  0  0
   64.8174   33.9025   47.0803 H   0  0  0  0  0  0  0  0  0  0  0  0
   64.2408   32.9745   49.3087 H   0  0  0  0  0  0  0  0  0  0  0  0
   62.5350   31.8502   52.0484 H   0  0  0  0  0  0  0  0  0  0  0  0
   63.0008   30.6322   50.8131 H   0  0  0  0  0  0  0  0  0  0  0  0
   63.7753   32.2530   50.8131 H   0  0  0  0  0  0  0  0  0  0  0  0
   60.8554   31.7219   52.5898 H   0  0  0  0  0  0  0  0  0  0  0  0
   58.4645   31.5267   53.2317 H   0  0  0  0  0  0  0  0  0  0  0  0
   56.6790   31.8419   51.5288 H   0  0  0  0  0  0  0  0  0  0  0  0
   57.2760   32.3878   49.1767 H   0  0  0  0  0  0  0  0  0  0  0  0
  1  2  1  0
  2  3  1  0
  3  4  1  0
  4  5  1  0
  5  6  1  0
  6  7  1  0
  7  8  1  0
  8  9  1  0
  9 10  1  0
 10 11  1  0
 11 12  1  0
 12 13  1  0
 13 14  2  0
 14 15  1  0
 15 16  2  0
 16 17  1  0
 17 18  2  0
 18 19  1  0
 19 20  2  0
 20 21  1  0
 20 22  1  0
 22 23  2  0
 23 24  1  0
 24 25  2  0
 25 26  1  0
 26 27  2  0
 27 13  1  0
 19 14  1  0
 27 22  1  0
  1 28  1  0
  1 29  1  0
  1 30  1  0
  2 31  1  0
  2 32  1  0
  3 33  1  0
  4 34  1  0
  4 35  1  0
  5 36  1  0
  5 37  1  0
  7 38  1  0
  7 39  1  0
  8 40  1  0
  8 41  1  0
 10 42  1  0
 10 43  1  0
 11 44  1  0
 11 45  1  0
 12 46  1  0
 15 47  1  0
 16 48  1  0
 17 49  1  0
 18 50  1  0
 21 51  1  0
 21 52  1  0
 21 53  1  0
 23 54  1  0
 24 55  1  0
 25 56  1  0
 26 57  1  0
M  CHG  1  20   1
M  END
>  <UniqueID>  (10) 
10

>  <SMILES>  (10) 
CCNCCOCCOCCNc1c2ccccc2[n+](C)c2ccccc12

>  <Energy>  (10) 
73.52277188605122

>  <Genealogy>  (10) 
CCNCCOCCOCCNc1c2ccccc2[n+](C)c2ccccc12 (3D coordinates assigned)
CCNCCOCCOCCNc1c2ccccc2[n+](C)c2ccccc12 (optimized conformer: 73.52277188605122 kcal/mol)

>  <smiles>  (10) 
CCNCCOCCOCCNc1c2ccccc2[n+](C)c2ccccc12

>  <score_type>  (10) 
oracle

>  <origin>  (10) 
adg

>  <m_score__min__energy>  (10) 
-5.1600000000000001

>  <m_primary>  (10) 
energy

$$$$
10:0
     RDKit          3D

 40 41  0  0  0  0  0  0  0  0999 V2000
   56.4704   29.0399   42.6684 H   0  0  0  0  0  0  0  0  0  0  0  0
   57.0040   29.5610   43.4770 C   0  0  0  0  0  0  0  0  0  0  0  0
   58.0580   28.9150   44.1510 C   0  0  0  0  0  0  0  0  0  0  0  0
   58.5170   27.2850   43.6910 Cl  0  0  0  0  0  0  0  0  0  0  0  0
   58.7480   29.5690   45.1870 C   0  0  0  0  0  0  0  0  0  0  0  0
   59.5714   29.0642   45.7135 H   0  0  0  0  0  0  0  0  0  0  0  0
   58.3720   30.8760   45.5410 C   0  0  0  0  0  0  0  0  0  0  0  0
   57.3290   31.4920   44.8590 C   0  0  0  0  0  0  0  0  0  0  0  0
   57.0950   33.0400   45.4590 S   0  0  0  0  0  0  0  0  0  0  0  0
   58.3490   32.8730   46.5890 C   0  0  0  0  0  0  0  0  0  0  0  0
   58.7290   33.7960   47.4260 N   0  0  0  0  0  0  0  0  0  0  0  0
   59.4740   35.0030   47.0760 C   0  0  0  0  0  0  0  0  0  0  0  0
   60.4671   34.9636   47.5475 H   0  0  0  0  0  0  0  0  0  0  0  0
   58.9149   35.8796   47.4351 H   0  0  0  0  0  0  0  0  0  0  0  0
   59.6420   35.1150   45.5640 C   0  0  0  0  0  0  0  0  0  0  0  0
   60.5377   35.7122   45.3378 H   0  0  0  0  0  0  0  0  0  0  0  0
   59.7529   34.1095   45.1319 H   0  0  0  0  0  0  0  0  0  0  0  0
   58.7565   35.6041   45.1319 H   0  0  0  0  0  0  0  0  0  0  0  0
   58.9470   31.6500   46.5170 N   0  0  0  0  0  0  0  0  0  0  0  0
   60.0890   31.2620   47.3620 C   0  0  0  0  0  0  0  0  0  0  0  0
   59.8060   31.3732   48.4192 H   0  0  0  0  0  0  0  0  0  0  0  0
   60.3484   30.2174   47.1351 H   0  0  0  0  0  0  0  0  0  0  0  0
   61.3190   32.1380   47.0790 C   0  0  0  0  0  0  0  0  0  0  0  0
   61.4606   32.2070   45.9903 H   0  0  0  0  0  0  0  0  0  0  0  0
   61.1364   33.1267   47.5252 H   0  0  0  0  0  0  0  0  0  0  0  0
   62.6040   31.5680   47.7100 C   0  0  0  0  0  0  0  0  0  0  0  0
   62.4180   31.3760   48.7770 H   0  0  0  0  0  0  0  0  0  0  0  0
   62.8594   30.6434   47.1716 H   0  0  0  0  0  0  0  0  0  0  0  0
   63.7550   32.4940   47.5870 N   0  0  0  0  0  0  0  0  0  0  0  0
   64.5570   31.9960   47.1330 H   0  0  0  0  0  0  0  0  0  0  0  0
   63.3900   33.6330   46.7270 C   0  0  0  0  0  0  0  0  0  0  0  0
   63.1144   34.4931   47.3550 H   0  0  0  0  0  0  0  0  0  0  0  0
   64.2468   33.9023   46.0919 H   0  0  0  0  0  0  0  0  0  0  0  0
   62.5362   33.3541   46.0919 H   0  0  0  0  0  0  0  0  0  0  0  0
   64.1950   32.9940   48.9040 C   0  0  0  0  0  0  0  0  0  0  0  0
   63.6929   32.4235   49.6992 H   0  0  0  0  0  0  0  0  0  0  0  0
   65.2843   32.8723   48.9972 H   0  0  0  0  0  0  0  0  0  0  0  0
   63.9358   34.0589   48.9972 H   0  0  0  0  0  0  0  0  0  0  0  0
   56.6320   30.8630   43.8310 C   0  0  0  0  0  0  0  0  0  0  0  0
   55.8100   31.3761   43.3104 H   0  0  0  0  0  0  0  0  0  0  0  0
  1  2  1  0
  2  3  2  0
  3  4  1  0
  3  5  1  0
  5  6  1  0
  5  7  2  0
  7  8  1  0
  8  9  1  0
  9 10  1  0
 10 11  2  0
 11 12  1  0
 12 13  1  0
 12 14  1  0
 12 15  1  0
 15 16  1  0
 15 17  1  0
 15 18  1  0
 10 19  1  0
 19 20  1  0
 20 21  1  0
 20 22  1  0
 20 23  1  0
 23 24  1  0
 23 25  1  0
 23 26  1  0
 26 27  1  0
 26 28  1  0
 26 29  1  0
 29 30  1  0
 29 31  1  0
 31 32  1  0
 31 33  1  0
 31 34  1  0
 29 35  1  0
 35 36  1  0
 35 37  1  0
 35 38  1  0
  8 39  2  0
 39 40  1  0
 39  2  1  0
 19  7  1  0
M  CHG  1  29   1
M  END
>  <UniqueID>  (11) 
11

>  <SMILES>  (11) 
CC/N=c1\sc2ccc(Cl)cc2n1CCC[NH+](C)C

>  <Energy>  (11) 
70.49520753064742

>  <Genealogy>  (11) 
CCN=c1sc2ccc(Cl)cc2n1CCC[NH+](C)C (protonated)
CC/N=c1\sc2ccc(Cl)cc2n1CCC[NH+](C)C (cis-trans isomerization)
CC/N=c1\sc2ccc(Cl)cc2n1CCC[NH+](C)C (3D coordinates assigned)
CC/N=c1\sc2ccc(Cl)cc2n1CCC[NH+](C)C (optimized conformer: 70.49520753064742 kcal/mol)

>  <smiles>  (11) 
CCN=c1sc2ccc(Cl)cc2n1CCCN(C)C

>  <score_type>  (11) 
oracle

>  <origin>  (11) 
adg

>  <m_score__min__energy>  (11) 
-5.4800000000000004

>  <m_primary>  (11) 
energy

$$$$
11:0
     RDKit          3D

 34 35  0  0  0  0  0  0  0  0999 V2000
   53.9020   23.7090   44.4210 C   0  0  0  0  0  0  0  0  0  0  0  0
   55.2180   23.5550   44.6230 C   0  0  0  0  0  0  0  0  0  0  0  0
   56.1580   23.6000   43.4490 C   0  0  0  0  0  0  0  0  0  0  0  0
   55.7430   23.3390   46.0190 C   0  0  0  0  0  0  0  0  0  0  0  0
   55.5630   24.5530   46.8030 N   0  0  0  0  0  0  0  0  0  0  0  0
   55.9930   25.8380   46.3500 C   0  0  0  0  0  0  0  0  0  0  0  0
   55.1460   26.7090   46.0090 O   0  0  0  0  0  0  0  0  0  0  0  0
   57.4570   26.1580   46.2910 C   0  0  0  0  0  0  0  0  0  0  0  0
   57.7090   27.6730   46.1760 C   0  0  2  0  0  0  0  0  0  0  0  0
   57.8690   28.1140   44.4140 S   0  0  0  0  0  0  0  0  0  0  0  0
   57.9780   29.8800   44.7360 C   0  0  0  0  0  0  0  0  0  0  0  0
   57.2460   30.7730   43.9480 C   0  0  0  0  0  0  0  0  0  0  0  0
   57.3930   32.1520   44.1290 C   0  0  0  0  0  0  0  0  0  0  0  0
   58.2700   32.6410   45.1030 C   0  0  0  0  0  0  0  0  0  0  0  0
   58.4570   34.3700   45.3240 Cl  0  0  0  0  0  0  0  0  0  0  0  0
   58.9850   31.7500   45.9120 C   0  0  0  0  0  0  0  0  0  0  0  0
   58.8290   30.3650   45.7470 C   0  0  0  0  0  0  0  0  0  0  0  0
   59.4680   29.4590   46.6580 N   0  0  0  0  0  0  0  0  0  0  0  0
   58.9660   28.1340   46.8840 C   0  0  0  0  0  0  0  0  0  0  0  0
   59.5600   27.3840   47.7040 O   0  0  0  0  0  0  0  0  0  0  0  0
   53.2073   23.6775   45.2733 H   0  0  0  0  0  0  0  0  0  0  0  0
   53.5166   23.8669   43.4029 H   0  0  0  0  0  0  0  0  0  0  0  0
   57.1953   23.6497   43.8116 H   0  0  0  0  0  0  0  0  0  0  0  0
   56.0259   22.6945   42.8386 H   0  0  0  0  0  0  0  0  0  0  0  0
   55.9400   24.4887   42.8386 H   0  0  0  0  0  0  0  0  0  0  0  0
   55.1932   22.5125   46.4929 H   0  0  0  0  0  0  0  0  0  0  0  0
   56.8135   23.0905   45.9718 H   0  0  0  0  0  0  0  0  0  0  0  0
   57.9397   25.7856   47.2066 H   0  0  0  0  0  0  0  0  0  0  0  0
   57.8763   25.6736   45.3968 H   0  0  0  0  0  0  0  0  0  0  0  0
   56.8534   28.1693   46.6573 H   0  0  0  0  0  0  0  0  0  0  0  0
   56.5531   30.3904   43.1842 H   0  0  0  0  0  0  0  0  0  0  0  0
   56.8186   32.8526   43.5051 H   0  0  0  0  0  0  0  0  0  0  0  0
   59.6714   32.1367   46.6796 H   0  0  0  0  0  0  0  0  0  0  0  0
   60.2590   29.8010   47.2510 H   0  0  0  0  0  0  0  0  0  0  0  0
  1  2  2  0
  2  3  1  0
  2  4  1  0
  4  5  1  0
  5  6  1  0
  6  7  2  0
  6  8  1  0
  8  9  1  0
  9 10  1  0
 10 11  1  0
 11 12  2  0
 12 13  1  0
 13 14  2  0
 14 15  1  0
 14 16  1  0
 16 17  2  0
 17 18  1  0
 18 19  1  0
 19 20  2  0
 19  9  1  0
 17 11  1  0
  1 21  1  0
  1 22  1  0
  3 23  1  0
  3 24  1  0
  3 25  1  0
  4 26  1  0
  4 27  1  0
  8 28  1  0
  8 29  1  0
  9 30  1  1
 12 31  1  0
 13 32  1  0
 16 33  1  0
 18 34  1  0
M  CHG  1   5  -1
M  END
>  <UniqueID>  (12) 
12

>  <SMILES>  (12) 
C=C(C)C[N-]C(=O)C[C@@H]1Sc2ccc(Cl)cc2NC1=O

>  <Energy>  (12) 
29.951511631587636

>  <Genealogy>  (12) 
C=C(C)C[N-]C(=O)CC1Sc2ccc(Cl)cc2NC1=O (protonated)
C=C(C)C[N-]C(=O)C[C@@H]1Sc2ccc(Cl)cc2NC1=O (chirality)
C=C(C)C[N-]C(=O)C[C@@H]1Sc2ccc(Cl)cc2NC1=O (3D coordinates assigned)
C=C(C)C[N-]C(=O)C[C@@H]1Sc2ccc(Cl)cc2NC1=O (nonaromatic ring conformer: 29.951511631587636 kcal/mol)

>  <smiles>  (12) 
C=C(C)CNC(=O)CC1Sc2ccc(Cl)cc2NC1=O

>  <score_type>  (12) 
oracle

>  <origin>  (12) 
adg

>  <m_score__min__energy>  (12) 
-9.0099999999999998

>  <m_primary>  (12) 
energy

$$$$
12:0
     RDKit          3D

 43 45  0  0  0  0  0  0  0  0999 V2000
   58.8800   26.9130   45.4200 C   0  0  0  0  0  0  0  0  0  0  0  0
   57.4930   27.1300   46.0300 C   0  0  0  0  0  0  0  0  0  0  0  0
   56.6670   28.0520   45.2290 N   0  0  0  0  0  0  0  0  0  0  0  0
   57.4050   28.6340   44.0970 C   0  0  0  0  0  0  0  0  0  0  0  0
   57.8230   30.0700   44.4230 C   0  0  0  0  0  0  0  0  0  0  0  0
   57.5590   30.3870   45.8290 N   0  0  0  0  0  0  0  0  0  0  0  0
   58.4750   31.1660   46.6180 C   0  0  0  0  0  0  0  0  0  0  0  0
   58.7030   32.5150   46.2990 C   0  0  0  0  0  0  0  0  0  0  0  0
   58.0020   33.1340   45.2430 C   0  0  0  0  0  0  0  0  0  0  0  0
   58.2840   34.4460   44.8720 C   0  0  0  0  0  0  0  0  0  0  0  0
   59.2750   35.1580   45.5370 C   0  0  0  0  0  0  0  0  0  0  0  0
   59.9660   34.5760   46.5990 C   0  0  0  0  0  0  0  0  0  0  0  0
   59.6690   33.2570   47.0320 C   0  0  0  0  0  0  0  0  0  0  0  0
   60.3050   32.6870   48.1200 N   0  0  0  0  0  0  0  0  0  0  0  0
   61.0970   33.5340   49.0400 C   0  0  0  0  0  0  0  0  0  0  0  0
   60.1660   31.3340   48.3730 C   0  0  0  0  0  0  0  0  0  0  0  0
   60.9740   30.6670   49.3300 C   0  0  0  0  0  0  0  0  0  0  0  0
   60.7620   29.3230   49.6410 C   0  0  0  0  0  0  0  0  0  0  0  0
   61.5410   28.7110   50.5670 F   0  0  0  0  0  0  0  0  0  0  0  0
   59.7490   28.6110   49.0080 C   0  0  0  0  0  0  0  0  0  0  0  0
   58.9740   29.2240   48.0280 C   0  0  0  0  0  0  0  0  0  0  0  0
   59.2010   30.5690   47.6640 C   0  0  0  0  0  0  0  0  0  0  0  0
   59.6206   26.7971   46.2251 H   0  0  0  0  0  0  0  0  0  0  0  0
   58.8693   26.0056   44.7983 H   0  0  0  0  0  0  0  0  0  0  0  0
   59.1469   27.7803   44.7983 H   0  0  0  0  0  0  0  0  0  0  0  0
   56.9790   26.1596   46.0940 H   0  0  0  0  0  0  0  0  0  0  0  0
   57.6296   27.5789   47.0249 H   0  0  0  0  0  0  0  0  0  0  0  0
   55.8250   27.5460   44.8670 H   0  0  0  0  0  0  0  0  0  0  0  0
   58.3027   28.0300   43.8990 H   0  0  0  0  0  0  0  0  0  0  0  0
   56.7551   28.6413   43.2096 H   0  0  0  0  0  0  0  0  0  0  0  0
   58.8986   30.1856   44.2240 H   0  0  0  0  0  0  0  0  0  0  0  0
   57.2387   30.7568   43.7930 H   0  0  0  0  0  0  0  0  0  0  0  0
   56.6430   30.1090   46.2480 H   0  0  0  0  0  0  0  0  0  0  0  0
   57.2229   32.5732   44.7059 H   0  0  0  0  0  0  0  0  0  0  0  0
   57.7225   34.9188   44.0527 H   0  0  0  0  0  0  0  0  0  0  0  0
   59.5152   36.1849   45.2243 H   0  0  0  0  0  0  0  0  0  0  0  0
   60.7544   35.1483   47.1098 H   0  0  0  0  0  0  0  0  0  0  0  0
   60.8529   33.2730   50.0803 H   0  0  0  0  0  0  0  0  0  0  0  0
   62.1693   33.3658   48.8617 H   0  0  0  0  0  0  0  0  0  0  0  0
   60.8573   34.5926   48.8617 H   0  0  0  0  0  0  0  0  0  0  0  0
   61.7808   31.2183   49.8351 H   0  0  0  0  0  0  0  0  0  0  0  0
   59.5601   27.5626   49.2821 H   0  0  0  0  0  0  0  0  0  0  0  0
   58.1752   28.6538   47.5312 H   0  0  0  0  0  0  0  0  0  0  0  0
  1  2  1  0
  2  3  1  0
  3  4  1  0
  4  5  1  0
  5  6  1  0
  6  7  1  0
  7  8  2  0
  8  9  1  0
  9 10  2  0
 10 11  1  0
 11 12  2  0
 12 13  1  0
 13 14  2  0
 14 15  1  0
 14 16  1  0
 16 17  2  0
 17 18  1  0
 18 19  1  0
 18 20  2  0
 20 21  1  0
 21 22  2  0
 22  7  1  0
 13  8  1  0
 22 16  1  0
  1 23  1  0
  1 24  1  0
  1 25  1  0
  2 26  1  0
  2 27  1  0
  3 28  1  0
  4 29  1  0
  4 30  1  0
  5 31  1  0
  5 32  1  0
  6 33  1  0
  9 34  1  0
 10 35  1  0
 11 36  1  0
 12 37  1  0
 15 38  1  0
 15 39  1  0
 15 40  1  0
 17 41  1  0
 20 42  1  0
 21 43  1  0
M  CHG  1  14   1
M  END
>  <UniqueID>  (13) 
13

>  <SMILES>  (13) 
CCNCCNc1c2ccccc2[n+](C)c2cc(F)ccc12

>  <Energy>  (13) 
68.07771642008308

>  <Genealogy>  (13) 
CCNCCNc1c2ccccc2[n+](C)c2cc(F)ccc12 (3D coordinates assigned)
CCNCCNc1c2ccccc2[n+](C)c2cc(F)ccc12 (optimized conformer: 68.07771642008308 kcal/mol)

>  <smiles>  (13) 
CCNCCNc1c2ccccc2[n+](C)c2cc(F)ccc12

>  <score_type>  (13) 
oracle

>  <origin>  (13) 
adg

>  <m_score__min__energy>  (13) 
-5.5899999999999999

>  <m_primary>  (13) 
energy

$$$$
13:0
     RDKit          3D

 65 67  0  0  0  0  0  0  0  0999 V2000
   63.5400   33.2290   46.8180 C   0  0  0  0  0  0  0  0  0  0  0  0
   63.2170   31.9650   47.6130 C   0  0  0  0  0  0  0  0  0  0  0  0
   61.9140   31.3100   47.1420 C   0  0  0  0  0  0  0  0  0  0  0  0
   61.0690   31.0160   48.2400 O   0  0  0  0  0  0  0  0  0  0  0  0
   60.5190   29.7170   48.1320 C   0  0  0  0  0  0  0  0  0  0  0  0
   59.8990   29.5210   46.7800 C   0  0  0  0  0  0  0  0  0  0  0  0
   60.2560   28.4890   45.9160 C   0  0  0  0  0  0  0  0  0  0  0  0
   59.3140   28.6160   44.5280 S   0  0  0  0  0  0  0  0  0  0  0  0
   58.4630   29.9850   45.0070 C   0  0  0  0  0  0  0  0  0  0  0  0
   57.3610   30.6330   44.2270 C   0  0  0  0  0  0  0  0  0  0  0  0
   57.8460   31.8500   43.5620 N   0  0  0  0  0  0  0  0  0  0  0  0
   57.4090   33.0840   44.2380 C   0  0  0  0  0  0  0  0  0  0  0  0
   58.2730   33.4190   45.4300 C   0  0  0  0  0  0  0  0  0  0  0  0
   57.7980   33.1940   46.7310 C   0  0  0  0  0  0  0  0  0  0  0  0
   58.5880   33.5140   47.8360 C   0  0  0  0  0  0  0  0  0  0  0  0
   59.8620   34.0760   47.6600 C   0  0  0  0  0  0  0  0  0  0  0  0
   60.7060   34.4370   48.8640 C   0  0  0  0  0  0  0  0  0  0  0  0
   60.6580   33.3960   49.9240 N   0  0  1  0  0  0  0  0  0  0  0  0
   62.0130   33.2230   50.5300 C   0  0  0  0  0  0  0  0  0  0  0  0
   62.9890   34.3220   50.0930 C   0  0  0  0  0  0  0  0  0  0  0  0
   59.6450   33.7560   50.9520 C   0  0  0  0  0  0  0  0  0  0  0  0
   58.7380   32.5970   51.2890 C   0  0  0  0  0  0  0  0  0  0  0  0
   57.6280   32.7760   52.1330 C   0  0  0  0  0  0  0  0  0  0  0  0
   56.8190   31.6880   52.4710 C   0  0  0  0  0  0  0  0  0  0  0  0
   57.1090   30.4150   51.9720 C   0  0  0  0  0  0  0  0  0  0  0  0
   56.3250   29.3600   52.3060 F   0  0  0  0  0  0  0  0  0  0  0  0
   58.2080   30.2290   51.1290 C   0  0  0  0  0  0  0  0  0  0  0  0
   59.0200   31.3140   50.7870 C   0  0  0  0  0  0  0  0  0  0  0  0
   60.3390   34.3020   46.3600 C   0  0  0  0  0  0  0  0  0  0  0  0
   59.5520   33.9730   45.2530 C   0  0  0  0  0  0  0  0  0  0  0  0
   58.8940   30.3570   46.2730 C   0  0  0  0  0  0  0  0  0  0  0  0
   63.7511   34.0552   47.5128 H   0  0  0  0  0  0  0  0  0  0  0  0
   64.4209   33.0486   46.1844 H   0  0  0  0  0  0  0  0  0  0  0  0
   62.6805   33.4933   46.1844 H   0  0  0  0  0  0  0  0  0  0  0  0
   64.0409   31.2468   47.4890 H   0  0  0  0  0  0  0  0  0  0  0  0
   63.0933   32.2489   48.6685 H   0  0  0  0  0  0  0  0  0  0  0  0
   61.3919   31.9971   46.4599 H   0  0  0  0  0  0  0  0  0  0  0  0
   62.1601   30.3697   46.6270 H   0  0  0  0  0  0  0  0  0  0  0  0
   61.3162   28.9730   48.2762 H   0  0  0  0  0  0  0  0  0  0  0  0
   59.7425   29.5938   48.9013 H   0  0  0  0  0  0  0  0  0  0  0  0
   61.0218   27.7230   46.1079 H   0  0  0  0  0  0  0  0  0  0  0  0
   56.9927   29.9280   43.4672 H   0  0  0  0  0  0  0  0  0  0  0  0
   56.5495   30.9053   44.9179 H   0  0  0  0  0  0  0  0  0  0  0  0
   58.8920   31.8230   43.5360 H   0  0  0  0  0  0  0  0  0  0  0  0
   57.4569   33.9166   43.5208 H   0  0  0  0  0  0  0  0  0  0  0  0
   56.3824   32.9251   44.5996 H   0  0  0  0  0  0  0  0  0  0  0  0
   56.7971   32.7629   46.8808 H   0  0  0  0  0  0  0  0  0  0  0  0
   58.2098   33.3246   48.8514 H   0  0  0  0  0  0  0  0  0  0  0  0
   61.7494   34.5620   48.5390 H   0  0  0  0  0  0  0  0  0  0  0  0
   60.3015   35.3672   49.2897 H   0  0  0  0  0  0  0  0  0  0  0  0
   60.3640   32.5010   49.4660 H   0  0  0  0  0  0  0  0  0  0  0  0
   61.9169   33.2500   51.6255 H   0  0  0  0  0  0  0  0  0  0  0  0
   62.4154   32.2586   50.1864 H   0  0  0  0  0  0  0  0  0  0  0  0
   63.4186   34.8058   50.9826 H   0  0  0  0  0  0  0  0  0  0  0  0
   63.7958   33.8779   49.4915 H   0  0  0  0  0  0  0  0  0  0  0  0
   62.4527   35.0707   49.4915 H   0  0  0  0  0  0  0  0  0  0  0  0
   60.1663   34.0755   51.8664 H   0  0  0  0  0  0  0  0  0  0  0  0
   59.0217   34.5650   50.5433 H   0  0  0  0  0  0  0  0  0  0  0  0
   57.3956   33.7758   52.5286 H   0  0  0  0  0  0  0  0  0  0  0  0
   55.9516   31.8337   53.1316 H   0  0  0  0  0  0  0  0  0  0  0  0
   58.4342   29.2275   50.7342 H   0  0  0  0  0  0  0  0  0  0  0  0
   59.8834   31.1637   50.1222 H   0  0  0  0  0  0  0  0  0  0  0  0
   61.3370   34.7401   46.2115 H   0  0  0  0  0  0  0  0  0  0  0  0
   59.9361   34.1488   44.2373 H   0  0  0  0  0  0  0  0  0  0  0  0
   58.4885   31.2195   46.8223 H   0  0  0  0  0  0  0  0  0  0  0  0
  1  2  1  0
  2  3  1  0
  3  4  1  0
  4  5  1  0
  5  6  1  0
  6  7  2  0
  7  8  1  0
  8  9  1  0
  9 10  1  0
 10 11  1  0
 11 12  1  0
 12 13  1  0
 13 14  2  0
 14 15  1  0
 15 16  2  0
 16 17  1  0
 17 18  1  0
 18 19  1  0
 19 20  1  0
 18 21  1  0
 21 22  1  0
 22 23  2  0
 23 24  1  0
 24 25  2  0
 25 26  1  0
 25 27  1  0
 27 28  2  0
 16 29  1  0
 29 30  2  0
  9 31  2  0
 31  6  1  0
 30 13  1  0
 28 22  1  0
  1 32  1  0
  1 33  1  0
  1 34  1  0
  2 35  1  0
  2 36  1  0
  3 37  1  0
  3 38  1  0
  5 39  1  0
  5 40  1  0
  7 41  1  0
 10 42  1  0
 10 43  1  0
 11 44  1  0
 12 45  1  0
 12 46  1  0
 14 47  1  0
 15 48  1  0
 17 49  1  0
 17 50  1  0
 18 51  1  6
 19 52  1  0
 19 53  1  0
 20 54  1  0
 20 55  1  0
 20 56  1  0
 21 57  1  0
 21 58  1  0
 23 59  1  0
 24 60  1  0
 27 61  1  0
 28 62  1  0
 29 63  1  0
 30 64  1  0
 31 65  1  0
M  CHG  1  18   1
M  END
>  <UniqueID>  (14) 
14

>  <SMILES>  (14) 
CCCOCc1csc(CNCc2ccc(C[N@@H+](CC)Cc3ccc(F)cc3)cc2)c1

>  <Energy>  (14) 
92.29037193934793

>  <Genealogy>  (14) 
CCCOCc1csc(CNCc2ccc(C[NH+](CC)Cc3ccc(F)cc3)cc2)c1 (protonated)
CCCOCc1csc(CNCc2ccc(C[N@@H+](CC)Cc3ccc(F)cc3)cc2)c1 (chirality)
CCCOCc1csc(CNCc2ccc(C[N@@H+](CC)Cc3ccc(F)cc3)cc2)c1 (3D coordinates assigned)
CCCOCc1csc(CNCc2ccc(C[N@@H+](CC)Cc3ccc(F)cc3)cc2)c1 (optimized conformer: 92.29037193934793 kcal/mol)

>  <smiles>  (14) 
CCCOCc1csc(CNCc2ccc(CN(CC)Cc3ccc(F)cc3)cc2)c1

>  <score_type>  (14) 
oracle

>  <origin>  (14) 
adg

>  <m_score__min__energy>  (14) 
-7.3799999999999999

>  <m_primary>  (14) 
energy

$$$$
14:0
     RDKit          3D

 55 57  0  0  0  0  0  0  0  0999 V2000
   63.7620   32.6500   47.0530 C   0  0  0  0  0  0  0  0  0  0  0  0
   62.8480   33.8660   46.8190 C   0  0  0  0  0  0  0  0  0  0  0  0
   61.4370   33.7080   47.2760 N   0  0  0  0  0  0  0  0  0  0  0  0
   60.4420   34.1070   46.2420 C   0  0  0  0  0  0  0  0  0  0  0  0
   59.2870   34.9750   46.7500 C   0  0  0  0  0  0  0  0  0  0  0  0
   61.1860   34.2720   48.6300 C   0  0  0  0  0  0  0  0  0  0  0  0
   61.4170   33.2560   49.7640 C   0  0  0  0  0  0  0  0  0  0  0  0
   62.0610   32.1030   49.2540 O   0  0  0  0  0  0  0  0  0  0  0  0
   61.9490   31.0280   50.1620 C   0  0  0  0  0  0  0  0  0  0  0  0
   60.9100   30.0380   49.6390 C   0  0  0  0  0  0  0  0  0  0  0  0
   60.2210   30.5770   48.4640 N   0  0  0  0  0  0  0  0  0  0  0  0
   59.5610   29.7940   47.4470 C   0  0  0  0  0  0  0  0  0  0  0  0
   59.4540   28.4490   47.5700 C   0  0  0  0  0  0  0  0  0  0  0  0
   58.7460   27.5660   46.6140 C   0  0  0  0  0  0  0  0  0  0  0  0
   57.8330   26.6220   47.1100 C   0  0  0  0  0  0  0  0  0  0  0  0
   57.1250   25.7950   46.2340 C   0  0  0  0  0  0  0  0  0  0  0  0
   57.3270   25.8960   44.8560 C   0  0  0  0  0  0  0  0  0  0  0  0
   58.2520   26.8130   44.3510 C   0  0  0  0  0  0  0  0  0  0  0  0
   58.9780   27.6320   45.2250 C   0  0  0  0  0  0  0  0  0  0  0  0
   60.2050   28.7550   44.5650 S   0  0  0  0  0  0  0  0  0  0  0  0
   59.1570   30.1480   44.9640 C   0  0  0  0  0  0  0  0  0  0  0  0
   58.5240   30.8450   43.9270 C   0  0  0  0  0  0  0  0  0  0  0  0
   57.7150   31.9460   44.2120 C   0  0  0  0  0  0  0  0  0  0  0  0
   57.5310   32.3540   45.5340 C   0  0  0  0  0  0  0  0  0  0  0  0
   58.1480   31.6530   46.5760 C   0  0  0  0  0  0  0  0  0  0  0  0
   58.9540   30.5350   46.3060 C   0  0  0  0  0  0  0  0  0  0  0  0
   63.8850   32.4864   48.1338 H   0  0  0  0  0  0  0  0  0  0  0  0
   63.3092   31.7576   46.5962 H   0  0  0  0  0  0  0  0  0  0  0  0
   64.7451   32.8369   46.5962 H   0  0  0  0  0  0  0  0  0  0  0  0
   63.2827   34.7240   47.3527 H   0  0  0  0  0  0  0  0  0  0  0  0
   62.7982   34.0001   45.7283 H   0  0  0  0  0  0  0  0  0  0  0  0
   61.3070   32.6720   47.3750 H   0  0  0  0  0  0  0  0  0  0  0  0
   60.9717   34.6694   45.4590 H   0  0  0  0  0  0  0  0  0  0  0  0
   59.9864   33.1735   45.8801 H   0  0  0  0  0  0  0  0  0  0  0  0
   59.2855   34.9761   47.8500 H   0  0  0  0  0  0  0  0  0  0  0  0
   59.4126   36.0041   46.3824 H   0  0  0  0  0  0  0  0  0  0  0  0
   58.3334   34.5682   46.3824 H   0  0  0  0  0  0  0  0  0  0  0  0
   61.8617   35.1264   48.7834 H   0  0  0  0  0  0  0  0  0  0  0  0
   60.1276   34.5693   48.6687 H   0  0  0  0  0  0  0  0  0  0  0  0
   62.0483   33.7131   50.5403 H   0  0  0  0  0  0  0  0  0  0  0  0
   60.4470   32.9681   50.1955 H   0  0  0  0  0  0  0  0  0  0  0  0
   62.9221   30.5242   50.2582 H   0  0  0  0  0  0  0  0  0  0  0  0
   61.6378   31.4059   51.1471 H   0  0  0  0  0  0  0  0  0  0  0  0
   61.4133   29.0997   49.3627 H   0  0  0  0  0  0  0  0  0  0  0  0
   60.1674   29.8565   50.4300 H   0  0  0  0  0  0  0  0  0  0  0  0
   60.1590   31.6190   48.3930 H   0  0  0  0  0  0  0  0  0  0  0  0
   59.9276   27.9780   48.4440 H   0  0  0  0  0  0  0  0  0  0  0  0
   57.6740   26.5328   48.1948 H   0  0  0  0  0  0  0  0  0  0  0  0
   56.4067   25.0625   46.6309 H   0  0  0  0  0  0  0  0  0  0  0  0
   56.7578   25.2535   44.1681 H   0  0  0  0  0  0  0  0  0  0  0  0
   58.4104   26.8920   43.2653 H   0  0  0  0  0  0  0  0  0  0  0  0
   58.6650   30.5236   42.8845 H   0  0  0  0  0  0  0  0  0  0  0  0
   57.2222   32.4924   43.3944 H   0  0  0  0  0  0  0  0  0  0  0  0
   56.9004   33.2273   45.7569 H   0  0  0  0  0  0  0  0  0  0  0  0
   58.0005   31.9804   47.6157 H   0  0  0  0  0  0  0  0  0  0  0  0
  1  2  1  0
  2  3  1  0
  3  4  1  0
  4  5  1  0
  3  6  1  0
  6  7  1  0
  7  8  1  0
  8  9  1  0
  9 10  1  0
 10 11  1  0
 11 12  1  0
 12 13  2  0
 13 14  1  0
 14 15  2  0
 15 16  1  0
 16 17  2  0
 17 18  1  0
 18 19  2  0
 19 20  1  0
 20 21  1  0
 21 22  2  0
 22 23  1  0
 23 24  2  0
 24 25  1  0
 25 26  2  0
 26 12  1  0
 19 14  1  0
 26 21  1  0
  1 27  1  0
  1 28  1  0
  1 29  1  0
  2 30  1  0
  2 31  1  0
  3 32  1  0
  4 33  1  0
  4 34  1  0
  5 35  1  0
  5 36  1  0
  5 37  1  0
  6 38  1  0
  6 39  1  0
  7 40  1  0
  7 41  1  0
  9 42  1  0
  9 43  1  0
 10 44  1  0
 10 45  1  0
 11 46  1  0
 13 47  1  0
 15 48  1  0
 16 49  1  0
 17 50  1  0
 18 51  1  0
 22 52  1  0
 23 53  1  0
 24 54  1  0
 25 55  1  0
M  CHG  1   3   1
M  END
>  <UniqueID>  (15) 
15

>  <SMILES>  (15) 
CC[NH+](CC)CCOCCNC1=Cc2ccccc2Sc2ccccc21

>  <Energy>  (15) 
77.60832642336914

>  <Genealogy>  (15) 
CC[NH+](CC)CCOCCNC1=Cc2ccccc2Sc2ccccc21 (protonated)
CC[NH+](CC)CCOCCNC1=Cc2ccccc2Sc2ccccc21 (3D coordinates assigned)
CC[NH+](CC)CCOCCNC1=Cc2ccccc2Sc2ccccc21 (nonaromatic ring conformer: 77.60832642336914 kcal/mol)

>  <smiles>  (15) 
CCN(CC)CCOCCNC1=Cc2ccccc2Sc2ccccc21

>  <score_type>  (15) 
oracle

>  <origin>  (15) 
adg

>  <m_score__min__energy>  (15) 
-4.2699999999999996

>  <m_primary>  (15) 
energy

$$$$
15:0
     RDKit          3D

 37 38  0  0  0  0  0  0  0  0999 V2000
   57.9540   20.2830   46.6670 C   0  0  0  0  0  0  0  0  0  0  0  0
   57.4010   20.3480   45.3020 N   0  0  0  0  0  0  0  0  0  0  0  0
   57.9010   21.5620   44.6060 C   0  0  0  0  0  0  0  0  0  0  0  0
   56.9520   21.9910   43.4770 C   0  0  0  0  0  0  0  0  0  0  0  0
   55.6040   22.3520   43.9910 N   0  0  0  0  0  0  0  0  0  0  0  0
   55.4580   23.8190   44.1400 C   0  0  0  0  0  0  0  0  0  0  0  0
   54.3570   24.1910   45.1480 C   0  0  0  0  0  0  0  0  0  0  0  0
   54.8970   24.8200   46.3520 N   0  0  0  0  0  0  0  0  0  0  0  0
   56.2690   25.1600   46.5990 C   0  0  0  0  0  0  0  0  0  0  0  0
   56.9870   24.3410   47.2290 O   0  0  0  0  0  0  0  0  0  0  0  0
   56.8820   26.4100   46.1150 C   0  0  0  0  0  0  0  0  0  0  0  0
   58.2370   26.6910   46.0510 C   0  0  0  0  0  0  0  0  0  0  0  0
   58.3380   27.9470   45.4890 C   0  0  0  0  0  0  0  0  0  0  0  0
   59.9610   28.8810   45.1160 Br  0  0  0  0  0  0  0  0  0  0  0  0
   57.0540   28.3720   45.2230 C   0  0  0  0  0  0  0  0  0  0  0  0
   56.5580   30.0340   44.4240 Br  0  0  0  0  0  0  0  0  0  0  0  0
   56.1700   27.4290   45.5950 N   0  0  0  0  0  0  0  0  0  0  0  0
   55.2490   21.6350   45.2430 C   0  0  0  0  0  0  0  0  0  0  0  0
   55.9160   20.2530   45.3200 C   0  0  0  0  0  0  0  0  0  0  0  0
   57.1378   20.3789   47.3982 H   0  0  0  0  0  0  0  0  0  0  0  0
   58.4636   19.3188   46.8107 H   0  0  0  0  0  0  0  0  0  0  0  0
   58.6732   21.1028   46.8107 H   0  0  0  0  0  0  0  0  0  0  0  0
   57.7650   19.5120   44.7850 H   0  0  0  0  0  0  0  0  0  0  0  0
   57.9856   22.3825   45.3337 H   0  0  0  0  0  0  0  0  0  0  0  0
   58.8814   21.3293   44.1648 H   0  0  0  0  0  0  0  0  0  0  0  0
   57.3820   22.8637   42.9637 H   0  0  0  0  0  0  0  0  0  0  0  0
   56.8371   21.1414   42.7878 H   0  0  0  0  0  0  0  0  0  0  0  0
   56.4139   24.2371   44.4884 H   0  0  0  0  0  0  0  0  0  0  0  0
   55.1749   24.2327   43.1608 H   0  0  0  0  0  0  0  0  0  0  0  0
   53.6581   24.8907   44.6664 H   0  0  0  0  0  0  0  0  0  0  0  0
   53.8507   23.2627   45.4513 H   0  0  0  0  0  0  0  0  0  0  0  0
   59.0637   26.0447   46.3809 H   0  0  0  0  0  0  0  0  0  0  0  0
   55.1310   27.4820   45.5020 H   0  0  0  0  0  0  0  0  0  0  0  0
   55.5776   22.2370   46.1030 H   0  0  0  0  0  0  0  0  0  0  0  0
   54.1588   21.4888   45.2550 H   0  0  0  0  0  0  0  0  0  0  0  0
   55.6032   19.7593   46.2519 H   0  0  0  0  0  0  0  0  0  0  0  0
   55.6022   19.6751   44.4382 H   0  0  0  0  0  0  0  0  0  0  0  0
  1  2  1  0
  2  3  1  0
  3  4  1  0
  4  5  1  0
  5  6  1  0
  6  7  1  0
  7  8  1  0
  8  9  1  0
  9 10  2  0
  9 11  1  0
 11 12  2  0
 12 13  1  0
 13 14  1  0
 13 15  2  0
 15 16  1  0
 15 17  1  0
  5 18  1  0
 18 19  1  0
 19  2  1  0
 17 11  1  0
  1 20  1  0
  1 21  1  0
  1 22  1  0
  2 23  1  0
  3 24  1  0
  3 25  1  0
  4 26  1  0
  4 27  1  0
  6 28  1  0
  6 29  1  0
  7 30  1  0
  7 31  1  0
 12 32  1  0
 17 33  1  0
 18 34  1  0
 18 35  1  0
 19 36  1  0
 19 37  1  0
M  CHG  2   2   1   8  -1
M  END
>  <UniqueID>  (16) 
16

>  <SMILES>  (16) 
C[NH+]1CCN(CC[N-]C(=O)c2cc(Br)c(Br)[nH]2)CC1

>  <Energy>  (16) 
76.45140133837896

>  <Genealogy>  (16) 
C[NH+]1CCN(CC[N-]C(=O)c2cc(Br)c(Br)[nH]2)CC1 (protonated)
C[NH+]1CCN(CC[N-]C(=O)c2cc(Br)c(Br)[nH]2)CC1 (3D coordinates assigned)
C[NH+]1CCN(CC[N-]C(=O)c2cc(Br)c(Br)[nH]2)CC1 (nonaromatic ring conformer: 76.45140133837896 kcal/mol)

>  <smiles>  (16) 
CN1CCN(CCNC(=O)c2cc(Br)c(Br)[nH]2)CC1

>  <score_type>  (16) 
oracle

>  <origin>  (16) 
adg

>  <m_score__min__energy>  (16) 
-7.7000000000000002

>  <m_primary>  (16) 
energy

$$$$
16:0
     RDKit          3D

 75 79  0  0  1  0  0  0  0  0999 V2000
   57.6270   24.1830   46.7300 C   0  0  0  0  0  0  0  0  0  0  0  0
   58.0200   23.7220   45.3510 C   0  0  0  0  0  0  0  0  0  0  0  0
   57.1700   24.1030   44.3130 N   0  0  0  0  0  0  0  0  0  0  0  0
   56.1690   23.1080   44.0520 C   0  0  0  0  0  0  0  0  0  0  0  0
   56.6440   22.0800   43.0370 C   0  0  0  0  0  0  0  0  0  0  0  0
   57.3930   25.0800   43.3730 C   0  0  0  0  0  0  0  0  0  0  0  0
   57.9560   26.4040   43.7590 C   0  0  0  0  0  0  0  0  0  0  0  0
   57.4100   27.0100   45.0110 C   0  0  0  0  0  0  0  0  0  0  0  0
   57.7560   28.4000   45.1930 N   0  0  0  0  0  0  0  0  0  0  0  0
   57.0840   29.4470   44.7550 N   0  0  0  0  0  0  0  0  0  0  0  0
   57.7340   30.5490   45.1500 C   0  0  0  0  0  0  0  0  0  0  0  0
   57.4390   31.8300   44.9460 N   0  0  0  0  0  0  0  0  0  0  0  0
   58.2740   32.7460   45.4600 C   0  0  0  0  0  0  0  0  0  0  0  0
   58.1120   34.5720   45.3520 S   0  0  0  0  0  0  0  0  0  0  0  0
   59.6180   34.8360   46.3000 C   0  0  0  0  0  0  0  0  0  0  0  0
   60.1110   33.5800   46.6150 C   0  0  0  0  0  0  0  0  0  0  0  0
   61.4120   33.5640   47.3750 C   0  0  0  0  0  0  0  0  0  0  0  0
   62.5230   33.0910   46.7490 C   0  0  0  0  0  0  0  0  0  0  0  0
   63.7220   33.0420   47.4600 C   0  0  0  0  0  0  0  0  0  0  0  0
   63.7920   33.4670   48.7860 C   0  0  0  0  0  0  0  0  0  0  0  0
   64.9590   33.4360   49.5220 O   0  0  0  0  0  0  0  0  0  0  0  0
   65.4270   32.2670   50.1300 C   0  0  0  0  0  0  0  0  0  0  0  0
   62.6580   33.9410   49.4000 C   0  0  0  0  0  0  0  0  0  0  0  0
   61.4570   33.9880   48.6840 C   0  0  0  0  0  0  0  0  0  0  0  0
   59.4080   32.5150   46.1770 C   0  0  0  0  0  0  0  0  0  0  0  0
   59.6800   31.1270   46.3690 C   0  0  0  0  0  0  0  0  0  0  0  0
   60.7040   30.9380   47.0240 O   0  0  0  0  0  0  0  0  0  0  0  0
   58.8450   30.2290   45.8540 N   0  0  0  0  0  0  0  0  0  0  0  0
   58.8440   28.8920   45.8720 C   0  0  0  0  0  0  0  0  0  0  0  0
   59.6820   28.1250   46.4020 N   0  0  0  0  0  0  0  0  0  0  0  0
   59.7650   27.7420   47.7530 C   0  0  0  0  0  0  0  0  0  0  0  0
   58.6920   28.6560   48.4480 C   0  0  0  0  0  0  0  0  0  0  0  0
   59.2490   29.2140   49.6530 N   0  0  0  0  0  0  0  0  0  0  0  0
   58.8390   30.5870   49.6970 C   0  0  0  0  0  0  0  0  0  0  0  0
   59.8470   31.5430   50.2110 C   0  0  0  0  0  0  0  0  0  0  0  0
   61.1610   31.2700   49.8820 O   0  0  0  0  0  0  0  0  0  0  0  0
   61.4430   30.0210   50.4430 C   0  0  0  0  0  0  0  0  0  0  0  0
   60.6670   29.0140   49.6440 C   0  0  0  0  0  0  0  0  0  0  0  0
   58.1473   23.5726   47.4828 H   0  0  0  0  0  0  0  0  0  0  0  0
   57.9068   25.2392   46.8571 H   0  0  0  0  0  0  0  0  0  0  0  0
   56.5398   24.0738   46.8571 H   0  0  0  0  0  0  0  0  0  0  0  0
   59.0194   24.1266   45.1331 H   0  0  0  0  0  0  0  0  0  0  0  0
   57.9757   22.6233   45.3821 H   0  0  0  0  0  0  0  0  0  0  0  0
   55.9255   22.5929   44.9929 H   0  0  0  0  0  0  0  0  0  0  0  0
   55.2847   23.6140   43.6372 H   0  0  0  0  0  0  0  0  0  0  0  0
   57.0489   21.2038   43.5646 H   0  0  0  0  0  0  0  0  0  0  0  0
   55.7980   21.7696   42.4061 H   0  0  0  0  0  0  0  0  0  0  0  0
   57.4287   22.5230   42.4061 H   0  0  0  0  0  0  0  0  0  0  0  0
   58.0846   24.6500   42.6335 H   0  0  0  0  0  0  0  0  0  0  0  0
   56.3746   25.3371   43.0461 H   0  0  0  0  0  0  0  0  0  0  0  0
   59.0414   26.2826   43.8899 H   0  0  0  0  0  0  0  0  0  0  0  0
   57.6735   27.0929   42.9493 H   0  0  0  0  0  0  0  0  0  0  0  0
   56.3134   26.9276   44.9849 H   0  0  0  0  0  0  0  0  0  0  0  0
   57.8577   26.4591   45.8513 H   0  0  0  0  0  0  0  0  0  0  0  0
   56.5960   32.1250   44.4120 H   0  0  0  0  0  0  0  0  0  0  0  0
   60.0606   35.8046   46.5755 H   0  0  0  0  0  0  0  0  0  0  0  0
   62.4769   32.7539   45.7030 H   0  0  0  0  0  0  0  0  0  0  0  0
   64.6281   32.6614   46.9659 H   0  0  0  0  0  0  0  0  0  0  0  0
   65.3821   32.3791   51.2234 H   0  0  0  0  0  0  0  0  0  0  0  0
   64.7997   31.4173   49.8225 H   0  0  0  0  0  0  0  0  0  0  0  0
   66.4673   32.0849   49.8225 H   0  0  0  0  0  0  0  0  0  0  0  0
   62.6941   34.2807   50.4456 H   0  0  0  0  0  0  0  0  0  0  0  0
   60.5447   34.3654   49.1691 H   0  0  0  0  0  0  0  0  0  0  0  0
   59.5176   26.6775   47.8777 H   0  0  0  0  0  0  0  0  0  0  0  0
   60.7737   27.8609   48.1754 H   0  0  0  0  0  0  0  0  0  0  0  0
   58.4048   29.4693   47.7653 H   0  0  0  0  0  0  0  0  0  0  0  0
   57.8036   28.0568   48.6964 H   0  0  0  0  0  0  0  0  0  0  0  0
   58.5736   30.8932   48.6744 H   0  0  0  0  0  0  0  0  0  0  0  0
   57.9996   30.6263   50.4069 H   0  0  0  0  0  0  0  0  0  0  0  0
   59.6002   32.5388   49.8141 H   0  0  0  0  0  0  0  0  0  0  0  0
   59.7936   31.4708   51.3073 H   0  0  0  0  0  0  0  0  0  0  0  0
   62.5205   29.8093   50.3787 H   0  0  0  0  0  0  0  0  0  0  0  0
   61.1632   29.9884   51.5063 H   0  0  0  0  0  0  0  0  0  0  0  0
   61.0141   29.0616   48.6013 H   0  0  0  0  0  0  0  0  0  0  0  0
   60.8479   28.0357   50.1133 H   0  0  0  0  0  0  0  0  0  0  0  0
  1  2  1  0
  2  3  1  0
  3  4  1  0
  4  5  1  0
  3  6  1  0
  6  7  1  0
  7  8  1  0
  8  9  1  0
  9 10  1  0
 10 11  2  0
 11 12  1  0
 12 13  1  0
 13 14  1  0
 14 15  1  0
 15 16  2  0
 16 17  1  0
 17 18  2  0
 18 19  1  0
 19 20  2  0
 20 21  1  0
 21 22  1  0
 20 23  1  0
 23 24  2  0
 16 25  1  0
 25 26  1  0
 26 27  2  0
 26 28  1  0
 28 29  1  0
 29 30  2  0
 30 31  1  0
 31 32  1  0
 32 33  1  0
 33 34  1  0
 34 35  1  0
 35 36  1  0
 36 37  1  0
 37 38  1  0
 29  9  1  0
 38 33  1  0
 28 11  1  0
 25 13  2  0
 24 17  1  0
  1 39  1  0
  1 40  1  0
  1 41  1  0
  2 42  1  0
  2 43  1  0
  4 44  1  0
  4 45  1  0
  5 46  1  0
  5 47  1  0
  5 48  1  0
  6 49  1  0
  6 50  1  0
  7 51  1  0
  7 52  1  0
  8 53  1  0
  8 54  1  0
 12 55  1  0
 15 56  1  0
 18 57  1  0
 19 58  1  0
 22 59  1  0
 22 60  1  0
 22 61  1  0
 23 62  1  0
 24 63  1  0
 31 64  1  0
 31 65  1  0
 32 66  1  0
 32 67  1  0
 34 68  1  0
 34 69  1  0
 35 70  1  0
 35 71  1  0
 37 72  1  0
 37 73  1  0
 38 74  1  0
 38 75  1  0
M  END
>  <smiles>  (17) 
CCN(CC)CCCn1nc2[nH]c3scc(-c4ccc(OC)cc4)c3c(=O)n2c1=NCCN1CCOCC1

>  <score_type>  (17) 
oracle

>  <origin>  (17) 
adg

>  <m_score__min__energy>  (17) 
-8.5299999999999994

>  <m_primary>  (17) 
energy

$$$$
17:0
     RDKit          3D

 37 38  0  0  0  0  0  0  0  0999 V2000
   62.6300   34.6070   49.5260 C   0  0  0  0  0  0  0  0  0  0  0  0
   62.6640   33.1410   49.4050 N   0  0  0  0  0  0  0  0  0  0  0  0
   63.2540   32.5650   50.6270 C   0  0  0  0  0  0  0  0  0  0  0  0
   63.4350   32.7440   48.2070 C   0  0  0  0  0  0  0  0  0  0  0  0
   62.5040   32.1630   47.1330 C   0  0  0  0  0  0  0  0  0  0  0  0
   61.1110   32.5500   47.3740 N   0  0  0  0  0  0  0  0  0  0  0  0
   60.0130   32.1600   46.5230 C   0  0  0  0  0  0  0  0  0  0  0  0
   59.1190   33.1420   46.0340 C   0  0  0  0  0  0  0  0  0  0  0  0
   59.3280   34.5440   46.2880 N   0  0  0  0  0  0  0  0  0  0  0  0
   59.7140   34.9400   47.4080 O   0  0  0  0  0  0  0  0  0  0  0  0
   59.2710   35.4470   45.2510 O   0  0  0  0  0  0  0  0  0  0  0  0
   58.0230   32.7520   45.2540 C   0  0  0  0  0  0  0  0  0  0  0  0
   57.8000   31.4100   44.9220 C   0  0  0  0  0  0  0  0  0  0  0  0
   56.7020   31.0870   44.0540 N   0  0  0  0  0  0  0  0  0  0  0  0
   55.7060   30.4820   44.5020 O   0  0  0  0  0  0  0  0  0  0  0  0
   56.8530   31.1950   42.6910 O   0  0  0  0  0  0  0  0  0  0  0  0
   58.6660   30.4180   45.4350 C   0  0  0  0  0  0  0  0  0  0  0  0
   58.4400   29.0430   45.2230 C   0  0  0  0  0  0  0  0  0  0  0  0
   59.3060   28.0940   45.7650 C   0  0  0  0  0  0  0  0  0  0  0  0
   60.3860   28.5150   46.5340 C   0  0  0  0  0  0  0  0  0  0  0  0
   60.5860   29.8390   46.7570 N   0  0  0  0  0  0  0  0  0  0  0  0
   59.7750   30.7990   46.2340 C   0  0  0  0  0  0  0  0  0  0  0  0
   62.6235   34.8871   50.5897 H   0  0  0  0  0  0  0  0  0  0  0  0
   63.5184   35.0358   49.0394 H   0  0  0  0  0  0  0  0  0  0  0  0
   61.7226   34.9941   49.0394 H   0  0  0  0  0  0  0  0  0  0  0  0
   62.7856   33.0223   51.5110 H   0  0  0  0  0  0  0  0  0  0  0  0
   63.0809   31.4788   50.6409 H   0  0  0  0  0  0  0  0  0  0  0  0
   64.3357   32.7641   50.6409 H   0  0  0  0  0  0  0  0  0  0  0  0
   63.9502   33.6265   47.7998 H   0  0  0  0  0  0  0  0  0  0  0  0
   64.1671   31.9752   48.4952 H   0  0  0  0  0  0  0  0  0  0  0  0
   62.8153   32.5383   46.1470 H   0  0  0  0  0  0  0  0  0  0  0  0
   62.5721   31.0657   47.1693 H   0  0  0  0  0  0  0  0  0  0  0  0
   60.9320   33.2610   48.1180 H   0  0  0  0  0  0  0  0  0  0  0  0
   57.3207   33.5181   44.8936 H   0  0  0  0  0  0  0  0  0  0  0  0
   57.5753   28.7166   44.6265 H   0  0  0  0  0  0  0  0  0  0  0  0
   59.1366   27.0219   45.5861 H   0  0  0  0  0  0  0  0  0  0  0  0
   61.0782   27.7747   46.9616 H   0  0  0  0  0  0  0  0  0  0  0  0
  1  2  1  0
  2  3  1  0
  2  4  1  0
  4  5  1  0
  5  6  1  0
  6  7  1  0
  7  8  2  0
  8  9  1  0
  9 10  2  0
  9 11  1  0
  8 12  1  0
 12 13  2  0
 13 14  1  0
 14 15  2  0
 14 16  1  0
 13 17  1  0
 17 18  2  0
 18 19  1  0
 19 20  2  0
 20 21  1  0
 21 22  2  0
 22  7  1  0
 22 17  1  0
  1 23  1  0
  1 24  1  0
  1 25  1  0
  3 26  1  0
  3 27  1  0
  3 28  1  0
  4 29  1  0
  4 30  1  0
  5 31  1  0
  5 32  1  0
  6 33  1  0
 12 34  1  0
 18 35  1  0
 19 36  1  0
 20 37  1  0
M  CHG  4   9   1  11  -1  14   1  16  -1
M  END
>  <UniqueID>  (18) 
17

>  <SMILES>  (18) 
CN(C)CCNc1c([N+](=O)[O-])cc([N+](=O)[O-])c2cccnc12

>  <Energy>  (18) 
54.06222732742168

>  <Genealogy>  (18) 
CN(C)CCNc1c([N+](=O)[O-])cc([N+](=O)[O-])c2cccnc12 (3D coordinates assigned)
CN(C)CCNc1c([N+](=O)[O-])cc([N+](=O)[O-])c2cccnc12 (optimized conformer: 54.06222732742168 kcal/mol)

>  <smiles>  (18) 
CN(C)CCNc1c([N+](=O)[O-])cc([N+](=O)[O-])c2cccnc12

>  <score_type>  (18) 
oracle

>  <origin>  (18) 
adg

>  <m_score__min__energy>  (18) 
-6.5499999999999998

>  <m_primary>  (18) 
energy

$$$$
18:0
     RDKit          3D

 37 37  0  0  0  0  0  0  0  0999 V2000
   59.6400   34.6080   48.1920 C   0  0  0  0  0  0  0  0  0  0  0  0
   58.9010   34.7020   46.9790 O   0  0  0  0  0  0  0  0  0  0  0  0
   58.5120   33.6020   46.2010 C   0  0  0  0  0  0  0  0  0  0  0  0
   58.1340   33.8280   44.8720 C   0  0  0  0  0  0  0  0  0  0  0  0
   57.7360   32.7640   44.0570 C   0  0  0  0  0  0  0  0  0  0  0  0
   57.7030   31.4570   44.5630 C   0  0  0  0  0  0  0  0  0  0  0  0
   57.3110   30.3060   43.6750 C   0  0  0  0  0  0  0  0  0  0  0  0
   55.8060   30.0420   43.7670 C   0  0  0  0  0  0  0  0  0  0  0  0
   55.5310   29.1140   44.8710 N   0  0  0  0  0  0  0  0  0  0  0  0
   56.7300   28.3550   45.2610 C   0  0  0  0  0  0  0  0  0  0  0  0
   56.3820   27.0020   45.8370 C   0  0  0  0  0  0  0  0  0  0  0  0
   55.1630   26.7060   45.9670 O   0  0  0  0  0  0  0  0  0  0  0  0
   57.3940   26.0710   46.2800 N   0  0  0  0  0  0  0  0  0  0  0  0
   56.9840   24.8900   47.0470 C   0  0  0  0  0  0  0  0  0  0  0  0
   58.8080   26.2720   45.9410 C   0  0  0  0  0  0  0  0  0  0  0  0
   58.0960   31.2240   45.8910 C   0  0  0  0  0  0  0  0  0  0  0  0
   58.4920   32.2880   46.7070 C   0  0  0  0  0  0  0  0  0  0  0  0
   58.9537   34.6953   49.0472 H   0  0  0  0  0  0  0  0  0  0  0  0
   60.1554   33.6371   48.2331 H   0  0  0  0  0  0  0  0  0  0  0  0
   60.3820   35.4190   48.2331 H   0  0  0  0  0  0  0  0  0  0  0  0
   58.1503   34.8502   44.4661 H   0  0  0  0  0  0  0  0  0  0  0  0
   57.4471   32.9535   43.0127 H   0  0  0  0  0  0  0  0  0  0  0  0
   57.5726   30.5472   42.6341 H   0  0  0  0  0  0  0  0  0  0  0  0
   57.8496   29.4051   44.0041 H   0  0  0  0  0  0  0  0  0  0  0  0
   55.2791   30.9906   43.9473 H   0  0  0  0  0  0  0  0  0  0  0  0
   55.4566   29.5978   42.8233 H   0  0  0  0  0  0  0  0  0  0  0  0
   54.7830   28.4470   44.5710 H   0  0  0  0  0  0  0  0  0  0  0  0
   57.3631   28.2106   44.3731 H   0  0  0  0  0  0  0  0  0  0  0  0
   57.2574   28.9289   46.0372 H   0  0  0  0  0  0  0  0  0  0  0  0
   57.0594   25.1071   48.1227 H   0  0  0  0  0  0  0  0  0  0  0  0
   55.9441   24.6331   46.7968 H   0  0  0  0  0  0  0  0  0  0  0  0
   57.6410   24.0440   46.7968 H   0  0  0  0  0  0  0  0  0  0  0  0
   59.3983   26.3559   46.8654 H   0  0  0  0  0  0  0  0  0  0  0  0
   59.1690   25.4161   45.3518 H   0  0  0  0  0  0  0  0  0  0  0  0
   58.9162   27.1946   45.3518 H   0  0  0  0  0  0  0  0  0  0  0  0
   58.0922   30.1994   46.2911 H   0  0  0  0  0  0  0  0  0  0  0  0
   58.7893   32.0979   47.7489 H   0  0  0  0  0  0  0  0  0  0  0  0
  1  2  1  0
  2  3  1  0
  3  4  2  0
  4  5  1  0
  5  6  2  0
  6  7  1  0
  7  8  1  0
  8  9  1  0
  9 10  1  0
 10 11  1  0
 11 12  2  0
 11 13  1  0
 13 14  1  0
 13 15  1  0
  6 16  1  0
 16 17  2  0
 17  3  1  0
  1 18  1  0
  1 19  1  0
  1 20  1  0
  4 21  1  0
  5 22  1  0
  7 23  1  0
  7 24  1  0
  8 25  1  0
  8 26  1  0
  9 27  1  0
 10 28  1  0
 10 29  1  0
 14 30  1  0
 14 31  1  0
 14 32  1  0
 15 33  1  0
 15 34  1  0
 15 35  1  0
 16 36  1  0
 17 37  1  0
M  END
>  <UniqueID>  (19) 
18

>  <SMILES>  (19) 
COc1ccc(CCNCC(=O)N(C)C)cc1

>  <Energy>  (19) 
28.36787353101992

>  <Genealogy>  (19) 
COc1ccc(CCNCC(=O)N(C)C)cc1 (3D coordinates assigned)
COc1ccc(CCNCC(=O)N(C)C)cc1 (optimized conformer: 28.36787353101992 kcal/mol)

>  <smiles>  (19) 
COc1ccc(CCNCC(=O)N(C)C)cc1

>  <score_type>  (19) 
oracle

>  <origin>  (19) 
adg

>  <m_score__min__energy>  (19) 
-6.3799999999999999

>  <m_primary>  (19) 
energy

$$$$
19:0
     RDKit          3D

 59 61  0  0  0  0  0  0  0  0999 V2000
   60.4640   29.2490   48.5350 C   0  0  0  0  0  0  0  0  0  0  0  0
   58.9340   29.2180   48.5020 C   0  0  0  0  0  0  0  0  0  0  0  0
   58.4120   28.9950   47.1410 N   0  0  0  0  0  0  0  0  0  0  0  0
   58.3010   27.5590   46.8290 C   0  0  0  0  0  0  0  0  0  0  0  0
   57.3900   27.3150   45.6160 C   0  0  0  0  0  0  0  0  0  0  0  0
   56.9930   28.5260   45.0010 O   0  0  0  0  0  0  0  0  0  0  0  0
   57.9910   29.0260   44.1280 C   0  0  0  0  0  0  0  0  0  0  0  0
   58.1810   30.5380   44.3250 C   0  0  0  0  0  0  0  0  0  0  0  0
   57.5740   31.0000   45.5810 N   0  0  0  0  0  0  0  0  0  0  0  0
   57.3490   32.4530   45.5750 C   0  0  0  0  0  0  0  0  0  0  0  0
   58.3440   33.1330   46.5210 C   0  0  0  0  0  0  0  0  0  0  0  0
   58.9360   32.1590   47.4370 N   0  0  0  0  0  0  0  0  0  0  0  0
   59.8570   32.5760   48.4640 C   0  0  0  0  0  0  0  0  0  0  0  0
   59.4630   32.5770   49.8140 C   0  0  0  0  0  0  0  0  0  0  0  0
   58.1190   32.3340   50.1740 C   0  0  0  0  0  0  0  0  0  0  0  0
   57.7210   32.3730   51.5070 C   0  0  0  0  0  0  0  0  0  0  0  0
   58.6440   32.6790   52.4990 C   0  0  0  0  0  0  0  0  0  0  0  0
   59.9740   32.9340   52.1670 C   0  0  0  0  0  0  0  0  0  0  0  0
   60.4210   32.8640   50.8230 C   0  0  0  0  0  0  0  0  0  0  0  0
   61.7430   33.0850   50.4810 N   0  0  0  0  0  0  0  0  0  0  0  0
   62.7900   33.1010   51.5280 C   0  0  0  0  0  0  0  0  0  0  0  0
   62.0900   33.2780   49.1570 C   0  0  0  0  0  0  0  0  0  0  0  0
   63.3700   33.7660   48.7840 C   0  0  0  0  0  0  0  0  0  0  0  0
   63.7270   33.9020   47.4430 C   0  0  0  0  0  0  0  0  0  0  0  0
   62.8230   33.5710   46.4420 C   0  0  0  0  0  0  0  0  0  0  0  0
   61.5450   33.1280   46.7740 C   0  0  0  0  0  0  0  0  0  0  0  0
   61.1550   32.9970   48.1250 C   0  0  0  0  0  0  0  0  0  0  0  0
   60.8081   29.2560   49.5798 H   0  0  0  0  0  0  0  0  0  0  0  0
   60.8599   28.3587   48.0245 H   0  0  0  0  0  0  0  0  0  0  0  0
   60.8235   30.1546   48.0245 H   0  0  0  0  0  0  0  0  0  0  0  0
   58.5817   28.4054   49.1544 H   0  0  0  0  0  0  0  0  0  0  0  0
   58.5682   30.1958   48.8486 H   0  0  0  0  0  0  0  0  0  0  0  0
   59.0210   29.4730   46.4350 H   0  0  0  0  0  0  0  0  0  0  0  0
   57.4560   29.4210   47.0870 H   0  0  0  0  0  0  0  0  0  0  0  0
   59.3032   27.1626   46.6088 H   0  0  0  0  0  0  0  0  0  0  0  0
   57.8609   27.0498   47.6991 H   0  0  0  0  0  0  0  0  0  0  0  0
   57.9338   26.7043   44.8802 H   0  0  0  0  0  0  0  0  0  0  0  0
   56.4845   26.7993   45.9685 H   0  0  0  0  0  0  0  0  0  0  0  0
   58.9417   28.5130   44.3357 H   0  0  0  0  0  0  0  0  0  0  0  0
   57.6756   28.8427   43.0903 H   0  0  0  0  0  0  0  0  0  0  0  0
   59.2576   30.7630   44.3448 H   0  0  0  0  0  0  0  0  0  0  0  0
   57.6863   31.0585   43.4917 H   0  0  0  0  0  0  0  0  0  0  0  0
   56.6390   30.5360   45.6790 H   0  0  0  0  0  0  0  0  0  0  0  0
   57.4903   32.8408   44.5554 H   0  0  0  0  0  0  0  0  0  0  0  0
   56.3233   32.6644   45.9115 H   0  0  0  0  0  0  0  0  0  0  0  0
   59.1427   33.6026   45.9280 H   0  0  0  0  0  0  0  0  0  0  0  0
   57.8089   33.8922   47.1102 H   0  0  0  0  0  0  0  0  0  0  0  0
   58.5530   31.1880   47.4580 H   0  0  0  0  0  0  0  0  0  0  0  0
   57.3784   32.1114   49.3918 H   0  0  0  0  0  0  0  0  0  0  0  0
   56.6754   32.1615   51.7751 H   0  0  0  0  0  0  0  0  0  0  0  0
   58.3244   32.7203   53.5507 H   0  0  0  0  0  0  0  0  0  0  0  0
   60.6890   33.1940   52.9615 H   0  0  0  0  0  0  0  0  0  0  0  0
   62.3160   33.0938   52.5206 H   0  0  0  0  0  0  0  0  0  0  0  0
   63.4296   32.2125   51.4206 H   0  0  0  0  0  0  0  0  0  0  0  0
   63.4021   34.0086   51.4206 H   0  0  0  0  0  0  0  0  0  0  0  0
   64.0925   34.0415   49.5663 H   0  0  0  0  0  0  0  0  0  0  0  0
   64.7279   34.2727   47.1771 H   0  0  0  0  0  0  0  0  0  0  0  0
   63.1167   33.6588   45.3856 H   0  0  0  0  0  0  0  0  0  0  0  0
   60.8315   32.8774   45.9751 H   0  0  0  0  0  0  0  0  0  0  0  0
  1  2  1  0
  2  3  1  0
  3  4  1  0
  4  5  1  0
  5  6  1  0
  6  7  1  0
  7  8  1  0
  8  9  1  0
  9 10  1  0
 10 11  1  0
 11 12  1  0
 12 13  1  0
 13 14  2  0
 14 15  1  0
 15 16  2  0
 16 17  1  0
 17 18  2  0
 18 19  1  0
 19 20  2  0
 20 21  1  0
 20 22  1  0
 22 23  2  0
 23 24  1  0
 24 25  2  0
 25 26  1  0
 26 27  2  0
 27 13  1  0
 19 14  1  0
 27 22  1  0
  1 28  1  0
  1 29  1  0
  1 30  1  0
  2 31  1  0
  2 32  1  0
  3 33  1  0
  3 34  1  0
  4 35  1  0
  4 36  1  0
  5 37  1  0
  5 38  1  0
  7 39  1  0
  7 40  1  0
  8 41  1  0
  8 42  1  0
  9 43  1  0
 10 44  1  0
 10 45  1  0
 11 46  1  0
 11 47  1  0
 12 48  1  0
 15 49  1  0
 16 50  1  0
 17 51  1  0
 18 52  1  0
 21 53  1  0
 21 54  1  0
 21 55  1  0
 23 56  1  0
 24 57  1  0
 25 58  1  0
 26 59  1  0
M  CHG  2   3   1  20   1
M  END
>  <UniqueID>  (20) 
19

>  <SMILES>  (20) 
CC[NH2+]CCOCCNCCNc1c2ccccc2[n+](C)c2ccccc12

>  <Energy>  (20) 
78.25364183329147

>  <Genealogy>  (20) 
CC[NH2+]CCOCCNCCNc1c2ccccc2[n+](C)c2ccccc12 (protonated)
CC[NH2+]CCOCCNCCNc1c2ccccc2[n+](C)c2ccccc12 (3D coordinates assigned)
CC[NH2+]CCOCCNCCNc1c2ccccc2[n+](C)c2ccccc12 (optimized conformer: 78.25364183329147 kcal/mol)

>  <smiles>  (20) 
CCNCCOCCNCCNc1c2ccccc2[n+](C)c2ccccc12

>  <score_type>  (20) 
oracle

>  <origin>  (20) 
adg

>  <m_score__min__energy>  (20) 
-4.3899999999999997

>  <m_primary>  (20) 
energy

$$$$
20:0
     RDKit          3D

 67 69  0  0  0  0  0  0  0  0999 V2000
   57.4270   30.5070   51.4170 C   0  0  0  0  0  0  0  0  0  0  0  0
   58.4840   30.1710   50.3670 C   0  0  0  0  0  0  0  0  0  0  0  0
   59.5870   31.1560   50.3980 N   0  0  0  0  0  0  0  0  0  0  0  0
   60.7970   30.7980   51.1780 C   0  0  0  0  0  0  0  0  0  0  0  0
   61.5460   29.5550   50.6740 C   0  0  0  0  0  0  0  0  0  0  0  0
   59.1600   32.5710   50.5020 C   0  0  0  0  0  0  0  0  0  0  0  0
   60.3040   33.5650   50.7720 C   0  0  0  0  0  0  0  0  0  0  0  0
   61.3960   33.3540   49.8980 O   0  0  0  0  0  0  0  0  0  0  0  0
   62.5970   33.8950   50.4220 C   0  0  0  0  0  0  0  0  0  0  0  0
   63.7190   33.8120   49.3840 C   0  0  0  0  0  0  0  0  0  0  0  0
   63.1900   33.6060   48.0850 O   0  0  0  0  0  0  0  0  0  0  0  0
   63.7030   32.4240   47.4970 C   0  0  0  0  0  0  0  0  0  0  0  0
   62.6330   31.3280   47.4930 C   0  0  0  0  0  0  0  0  0  0  0  0
   61.3650   31.8320   48.0450 N   0  0  0  0  0  0  0  0  0  0  0  0
   60.2820   31.6560   47.0890 C   0  0  0  0  0  0  0  0  0  0  0  0
   59.7320   32.7730   46.4060 C   0  0  0  0  0  0  0  0  0  0  0  0
   60.1100   34.1020   46.7220 C   0  0  0  0  0  0  0  0  0  0  0  0
   59.6470   35.1800   45.9730 C   0  0  0  0  0  0  0  0  0  0  0  0
   58.8010   34.9650   44.8950 C   0  0  0  0  0  0  0  0  0  0  0  0
   58.3680   33.6770   44.5940 C   0  0  0  0  0  0  0  0  0  0  0  0
   58.7730   32.5630   45.3740 C   0  0  0  0  0  0  0  0  0  0  0  0
   58.2670   31.3000   45.1390 N   0  0  0  0  0  0  0  0  0  0  0  0
   57.0590   31.1360   44.2960 C   0  0  0  0  0  0  0  0  0  0  0  0
   58.8460   30.1950   45.7320 C   0  0  0  0  0  0  0  0  0  0  0  0
   58.5140   28.8780   45.3180 C   0  0  0  0  0  0  0  0  0  0  0  0
   59.0290   27.7540   45.9720 C   0  0  0  0  0  0  0  0  0  0  0  0
   58.6250   26.3720   45.5400 C   0  0  0  0  0  0  0  0  0  0  0  0
   59.8660   27.9290   47.0740 C   0  0  0  0  0  0  0  0  0  0  0  0
   60.3250   26.8560   47.7660 F   0  0  0  0  0  0  0  0  0  0  0  0
   60.2560   29.2070   47.4610 C   0  0  0  0  0  0  0  0  0  0  0  0
   59.8060   30.3570   46.7680 C   0  0  0  0  0  0  0  0  0  0  0  0
   57.8527   30.3717   52.4222 H   0  0  0  0  0  0  0  0  0  0  0  0
   57.1056   31.5516   51.2925 H   0  0  0  0  0  0  0  0  0  0  0  0
   56.5614   29.8397   51.2925 H   0  0  0  0  0  0  0  0  0  0  0  0
   58.8894   29.1690   50.5712 H   0  0  0  0  0  0  0  0  0  0  0  0
   58.0144   30.1987   49.3726 H   0  0  0  0  0  0  0  0  0  0  0  0
   61.4900   31.6516   51.1449 H   0  0  0  0  0  0  0  0  0  0  0  0
   60.4500   30.5587   52.1940 H   0  0  0  0  0  0  0  0  0  0  0  0
   61.9004   28.9669   51.5334 H   0  0  0  0  0  0  0  0  0  0  0  0
   60.8677   28.9405   50.0639 H   0  0  0  0  0  0  0  0  0  0  0  0
   62.4062   29.8676   50.0639 H   0  0  0  0  0  0  0  0  0  0  0  0
   58.6752   32.8539   49.5560 H   0  0  0  0  0  0  0  0  0  0  0  0
   58.4831   32.6307   51.3670 H   0  0  0  0  0  0  0  0  0  0  0  0
   59.9274   34.5890   50.6316 H   0  0  0  0  0  0  0  0  0  0  0  0
   60.6551   33.4127   51.8033 H   0  0  0  0  0  0  0  0  0  0  0  0
   62.4317   34.9481   50.6932 H   0  0  0  0  0  0  0  0  0  0  0  0
   62.8903   33.3166   51.3105 H   0  0  0  0  0  0  0  0  0  0  0  0
   64.2909   34.7516   49.3955 H   0  0  0  0  0  0  0  0  0  0  0  0
   64.3711   32.9632   49.6374 H   0  0  0  0  0  0  0  0  0  0  0  0
   64.0095   32.6364   46.4621 H   0  0  0  0  0  0  0  0  0  0  0  0
   64.5685   32.0787   48.0815 H   0  0  0  0  0  0  0  0  0  0  0  0
   62.4671   30.9900   46.4594 H   0  0  0  0  0  0  0  0  0  0  0  0
   62.9820   30.4929   48.1182 H   0  0  0  0  0  0  0  0  0  0  0  0
   61.1500   31.3610   48.9510 H   0  0  0  0  0  0  0  0  0  0  0  0
   61.4600   32.8340   48.3230 H   0  0  0  0  0  0  0  0  0  0  0  0
   60.7811   34.2847   47.5742 H   0  0  0  0  0  0  0  0  0  0  0  0
   59.9523   36.2035   46.2362 H   0  0  0  0  0  0  0  0  0  0  0  0
   58.4719   35.8136   44.2772 H   0  0  0  0  0  0  0  0  0  0  0  0
   57.6991   33.5196   43.7351 H   0  0  0  0  0  0  0  0  0  0  0  0
   56.1757   31.0161   44.9405 H   0  0  0  0  0  0  0  0  0  0  0  0
   56.9316   32.0251   43.6609 H   0  0  0  0  0  0  0  0  0  0  0  0
   57.1732   30.2451   43.6609 H   0  0  0  0  0  0  0  0  0  0  0  0
   57.8360   28.7384   44.4631 H   0  0  0  0  0  0  0  0  0  0  0  0
   58.4428   25.7488   46.4280 H   0  0  0  0  0  0  0  0  0  0  0  0
   57.7062   26.4299   44.9380 H   0  0  0  0  0  0  0  0  0  0  0  0
   59.4303   25.9259   44.9380 H   0  0  0  0  0  0  0  0  0  0  0  0
   60.9281   29.3268   48.3235 H   0  0  0  0  0  0  0  0  0  0  0  0
  1  2  1  0
  2  3  1  0
  3  4  1  0
  4  5  1  0
  3  6  1  0
  6  7  1  0
  7  8  1  0
  8  9  1  0
  9 10  1  0
 10 11  1  0
 11 12  1  0
 12 13  1  0
 13 14  1  0
 14 15  1  0
 15 16  2  0
 16 17  1  0
 17 18  2  0
 18 19  1  0
 19 20  2  0
 20 21  1  0
 21 22  2  0
 22 23  1  0
 22 24  1  0
 24 25  2  0
 25 26  1  0
 26 27  1  0
 26 28  2  0
 28 29  1  0
 28 30  1  0
 30 31  2  0
 31 15  1  0
 21 16  1  0
 31 24  1  0
  1 32  1  0
  1 33  1  0
  1 34  1  0
  2 35  1  0
  2 36  1  0
  4 37  1  0
  4 38  1  0
  5 39  1  0
  5 40  1  0
  5 41  1  0
  6 42  1  0
  6 43  1  0
  7 44  1  0
  7 45  1  0
  9 46  1  0
  9 47  1  0
 10 48  1  0
 10 49  1  0
 12 50  1  0
 12 51  1  0
 13 52  1  0
 13 53  1  0
 14 54  1  0
 14 55  1  0
 17 56  1  0
 18 57  1  0
 19 58  1  0
 20 59  1  0
 23 60  1  0
 23 61  1  0
 23 62  1  0
 25 63  1  0
 27 64  1  0
 27 65  1  0
 27 66  1  0
 30 67  1  0
M  CHG  2  14   1  22   1
M  END
>  <UniqueID>  (21) 
20

>  <SMILES>  (21) 
CCN(CC)CCOCCOCC[NH2+]c1c2ccccc2[n+](C)c2cc(C)c(F)cc12

>  <Energy>  (21) 
104.50445549020104

>  <Genealogy>  (21) 
CCN(CC)CCOCCOCC[NH2+]c1c2ccccc2[n+](C)c2cc(C)c(F)cc12 (protonated)
CCN(CC)CCOCCOCC[NH2+]c1c2ccccc2[n+](C)c2cc(C)c(F)cc12 (3D coordinates assigned)
CCN(CC)CCOCCOCC[NH2+]c1c2ccccc2[n+](C)c2cc(C)c(F)cc12 (optimized conformer: 104.50445549020104 kcal/mol)

>  <smiles>  (21) 
CCN(CC)CCOCCOCCNc1c2ccccc2[n+](C)c2cc(C)c(F)cc12

>  <score_type>  (21) 
oracle

>  <origin>  (21) 
adg

>  <m_score__min__energy>  (21) 
-4.1200000000000001

>  <m_primary>  (21) 
energy

$$$$
21:0
     RDKit          3D

 66 68  0  0  0  0  0  0  0  0999 V2000
   62.9540   33.3000   47.0590 C   0  0  0  0  0  0  0  0  0  0  0  0
   62.6480   33.0480   48.5350 C   0  0  0  0  0  0  0  0  0  0  0  0
   61.9540   31.7550   48.7250 N   0  0  0  0  0  0  0  0  0  0  0  0
   62.6010   30.9670   49.7980 C   0  0  0  0  0  0  0  0  0  0  0  0
   63.8120   31.7070   50.3650 C   0  0  0  0  0  0  0  0  0  0  0  0
   61.8590   30.9870   47.4570 C   0  0  0  0  0  0  0  0  0  0  0  0
   60.8220   29.8760   47.6130 C   0  0  0  0  0  0  0  0  0  0  0  0
   59.4890   30.4420   47.8160 N   0  0  0  0  0  0  0  0  0  0  0  0
   58.8400   31.1560   46.7560 C   0  0  0  0  0  0  0  0  0  0  0  0
   58.1230   30.4260   45.7880 C   0  0  0  0  0  0  0  0  0  0  0  0
   57.7580   29.0790   46.0080 C   0  0  0  0  0  0  0  0  0  0  0  0
   57.0220   28.3750   45.0580 C   0  0  0  0  0  0  0  0  0  0  0  0
   56.6320   28.9980   43.8790 C   0  0  0  0  0  0  0  0  0  0  0  0
   57.0040   30.3180   43.6300 C   0  0  0  0  0  0  0  0  0  0  0  0
   57.7860   31.0460   44.5620 C   0  0  0  0  0  0  0  0  0  0  0  0
   58.2360   32.3200   44.2910 N   0  0  0  0  0  0  0  0  0  0  0  0
   58.2250   32.8230   42.8990 C   0  0  0  0  0  0  0  0  0  0  0  0
   58.7060   33.1200   45.3170 C   0  0  0  0  0  0  0  0  0  0  0  0
   58.8780   34.5110   45.1250 C   0  0  0  0  0  0  0  0  0  0  0  0
   59.3490   35.3270   46.1390 C   0  0  0  0  0  0  0  0  0  0  0  0
   59.6050   34.8020   47.3920 C   0  0  0  0  0  0  0  0  0  0  0  0
   59.4150   33.4370   47.6700 C   0  0  0  0  0  0  0  0  0  0  0  0
   59.4890   33.0320   49.0630 N   0  0  0  0  0  0  0  0  0  0  0  0
   59.7220   34.1990   49.9340 C   0  0  0  0  0  0  0  0  0  0  0  0
   59.5980   33.8390   51.4280 C   0  0  0  0  0  0  0  0  0  0  0  0
   58.5730   32.7270   51.7230 C   0  0  0  0  0  0  0  0  0  0  0  0
   59.1850   31.3180   51.7900 C   0  0  0  0  0  0  0  0  0  0  0  0
   59.4560   30.8030   50.4500 N   0  0  0  0  0  0  0  0  0  0  0  0
   59.0020   32.5580   46.6010 C   0  0  0  0  0  0  0  0  0  0  0  0
   63.8006   33.9972   46.9739 H   0  0  0  0  0  0  0  0  0  0  0  0
   63.2118   32.3488   46.5704 H   0  0  0  0  0  0  0  0  0  0  0  0
   62.0699   33.7354   46.5704 H   0  0  0  0  0  0  0  0  0  0  0  0
   63.5918   33.0349   49.0998 H   0  0  0  0  0  0  0  0  0  0  0  0
   61.9905   33.8524   48.8964 H   0  0  0  0  0  0  0  0  0  0  0  0
   61.8744   30.7939   50.6055 H   0  0  0  0  0  0  0  0  0  0  0  0
   62.9409   30.0103   49.3747 H   0  0  0  0  0  0  0  0  0  0  0  0
   63.7742   31.6839   51.4641 H   0  0  0  0  0  0  0  0  0  0  0  0
   64.7350   31.2185   50.0195 H   0  0  0  0  0  0  0  0  0  0  0  0
   63.7984   32.7512   50.0195 H   0  0  0  0  0  0  0  0  0  0  0  0
   61.5555   31.6605   46.6419 H   0  0  0  0  0  0  0  0  0  0  0  0
   62.8383   30.5450   47.2209 H   0  0  0  0  0  0  0  0  0  0  0  0
   60.8170   29.2558   46.7046 H   0  0  0  0  0  0  0  0  0  0  0  0
   61.0854   29.2650   48.4890 H   0  0  0  0  0  0  0  0  0  0  0  0
   58.9190   30.0760   48.6090 H   0  0  0  0  0  0  0  0  0  0  0  0
   58.0588   28.5801   46.9411 H   0  0  0  0  0  0  0  0  0  0  0  0
   56.7494   27.3252   45.2413 H   0  0  0  0  0  0  0  0  0  0  0  0
   56.0288   28.4488   43.1411 H   0  0  0  0  0  0  0  0  0  0  0  0
   56.6857   30.8027   42.6953 H   0  0  0  0  0  0  0  0  0  0  0  0
   58.2009   33.9227   42.9067 H   0  0  0  0  0  0  0  0  0  0  0  0
   59.1309   32.4797   42.3779 H   0  0  0  0  0  0  0  0  0  0  0  0
   57.3350   32.4404   42.3779 H   0  0  0  0  0  0  0  0  0  0  0  0
   58.6321   34.9538   44.1485 H   0  0  0  0  0  0  0  0  0  0  0  0
   59.5201   36.3965   45.9472 H   0  0  0  0  0  0  0  0  0  0  0  0
   59.9657   35.4677   48.1900 H   0  0  0  0  0  0  0  0  0  0  0  0
   60.2900   32.3700   49.1970 H   0  0  0  0  0  0  0  0  0  0  0  0
   58.6590   32.4790   49.3490 H   0  0  0  0  0  0  0  0  0  0  0  0
   60.7339   34.5867   49.7450 H   0  0  0  0  0  0  0  0  0  0  0  0
   58.9566   34.9542   49.7020 H   0  0  0  0  0  0  0  0  0  0  0  0
   60.5830   33.5050   51.7860 H   0  0  0  0  0  0  0  0  0  0  0  0
   59.2432   34.7432   51.9443 H   0  0  0  0  0  0  0  0  0  0  0  0
   58.0955   32.9436   52.6900 H   0  0  0  0  0  0  0  0  0  0  0  0
   57.8556   32.7244   50.8892 H   0  0  0  0  0  0  0  0  0  0  0  0
   60.1269   31.3610   52.3566 H   0  0  0  0  0  0  0  0  0  0  0  0
   58.4685   30.6469   52.2861 H   0  0  0  0  0  0  0  0  0  0  0  0
   59.5350   29.7620   50.5180 H   0  0  0  0  0  0  0  0  0  0  0  0
   60.3990   31.1430   50.1510 H   0  0  0  0  0  0  0  0  0  0  0  0
  1  2  1  0
  2  3  1  0
  3  4  1  0
  4  5  1  0
  3  6  1  0
  6  7  1  0
  7  8  1  0
  8  9  1  0
  9 10  2  0
 10 11  1  0
 11 12  2  0
 12 13  1  0
 13 14  2  0
 14 15  1  0
 15 16  2  0
 16 17  1  0
 16 18  1  0
 18 19  2  0
 19 20  1  0
 20 21  2  0
 21 22  1  0
 22 23  1  0
 23 24  1  0
 24 25  1  0
 25 26  1  0
 26 27  1  0
 27 28  1  0
 22 29  2  0
 29  9  1  0
 15 10  1  0
 29 18  1  0
  1 30  1  0
  1 31  1  0
  1 32  1  0
  2 33  1  0
  2 34  1  0
  4 35  1  0
  4 36  1  0
  5 37  1  0
  5 38  1  0
  5 39  1  0
  6 40  1  0
  6 41  1  0
  7 42  1  0
  7 43  1  0
  8 44  1  0
 11 45  1  0
 12 46  1  0
 13 47  1  0
 14 48  1  0
 17 49  1  0
 17 50  1  0
 17 51  1  0
 19 52  1  0
 20 53  1  0
 21 54  1  0
 23 55  1  0
 23 56  1  0
 24 57  1  0
 24 58  1  0
 25 59  1  0
 25 60  1  0
 26 61  1  0
 26 62  1  0
 27 63  1  0
 27 64  1  0
 28 65  1  0
 28 66  1  0
M  CHG  2  16   1  23   1
M  END
>  <UniqueID>  (22) 
21

>  <SMILES>  (22) 
CCN(CC)CCNc1c2ccccc2[n+](C)c2cccc([NH2+]CCCCN)c12

>  <Energy>  (22) 
96.66509363775788

>  <Genealogy>  (22) 
CCN(CC)CCNc1c2ccccc2[n+](C)c2cccc([NH2+]CCCCN)c12 (protonated)
CCN(CC)CCNc1c2ccccc2[n+](C)c2cccc([NH2+]CCCCN)c12 (3D coordinates assigned)
CCN(CC)CCNc1c2ccccc2[n+](C)c2cccc([NH2+]CCCCN)c12 (optimized conformer: 96.66509363775788 kcal/mol)

>  <smiles>  (22) 
CCN(CC)CCNc1c2ccccc2[n+](C)c2cccc(NCCCCN)c12

>  <score_type>  (22) 
oracle

>  <origin>  (22) 
adg

>  <m_score__min__energy>  (22) 
-3.02

>  <m_primary>  (22) 
energy

$$$$
22:0
     RDKit          3D

 60 62  0  0  0  0  0  0  0  0999 V2000
   62.9640   33.0720   47.1320 C   0  0  0  0  0  0  0  0  0  0  0  0
   62.0790   31.9190   47.6160 C   0  0  0  0  0  0  0  0  0  0  0  0
   61.4260   32.2140   48.9040 N   0  0  0  0  0  0  0  0  0  0  0  0
   61.4520   33.6510   49.2240 C   0  0  0  0  0  0  0  0  0  0  0  0
   60.0300   34.1790   49.4540 C   0  0  0  0  0  0  0  0  0  0  0  0
   59.2890   33.3540   50.5120 C   0  0  0  0  0  0  0  0  0  0  0  0
   58.5530   32.2500   49.8760 N   0  0  0  0  0  0  0  0  0  0  0  0
   58.0860   31.2670   50.8640 C   0  0  0  0  0  0  0  0  0  0  0  0
   59.0760   30.1030   51.0510 C   0  0  0  0  0  0  0  0  0  0  0  0
   60.3170   30.2780   50.2810 N   0  0  0  0  0  0  0  0  0  0  0  0
   60.7070   29.0460   49.5770 C   0  0  0  0  0  0  0  0  0  0  0  0
   60.3550   29.1180   48.0850 C   0  0  0  0  0  0  0  0  0  0  0  0
   59.3340   30.1310   47.8020 N   0  0  0  0  0  0  0  0  0  0  0  0
   58.7320   30.3320   46.5080 C   0  0  0  0  0  0  0  0  0  0  0  0
   58.5260   31.6310   45.9910 C   0  0  0  0  0  0  0  0  0  0  0  0
   58.7990   32.7730   46.7730 C   0  0  0  0  0  0  0  0  0  0  0  0
   58.6530   34.0510   46.2420 C   0  0  0  0  0  0  0  0  0  0  0  0
   58.2480   34.2180   44.9230 C   0  0  0  0  0  0  0  0  0  0  0  0
   57.9390   33.1090   44.1370 C   0  0  0  0  0  0  0  0  0  0  0  0
   58.0260   31.7940   44.6590 C   0  0  0  0  0  0  0  0  0  0  0  0
   57.6500   30.6880   43.9110 N   0  0  0  0  0  0  0  0  0  0  0  0
   56.9790   30.8470   42.6050 C   0  0  0  0  0  0  0  0  0  0  0  0
   57.9180   29.4320   44.4010 C   0  0  0  0  0  0  0  0  0  0  0  0
   57.7610   28.2130   43.7040 C   0  0  0  0  0  0  0  0  0  0  0  0
   58.1480   27.1020   44.4440 C   0  0  0  0  0  0  0  0  0  0  0  0
   58.7010   27.6170   45.9460 S   0  0  0  0  0  0  0  0  0  0  0  0
   58.4360   29.2550   45.6750 C   0  0  0  0  0  0  0  0  0  0  0  0
   63.3753   33.6079   48.0001 H   0  0  0  0  0  0  0  0  0  0  0  0
   63.7885   32.6711   46.5242 H   0  0  0  0  0  0  0  0  0  0  0  0
   62.3636   33.7649   46.5242 H   0  0  0  0  0  0  0  0  0  0  0  0
   61.3017   31.7295   46.8611 H   0  0  0  0  0  0  0  0  0  0  0  0
   62.7236   31.0395   47.7606 H   0  0  0  0  0  0  0  0  0  0  0  0
   60.4290   31.9030   48.8360 H   0  0  0  0  0  0  0  0  0  0  0  0
   61.8840   31.6670   49.6710 H   0  0  0  0  0  0  0  0  0  0  0  0
   62.0476   33.8076   50.1355 H   0  0  0  0  0  0  0  0  0  0  0  0
   61.8996   34.1944   48.3788 H   0  0  0  0  0  0  0  0  0  0  0  0
   60.0871   35.2244   49.7913 H   0  0  0  0  0  0  0  0  0  0  0  0
   59.4761   34.1030   48.5067 H   0  0  0  0  0  0  0  0  0  0  0  0
   60.0172   32.9410   51.2255 H   0  0  0  0  0  0  0  0  0  0  0  0
   58.5742   34.0048   51.0369 H   0  0  0  0  0  0  0  0  0  0  0  0
   57.6960   32.6470   49.4220 H   0  0  0  0  0  0  0  0  0  0  0  0
   57.9519   31.7747   51.8305 H   0  0  0  0  0  0  0  0  0  0  0  0
   57.1399   30.8449   50.4941 H   0  0  0  0  0  0  0  0  0  0  0  0
   59.3325   30.0284   52.1181 H   0  0  0  0  0  0  0  0  0  0  0  0
   58.5852   29.1898   50.6832 H   0  0  0  0  0  0  0  0  0  0  0  0
   61.0670   30.5130   50.9740 H   0  0  0  0  0  0  0  0  0  0  0  0
   61.7925   28.9022   49.6820 H   0  0  0  0  0  0  0  0  0  0  0  0
   60.1567   28.2040   50.0222 H   0  0  0  0  0  0  0  0  0  0  0  0
   61.2649   29.3651   47.5185 H   0  0  0  0  0  0  0  0  0  0  0  0
   59.9496   28.1397   47.7876 H   0  0  0  0  0  0  0  0  0  0  0  0
   58.9330   30.6420   48.6200 H   0  0  0  0  0  0  0  0  0  0  0  0
   59.1311   32.6518   47.8146 H   0  0  0  0  0  0  0  0  0  0  0  0
   58.8588   34.9317   46.8681 H   0  0  0  0  0  0  0  0  0  0  0  0
   58.1710   35.2295   44.4976 H   0  0  0  0  0  0  0  0  0  0  0  0
   57.6223   33.2568   43.0940 H   0  0  0  0  0  0  0  0  0  0  0  0
   55.9200   31.0979   42.7650 H   0  0  0  0  0  0  0  0  0  0  0  0
   57.4657   31.6547   42.0386 H   0  0  0  0  0  0  0  0  0  0  0  0
   57.0515   29.9068   42.0386 H   0  0  0  0  0  0  0  0  0  0  0  0
   57.3711   28.1496   42.6774 H   0  0  0  0  0  0  0  0  0  0  0  0
   58.1003   26.0573   44.1030 H   0  0  0  0  0  0  0  0  0  0  0  0
  1  2  1  0
  2  3  1  0
  3  4  1  0
  4  5  1  0
  5  6  1  0
  6  7  1  0
  7  8  1  0
  8  9  1  0
  9 10  1  0
 10 11  1  0
 11 12  1  0
 12 13  1  0
 13 14  1  0
 14 15  2  0
 15 16  1  0
 16 17  2  0
 17 18  1  0
 18 19  2  0
 19 20  1  0
 20 21  2  0
 21 22  1  0
 21 23  1  0
 23 24  1  0
 24 25  2  0
 25 26  1  0
 26 27  1  0
 27 14  1  0
 20 15  1  0
 27 23  2  0
  1 28  1  0
  1 29  1  0
  1 30  1  0
  2 31  1  0
  2 32  1  0
  3 33  1  0
  3 34  1  0
  4 35  1  0
  4 36  1  0
  5 37  1  0
  5 38  1  0
  6 39  1  0
  6 40  1  0
  7 41  1  0
  8 42  1  0
  8 43  1  0
  9 44  1  0
  9 45  1  0
 10 46  1  0
 11 47  1  0
 11 48  1  0
 12 49  1  0
 12 50  1  0
 13 51  1  0
 16 52  1  0
 17 53  1  0
 18 54  1  0
 19 55  1  0
 22 56  1  0
 22 57  1  0
 22 58  1  0
 24 59  1  0
 25 60  1  0
M  CHG  2   3   1  21   1
M  END
>  <UniqueID>  (23) 
22

>  <SMILES>  (23) 
CC[NH2+]CCCNCCNCCNc1c2ccccc2[n+](C)c2ccsc12

>  <Energy>  (23) 
92.8579505521688

>  <Genealogy>  (23) 
CC[NH2+]CCCNCCNCCNc1c2ccccc2[n+](C)c2ccsc12 (protonated)
CC[NH2+]CCCNCCNCCNc1c2ccccc2[n+](C)c2ccsc12 (3D coordinates assigned)
CC[NH2+]CCCNCCNCCNc1c2ccccc2[n+](C)c2ccsc12 (optimized conformer: 92.8579505521688 kcal/mol)

>  <smiles>  (23) 
CCNCCCNCCNCCNc1c2ccccc2[n+](C)c2ccsc12

>  <score_type>  (23) 
oracle

>  <origin>  (23) 
adg

>  <m_score__min__energy>  (23) 
-4.46

>  <m_primary>  (23) 
energy

$$$$
23:0
     RDKit          3D

 49 53  0  0  0  0  0  0  0  0999 V2000
   60.2550   28.3790   47.0400 O   0  0  0  0  0  0  0  0  0  0  0  0
   59.6080   29.4100   46.7040 C   0  0  0  0  0  0  0  0  0  0  0  0
   59.7820   30.6050   47.4210 C   0  0  0  0  0  0  0  0  0  0  0  0
   60.7330   30.7000   48.5570 C   0  0  0  0  0  0  0  0  0  0  0  0
   61.9830   31.2060   48.4580 N   0  0  0  0  0  0  0  0  0  0  0  0
   62.4370   31.0660   49.7200 C   0  0  0  0  0  0  0  0  0  0  0  0
   63.8110   31.4720   50.1590 C   0  0  0  0  0  0  0  0  0  0  0  0
   63.9580   32.9360   50.2570 N   0  0  0  0  0  0  0  0  0  0  0  0
   63.6340   33.7550   49.0630 C   0  0  0  0  0  0  0  0  0  0  0  0
   63.9870   33.1620   47.6910 C   0  0  0  0  0  0  0  0  0  0  0  0
   63.0140   33.8310   46.7370 C   0  0  0  0  0  0  0  0  0  0  0  0
   61.7330   34.0130   47.5400 C   0  0  0  0  0  0  0  0  0  0  0  0
   62.1580   34.1650   48.9990 C   0  0  0  0  0  0  0  0  0  0  0  0
   61.5120   30.5190   50.5260 N   0  0  0  0  0  0  0  0  0  0  0  0
   60.4740   30.3030   49.7830 O   0  0  0  0  0  0  0  0  0  0  0  0
   59.0410   31.7310   47.0450 C   0  0  0  0  0  0  0  0  0  0  0  0
   58.1290   31.6830   46.0270 N   0  0  0  0  0  0  0  0  0  0  0  0
   57.3770   32.9160   45.7200 C   0  0  0  0  0  0  0  0  0  0  0  0
   58.0640   33.8750   44.7490 C   0  0  0  0  0  0  0  0  0  0  0  0
   58.0400   34.1920   46.2300 C   0  0  0  0  0  0  0  0  0  0  0  0
   57.9990   30.5430   45.2610 C   0  0  0  0  0  0  0  0  0  0  0  0
   57.1650   30.5120   44.1180 C   0  0  0  0  0  0  0  0  0  0  0  0
   57.0200   29.3470   43.3680 C   0  0  0  0  0  0  0  0  0  0  0  0
   56.2100   29.3380   42.2800 F   0  0  0  0  0  0  0  0  0  0  0  0
   57.7050   28.1920   43.7290 C   0  0  0  0  0  0  0  0  0  0  0  0
   58.5560   28.1950   44.8350 C   0  0  0  0  0  0  0  0  0  0  0  0
   59.2170   27.0460   45.1340 F   0  0  0  0  0  0  0  0  0  0  0  0
   58.7240   29.3690   45.6070 C   0  0  0  0  0  0  0  0  0  0  0  0
   64.0121   31.0295   51.1458 H   0  0  0  0  0  0  0  0  0  0  0  0
   64.5254   31.1121   49.4039 H   0  0  0  0  0  0  0  0  0  0  0  0
   64.9580   33.1230   50.5080 H   0  0  0  0  0  0  0  0  0  0  0  0
   64.2957   34.6176   49.2306 H   0  0  0  0  0  0  0  0  0  0  0  0
   65.0261   33.3991   47.4188 H   0  0  0  0  0  0  0  0  0  0  0  0
   63.9093   32.0649   47.6726 H   0  0  0  0  0  0  0  0  0  0  0  0
   63.4046   34.8049   46.4071 H   0  0  0  0  0  0  0  0  0  0  0  0
   62.8497   33.2323   45.8289 H   0  0  0  0  0  0  0  0  0  0  0  0
   61.1976   34.9132   47.2037 H   0  0  0  0  0  0  0  0  0  0  0  0
   61.0546   33.1571   47.4089 H   0  0  0  0  0  0  0  0  0  0  0  0
   62.0385   35.2092   49.3236 H   0  0  0  0  0  0  0  0  0  0  0  0
   61.5409   33.5408   49.6620 H   0  0  0  0  0  0  0  0  0  0  0  0
   61.5840   30.3070   51.5450 H   0  0  0  0  0  0  0  0  0  0  0  0
   59.1960   32.6786   47.5818 H   0  0  0  0  0  0  0  0  0  0  0  0
   56.3762   32.4644   45.7870 H   0  0  0  0  0  0  0  0  0  0  0  0
   59.0077   33.5839   44.2646 H   0  0  0  0  0  0  0  0  0  0  0  0
   57.7584   34.4068   43.8358 H   0  0  0  0  0  0  0  0  0  0  0  0
   58.9667   34.1314   46.8196 H   0  0  0  0  0  0  0  0  0  0  0  0
   57.7099   35.0496   46.8346 H   0  0  0  0  0  0  0  0  0  0  0  0
   56.6234   31.4210   43.8174 H   0  0  0  0  0  0  0  0  0  0  0  0
   57.5755   27.2719   43.1402 H   0  0  0  0  0  0  0  0  0  0  0  0
  1  2  2  0
  2  3  1  0
  3  4  1  0
  4  5  2  0
  5  6  1  0
  6  7  1  0
  7  8  1  0
  8  9  1  0
  9 10  1  0
 10 11  1  0
 11 12  1  0
 12 13  1  0
  6 14  2  0
 14 15  1  0
  3 16  2  0
 16 17  1  0
 17 18  1  0
 18 19  1  0
 19 20  1  0
 17 21  1  0
 21 22  2  0
 22 23  1  0
 23 24  1  0
 23 25  2  0
 25 26  1  0
 26 27  1  0
 26 28  2  0
 28  2  1  0
 15  4  1  0
 20 18  1  0
 28 21  1  0
 13  9  1  0
  7 29  1  0
  7 30  1  0
  8 31  1  0
  9 32  1  0
 10 33  1  0
 10 34  1  0
 11 35  1  0
 11 36  1  0
 12 37  1  0
 12 38  1  0
 13 39  1  0
 13 40  1  0
 14 41  1  0
 16 42  1  0
 18 43  1  0
 19 44  1  0
 19 45  1  0
 20 46  1  0
 20 47  1  0
 22 48  1  0
 25 49  1  0
M  CHG  1  14   1
M  END
>  <UniqueID>  (24) 
23

>  <SMILES>  (24) 
O=c1c(-c2nc(CNC3CCCC3)[nH+]o2)cn(C2CC2)c2cc(F)cc(F)c12

>  <Energy>  (24) 
371.91802869691577

>  <Genealogy>  (24) 
O=c1c(-c2nc(CNC3CCCC3)[nH+]o2)cn(C2CC2)c2cc(F)cc(F)c12 (protonated)
O=c1c(-c2nc(CNC3CCCC3)[nH+]o2)cn(C2CC2)c2cc(F)cc(F)c12 (3D coordinates assigned)
O=c1c(-c2nc(CNC3CCCC3)[nH+]o2)cn(C2CC2)c2cc(F)cc(F)c12 (nonaromatic ring conformer: 371.91802869691577 kcal/mol)

>  <smiles>  (24) 
O=c1c(-c2nc(CNC3CCCC3)no2)cn(C2CC2)c2cc(F)cc(F)c12

>  <score_type>  (24) 
oracle

>  <origin>  (24) 
adg

>  <m_score__min__energy>  (24) 
-6.7699999999999996

>  <m_primary>  (24) 
energy

$$$$
24:0
     RDKit          3D

 54 56  0  0  0  0  0  0  0  0999 V2000
   56.2850   29.6760   42.7610 C   0  0  0  0  0  0  0  0  0  0  0  0
   55.7160   30.0880   44.1110 C   0  0  0  0  0  0  0  0  0  0  0  0
   56.7160   30.8430   44.8570 N   0  0  0  0  0  0  0  0  0  0  0  0
   57.5260   31.9010   44.3230 C   0  0  0  0  0  0  0  0  0  0  0  0
   57.4390   32.1590   43.0920 O   0  0  0  0  0  0  0  0  0  0  0  0
   58.4810   32.7040   45.1810 C   0  0  1  0  0  0  0  0  0  0  0  0
   58.5000   34.1690   44.7270 C   0  0  0  0  0  0  0  0  0  0  0  0
   59.5010   34.9930   45.5640 C   0  0  0  0  0  0  0  0  0  0  0  0
   59.5200   34.6480   47.0190 N   0  0  2  0  0  0  0  0  0  0  0  0
   60.7590   33.9230   47.4140 C   0  0  0  0  0  0  0  0  0  0  0  0
   60.7170   33.4400   48.8770 C   0  0  0  0  0  0  0  0  0  0  0  0
   61.0110   32.0440   48.9720 O   0  0  0  0  0  0  0  0  0  0  0  0
   60.5150   31.0430   48.1220 C   0  0  0  0  0  0  0  0  0  0  0  0
   61.0550   30.7860   46.8460 C   0  0  0  0  0  0  0  0  0  0  0  0
   60.5130   29.7810   46.0400 C   0  0  0  0  0  0  0  0  0  0  0  0
   59.4260   29.0100   46.4890 C   0  0  0  0  0  0  0  0  0  0  0  0
   58.8450   27.9470   45.6280 C   0  0  0  0  0  0  0  0  0  0  0  0
   58.8210   28.0940   44.2280 C   0  0  0  0  0  0  0  0  0  0  0  0
   58.2790   27.0900   43.4190 C   0  0  0  0  0  0  0  0  0  0  0  0
   57.7560   25.9300   43.9960 C   0  0  0  0  0  0  0  0  0  0  0  0
   57.2320   24.9580   43.2100 F   0  0  0  0  0  0  0  0  0  0  0  0
   57.7730   25.7740   45.3850 C   0  0  0  0  0  0  0  0  0  0  0  0
   58.3140   26.7740   46.1980 C   0  0  0  0  0  0  0  0  0  0  0  0
   58.8970   29.2640   47.7670 C   0  0  0  0  0  0  0  0  0  0  0  0
   59.4400   30.2680   48.5730 C   0  0  0  0  0  0  0  0  0  0  0  0
   58.3080   33.9100   47.4480 C   0  0  0  0  0  0  0  0  0  0  0  0
   58.1190   32.5850   46.6820 C   0  0  0  0  0  0  0  0  0  0  0  0
   57.1672   29.0372   42.9145 H   0  0  0  0  0  0  0  0  0  0  0  0
   55.5228   29.1190   42.1964 H   0  0  0  0  0  0  0  0  0  0  0  0
   56.5763   30.5740   42.1964 H   0  0  0  0  0  0  0  0  0  0  0  0
   54.8253   30.7146   43.9564 H   0  0  0  0  0  0  0  0  0  0  0  0
   55.4406   29.1877   44.6799 H   0  0  0  0  0  0  0  0  0  0  0  0
   59.4926   32.2909   45.0544 H   0  0  0  0  0  0  0  0  0  0  0  0
   57.4934   34.5960   44.8468 H   0  0  0  0  0  0  0  0  0  0  0  0
   58.8105   34.2057   43.6724 H   0  0  0  0  0  0  0  0  0  0  0  0
   59.2380   36.0566   45.4659 H   0  0  0  0  0  0  0  0  0  0  0  0
   60.5028   34.7614   45.1731 H   0  0  0  0  0  0  0  0  0  0  0  0
   59.4940   35.5500   47.5530 H   0  0  0  0  0  0  0  0  0  0  0  0
   60.8815   33.0493   46.7571 H   0  0  0  0  0  0  0  0  0  0  0  0
   61.6022   34.6227   47.3163 H   0  0  0  0  0  0  0  0  0  0  0  0
   61.4594   34.0031   49.4617 H   0  0  0  0  0  0  0  0  0  0  0  0
   59.7033   33.6087   49.2693 H   0  0  0  0  0  0  0  0  0  0  0  0
   61.9071   31.3792   46.4826 H   0  0  0  0  0  0  0  0  0  0  0  0
   60.9409   29.5912   45.0446 H   0  0  0  0  0  0  0  0  0  0  0  0
   59.2313   29.0047   43.7673 H   0  0  0  0  0  0  0  0  0  0  0  0
   58.2645   27.2139   42.3261 H   0  0  0  0  0  0  0  0  0  0  0  0
   57.3594   24.8617   45.8395 H   0  0  0  0  0  0  0  0  0  0  0  0
   58.3250   26.6438   47.2902 H   0  0  0  0  0  0  0  0  0  0  0  0
   58.0491   28.6676   48.1350 H   0  0  0  0  0  0  0  0  0  0  0  0
   59.0183   30.4513   49.5723 H   0  0  0  0  0  0  0  0  0  0  0  0
   57.4278   34.5464   47.2739 H   0  0  0  0  0  0  0  0  0  0  0  0
   58.4267   33.6650   48.5138 H   0  0  0  0  0  0  0  0  0  0  0  0
   57.0664   32.2770   46.7665 H   0  0  0  0  0  0  0  0  0  0  0  0
   58.7977   31.8437   47.1291 H   0  0  0  0  0  0  0  0  0  0  0  0
  1  2  1  0
  2  3  1  0
  3  4  1  0
  4  5  2  0
  4  6  1  0
  6  7  1  0
  7  8  1  0
  8  9  1  0
  9 10  1  0
 10 11  1  0
 11 12  1  0
 12 13  1  0
 13 14  2  0
 14 15  1  0
 15 16  2  0
 16 17  1  0
 17 18  2  0
 18 19  1  0
 19 20  2  0
 20 21  1  0
 20 22  1  0
 22 23  2  0
 16 24  1  0
 24 25  2  0
  9 26  1  0
 26 27  1  0
 27  6  1  0
 25 13  1  0
 23 17  1  0
  1 28  1  0
  1 29  1  0
  1 30  1  0
  2 31  1  0
  2 32  1  0
  6 33  1  1
  7 34  1  0
  7 35  1  0
  8 36  1  0
  8 37  1  0
  9 38  1  1
 10 39  1  0
 10 40  1  0
 11 41  1  0
 11 42  1  0
 14 43  1  0
 15 44  1  0
 18 45  1  0
 19 46  1  0
 22 47  1  0
 23 48  1  0
 24 49  1  0
 25 50  1  0
 26 51  1  0
 26 52  1  0
 27 53  1  0
 27 54  1  0
M  CHG  2   3  -1   9   1
M  END
>  <UniqueID>  (25) 
24

>  <SMILES>  (25) 
CC[N-]C(=O)C1CC[NH+](CCOc2ccc(-c3ccc(F)cc3)cc2)CC1

>  <Energy>  (25) 
65.9693165232709

>  <Genealogy>  (25) 
CC[N-]C(=O)C1CC[NH+](CCOc2ccc(-c3ccc(F)cc3)cc2)CC1 (protonated)
CC[N-]C(=O)C1CC[NH+](CCOc2ccc(-c3ccc(F)cc3)cc2)CC1 (3D coordinates assigned)
CC[N-]C(=O)C1CC[NH+](CCOc2ccc(-c3ccc(F)cc3)cc2)CC1 (nonaromatic ring conformer: 65.9693165232709 kcal/mol)

>  <smiles>  (25) 
CCNC(=O)C1CCN(CCOc2ccc(-c3ccc(F)cc3)cc2)CC1

>  <score_type>  (25) 
oracle

>  <origin>  (25) 
adg

>  <m_score__min__energy>  (25) 
-9.75

>  <m_primary>  (25) 
energy

$$$$
25:0
     RDKit          3D

 60 63  0  0  0  0  0  0  0  0999 V2000
   62.5800   32.6540   47.4830 C   0  0  0  0  0  0  0  0  0  0  0  0
   61.9190   33.8380   46.7840 C   0  0  0  0  0  0  0  0  0  0  0  0
   60.5150   33.9640   47.2000 N   0  0  0  0  0  0  0  0  0  0  0  0
   59.6910   34.5510   46.1340 C   0  0  0  0  0  0  0  0  0  0  0  0
   58.6260   33.5540   45.6600 C   0  0  0  0  0  0  0  0  0  0  0  0
   58.3290   32.5310   46.6700 N   0  0  0  0  0  0  0  0  0  0  0  0
   58.3800   31.1180   46.4100 C   0  0  0  0  0  0  0  0  0  0  0  0
   57.7830   30.6160   45.2540 C   0  0  0  0  0  0  0  0  0  0  0  0
   57.0180   31.4670   44.0200 S   0  0  0  0  0  0  0  0  0  0  0  0
   56.6850   30.1260   43.0590 C   0  0  0  0  0  0  0  0  0  0  0  0
   57.1860   28.9960   43.6910 C   0  0  0  0  0  0  0  0  0  0  0  0
   57.8060   29.2760   44.9220 C   0  0  0  0  0  0  0  0  0  0  0  0
   58.4430   28.3500   45.7530 C   0  0  0  0  0  0  0  0  0  0  0  0
   58.5740   26.9930   45.3010 N   0  0  0  0  0  0  0  0  0  0  0  0
   57.3880   26.1910   45.0020 C   0  0  0  0  0  0  0  0  0  0  0  0
   56.2690   26.4970   46.0040 C   0  0  0  0  0  0  0  0  0  0  0  0
   55.5520   25.2660   46.4010 N   0  0  0  0  0  0  0  0  0  0  0  0
   55.2320   24.4670   45.2070 C   0  0  0  0  0  0  0  0  0  0  0  0
   56.3600   24.4510   47.3270 C   0  0  0  0  0  0  0  0  0  0  0  0
   59.0160   28.7970   46.9830 C   0  0  0  0  0  0  0  0  0  0  0  0
   59.5340   27.8730   47.9230 C   0  0  0  0  0  0  0  0  0  0  0  0
   59.3710   26.5020   47.7330 O   0  0  0  0  0  0  0  0  0  0  0  0
   60.1960   28.3170   49.0770 C   0  0  0  0  0  0  0  0  0  0  0  0
   60.7730   27.3820   49.9620 C   0  0  0  0  0  0  0  0  0  0  0  0
   61.4660   27.8100   51.0930 C   0  0  0  0  0  0  0  0  0  0  0  0
   61.6010   29.1680   51.3530 C   0  0  0  0  0  0  0  0  0  0  0  0
   61.0260   30.1080   50.4980 C   0  0  0  0  0  0  0  0  0  0  0  0
   60.2920   29.7010   49.3570 C   0  0  0  0  0  0  0  0  0  0  0  0
   59.6560   30.6370   48.5010 C   0  0  0  0  0  0  0  0  0  0  0  0
   59.6120   31.9930   48.8410 O   0  0  0  0  0  0  0  0  0  0  0  0
   59.0320   30.1990   47.2970 C   0  0  0  0  0  0  0  0  0  0  0  0
   62.5072   32.7843   48.5728 H   0  0  0  0  0  0  0  0  0  0  0  0
   62.0705   31.7242   47.1901 H   0  0  0  0  0  0  0  0  0  0  0  0
   63.6389   32.5998   47.1901 H   0  0  0  0  0  0  0  0  0  0  0  0
   62.4583   34.7602   47.0463 H   0  0  0  0  0  0  0  0  0  0  0  0
   61.9542   33.6738   45.6969 H   0  0  0  0  0  0  0  0  0  0  0  0
   60.1470   33.0020   47.3900 H   0  0  0  0  0  0  0  0  0  0  0  0
   59.1944   35.4545   46.5176 H   0  0  0  0  0  0  0  0  0  0  0  0
   60.3412   34.8044   45.2837 H   0  0  0  0  0  0  0  0  0  0  0  0
   57.7017   34.1055   45.4332 H   0  0  0  0  0  0  0  0  0  0  0  0
   59.0184   33.0420   44.7690 H   0  0  0  0  0  0  0  0  0  0  0  0
   58.0620   32.8510   47.6280 H   0  0  0  0  0  0  0  0  0  0  0  0
   56.1591   30.1422   42.0930 H   0  0  0  0  0  0  0  0  0  0  0  0
   57.1060   27.9826   43.2708 H   0  0  0  0  0  0  0  0  0  0  0  0
   59.4590   26.4810   45.5240 H   0  0  0  0  0  0  0  0  0  0  0  0
   57.0386   26.4257   43.9857 H   0  0  0  0  0  0  0  0  0  0  0  0
   57.6505   25.1253   45.0749 H   0  0  0  0  0  0  0  0  0  0  0  0
   56.7072   26.9612   46.8998 H   0  0  0  0  0  0  0  0  0  0  0  0
   55.5504   27.1782   45.5248 H   0  0  0  0  0  0  0  0  0  0  0  0
   54.8395   23.4870   45.5160 H   0  0  0  0  0  0  0  0  0  0  0  0
   54.4749   24.9924   44.6063 H   0  0  0  0  0  0  0  0  0  0  0  0
   56.1424   24.3245   44.6063 H   0  0  0  0  0  0  0  0  0  0  0  0
   56.1024   24.7108   48.3644 H   0  0  0  0  0  0  0  0  0  0  0  0
   56.1523   23.3848   47.1537 H   0  0  0  0  0  0  0  0  0  0  0  0
   57.4280   24.6495   47.1537 H   0  0  0  0  0  0  0  0  0  0  0  0
   60.6751   26.3056   49.7576 H   0  0  0  0  0  0  0  0  0  0  0  0
   61.9062   27.0723   51.7800 H   0  0  0  0  0  0  0  0  0  0  0  0
   62.1637   29.5032   52.2368 H   0  0  0  0  0  0  0  0  0  0  0  0
   61.1442   31.1803   50.7128 H   0  0  0  0  0  0  0  0  0  0  0  0
   60.4070   32.6160   48.8670 H   0  0  0  0  0  0  0  0  0  0  0  0
  1  2  1  0
  2  3  1  0
  3  4  1  0
  4  5  1  0
  5  6  1  0
  6  7  1  0
  7  8  2  0
  8  9  1  0
  9 10  1  0
 10 11  2  0
 11 12  1  0
 12 13  2  0
 13 14  1  0
 14 15  1  0
 15 16  1  0
 16 17  1  0
 17 18  1  0
 17 19  1  0
 13 20  1  0
 20 21  2  0
 21 22  1  0
 21 23  1  0
 23 24  2  0
 24 25  1  0
 25 26  2  0
 26 27  1  0
 27 28  2  0
 28 29  1  0
 29 30  1  0
 29 31  2  0
 31  7  1  0
 12  8  1  0
 31 20  1  0
 28 23  1  0
  1 32  1  0
  1 33  1  0
  1 34  1  0
  2 35  1  0
  2 36  1  0
  3 37  1  0
  4 38  1  0
  4 39  1  0
  5 40  1  0
  5 41  1  0
  6 42  1  0
 10 43  1  0
 11 44  1  0
 14 45  1  0
 15 46  1  0
 15 47  1  0
 16 48  1  0
 16 49  1  0
 18 50  1  0
 18 51  1  0
 18 52  1  0
 19 53  1  0
 19 54  1  0
 19 55  1  0
 24 56  1  0
 25 57  1  0
 26 58  1  0
 27 59  1  0
 30 60  1  0
M  CHG  1  22  -1
M  END
>  <UniqueID>  (26) 
25

>  <SMILES>  (26) 
CCNCCNc1c2sccc2c(NCCN(C)C)c2c([O-])c3ccccc3c(O)c12

>  <Energy>  (26) 
115.50163278980023

>  <Genealogy>  (26) 
CCNCCNc1c2sccc2c(NCCN(C)C)c2c([O-])c3ccccc3c(O)c12 (protonated)
CCNCCNc1c2sccc2c(NCCN(C)C)c2c([O-])c3ccccc3c(O)c12 (3D coordinates assigned)
CCNCCNc1c2sccc2c(NCCN(C)C)c2c([O-])c3ccccc3c(O)c12 (optimized conformer: 115.50163278980023 kcal/mol)

>  <smiles>  (26) 
CCNCCNc1c2sccc2c(NCCN(C)C)c2c(O)c3ccccc3c(O)c12

>  <score_type>  (26) 
oracle

>  <origin>  (26) 
adg

>  <m_score__min__energy>  (26) 
-8.9199999999999999

>  <m_primary>  (26) 
energy

$$$$
26:0
     RDKit          3D

 63 65  0  0  0  0  0  0  0  0999 V2000
   56.9750   21.8040   43.3850 C   0  0  0  0  0  0  0  0  0  0  0  0
   56.3130   23.1240   43.0000 C   0  0  0  0  0  0  0  0  0  0  0  0
   56.0390   23.9230   44.2000 N   0  0  0  0  0  0  0  0  0  0  0  0
   54.8880   23.3920   44.9510 C   0  0  0  0  0  0  0  0  0  0  0  0
   54.1070   24.5290   45.6060 C   0  0  0  0  0  0  0  0  0  0  0  0
   54.9320   25.6710   45.7380 O   0  0  0  0  0  0  0  0  0  0  0  0
   56.0220   25.3730   46.5900 C   0  0  0  0  0  0  0  0  0  0  0  0
   57.0910   26.4600   46.4710 C   0  0  0  0  0  0  0  0  0  0  0  0
   57.8250   26.5650   44.7970 S   0  0  0  0  0  0  0  0  0  0  0  0
   57.8300   28.3640   44.6720 C   0  0  0  0  0  0  0  0  0  0  0  0
   56.6890   29.0060   44.1680 C   0  0  0  0  0  0  0  0  0  0  0  0
   56.6660   30.3940   44.0170 C   0  0  0  0  0  0  0  0  0  0  0  0
   57.7930   31.1520   44.3410 C   0  0  0  0  0  0  0  0  0  0  0  0
   57.7640   33.0510   44.1230 Br  0  0  0  0  0  0  0  0  0  0  0  0
   58.9490   30.5210   44.8070 C   0  0  0  0  0  0  0  0  0  0  0  0
   58.9860   29.1250   44.9700 C   0  0  0  0  0  0  0  0  0  0  0  0
   60.2590   28.4800   45.4600 C   0  0  0  0  0  0  0  0  0  0  0  0
   60.3400   28.6010   46.9200 N   0  0  0  0  0  0  0  0  0  0  0  0
   59.0190   28.5900   47.5690 C   0  0  0  0  0  0  0  0  0  0  0  0
   59.0730   28.7400   49.1000 C   0  0  0  0  0  0  0  0  0  0  0  0
   59.3080   30.1280   49.5000 N   0  0  0  0  0  0  0  0  0  0  0  0
   60.2130   31.0090   48.8060 C   0  0  0  0  0  0  0  0  0  0  0  0
   61.5890   30.7280   48.8070 C   0  0  0  0  0  0  0  0  0  0  0  0
   62.4930   31.5850   48.1880 C   0  0  0  0  0  0  0  0  0  0  0  0
   62.0560   32.7540   47.5650 C   0  0  0  0  0  0  0  0  0  0  0  0
   63.3950   33.8590   46.7410 Br  0  0  0  0  0  0  0  0  0  0  0  0
   60.6800   33.0740   47.5520 C   0  0  0  0  0  0  0  0  0  0  0  0
   60.2100   34.2470   46.9260 C   0  0  0  0  0  0  0  0  0  0  0  0
   58.8430   34.5290   46.8810 C   0  0  0  0  0  0  0  0  0  0  0  0
   57.9270   33.6550   47.4610 C   0  0  0  0  0  0  0  0  0  0  0  0
   58.3680   32.4920   48.0950 C   0  0  0  0  0  0  0  0  0  0  0  0
   59.7470   32.1900   48.1690 C   0  0  0  0  0  0  0  0  0  0  0  0
   57.0168   21.7207   44.4810 H   0  0  0  0  0  0  0  0  0  0  0  0
   56.3899   20.9673   42.9757 H   0  0  0  0  0  0  0  0  0  0  0  0
   57.9955   21.7725   42.9757 H   0  0  0  0  0  0  0  0  0  0  0  0
   56.9843   23.6865   42.3345 H   0  0  0  0  0  0  0  0  0  0  0  0
   55.3641   22.9127   42.4853 H   0  0  0  0  0  0  0  0  0  0  0  0
   55.8060   24.8980   43.8930 H   0  0  0  0  0  0  0  0  0  0  0  0
   54.2257   22.8479   44.2616 H   0  0  0  0  0  0  0  0  0  0  0  0
   55.2566   22.7150   45.7357 H   0  0  0  0  0  0  0  0  0  0  0  0
   53.2362   24.7791   44.9822 H   0  0  0  0  0  0  0  0  0  0  0  0
   53.7723   24.2087   46.6037 H   0  0  0  0  0  0  0  0  0  0  0  0
   55.6681   25.3225   47.6303 H   0  0  0  0  0  0  0  0  0  0  0  0
   56.4561   24.4059   46.2963 H   0  0  0  0  0  0  0  0  0  0  0  0
   56.6325   27.4300   46.7137 H   0  0  0  0  0  0  0  0  0  0  0  0
   57.9011   26.2013   47.1688 H   0  0  0  0  0  0  0  0  0  0  0  0
   55.8061   28.4117   43.8898 H   0  0  0  0  0  0  0  0  0  0  0  0
   55.7589   30.8909   43.6423 H   0  0  0  0  0  0  0  0  0  0  0  0
   59.8382   31.1217   45.0486 H   0  0  0  0  0  0  0  0  0  0  0  0
   60.2621   27.4163   45.1798 H   0  0  0  0  0  0  0  0  0  0  0  0
   61.1237   28.9831   45.0026 H   0  0  0  0  0  0  0  0  0  0  0  0
   60.9320   27.8300   47.3060 H   0  0  0  0  0  0  0  0  0  0  0  0
   58.4259   29.4215   47.1606 H   0  0  0  0  0  0  0  0  0  0  0  0
   58.5700   27.6076   47.3609 H   0  0  0  0  0  0  0  0  0  0  0  0
   58.1158   28.4037   49.5251 H   0  0  0  0  0  0  0  0  0  0  0  0
   59.9073   28.1291   49.4751 H   0  0  0  0  0  0  0  0  0  0  0  0
   58.7730   30.4900   50.3180 H   0  0  0  0  0  0  0  0  0  0  0  0
   61.9567   29.8181   49.3039 H   0  0  0  0  0  0  0  0  0  0  0  0
   63.5649   31.3380   48.1898 H   0  0  0  0  0  0  0  0  0  0  0  0
   60.9263   34.9458   46.4692 H   0  0  0  0  0  0  0  0  0  0  0  0
   58.4885   35.4449   46.3856 H   0  0  0  0  0  0  0  0  0  0  0  0
   56.8515   33.8819   47.4194 H   0  0  0  0  0  0  0  0  0  0  0  0
   57.6351   31.8038   48.5414 H   0  0  0  0  0  0  0  0  0  0  0  0
  1  2  1  0
  2  3  1  0
  3  4  1  0
  4  5  1  0
  5  6  1  0
  6  7  1  0
  7  8  1  0
  8  9  1  0
  9 10  1  0
 10 11  2  0
 11 12  1  0
 12 13  2  0
 13 14  1  0
 13 15  1  0
 15 16  2  0
 16 17  1  0
 17 18  1  0
 18 19  1  0
 19 20  1  0
 20 21  1  0
 21 22  1  0
 22 23  2  0
 23 24  1  0
 24 25  2  0
 25 26  1  0
 25 27  1  0
 27 28  2  0
 28 29  1  0
 29 30  2  0
 30 31  1  0
 31 32  2  0
 16 10  1  0
 32 22  1  0
 32 27  1  0
  1 33  1  0
  1 34  1  0
  1 35  1  0
  2 36  1  0
  2 37  1  0
  3 38  1  0
  4 39  1  0
  4 40  1  0
  5 41  1  0
  5 42  1  0
  7 43  1  0
  7 44  1  0
  8 45  1  0
  8 46  1  0
 11 47  1  0
 12 48  1  0
 15 49  1  0
 17 50  1  0
 17 51  1  0
 18 52  1  0
 19 53  1  0
 19 54  1  0
 20 55  1  0
 20 56  1  0
 21 57  1  0
 23 58  1  0
 24 59  1  0
 28 60  1  0
 29 61  1  0
 30 62  1  0
 31 63  1  0
M  END
>  <UniqueID>  (27) 
26

>  <SMILES>  (27) 
CCNCCOCCSc1ccc(Br)cc1CNCCNc1ccc(Br)c2ccccc12

>  <Energy>  (27) 
62.143461502710956

>  <Genealogy>  (27) 
CCNCCOCCSc1ccc(Br)cc1CNCCNc1ccc(Br)c2ccccc12 (3D coordinates assigned)
CCNCCOCCSc1ccc(Br)cc1CNCCNc1ccc(Br)c2ccccc12 (optimized conformer: 62.143461502710956 kcal/mol)

>  <smiles>  (27) 
CCNCCOCCSc1ccc(Br)cc1CNCCNc1ccc(Br)c2ccccc12

>  <score_type>  (27) 
oracle

>  <origin>  (27) 
adg

>  <m_score__min__energy>  (27) 
-8.6199999999999992

>  <m_primary>  (27) 
energy

$$$$
27:0
     RDKit          3D

 78 80  0  0  0  0  0  0  0  0999 V2000
   65.7210   32.6690   50.0880 C   0  0  0  0  0  0  0  0  0  0  0  0
   64.3040   32.2790   49.6340 C   0  0  0  0  0  0  0  0  0  0  0  0
   63.6660   33.2540   48.7150 N   0  0  0  0  0  0  0  0  0  0  0  0
   63.5540   32.7400   47.3330 C   0  0  0  0  0  0  0  0  0  0  0  0
   63.0730   33.8460   46.3980 C   0  0  0  0  0  0  0  0  0  0  0  0
   62.3830   33.8050   49.2140 C   0  0  0  0  0  0  0  0  0  0  0  0
   61.5660   32.7380   49.9500 C   0  0  0  0  0  0  0  0  0  0  0  0
   60.1530   32.7940   49.5690 N   0  0  0  0  0  0  0  0  0  0  0  0
   59.7360   32.3090   48.2850 C   0  0  0  0  0  0  0  0  0  0  0  0
   59.5140   33.2110   47.2320 C   0  0  0  0  0  0  0  0  0  0  0  0
   59.7730   34.5910   47.3920 C   0  0  0  0  0  0  0  0  0  0  0  0
   59.6480   35.4680   46.3130 C   0  0  0  0  0  0  0  0  0  0  0  0
   59.2730   34.9860   45.0640 C   0  0  0  0  0  0  0  0  0  0  0  0
   58.9760   33.6330   44.8950 C   0  0  0  0  0  0  0  0  0  0  0  0
   59.0460   32.7230   45.9850 C   0  0  0  0  0  0  0  0  0  0  0  0
   58.7040   31.3880   45.8500 N   0  0  0  0  0  0  0  0  0  0  0  0
   57.9350   30.9360   44.6700 C   0  0  0  0  0  0  0  0  0  0  0  0
   59.0880   30.4740   46.8170 C   0  0  0  0  0  0  0  0  0  0  0  0
   59.0090   29.0750   46.6000 C   0  0  0  0  0  0  0  0  0  0  0  0
   59.4680   28.1550   47.5580 C   0  0  0  0  0  0  0  0  0  0  0  0
   59.4430   26.7680   47.3410 O   0  0  0  0  0  0  0  0  0  0  0  0
   59.9570   26.0960   46.1940 C   0  0  0  0  0  0  0  0  0  0  0  0
   58.9080   25.1070   45.6350 C   0  0  0  0  0  0  0  0  0  0  0  0
   57.7710   25.7100   44.8530 N   0  0  0  0  0  0  0  0  0  0  0  0
   57.3820   24.7200   43.8110 C   0  0  0  0  0  0  0  0  0  0  0  0
   56.6050   25.9370   45.7810 C   0  0  0  0  0  0  0  0  0  0  0  0
   55.5040   24.8550   45.7610 C   0  0  0  0  0  0  0  0  0  0  0  0
   58.1550   27.0060   44.2060 C   0  0  0  0  0  0  0  0  0  0  0  0
   58.1410   27.0060   42.6650 C   0  0  0  0  0  0  0  0  0  0  0  0
   60.0050   28.6190   48.7600 C   0  0  0  0  0  0  0  0  0  0  0  0
   60.4900   27.6730   49.6760 O   0  0  0  0  0  0  0  0  0  0  0  0
   61.1620   27.9860   50.8930 C   0  0  0  0  0  0  0  0  0  0  0  0
   60.0590   29.9970   49.0120 C   0  0  0  0  0  0  0  0  0  0  0  0
   59.6150   30.9270   48.0530 C   0  0  0  0  0  0  0  0  0  0  0  0
   65.7636   32.6807   51.1871 H   0  0  0  0  0  0  0  0  0  0  0  0
   66.4447   31.9366   49.7008 H   0  0  0  0  0  0  0  0  0  0  0  0
   65.9680   33.6685   49.7008 H   0  0  0  0  0  0  0  0  0  0  0  0
   64.3622   31.3083   49.1198 H   0  0  0  0  0  0  0  0  0  0  0  0
   63.6811   32.2468   50.5401 H   0  0  0  0  0  0  0  0  0  0  0  0
   64.5386   32.3826   46.9971 H   0  0  0  0  0  0  0  0  0  0  0  0
   62.8287   31.9132   47.3147 H   0  0  0  0  0  0  0  0  0  0  0  0
   62.7040   34.6944   46.9930 H   0  0  0  0  0  0  0  0  0  0  0  0
   63.9078   34.1786   45.7635 H   0  0  0  0  0  0  0  0  0  0  0  0
   62.2605   33.4622   45.7635 H   0  0  0  0  0  0  0  0  0  0  0  0
   62.5941   34.6343   49.9052 H   0  0  0  0  0  0  0  0  0  0  0  0
   61.7976   34.1559   48.3513 H   0  0  0  0  0  0  0  0  0  0  0  0
   61.9657   31.7443   49.6994 H   0  0  0  0  0  0  0  0  0  0  0  0
   61.6422   32.9264   51.0311 H   0  0  0  0  0  0  0  0  0  0  0  0
   59.4180   33.0040   50.2810 H   0  0  0  0  0  0  0  0  0  0  0  0
   60.0760   34.9779   48.3761 H   0  0  0  0  0  0  0  0  0  0  0  0
   59.8463   36.5411   46.4511 H   0  0  0  0  0  0  0  0  0  0  0  0
   59.2103   35.6728   44.2070 H   0  0  0  0  0  0  0  0  0  0  0  0
   58.6826   33.2642   43.9011 H   0  0  0  0  0  0  0  0  0  0  0  0
   57.0312   30.4047   45.0029 H   0  0  0  0  0  0  0  0  0  0  0  0
   57.6459   31.8079   44.0648 H   0  0  0  0  0  0  0  0  0  0  0  0
   58.5561   30.2593   44.0648 H   0  0  0  0  0  0  0  0  0  0  0  0
   58.5782   28.7010   45.6595 H   0  0  0  0  0  0  0  0  0  0  0  0
   60.2050   26.8374   45.4201 H   0  0  0  0  0  0  0  0  0  0  0  0
   60.8585   25.5355   46.4824 H   0  0  0  0  0  0  0  0  0  0  0  0
   59.4321   24.4012   44.9738 H   0  0  0  0  0  0  0  0  0  0  0  0
   58.4430   24.6436   46.5176 H   0  0  0  0  0  0  0  0  0  0  0  0
   57.0208   23.8007   44.2953 H   0  0  0  0  0  0  0  0  0  0  0  0
   56.5830   25.1424   43.1840 H   0  0  0  0  0  0  0  0  0  0  0  0
   58.2548   24.4855   43.1840 H   0  0  0  0  0  0  0  0  0  0  0  0
   56.9980   25.9984   46.8066 H   0  0  0  0  0  0  0  0  0  0  0  0
   56.1207   26.8597   45.4287 H   0  0  0  0  0  0  0  0  0  0  0  0
   55.2329   24.5886   46.7933 H   0  0  0  0  0  0  0  0  0  0  0  0
   54.6178   25.2433   45.2378 H   0  0  0  0  0  0  0  0  0  0  0  0
   55.8768   23.9621   45.2378 H   0  0  0  0  0  0  0  0  0  0  0  0
   57.4527   27.7789   44.5516 H   0  0  0  0  0  0  0  0  0  0  0  0
   59.1985   27.1933   44.4993 H   0  0  0  0  0  0  0  0  0  0  0  0
   58.1377   25.9689   42.2984 H   0  0  0  0  0  0  0  0  0  0  0  0
   57.2396   27.5245   42.3065 H   0  0  0  0  0  0  0  0  0  0  0  0
   59.0358   27.5245   42.2902 H   0  0  0  0  0  0  0  0  0  0  0  0
   60.5320   27.6926   51.7457 H   0  0  0  0  0  0  0  0  0  0  0  0
   62.1156   27.4394   50.9364 H   0  0  0  0  0  0  0  0  0  0  0  0
   61.3571   29.0677   50.9364 H   0  0  0  0  0  0  0  0  0  0  0  0
   60.4542   30.3569   49.9734 H   0  0  0  0  0  0  0  0  0  0  0  0
  1  2  1  0
  2  3  1  0
  3  4  1  0
  4  5  1  0
  3  6  1  0
  6  7  1  0
  7  8  1  0
  8  9  1  0
  9 10  2  0
 10 11  1  0
 11 12  2  0
 12 13  1  0
 13 14  2  0
 14 15  1  0
 15 16  2  0
 16 17  1  0
 16 18  1  0
 18 19  2  0
 19 20  1  0
 20 21  1  0
 21 22  1  0
 22 23  1  0
 23 24  1  0
 24 25  1  0
 24 26  1  0
 26 27  1  0
 24 28  1  0
 28 29  1  0
 20 30  2  0
 30 31  1  0
 31 32  1  0
 30 33  1  0
 33 34  2  0
 34  9  1  0
 15 10  1  0
 34 18  1  0
  1 35  1  0
  1 36  1  0
  1 37  1  0
  2 38  1  0
  2 39  1  0
  4 40  1  0
  4 41  1  0
  5 42  1  0
  5 43  1  0
  5 44  1  0
  6 45  1  0
  6 46  1  0
  7 47  1  0
  7 48  1  0
  8 49  1  0
 11 50  1  0
 12 51  1  0
 13 52  1  0
 14 53  1  0
 17 54  1  0
 17 55  1  0
 17 56  1  0
 19 57  1  0
 22 58  1  0
 22 59  1  0
 23 60  1  0
 23 61  1  0
 25 62  1  0
 25 63  1  0
 25 64  1  0
 26 65  1  0
 26 66  1  0
 27 67  1  0
 27 68  1  0
 27 69  1  0
 28 70  1  0
 28 71  1  0
 29 72  1  0
 29 73  1  0
 29 74  1  0
 32 75  1  0
 32 76  1  0
 32 77  1  0
 33 78  1  0
M  CHG  2  16   1  24   1
M  END
>  <UniqueID>  (28) 
27

>  <SMILES>  (28) 
CCN(CC)CCNc1c2ccccc2[n+](C)c2cc(OCC[N+](C)(CC)CC)c(OC)cc12

>  <Energy>  (28) 
117.72467547003463

>  <Genealogy>  (28) 
CCN(CC)CCNc1c2ccccc2[n+](C)c2cc(OCC[N+](C)(CC)CC)c(OC)cc12 (3D coordinates assigned)
CCN(CC)CCNc1c2ccccc2[n+](C)c2cc(OCC[N+](C)(CC)CC)c(OC)cc12 (optimized conformer: 117.72467547003463 kcal/mol)

>  <smiles>  (28) 
CCN(CC)CCNc1c2ccccc2[n+](C)c2cc(OCC[N+](C)(CC)CC)c(OC)cc12

>  <score_type>  (28) 
oracle

>  <origin>  (28) 
adg

>  <m_score__min__energy>  (28) 
-4.0800000000000001

>  <m_primary>  (28) 
energy

$$$$
28:0
     RDKit          3D

 74 78  0  0  0  0  0  0  0  0999 V2000
   57.7600   30.9740   43.7280 C   0  0  0  0  0  0  0  0  0  0  0  0
   58.5050   31.2690   44.9670 N   0  0  0  0  0  0  0  0  0  0  0  0
   58.8490   32.5650   45.3150 C   0  0  0  0  0  0  0  0  0  0  0  0
   58.3880   33.6790   44.5720 C   0  0  0  0  0  0  0  0  0  0  0  0
   58.7810   34.9770   44.9030 C   0  0  0  0  0  0  0  0  0  0  0  0
   59.6330   35.1990   45.9770 C   0  0  0  0  0  0  0  0  0  0  0  0
   60.0800   34.1300   46.7500 C   0  0  0  0  0  0  0  0  0  0  0  0
   59.6800   32.8110   46.4600 C   0  0  0  0  0  0  0  0  0  0  0  0
   60.0910   31.7300   47.2810 C   0  0  0  0  0  0  0  0  0  0  0  0
   60.8800   31.9430   48.4600 N   0  0  0  0  0  0  0  0  0  0  0  0
   62.2400   31.4160   48.5540 C   0  0  0  0  0  0  0  0  0  0  0  0
   62.9800   31.5910   47.2150 C   0  0  0  0  0  0  0  0  0  0  0  0
   63.8920   32.7590   47.2140 N   0  0  0  0  0  0  0  0  0  0  0  0
   64.0670   33.2550   48.5910 C   0  0  0  0  0  0  0  0  0  0  0  0
   63.3960   33.8520   46.3560 C   0  0  0  0  0  0  0  0  0  0  0  0
   59.6560   30.4530   46.9250 C   0  0  0  0  0  0  0  0  0  0  0  0
   59.7940   29.2070   47.5270 C   0  0  0  0  0  0  0  0  0  0  0  0
   60.4590   28.7700   48.6800 C   0  0  0  0  0  0  0  0  0  0  0  0
   60.3740   27.3940   49.0180 C   0  0  0  0  0  0  0  0  0  0  0  0
   61.0250   26.8360   50.1300 O   0  0  0  0  0  0  0  0  0  0  0  0
   61.5300   27.5510   51.2570 C   0  0  0  0  0  0  0  0  0  0  0  0
   60.3850   27.8790   52.2440 C   0  0  0  0  0  0  0  0  0  0  0  0
   59.9940   29.3250   52.3250 N   0  0  0  0  0  0  0  0  0  0  0  0
   59.9690   29.6690   53.7760 C   0  0  0  0  0  0  0  0  0  0  0  0
   58.6120   29.5360   51.7590 C   0  0  0  0  0  0  0  0  0  0  0  0
   58.5250   30.6340   50.6870 C   0  0  0  0  0  0  0  0  0  0  0  0
   59.1980   31.9120   51.1880 C   0  0  0  0  0  0  0  0  0  0  0  0
   60.6570   31.6740   51.6160 C   0  0  0  0  0  0  0  0  0  0  0  0
   61.0310   30.1780   51.6610 C   0  0  0  0  0  0  0  0  0  0  0  0
   59.6150   26.5190   48.2100 C   0  0  0  0  0  0  0  0  0  0  0  0
   58.9580   26.9830   47.0620 C   0  0  0  0  0  0  0  0  0  0  0  0
   59.0720   28.3310   46.7430 C   0  0  0  0  0  0  0  0  0  0  0  0
   58.5030   28.9510   45.6920 N   0  0  0  0  0  0  0  0  0  0  0  0
   58.8700   30.2500   45.8060 C   0  0  0  0  0  0  0  0  0  0  0  0
   56.7652   30.5801   43.9833 H   0  0  0  0  0  0  0  0  0  0  0  0
   57.6490   31.8961   43.1385 H   0  0  0  0  0  0  0  0  0  0  0  0
   58.3104   30.2259   43.1385 H   0  0  0  0  0  0  0  0  0  0  0  0
   57.7098   33.5190   43.7209 H   0  0  0  0  0  0  0  0  0  0  0  0
   58.4141   35.8280   44.3103 H   0  0  0  0  0  0  0  0  0  0  0  0
   59.9559   36.2225   46.2180 H   0  0  0  0  0  0  0  0  0  0  0  0
   60.7544   34.3184   47.5983 H   0  0  0  0  0  0  0  0  0  0  0  0
   60.5760   32.6800   49.1370 H   0  0  0  0  0  0  0  0  0  0  0  0
   62.7843   31.9573   49.3418 H   0  0  0  0  0  0  0  0  0  0  0  0
   62.1902   30.3440   48.7955 H   0  0  0  0  0  0  0  0  0  0  0  0
   63.5699   30.6837   47.0177 H   0  0  0  0  0  0  0  0  0  0  0  0
   62.2220   31.7607   46.4362 H   0  0  0  0  0  0  0  0  0  0  0  0
   64.8330   32.4590   46.8620 H   0  0  0  0  0  0  0  0  0  0  0  0
   63.7882   32.4648   49.3036 H   0  0  0  0  0  0  0  0  0  0  0  0
   65.1187   33.5364   48.7485 H   0  0  0  0  0  0  0  0  0  0  0  0
   63.4247   34.1340   48.7485 H   0  0  0  0  0  0  0  0  0  0  0  0
   63.0235   34.6728   46.9865 H   0  0  0  0  0  0  0  0  0  0  0  0
   64.2152   34.2202   45.7209 H   0  0  0  0  0  0  0  0  0  0  0  0
   62.5795   33.4779   45.7209 H   0  0  0  0  0  0  0  0  0  0  0  0
   61.0301   29.4724   49.3049 H   0  0  0  0  0  0  0  0  0  0  0  0
   62.2844   26.9353   51.7686 H   0  0  0  0  0  0  0  0  0  0  0  0
   61.9824   28.4916   50.9097 H   0  0  0  0  0  0  0  0  0  0  0  0
   59.4983   27.3053   51.9365 H   0  0  0  0  0  0  0  0  0  0  0  0
   60.7625   27.6128   53.2423 H   0  0  0  0  0  0  0  0  0  0  0  0
   60.0360   28.7472   54.3726 H   0  0  0  0  0  0  0  0  0  0  0  0
   60.8221   30.3218   54.0128 H   0  0  0  0  0  0  0  0  0  0  0  0
   59.0305   30.1916   54.0128 H   0  0  0  0  0  0  0  0  0  0  0  0
   58.2761   28.5896   51.3100 H   0  0  0  0  0  0  0  0  0  0  0  0
   57.9771   29.8634   52.5955 H   0  0  0  0  0  0  0  0  0  0  0  0
   59.0311   30.2907   49.7727 H   0  0  0  0  0  0  0  0  0  0  0  0
   57.4669   30.8447   50.4725 H   0  0  0  0  0  0  0  0  0  0  0  0
   59.1834   32.6593   50.3810 H   0  0  0  0  0  0  0  0  0  0  0  0
   58.6413   32.2623   52.0697 H   0  0  0  0  0  0  0  0  0  0  0  0
   61.3204   32.1806   50.8996 H   0  0  0  0  0  0  0  0  0  0  0  0
   60.7729   32.0748   52.6338 H   0  0  0  0  0  0  0  0  0  0  0  0
   61.1672   29.8215   50.6293 H   0  0  0  0  0  0  0  0  0  0  0  0
   61.9521   30.0914   52.2560 H   0  0  0  0  0  0  0  0  0  0  0  0
   59.5382   25.4569   48.4858 H   0  0  0  0  0  0  0  0  0  0  0  0
   58.3693   26.3001   46.4319 H   0  0  0  0  0  0  0  0  0  0  0  0
   57.8760   28.5030   44.9890 H   0  0  0  0  0  0  0  0  0  0  0  0
  1  2  1  0
  2  3  2  0
  3  4  1  0
  4  5  2  0
  5  6  1  0
  6  7  2  0
  7  8  1  0
  8  9  2  0
  9 10  1  0
 10 11  1  0
 11 12  1  0
 12 13  1  0
 13 14  1  0
 13 15  1  0
  9 16  1  0
 16 17  1  0
 17 18  2  0
 18 19  1  0
 19 20  1  0
 20 21  1  0
 21 22  1  0
 22 23  1  0
 23 24  1  0
 23 25  1  0
 25 26  1  0
 26 27  1  0
 27 28  1  0
 28 29  1  0
 19 30  2  0
 30 31  1  0
 31 32  2  0
 32 33  1  0
 33 34  1  0
 34  2  1  0
  8  3  1  0
 34 16  2  0
 32 17  1  0
 29 23  1  0
  1 35  1  0
  1 36  1  0
  1 37  1  0
  4 38  1  0
  5 39  1  0
  6 40  1  0
  7 41  1  0
 10 42  1  0
 11 43  1  0
 11 44  1  0
 12 45  1  0
 12 46  1  0
 13 47  1  0
 14 48  1  0
 14 49  1  0
 14 50  1  0
 15 51  1  0
 15 52  1  0
 15 53  1  0
 18 54  1  0
 21 55  1  0
 21 56  1  0
 22 57  1  0
 22 58  1  0
 24 59  1  0
 24 60  1  0
 24 61  1  0
 25 62  1  0
 25 63  1  0
 26 64  1  0
 26 65  1  0
 27 66  1  0
 27 67  1  0
 28 68  1  0
 28 69  1  0
 29 70  1  0
 29 71  1  0
 30 72  1  0
 31 73  1  0
 33 74  1  0
M  CHG  3   2   1  13   1  23   1
M  END
>  <UniqueID>  (29) 
28

>  <SMILES>  (29) 
C[n+]1c2ccccc2c(NCC[NH+](C)C)c2c3cc(OCC[N+]4(C)CCCCC4)ccc3[nH]c21

>  <Energy>  (29) 
149.89741968839132

>  <Genealogy>  (29) 
C[n+]1c2ccccc2c(NCC[NH+](C)C)c2c3cc(OCC[N+]4(C)CCCCC4)ccc3[nH]c21 (protonated)
C[n+]1c2ccccc2c(NCC[NH+](C)C)c2c3cc(OCC[N+]4(C)CCCCC4)ccc3[nH]c21 (3D coordinates assigned)
C[n+]1c2ccccc2c(NCC[NH+](C)C)c2c3cc(OCC[N+]4(C)CCCCC4)ccc3[nH]c21 (nonaromatic ring conformer: 149.89741968839132 kcal/mol)

>  <smiles>  (29) 
CN(C)CCNc1c2ccccc2[n+](C)c2[nH]c3ccc(OCC[N+]4(C)CCCCC4)cc3c12

>  <score_type>  (29) 
oracle

>  <origin>  (29) 
adg

>  <m_score__min__energy>  (29) 
-4.4100000000000001

>  <m_primary>  (29) 
energy

$$$$
