0:0
     RDKit          3D

 55 57  0  0  0  0  0  0  0  0999 V2000
   58.8860   34.4770   46.3110 C   0  0  0  0  0  0  0  0  0  0  0  0
   58.0310   33.2800   45.9100 C   0  0  0  0  0  0  0  0  0  0  0  0
   58.7120   32.5100   44.8610 N   0  0  0  0  0  0  0  0  0  0  0  0
   57.9140   32.4460   43.6270 C   0  0  0  0  0  0  0  0  0  0  0  0
   57.0100   31.2120   43.6140 C   0  0  0  0  0  0  0  0  0  0  0  0
   56.9930   30.6350   44.9010 O   0  0  0  0  0  0  0  0  0  0  0  0
   56.8180   29.2390   44.8070 C   0  0  0  0  0  0  0  0  0  0  0  0
   58.1210   28.5970   44.3040 C   0  0  0  0  0  0  0  0  0  0  0  0
   59.3000   29.4680   44.4620 N   0  0  0  0  0  0  0  0  0  0  0  0
   60.3610   28.9070   45.3160 C   0  0  0  0  0  0  0  0  0  0  0  0
   60.1020   29.1860   46.8050 C   0  0  0  0  0  0  0  0  0  0  0  0
   59.2870   30.3890   46.9910 N   0  0  0  0  0  0  0  0  0  0  0  0
   59.4620   31.2900   48.1040 C   0  0  0  0  0  0  0  0  0  0  0  0
   58.5510   31.2710   49.1570 C   0  0  0  0  0  0  0  0  0  0  0  0
   58.7080   32.1180   50.2540 C   0  0  0  0  0  0  0  0  0  0  0  0
   57.7420   32.0640   51.2750 C   0  0  0  0  0  0  0  0  0  0  0  0
   57.8450   32.9070   52.3710 C   0  0  0  0  0  0  0  0  0  0  0  0
   58.8960   33.8040   52.4420 C   0  0  0  0  0  0  0  0  0  0  0  0
   59.8480   33.8410   51.4230 C   0  0  0  0  0  0  0  0  0  0  0  0
   59.7800   32.9900   50.3350 N   0  0  0  0  0  0  0  0  0  0  0  0
   60.7370   32.9980   49.3260 C   0  0  0  0  0  0  0  0  0  0  0  0
   61.9060   33.8080   49.3810 C   0  0  0  0  0  0  0  0  0  0  0  0
   62.8290   33.8240   48.3370 C   0  0  0  0  0  0  0  0  0  0  0  0
   62.6290   33.0380   47.2120 C   0  0  0  0  0  0  0  0  0  0  0  0
   61.5150   32.2100   47.1320 C   0  0  0  0  0  0  0  0  0  0  0  0
   60.5730   32.1560   48.1800 C   0  0  0  0  0  0  0  0  0  0  0  0
   58.9331   34.5429   47.4080 H   0  0  0  0  0  0  0  0  0  0  0  0
   59.9017   34.3538   45.9071 H   0  0  0  0  0  0  0  0  0  0  0  0
   58.4400   35.3979   45.9071 H   0  0  0  0  0  0  0  0  0  0  0  0
   57.8687   32.6370   46.7876 H   0  0  0  0  0  0  0  0  0  0  0  0
   57.0634   33.6372   45.5276 H   0  0  0  0  0  0  0  0  0  0  0  0
   58.8300   31.5300   45.2120 H   0  0  0  0  0  0  0  0  0  0  0  0
   57.2894   33.3487   43.5568 H   0  0  0  0  0  0  0  0  0  0  0  0
   58.6020   32.3818   42.7711 H   0  0  0  0  0  0  0  0  0  0  0  0
   55.9891   31.5070   43.3297 H   0  0  0  0  0  0  0  0  0  0  0  0
   57.3933   30.4811   42.8867 H   0  0  0  0  0  0  0  0  0  0  0  0
   56.5666   28.8325   45.7977 H   0  0  0  0  0  0  0  0  0  0  0  0
   56.0018   29.0162   44.1040 H   0  0  0  0  0  0  0  0  0  0  0  0
   58.2940   27.6695   44.8695 H   0  0  0  0  0  0  0  0  0  0  0  0
   57.9969   28.4094   43.2272 H   0  0  0  0  0  0  0  0  0  0  0  0
   58.9940   30.3850   44.8640 H   0  0  0  0  0  0  0  0  0  0  0  0
   60.4056   27.8190   45.1601 H   0  0  0  0  0  0  0  0  0  0  0  0
   61.3120   29.3854   45.0387 H   0  0  0  0  0  0  0  0  0  0  0  0
   59.5751   28.3258   47.2437 H   0  0  0  0  0  0  0  0  0  0  0  0
   61.0711   29.3452   47.3004 H   0  0  0  0  0  0  0  0  0  0  0  0
   58.7310   30.7200   46.1730 H   0  0  0  0  0  0  0  0  0  0  0  0
   57.6965   30.5791   49.1232 H   0  0  0  0  0  0  0  0  0  0  0  0
   56.9053   31.3534   51.2040 H   0  0  0  0  0  0  0  0  0  0  0  0
   57.0977   32.8630   53.1770 H   0  0  0  0  0  0  0  0  0  0  0  0
   58.9808   34.4867   53.3003 H   0  0  0  0  0  0  0  0  0  0  0  0
   60.6735   34.5652   51.4865 H   0  0  0  0  0  0  0  0  0  0  0  0
   62.0848   34.4351   50.2669 H   0  0  0  0  0  0  0  0  0  0  0  0
   63.7212   34.4637   48.4056 H   0  0  0  0  0  0  0  0  0  0  0  0
   63.3516   33.0697   46.3832 H   0  0  0  0  0  0  0  0  0  0  0  0
   61.3661   31.5874   46.2374 H   0  0  0  0  0  0  0  0  0  0  0  0
  1  2  1  0
  2  3  1  0
  3  4  1  0
  4  5  1  0
  5  6  1  0
  6  7  1  0
  7  8  1  0
  8  9  1  0
  9 10  1  0
 10 11  1  0
 11 12  1  0
 12 13  1  0
 13 14  2  0
 14 15  1  0
 15 16  2  0
 16 17  1  0
 17 18  2  0
 18 19  1  0
 19 20  2  0
 20 21  1  0
 21 22  2  0
 22 23  1  0
 23 24  2  0
 24 25  1  0
 25 26  2  0
 26 13  1  0
 20 15  1  0
 26 21  1  0
  1 27  1  0
  1 28  1  0
  1 29  1  0
  2 30  1  0
  2 31  1  0
  3 32  1  0
  4 33  1  0
  4 34  1  0
  5 35  1  0
  5 36  1  0
  7 37  1  0
  7 38  1  0
  8 39  1  0
  8 40  1  0
  9 41  1  0
 10 42  1  0
 10 43  1  0
 11 44  1  0
 11 45  1  0
 12 46  1  0
 14 47  1  0
 16 48  1  0
 17 49  1  0
 18 50  1  0
 19 51  1  0
 22 52  1  0
 23 53  1  0
 24 54  1  0
 25 55  1  0
M  CHG  1  20   1
M  END
>  <UniqueID>  (1) 
1

>  <SMILES>  (1) 
CCNCCOCCNCCNc1cc2cccc[n+]2c2ccccc12

>  <Energy>  (1) 
68.71728470463432

>  <Genealogy>  (1) 
CCNCCOCCNCCNc1cc2cccc[n+]2c2ccccc12 (3D coordinates assigned)
CCNCCOCCNCCNc1cc2cccc[n+]2c2ccccc12 (optimized conformer: 68.71728470463432 kcal/mol)

>  <smiles>  (1) 
CCNCCOCCNCCNc1cc2cccc[n+]2c2ccccc12

>  <score_type>  (1) 
oracle

>  <origin>  (1) 
adg

>  <m_score__min__energy>  (1) 
-4.96

>  <m_primary>  (1) 
energy

$$$$
1:0
     RDKit          3D

 69 72  0  0  0  0  0  0  0  0999 V2000
   55.9550   31.0070   52.0080 C   0  0  0  0  0  0  0  0  0  0  0  0
   57.4650   30.8150   52.2270 C   0  0  0  0  0  0  0  0  0  0  0  0
   58.0800   31.8990   53.0390 N   0  0  0  0  0  0  0  0  0  0  0  0
   57.8440   33.2500   52.4480 C   0  0  0  0  0  0  0  0  0  0  0  0
   59.1120   33.9910   51.9910 C   0  0  0  0  0  0  0  0  0  0  0  0
   59.5180   31.5870   53.2880 C   0  0  0  0  0  0  0  0  0  0  0  0
   60.0700   30.4020   52.4590 C   0  0  0  0  0  0  0  0  0  0  0  0
   61.4140   30.6660   51.9360 N   0  0  0  0  0  0  0  0  0  0  0  0
   61.6590   31.4840   50.7840 C   0  0  0  0  0  0  0  0  0  0  0  0
   60.5880   31.8010   49.9640 C   0  0  0  0  0  0  0  0  0  0  0  0
   60.7880   32.5240   48.7910 C   0  0  0  0  0  0  0  0  0  0  0  0
   59.6940   32.8050   47.9670 C   0  0  0  0  0  0  0  0  0  0  0  0
   58.4370   32.4610   48.1360 O   0  0  0  0  0  0  0  0  0  0  0  0
   57.7490   32.9220   47.1070 C   0  0  0  0  0  0  0  0  0  0  0  0
   58.5960   33.6030   46.2410 C   0  0  0  0  0  0  0  0  0  0  0  0
   58.2310   34.1940   44.9090 C   0  0  0  0  0  0  0  0  0  0  0  0
   58.1160   33.1090   43.8330 C   0  0  0  0  0  0  0  0  0  0  0  0
   57.2050   32.0400   44.2650 N   0  0  0  0  0  0  0  0  0  0  0  0
   57.0100   31.0200   43.2150 C   0  0  0  0  0  0  0  0  0  0  0  0
   56.5230   29.6740   43.7750 C   0  0  0  0  0  0  0  0  0  0  0  0
   56.5670   29.6740   45.2420 N   0  0  0  0  0  0  0  0  0  0  0  0
   57.8020   29.0490   45.7140 C   0  0  0  0  0  0  0  0  0  0  0  0
   59.8450   33.5070   46.8140 C   0  0  0  0  0  0  0  0  0  0  0  0
   61.0850   33.9650   46.4090 C   0  0  0  0  0  0  0  0  0  0  0  0
   62.1830   33.6830   47.2350 C   0  0  0  0  0  0  0  0  0  0  0  0
   62.0530   32.9590   48.4170 N   0  0  0  0  0  0  0  0  0  0  0  0
   63.1430   32.6640   49.2310 C   0  0  0  0  0  0  0  0  0  0  0  0
   64.4750   33.0540   48.9100 C   0  0  0  0  0  0  0  0  0  0  0  0
   65.5410   32.7600   49.7590 C   0  0  0  0  0  0  0  0  0  0  0  0
   65.3230   32.0850   50.9520 C   0  0  0  0  0  0  0  0  0  0  0  0
   64.0400   31.6820   51.2990 C   0  0  0  0  0  0  0  0  0  0  0  0
   62.9480   31.9340   50.4450 C   0  0  0  0  0  0  0  0  0  0  0  0
   55.4485   31.0714   52.9823 H   0  0  0  0  0  0  0  0  0  0  0  0
   55.7815   31.9344   51.4425 H   0  0  0  0  0  0  0  0  0  0  0  0
   55.5549   30.1525   51.4425 H   0  0  0  0  0  0  0  0  0  0  0  0
   57.6247   29.8571   52.7437 H   0  0  0  0  0  0  0  0  0  0  0  0
   57.9448   30.8345   51.2373 H   0  0  0  0  0  0  0  0  0  0  0  0
   57.5980   31.8900   53.9650 H   0  0  0  0  0  0  0  0  0  0  0  0
   57.1857   33.1301   51.5749 H   0  0  0  0  0  0  0  0  0  0  0  0
   57.4021   33.8622   53.2480 H   0  0  0  0  0  0  0  0  0  0  0  0
   59.6803   34.3231   52.8723 H   0  0  0  0  0  0  0  0  0  0  0  0
   59.7344   33.3145   51.3869 H   0  0  0  0  0  0  0  0  0  0  0  0
   58.8281   34.8654   51.3869 H   0  0  0  0  0  0  0  0  0  0  0  0
   60.1107   32.4815   53.0458 H   0  0  0  0  0  0  0  0  0  0  0  0
   59.5961   31.2929   54.3451 H   0  0  0  0  0  0  0  0  0  0  0  0
   60.1093   29.5095   53.1008 H   0  0  0  0  0  0  0  0  0  0  0  0
   59.3990   30.2509   51.6006 H   0  0  0  0  0  0  0  0  0  0  0  0
   62.2290   30.4120   52.5360 H   0  0  0  0  0  0  0  0  0  0  0  0
   59.5733   31.4794   50.2415 H   0  0  0  0  0  0  0  0  0  0  0  0
   56.6675   32.7871   46.9579 H   0  0  0  0  0  0  0  0  0  0  0  0
   57.2654   34.7131   44.9995 H   0  0  0  0  0  0  0  0  0  0  0  0
   59.0233   34.8966   44.6113 H   0  0  0  0  0  0  0  0  0  0  0  0
   57.7300   33.5593   42.9066 H   0  0  0  0  0  0  0  0  0  0  0  0
   59.1123   32.6753   43.6617 H   0  0  0  0  0  0  0  0  0  0  0  0
   57.5810   31.6010   45.1370 H   0  0  0  0  0  0  0  0  0  0  0  0
   56.2642   31.3925   42.4973 H   0  0  0  0  0  0  0  0  0  0  0  0
   57.9853   30.8463   42.7369 H   0  0  0  0  0  0  0  0  0  0  0  0
   55.4883   29.4992   43.4451 H   0  0  0  0  0  0  0  0  0  0  0  0
   57.1832   28.8771   43.4022 H   0  0  0  0  0  0  0  0  0  0  0  0
   56.5710   30.6710   45.5650 H   0  0  0  0  0  0  0  0  0  0  0  0
   57.8130   29.0434   46.8139 H   0  0  0  0  0  0  0  0  0  0  0  0
   57.8554   28.0154   45.3416 H   0  0  0  0  0  0  0  0  0  0  0  0
   58.6665   29.6181   45.3416 H   0  0  0  0  0  0  0  0  0  0  0  0
   61.2061   34.5300   45.4730 H   0  0  0  0  0  0  0  0  0  0  0  0
   63.1786   34.0455   46.9394 H   0  0  0  0  0  0  0  0  0  0  0  0
   64.6663   33.5981   47.9733 H   0  0  0  0  0  0  0  0  0  0  0  0
   66.5609   33.0648   49.4817 H   0  0  0  0  0  0  0  0  0  0  0  0
   66.1672   31.8690   51.6233 H   0  0  0  0  0  0  0  0  0  0  0  0
   63.8743   31.1594   52.2527 H   0  0  0  0  0  0  0  0  0  0  0  0
  1  2  1  0
  2  3  1  0
  3  4  1  0
  4  5  1  0
  3  6  1  0
  6  7  1  0
  7  8  1  0
  8  9  1  0
  9 10  2  0
 10 11  1  0
 11 12  2  0
 12 13  1  0
 13 14  1  0
 14 15  2  0
 15 16  1  0
 16 17  1  0
 17 18  1  0
 18 19  1  0
 19 20  1  0
 20 21  1  0
 21 22  1  0
 15 23  1  0
 23 24  2  0
 24 25  1  0
 25 26  2  0
 26 27  1  0
 27 28  2  0
 28 29  1  0
 29 30  2  0
 30 31  1  0
 31 32  2  0
 32  9  1  0
 26 11  1  0
 32 27  1  0
 23 12  1  0
  1 33  1  0
  1 34  1  0
  1 35  1  0
  2 36  1  0
  2 37  1  0
  3 38  1  0
  4 39  1  0
  4 40  1  0
  5 41  1  0
  5 42  1  0
  5 43  1  0
  6 44  1  0
  6 45  1  0
  7 46  1  0
  7 47  1  0
  8 48  1  0
 10 49  1  0
 14 50  1  0
 16 51  1  0
 16 52  1  0
 17 53  1  0
 17 54  1  0
 18 55  1  0
 19 56  1  0
 19 57  1  0
 20 58  1  0
 20 59  1  0
 21 60  1  0
 22 61  1  0
 22 62  1  0
 22 63  1  0
 24 64  1  0
 25 65  1  0
 28 66  1  0
 29 67  1  0
 30 68  1  0
 31 69  1  0
M  CHG  2   3   1  26   1
M  END
>  <UniqueID>  (2) 
2

>  <SMILES>  (2) 
CC[NH+](CC)CCNc1cc2c3occ(CCNCCNC)c3cc[n+]2c2ccccc12

>  <Energy>  (2) 
125.86009238866787

>  <Genealogy>  (2) 
CC[NH+](CC)CCNc1cc2c3occ(CCNCCNC)c3cc[n+]2c2ccccc12 (protonated)
CC[NH+](CC)CCNc1cc2c3occ(CCNCCNC)c3cc[n+]2c2ccccc12 (3D coordinates assigned)
CC[NH+](CC)CCNc1cc2c3occ(CCNCCNC)c3cc[n+]2c2ccccc12 (optimized conformer: 125.86009238866787 kcal/mol)

>  <smiles>  (2) 
CCN(CC)CCNc1cc2c3occ(CCNCCNC)c3cc[n+]2c2ccccc12

>  <score_type>  (2) 
oracle

>  <origin>  (2) 
adg

>  <m_score__min__energy>  (2) 
-5.3899999999999997

>  <m_primary>  (2) 
energy

$$$$
2:0
     RDKit          3D

 68 70  0  0  0  0  0  0  0  0999 V2000
   63.5730   30.8890   50.7470 C   0  0  0  0  0  0  0  0  0  0  0  0
   62.1210   31.0440   51.1750 C   0  0  0  0  0  0  0  0  0  0  0  0
   61.2840   30.5460   50.1550 O   0  0  0  0  0  0  0  0  0  0  0  0
   60.5030   29.4830   50.6610 C   0  0  0  0  0  0  0  0  0  0  0  0
   59.0310   29.8700   50.6070 C   0  0  0  0  0  0  0  0  0  0  0  0
   58.8830   30.9860   49.7590 O   0  0  0  0  0  0  0  0  0  0  0  0
   58.2940   32.0570   50.4650 C   0  0  0  0  0  0  0  0  0  0  0  0
   59.3250   33.1760   50.6440 C   0  0  0  0  0  0  0  0  0  0  0  0
   60.2500   33.2050   49.5710 O   0  0  0  0  0  0  0  0  0  0  0  0
   61.3620   34.0340   49.8630 C   0  0  0  0  0  0  0  0  0  0  0  0
   62.5610   33.6970   48.9680 C   0  0  0  0  0  0  0  0  0  0  0  0
   62.0810   33.0390   47.7320 N   0  0  0  0  0  0  0  0  0  0  0  0
   62.2460   33.9280   46.5680 C   0  0  0  0  0  0  0  0  0  0  0  0
   62.7510   31.7450   47.4890 C   0  0  0  0  0  0  0  0  0  0  0  0
   61.7390   30.6270   47.1430 C   0  0  0  0  0  0  0  0  0  0  0  0
   60.4140   30.8090   47.7710 N   0  0  0  0  0  0  0  0  0  0  0  0
   59.3360   30.8920   46.7880 C   0  0  0  0  0  0  0  0  0  0  0  0
   58.7580   29.7100   46.2560 C   0  0  0  0  0  0  0  0  0  0  0  0
   58.9170   28.4550   46.8900 C   0  0  0  0  0  0  0  0  0  0  0  0
   58.3280   27.3070   46.3670 C   0  0  0  0  0  0  0  0  0  0  0  0
   57.5550   27.3830   45.2170 C   0  0  0  0  0  0  0  0  0  0  0  0
   57.3810   28.6040   44.5720 C   0  0  0  0  0  0  0  0  0  0  0  0
   57.9940   29.7850   45.0600 C   0  0  0  0  0  0  0  0  0  0  0  0
   57.8590   30.9890   44.4010 N   0  0  0  0  0  0  0  0  0  0  0  0
   57.3910   31.0160   42.9980 C   0  0  0  0  0  0  0  0  0  0  0  0
   58.1560   32.1660   45.0560 C   0  0  0  0  0  0  0  0  0  0  0  0
   57.7210   33.4170   44.5480 C   0  0  0  0  0  0  0  0  0  0  0  0
   58.0140   34.6050   45.2110 C   0  0  0  0  0  0  0  0  0  0  0  0
   58.7120   34.5790   46.4080 C   0  0  0  0  0  0  0  0  0  0  0  0
   59.1300   33.3660   46.9480 C   0  0  0  0  0  0  0  0  0  0  0  0
   58.8920   32.1410   46.2750 C   0  0  0  0  0  0  0  0  0  0  0  0
   64.2129   30.8207   51.6391 H   0  0  0  0  0  0  0  0  0  0  0  0
   63.6825   29.9741   50.1463 H   0  0  0  0  0  0  0  0  0  0  0  0
   63.8732   31.7602   50.1463 H   0  0  0  0  0  0  0  0  0  0  0  0
   61.9479   30.4785   52.1025 H   0  0  0  0  0  0  0  0  0  0  0  0
   61.8980   32.1065   51.3519 H   0  0  0  0  0  0  0  0  0  0  0  0
   60.6688   28.5826   50.0513 H   0  0  0  0  0  0  0  0  0  0  0  0
   60.7918   29.2766   51.7021 H   0  0  0  0  0  0  0  0  0  0  0  0
   58.4419   29.0278   50.2150 H   0  0  0  0  0  0  0  0  0  0  0  0
   58.6740   30.1196   51.6171 H   0  0  0  0  0  0  0  0  0  0  0  0
   57.4316   32.4395   49.8993 H   0  0  0  0  0  0  0  0  0  0  0  0
   57.9574   31.7060   51.4516 H   0  0  0  0  0  0  0  0  0  0  0  0
   58.8003   34.1417   50.6901 H   0  0  0  0  0  0  0  0  0  0  0  0
   59.8808   32.9882   51.5745 H   0  0  0  0  0  0  0  0  0  0  0  0
   61.0780   35.0842   49.7005 H   0  0  0  0  0  0  0  0  0  0  0  0
   61.6536   33.8662   50.9103 H   0  0  0  0  0  0  0  0  0  0  0  0
   63.0962   34.6220   48.7074 H   0  0  0  0  0  0  0  0  0  0  0  0
   63.2418   33.0199   49.5046 H   0  0  0  0  0  0  0  0  0  0  0  0
   62.4365   34.9544   46.9146 H   0  0  0  0  0  0  0  0  0  0  0  0
   63.0954   33.5826   45.9603 H   0  0  0  0  0  0  0  0  0  0  0  0
   61.3293   33.9104   45.9603 H   0  0  0  0  0  0  0  0  0  0  0  0
   63.4538   31.8604   46.6507 H   0  0  0  0  0  0  0  0  0  0  0  0
   63.2770   31.4552   48.4106 H   0  0  0  0  0  0  0  0  0  0  0  0
   61.6057   30.6052   46.0513 H   0  0  0  0  0  0  0  0  0  0  0  0
   62.1534   29.6863   47.5345 H   0  0  0  0  0  0  0  0  0  0  0  0
   60.4890   31.6450   48.3820 H   0  0  0  0  0  0  0  0  0  0  0  0
   60.2280   30.0240   48.4350 H   0  0  0  0  0  0  0  0  0  0  0  0
   59.5153   28.3853   47.8104 H   0  0  0  0  0  0  0  0  0  0  0  0
   58.4756   26.3380   46.8662 H   0  0  0  0  0  0  0  0  0  0  0  0
   57.0790   26.4767   44.8145 H   0  0  0  0  0  0  0  0  0  0  0  0
   56.7568   28.6532   43.6676 H   0  0  0  0  0  0  0  0  0  0  0  0
   56.2930   31.0793   42.9789 H   0  0  0  0  0  0  0  0  0  0  0  0
   57.8177   31.8910   42.4859 H   0  0  0  0  0  0  0  0  0  0  0  0
   57.7143   30.0977   42.4859 H   0  0  0  0  0  0  0  0  0  0  0  0
   57.1418   33.4486   43.6134 H   0  0  0  0  0  0  0  0  0  0  0  0
   57.6911   35.5661   44.7843 H   0  0  0  0  0  0  0  0  0  0  0  0
   58.9363   35.5194   46.9327 H   0  0  0  0  0  0  0  0  0  0  0  0
   59.6547   33.3577   47.9148 H   0  0  0  0  0  0  0  0  0  0  0  0
  1  2  1  0
  2  3  1  0
  3  4  1  0
  4  5  1  0
  5  6  1  0
  6  7  1  0
  7  8  1  0
  8  9  1  0
  9 10  1  0
 10 11  1  0
 11 12  1  0
 12 13  1  0
 12 14  1  0
 14 15  1  0
 15 16  1  0
 16 17  1  0
 17 18  2  0
 18 19  1  0
 19 20  2  0
 20 21  1  0
 21 22  2  0
 22 23  1  0
 23 24  2  0
 24 25  1  0
 24 26  1  0
 26 27  2  0
 27 28  1  0
 28 29  2  0
 29 30  1  0
 30 31  2  0
 31 17  1  0
 23 18  1  0
 31 26  1  0
  1 32  1  0
  1 33  1  0
  1 34  1  0
  2 35  1  0
  2 36  1  0
  4 37  1  0
  4 38  1  0
  5 39  1  0
  5 40  1  0
  7 41  1  0
  7 42  1  0
  8 43  1  0
  8 44  1  0
 10 45  1  0
 10 46  1  0
 11 47  1  0
 11 48  1  0
 13 49  1  0
 13 50  1  0
 13 51  1  0
 14 52  1  0
 14 53  1  0
 15 54  1  0
 15 55  1  0
 16 56  1  0
 16 57  1  0
 19 58  1  0
 20 59  1  0
 21 60  1  0
 22 61  1  0
 25 62  1  0
 25 63  1  0
 25 64  1  0
 27 65  1  0
 28 66  1  0
 29 67  1  0
 30 68  1  0
M  CHG  2  16   1  24   1
M  END
>  <UniqueID>  (3) 
3

>  <SMILES>  (3) 
CCOCCOCCOCCN(C)CC[NH2+]c1c2ccccc2[n+](C)c2ccccc12

>  <Energy>  (3) 
92.83037574962401

>  <Genealogy>  (3) 
CCOCCOCCOCCN(C)CC[NH2+]c1c2ccccc2[n+](C)c2ccccc12 (protonated)
CCOCCOCCOCCN(C)CC[NH2+]c1c2ccccc2[n+](C)c2ccccc12 (3D coordinates assigned)
CCOCCOCCOCCN(C)CC[NH2+]c1c2ccccc2[n+](C)c2ccccc12 (optimized conformer: 92.83037574962401 kcal/mol)

>  <smiles>  (3) 
CCOCCOCCOCCN(C)CCNc1c2ccccc2[n+](C)c2ccccc12

>  <score_type>  (3) 
oracle

>  <origin>  (3) 
adg

>  <m_score__min__energy>  (3) 
-3.9900000000000002

>  <m_primary>  (3) 
energy

$$$$
3:0
     RDKit          3D

 41 42  0  0  0  0  0  0  0  0999 V2000
   64.8930   32.7040   49.5150 C   0  0  0  0  0  0  0  0  0  0  0  0
   63.4800   32.8430   48.9400 C   0  0  0  0  0  0  0  0  0  0  0  0
   63.4040   32.5090   47.4950 N   0  0  2  0  0  0  0  0  0  0  0  0
   63.3840   33.7450   46.6900 C   0  0  0  0  0  0  0  0  0  0  0  0
   62.3000   31.5830   47.1220 C   0  0  0  0  0  0  0  0  0  0  0  0
   61.1990   31.3830   48.1880 C   0  0  0  0  0  0  0  0  0  0  0  0
   60.1400   32.3860   48.0770 N   0  0  0  0  0  0  0  0  0  0  0  0
   59.3940   32.5250   46.8600 C   0  0  0  0  0  0  0  0  0  0  0  0
   59.3110   33.7720   46.1940 C   0  0  0  0  0  0  0  0  0  0  0  0
   60.0160   34.9850   46.7400 C   0  0  0  0  0  0  0  0  0  0  0  0
   58.5460   33.8870   45.0120 C   0  0  0  0  0  0  0  0  0  0  0  0
   57.8720   32.7780   44.4800 C   0  0  0  0  0  0  0  0  0  0  0  0
   57.9550   31.5480   45.1410 C   0  0  0  0  0  0  0  0  0  0  0  0
   58.7040   31.4380   46.3090 C   0  0  0  0  0  0  0  0  0  0  0  0
   58.5660   29.8670   46.9030 S   0  0  0  0  0  0  0  0  0  0  0  0
   57.5690   29.3890   45.6300 C   0  0  0  0  0  0  0  0  0  0  0  0
   57.1000   28.2270   45.5090 O   0  0  0  0  0  0  0  0  0  0  0  0
   57.3260   30.3980   44.7530 N   0  0  0  0  0  0  0  0  0  0  0  0
   56.4770   30.2750   43.5650 C   0  0  0  0  0  0  0  0  0  0  0  0
   64.8438   32.7088   50.6139 H   0  0  0  0  0  0  0  0  0  0  0  0
   65.3370   31.7578   49.1720 H   0  0  0  0  0  0  0  0  0  0  0  0
   65.5129   33.5455   49.1720 H   0  0  0  0  0  0  0  0  0  0  0  0
   62.8096   32.1673   49.4913 H   0  0  0  0  0  0  0  0  0  0  0  0
   63.1834   33.8966   49.0493 H   0  0  0  0  0  0  0  0  0  0  0  0
   64.2970   32.0190   47.2480 H   0  0  0  0  0  0  0  0  0  0  0  0
   63.3699   34.6181   47.3590 H   0  0  0  0  0  0  0  0  0  0  0  0
   64.2816   33.7838   46.0554 H   0  0  0  0  0  0  0  0  0  0  0  0
   62.4856   33.7548   46.0554 H   0  0  0  0  0  0  0  0  0  0  0  0
   61.8218   31.9771   46.2131 H   0  0  0  0  0  0  0  0  0  0  0  0
   62.7696   30.5971   46.9898 H   0  0  0  0  0  0  0  0  0  0  0  0
   60.7569   30.3840   48.0589 H   0  0  0  0  0  0  0  0  0  0  0  0
   61.6633   31.4875   49.1797 H   0  0  0  0  0  0  0  0  0  0  0  0
   60.2030   33.2260   48.6970 H   0  0  0  0  0  0  0  0  0  0  0  0
   59.9987   34.9552   47.8395 H   0  0  0  0  0  0  0  0  0  0  0  0
   61.0587   34.9917   46.3897 H   0  0  0  0  0  0  0  0  0  0  0  0
   59.5057   35.8943   46.3897 H   0  0  0  0  0  0  0  0  0  0  0  0
   58.4780   34.8593   44.5020 H   0  0  0  0  0  0  0  0  0  0  0  0
   57.2854   32.8743   43.5545 H   0  0  0  0  0  0  0  0  0  0  0  0
   55.4325   30.1237   43.8749 H   0  0  0  0  0  0  0  0  0  0  0  0
   56.5518   31.1934   42.9642 H   0  0  0  0  0  0  0  0  0  0  0  0
   56.8094   29.4156   42.9642 H   0  0  0  0  0  0  0  0  0  0  0  0
  1  2  1  0
  2  3  1  0
  3  4  1  0
  3  5  1  0
  5  6  1  0
  6  7  1  0
  7  8  1  0
  8  9  2  0
  9 10  1  0
  9 11  1  0
 11 12  2  0
 12 13  1  0
 13 14  2  0
 14 15  1  0
 15 16  1  0
 16 17  2  0
 16 18  1  0
 18 19  1  0
 14  8  1  0
 18 13  1  0
  1 20  1  0
  1 21  1  0
  1 22  1  0
  2 23  1  0
  2 24  1  0
  3 25  1  6
  4 26  1  0
  4 27  1  0
  4 28  1  0
  5 29  1  0
  5 30  1  0
  6 31  1  0
  6 32  1  0
  7 33  1  0
 10 34  1  0
 10 35  1  0
 10 36  1  0
 11 37  1  0
 12 38  1  0
 19 39  1  0
 19 40  1  0
 19 41  1  0
M  CHG  1   3   1
M  END
>  <UniqueID>  (4) 
4

>  <SMILES>  (4) 
CC[N@H+](C)CCNc1c(C)ccc2c1sc(=O)n2C

>  <Energy>  (4) 
83.47836343821666

>  <Genealogy>  (4) 
CC[NH+](C)CCNc1c(C)ccc2c1sc(=O)n2C (protonated)
CC[N@H+](C)CCNc1c(C)ccc2c1sc(=O)n2C (chirality)
CC[N@H+](C)CCNc1c(C)ccc2c1sc(=O)n2C (3D coordinates assigned)
CC[N@H+](C)CCNc1c(C)ccc2c1sc(=O)n2C (optimized conformer: 83.47836343821666 kcal/mol)

>  <smiles>  (4) 
CCN(C)CCNc1c(C)ccc2c1sc(=O)n2C

>  <score_type>  (4) 
oracle

>  <origin>  (4) 
adg

>  <m_score__min__energy>  (4) 
-4.9400000000000004

>  <m_primary>  (4) 
energy

$$$$
4:0
     RDKit          3D

 38 39  0  0  0  0  0  0  0  0999 V2000
   55.9000   28.1960   45.2540 O   0  0  0  0  0  0  0  0  0  0  0  0
   56.9070   28.7630   44.7490 C   0  0  0  0  0  0  0  0  0  0  0  0
   58.0870   28.0090   44.4590 N   0  0  0  0  0  0  0  0  0  0  0  0
   59.2220   27.9330   45.3700 C   0  0  0  0  0  0  0  0  0  0  0  0
   60.0910   29.1840   45.2400 C   0  0  0  0  0  0  0  0  0  0  0  0
   60.0280   30.0290   46.4870 C   0  0  0  0  0  0  0  0  0  0  0  0
   58.9600   29.8860   47.3900 C   0  0  0  0  0  0  0  0  0  0  0  0
   58.9240   30.6460   48.5630 C   0  0  0  0  0  0  0  0  0  0  0  0
   59.9540   31.5470   48.8470 C   0  0  0  0  0  0  0  0  0  0  0  0
   61.0250   31.6860   47.9590 C   0  0  0  0  0  0  0  0  0  0  0  0
   61.0660   30.9280   46.7850 C   0  0  0  0  0  0  0  0  0  0  0  0
   56.8770   30.2060   44.4620 C   0  0  0  0  0  0  0  0  0  0  0  0
   55.8870   30.8880   44.8410 O   0  0  0  0  0  0  0  0  0  0  0  0
   57.9590   30.8360   43.7580 N   0  0  0  0  0  0  0  0  0  0  0  0
   57.9380   32.2520   43.3980 C   0  0  0  0  0  0  0  0  0  0  0  0
   58.2800   33.0990   44.5940 C   0  0  0  0  0  0  0  0  0  0  0  0
   57.6450   32.8640   45.8240 C   0  0  0  0  0  0  0  0  0  0  0  0
   57.9740   33.6330   46.9450 C   0  0  0  0  0  0  0  0  0  0  0  0
   58.9400   34.6380   46.8460 C   0  0  0  0  0  0  0  0  0  0  0  0
   59.5800   34.8740   45.6270 C   0  0  0  0  0  0  0  0  0  0  0  0
   59.2530   34.1080   44.5030 C   0  0  0  0  0  0  0  0  0  0  0  0
   58.8533   27.8530   46.4033 H   0  0  0  0  0  0  0  0  0  0  0  0
   59.8262   27.0495   45.1162 H   0  0  0  0  0  0  0  0  0  0  0  0
   61.1336   28.8792   45.0664 H   0  0  0  0  0  0  0  0  0  0  0  0
   59.7138   29.7817   44.3971 H   0  0  0  0  0  0  0  0  0  0  0  0
   58.1501   29.1739   47.1730 H   0  0  0  0  0  0  0  0  0  0  0  0
   58.0834   30.5346   49.2637 H   0  0  0  0  0  0  0  0  0  0  0  0
   59.9221   32.1465   49.7687 H   0  0  0  0  0  0  0  0  0  0  0  0
   61.8369   32.3931   48.1845 H   0  0  0  0  0  0  0  0  0  0  0  0
   61.9137   31.0357   46.0923 H   0  0  0  0  0  0  0  0  0  0  0  0
   58.7980   30.2720   43.4910 H   0  0  0  0  0  0  0  0  0  0  0  0
   58.6739   32.4350   42.6011 H   0  0  0  0  0  0  0  0  0  0  0  0
   56.9298   32.5176   43.0474 H   0  0  0  0  0  0  0  0  0  0  0  0
   56.8859   32.0721   45.9063 H   0  0  0  0  0  0  0  0  0  0  0  0
   57.4718   33.4465   47.9057 H   0  0  0  0  0  0  0  0  0  0  0  0
   59.1964   35.2432   47.7280 H   0  0  0  0  0  0  0  0  0  0  0  0
   60.3423   35.6634   45.5508 H   0  0  0  0  0  0  0  0  0  0  0  0
   59.7594   34.2964   43.5449 H   0  0  0  0  0  0  0  0  0  0  0  0
  1  2  2  0
  2  3  1  0
  3  4  1  0
  4  5  1  0
  5  6  1  0
  6  7  2  0
  7  8  1  0
  8  9  2  0
  9 10  1  0
 10 11  2  0
  2 12  1  0
 12 13  2  0
 12 14  1  0
 14 15  1  0
 15 16  1  0
 16 17  2  0
 17 18  1  0
 18 19  2  0
 19 20  1  0
 20 21  2  0
 11  6  1  0
 21 16  1  0
  4 22  1  0
  4 23  1  0
  5 24  1  0
  5 25  1  0
  7 26  1  0
  8 27  1  0
  9 28  1  0
 10 29  1  0
 11 30  1  0
 14 31  1  0
 15 32  1  0
 15 33  1  0
 17 34  1  0
 18 35  1  0
 19 36  1  0
 20 37  1  0
 21 38  1  0
M  CHG  1   3  -1
M  END
>  <UniqueID>  (5) 
5

>  <SMILES>  (5) 
O=C([N-]CCc1ccccc1)C(=O)NCc1ccccc1

>  <Energy>  (5) 
29.50370495581256

>  <Genealogy>  (5) 
O=C([N-]CCc1ccccc1)C(=O)NCc1ccccc1 (protonated)
O=C([N-]CCc1ccccc1)C(=O)NCc1ccccc1 (3D coordinates assigned)
O=C([N-]CCc1ccccc1)C(=O)NCc1ccccc1 (optimized conformer: 29.50370495581256 kcal/mol)

>  <smiles>  (5) 
O=C(NCCc1ccccc1)C(=O)NCc1ccccc1

>  <score_type>  (5) 
oracle

>  <origin>  (5) 
adg

>  <m_score__min__energy>  (5) 
-9.1300000000000008

>  <m_primary>  (5) 
energy

$$$$
5:0
     RDKit          3D

 50 52  0  0  0  0  0  0  0  0999 V2000
   58.2000   27.1830   43.7370 C   0  0  0  0  0  0  0  0  0  0  0  0
   57.7650   27.2740   45.1990 C   0  0  0  0  0  0  0  0  0  0  0  0
   58.9200   27.1910   46.1200 N   0  0  0  0  0  0  0  0  0  0  0  0
   59.7360   25.9560   45.9970 C   0  0  0  0  0  0  0  0  0  0  0  0
   58.9120   24.6620   45.9340 C   0  0  0  0  0  0  0  0  0  0  0  0
   58.5570   27.5010   47.5220 C   0  0  0  0  0  0  0  0  0  0  0  0
   59.3680   28.7060   48.0120 C   0  0  0  0  0  0  0  0  0  0  0  0
   60.2350   29.2370   46.9460 N   0  0  0  0  0  0  0  0  0  0  0  0
   60.1360   30.6870   46.8820 C   0  0  0  0  0  0  0  0  0  0  0  0
   59.1680   31.3020   46.0440 C   0  0  0  0  0  0  0  0  0  0  0  0
   58.3700   30.5450   45.1510 C   0  0  0  0  0  0  0  0  0  0  0  0
   57.3560   31.1420   44.4080 C   0  0  0  0  0  0  0  0  0  0  0  0
   56.2850   30.0840   43.2290 Br  0  0  0  0  0  0  0  0  0  0  0  0
   57.1100   32.5010   44.5370 C   0  0  0  0  0  0  0  0  0  0  0  0
   57.9110   33.2800   45.3670 C   0  0  0  0  0  0  0  0  0  0  0  0
   58.9920   32.7130   46.0910 C   0  0  0  0  0  0  0  0  0  0  0  0
   59.8490   33.4990   46.8360 N   0  0  0  0  0  0  0  0  0  0  0  0
   59.8530   34.9690   46.6460 C   0  0  0  0  0  0  0  0  0  0  0  0
   60.7450   32.9180   47.7120 C   0  0  0  0  0  0  0  0  0  0  0  0
   61.4650   33.6980   48.6550 C   0  0  0  0  0  0  0  0  0  0  0  0
   62.4430   33.1280   49.4670 C   0  0  0  0  0  0  0  0  0  0  0  0
   63.4080   34.2130   50.7090 Br  0  0  0  0  0  0  0  0  0  0  0  0
   62.7250   31.7730   49.3660 C   0  0  0  0  0  0  0  0  0  0  0  0
   61.9950   30.9700   48.4960 C   0  0  0  0  0  0  0  0  0  0  0  0
   60.9570   31.5110   47.6950 C   0  0  0  0  0  0  0  0  0  0  0  0
   59.2756   26.9580   43.6878 H   0  0  0  0  0  0  0  0  0  0  0  0
   57.6349   26.3836   43.2354 H   0  0  0  0  0  0  0  0  0  0  0  0
   58.0027   28.1419   43.2354 H   0  0  0  0  0  0  0  0  0  0  0  0
   57.2500   28.2328   45.3586 H   0  0  0  0  0  0  0  0  0  0  0  0
   57.0960   26.4270   45.4110 H   0  0  0  0  0  0  0  0  0  0  0  0
   60.3355   26.0286   45.0776 H   0  0  0  0  0  0  0  0  0  0  0  0
   60.3544   25.8936   46.9046 H   0  0  0  0  0  0  0  0  0  0  0  0
   58.6924   24.3171   46.9552 H   0  0  0  0  0  0  0  0  0  0  0  0
   57.9691   24.8533   45.4008 H   0  0  0  0  0  0  0  0  0  0  0  0
   59.4842   23.8885   45.4008 H   0  0  0  0  0  0  0  0  0  0  0  0
   57.4837   27.7354   47.5784 H   0  0  0  0  0  0  0  0  0  0  0  0
   58.7791   26.6304   48.1566 H   0  0  0  0  0  0  0  0  0  0  0  0
   58.6750   29.4960   48.3370 H   0  0  0  0  0  0  0  0  0  0  0  0
   60.0051   28.3793   48.8471 H   0  0  0  0  0  0  0  0  0  0  0  0
   61.2290   28.9460   47.0820 H   0  0  0  0  0  0  0  0  0  0  0  0
   59.9940   28.7930   46.0330 H   0  0  0  0  0  0  0  0  0  0  0  0
   58.5552   29.4661   45.0430 H   0  0  0  0  0  0  0  0  0  0  0  0
   56.2805   32.9639   43.9824 H   0  0  0  0  0  0  0  0  0  0  0  0
   57.7022   34.3557   45.4636 H   0  0  0  0  0  0  0  0  0  0  0  0
   59.8544   35.4656   47.6275 H   0  0  0  0  0  0  0  0  0  0  0  0
   60.7520   35.2637   46.0847 H   0  0  0  0  0  0  0  0  0  0  0  0
   58.9557   35.2686   46.0847 H   0  0  0  0  0  0  0  0  0  0  0  0
   61.2465   34.7722   48.7461 H   0  0  0  0  0  0  0  0  0  0  0  0
   63.5279   31.3328   49.9756 H   0  0  0  0  0  0  0  0  0  0  0  0
   62.2267   29.8968   48.4280 H   0  0  0  0  0  0  0  0  0  0  0  0
  1  2  1  0
  2  3  1  0
  3  4  1  0
  4  5  1  0
  3  6  1  0
  6  7  1  0
  7  8  1  0
  8  9  1  0
  9 10  2  0
 10 11  1  0
 11 12  2  0
 12 13  1  0
 12 14  1  0
 14 15  2  0
 15 16  1  0
 16 17  2  0
 17 18  1  0
 17 19  1  0
 19 20  2  0
 20 21  1  0
 21 22  1  0
 21 23  2  0
 23 24  1  0
 24 25  2  0
 25  9  1  0
 16 10  1  0
 25 19  1  0
  1 26  1  0
  1 27  1  0
  1 28  1  0
  2 29  1  0
  2 30  1  0
  4 31  1  0
  4 32  1  0
  5 33  1  0
  5 34  1  0
  5 35  1  0
  6 36  1  0
  6 37  1  0
  7 38  1  0
  7 39  1  0
  8 40  1  0
  8 41  1  0
 11 42  1  0
 14 43  1  0
 15 44  1  0
 18 45  1  0
 18 46  1  0
 18 47  1  0
 20 48  1  0
 23 49  1  0
 24 50  1  0
M  CHG  2   8   1  17   1
M  END
>  <UniqueID>  (6) 
6

>  <SMILES>  (6) 
CCN(CC)CC[NH2+]c1c2cc(Br)ccc2[n+](C)c2cc(Br)ccc12

>  <Energy>  (6) 
80.20363586100633

>  <Genealogy>  (6) 
CCN(CC)CC[NH2+]c1c2cc(Br)ccc2[n+](C)c2cc(Br)ccc12 (protonated)
CCN(CC)CC[NH2+]c1c2cc(Br)ccc2[n+](C)c2cc(Br)ccc12 (3D coordinates assigned)
CCN(CC)CC[NH2+]c1c2cc(Br)ccc2[n+](C)c2cc(Br)ccc12 (optimized conformer: 80.20363586100633 kcal/mol)

>  <smiles>  (6) 
CCN(CC)CCNc1c2cc(Br)ccc2[n+](C)c2cc(Br)ccc12

>  <score_type>  (6) 
oracle

>  <origin>  (6) 
adg

>  <m_score__min__energy>  (6) 
-4.9400000000000004

>  <m_primary>  (6) 
energy

$$$$
6:0
     RDKit          3D

 44 47  0  0  0  0  0  0  0  0999 V2000
   58.1890   25.6130   45.1290 C   0  0  0  0  0  0  0  0  0  0  0  0
   57.7380   26.7620   44.3490 N   0  0  0  0  0  0  0  0  0  0  0  0
   58.1120   28.1210   44.6440 C   0  0  0  0  0  0  0  0  0  0  0  0
   59.4120   28.3910   45.0890 C   0  0  0  0  0  0  0  0  0  0  0  0
   59.8050   29.6970   45.3860 C   0  0  0  0  0  0  0  0  0  0  0  0
   58.8970   30.7610   45.2570 C   0  0  0  0  0  0  0  0  0  0  0  0
   57.5900   30.5040   44.7930 C   0  0  0  0  0  0  0  0  0  0  0  0
   57.2080   29.1890   44.4860 C   0  0  0  0  0  0  0  0  0  0  0  0
   56.6370   31.6320   44.4940 C   0  0  0  0  0  0  0  0  0  0  0  0
   57.0710   32.9570   45.1250 C   0  0  0  0  0  0  0  0  0  0  0  0
   58.5170   33.1780   44.9190 N   0  0  0  0  0  0  0  0  0  0  0  0
   58.9080   34.5900   45.2120 C   0  0  0  0  0  0  0  0  0  0  0  0
   59.9320   34.7580   46.3580 C   0  0  0  0  0  0  0  0  0  0  0  0
   59.6340   33.8010   47.4770 C   0  0  0  0  0  0  0  0  0  0  0  0
   59.6970   34.2140   48.8120 C   0  0  0  0  0  0  0  0  0  0  0  0
   59.3940   33.3190   49.8340 C   0  0  0  0  0  0  0  0  0  0  0  0
   59.0150   32.0120   49.5310 C   0  0  0  0  0  0  0  0  0  0  0  0
   58.9490   31.5710   48.1940 C   0  0  0  0  0  0  0  0  0  0  0  0
   58.5260   30.2680   47.8890 O   0  0  0  0  0  0  0  0  0  0  0  0
   58.9000   29.0960   48.6050 C   0  0  0  0  0  0  0  0  0  0  0  0
   59.3020   32.4720   47.1520 C   0  0  0  0  0  0  0  0  0  0  0  0
   59.3140   32.1620   45.6510 C   0  0  1  0  0  0  0  0  0  0  0  0
   58.0998   25.8402   46.2016 H   0  0  0  0  0  0  0  0  0  0  0  0
   57.5674   24.7384   44.8865 H   0  0  0  0  0  0  0  0  0  0  0  0
   59.2395   25.3948   44.8865 H   0  0  0  0  0  0  0  0  0  0  0  0
   57.1180   26.5750   43.5290 H   0  0  0  0  0  0  0  0  0  0  0  0
   60.1303   27.5661   45.2056 H   0  0  0  0  0  0  0  0  0  0  0  0
   60.8332   29.8944   45.7235 H   0  0  0  0  0  0  0  0  0  0  0  0
   56.1907   28.9903   44.1177 H   0  0  0  0  0  0  0  0  0  0  0  0
   56.5796   31.7640   43.4035 H   0  0  0  0  0  0  0  0  0  0  0  0
   55.6607   31.3640   44.9241 H   0  0  0  0  0  0  0  0  0  0  0  0
   56.5090   33.7806   44.6605 H   0  0  0  0  0  0  0  0  0  0  0  0
   56.8666   32.9209   46.2052 H   0  0  0  0  0  0  0  0  0  0  0  0
   59.3441   35.0203   44.2984 H   0  0  0  0  0  0  0  0  0  0  0  0
   57.9914   35.1019   45.5402 H   0  0  0  0  0  0  0  0  0  0  0  0
   60.9427   34.5595   45.9719 H   0  0  0  0  0  0  0  0  0  0  0  0
   59.8675   35.7862   46.7437 H   0  0  0  0  0  0  0  0  0  0  0  0
   59.9863   35.2472   49.0544 H   0  0  0  0  0  0  0  0  0  0  0  0
   59.4537   33.6437   50.8833 H   0  0  0  0  0  0  0  0  0  0  0  0
   58.7644   31.3164   50.3455 H   0  0  0  0  0  0  0  0  0  0  0  0
   58.8377   29.2911   49.6858 H   0  0  0  0  0  0  0  0  0  0  0  0
   58.2200   28.2726   48.3413 H   0  0  0  0  0  0  0  0  0  0  0  0
   59.9313   28.8187   48.3413 H   0  0  0  0  0  0  0  0  0  0  0  0
   60.3734   32.2120   45.3592 H   0  0  0  0  0  0  0  0  0  0  0  0
  1  2  1  0
  2  3  1  0
  3  4  2  0
  4  5  1  0
  5  6  2  0
  6  7  1  0
  7  8  2  0
  7  9  1  0
  9 10  1  0
 10 11  1  0
 11 12  1  0
 12 13  1  0
 13 14  1  0
 14 15  2  0
 15 16  1  0
 16 17  2  0
 17 18  1  0
 18 19  1  0
 19 20  1  0
 18 21  2  0
 21 22  1  0
  8  3  1  0
 22 11  1  0
 22  6  1  0
 21 14  1  0
  1 23  1  0
  1 24  1  0
  1 25  1  0
  2 26  1  0
  4 27  1  0
  5 28  1  0
  8 29  1  0
  9 30  1  0
  9 31  1  0
 10 32  1  0
 10 33  1  0
 12 34  1  0
 12 35  1  0
 13 36  1  0
 13 37  1  0
 15 38  1  0
 16 39  1  0
 17 40  1  0
 20 41  1  0
 20 42  1  0
 20 43  1  0
 22 44  1  6
M  END
>  <UniqueID>  (7) 
7

>  <SMILES>  (7) 
CNc1ccc2c(c1)CCN1CCc3cccc(OC)c3[C@@H]21

>  <Energy>  (7) 
65.21687766163922

>  <Genealogy>  (7) 
CNc1ccc2c(c1)CCN1CCc3cccc(OC)c3[C@@H]21 (chirality)
CNc1ccc2c(c1)CCN1CCc3cccc(OC)c3[C@@H]21 (3D coordinates assigned)
CNc1ccc2c(c1)CCN1CCc3cccc(OC)c3[C@@H]21 (nonaromatic ring conformer: 65.21687766163922 kcal/mol)

>  <smiles>  (7) 
CNc1ccc2c(c1)CCN1CCc3cccc(OC)c3C21

>  <score_type>  (7) 
oracle

>  <origin>  (7) 
adg

>  <m_score__min__energy>  (7) 
-7.2300000000000004

>  <m_primary>  (7) 
energy

$$$$
7:0
     RDKit          3D

 49 52  0  0  0  0  0  0  0  0999 V2000
   58.7320   32.6740   49.1850 C   0  0  0  0  0  0  0  0  0  0  0  0
   59.6590   33.7970   49.6330 C   0  0  0  0  0  0  0  0  0  0  0  0
   59.7940   34.8020   48.5670 N   0  0  0  0  0  0  0  0  0  0  0  0
   58.8590   34.5730   47.4510 C   0  0  0  0  0  0  0  0  0  0  0  0
   59.4700   34.9580   46.0950 C   0  0  0  0  0  0  0  0  0  0  0  0
   60.3590   33.8980   45.6210 N   0  0  0  0  0  0  0  0  0  0  0  0
   60.6240   32.7320   46.4210 C   0  0  0  0  0  0  0  0  0  0  0  0
   61.7540   32.6900   47.2590 C   0  0  0  0  0  0  0  0  0  0  0  0
   62.6650   33.7660   47.3130 C   0  0  0  0  0  0  0  0  0  0  0  0
   63.7750   33.7190   48.1530 C   0  0  0  0  0  0  0  0  0  0  0  0
   63.9990   32.6020   48.9520 C   0  0  0  0  0  0  0  0  0  0  0  0
   65.5320   32.5390   50.0900 Br  0  0  0  0  0  0  0  0  0  0  0  0
   63.1090   31.5290   48.9190 C   0  0  0  0  0  0  0  0  0  0  0  0
   61.9680   31.5520   48.0790 C   0  0  0  0  0  0  0  0  0  0  0  0
   61.0730   30.5020   48.0560 N   0  0  0  0  0  0  0  0  0  0  0  0
   60.9920   29.6220   49.2410 C   0  0  0  0  0  0  0  0  0  0  0  0
   60.1200   30.4250   47.0540 C   0  0  0  0  0  0  0  0  0  0  0  0
   59.7830   31.6040   46.3390 C   0  0  0  0  0  0  0  0  0  0  0  0
   58.5970   31.6450   45.5830 C   0  0  0  0  0  0  0  0  0  0  0  0
   57.8060   30.5130   45.4370 C   0  0  0  0  0  0  0  0  0  0  0  0
   58.2300   29.2890   45.9550 C   0  0  0  0  0  0  0  0  0  0  0  0
   57.4980   28.1240   45.6710 C   0  0  0  0  0  0  0  0  0  0  0  0
   57.9810   26.8760   46.0650 C   0  0  0  0  0  0  0  0  0  0  0  0
   56.9920   25.2940   45.6510 Br  0  0  0  0  0  0  0  0  0  0  0  0
   59.2100   26.7810   46.7140 C   0  0  0  0  0  0  0  0  0  0  0  0
   59.9370   27.9340   47.0190 C   0  0  0  0  0  0  0  0  0  0  0  0
   59.4260   29.2170   46.7200 C   0  0  0  0  0  0  0  0  0  0  0  0
   58.3148   32.1685   50.0684 H   0  0  0  0  0  0  0  0  0  0  0  0
   57.9133   33.0931   48.5816 H   0  0  0  0  0  0  0  0  0  0  0  0
   59.2986   31.9496   48.5816 H   0  0  0  0  0  0  0  0  0  0  0  0
   59.2424   34.2749   50.5319 H   0  0  0  0  0  0  0  0  0  0  0  0
   60.6504   33.3758   49.8560 H   0  0  0  0  0  0  0  0  0  0  0  0
   60.7790   34.7950   48.2090 H   0  0  0  0  0  0  0  0  0  0  0  0
   58.5887   33.5070   47.4281 H   0  0  0  0  0  0  0  0  0  0  0  0
   57.9747   35.2062   47.6154 H   0  0  0  0  0  0  0  0  0  0  0  0
   58.6630   35.1095   45.3630 H   0  0  0  0  0  0  0  0  0  0  0  0
   60.0495   35.8855   46.2134 H   0  0  0  0  0  0  0  0  0  0  0  0
   60.5710   33.8610   44.5980 H   0  0  0  0  0  0  0  0  0  0  0  0
   62.4966   34.6527   46.6841 H   0  0  0  0  0  0  0  0  0  0  0  0
   64.4758   34.5663   48.1848 H   0  0  0  0  0  0  0  0  0  0  0  0
   63.2956   30.6511   49.5549 H   0  0  0  0  0  0  0  0  0  0  0  0
   61.0481   30.2316   50.1549 H   0  0  0  0  0  0  0  0  0  0  0  0
   60.0394   29.0721   49.2249 H   0  0  0  0  0  0  0  0  0  0  0  0
   61.8282   28.9075   49.2249 H   0  0  0  0  0  0  0  0  0  0  0  0
   58.2924   32.5859   45.1014 H   0  0  0  0  0  0  0  0  0  0  0  0
   56.8422   30.5816   44.9113 H   0  0  0  0  0  0  0  0  0  0  0  0
   56.5398   28.1962   45.1356 H   0  0  0  0  0  0  0  0  0  0  0  0
   59.6098   25.7934   46.9875 H   0  0  0  0  0  0  0  0  0  0  0  0
   60.9223   27.8418   47.4993 H   0  0  0  0  0  0  0  0  0  0  0  0
  1  2  1  0
  2  3  1  0
  3  4  1  0
  4  5  1  0
  5  6  1  0
  6  7  1  0
  7  8  2  0
  8  9  1  0
  9 10  2  0
 10 11  1  0
 11 12  1  0
 11 13  2  0
 13 14  1  0
 14 15  2  0
 15 16  1  0
 15 17  1  0
 17 18  2  0
 18 19  1  0
 19 20  2  0
 20 21  1  0
 21 22  2  0
 22 23  1  0
 23 24  1  0
 23 25  2  0
 25 26  1  0
 26 27  2  0
 18  7  1  0
 27 21  1  0
 14  8  1  0
 27 17  1  0
  1 28  1  0
  1 29  1  0
  1 30  1  0
  2 31  1  0
  2 32  1  0
  3 33  1  0
  4 34  1  0
  4 35  1  0
  5 36  1  0
  5 37  1  0
  6 38  1  0
  9 39  1  0
 10 40  1  0
 13 41  1  0
 16 42  1  0
 16 43  1  0
 16 44  1  0
 19 45  1  0
 20 46  1  0
 22 47  1  0
 25 48  1  0
 26 49  1  0
M  CHG  1  15   1
M  END
>  <UniqueID>  (8) 
8

>  <SMILES>  (8) 
CCNCCNc1c2ccc(Br)cc2[n+](C)c2c1ccc1cc(Br)ccc12

>  <Energy>  (8) 
90.28104128080732

>  <Genealogy>  (8) 
CCNCCNc1c2ccc(Br)cc2[n+](C)c2c1ccc1cc(Br)ccc12 (3D coordinates assigned)
CCNCCNc1c2ccc(Br)cc2[n+](C)c2c1ccc1cc(Br)ccc12 (optimized conformer: 90.28104128080732 kcal/mol)

>  <smiles>  (8) 
CCNCCNc1c2ccc(Br)cc2[n+](C)c2c1ccc1cc(Br)ccc12

>  <score_type>  (8) 
oracle

>  <origin>  (8) 
adg

>  <m_score__min__energy>  (8) 
-7.46

>  <m_primary>  (8) 
energy

$$$$
8:0
     RDKit          3D

 62 64  0  0  0  0  0  0  0  0999 V2000
   59.2970   34.5610   46.8310 C   0  0  0  0  0  0  0  0  0  0  0  0
   59.5480   33.3180   45.9810 C   0  0  0  0  0  0  0  0  0  0  0  0
   58.4150   32.3830   46.0750 N   0  0  0  0  0  0  0  0  0  0  0  0
   57.2580   32.7780   45.2510 C   0  0  0  0  0  0  0  0  0  0  0  0
   56.6560   31.6040   44.4670 C   0  0  0  0  0  0  0  0  0  0  0  0
   56.8430   30.4180   45.2110 O   0  0  0  0  0  0  0  0  0  0  0  0
   57.0200   29.3010   44.3560 C   0  0  0  0  0  0  0  0  0  0  0  0
   58.5140   29.0410   44.1440 C   0  0  0  0  0  0  0  0  0  0  0  0
   59.1740   28.4470   45.3960 C   0  0  0  0  0  0  0  0  0  0  0  0
   59.2700   29.4520   46.4660 N   0  0  0  0  0  0  0  0  0  0  0  0
   58.9780   28.8580   47.7800 C   0  0  0  0  0  0  0  0  0  0  0  0
   58.9970   29.9370   48.8740 C   0  0  0  0  0  0  0  0  0  0  0  0
   59.2960   31.2770   48.3330 N   0  0  0  0  0  0  0  0  0  0  0  0
   60.1470   32.0580   49.2250 C   0  0  0  0  0  0  0  0  0  0  0  0
   61.4970   32.3750   48.8780 C   0  0  0  0  0  0  0  0  0  0  0  0
   62.0760   31.9940   47.6370 C   0  0  0  0  0  0  0  0  0  0  0  0
   63.3720   32.3680   47.2970 C   0  0  0  0  0  0  0  0  0  0  0  0
   64.1270   33.1340   48.1680 C   0  0  0  0  0  0  0  0  0  0  0  0
   63.6070   33.4990   49.4040 C   0  0  0  0  0  0  0  0  0  0  0  0
   62.3070   33.0930   49.8060 C   0  0  0  0  0  0  0  0  0  0  0  0
   61.8300   33.3930   51.0650 N   0  0  0  0  0  0  0  0  0  0  0  0
   62.7700   33.8240   52.1270 C   0  0  0  0  0  0  0  0  0  0  0  0
   60.4870   33.2570   51.3490 C   0  0  0  0  0  0  0  0  0  0  0  0
   59.9250   33.8330   52.5170 C   0  0  0  0  0  0  0  0  0  0  0  0
   58.5890   33.6340   52.8500 C   0  0  0  0  0  0  0  0  0  0  0  0
   57.7770   32.8680   52.0280 C   0  0  0  0  0  0  0  0  0  0  0  0
   58.2850   32.3290   50.8480 C   0  0  0  0  0  0  0  0  0  0  0  0
   59.6340   32.5410   50.4640 C   0  0  0  0  0  0  0  0  0  0  0  0
   59.3510   34.2935   47.8966 H   0  0  0  0  0  0  0  0  0  0  0  0
   60.0599   35.3203   46.6044 H   0  0  0  0  0  0  0  0  0  0  0  0
   58.2992   34.9648   46.6044 H   0  0  0  0  0  0  0  0  0  0  0  0
   59.6806   33.6195   44.9315 H   0  0  0  0  0  0  0  0  0  0  0  0
   60.4527   32.8141   46.3518 H   0  0  0  0  0  0  0  0  0  0  0  0
   58.7390   31.4310   45.7850 H   0  0  0  0  0  0  0  0  0  0  0  0
   56.4825   33.1940   45.9109 H   0  0  0  0  0  0  0  0  0  0  0  0
   57.6114   33.5183   44.5182 H   0  0  0  0  0  0  0  0  0  0  0  0
   55.5810   31.7765   44.3098 H   0  0  0  0  0  0  0  0  0  0  0  0
   57.1509   31.5142   43.4887 H   0  0  0  0  0  0  0  0  0  0  0  0
   56.5564   28.4143   44.8130 H   0  0  0  0  0  0  0  0  0  0  0  0
   56.5463   29.5084   43.3851 H   0  0  0  0  0  0  0  0  0  0  0  0
   58.6374   28.3363   43.3084 H   0  0  0  0  0  0  0  0  0  0  0  0
   59.0003   30.0033   43.9258 H   0  0  0  0  0  0  0  0  0  0  0  0
   58.5718   27.5982   45.7522 H   0  0  0  0  0  0  0  0  0  0  0  0
   60.1893   28.1148   45.1339 H   0  0  0  0  0  0  0  0  0  0  0  0
   58.5430   30.1850   46.2740 H   0  0  0  0  0  0  0  0  0  0  0  0
   57.9838   28.3881   47.7521 H   0  0  0  0  0  0  0  0  0  0  0  0
   59.7466   28.1052   48.0091 H   0  0  0  0  0  0  0  0  0  0  0  0
   58.0113   29.9641   49.3615 H   0  0  0  0  0  0  0  0  0  0  0  0
   59.7915   29.6776   49.5892 H   0  0  0  0  0  0  0  0  0  0  0  0
   59.6750   31.1880   47.3710 H   0  0  0  0  0  0  0  0  0  0  0  0
   58.4010   31.7820   48.1550 H   0  0  0  0  0  0  0  0  0  0  0  0
   61.4869   31.3907   46.9306 H   0  0  0  0  0  0  0  0  0  0  0  0
   63.7981   32.0539   46.3328 H   0  0  0  0  0  0  0  0  0  0  0  0
   65.1397   33.4542   47.8817 H   0  0  0  0  0  0  0  0  0  0  0  0
   64.2142   34.1144   50.0841 H   0  0  0  0  0  0  0  0  0  0  0  0
   62.3271   33.6209   53.1132 H   0  0  0  0  0  0  0  0  0  0  0  0
   63.7146   33.2690   52.0279 H   0  0  0  0  0  0  0  0  0  0  0  0
   62.9659   34.9019   52.0279 H   0  0  0  0  0  0  0  0  0  0  0  0
   60.5580   34.4492   53.1724 H   0  0  0  0  0  0  0  0  0  0  0  0
   58.1771   34.0843   53.7652 H   0  0  0  0  0  0  0  0  0  0  0  0
   56.7291   32.6853   52.3081 H   0  0  0  0  0  0  0  0  0  0  0  0
   57.6279   31.7280   50.2022 H   0  0  0  0  0  0  0  0  0  0  0  0
  1  2  1  0
  2  3  1  0
  3  4  1  0
  4  5  1  0
  5  6  1  0
  6  7  1  0
  7  8  1  0
  8  9  1  0
  9 10  1  0
 10 11  1  0
 11 12  1  0
 12 13  1  0
 13 14  1  0
 14 15  2  0
 15 16  1  0
 16 17  2  0
 17 18  1  0
 18 19  2  0
 19 20  1  0
 20 21  2  0
 21 22  1  0
 21 23  1  0
 23 24  2  0
 24 25  1  0
 25 26  2  0
 26 27  1  0
 27 28  2  0
 28 14  1  0
 20 15  1  0
 28 23  1  0
  1 29  1  0
  1 30  1  0
  1 31  1  0
  2 32  1  0
  2 33  1  0
  3 34  1  0
  4 35  1  0
  4 36  1  0
  5 37  1  0
  5 38  1  0
  7 39  1  0
  7 40  1  0
  8 41  1  0
  8 42  1  0
  9 43  1  0
  9 44  1  0
 10 45  1  0
 11 46  1  0
 11 47  1  0
 12 48  1  0
 12 49  1  0
 13 50  1  0
 13 51  1  0
 16 52  1  0
 17 53  1  0
 18 54  1  0
 19 55  1  0
 22 56  1  0
 22 57  1  0
 22 58  1  0
 24 59  1  0
 25 60  1  0
 26 61  1  0
 27 62  1  0
M  CHG  2  13   1  21   1
M  END
>  <UniqueID>  (9) 
9

>  <SMILES>  (9) 
CCNCCOCCCNCC[NH2+]c1c2ccccc2[n+](C)c2ccccc12

>  <Energy>  (9) 
87.65594354748322

>  <Genealogy>  (9) 
CCNCCOCCCNCC[NH2+]c1c2ccccc2[n+](C)c2ccccc12 (protonated)
CCNCCOCCCNCC[NH2+]c1c2ccccc2[n+](C)c2ccccc12 (3D coordinates assigned)
CCNCCOCCCNCC[NH2+]c1c2ccccc2[n+](C)c2ccccc12 (optimized conformer: 87.65594354748322 kcal/mol)

>  <smiles>  (9) 
CCNCCOCCCNCCNc1c2ccccc2[n+](C)c2ccccc12

>  <score_type>  (9) 
oracle

>  <origin>  (9) 
adg

>  <m_score__min__energy>  (9) 
-3.6600000000000001

>  <m_primary>  (9) 
energy

$$$$
9:0
     RDKit          3D

 54 56  0  0  0  0  0  0  0  0999 V2000
   63.3530   33.9620   46.0260 C   0  0  0  0  0  0  0  0  0  0  0  0
   63.4840   33.7110   47.5350 C   0  0  0  0  0  0  0  0  0  0  0  0
   63.6260   32.2800   47.9100 N   0  0  0  0  0  0  0  0  0  0  0  0
   63.9690   32.0710   49.3370 C   0  0  0  0  0  0  0  0  0  0  0  0
   63.9030   33.3730   50.1370 C   0  0  0  0  0  0  0  0  0  0  0  0
   62.4380   31.4900   47.5090 C   0  0  0  0  0  0  0  0  0  0  0  0
   61.7080   30.8980   48.7220 C   0  0  0  0  0  0  0  0  0  0  0  0
   60.3180   31.3520   48.7820 N   0  0  0  0  0  0  0  0  0  0  0  0
   59.4940   31.4130   47.6020 C   0  0  0  0  0  0  0  0  0  0  0  0
   59.4070   32.6040   46.8610 C   0  0  0  0  0  0  0  0  0  0  0  0
   60.0300   33.7840   47.3210 C   0  0  0  0  0  0  0  0  0  0  0  0
   59.9960   34.9520   46.5660 C   0  0  0  0  0  0  0  0  0  0  0  0
   59.3420   34.9660   45.3420 C   0  0  0  0  0  0  0  0  0  0  0  0
   58.6840   33.8260   44.8840 C   0  0  0  0  0  0  0  0  0  0  0  0
   58.6640   32.6270   45.6490 C   0  0  0  0  0  0  0  0  0  0  0  0
   57.9540   31.5070   45.2430 N   0  0  0  0  0  0  0  0  0  0  0  0
   57.0090   31.6040   44.0990 C   0  0  0  0  0  0  0  0  0  0  0  0
   57.7560   31.6360   42.7660 C   0  0  0  0  0  0  0  0  0  0  0  0
   58.0820   30.3120   45.9370 C   0  0  0  0  0  0  0  0  0  0  0  0
   57.5080   29.0990   45.4650 C   0  0  0  0  0  0  0  0  0  0  0  0
   57.5950   27.9050   46.1970 C   0  0  0  0  0  0  0  0  0  0  0  0
   56.9970   26.6930   45.6950 N   0  0  0  0  0  0  0  0  0  0  0  0
   57.6570   25.9030   44.9890 O   0  0  0  0  0  0  0  0  0  0  0  0
   55.6890   26.3830   45.9880 O   0  0  0  0  0  0  0  0  0  0  0  0
   58.2710   27.9070   47.4190 C   0  0  0  0  0  0  0  0  0  0  0  0
   58.8750   29.0670   47.8890 C   0  0  0  0  0  0  0  0  0  0  0  0
   58.8160   30.2670   47.1520 C   0  0  0  0  0  0  0  0  0  0  0  0
   62.8501   34.9256   45.8569 H   0  0  0  0  0  0  0  0  0  0  0  0
   64.3537   33.9857   45.5700 H   0  0  0  0  0  0  0  0  0  0  0  0
   62.7613   33.1546   45.5700 H   0  0  0  0  0  0  0  0  0  0  0  0
   64.3709   34.2512   47.8978 H   0  0  0  0  0  0  0  0  0  0  0  0
   62.5488   34.0642   47.9940 H   0  0  0  0  0  0  0  0  0  0  0  0
   63.2600   31.3507   49.7712 H   0  0  0  0  0  0  0  0  0  0  0  0
   65.0005   31.6923   49.3873 H   0  0  0  0  0  0  0  0  0  0  0  0
   63.9146   33.1434   51.2127 H   0  0  0  0  0  0  0  0  0  0  0  0
   64.7704   34.0015   49.8868 H   0  0  0  0  0  0  0  0  0  0  0  0
   62.9765   33.9105   49.8868 H   0  0  0  0  0  0  0  0  0  0  0  0
   61.7442   32.1445   46.9611 H   0  0  0  0  0  0  0  0  0  0  0  0
   62.7801   30.6570   46.8773 H   0  0  0  0  0  0  0  0  0  0  0  0
   61.7233   29.8006   48.6485 H   0  0  0  0  0  0  0  0  0  0  0  0
   62.2222   31.2351   49.6341 H   0  0  0  0  0  0  0  0  0  0  0  0
   59.8650   31.4360   49.7210 H   0  0  0  0  0  0  0  0  0  0  0  0
   60.5499   33.7801   48.2904 H   0  0  0  0  0  0  0  0  0  0  0  0
   60.4868   35.8632   46.9387 H   0  0  0  0  0  0  0  0  0  0  0  0
   59.3430   35.8806   44.7309 H   0  0  0  0  0  0  0  0  0  0  0  0
   58.1700   33.8540   43.9119 H   0  0  0  0  0  0  0  0  0  0  0  0
   56.3377   30.7327   44.1133 H   0  0  0  0  0  0  0  0  0  0  0  0
   56.4354   32.5373   44.1993 H   0  0  0  0  0  0  0  0  0  0  0  0
   58.8389   31.6824   42.9536 H   0  0  0  0  0  0  0  0  0  0  0  0
   57.5218   30.7270   42.1925 H   0  0  0  0  0  0  0  0  0  0  0  0
   57.4449   32.5216   42.1925 H   0  0  0  0  0  0  0  0  0  0  0  0
   56.9813   29.0970   44.4993 H   0  0  0  0  0  0  0  0  0  0  0  0
   58.3258   26.9834   48.0140 H   0  0  0  0  0  0  0  0  0  0  0  0
   59.4075   29.0484   48.8513 H   0  0  0  0  0  0  0  0  0  0  0  0
  1  2  1  0
  2  3  1  0
  3  4  1  0
  4  5  1  0
  3  6  1  0
  6  7  1  0
  7  8  1  0
  8  9  1  0
  9 10  2  0
 10 11  1  0
 11 12  2  0
 12 13  1  0
 13 14  2  0
 14 15  1  0
 15 16  2  0
 16 17  1  0
 17 18  1  0
 16 19  1  0
 19 20  2  0
 20 21  1  0
 21 22  1  0
 22 23  2  0
 22 24  1  0
 21 25  2  0
 25 26  1  0
 26 27  2  0
 27  9  1  0
 15 10  1  0
 27 19  1  0
  1 28  1  0
  1 29  1  0
  1 30  1  0
  2 31  1  0
  2 32  1  0
  4 33  1  0
  4 34  1  0
  5 35  1  0
  5 36  1  0
  5 37  1  0
  6 38  1  0
  6 39  1  0
  7 40  1  0
  7 41  1  0
  8 42  1  0
 11 43  1  0
 12 44  1  0
 13 45  1  0
 14 46  1  0
 17 47  1  0
 17 48  1  0
 18 49  1  0
 18 50  1  0
 18 51  1  0
 20 52  1  0
 25 53  1  0
 26 54  1  0
M  CHG  3  16   1  22   1  24  -1
M  END
>  <UniqueID>  (10) 
10

>  <SMILES>  (10) 
CCN(CC)CCNc1c2ccccc2[n+](CC)c2cc([N+](=O)[O-])ccc12

>  <Energy>  (10) 
80.76520060874005

>  <Genealogy>  (10) 
CCN(CC)CCNc1c2ccccc2[n+](CC)c2cc([N+](=O)[O-])ccc12 (3D coordinates assigned)
CCN(CC)CCNc1c2ccccc2[n+](CC)c2cc([N+](=O)[O-])ccc12 (optimized conformer: 80.76520060874005 kcal/mol)

>  <smiles>  (10) 
CCN(CC)CCNc1c2ccccc2[n+](CC)c2cc([N+](=O)[O-])ccc12

>  <score_type>  (10) 
oracle

>  <origin>  (10) 
adg

>  <m_score__min__energy>  (10) 
-6.1900000000000004

>  <m_primary>  (10) 
energy

$$$$
10:0
     RDKit          3D

 55 57  0  0  0  0  0  0  0  0999 V2000
   63.3080   32.7190   47.3340 C   0  0  0  0  0  0  0  0  0  0  0  0
   62.4950   33.9070   46.7910 C   0  0  0  0  0  0  0  0  0  0  0  0
   61.1080   34.0030   47.3290 N   0  0  0  0  0  0  0  0  0  0  0  0
   60.2750   34.9680   46.5730 C   0  0  0  0  0  0  0  0  0  0  0  0
   59.5900   34.2610   45.4050 C   0  0  0  0  0  0  0  0  0  0  0  0
   61.0200   34.2000   48.8020 C   0  0  0  0  0  0  0  0  0  0  0  0
   59.6420   33.7980   49.3570 C   0  0  0  0  0  0  0  0  0  0  0  0
   59.3080   32.3350   49.0250 C   0  0  0  0  0  0  0  0  0  0  0  0
   60.1130   31.8470   47.8930 N   0  0  0  0  0  0  0  0  0  0  0  0
   59.6890   30.4990   47.5320 C   0  0  0  0  0  0  0  0  0  0  0  0
   58.9340   30.2510   46.3410 C   0  0  0  0  0  0  0  0  0  0  0  0
   58.4330   31.2970   45.5260 C   0  0  0  0  0  0  0  0  0  0  0  0
   57.6400   31.0260   44.4100 C   0  0  0  0  0  0  0  0  0  0  0  0
   57.3100   29.7170   44.0860 C   0  0  0  0  0  0  0  0  0  0  0  0
   56.2860   29.3830   42.7020 Cl  0  0  0  0  0  0  0  0  0  0  0  0
   57.8120   28.6690   44.8520 C   0  0  0  0  0  0  0  0  0  0  0  0
   58.6650   28.9040   45.9560 C   0  0  0  0  0  0  0  0  0  0  0  0
   59.2260   27.8560   46.6550 N   0  0  0  0  0  0  0  0  0  0  0  0
   59.3070   26.5160   46.0300 C   0  0  0  0  0  0  0  0  0  0  0  0
   59.7930   28.0680   47.8900 C   0  0  0  0  0  0  0  0  0  0  0  0
   60.1040   26.9790   48.7510 C   0  0  0  0  0  0  0  0  0  0  0  0
   60.7630   27.1650   49.9700 C   0  0  0  0  0  0  0  0  0  0  0  0
   61.0830   26.0390   50.8140 N   0  0  0  0  0  0  0  0  0  0  0  0
   62.2550   25.8270   51.1770 O   0  0  0  0  0  0  0  0  0  0  0  0
   60.0920   25.1870   51.2480 O   0  0  0  0  0  0  0  0  0  0  0  0
   61.1100   28.4610   50.3540 C   0  0  0  0  0  0  0  0  0  0  0  0
   60.7720   29.5540   49.5580 C   0  0  0  0  0  0  0  0  0  0  0  0
   60.0780   29.3890   48.3380 C   0  0  0  0  0  0  0  0  0  0  0  0
   63.2950   32.7379   48.4338 H   0  0  0  0  0  0  0  0  0  0  0  0
   62.8639   31.7776   46.9782 H   0  0  0  0  0  0  0  0  0  0  0  0
   64.3463   32.7921   46.9782 H   0  0  0  0  0  0  0  0  0  0  0  0
   63.0282   34.8343   47.0475 H   0  0  0  0  0  0  0  0  0  0  0  0
   62.4002   33.7520   45.7061 H   0  0  0  0  0  0  0  0  0  0  0  0
   59.5110   35.3921   47.2412 H   0  0  0  0  0  0  0  0  0  0  0  0
   60.9164   35.7722   46.1834 H   0  0  0  0  0  0  0  0  0  0  0  0
   58.8738   33.5218   45.7930 H   0  0  0  0  0  0  0  0  0  0  0  0
   59.0564   35.0010   44.7904 H   0  0  0  0  0  0  0  0  0  0  0  0
   60.3465   33.7511   44.7904 H   0  0  0  0  0  0  0  0  0  0  0  0
   61.7918   33.5858   49.2890 H   0  0  0  0  0  0  0  0  0  0  0  0
   61.1713   35.2693   49.0110 H   0  0  0  0  0  0  0  0  0  0  0  0
   59.6454   33.9251   50.4496 H   0  0  0  0  0  0  0  0  0  0  0  0
   58.8806   34.4409   48.8913 H   0  0  0  0  0  0  0  0  0  0  0  0
   59.5145   31.7111   49.9071 H   0  0  0  0  0  0  0  0  0  0  0  0
   58.2454   32.2756   48.7470 H   0  0  0  0  0  0  0  0  0  0  0  0
   60.0360   32.4960   47.0830 H   0  0  0  0  0  0  0  0  0  0  0  0
   61.1180   31.9060   48.1300 H   0  0  0  0  0  0  0  0  0  0  0  0
   58.6734   32.3405   45.7776 H   0  0  0  0  0  0  0  0  0  0  0  0
   57.2747   31.8535   43.7841 H   0  0  0  0  0  0  0  0  0  0  0  0
   57.5395   27.6351   44.5933 H   0  0  0  0  0  0  0  0  0  0  0  0
   59.3535   25.7473   46.8154 H   0  0  0  0  0  0  0  0  0  0  0  0
   58.4173   26.3485   45.4051 H   0  0  0  0  0  0  0  0  0  0  0  0
   60.2104   26.4569   45.4051 H   0  0  0  0  0  0  0  0  0  0  0  0
   59.8176   25.9608   48.4488 H   0  0  0  0  0  0  0  0  0  0  0  0
   61.6562   28.6217   51.2952 H   0  0  0  0  0  0  0  0  0  0  0  0
   61.0512   30.5661   49.8862 H   0  0  0  0  0  0  0  0  0  0  0  0
  1  2  1  0
  2  3  1  0
  3  4  1  0
  4  5  1  0
  3  6  1  0
  6  7  1  0
  7  8  1  0
  8  9  1  0
  9 10  1  0
 10 11  2  0
 11 12  1  0
 12 13  2  0
 13 14  1  0
 14 15  1  0
 14 16  2  0
 16 17  1  0
 17 18  2  0
 18 19  1  0
 18 20  1  0
 20 21  2  0
 21 22  1  0
 22 23  1  0
 23 24  2  0
 23 25  1  0
 22 26  2  0
 26 27  1  0
 27 28  2  0
 28 10  1  0
 17 11  1  0
 28 20  1  0
  1 29  1  0
  1 30  1  0
  1 31  1  0
  2 32  1  0
  2 33  1  0
  4 34  1  0
  4 35  1  0
  5 36  1  0
  5 37  1  0
  5 38  1  0
  6 39  1  0
  6 40  1  0
  7 41  1  0
  7 42  1  0
  8 43  1  0
  8 44  1  0
  9 45  1  0
  9 46  1  0
 12 47  1  0
 13 48  1  0
 16 49  1  0
 19 50  1  0
 19 51  1  0
 19 52  1  0
 21 53  1  0
 26 54  1  0
 27 55  1  0
M  CHG  4   9   1  18   1  23   1  25  -1
M  END
>  <UniqueID>  (11) 
11

>  <SMILES>  (11) 
CCN(CC)CCC[NH2+]c1c2ccc(Cl)cc2[n+](C)c2cc([N+](=O)[O-])ccc12

>  <Energy>  (11) 
88.62382676956497

>  <Genealogy>  (11) 
CCN(CC)CCC[NH2+]c1c2ccc(Cl)cc2[n+](C)c2cc([N+](=O)[O-])ccc12 (protonated)
CCN(CC)CCC[NH2+]c1c2ccc(Cl)cc2[n+](C)c2cc([N+](=O)[O-])ccc12 (3D coordinates assigned)
CCN(CC)CCC[NH2+]c1c2ccc(Cl)cc2[n+](C)c2cc([N+](=O)[O-])ccc12 (optimized conformer: 88.62382676956497 kcal/mol)

>  <smiles>  (11) 
CCN(CC)CCCNc1c2ccc(Cl)cc2[n+](C)c2cc([N+](=O)[O-])ccc12

>  <score_type>  (11) 
oracle

>  <origin>  (11) 
adg

>  <m_score__min__energy>  (11) 
-4.7599999999999998

>  <m_primary>  (11) 
energy

$$$$
11:0
     RDKit          3D

 70 71  0  0  0  0  0  0  0  0999 V2000
   60.8710   28.9360   45.1380 C   0  0  0  0  0  0  0  0  0  0  0  0
   59.6390   28.2560   44.5560 C   0  0  0  0  0  0  0  0  0  0  0  0
   58.4210   29.0110   44.9410 N   0  0  0  0  0  0  0  0  0  0  0  0
   57.9940   28.7830   46.3380 C   0  0  0  0  0  0  0  0  0  0  0  0
   57.8340   27.2940   46.6320 C   0  0  0  0  0  0  0  0  0  0  0  0
   57.3100   28.8650   43.9660 C   0  0  0  0  0  0  0  0  0  0  0  0
   56.1310   29.8360   44.1810 C   0  0  0  0  0  0  0  0  0  0  0  0
   56.5970   31.1290   44.5150 O   0  0  0  0  0  0  0  0  0  0  0  0
   57.4050   31.6470   43.4720 C   0  0  0  0  0  0  0  0  0  0  0  0
   58.1310   32.9080   43.9570 C   0  0  0  0  0  0  0  0  0  0  0  0
   57.3700   33.6160   45.0850 C   0  0  0  0  0  0  0  0  0  0  0  0
   57.4250   32.8630   46.2860 O   0  0  0  0  0  0  0  0  0  0  0  0
   58.7030   32.9370   46.8950 C   0  0  1  0  0  0  0  0  0  0  0  0
   59.5770   31.7750   46.3990 C   0  0  0  0  0  0  0  0  0  0  0  0
   60.9880   31.8270   47.0170 C   0  0  0  0  0  0  0  0  0  0  0  0
   61.4610   33.2110   47.2930 N   0  0  1  0  0  0  0  0  0  0  0  0
   62.9440   33.2780   47.3430 C   0  0  0  0  0  0  0  0  0  0  0  0
   63.5160   33.7510   48.7050 C   0  0  0  0  0  0  0  0  0  0  0  0
   62.5320   34.5200   49.4870 N   0  0  0  0  0  0  0  0  0  0  0  0
   62.1570   33.8410   50.7350 C   0  0  0  0  0  0  0  0  0  0  0  0
   61.0220   32.8790   50.4950 C   0  0  0  0  0  0  0  0  0  0  0  0
   59.6990   33.3410   50.3980 C   0  0  0  0  0  0  0  0  0  0  0  0
   58.6580   32.4450   50.1350 C   0  0  0  0  0  0  0  0  0  0  0  0
   58.9290   31.0850   49.9680 C   0  0  0  0  0  0  0  0  0  0  0  0
   60.2420   30.6170   50.0680 C   0  0  0  0  0  0  0  0  0  0  0  0
   61.2860   31.5090   50.3290 C   0  0  0  0  0  0  0  0  0  0  0  0
   60.8770   34.2110   46.3730 C   0  0  0  0  0  0  0  0  0  0  0  0
   59.3450   34.2920   46.5320 C   0  0  0  0  0  0  0  0  0  0  0  0
   60.8206   28.9082   46.2365 H   0  0  0  0  0  0  0  0  0  0  0  0
   61.7752   28.4092   44.7990 H   0  0  0  0  0  0  0  0  0  0  0  0
   60.9071   29.9818   44.7990 H   0  0  0  0  0  0  0  0  0  0  0  0
   59.7205   28.2285   43.4594 H   0  0  0  0  0  0  0  0  0  0  0  0
   59.5703   27.2304   44.9477 H   0  0  0  0  0  0  0  0  0  0  0  0
   58.7504   29.2033   47.0172 H   0  0  0  0  0  0  0  0  0  0  0  0
   57.0210   29.2735   46.4885 H   0  0  0  0  0  0  0  0  0  0  0  0
   57.8169   27.1349   47.7203 H   0  0  0  0  0  0  0  0  0  0  0  0
   56.8919   26.9329   46.1938 H   0  0  0  0  0  0  0  0  0  0  0  0
   58.6779   26.7410   46.1938 H   0  0  0  0  0  0  0  0  0  0  0  0
   57.7147   29.0357   42.9575 H   0  0  0  0  0  0  0  0  0  0  0  0
   56.9064   27.8512   44.1049 H   0  0  0  0  0  0  0  0  0  0  0  0
   55.5390   29.8943   43.2557 H   0  0  0  0  0  0  0  0  0  0  0  0
   55.5126   29.4602   45.0095 H   0  0  0  0  0  0  0  0  0  0  0  0
   58.1459   30.8907   43.1736 H   0  0  0  0  0  0  0  0  0  0  0  0
   56.7691   31.9015   42.6112 H   0  0  0  0  0  0  0  0  0  0  0  0
   59.1275   32.6235   44.3259 H   0  0  0  0  0  0  0  0  0  0  0  0
   58.2025   33.6044   43.1085 H   0  0  0  0  0  0  0  0  0  0  0  0
   57.8216   34.6039   45.2588 H   0  0  0  0  0  0  0  0  0  0  0  0
   56.3169   33.7211   44.7851 H   0  0  0  0  0  0  0  0  0  0  0  0
   58.6105   32.8598   47.9884 H   0  0  0  0  0  0  0  0  0  0  0  0
   59.6637   31.8348   45.3041 H   0  0  0  0  0  0  0  0  0  0  0  0
   59.1013   30.8308   46.7026 H   0  0  0  0  0  0  0  0  0  0  0  0
   61.6922   31.3503   46.3192 H   0  0  0  0  0  0  0  0  0  0  0  0
   60.9397   31.3014   47.9821 H   0  0  0  0  0  0  0  0  0  0  0  0
   61.1320   33.4610   48.2570 H   0  0  0  0  0  0  0  0  0  0  0  0
   63.3415   32.2742   47.1323 H   0  0  0  0  0  0  0  0  0  0  0  0
   63.2510   34.0248   46.5960 H   0  0  0  0  0  0  0  0  0  0  0  0
   63.8190   32.8683   49.2874 H   0  0  0  0  0  0  0  0  0  0  0  0
   64.3726   34.4099   48.5001 H   0  0  0  0  0  0  0  0  0  0  0  0
   61.6700   34.6810   48.9120 H   0  0  0  0  0  0  0  0  0  0  0  0
   63.0256   33.2866   51.1200 H   0  0  0  0  0  0  0  0  0  0  0  0
   61.8332   34.5963   51.4662 H   0  0  0  0  0  0  0  0  0  0  0  0
   59.4811   34.4112   50.5294 H   0  0  0  0  0  0  0  0  0  0  0  0
   57.6238   32.8120   50.0595 H   0  0  0  0  0  0  0  0  0  0  0  0
   58.1091   30.3825   49.7578 H   0  0  0  0  0  0  0  0  0  0  0  0
   60.4542   29.5451   49.9411 H   0  0  0  0  0  0  0  0  0  0  0  0
   62.3184   31.1369   50.4047 H   0  0  0  0  0  0  0  0  0  0  0  0
   61.1152   33.9271   45.3373 H   0  0  0  0  0  0  0  0  0  0  0  0
   61.3035   35.1957   46.6147 H   0  0  0  0  0  0  0  0  0  0  0  0
   58.9123   34.6416   45.5830 H   0  0  0  0  0  0  0  0  0  0  0  0
   59.1368   34.9863   47.3594 H   0  0  0  0  0  0  0  0  0  0  0  0
  1  2  1  0
  2  3  1  0
  3  4  1  0
  4  5  1  0
  3  6  1  0
  6  7  1  0
  7  8  1  0
  8  9  1  0
  9 10  1  0
 10 11  1  0
 11 12  1  0
 12 13  1  0
 13 14  1  0
 14 15  1  0
 15 16  1  0
 16 17  1  0
 17 18  1  0
 18 19  1  0
 19 20  1  0
 20 21  1  0
 21 22  2  0
 22 23  1  0
 23 24  2  0
 24 25  1  0
 25 26  2  0
 16 27  1  0
 27 28  1  0
 28 13  1  0
 26 21  1  0
  1 29  1  0
  1 30  1  0
  1 31  1  0
  2 32  1  0
  2 33  1  0
  4 34  1  0
  4 35  1  0
  5 36  1  0
  5 37  1  0
  5 38  1  0
  6 39  1  0
  6 40  1  0
  7 41  1  0
  7 42  1  0
  9 43  1  0
  9 44  1  0
 10 45  1  0
 10 46  1  0
 11 47  1  0
 11 48  1  0
 13 49  1  1
 14 50  1  0
 14 51  1  0
 15 52  1  0
 15 53  1  0
 16 54  1  1
 17 55  1  0
 17 56  1  0
 18 57  1  0
 18 58  1  0
 19 59  1  0
 20 60  1  0
 20 61  1  0
 22 62  1  0
 23 63  1  0
 24 64  1  0
 25 65  1  0
 26 66  1  0
 27 67  1  0
 27 68  1  0
 28 69  1  0
 28 70  1  0
M  CHG  1  16   1
M  END
>  <UniqueID>  (12) 
12

>  <SMILES>  (12) 
CCN(CC)CCOCCCOC1CC[NH+](CCNCc2ccccc2)CC1

>  <Energy>  (12) 
80.46720512023083

>  <Genealogy>  (12) 
CCN(CC)CCOCCCOC1CC[NH+](CCNCc2ccccc2)CC1 (protonated)
CCN(CC)CCOCCCOC1CC[NH+](CCNCc2ccccc2)CC1 (3D coordinates assigned)
CCN(CC)CCOCCCOC1CC[NH+](CCNCc2ccccc2)CC1 (nonaromatic ring conformer: 80.46720512023083 kcal/mol)

>  <smiles>  (12) 
CCN(CC)CCOCCCOC1CCN(CCNCc2ccccc2)CC1

>  <score_type>  (12) 
oracle

>  <origin>  (12) 
adg

>  <m_score__min__energy>  (12) 
-5.3700000000000001

>  <m_primary>  (12) 
energy

$$$$
12:0
     RDKit          3D

 41 40  0  0  0  0  0  0  0  0999 V2000
   59.3090   34.5950   47.2000 C   0  0  0  0  0  0  0  0  0  0  0  0
   59.3450   34.9160   45.7050 C   0  0  0  0  0  0  0  0  0  0  0  0
   58.2640   34.1670   44.9090 C   0  0  0  0  0  0  0  0  0  0  0  0
   58.2860   32.6480   45.1670 C   0  0  0  0  0  0  0  0  0  0  0  0
   57.0030   32.0050   44.8240 N   0  0  0  0  0  0  0  0  0  0  0  0
   57.1630   30.9740   43.7800 C   0  0  0  0  0  0  0  0  0  0  0  0
   56.4800   29.6330   44.1440 C   0  0  2  0  0  0  0  0  0  0  0  0
   55.4780   29.8250   45.1080 O   0  0  0  0  0  0  0  0  0  0  0  0
   57.4740   28.5410   44.5940 C   0  0  0  0  0  0  0  0  0  0  0  0
   57.4120   28.2910   46.0570 N   0  0  0  0  0  0  0  0  0  0  0  0
   57.1810   26.8530   46.3640 C   0  0  0  0  0  0  0  0  0  0  0  0
   57.6780   25.9820   45.2130 C   0  0  0  0  0  0  0  0  0  0  0  0
   58.6340   28.8070   46.7190 C   0  0  0  0  0  0  0  0  0  0  0  0
   59.6880   29.2510   45.7060 C   0  0  0  0  0  0  0  0  0  0  0  0
   59.4134   35.5254   47.7774 H   0  0  0  0  0  0  0  0  0  0  0  0
   58.3513   34.1145   47.4489 H   0  0  0  0  0  0  0  0  0  0  0  0
   60.1364   33.9142   47.4489 H   0  0  0  0  0  0  0  0  0  0  0  0
   59.1921   35.9974   45.5739 H   0  0  0  0  0  0  0  0  0  0  0  0
   60.3235   34.5927   45.3202 H   0  0  0  0  0  0  0  0  0  0  0  0
   57.2779   34.5595   45.1980 H   0  0  0  0  0  0  0  0  0  0  0  0
   58.4659   34.3269   43.8396 H   0  0  0  0  0  0  0  0  0  0  0  0
   59.0825   32.1967   44.5571 H   0  0  0  0  0  0  0  0  0  0  0  0
   58.4657   32.4908   46.2408 H   0  0  0  0  0  0  0  0  0  0  0  0
   56.3070   32.7290   44.5310 H   0  0  0  0  0  0  0  0  0  0  0  0
   56.6490   31.5420   45.6920 H   0  0  0  0  0  0  0  0  0  0  0  0
   56.7212   31.3500   42.8454 H   0  0  0  0  0  0  0  0  0  0  0  0
   58.2400   30.7767   43.6749 H   0  0  0  0  0  0  0  0  0  0  0  0
   56.0169   29.2643   43.2168 H   0  0  0  0  0  0  0  0  0  0  0  0
   55.9070   29.7190   45.9980 H   0  0  0  0  0  0  0  0  0  0  0  0
   57.2362   27.6064   44.0650 H   0  0  0  0  0  0  0  0  0  0  0  0
   58.4892   28.8906   44.3549 H   0  0  0  0  0  0  0  0  0  0  0  0
   57.7239   26.5858   47.2826 H   0  0  0  0  0  0  0  0  0  0  0  0
   56.1029   26.6841   46.5024 H   0  0  0  0  0  0  0  0  0  0  0  0
   58.1849   25.0936   45.6178 H   0  0  0  0  0  0  0  0  0  0  0  0
   56.8235   25.6672   44.5959 H   0  0  0  0  0  0  0  0  0  0  0  0
   58.3837   26.5575   44.5959 H   0  0  0  0  0  0  0  0  0  0  0  0
   58.3611   29.6671   47.3481 H   0  0  0  0  0  0  0  0  0  0  0  0
   59.0633   27.9937   47.3226 H   0  0  0  0  0  0  0  0  0  0  0  0
   60.5747   29.6245   46.2392 H   0  0  0  0  0  0  0  0  0  0  0  0
   59.9728   28.3964   45.0747 H   0  0  0  0  0  0  0  0  0  0  0  0
   59.2754   30.0518   45.0747 H   0  0  0  0  0  0  0  0  0  0  0  0
  1  2  1  0
  2  3  1  0
  3  4  1  0
  4  5  1  0
  5  6  1  0
  6  7  1  0
  7  8  1  0
  7  9  1  0
  9 10  1  0
 10 11  1  0
 11 12  1  0
 10 13  1  0
 13 14  1  0
  1 15  1  0
  1 16  1  0
  1 17  1  0
  2 18  1  0
  2 19  1  0
  3 20  1  0
  3 21  1  0
  4 22  1  0
  4 23  1  0
  5 24  1  0
  5 25  1  0
  6 26  1  0
  6 27  1  0
  7 28  1  6
  8 29  1  0
  9 30  1  0
  9 31  1  0
 11 32  1  0
 11 33  1  0
 12 34  1  0
 12 35  1  0
 12 36  1  0
 13 37  1  0
 13 38  1  0
 14 39  1  0
 14 40  1  0
 14 41  1  0
M  CHG  1   5   1
M  END
>  <UniqueID>  (13) 
13

>  <SMILES>  (13) 
CCCC[NH2+]C[C@H](O)CN(CC)CC

>  <Energy>  (13) 
30.897308776919928

>  <Genealogy>  (13) 
CCCC[NH2+]CC(O)CN(CC)CC (protonated)
CCCC[NH2+]C[C@H](O)CN(CC)CC (chirality)
CCCC[NH2+]C[C@H](O)CN(CC)CC (3D coordinates assigned)
CCCC[NH2+]C[C@H](O)CN(CC)CC (optimized conformer: 30.897308776919928 kcal/mol)

>  <smiles>  (13) 
CCCCNCC(O)CN(CC)CC

>  <score_type>  (13) 
oracle

>  <origin>  (13) 
adg

>  <m_score__min__energy>  (13) 
-3.7599999999999998

>  <m_primary>  (13) 
energy

$$$$
13:0
     RDKit          3D

 44 45  0  0  0  0  0  0  0  0999 V2000
   58.9950   31.7590   49.4490 C   0  0  0  0  0  0  0  0  0  0  0  0
   60.2980   30.9540   49.4530 C   0  0  0  0  0  0  0  0  0  0  0  0
   61.4490   31.7390   48.9740 N   0  0  0  0  0  0  0  0  0  0  0  0
   62.5860   31.6910   49.9080 C   0  0  0  0  0  0  0  0  0  0  0  0
   63.8950   32.0840   49.1940 C   0  0  0  0  0  0  0  0  0  0  0  0
   63.6960   32.3220   47.7540 N   0  0  0  0  0  0  0  0  0  0  0  0
   63.4370   33.7360   47.4450 C   0  0  0  0  0  0  0  0  0  0  0  0
   62.3380   33.8510   46.3870 C   0  0  0  0  0  0  0  0  0  0  0  0
   61.2120   33.0500   46.7450 O   0  0  0  0  0  0  0  0  0  0  0  0
   59.9040   33.2030   46.2470 C   0  0  0  0  0  0  0  0  0  0  0  0
   59.3130   34.4730   46.0710 C   0  0  0  0  0  0  0  0  0  0  0  0
   58.0090   34.5890   45.5850 C   0  0  0  0  0  0  0  0  0  0  0  0
   57.2710   33.4480   45.2670 C   0  0  0  0  0  0  0  0  0  0  0  0
   57.8360   32.1810   45.4320 C   0  0  0  0  0  0  0  0  0  0  0  0
   57.1110   31.0720   45.1190 N   0  0  0  0  0  0  0  0  0  0  0  0
   57.6200   29.8180   45.2540 C   0  0  0  0  0  0  0  0  0  0  0  0
   56.7770   28.6320   44.9100 C   0  0  0  0  0  0  0  0  0  0  0  0
   58.9210   29.6440   45.7410 C   0  0  0  0  0  0  0  0  0  0  0  0
   59.6890   30.7600   46.0730 C   0  0  0  0  0  0  0  0  0  0  0  0
   59.1560   32.0520   45.9240 C   0  0  0  0  0  0  0  0  0  0  0  0
   58.6808   31.9531   50.4851 H   0  0  0  0  0  0  0  0  0  0  0  0
   59.1563   32.7151   48.9295 H   0  0  0  0  0  0  0  0  0  0  0  0
   58.2122   31.1869   48.9295 H   0  0  0  0  0  0  0  0  0  0  0  0
   60.5026   30.6195   50.4807 H   0  0  0  0  0  0  0  0  0  0  0  0
   60.1665   30.1029   48.7686 H   0  0  0  0  0  0  0  0  0  0  0  0
   61.1360   32.7330   48.8740 H   0  0  0  0  0  0  0  0  0  0  0  0
   61.7470   31.3950   48.0290 H   0  0  0  0  0  0  0  0  0  0  0  0
   62.4025   32.3909   50.7365 H   0  0  0  0  0  0  0  0  0  0  0  0
   62.6863   30.6645   50.2905 H   0  0  0  0  0  0  0  0  0  0  0  0
   64.2866   33.0034   49.6538 H   0  0  0  0  0  0  0  0  0  0  0  0
   64.6019   31.2482   49.3027 H   0  0  0  0  0  0  0  0  0  0  0  0
   64.5410   32.0020   47.2230 H   0  0  0  0  0  0  0  0  0  0  0  0
   63.1166   34.2555   48.3601 H   0  0  0  0  0  0  0  0  0  0  0  0
   64.3588   34.1942   47.0573 H   0  0  0  0  0  0  0  0  0  0  0  0
   62.0231   34.9018   46.3052 H   0  0  0  0  0  0  0  0  0  0  0  0
   62.7339   33.4970   45.4237 H   0  0  0  0  0  0  0  0  0  0  0  0
   59.8849   35.3794   46.3189 H   0  0  0  0  0  0  0  0  0  0  0  0
   57.5612   35.5849   45.4521 H   0  0  0  0  0  0  0  0  0  0  0  0
   56.2437   33.5463   44.8862 H   0  0  0  0  0  0  0  0  0  0  0  0
   56.4320   28.1467   45.8349 H   0  0  0  0  0  0  0  0  0  0  0  0
   55.9073   28.9587   44.3210 H   0  0  0  0  0  0  0  0  0  0  0  0
   57.3714   27.9181   44.3210 H   0  0  0  0  0  0  0  0  0  0  0  0
   59.3355   28.6322   45.8612 H   0  0  0  0  0  0  0  0  0  0  0  0
   60.7133   30.6288   46.4520 H   0  0  0  0  0  0  0  0  0  0  0  0
  1  2  1  0
  2  3  1  0
  3  4  1  0
  4  5  1  0
  5  6  1  0
  6  7  1  0
  7  8  1  0
  8  9  1  0
  9 10  1  0
 10 11  2  0
 11 12  1  0
 12 13  2  0
 13 14  1  0
 14 15  2  0
 15 16  1  0
 16 17  1  0
 16 18  2  0
 18 19  1  0
 19 20  2  0
 20 10  1  0
 20 14  1  0
  1 21  1  0
  1 22  1  0
  1 23  1  0
  2 24  1  0
  2 25  1  0
  3 26  1  0
  3 27  1  0
  4 28  1  0
  4 29  1  0
  5 30  1  0
  5 31  1  0
  6 32  1  0
  7 33  1  0
  7 34  1  0
  8 35  1  0
  8 36  1  0
 11 37  1  0
 12 38  1  0
 13 39  1  0
 17 40  1  0
 17 41  1  0
 17 42  1  0
 18 43  1  0
 19 44  1  0
M  CHG  1   3   1
M  END
>  <UniqueID>  (14) 
14

>  <SMILES>  (14) 
CC[NH2+]CCNCCOc1cccc2nc(C)ccc12

>  <Energy>  (14) 
42.11132025312217

>  <Genealogy>  (14) 
CC[NH2+]CCNCCOc1cccc2nc(C)ccc12 (protonated)
CC[NH2+]CCNCCOc1cccc2nc(C)ccc12 (3D coordinates assigned)
CC[NH2+]CCNCCOc1cccc2nc(C)ccc12 (optimized conformer: 42.11132025312217 kcal/mol)

>  <smiles>  (14) 
CCNCCNCCOc1cccc2nc(C)ccc12

>  <score_type>  (14) 
oracle

>  <origin>  (14) 
adg

>  <m_score__min__energy>  (14) 
-4.1600000000000001

>  <m_primary>  (14) 
energy

$$$$
14:0
     RDKit          3D

 75 77  0  0  0  0  0  0  0  0999 V2000
   65.1150   32.7330   49.7930 C   0  0  0  0  0  0  0  0  0  0  0  0
   63.9820   31.6950   49.7790 C   0  0  0  0  0  0  0  0  0  0  0  0
   62.8530   32.0940   48.9060 N   0  0  0  0  0  0  0  0  0  0  0  0
   63.1930   31.9430   47.4670 C   0  0  0  0  0  0  0  0  0  0  0  0
   63.5920   33.2620   46.7770 C   0  0  0  0  0  0  0  0  0  0  0  0
   62.3340   33.4640   49.2120 C   0  0  0  0  0  0  0  0  0  0  0  0
   60.9090   33.6670   48.6670 C   0  0  0  0  0  0  0  0  0  0  0  0
   60.1000   32.4590   48.8430 N   0  0  0  0  0  0  0  0  0  0  0  0
   59.5710   31.7650   47.7020 C   0  0  0  0  0  0  0  0  0  0  0  0
   58.9000   32.4880   46.7000 C   0  0  0  0  0  0  0  0  0  0  0  0
   58.6690   33.8740   46.8370 C   0  0  0  0  0  0  0  0  0  0  0  0
   58.0210   34.5920   45.8360 C   0  0  0  0  0  0  0  0  0  0  0  0
   57.5570   33.9370   44.7020 C   0  0  0  0  0  0  0  0  0  0  0  0
   57.7450   32.5640   44.5590 C   0  0  0  0  0  0  0  0  0  0  0  0
   58.4280   31.8110   45.5460 C   0  0  0  0  0  0  0  0  0  0  0  0
   58.6080   30.4490   45.4230 N   0  0  0  0  0  0  0  0  0  0  0  0
   58.3780   29.7930   44.1160 C   0  0  0  0  0  0  0  0  0  0  0  0
   59.0360   29.7070   46.5070 C   0  0  0  0  0  0  0  0  0  0  0  0
   58.8890   28.3010   46.5400 C   0  0  0  0  0  0  0  0  0  0  0  0
   59.3830   27.5450   47.6050 C   0  0  0  0  0  0  0  0  0  0  0  0
   59.2060   26.0530   47.6060 C   0  0  0  0  0  0  0  0  0  0  0  0
   60.1000   28.1740   48.6250 C   0  0  0  0  0  0  0  0  0  0  0  0
   60.2600   29.5690   48.6300 C   0  0  0  0  0  0  0  0  0  0  0  0
   61.0770   30.1960   49.5810 O   0  0  0  0  0  0  0  0  0  0  0  0
   61.1660   29.8920   50.9710 C   0  0  0  0  0  0  0  0  0  0  0  0
   59.8620   30.2580   51.6910 C   0  0  0  0  0  0  0  0  0  0  0  0
   59.8490   31.7180   52.2300 C   0  0  0  0  0  0  0  0  0  0  0  0
   58.5160   32.3970   52.2890 N   0  0  0  0  0  0  0  0  0  0  0  0
   57.7490   32.0180   51.0750 C   0  0  0  0  0  0  0  0  0  0  0  0
   57.7430   31.9560   53.4770 C   0  0  0  0  0  0  0  0  0  0  0  0
   58.6470   33.8740   52.3110 C   0  0  0  0  0  0  0  0  0  0  0  0
   59.6270   30.3540   47.6270 C   0  0  0  0  0  0  0  0  0  0  0  0
   65.3784   32.9743   50.8334 H   0  0  0  0  0  0  0  0  0  0  0  0
   65.9955   32.3216   49.2778 H   0  0  0  0  0  0  0  0  0  0  0  0
   64.7821   33.6461   49.2778 H   0  0  0  0  0  0  0  0  0  0  0  0
   64.3858   30.7379   49.4171 H   0  0  0  0  0  0  0  0  0  0  0  0
   63.5953   31.6107   50.8053 H   0  0  0  0  0  0  0  0  0  0  0  0
   62.0930   31.3910   49.0720 H   0  0  0  0  0  0  0  0  0  0  0  0
   64.0344   31.2396   47.3821 H   0  0  0  0  0  0  0  0  0  0  0  0
   62.2860   31.5802   46.9614 H   0  0  0  0  0  0  0  0  0  0  0  0
   63.8214   34.0203   47.5402 H   0  0  0  0  0  0  0  0  0  0  0  0
   64.4794   33.0935   46.1492 H   0  0  0  0  0  0  0  0  0  0  0  0
   62.7600   33.6137   46.1492 H   0  0  0  0  0  0  0  0  0  0  0  0
   62.3221   33.6054   50.3028 H   0  0  0  0  0  0  0  0  0  0  0  0
   62.9947   34.1976   48.7269 H   0  0  0  0  0  0  0  0  0  0  0  0
   60.4334   34.4996   49.2061 H   0  0  0  0  0  0  0  0  0  0  0  0
   60.9747   33.8898   47.5918 H   0  0  0  0  0  0  0  0  0  0  0  0
   60.0500   31.9930   49.7760 H   0  0  0  0  0  0  0  0  0  0  0  0
   59.0054   34.3932   47.7465 H   0  0  0  0  0  0  0  0  0  0  0  0
   57.8764   35.6772   45.9427 H   0  0  0  0  0  0  0  0  0  0  0  0
   57.0395   34.5044   43.9144 H   0  0  0  0  0  0  0  0  0  0  0  0
   57.3564   32.0556   43.6642 H   0  0  0  0  0  0  0  0  0  0  0  0
   58.0181   28.7665   44.2793 H   0  0  0  0  0  0  0  0  0  0  0  0
   57.6249   30.3597   43.5488 H   0  0  0  0  0  0  0  0  0  0  0  0
   59.3201   29.7654   43.5488 H   0  0  0  0  0  0  0  0  0  0  0  0
   58.3755   27.7929   45.7105 H   0  0  0  0  0  0  0  0  0  0  0  0
   59.1629   25.6896   48.6433 H   0  0  0  0  0  0  0  0  0  0  0  0
   58.2709   25.7943   47.0877 H   0  0  0  0  0  0  0  0  0  0  0  0
   60.0547   25.5827   47.0877 H   0  0  0  0  0  0  0  0  0  0  0  0
   60.5433   27.5714   49.4315 H   0  0  0  0  0  0  0  0  0  0  0  0
   61.3563   28.8155   51.0937 H   0  0  0  0  0  0  0  0  0  0  0  0
   61.9879   30.4774   51.4089 H   0  0  0  0  0  0  0  0  0  0  0  0
   59.0271   30.1385   50.9848 H   0  0  0  0  0  0  0  0  0  0  0  0
   59.7681   29.5881   52.5585 H   0  0  0  0  0  0  0  0  0  0  0  0
   60.2609   31.7013   53.2498 H   0  0  0  0  0  0  0  0  0  0  0  0
   60.4402   32.3000   51.5077 H   0  0  0  0  0  0  0  0  0  0  0  0
   56.7996   31.5489   51.3727 H   0  0  0  0  0  0  0  0  0  0  0  0
   57.5418   32.9174   50.4766 H   0  0  0  0  0  0  0  0  0  0  0  0
   58.3375   31.3070   50.4766 H   0  0  0  0  0  0  0  0  0  0  0  0
   58.2730   32.2584   54.3922 H   0  0  0  0  0  0  0  0  0  0  0  0
   56.7465   32.4215   53.4596 H   0  0  0  0  0  0  0  0  0  0  0  0
   57.6366   30.8613   53.4596 H   0  0  0  0  0  0  0  0  0  0  0  0
   58.6780   34.2239   53.3534 H   0  0  0  0  0  0  0  0  0  0  0  0
   59.5747   34.1675   51.7980 H   0  0  0  0  0  0  0  0  0  0  0  0
   57.7854   34.3262   51.7980 H   0  0  0  0  0  0  0  0  0  0  0  0
  1  2  1  0
  2  3  1  0
  3  4  1  0
  4  5  1  0
  3  6  1  0
  6  7  1  0
  7  8  1  0
  8  9  1  0
  9 10  2  0
 10 11  1  0
 11 12  2  0
 12 13  1  0
 13 14  2  0
 14 15  1  0
 15 16  2  0
 16 17  1  0
 16 18  1  0
 18 19  2  0
 19 20  1  0
 20 21  1  0
 20 22  2  0
 22 23  1  0
 23 24  1  0
 24 25  1  0
 25 26  1  0
 26 27  1  0
 27 28  1  0
 28 29  1  0
 28 30  1  0
 28 31  1  0
 23 32  2  0
 32  9  1  0
 15 10  1  0
 32 18  1  0
  1 33  1  0
  1 34  1  0
  1 35  1  0
  2 36  1  0
  2 37  1  0
  3 38  1  0
  4 39  1  0
  4 40  1  0
  5 41  1  0
  5 42  1  0
  5 43  1  0
  6 44  1  0
  6 45  1  0
  7 46  1  0
  7 47  1  0
  8 48  1  0
 11 49  1  0
 12 50  1  0
 13 51  1  0
 14 52  1  0
 17 53  1  0
 17 54  1  0
 17 55  1  0
 19 56  1  0
 21 57  1  0
 21 58  1  0
 21 59  1  0
 22 60  1  0
 25 61  1  0
 25 62  1  0
 26 63  1  0
 26 64  1  0
 27 65  1  0
 27 66  1  0
 29 67  1  0
 29 68  1  0
 29 69  1  0
 30 70  1  0
 30 71  1  0
 30 72  1  0
 31 73  1  0
 31 74  1  0
 31 75  1  0
M  CHG  3   3   1  16   1  28   1
M  END
>  <UniqueID>  (15) 
15

>  <SMILES>  (15) 
CC[NH+](CC)CCNc1c2ccccc2[n+](C)c2cc(C)cc(OCCC[N+](C)(C)C)c12

>  <Energy>  (15) 
116.64909684665714

>  <Genealogy>  (15) 
CC[NH+](CC)CCNc1c2ccccc2[n+](C)c2cc(C)cc(OCCC[N+](C)(C)C)c12 (protonated)
CC[NH+](CC)CCNc1c2ccccc2[n+](C)c2cc(C)cc(OCCC[N+](C)(C)C)c12 (3D coordinates assigned)
CC[NH+](CC)CCNc1c2ccccc2[n+](C)c2cc(C)cc(OCCC[N+](C)(C)C)c12 (optimized conformer: 116.64909684665714 kcal/mol)

>  <smiles>  (15) 
CCN(CC)CCNc1c2ccccc2[n+](C)c2cc(C)cc(OCCC[N+](C)(C)C)c12

>  <score_type>  (15) 
oracle

>  <origin>  (15) 
adg

>  <m_score__min__energy>  (15) 
-2.6600000000000001

>  <m_primary>  (15) 
energy

$$$$
15:0
     RDKit          3D

 43 45  0  0  0  0  0  0  0  0999 V2000
   54.7730   23.5900   45.0470 C   0  0  0  0  0  0  0  0  0  0  0  0
   54.2910   24.9320   45.6030 C   0  0  0  0  0  0  0  0  0  0  0  0
   55.4050   25.7710   46.0800 N   0  0  0  0  0  0  0  0  0  0  0  0
   56.6840   25.4430   45.4310 C   0  0  0  0  0  0  0  0  0  0  0  0
   57.7260   26.5330   45.7010 C   0  0  0  0  0  0  0  0  0  0  0  0
   57.1000   27.7450   46.2320 N   0  0  0  0  0  0  0  0  0  0  0  0
   57.7670   29.0100   46.1320 C   0  0  0  0  0  0  0  0  0  0  0  0
   58.6460   29.4270   47.1430 C   0  0  0  0  0  0  0  0  0  0  0  0
   58.8830   28.6140   48.2700 C   0  0  0  0  0  0  0  0  0  0  0  0
   59.8030   28.9980   49.2430 C   0  0  0  0  0  0  0  0  0  0  0  0
   60.5070   30.1900   49.1040 C   0  0  0  0  0  0  0  0  0  0  0  0
   61.7000   30.6450   50.3090 Cl  0  0  0  0  0  0  0  0  0  0  0  0
   60.2720   31.0200   48.0070 C   0  0  0  0  0  0  0  0  0  0  0  0
   59.3080   30.6790   47.0230 C   0  0  0  0  0  0  0  0  0  0  0  0
   59.0180   31.5180   45.9620 N   0  0  0  0  0  0  0  0  0  0  0  0
   59.4820   32.9240   45.9850 C   0  0  0  0  0  0  0  0  0  0  0  0
   58.2670   31.0550   44.8970 C   0  0  0  0  0  0  0  0  0  0  0  0
   58.1560   31.7850   43.6860 C   0  0  0  0  0  0  0  0  0  0  0  0
   57.3480   31.3320   42.6410 C   0  0  0  0  0  0  0  0  0  0  0  0
   57.2250   32.2610   41.1580 Cl  0  0  0  0  0  0  0  0  0  0  0  0
   56.6440   30.1380   42.7700 C   0  0  0  0  0  0  0  0  0  0  0  0
   56.7670   29.3780   43.9300 C   0  0  0  0  0  0  0  0  0  0  0  0
   57.5930   29.8090   44.9900 C   0  0  0  0  0  0  0  0  0  0  0  0
   55.0158   22.9139   45.8800 H   0  0  0  0  0  0  0  0  0  0  0  0
   53.9795   23.1422   44.4307 H   0  0  0  0  0  0  0  0  0  0  0  0
   55.6701   23.7494   44.4307 H   0  0  0  0  0  0  0  0  0  0  0  0
   53.7557   25.4726   44.8085 H   0  0  0  0  0  0  0  0  0  0  0  0
   53.6337   24.7251   46.4604 H   0  0  0  0  0  0  0  0  0  0  0  0
   55.5090   25.6650   47.1170 H   0  0  0  0  0  0  0  0  0  0  0  0
   57.0535   24.4851   45.8257 H   0  0  0  0  0  0  0  0  0  0  0  0
   56.5207   25.3723   44.3455 H   0  0  0  0  0  0  0  0  0  0  0  0
   58.4570   26.1572   46.4320 H   0  0  0  0  0  0  0  0  0  0  0  0
   58.2207   26.7844   44.7512 H   0  0  0  0  0  0  0  0  0  0  0  0
   56.1220   27.7280   46.6010 H   0  0  0  0  0  0  0  0  0  0  0  0
   58.3357   27.6664   48.3823 H   0  0  0  0  0  0  0  0  0  0  0  0
   59.9730   28.3585   50.1217 H   0  0  0  0  0  0  0  0  0  0  0  0
   60.8435   31.9541   47.9033 H   0  0  0  0  0  0  0  0  0  0  0  0
   59.5918   33.2569   47.0277 H   0  0  0  0  0  0  0  0  0  0  0  0
   60.4523   32.9983   45.4722 H   0  0  0  0  0  0  0  0  0  0  0  0
   58.7465   33.5613   45.4722 H   0  0  0  0  0  0  0  0  0  0  0  0
   58.7161   32.7243   43.5679 H   0  0  0  0  0  0  0  0  0  0  0  0
   55.9900   29.7947   41.9548 H   0  0  0  0  0  0  0  0  0  0  0  0
   56.2143   28.4313   44.0213 H   0  0  0  0  0  0  0  0  0  0  0  0
  1  2  1  0
  2  3  1  0
  3  4  1  0
  4  5  1  0
  5  6  1  0
  6  7  1  0
  7  8  2  0
  8  9  1  0
  9 10  2  0
 10 11  1  0
 11 12  1  0
 11 13  2  0
 13 14  1  0
 14 15  2  0
 15 16  1  0
 15 17  1  0
 17 18  2  0
 18 19  1  0
 19 20  1  0
 19 21  2  0
 21 22  1  0
 22 23  2  0
 23  7  1  0
 14  8  1  0
 23 17  1  0
  1 24  1  0
  1 25  1  0
  1 26  1  0
  2 27  1  0
  2 28  1  0
  3 29  1  0
  4 30  1  0
  4 31  1  0
  5 32  1  0
  5 33  1  0
  6 34  1  0
  9 35  1  0
 10 36  1  0
 13 37  1  0
 16 38  1  0
 16 39  1  0
 16 40  1  0
 18 41  1  0
 21 42  1  0
 22 43  1  0
M  CHG  1  15   1
M  END
>  <UniqueID>  (16) 
16

>  <SMILES>  (16) 
CCNCCNc1c2ccc(Cl)cc2[n+](C)c2cc(Cl)ccc12

>  <Energy>  (16) 
67.77630878149876

>  <Genealogy>  (16) 
CCNCCNc1c2ccc(Cl)cc2[n+](C)c2cc(Cl)ccc12 (3D coordinates assigned)
CCNCCNc1c2ccc(Cl)cc2[n+](C)c2cc(Cl)ccc12 (optimized conformer: 67.77630878149876 kcal/mol)

>  <smiles>  (16) 
CCNCCNc1c2ccc(Cl)cc2[n+](C)c2cc(Cl)ccc12

>  <score_type>  (16) 
oracle

>  <origin>  (16) 
adg

>  <m_score__min__energy>  (16) 
-6.1500000000000004

>  <m_primary>  (16) 
energy

$$$$
16:0
     RDKit          3D

 54 57  0  0  0  0  0  0  0  0999 V2000
   65.0870   32.3810   49.7760 C   0  0  0  0  0  0  0  0  0  0  0  0
   63.6980   31.7450   49.7170 C   0  0  0  0  0  0  0  0  0  0  0  0
   62.7580   32.5530   48.9080 N   0  0  0  0  0  0  0  0  0  0  0  0
   63.3770   33.6800   48.1680 C   0  0  0  0  0  0  0  0  0  0  0  0
   63.3870   33.5060   46.6420 C   0  0  0  0  0  0  0  0  0  0  0  0
   61.5580   32.9610   49.6730 C   0  0  0  0  0  0  0  0  0  0  0  0
   60.3130   32.3010   49.0770 C   0  0  0  0  0  0  0  0  0  0  0  0
   60.6660   31.4250   47.9600 N   0  0  0  0  0  0  0  0  0  0  0  0
   59.8230   31.3540   46.8030 C   0  0  0  0  0  0  0  0  0  0  0  0
   59.4190   32.5470   46.1750 C   0  0  0  0  0  0  0  0  0  0  0  0
   59.9020   33.7950   46.6240 C   0  0  0  0  0  0  0  0  0  0  0  0
   59.5050   34.9770   46.0040 C   0  0  0  0  0  0  0  0  0  0  0  0
   58.6280   34.9370   44.9270 C   0  0  0  0  0  0  0  0  0  0  0  0
   58.1390   33.7160   44.4640 C   0  0  0  0  0  0  0  0  0  0  0  0
   58.5200   32.4940   45.0770 C   0  0  0  0  0  0  0  0  0  0  0  0
   58.0380   31.2780   44.6360 N   0  0  0  0  0  0  0  0  0  0  0  0
   57.0680   31.2330   43.5180 C   0  0  0  0  0  0  0  0  0  0  0  0
   58.4650   30.1050   45.2170 C   0  0  0  0  0  0  0  0  0  0  0  0
   58.0150   28.9080   44.7510 N   0  0  0  0  0  0  0  0  0  0  0  0
   58.4070   27.7280   45.2780 C   0  0  0  0  0  0  0  0  0  0  0  0
   57.9080   26.5270   44.7590 C   0  0  0  0  0  0  0  0  0  0  0  0
   58.3200   25.3080   45.3000 C   0  0  0  0  0  0  0  0  0  0  0  0
   59.2310   25.2850   46.3580 C   0  0  0  0  0  0  0  0  0  0  0  0
   59.7340   26.4810   46.8800 C   0  0  0  0  0  0  0  0  0  0  0  0
   59.3240   27.7190   46.3440 C   0  0  0  0  0  0  0  0  0  0  0  0
   59.7990   28.9060   46.8310 N   0  0  0  0  0  0  0  0  0  0  0  0
   60.7370   28.8680   47.8410 O   0  0  0  0  0  0  0  0  0  0  0  0
   59.3770   30.1100   46.3030 C   0  0  0  0  0  0  0  0  0  0  0  0
   65.3837   32.5169   50.8265 H   0  0  0  0  0  0  0  0  0  0  0  0
   65.8122   31.7253   49.2720 H   0  0  0  0  0  0  0  0  0  0  0  0
   65.0644   33.3585   49.2720 H   0  0  0  0  0  0  0  0  0  0  0  0
   63.7834   30.7438   49.2694 H   0  0  0  0  0  0  0  0  0  0  0  0
   63.3044   31.6870   50.7425 H   0  0  0  0  0  0  0  0  0  0  0  0
   62.8178   34.5968   48.4063 H   0  0  0  0  0  0  0  0  0  0  0  0
   64.4290   33.7252   48.4863 H   0  0  0  0  0  0  0  0  0  0  0  0
   63.4485   32.4358   46.3954 H   0  0  0  0  0  0  0  0  0  0  0  0
   62.4632   33.9273   46.2189 H   0  0  0  0  0  0  0  0  0  0  0  0
   64.2565   34.0304   46.2189 H   0  0  0  0  0  0  0  0  0  0  0  0
   61.6701   32.6486   50.7217 H   0  0  0  0  0  0  0  0  0  0  0  0
   61.4491   34.0544   49.6210 H   0  0  0  0  0  0  0  0  0  0  0  0
   59.8135   31.7064   49.8561 H   0  0  0  0  0  0  0  0  0  0  0  0
   59.6432   33.0901   48.7045 H   0  0  0  0  0  0  0  0  0  0  0  0
   61.5920   30.9420   47.9270 H   0  0  0  0  0  0  0  0  0  0  0  0
   60.5999   33.8343   47.4733 H   0  0  0  0  0  0  0  0  0  0  0  0
   59.8859   35.9430   46.3671 H   0  0  0  0  0  0  0  0  0  0  0  0
   58.3183   35.8722   44.4377 H   0  0  0  0  0  0  0  0  0  0  0  0
   57.4465   33.6996   43.6095 H   0  0  0  0  0  0  0  0  0  0  0  0
   56.0457   31.1856   43.9212 H   0  0  0  0  0  0  0  0  0  0  0  0
   57.1773   32.1372   42.9011 H   0  0  0  0  0  0  0  0  0  0  0  0
   57.2605   30.3428   42.9011 H   0  0  0  0  0  0  0  0  0  0  0  0
   57.1912   26.5442   43.9248 H   0  0  0  0  0  0  0  0  0  0  0  0
   57.9268   24.3649   44.8926 H   0  0  0  0  0  0  0  0  0  0  0  0
   59.5541   24.3229   46.7823 H   0  0  0  0  0  0  0  0  0  0  0  0
   60.4527   26.4558   47.7124 H   0  0  0  0  0  0  0  0  0  0  0  0
  1  2  1  0
  2  3  1  0
  3  4  1  0
  4  5  1  0
  3  6  1  0
  6  7  1  0
  7  8  1  0
  8  9  1  0
  9 10  2  0
 10 11  1  0
 11 12  2  0
 12 13  1  0
 13 14  2  0
 14 15  1  0
 15 16  2  0
 16 17  1  0
 16 18  1  0
 18 19  2  0
 19 20  1  0
 20 21  2  0
 21 22  1  0
 22 23  2  0
 23 24  1  0
 24 25  2  0
 25 26  1  0
 26 27  1  0
 26 28  2  0
 28  9  1  0
 15 10  1  0
 28 18  1  0
 25 20  1  0
  1 29  1  0
  1 30  1  0
  1 31  1  0
  2 32  1  0
  2 33  1  0
  4 34  1  0
  4 35  1  0
  5 36  1  0
  5 37  1  0
  5 38  1  0
  6 39  1  0
  6 40  1  0
  7 41  1  0
  7 42  1  0
  8 43  1  0
 11 44  1  0
 12 45  1  0
 13 46  1  0
 14 47  1  0
 17 48  1  0
 17 49  1  0
 17 50  1  0
 21 51  1  0
 22 52  1  0
 23 53  1  0
 24 54  1  0
M  CHG  3  16   1  26   1  27  -1
M  END
>  <UniqueID>  (17) 
17

>  <SMILES>  (17) 
CCN(CC)CCNc1c2ccccc2[n+](C)c2nc3ccccc3[n+]([O-])c12

>  <Energy>  (17) 
87.26636501713351

>  <Genealogy>  (17) 
CCN(CC)CCNc1c2ccccc2[n+](C)c2nc3ccccc3[n+]([O-])c12 (3D coordinates assigned)
CCN(CC)CCNc1c2ccccc2[n+](C)c2nc3ccccc3[n+]([O-])c12 (optimized conformer: 87.26636501713351 kcal/mol)

>  <smiles>  (17) 
CCN(CC)CCNc1c2ccccc2[n+](C)c2nc3ccccc3[n+]([O-])c12

>  <score_type>  (17) 
oracle

>  <origin>  (17) 
adg

>  <m_score__min__energy>  (17) 
-5.96

>  <m_primary>  (17) 
energy

$$$$
17:0
     RDKit          3D

 53 55  0  0  0  0  0  0  0  0999 V2000
   56.0591   19.3908   45.4001 H   0  0  0  0  0  0  0  0  0  0  0  0
   56.3210   20.3740   45.8180 C   0  0  0  0  0  0  0  0  0  0  0  0
   55.5420   20.9300   46.8350 C   0  0  0  0  0  0  0  0  0  0  0  0
   54.6731   20.3794   47.2248 H   0  0  0  0  0  0  0  0  0  0  0  0
   55.8650   22.1850   47.3580 C   0  0  0  0  0  0  0  0  0  0  0  0
   55.2576   22.6128   48.1692 H   0  0  0  0  0  0  0  0  0  0  0  0
   56.9590   22.9010   46.8540 C   0  0  0  0  0  0  0  0  0  0  0  0
   54.9130   24.9370   46.0620 N   0  0  0  0  0  0  0  0  0  0  0  0
   55.9610   25.7080   46.1970 C   0  0  0  0  0  0  0  0  0  0  0  0
   57.1600   25.3450   46.8800 C   0  0  0  0  0  0  0  0  0  0  0  0
   57.2810   24.1720   47.4370 N   0  0  0  0  0  0  0  0  0  0  0  0
   54.4930   24.0360   44.9840 C   0  0  0  0  0  0  0  0  0  0  0  0
   54.2151   23.0638   45.4171 H   0  0  0  0  0  0  0  0  0  0  0  0
   53.6354   24.4899   44.4657 H   0  0  0  0  0  0  0  0  0  0  0  0
   55.6170   23.8260   43.9670 C   0  0  0  0  0  0  0  0  0  0  0  0
   55.5946   24.6414   43.2290 H   0  0  0  0  0  0  0  0  0  0  0  0
   56.5807   23.8213   44.4973 H   0  0  0  0  0  0  0  0  0  0  0  0
   55.4560   22.5920   43.3010 O   0  0  0  0  0  0  0  0  0  0  0  0
   56.6450   22.2740   42.6130 C   0  0  0  0  0  0  0  0  0  0  0  0
   57.4430   22.0606   43.3394 H   0  0  0  0  0  0  0  0  0  0  0  0
   56.4777   21.3890   41.9815 H   0  0  0  0  0  0  0  0  0  0  0  0
   56.9418   23.1243   41.9815 H   0  0  0  0  0  0  0  0  0  0  0  0
   55.8910   26.9420   45.6330 N   0  0  0  0  0  0  0  0  0  0  0  0
   56.9100   27.8330   45.6900 C   0  0  0  0  0  0  0  0  0  0  0  0
   56.7830   29.0920   45.0960 C   0  0  0  0  0  0  0  0  0  0  0  0
   55.8454   29.3598   44.5868 H   0  0  0  0  0  0  0  0  0  0  0  0
   57.8430   30.0250   45.1410 C   0  0  0  0  0  0  0  0  0  0  0  0
   57.7150   31.3390   44.5230 N   0  0  0  0  0  0  0  0  0  0  0  0
   57.5340   32.5530   45.3360 C   0  0  0  0  0  0  0  0  0  0  0  0
   57.8939   32.3592   46.3572 H   0  0  0  0  0  0  0  0  0  0  0  0
   56.4649   32.8116   45.3472 H   0  0  0  0  0  0  0  0  0  0  0  0
   58.3130   33.7270   44.7460 C   0  0  0  0  0  0  0  0  0  0  0  0
   58.7215   34.3426   45.5610 H   0  0  0  0  0  0  0  0  0  0  0  0
   59.1376   33.3453   44.1261 H   0  0  0  0  0  0  0  0  0  0  0  0
   57.6409   34.3385   44.1261 H   0  0  0  0  0  0  0  0  0  0  0  0
   57.7590   31.5050   43.0590 C   0  0  0  0  0  0  0  0  0  0  0  0
   57.5959   32.5643   42.8117 H   0  0  0  0  0  0  0  0  0  0  0  0
   58.7433   31.1729   42.6973 H   0  0  0  0  0  0  0  0  0  0  0  0
   56.6810   30.6620   42.3820 C   0  0  0  0  0  0  0  0  0  0  0  0
   56.0599   30.1763   43.1490 H   0  0  0  0  0  0  0  0  0  0  0  0
   56.0500   31.3087   41.7546 H   0  0  0  0  0  0  0  0  0  0  0  0
   57.1565   29.8937   41.7546 H   0  0  0  0  0  0  0  0  0  0  0  0
   59.0320   29.6460   45.8040 C   0  0  0  0  0  0  0  0  0  0  0  0
   59.8732   30.3531   45.8534 H   0  0  0  0  0  0  0  0  0  0  0  0
   59.1560   28.3870   46.3980 C   0  0  0  0  0  0  0  0  0  0  0  0
   60.0904   28.1123   46.9093 H   0  0  0  0  0  0  0  0  0  0  0  0
   58.0960   27.4740   46.3450 C   0  0  0  0  0  0  0  0  0  0  0  0
   58.1970   26.2430   46.9150 N   0  0  0  0  0  0  0  0  0  0  0  0
   59.1030   25.9880   47.3700 H   0  0  0  0  0  0  0  0  0  0  0  0
   57.7650   22.3230   45.8500 C   0  0  0  0  0  0  0  0  0  0  0  0
   59.2110   23.1290   45.2530 Cl  0  0  0  0  0  0  0  0  0  0  0  0
   57.4330   21.0660   45.3310 C   0  0  0  0  0  0  0  0  0  0  0  0
   58.0501   20.6211   44.5365 H   0  0  0  0  0  0  0  0  0  0  0  0
  1  2  1  0
  2  3  2  0
  3  4  1  0
  3  5  1  0
  5  6  1  0
  5  7  2  0
  7  8  1  0
  8  9  2  0
  9 10  1  0
 10 11  2  0
 11 12  1  0
 12 13  1  0
 12 14  1  0
 12 15  1  0
 15 16  1  0
 15 17  1  0
 15 18  1  0
 18 19  1  0
 19 20  1  0
 19 21  1  0
 19 22  1  0
 10 23  1  0
 23 24  1  0
 24 25  2  0
 25 26  1  0
 25 27  1  0
 27 28  1  0
 28 29  1  0
 29 30  1  0
 29 31  1  0
 29 32  1  0
 32 33  1  0
 32 34  1  0
 32 35  1  0
 28 36  1  0
 36 37  1  0
 36 38  1  0
 36 39  1  0
 39 40  1  0
 39 41  1  0
 39 42  1  0
 27 43  2  0
 43 44  1  0
 43 45  1  0
 45 46  1  0
 45 47  2  0
 47 48  1  0
 48 49  1  0
  7 50  1  0
 50 51  1  0
 50 52  2  0
 52 53  1  0
 52  2  1  0
 48  9  1  0
 47 24  1  0
M  CHG  1  23  -1
M  END
>  <UniqueID>  (18) 
18

>  <SMILES>  (18) 
CCN(CC)c1ccc2[nH]c(=N\c3ccccc3Cl)/c(=N\CCOC)[n-]c2c1

>  <Energy>  (18) 
74.20161645517238

>  <Genealogy>  (18) 
CCN(CC)c1ccc2[nH]c(=Nc3ccccc3Cl)c(=NCCOC)[n-]c2c1 (protonated)
CCN(CC)c1ccc2[nH]c(=N\c3ccccc3Cl)/c(=N\CCOC)[n-]c2c1 (cis-trans isomerization)
CCN(CC)c1ccc2[nH]c(=N\c3ccccc3Cl)/c(=N\CCOC)[n-]c2c1 (3D coordinates assigned)
CCN(CC)c1ccc2[nH]c(=N\c3ccccc3Cl)/c(=N\CCOC)[n-]c2c1 (optimized conformer: 74.20161645517238 kcal/mol)

>  <smiles>  (18) 
CCN(CC)c1ccc2[nH]c(=Nc3ccccc3Cl)c(=NCCOC)[nH]c2c1

>  <score_type>  (18) 
oracle

>  <origin>  (18) 
adg

>  <m_score__min__energy>  (18) 
-9.6799999999999997

>  <m_primary>  (18) 
energy

$$$$
18:0
     RDKit          3D

 64 66  0  0  0  0  0  0  0  0999 V2000
   63.5620   33.0550   46.9390 C   0  0  0  0  0  0  0  0  0  0  0  0
   62.8430   33.3800   48.2450 C   0  0  0  0  0  0  0  0  0  0  0  0
   63.2980   32.4580   49.3150 N   0  0  0  0  0  0  0  0  0  0  0  0
   64.7760   32.3770   49.4140 C   0  0  0  0  0  0  0  0  0  0  0  0
   65.3860   33.3520   50.4350 C   0  0  0  0  0  0  0  0  0  0  0  0
   62.6390   32.6730   50.6270 C   0  0  0  0  0  0  0  0  0  0  0  0
   62.9760   31.5370   51.6060 C   0  0  0  0  0  0  0  0  0  0  0  0
   62.9170   30.2680   50.9840 O   0  0  0  0  0  0  0  0  0  0  0  0
   61.6710   29.6450   51.2330 C   0  0  0  0  0  0  0  0  0  0  0  0
   60.9860   29.3480   49.8870 C   0  0  0  0  0  0  0  0  0  0  0  0
   61.3610   30.3110   48.8370 N   0  0  0  0  0  0  0  0  0  0  0  0
   61.0130   29.7960   47.5070 C   0  0  0  0  0  0  0  0  0  0  0  0
   59.6890   29.0250   47.5520 C   0  0  0  0  0  0  0  0  0  0  0  0
   58.5670   29.9460   47.7470 N   0  0  0  0  0  0  0  0  0  0  0  0
   58.5930   31.2720   47.1910 C   0  0  0  0  0  0  0  0  0  0  0  0
   59.0100   32.3630   47.9710 C   0  0  0  0  0  0  0  0  0  0  0  0
   59.2200   32.2180   49.3590 C   0  0  0  0  0  0  0  0  0  0  0  0
   59.6110   33.3060   50.1370 C   0  0  0  0  0  0  0  0  0  0  0  0
   59.7820   34.5550   49.5530 C   0  0  0  0  0  0  0  0  0  0  0  0
   59.5730   34.7240   48.1830 C   0  0  0  0  0  0  0  0  0  0  0  0
   59.2010   33.6310   47.3580 C   0  0  0  0  0  0  0  0  0  0  0  0
   59.0120   33.7780   45.9950 N   0  0  0  0  0  0  0  0  0  0  0  0
   59.4810   35.0080   45.3150 C   0  0  0  0  0  0  0  0  0  0  0  0
   58.4030   32.7690   45.2710 C   0  0  0  0  0  0  0  0  0  0  0  0
   57.9340   32.9770   43.9480 C   0  0  0  0  0  0  0  0  0  0  0  0
   57.3900   31.9310   43.2030 C   0  0  0  0  0  0  0  0  0  0  0  0
   57.2870   30.6580   43.7550 C   0  0  0  0  0  0  0  0  0  0  0  0
   56.6270   29.3390   42.8040 Cl  0  0  0  0  0  0  0  0  0  0  0  0
   57.6920   30.4350   45.0710 C   0  0  0  0  0  0  0  0  0  0  0  0
   58.2230   31.4850   45.8500 C   0  0  0  0  0  0  0  0  0  0  0  0
   64.5436   32.6113   47.1615 H   0  0  0  0  0  0  0  0  0  0  0  0
   62.9604   32.3413   46.3570 H   0  0  0  0  0  0  0  0  0  0  0  0
   63.7003   33.9781   46.3570 H   0  0  0  0  0  0  0  0  0  0  0  0
   63.0676   34.4165   48.5368 H   0  0  0  0  0  0  0  0  0  0  0  0
   61.7590   33.2608   48.1010 H   0  0  0  0  0  0  0  0  0  0  0  0
   65.0479   31.3525   49.7081 H   0  0  0  0  0  0  0  0  0  0  0  0
   65.1779   32.6539   48.4282 H   0  0  0  0  0  0  0  0  0  0  0  0
   65.1663   33.0008   51.4540 H   0  0  0  0  0  0  0  0  0  0  0  0
   66.4754   33.3999   50.2906 H   0  0  0  0  0  0  0  0  0  0  0  0
   64.9526   34.3527   50.2906 H   0  0  0  0  0  0  0  0  0  0  0  0
   62.9846   33.6274   51.0509 H   0  0  0  0  0  0  0  0  0  0  0  0
   61.5500   32.6912   50.4731 H   0  0  0  0  0  0  0  0  0  0  0  0
   63.9922   31.6943   51.9967 H   0  0  0  0  0  0  0  0  0  0  0  0
   62.2319   31.5539   52.4160 H   0  0  0  0  0  0  0  0  0  0  0  0
   61.8309   28.7051   51.7816 H   0  0  0  0  0  0  0  0  0  0  0  0
   61.0354   30.3095   51.8368 H   0  0  0  0  0  0  0  0  0  0  0  0
   61.2755   28.3387   49.5593 H   0  0  0  0  0  0  0  0  0  0  0  0
   59.8997   29.4281   50.0406 H   0  0  0  0  0  0  0  0  0  0  0  0
   62.3950   30.4870   48.8830 H   0  0  0  0  0  0  0  0  0  0  0  0
   60.9157   30.6395   46.8076 H   0  0  0  0  0  0  0  0  0  0  0  0
   61.8081   29.1127   47.1740 H   0  0  0  0  0  0  0  0  0  0  0  0
   59.5527   28.4836   46.6042 H   0  0  0  0  0  0  0  0  0  0  0  0
   59.7180   28.3158   48.3923 H   0  0  0  0  0  0  0  0  0  0  0  0
   57.6750   29.5860   48.1600 H   0  0  0  0  0  0  0  0  0  0  0  0
   59.0735   31.2357   49.8318 H   0  0  0  0  0  0  0  0  0  0  0  0
   59.7846   33.1757   51.2154 H   0  0  0  0  0  0  0  0  0  0  0  0
   60.0829   35.4132   50.1718 H   0  0  0  0  0  0  0  0  0  0  0  0
   59.6988   35.7210   47.7356 H   0  0  0  0  0  0  0  0  0  0  0  0
   59.7666   35.7571   46.0681 H   0  0  0  0  0  0  0  0  0  0  0  0
   60.3515   34.7700   44.6860 H   0  0  0  0  0  0  0  0  0  0  0  0
   58.6731   35.4100   44.6860 H   0  0  0  0  0  0  0  0  0  0  0  0
   58.0006   33.9805   43.5024 H   0  0  0  0  0  0  0  0  0  0  0  0
   57.0413   32.1130   42.1757 H   0  0  0  0  0  0  0  0  0  0  0  0
   57.5964   29.4294   45.5064 H   0  0  0  0  0  0  0  0  0  0  0  0
  1  2  1  0
  2  3  1  0
  3  4  1  0
  4  5  1  0
  3  6  1  0
  6  7  1  0
  7  8  1  0
  8  9  1  0
  9 10  1  0
 10 11  1  0
 11 12  1  0
 12 13  1  0
 13 14  1  0
 14 15  1  0
 15 16  2  0
 16 17  1  0
 17 18  2  0
 18 19  1  0
 19 20  2  0
 20 21  1  0
 21 22  2  0
 22 23  1  0
 22 24  1  0
 24 25  2  0
 25 26  1  0
 26 27  2  0
 27 28  1  0
 27 29  1  0
 29 30  2  0
 30 15  1  0
 21 16  1  0
 30 24  1  0
  1 31  1  0
  1 32  1  0
  1 33  1  0
  2 34  1  0
  2 35  1  0
  4 36  1  0
  4 37  1  0
  5 38  1  0
  5 39  1  0
  5 40  1  0
  6 41  1  0
  6 42  1  0
  7 43  1  0
  7 44  1  0
  9 45  1  0
  9 46  1  0
 10 47  1  0
 10 48  1  0
 11 49  1  0
 12 50  1  0
 12 51  1  0
 13 52  1  0
 13 53  1  0
 14 54  1  0
 17 55  1  0
 18 56  1  0
 19 57  1  0
 20 58  1  0
 23 59  1  0
 23 60  1  0
 23 61  1  0
 25 62  1  0
 26 63  1  0
 29 64  1  0
M  CHG  1  22   1
M  END
>  <UniqueID>  (19) 
19

>  <SMILES>  (19) 
CCN(CC)CCOCCNCCNc1c2ccccc2[n+](C)c2ccc(Cl)cc12

>  <Energy>  (19) 
86.7533902145789

>  <Genealogy>  (19) 
CCN(CC)CCOCCNCCNc1c2ccccc2[n+](C)c2ccc(Cl)cc12 (3D coordinates assigned)
CCN(CC)CCOCCNCCNc1c2ccccc2[n+](C)c2ccc(Cl)cc12 (optimized conformer: 86.7533902145789 kcal/mol)

>  <smiles>  (19) 
CCN(CC)CCOCCNCCNc1c2ccccc2[n+](C)c2ccc(Cl)cc12

>  <score_type>  (19) 
oracle

>  <origin>  (19) 
adg

>  <m_score__min__energy>  (19) 
-5.7300000000000004

>  <m_primary>  (19) 
energy

$$$$
19:0
     RDKit          3D

 47 49  0  0  0  0  0  0  0  0999 V2000
   65.2600   32.5780   49.9260 C   0  0  0  0  0  0  0  0  0  0  0  0
   63.9430   31.9780   49.4120 C   0  0  0  0  0  0  0  0  0  0  0  0
   63.6480   32.2660   47.9820 N   0  0  0  0  0  0  0  0  0  0  0  0
   63.1200   33.6350   47.7480 C   0  0  0  0  0  0  0  0  0  0  0  0
   63.3920   34.1440   46.3290 C   0  0  0  0  0  0  0  0  0  0  0  0
   62.7370   31.2470   47.4030 C   0  0  0  0  0  0  0  0  0  0  0  0
   61.3510   31.4870   47.8150 N   0  0  0  0  0  0  0  0  0  0  0  0
   60.2590   31.2860   46.9010 C   0  0  0  0  0  0  0  0  0  0  0  0
   59.6030   32.3880   46.3210 C   0  0  0  0  0  0  0  0  0  0  0  0
   59.9440   33.7090   46.6830 C   0  0  0  0  0  0  0  0  0  0  0  0
   59.2680   34.7940   46.1330 C   0  0  0  0  0  0  0  0  0  0  0  0
   58.2350   34.5860   45.2290 C   0  0  0  0  0  0  0  0  0  0  0  0
   57.8880   33.2910   44.8460 C   0  0  0  0  0  0  0  0  0  0  0  0
   58.5850   32.1650   45.3550 C   0  0  0  0  0  0  0  0  0  0  0  0
   58.2900   30.8790   44.9420 N   0  0  0  0  0  0  0  0  0  0  0  0
   57.4580   30.6610   43.7370 C   0  0  0  0  0  0  0  0  0  0  0  0
   58.7850   29.7970   45.6440 C   0  0  0  0  0  0  0  0  0  0  0  0
   58.2910   28.4830   45.4390 C   0  0  0  0  0  0  0  0  0  0  0  0
   58.8180   27.3970   46.1370 C   0  0  0  0  0  0  0  0  0  0  0  0
   59.8320   27.5910   47.0690 C   0  0  0  0  0  0  0  0  0  0  0  0
   60.3130   28.8720   47.3200 C   0  0  0  0  0  0  0  0  0  0  0  0
   59.8010   29.9870   46.6200 C   0  0  0  0  0  0  0  0  0  0  0  0
   65.2586   32.5773   51.0260 H   0  0  0  0  0  0  0  0  0  0  0  0
   66.1047   31.9759   49.5601 H   0  0  0  0  0  0  0  0  0  0  0  0
   65.3600   33.6105   49.5601 H   0  0  0  0  0  0  0  0  0  0  0  0
   63.9903   30.8864   49.5396 H   0  0  0  0  0  0  0  0  0  0  0  0
   63.1376   32.4460   49.9971 H   0  0  0  0  0  0  0  0  0  0  0  0
   64.5640   32.1870   47.4780 H   0  0  0  0  0  0  0  0  0  0  0  0
   62.0328   33.6252   47.9151 H   0  0  0  0  0  0  0  0  0  0  0  0
   63.6352   34.3114   48.4459 H   0  0  0  0  0  0  0  0  0  0  0  0
   63.9099   35.1131   46.3801 H   0  0  0  0  0  0  0  0  0  0  0  0
   64.0229   33.4189   45.7940 H   0  0  0  0  0  0  0  0  0  0  0  0
   62.4386   34.2655   45.7940 H   0  0  0  0  0  0  0  0  0  0  0  0
   62.7989   31.2912   46.3056 H   0  0  0  0  0  0  0  0  0  0  0  0
   63.0440   30.2553   47.7666 H   0  0  0  0  0  0  0  0  0  0  0  0
   61.1710   31.9850   48.7150 H   0  0  0  0  0  0  0  0  0  0  0  0
   60.7530   33.8828   47.4078 H   0  0  0  0  0  0  0  0  0  0  0  0
   59.5527   35.8184   46.4151 H   0  0  0  0  0  0  0  0  0  0  0  0
   57.6886   35.4456   44.8136 H   0  0  0  0  0  0  0  0  0  0  0  0
   57.0602   33.1399   44.1375 H   0  0  0  0  0  0  0  0  0  0  0  0
   56.4354   30.3931   44.0411 H   0  0  0  0  0  0  0  0  0  0  0  0
   57.4326   31.5828   43.1373 H   0  0  0  0  0  0  0  0  0  0  0  0
   57.8879   29.8452   43.1373 H   0  0  0  0  0  0  0  0  0  0  0  0
   57.4779   28.3180   44.7167 H   0  0  0  0  0  0  0  0  0  0  0  0
   58.4309   26.3845   45.9501 H   0  0  0  0  0  0  0  0  0  0  0  0
   60.2542   26.7303   47.6084 H   0  0  0  0  0  0  0  0  0  0  0  0
   61.1016   29.0184   48.0727 H   0  0  0  0  0  0  0  0  0  0  0  0
  1  2  1  0
  2  3  1  0
  3  4  1  0
  4  5  1  0
  3  6  1  0
  6  7  1  0
  7  8  1  0
  8  9  2  0
  9 10  1  0
 10 11  2  0
 11 12  1  0
 12 13  2  0
 13 14  1  0
 14 15  2  0
 15 16  1  0
 15 17  1  0
 17 18  2  0
 18 19  1  0
 19 20  2  0
 20 21  1  0
 21 22  2  0
 22  8  1  0
 14  9  1  0
 22 17  1  0
  1 23  1  0
  1 24  1  0
  1 25  1  0
  2 26  1  0
  2 27  1  0
  3 28  1  0
  4 29  1  0
  4 30  1  0
  5 31  1  0
  5 32  1  0
  5 33  1  0
  6 34  1  0
  6 35  1  0
  7 36  1  0
 10 37  1  0
 11 38  1  0
 12 39  1  0
 13 40  1  0
 16 41  1  0
 16 42  1  0
 16 43  1  0
 18 44  1  0
 19 45  1  0
 20 46  1  0
 21 47  1  0
M  CHG  2   3   1  15   1
M  END
>  <UniqueID>  (20) 
20

>  <SMILES>  (20) 
CC[NH+](CC)CNc1c2ccccc2[n+](C)c2ccccc12

>  <Energy>  (20) 
76.76815755897893

>  <Genealogy>  (20) 
CC[NH+](CC)CNc1c2ccccc2[n+](C)c2ccccc12 (protonated)
CC[NH+](CC)CNc1c2ccccc2[n+](C)c2ccccc12 (3D coordinates assigned)
CC[NH+](CC)CNc1c2ccccc2[n+](C)c2ccccc12 (optimized conformer: 76.76815755897893 kcal/mol)

>  <smiles>  (20) 
CCN(CC)CNc1c2ccccc2[n+](C)c2ccccc12

>  <score_type>  (20) 
oracle

>  <origin>  (20) 
adg

>  <m_score__min__energy>  (20) 
-4.3300000000000001

>  <m_primary>  (20) 
energy

$$$$
20:0
     RDKit          3D

 53 55  0  0  0  0  0  0  0  0999 V2000
   62.0170   33.8500   46.4180 C   0  0  0  0  0  0  0  0  0  0  0  0
   63.5430   33.7840   46.5260 C   0  0  0  0  0  0  0  0  0  0  0  0
   64.0010   32.6710   47.3780 N   0  0  0  0  0  0  0  0  0  0  0  0
   62.9920   32.2840   48.3780 C   0  0  0  0  0  0  0  0  0  0  0  0
   62.1990   31.0380   47.9430 C   0  0  0  0  0  0  0  0  0  0  0  0
   61.5110   30.3080   49.1130 C   0  0  0  0  0  0  0  0  0  0  0  0
   60.0550   30.2580   48.9500 N   0  0  0  0  0  0  0  0  0  0  0  0
   59.4350   30.0440   47.6670 C   0  0  0  0  0  0  0  0  0  0  0  0
   59.2170   28.7410   47.1880 C   0  0  0  0  0  0  0  0  0  0  0  0
   59.7340   27.6190   47.8720 C   0  0  0  0  0  0  0  0  0  0  0  0
   59.4470   26.3270   47.4410 C   0  0  0  0  0  0  0  0  0  0  0  0
   58.6450   26.1290   46.3250 C   0  0  0  0  0  0  0  0  0  0  0  0
   58.1640   27.2200   45.6030 C   0  0  0  0  0  0  0  0  0  0  0  0
   58.4840   28.5500   45.9840 C   0  0  0  0  0  0  0  0  0  0  0  0
   58.0970   29.6390   45.2250 N   0  0  0  0  0  0  0  0  0  0  0  0
   57.5850   29.4370   43.8500 C   0  0  0  0  0  0  0  0  0  0  0  0
   58.2370   30.9200   45.7280 C   0  0  0  0  0  0  0  0  0  0  0  0
   57.6420   32.0400   45.0950 C   0  0  0  0  0  0  0  0  0  0  0  0
   57.8450   33.3470   45.5660 C   0  0  0  0  0  0  0  0  0  0  0  0
   57.1950   34.5010   44.8460 C   0  0  0  0  0  0  0  0  0  0  0  0
   58.6800   33.5600   46.6800 C   0  0  0  0  0  0  0  0  0  0  0  0
   58.9480   34.9470   47.2070 C   0  0  0  0  0  0  0  0  0  0  0  0
   59.2200   32.4580   47.3510 C   0  0  0  0  0  0  0  0  0  0  0  0
   58.9730   31.1410   46.9190 C   0  0  0  0  0  0  0  0  0  0  0  0
   61.5785   33.8690   47.4266 H   0  0  0  0  0  0  0  0  0  0  0  0
   61.7269   34.7615   45.8749 H   0  0  0  0  0  0  0  0  0  0  0  0
   61.6493   32.9669   45.8749 H   0  0  0  0  0  0  0  0  0  0  0  0
   63.9627   33.6523   45.5178 H   0  0  0  0  0  0  0  0  0  0  0  0
   63.8863   34.7216   46.9876 H   0  0  0  0  0  0  0  0  0  0  0  0
   64.8670   32.9880   47.8710 H   0  0  0  0  0  0  0  0  0  0  0  0
   64.2380   31.8460   46.7790 H   0  0  0  0  0  0  0  0  0  0  0  0
   63.4995   32.0679   49.3297 H   0  0  0  0  0  0  0  0  0  0  0  0
   62.2829   33.1180   48.4864 H   0  0  0  0  0  0  0  0  0  0  0  0
   61.4265   31.3501   47.2248 H   0  0  0  0  0  0  0  0  0  0  0  0
   62.9194   30.3339   47.5010 H   0  0  0  0  0  0  0  0  0  0  0  0
   61.8978   29.2796   49.1664 H   0  0  0  0  0  0  0  0  0  0  0  0
   61.7303   30.8644   50.0362 H   0  0  0  0  0  0  0  0  0  0  0  0
   59.4430   30.3940   49.7860 H   0  0  0  0  0  0  0  0  0  0  0  0
   60.3713   27.7678   48.7562 H   0  0  0  0  0  0  0  0  0  0  0  0
   59.8557   25.4625   47.9847 H   0  0  0  0  0  0  0  0  0  0  0  0
   58.3882   25.1070   46.0094 H   0  0  0  0  0  0  0  0  0  0  0  0
   57.5260   27.0479   44.7236 H   0  0  0  0  0  0  0  0  0  0  0  0
   56.5626   29.0336   43.8950 H   0  0  0  0  0  0  0  0  0  0  0  0
   57.5764   30.3991   43.3169 H   0  0  0  0  0  0  0  0  0  0  0  0
   58.2357   28.7282   43.3169 H   0  0  0  0  0  0  0  0  0  0  0  0
   57.0050   31.8812   44.2124 H   0  0  0  0  0  0  0  0  0  0  0  0
   56.7938   35.2132   45.5820 H   0  0  0  0  0  0  0  0  0  0  0  0
   57.9410   35.0067   44.2153 H   0  0  0  0  0  0  0  0  0  0  0  0
   56.3759   34.1251   44.2153 H   0  0  0  0  0  0  0  0  0  0  0  0
   58.9444   34.9284   48.3068 H   0  0  0  0  0  0  0  0  0  0  0  0
   59.9294   35.2919   46.8493 H   0  0  0  0  0  0  0  0  0  0  0  0
   58.1657   35.6326   46.8493 H   0  0  0  0  0  0  0  0  0  0  0  0
   59.8518   32.6240   48.2360 H   0  0  0  0  0  0  0  0  0  0  0  0
  1  2  1  0
  2  3  1  0
  3  4  1  0
  4  5  1  0
  5  6  1  0
  6  7  1  0
  7  8  1  0
  8  9  2  0
  9 10  1  0
 10 11  2  0
 11 12  1  0
 12 13  2  0
 13 14  1  0
 14 15  2  0
 15 16  1  0
 15 17  1  0
 17 18  2  0
 18 19  1  0
 19 20  1  0
 19 21  2  0
 21 22  1  0
 21 23  1  0
 23 24  2  0
 24  8  1  0
 14  9  1  0
 24 17  1  0
  1 25  1  0
  1 26  1  0
  1 27  1  0
  2 28  1  0
  2 29  1  0
  3 30  1  0
  3 31  1  0
  4 32  1  0
  4 33  1  0
  5 34  1  0
  5 35  1  0
  6 36  1  0
  6 37  1  0
  7 38  1  0
 10 39  1  0
 11 40  1  0
 12 41  1  0
 13 42  1  0
 16 43  1  0
 16 44  1  0
 16 45  1  0
 18 46  1  0
 20 47  1  0
 20 48  1  0
 20 49  1  0
 22 50  1  0
 22 51  1  0
 22 52  1  0
 23 53  1  0
M  CHG  2   3   1  15   1
M  END
>  <UniqueID>  (21) 
21

>  <SMILES>  (21) 
CC[NH2+]CCCNc1c2ccccc2[n+](C)c2cc(C)c(C)cc12

>  <Energy>  (21) 
78.13920683936173

>  <Genealogy>  (21) 
CC[NH2+]CCCNc1c2ccccc2[n+](C)c2cc(C)c(C)cc12 (protonated)
CC[NH2+]CCCNc1c2ccccc2[n+](C)c2cc(C)c(C)cc12 (3D coordinates assigned)
CC[NH2+]CCCNc1c2ccccc2[n+](C)c2cc(C)c(C)cc12 (optimized conformer: 78.13920683936173 kcal/mol)

>  <smiles>  (21) 
CCNCCCNc1c2ccccc2[n+](C)c2cc(C)c(C)cc12

>  <score_type>  (21) 
oracle

>  <origin>  (21) 
adg

>  <m_score__min__energy>  (21) 
-5.0300000000000002

>  <m_primary>  (21) 
energy

$$$$
21:0
     RDKit          3D

 61 64  0  0  0  0  0  0  0  0999 V2000
   58.7640   30.0600   49.8550 C   0  0  0  0  0  0  0  0  0  0  0  0
   59.9110   29.2420   50.4420 C   0  0  0  0  0  0  0  0  0  0  0  0
   60.6240   28.4980   49.3880 N   0  0  0  0  0  0  0  0  0  0  0  0
   59.7150   28.0670   48.3090 C   0  0  0  0  0  0  0  0  0  0  0  0
   60.4850   27.6410   47.0410 C   0  0  0  0  0  0  0  0  0  0  0  0
   60.0230   28.4030   45.7880 C   0  0  0  0  0  0  0  0  0  0  0  0
   60.6690   29.7160   45.6680 N   0  0  0  0  0  0  0  0  0  0  0  0
   60.2830   30.8740   46.4460 C   0  0  0  0  0  0  0  0  0  0  0  0
   59.2080   31.7090   46.0480 C   0  0  0  0  0  0  0  0  0  0  0  0
   59.0940   33.0310   46.6130 C   0  0  0  0  0  0  0  0  0  0  0  0
   59.8270   33.3400   47.7630 N   0  0  0  0  0  0  0  0  0  0  0  0
   59.6160   34.5850   48.5300 C   0  0  0  0  0  0  0  0  0  0  0  0
   60.7440   32.4280   48.2250 C   0  0  0  0  0  0  0  0  0  0  0  0
   61.6270   32.4560   49.3120 C   0  0  0  0  0  0  0  0  0  0  0  0
   61.8710   33.5030   50.3530 C   0  0  0  0  0  0  0  0  0  0  0  0
   62.3480   31.2740   49.2170 C   0  0  0  0  0  0  0  0  0  0  0  0
   61.9460   30.5760   48.1770 O   0  0  0  0  0  0  0  0  0  0  0  0
   60.9960   31.2510   47.5760 C   0  0  0  0  0  0  0  0  0  0  0  0
   58.2400   34.1390   45.9750 C   0  0  0  0  0  0  0  0  0  0  0  0
   57.6850   34.0200   44.5350 C   0  0  0  0  0  0  0  0  0  0  0  0
   58.4610   33.0700   43.6260 C   0  0  0  0  0  0  0  0  0  0  0  0
   57.9520   31.6880   43.9080 C   0  0  0  0  0  0  0  0  0  0  0  0
   58.1970   31.1390   45.1140 C   0  0  0  0  0  0  0  0  0  0  0  0
   57.3870   29.9470   45.5900 C   0  0  0  0  0  0  0  0  0  0  0  0
   57.0190   29.0180   44.4290 C   0  0  0  0  0  0  0  0  0  0  0  0
   56.2580   29.7950   43.3540 C   0  0  0  0  0  0  0  0  0  0  0  0
   57.0030   31.0380   42.9640 C   0  0  0  0  0  0  0  0  0  0  0  0
   56.7680   31.5570   41.8400 O   0  0  0  0  0  0  0  0  0  0  0  0
   58.1637   30.4881   50.6713 H   0  0  0  0  0  0  0  0  0  0  0  0
   59.1723   30.8720   49.2353 H   0  0  0  0  0  0  0  0  0  0  0  0
   58.1293   29.4095   49.2353 H   0  0  0  0  0  0  0  0  0  0  0  0
   60.6168   29.9206   50.9433 H   0  0  0  0  0  0  0  0  0  0  0  0
   59.4944   28.5198   51.1595 H   0  0  0  0  0  0  0  0  0  0  0  0
   61.1160   27.6700   49.7980 H   0  0  0  0  0  0  0  0  0  0  0  0
   61.3410   29.1340   48.9730 H   0  0  0  0  0  0  0  0  0  0  0  0
   59.1190   27.2142   48.6660 H   0  0  0  0  0  0  0  0  0  0  0  0
   59.0714   28.9193   48.0458 H   0  0  0  0  0  0  0  0  0  0  0  0
   61.5564   27.8352   47.1970 H   0  0  0  0  0  0  0  0  0  0  0  0
   60.2880   26.5718   46.8737 H   0  0  0  0  0  0  0  0  0  0  0  0
   60.2691   27.8045   44.8985 H   0  0  0  0  0  0  0  0  0  0  0  0
   58.9385   28.5666   45.8728 H   0  0  0  0  0  0  0  0  0  0  0  0
   61.5970   29.7080   45.1960 H   0  0  0  0  0  0  0  0  0  0  0  0
   59.6536   34.3631   49.6067 H   0  0  0  0  0  0  0  0  0  0  0  0
   60.4042   35.3095   48.2772 H   0  0  0  0  0  0  0  0  0  0  0  0
   58.6331   35.0093   48.2772 H   0  0  0  0  0  0  0  0  0  0  0  0
   61.7670   33.0569   51.3531 H   0  0  0  0  0  0  0  0  0  0  0  0
   62.8874   33.9070   50.2355 H   0  0  0  0  0  0  0  0  0  0  0  0
   61.1379   34.3147   50.2355 H   0  0  0  0  0  0  0  0  0  0  0  0
   63.1424   30.9649   49.9123 H   0  0  0  0  0  0  0  0  0  0  0  0
   57.3673   34.2716   46.6314 H   0  0  0  0  0  0  0  0  0  0  0  0
   58.9643   34.9610   45.8762 H   0  0  0  0  0  0  0  0  0  0  0  0
   56.6466   33.6624   44.5970 H   0  0  0  0  0  0  0  0  0  0  0  0
   57.7736   35.0200   44.0855 H   0  0  0  0  0  0  0  0  0  0  0  0
   58.2879   33.3294   42.5711 H   0  0  0  0  0  0  0  0  0  0  0  0
   59.5425   33.1384   43.8149 H   0  0  0  0  0  0  0  0  0  0  0  0
   57.9797   29.3828   46.3251 H   0  0  0  0  0  0  0  0  0  0  0  0
   56.4560   30.3207   46.0412 H   0  0  0  0  0  0  0  0  0  0  0  0
   57.9380   28.5992   43.9930 H   0  0  0  0  0  0  0  0  0  0  0  0
   56.3797   28.2064   44.8066 H   0  0  0  0  0  0  0  0  0  0  0  0
   56.1343   29.1560   42.4672 H   0  0  0  0  0  0  0  0  0  0  0  0
   55.2769   30.0852   43.7580 H   0  0  0  0  0  0  0  0  0  0  0  0
  1  2  1  0
  2  3  1  0
  3  4  1  0
  4  5  1  0
  5  6  1  0
  6  7  1  0
  7  8  1  0
  8  9  2  0
  9 10  1  0
 10 11  2  0
 11 12  1  0
 11 13  1  0
 13 14  1  0
 14 15  1  0
 14 16  2  0
 16 17  1  0
 17 18  1  0
 10 19  1  0
 19 20  1  0
 20 21  1  0
 21 22  1  0
 22 23  2  0
 23 24  1  0
 24 25  1  0
 25 26  1  0
 26 27  1  0
 27 28  2  0
 18  8  1  0
 27 22  1  0
 23  9  1  0
 18 13  2  0
  1 29  1  0
  1 30  1  0
  1 31  1  0
  2 32  1  0
  2 33  1  0
  3 34  1  0
  3 35  1  0
  4 36  1  0
  4 37  1  0
  5 38  1  0
  5 39  1  0
  6 40  1  0
  6 41  1  0
  7 42  1  0
 12 43  1  0
 12 44  1  0
 12 45  1  0
 15 46  1  0
 15 47  1  0
 15 48  1  0
 16 49  1  0
 19 50  1  0
 19 51  1  0
 20 52  1  0
 20 53  1  0
 21 54  1  0
 21 55  1  0
 24 56  1  0
 24 57  1  0
 25 58  1  0
 25 59  1  0
 26 60  1  0
 26 61  1  0
M  CHG  2   3   1  11   1
M  END
>  <UniqueID>  (22) 
22

>  <SMILES>  (22) 
CC[NH2+]CCCNc1c2c([n+](C)c3c(C)coc13)CCCC1=C2CCCC1=O

>  <Energy>  (22) 
127.23409904060574

>  <Genealogy>  (22) 
CC[NH2+]CCCNc1c2c([n+](C)c3c(C)coc13)CCCC1=C2CCCC1=O (protonated)
CC[NH2+]CCCNc1c2c([n+](C)c3c(C)coc13)CCCC1=C2CCCC1=O (3D coordinates assigned)
CC[NH2+]CCCNc1c2c([n+](C)c3c(C)coc13)CCCC1=C2CCCC1=O (nonaromatic ring conformer: 127.23409904060574 kcal/mol)

>  <smiles>  (22) 
CCNCCCNc1c2c([n+](C)c3c(C)coc13)CCCC1=C2CCCC1=O

>  <score_type>  (22) 
oracle

>  <origin>  (22) 
adg

>  <m_score__min__energy>  (22) 
-4.0199999999999996

>  <m_primary>  (22) 
energy

$$$$
22:0
     RDKit          3D

 47 48  0  0  0  0  0  0  0  0999 V2000
   57.4355   31.8567   43.3956 H   0  0  0  0  0  0  0  0  0  0  0  0
   57.1600   31.6940   44.4480 C   0  0  0  0  0  0  0  0  0  0  0  0
   56.9730   30.4900   44.8830 N   0  0  0  0  0  0  0  0  0  0  0  0
   58.0420   29.6540   45.1100 O   0  0  0  0  0  0  0  0  0  0  0  0
   58.0000   28.7090   46.1670 C   0  0  0  0  0  0  0  0  0  0  0  0
   58.5755   27.8158   45.8825 H   0  0  0  0  0  0  0  0  0  0  0  0
   56.9551   28.4269   46.3633 H   0  0  0  0  0  0  0  0  0  0  0  0
   58.6040   29.3220   47.4260 C   0  0  0  0  0  0  0  0  0  0  0  0
   59.4655   28.7187   47.7481 H   0  0  0  0  0  0  0  0  0  0  0  0
   57.8437   29.3391   48.2208 H   0  0  0  0  0  0  0  0  0  0  0  0
   59.0470   30.6960   47.1510 N   0  0  0  0  0  0  0  0  0  0  0  0
   58.4710   31.0590   46.3560 H   0  0  0  0  0  0  0  0  0  0  0  0
   60.4550   30.7310   46.7310 C   0  0  0  0  0  0  0  0  0  0  0  0
   60.6817   31.7212   46.3090 H   0  0  0  0  0  0  0  0  0  0  0  0
   60.6189   29.9484   45.9756 H   0  0  0  0  0  0  0  0  0  0  0  0
   61.3770   30.4690   47.9180 C   0  0  0  0  0  0  0  0  0  0  0  0
   60.8224   30.6266   48.8548 H   0  0  0  0  0  0  0  0  0  0  0  0
   61.7412   29.4318   47.8775 H   0  0  0  0  0  0  0  0  0  0  0  0
   62.2322   31.1597   47.8775 H   0  0  0  0  0  0  0  0  0  0  0  0
   57.0040   32.8740   45.3690 C   0  0  0  0  0  0  0  0  0  0  0  0
   56.6393   33.7290   44.7809 H   0  0  0  0  0  0  0  0  0  0  0  0
   56.2963   32.5781   46.1574 H   0  0  0  0  0  0  0  0  0  0  0  0
   58.2620   33.2690   46.0390 N   0  0  0  0  0  0  0  0  0  0  0  0
   58.9280   34.4210   45.4060 C   0  0  0  0  0  0  0  0  0  0  0  0
   58.9025   34.3075   44.3122 H   0  0  0  0  0  0  0  0  0  0  0  0
   58.4091   35.3507   45.6825 H   0  0  0  0  0  0  0  0  0  0  0  0
   60.3820   34.4750   45.8840 C   0  0  0  0  0  0  0  0  0  0  0  0
   60.9796   33.7562   45.3041 H   0  0  0  0  0  0  0  0  0  0  0  0
   60.7646   35.4958   45.7373 H   0  0  0  0  0  0  0  0  0  0  0  0
   60.4730   34.1370   47.3120 N   0  0  0  0  0  0  0  0  0  0  0  0
   61.7450   33.7770   47.8880 C   0  0  0  0  0  0  0  0  0  0  0  0
   61.9310   33.8070   49.2820 C   0  0  0  0  0  0  0  0  0  0  0  0
   61.0986   34.0991   49.9391 H   0  0  0  0  0  0  0  0  0  0  0  0
   63.1700   33.4670   49.8370 C   0  0  0  0  0  0  0  0  0  0  0  0
   63.3071   33.4874   50.9282 H   0  0  0  0  0  0  0  0  0  0  0  0
   64.2320   33.1020   49.0080 C   0  0  0  0  0  0  0  0  0  0  0  0
   65.2047   32.8340   49.4463 H   0  0  0  0  0  0  0  0  0  0  0  0
   64.0600   33.0770   47.6220 C   0  0  0  0  0  0  0  0  0  0  0  0
   64.8979   32.7903   46.9695 H   0  0  0  0  0  0  0  0  0  0  0  0
   62.8240   33.4160   47.0630 C   0  0  0  0  0  0  0  0  0  0  0  0
   62.6954   33.4000   45.9707 H   0  0  0  0  0  0  0  0  0  0  0  0
   59.2650   34.2210   48.1430 C   0  0  0  0  0  0  0  0  0  0  0  0
   59.4818   33.8053   49.1381 H   0  0  0  0  0  0  0  0  0  0  0  0
   58.9664   35.2764   48.2266 H   0  0  0  0  0  0  0  0  0  0  0  0
   58.1060   33.4270   47.5040 C   0  0  0  0  0  0  0  0  0  0  0  0
   58.0677   32.4284   47.9638 H   0  0  0  0  0  0  0  0  0  0  0  0
   57.1786   33.9915   47.6809 H   0  0  0  0  0  0  0  0  0  0  0  0
  1  2  1  0
  2  3  2  0
  3  4  1  0
  4  5  1  0
  5  6  1  0
  5  7  1  0
  5  8  1  0
  8  9  1  0
  8 10  1  0
  8 11  1  0
 11 12  1  0
 11 13  1  0
 13 14  1  0
 13 15  1  0
 13 16  1  0
 16 17  1  0
 16 18  1  0
 16 19  1  0
  2 20  1  0
 20 21  1  0
 20 22  1  0
 20 23  1  0
 23 24  1  0
 24 25  1  0
 24 26  1  0
 24 27  1  0
 27 28  1  0
 27 29  1  0
 27 30  1  0
 30 31  1  0
 31 32  2  0
 32 33  1  0
 32 34  1  0
 34 35  1  0
 34 36  2  0
 36 37  1  0
 36 38  1  0
 38 39  1  0
 38 40  2  0
 40 41  1  0
 30 42  1  0
 42 43  1  0
 42 44  1  0
 42 45  1  0
 45 46  1  0
 45 47  1  0
 45 23  1  0
 40 31  1  0
M  END
>  <UniqueID>  (23) 
23

>  <SMILES>  (23) 
CCNCCO/N=C/CN1CCN(c2ccccc2)CC1

>  <Energy>  (23) 
46.79775843132815

>  <Genealogy>  (23) 
CCNCCO/N=C/CN1CCN(c2ccccc2)CC1 (cis-trans isomerization)
CCNCCO/N=C/CN1CCN(c2ccccc2)CC1 (3D coordinates assigned)
CCNCCO/N=C/CN1CCN(c2ccccc2)CC1 (nonaromatic ring conformer: 46.79775843132815 kcal/mol)

>  <smiles>  (23) 
CCNCCON=CCN1CCN(c2ccccc2)CC1

>  <score_type>  (23) 
oracle

>  <origin>  (23) 
adg

>  <m_score__min__energy>  (23) 
-6.5999999999999996

>  <m_primary>  (23) 
energy

$$$$
23:0
     RDKit          3D

 47 50  0  0  0  0  0  0  0  0999 V2000
   60.4930   29.6360   46.5880 C   0  0  0  0  0  0  0  0  0  0  0  0
   59.3630   29.2270   45.7530 N   0  0  0  0  0  0  0  0  0  0  0  0
   59.0410   27.9690   45.3670 C   0  0  0  0  0  0  0  0  0  0  0  0
   59.8480   26.7430   45.6910 C   0  0  0  0  0  0  0  0  0  0  0  0
   59.0500   25.7860   46.3860 O   0  0  0  0  0  0  0  0  0  0  0  0
   58.5910   24.5640   45.8620 C   0  0  0  0  0  0  0  0  0  0  0  0
   59.4680   23.4980   45.5830 C   0  0  0  0  0  0  0  0  0  0  0  0
   58.9840   22.2950   45.0680 C   0  0  0  0  0  0  0  0  0  0  0  0
   57.6230   22.1300   44.8190 C   0  0  0  0  0  0  0  0  0  0  0  0
   56.7280   23.1770   45.0820 C   0  0  0  0  0  0  0  0  0  0  0  0
   55.3570   23.0160   44.8320 C   0  0  0  0  0  0  0  0  0  0  0  0
   54.4670   24.0590   45.0980 C   0  0  0  0  0  0  0  0  0  0  0  0
   54.9350   25.2670   45.6150 C   0  0  0  0  0  0  0  0  0  0  0  0
   56.2990   25.4440   45.8690 C   0  0  0  0  0  0  0  0  0  0  0  0
   57.2120   24.4050   45.6060 C   0  0  0  0  0  0  0  0  0  0  0  0
   57.8930   27.9320   44.6620 N   0  0  0  0  0  0  0  0  0  0  0  0
   57.4670   29.2080   44.5960 C   0  0  0  0  0  0  0  0  0  0  0  0
   56.1610   29.6220   43.9920 C   0  0  0  0  0  0  0  0  0  0  0  0
   55.1270   29.3750   44.9030 O   0  0  0  0  0  0  0  0  0  0  0  0
   58.3650   30.0110   45.2820 C   0  0  0  0  0  0  0  0  0  0  0  0
   58.2300   31.4610   45.5310 C   0  0  0  0  0  0  0  0  0  0  0  0
   58.2610   31.9580   46.8440 C   0  0  0  0  0  0  0  0  0  0  0  0
   58.1270   33.3290   47.0800 C   0  0  0  0  0  0  0  0  0  0  0  0
   57.9640   34.2120   46.0080 C   0  0  0  0  0  0  0  0  0  0  0  0
   57.9340   33.7240   44.6990 C   0  0  0  0  0  0  0  0  0  0  0  0
   58.0670   32.3520   44.4590 C   0  0  0  0  0  0  0  0  0  0  0  0
   60.2197   29.5371   47.6489 H   0  0  0  0  0  0  0  0  0  0  0  0
   61.3600   28.9947   46.3714 H   0  0  0  0  0  0  0  0  0  0  0  0
   60.7487   30.6837   46.3714 H   0  0  0  0  0  0  0  0  0  0  0  0
   60.2169   26.2956   44.7563 H   0  0  0  0  0  0  0  0  0  0  0  0
   60.6926   27.0337   46.3329 H   0  0  0  0  0  0  0  0  0  0  0  0
   60.5451   23.6150   45.7730 H   0  0  0  0  0  0  0  0  0  0  0  0
   59.6817   21.4711   44.8571 H   0  0  0  0  0  0  0  0  0  0  0  0
   57.2501   21.1770   44.4155 H   0  0  0  0  0  0  0  0  0  0  0  0
   54.9818   22.0654   44.4252 H   0  0  0  0  0  0  0  0  0  0  0  0
   53.3932   23.9273   44.8991 H   0  0  0  0  0  0  0  0  0  0  0  0
   54.2285   26.0838   45.8238 H   0  0  0  0  0  0  0  0  0  0  0  0
   56.6602   26.3998   46.2763 H   0  0  0  0  0  0  0  0  0  0  0  0
   57.4150   27.0880   44.2750 H   0  0  0  0  0  0  0  0  0  0  0  0
   56.1911   30.6954   43.7535 H   0  0  0  0  0  0  0  0  0  0  0  0
   55.9839   29.0469   43.0712 H   0  0  0  0  0  0  0  0  0  0  0  0
   55.1760   30.1010   45.5780 H   0  0  0  0  0  0  0  0  0  0  0  0
   58.3911   31.2662   47.6893 H   0  0  0  0  0  0  0  0  0  0  0  0
   58.1498   33.7139   48.1102 H   0  0  0  0  0  0  0  0  0  0  0  0
   57.8594   35.2909   46.1952 H   0  0  0  0  0  0  0  0  0  0  0  0
   57.8057   34.4192   43.8563 H   0  0  0  0  0  0  0  0  0  0  0  0
   58.0437   31.9707   43.4274 H   0  0  0  0  0  0  0  0  0  0  0  0
  1  2  1  0
  2  3  1  0
  3  4  1  0
  4  5  1  0
  5  6  1  0
  6  7  2  0
  7  8  1  0
  8  9  2  0
  9 10  1  0
 10 11  2  0
 11 12  1  0
 12 13  2  0
 13 14  1  0
 14 15  2  0
  3 16  2  0
 16 17  1  0
 17 18  1  0
 18 19  1  0
 17 20  2  0
 20 21  1  0
 21 22  2  0
 22 23  1  0
 23 24  2  0
 24 25  1  0
 25 26  2  0
 20  2  1  0
 26 21  1  0
 15  6  1  0
 15 10  1  0
  1 27  1  0
  1 28  1  0
  1 29  1  0
  4 30  1  0
  4 31  1  0
  7 32  1  0
  8 33  1  0
  9 34  1  0
 11 35  1  0
 12 36  1  0
 13 37  1  0
 14 38  1  0
 16 39  1  0
 18 40  1  0
 18 41  1  0
 19 42  1  0
 22 43  1  0
 23 44  1  0
 24 45  1  0
 25 46  1  0
 26 47  1  0
M  CHG  1  16   1
M  END
>  <UniqueID>  (24) 
24

>  <SMILES>  (24) 
Cn1c(COc2cccc3ccccc23)[nH+]c(CO)c1-c1ccccc1

>  <Energy>  (24) 
89.21311925387482

>  <Genealogy>  (24) 
Cn1c(COc2cccc3ccccc23)[nH+]c(CO)c1-c1ccccc1 (protonated)
Cn1c(COc2cccc3ccccc23)[nH+]c(CO)c1-c1ccccc1 (3D coordinates assigned)
Cn1c(COc2cccc3ccccc23)[nH+]c(CO)c1-c1ccccc1 (optimized conformer: 89.21311925387482 kcal/mol)

>  <smiles>  (24) 
Cn1c(COc2cccc3ccccc23)nc(CO)c1-c1ccccc1

>  <score_type>  (24) 
oracle

>  <origin>  (24) 
adg

>  <m_score__min__energy>  (24) 
-7.04

>  <m_primary>  (24) 
energy

$$$$
24:0
     RDKit          3D

 77 81  0  0  0  0  0  0  0  0999 V2000
   60.1500   28.4290   46.1420 C   0  0  0  0  0  0  0  0  0  0  0  0
   59.8550   29.6590   46.9090 N   0  0  0  0  0  0  0  0  0  0  0  0
   60.3340   29.7530   48.2010 C   0  0  0  0  0  0  0  0  0  0  0  0
   60.6330   28.5970   48.9640 C   0  0  0  0  0  0  0  0  0  0  0  0
   61.1730   28.7010   50.2450 C   0  0  0  0  0  0  0  0  0  0  0  0
   61.4360   29.9480   50.8070 C   0  0  0  0  0  0  0  0  0  0  0  0
   62.0070   29.9920   52.0880 O   0  0  0  0  0  0  0  0  0  0  0  0
   63.3890   30.2160   52.3690 C   0  0  0  0  0  0  0  0  0  0  0  0
   64.1390   30.5700   51.0620 C   0  0  0  0  0  0  0  0  0  0  0  0
   64.5650   32.0060   50.9330 N   0  0  0  0  0  0  0  0  0  0  0  0
   65.7650   32.2690   51.7760 C   0  0  0  0  0  0  0  0  0  0  0  0
   63.4430   32.8660   51.4370 C   0  0  0  0  0  0  0  0  0  0  0  0
   63.4290   34.2530   50.7590 C   0  0  0  0  0  0  0  0  0  0  0  0
   63.2520   34.2010   49.3500 O   0  0  0  0  0  0  0  0  0  0  0  0
   63.6710   32.9710   48.7740 C   0  0  0  0  0  0  0  0  0  0  0  0
   64.8760   32.3400   49.5020 C   0  0  0  0  0  0  0  0  0  0  0  0
   61.1620   31.1050   50.0610 C   0  0  0  0  0  0  0  0  0  0  0  0
   60.5750   31.0240   48.7780 C   0  0  0  0  0  0  0  0  0  0  0  0
   60.3030   32.1830   48.0270 C   0  0  0  0  0  0  0  0  0  0  0  0
   60.6040   33.4870   48.5580 N   0  0  0  0  0  0  0  0  0  0  0  0
   59.6690   34.2280   49.4080 C   0  0  0  0  0  0  0  0  0  0  0  0
   59.1880   33.3650   50.5820 C   0  0  0  0  0  0  0  0  0  0  0  0
   60.0850   33.5350   51.8260 C   0  0  0  0  0  0  0  0  0  0  0  0
   59.9880   32.3810   52.7500 N   0  0  0  0  0  0  0  0  0  0  0  0
   60.1890   32.7920   54.1570 C   0  0  0  0  0  0  0  0  0  0  0  0
   58.6700   31.7330   52.6140 C   0  0  0  0  0  0  0  0  0  0  0  0
   59.7070   32.0610   46.7550 C   0  0  0  0  0  0  0  0  0  0  0  0
   59.4530   33.2000   45.9650 C   0  0  0  0  0  0  0  0  0  0  0  0
   58.7660   33.0960   44.7640 C   0  0  0  0  0  0  0  0  0  0  0  0
   58.2230   31.8720   44.3700 C   0  0  0  0  0  0  0  0  0  0  0  0
   57.3940   31.8170   43.2370 C   0  0  0  0  0  0  0  0  0  0  0  0
   56.7330   30.6360   42.9070 C   0  0  0  0  0  0  0  0  0  0  0  0
   56.8710   29.5120   43.7160 C   0  0  0  0  0  0  0  0  0  0  0  0
   57.7030   29.5500   44.8370 C   0  0  0  0  0  0  0  0  0  0  0  0
   58.4580   30.7060   45.1470 C   0  0  0  0  0  0  0  0  0  0  0  0
   59.3400   30.7770   46.2750 C   0  0  0  0  0  0  0  0  0  0  0  0
   60.3485   27.6012   46.8387 H   0  0  0  0  0  0  0  0  0  0  0  0
   59.2870   28.1761   45.5085 H   0  0  0  0  0  0  0  0  0  0  0  0
   61.0338   28.5950   45.5085 H   0  0  0  0  0  0  0  0  0  0  0  0
   60.4359   27.6018   48.5388 H   0  0  0  0  0  0  0  0  0  0  0  0
   61.3938   27.7884   50.8181 H   0  0  0  0  0  0  0  0  0  0  0  0
   63.4865   31.0474   53.0826 H   0  0  0  0  0  0  0  0  0  0  0  0
   63.8243   29.3032   52.8018 H   0  0  0  0  0  0  0  0  0  0  0  0
   65.0405   29.9421   51.0071 H   0  0  0  0  0  0  0  0  0  0  0  0
   63.4254   30.3904   50.2443 H   0  0  0  0  0  0  0  0  0  0  0  0
   65.4871   32.2081   52.8386 H   0  0  0  0  0  0  0  0  0  0  0  0
   66.5392   31.5192   51.5559 H   0  0  0  0  0  0  0  0  0  0  0  0
   66.1546   33.2739   51.5559 H   0  0  0  0  0  0  0  0  0  0  0  0
   62.4879   32.3604   51.2315 H   0  0  0  0  0  0  0  0  0  0  0  0
   63.5887   33.0167   52.5168 H   0  0  0  0  0  0  0  0  0  0  0  0
   62.6059   34.8416   51.1904 H   0  0  0  0  0  0  0  0  0  0  0  0
   64.4134   34.7087   50.9416 H   0  0  0  0  0  0  0  0  0  0  0  0
   62.8300   32.2629   48.8108 H   0  0  0  0  0  0  0  0  0  0  0  0
   63.9864   33.1833   47.7418 H   0  0  0  0  0  0  0  0  0  0  0  0
   65.1627   31.4167   48.9773 H   0  0  0  0  0  0  0  0  0  0  0  0
   65.6947   33.0746   49.4977 H   0  0  0  0  0  0  0  0  0  0  0  0
   61.4082   32.0910   50.4820 H   0  0  0  0  0  0  0  0  0  0  0  0
   61.4590   33.9850   48.2090 H   0  0  0  0  0  0  0  0  0  0  0  0
   60.1734   35.1224   49.8024 H   0  0  0  0  0  0  0  0  0  0  0  0
   58.7959   34.5124   48.8023 H   0  0  0  0  0  0  0  0  0  0  0  0
   58.1603   33.6587   50.8417 H   0  0  0  0  0  0  0  0  0  0  0  0
   59.2324   32.3108   50.2710 H   0  0  0  0  0  0  0  0  0  0  0  0
   61.1297   33.6385   51.4975 H   0  0  0  0  0  0  0  0  0  0  0  0
   59.7440   34.4297   52.3675 H   0  0  0  0  0  0  0  0  0  0  0  0
   60.7150   31.6670   52.4990 H   0  0  0  0  0  0  0  0  0  0  0  0
   59.8055   32.0079   54.8264 H   0  0  0  0  0  0  0  0  0  0  0  0
   61.2623   32.9423   54.3453 H   0  0  0  0  0  0  0  0  0  0  0  0
   59.6486   33.7314   54.3453 H   0  0  0  0  0  0  0  0  0  0  0  0
   58.2565   31.5297   53.6129 H   0  0  0  0  0  0  0  0  0  0  0  0
   57.9890   32.3990   52.0639 H   0  0  0  0  0  0  0  0  0  0  0  0
   58.7815   30.7870   52.0639 H   0  0  0  0  0  0  0  0  0  0  0  0
   59.8043   34.1853   46.3053 H   0  0  0  0  0  0  0  0  0  0  0  0
   58.6490   33.9805   44.1206 H   0  0  0  0  0  0  0  0  0  0  0  0
   57.2664   32.7103   42.6079 H   0  0  0  0  0  0  0  0  0  0  0  0
   56.1020   30.5918   42.0071 H   0  0  0  0  0  0  0  0  0  0  0  0
   56.3227   28.5903   43.4715 H   0  0  0  0  0  0  0  0  0  0  0  0
   57.7726   28.6671   45.4895 H   0  0  0  0  0  0  0  0  0  0  0  0
  1  2  1  0
  2  3  2  0
  3  4  1  0
  4  5  2  0
  5  6  1  0
  6  7  1  0
  7  8  1  0
  8  9  1  0
  9 10  1  0
 10 11  1  0
 10 12  1  0
 12 13  1  0
 13 14  1  0
 14 15  1  0
 15 16  1  0
  6 17  2  0
 17 18  1  0
 18 19  2  0
 19 20  1  0
 20 21  1  0
 21 22  1  0
 22 23  1  0
 23 24  1  0
 24 25  1  0
 24 26  1  0
 19 27  1  0
 27 28  2  0
 28 29  1  0
 29 30  2  0
 30 31  1  0
 31 32  2  0
 32 33  1  0
 33 34  2  0
 34 35  1  0
 35 36  2  0
 36  2  1  0
 18  3  1  0
 36 27  1  0
 16 10  1  0
 35 30  1  0
  1 37  1  0
  1 38  1  0
  1 39  1  0
  4 40  1  0
  5 41  1  0
  8 42  1  0
  8 43  1  0
  9 44  1  0
  9 45  1  0
 11 46  1  0
 11 47  1  0
 11 48  1  0
 12 49  1  0
 12 50  1  0
 13 51  1  0
 13 52  1  0
 15 53  1  0
 15 54  1  0
 16 55  1  0
 16 56  1  0
 17 57  1  0
 20 58  1  0
 21 59  1  0
 21 60  1  0
 22 61  1  0
 22 62  1  0
 23 63  1  0
 23 64  1  0
 24 65  1  0
 25 66  1  0
 25 67  1  0
 25 68  1  0
 26 69  1  0
 26 70  1  0
 26 71  1  0
 28 72  1  0
 29 73  1  0
 31 74  1  0
 32 75  1  0
 33 76  1  0
 34 77  1  0
M  CHG  3   2   1  10   1  24   1
M  END
>  <UniqueID>  (25) 
25

>  <SMILES>  (25) 
C[n+]1c2ccc(OCC[N+]3(C)CCOCC3)cc2c(NCCC[NH+](C)C)c2ccc3ccccc3c21

>  <Energy>  (25) 
146.12239489966518

>  <Genealogy>  (25) 
C[n+]1c2ccc(OCC[N+]3(C)CCOCC3)cc2c(NCCC[NH+](C)C)c2ccc3ccccc3c21 (protonated)
C[n+]1c2ccc(OCC[N+]3(C)CCOCC3)cc2c(NCCC[NH+](C)C)c2ccc3ccccc3c21 (3D coordinates assigned)
C[n+]1c2ccc(OCC[N+]3(C)CCOCC3)cc2c(NCCC[NH+](C)C)c2ccc3ccccc3c21 (nonaromatic ring conformer: 146.12239489966518 kcal/mol)

>  <smiles>  (25) 
CN(C)CCCNc1c2cc(OCC[N+]3(C)CCOCC3)ccc2[n+](C)c2c1ccc1ccccc12

>  <score_type>  (25) 
oracle

>  <origin>  (25) 
adg

>  <m_score__min__energy>  (25) 
-4.6100000000000003

>  <m_primary>  (25) 
energy

$$$$
25:0
     RDKit          3D

 55 57  0  0  0  0  0  0  0  0999 V2000
   63.2220   33.8390   46.7480 C   0  0  0  0  0  0  0  0  0  0  0  0
   63.7390   32.4410   47.0890 C   0  0  0  0  0  0  0  0  0  0  0  0
   63.1330   31.9580   48.3400 N   0  0  0  0  0  0  0  0  0  0  0  0
   63.6610   32.6810   49.5060 C   0  0  0  0  0  0  0  0  0  0  0  0
   64.1010   31.6870   50.5810 C   0  0  0  0  0  0  0  0  0  0  0  0
   62.8960   30.9100   51.1400 C   0  0  0  0  0  0  0  0  0  0  0  0
   62.0580   30.3330   50.0760 N   0  0  0  0  0  0  0  0  0  0  0  0
   60.6250   30.3910   50.4030 C   0  0  0  0  0  0  0  0  0  0  0  0
   59.8400   31.0180   49.2440 C   0  0  0  0  0  0  0  0  0  0  0  0
   60.6870   31.2200   48.0550 N   0  0  0  0  0  0  0  0  0  0  0  0
   59.8930   31.1270   46.8390 C   0  0  0  0  0  0  0  0  0  0  0  0
   59.6550   29.8700   46.2220 C   0  0  0  0  0  0  0  0  0  0  0  0
   60.3020   28.6880   46.6610 C   0  0  0  0  0  0  0  0  0  0  0  0
   60.0890   27.4720   46.0170 C   0  0  0  0  0  0  0  0  0  0  0  0
   59.2480   27.4020   44.9180 C   0  0  0  0  0  0  0  0  0  0  0  0
   58.5940   28.5440   44.4670 C   0  0  0  0  0  0  0  0  0  0  0  0
   58.7570   29.7930   45.1210 C   0  0  0  0  0  0  0  0  0  0  0  0
   58.0820   30.9170   44.6950 N   0  0  0  0  0  0  0  0  0  0  0  0
   56.9140   30.7850   43.7930 C   0  0  0  0  0  0  0  0  0  0  0  0
   58.4860   32.1650   45.1180 C   0  0  0  0  0  0  0  0  0  0  0  0
   58.0400   33.3410   44.4650 C   0  0  0  0  0  0  0  0  0  0  0  0
   58.4220   34.6020   44.9100 C   0  0  0  0  0  0  0  0  0  0  0  0
   59.2680   34.7300   46.0000 C   0  0  0  0  0  0  0  0  0  0  0  0
   59.6440   35.9620   46.4240 F   0  0  0  0  0  0  0  0  0  0  0  0
   59.7550   33.5930   46.6410 C   0  0  0  0  0  0  0  0  0  0  0  0
   59.3840   32.2950   46.2140 C   0  0  0  0  0  0  0  0  0  0  0  0
   63.0178   34.3912   47.6772 H   0  0  0  0  0  0  0  0  0  0  0  0
   63.9805   34.3773   46.1607 H   0  0  0  0  0  0  0  0  0  0  0  0
   62.2957   33.7543   46.1607 H   0  0  0  0  0  0  0  0  0  0  0  0
   63.4817   31.7507   46.2721 H   0  0  0  0  0  0  0  0  0  0  0  0
   64.8305   32.4870   47.2172 H   0  0  0  0  0  0  0  0  0  0  0  0
   63.3960   30.9540   48.4480 H   0  0  0  0  0  0  0  0  0  0  0  0
   64.5237   33.2897   49.1974 H   0  0  0  0  0  0  0  0  0  0  0  0
   62.8737   33.3311   49.9152 H   0  0  0  0  0  0  0  0  0  0  0  0
   64.8157   30.9753   50.1420 H   0  0  0  0  0  0  0  0  0  0  0  0
   64.5701   32.2459   51.4042 H   0  0  0  0  0  0  0  0  0  0  0  0
   63.2668   30.0949   51.7788 H   0  0  0  0  0  0  0  0  0  0  0  0
   62.2753   31.6176   51.7092 H   0  0  0  0  0  0  0  0  0  0  0  0
   62.2310   30.8510   49.1830 H   0  0  0  0  0  0  0  0  0  0  0  0
   60.2525   29.3720   50.5843 H   0  0  0  0  0  0  0  0  0  0  0  0
   60.4879   31.0079   51.3034 H   0  0  0  0  0  0  0  0  0  0  0  0
   59.0057   30.3524   48.9778 H   0  0  0  0  0  0  0  0  0  0  0  0
   59.4722   32.0012   49.5727 H   0  0  0  0  0  0  0  0  0  0  0  0
   61.4680   30.5300   48.0350 H   0  0  0  0  0  0  0  0  0  0  0  0
   61.1750   32.1400   48.1060 H   0  0  0  0  0  0  0  0  0  0  0  0
   60.9829   28.7319   47.5238 H   0  0  0  0  0  0  0  0  0  0  0  0
   60.5903   26.5635   46.3821 H   0  0  0  0  0  0  0  0  0  0  0  0
   59.0973   26.4425   44.4016 H   0  0  0  0  0  0  0  0  0  0  0  0
   57.9379   28.4777   43.5866 H   0  0  0  0  0  0  0  0  0  0  0  0
   55.9976   30.6814   44.3925 H   0  0  0  0  0  0  0  0  0  0  0  0
   56.8378   31.6802   43.1584 H   0  0  0  0  0  0  0  0  0  0  0  0
   57.0395   29.8953   43.1584 H   0  0  0  0  0  0  0  0  0  0  0  0
   57.3793   33.2548   43.5898 H   0  0  0  0  0  0  0  0  0  0  0  0
   58.0514   35.5006   44.3951 H   0  0  0  0  0  0  0  0  0  0  0  0
   60.4401   33.7057   47.4942 H   0  0  0  0  0  0  0  0  0  0  0  0
  1  2  1  0
  2  3  1  0
  3  4  1  0
  4  5  1  0
  5  6  1  0
  6  7  1  0
  7  8  1  0
  8  9  1  0
  9 10  1  0
 10 11  1  0
 11 12  2  0
 12 13  1  0
 13 14  2  0
 14 15  1  0
 15 16  2  0
 16 17  1  0
 17 18  2  0
 18 19  1  0
 18 20  1  0
 20 21  2  0
 21 22  1  0
 22 23  2  0
 23 24  1  0
 23 25  1  0
 25 26  2  0
 26 11  1  0
 17 12  1  0
 26 20  1  0
  1 27  1  0
  1 28  1  0
  1 29  1  0
  2 30  1  0
  2 31  1  0
  3 32  1  0
  4 33  1  0
  4 34  1  0
  5 35  1  0
  5 36  1  0
  6 37  1  0
  6 38  1  0
  7 39  1  0
  8 40  1  0
  8 41  1  0
  9 42  1  0
  9 43  1  0
 10 44  1  0
 10 45  1  0
 13 46  1  0
 14 47  1  0
 15 48  1  0
 16 49  1  0
 19 50  1  0
 19 51  1  0
 19 52  1  0
 21 53  1  0
 22 54  1  0
 25 55  1  0
M  CHG  2  10   1  18   1
M  END
>  <UniqueID>  (26) 
26

>  <SMILES>  (26) 
CCNCCCNCC[NH2+]c1c2ccccc2[n+](C)c2ccc(F)cc12

>  <Energy>  (26) 
76.07328123843484

>  <Genealogy>  (26) 
CCNCCCNCC[NH2+]c1c2ccccc2[n+](C)c2ccc(F)cc12 (protonated)
CCNCCCNCC[NH2+]c1c2ccccc2[n+](C)c2ccc(F)cc12 (3D coordinates assigned)
CCNCCCNCC[NH2+]c1c2ccccc2[n+](C)c2ccc(F)cc12 (optimized conformer: 76.07328123843484 kcal/mol)

>  <smiles>  (26) 
CCNCCCNCCNc1c2ccccc2[n+](C)c2ccc(F)cc12

>  <score_type>  (26) 
oracle

>  <origin>  (26) 
adg

>  <m_score__min__energy>  (26) 
-4.4100000000000001

>  <m_primary>  (26) 
energy

$$$$
26:0
     RDKit          3D

 42 45  0  0  0  0  0  0  0  0999 V2000
   59.2730   34.9620   47.5030 C   0  0  0  0  0  0  0  0  0  0  0  0
   58.3890   33.8550   47.5980 O   0  0  0  0  0  0  0  0  0  0  0  0
   58.3390   32.7460   46.7340 C   0  0  0  0  0  0  0  0  0  0  0  0
   58.7860   31.4240   46.9560 C   0  0  0  0  0  0  0  0  0  0  0  0
   59.5510   30.8370   48.1240 C   0  0  0  0  0  0  0  0  0  0  0  0
   60.2560   31.9020   48.9440 C   0  0  0  0  0  0  0  0  0  0  0  0
   59.6050   32.4170   50.0760 C   0  0  0  0  0  0  0  0  0  0  0  0
   60.2310   33.3700   50.8750 C   0  0  0  0  0  0  0  0  0  0  0  0
   61.4700   33.8260   50.5590 N   0  0  0  0  0  0  0  0  0  0  0  0
   62.1320   33.3850   49.4510 C   0  0  0  0  0  0  0  0  0  0  0  0
   63.4040   33.8950   49.1480 C   0  0  0  0  0  0  0  0  0  0  0  0
   64.0810   33.4670   48.0050 C   0  0  0  0  0  0  0  0  0  0  0  0
   63.4930   32.5330   47.1530 C   0  0  0  0  0  0  0  0  0  0  0  0
   62.2300   32.0140   47.4410 C   0  0  0  0  0  0  0  0  0  0  0  0
   61.5340   32.4170   48.6010 C   0  0  0  0  0  0  0  0  0  0  0  0
   58.3950   30.7250   45.8180 C   0  0  0  0  0  0  0  0  0  0  0  0
   58.4990   29.3700   45.4920 C   0  0  0  0  0  0  0  0  0  0  0  0
   57.9950   28.9420   44.2510 C   0  0  0  0  0  0  0  0  0  0  0  0
   58.1190   27.1020   43.7610 Br  0  0  0  0  0  0  0  0  0  0  0  0
   57.3900   29.8640   43.3720 C   0  0  0  0  0  0  0  0  0  0  0  0
   57.2810   31.2190   43.7280 C   0  0  0  0  0  0  0  0  0  0  0  0
   57.7990   31.6190   44.9640 C   0  0  0  0  0  0  0  0  0  0  0  0
   57.7780   32.8510   45.5040 N   0  0  0  0  0  0  0  0  0  0  0  0
   57.1540   34.0430   44.9330 C   0  0  0  0  0  0  0  0  0  0  0  0
   59.5446   35.3021   48.5132 H   0  0  0  0  0  0  0  0  0  0  0  0
   60.1815   34.6603   46.9611 H   0  0  0  0  0  0  0  0  0  0  0  0
   58.7778   35.7812   46.9611 H   0  0  0  0  0  0  0  0  0  0  0  0
   58.8456   30.2990   48.7744 H   0  0  0  0  0  0  0  0  0  0  0  0
   60.3185   30.1615   47.7184 H   0  0  0  0  0  0  0  0  0  0  0  0
   58.5948   32.0657   50.3332 H   0  0  0  0  0  0  0  0  0  0  0  0
   59.7182   33.7560   51.7683 H   0  0  0  0  0  0  0  0  0  0  0  0
   61.9090   34.5380   51.1850 H   0  0  0  0  0  0  0  0  0  0  0  0
   63.8697   34.6357   49.8147 H   0  0  0  0  0  0  0  0  0  0  0  0
   65.0798   33.8671   47.7760 H   0  0  0  0  0  0  0  0  0  0  0  0
   64.0272   32.2037   46.2496 H   0  0  0  0  0  0  0  0  0  0  0  0
   61.7724   31.2837   46.7574 H   0  0  0  0  0  0  0  0  0  0  0  0
   58.9633   28.6564   46.1885 H   0  0  0  0  0  0  0  0  0  0  0  0
   57.0012   29.5205   42.4021 H   0  0  0  0  0  0  0  0  0  0  0  0
   56.8020   31.9443   43.0539 H   0  0  0  0  0  0  0  0  0  0  0  0
   56.8096   34.7010   45.7444 H   0  0  0  0  0  0  0  0  0  0  0  0
   57.8871   34.5791   44.3124 H   0  0  0  0  0  0  0  0  0  0  0  0
   56.2957   33.7460   44.3124 H   0  0  0  0  0  0  0  0  0  0  0  0
  1  2  1  0
  2  3  1  0
  3  4  2  0
  4  5  1  0
  5  6  1  0
  6  7  2  0
  7  8  1  0
  8  9  2  0
  9 10  1  0
 10 11  2  0
 11 12  1  0
 12 13  2  0
 13 14  1  0
 14 15  2  0
  4 16  1  0
 16 17  2  0
 17 18  1  0
 18 19  1  0
 18 20  2  0
 20 21  1  0
 21 22  2  0
 22 23  1  0
 23 24  1  0
 23  3  1  0
 15  6  1  0
 22 16  1  0
 15 10  1  0
  1 25  1  0
  1 26  1  0
  1 27  1  0
  5 28  1  0
  5 29  1  0
  7 30  1  0
  8 31  1  0
  9 32  1  0
 11 33  1  0
 12 34  1  0
 13 35  1  0
 14 36  1  0
 17 37  1  0
 20 38  1  0
 21 39  1  0
 24 40  1  0
 24 41  1  0
 24 42  1  0
M  CHG  1   9   1
M  END
>  <UniqueID>  (27) 
27

>  <SMILES>  (27) 
COc1c(Cc2cc[nH+]c3ccccc23)c2cc(Br)ccc2n1C

>  <Energy>  (27) 
89.1852531174833

>  <Genealogy>  (27) 
COc1c(Cc2cc[nH+]c3ccccc23)c2cc(Br)ccc2n1C (protonated)
COc1c(Cc2cc[nH+]c3ccccc23)c2cc(Br)ccc2n1C (3D coordinates assigned)
COc1c(Cc2cc[nH+]c3ccccc23)c2cc(Br)ccc2n1C (optimized conformer: 89.1852531174833 kcal/mol)

>  <smiles>  (27) 
COc1c(Cc2ccnc3ccccc23)c2cc(Br)ccc2n1C

>  <score_type>  (27) 
oracle

>  <origin>  (27) 
adg

>  <m_score__min__energy>  (27) 
-6.8899999999999997

>  <m_primary>  (27) 
energy

$$$$
27:0
     RDKit          3D

 53 57  0  0  0  0  0  0  0  0999 V2000
   61.2730   32.4350   51.0510 C   0  0  0  0  0  0  0  0  0  0  0  0
   60.7200   31.6160   49.9730 N   0  0  0  0  0  0  0  0  0  0  0  0
   61.3230   31.2440   48.8250 C   0  0  0  0  0  0  0  0  0  0  0  0
   63.0030   31.6690   48.3520 S   0  0  0  0  0  0  0  0  0  0  0  0
   62.5310   33.1840   47.4400 C   0  0  0  0  0  0  0  0  0  0  0  0
   61.7360   34.1640   48.3120 C   0  0  0  0  0  0  0  0  0  0  0  0
   60.4200   34.5970   47.6470 C   0  0  0  0  0  0  0  0  0  0  0  0
   59.5750   33.4230   47.3500 N   0  0  0  0  0  0  0  0  0  0  0  0
   58.1370   33.7020   47.4960 C   0  0  0  0  0  0  0  0  0  0  0  0
   57.3960   32.8950   46.4420 C   0  0  1  0  0  0  0  0  0  0  0  0
   57.4070   33.4500   45.0260 C   0  0  0  0  0  0  0  0  0  0  0  0
   58.4500   32.4290   45.4630 C   0  0  2  0  0  0  0  0  0  0  0  0
   58.3080   31.0020   45.0020 C   0  0  0  0  0  0  0  0  0  0  0  0
   57.2180   30.6290   44.2010 C   0  0  0  0  0  0  0  0  0  0  0  0
   57.1010   29.3140   43.7390 C   0  0  0  0  0  0  0  0  0  0  0  0
   58.0790   28.3670   44.0640 C   0  0  0  0  0  0  0  0  0  0  0  0
   57.9330   26.7190   43.4790 Cl  0  0  0  0  0  0  0  0  0  0  0  0
   59.1770   28.7380   44.8470 C   0  0  0  0  0  0  0  0  0  0  0  0
   59.2950   30.0520   45.3100 C   0  0  0  0  0  0  0  0  0  0  0  0
   59.7860   32.9410   45.9780 C   0  0  0  0  0  0  0  0  0  0  0  0
   60.5110   30.4930   48.0590 N   0  0  0  0  0  0  0  0  0  0  0  0
   59.3640   30.3800   48.7100 N   0  0  0  0  0  0  0  0  0  0  0  0
   59.4900   31.0590   49.8690 C   0  0  0  0  0  0  0  0  0  0  0  0
   58.3990   31.1610   50.8700 C   0  0  0  0  0  0  0  0  0  0  0  0
   58.0570   32.4060   51.4260 C   0  0  0  0  0  0  0  0  0  0  0  0
   57.0240   32.4810   52.3630 C   0  0  0  0  0  0  0  0  0  0  0  0
   56.3420   31.3240   52.7400 C   0  0  0  0  0  0  0  0  0  0  0  0
   56.7080   30.1030   52.1720 C   0  0  0  0  0  0  0  0  0  0  0  0
   57.7140   30.0500   51.2600 N   0  0  0  0  0  0  0  0  0  0  0  0
   60.9839   32.0068   52.0221 H   0  0  0  0  0  0  0  0  0  0  0  0
   62.3699   32.4545   50.9709 H   0  0  0  0  0  0  0  0  0  0  0  0
   60.8812   33.4597   50.9709 H   0  0  0  0  0  0  0  0  0  0  0  0
   63.4452   33.6846   47.0885 H   0  0  0  0  0  0  0  0  0  0  0  0
   61.8886   32.8843   46.5989 H   0  0  0  0  0  0  0  0  0  0  0  0
   61.5049   33.6775   49.2711 H   0  0  0  0  0  0  0  0  0  0  0  0
   62.3526   35.0632   48.4574 H   0  0  0  0  0  0  0  0  0  0  0  0
   59.8767   35.2706   48.3261 H   0  0  0  0  0  0  0  0  0  0  0  0
   60.6531   35.1130   46.7039 H   0  0  0  0  0  0  0  0  0  0  0  0
   57.7987   33.4058   48.4999 H   0  0  0  0  0  0  0  0  0  0  0  0
   57.9395   34.7762   47.3655 H   0  0  0  0  0  0  0  0  0  0  0  0
   56.5749   32.4902   47.0519 H   0  0  0  0  0  0  0  0  0  0  0  0
   56.6183   33.1626   44.3152 H   0  0  0  0  0  0  0  0  0  0  0  0
   57.4378   34.4561   44.5824 H   0  0  0  0  0  0  0  0  0  0  0  0
   56.4529   31.3733   43.9355 H   0  0  0  0  0  0  0  0  0  0  0  0
   56.2395   29.0238   43.1196 H   0  0  0  0  0  0  0  0  0  0  0  0
   59.9484   27.9953   45.0988 H   0  0  0  0  0  0  0  0  0  0  0  0
   60.1644   30.3427   45.9179 H   0  0  0  0  0  0  0  0  0  0  0  0
   60.5263   32.1274   45.9754 H   0  0  0  0  0  0  0  0  0  0  0  0
   60.1639   33.7508   45.3366 H   0  0  0  0  0  0  0  0  0  0  0  0
   58.5991   33.3147   51.1252 H   0  0  0  0  0  0  0  0  0  0  0  0
   56.7487   33.4509   52.8030 H   0  0  0  0  0  0  0  0  0  0  0  0
   55.5259   31.3735   53.4759 H   0  0  0  0  0  0  0  0  0  0  0  0
   56.1814   29.1821   52.4629 H   0  0  0  0  0  0  0  0  0  0  0  0
  1  2  1  0
  2  3  1  0
  3  4  1  0
  4  5  1  0
  5  6  1  0
  6  7  1  0
  7  8  1  0
  8  9  1  0
  9 10  1  0
 10 11  1  0
 11 12  1  0
 12 13  1  6
 13 14  2  0
 14 15  1  0
 15 16  2  0
 16 17  1  0
 16 18  1  0
 18 19  2  0
 12 20  1  0
  3 21  2  0
 21 22  1  0
 22 23  2  0
 23 24  1  0
 24 25  2  0
 25 26  1  0
 26 27  2  0
 27 28  1  0
 28 29  2  0
 23  2  1  0
 29 24  1  0
 20  8  1  0
 12 10  1  0
 19 13  1  0
  1 30  1  0
  1 31  1  0
  1 32  1  0
  5 33  1  0
  5 34  1  0
  6 35  1  0
  6 36  1  0
  7 37  1  0
  7 38  1  0
  9 39  1  0
  9 40  1  0
 10 41  1  1
 11 42  1  0
 11 43  1  0
 14 44  1  0
 15 45  1  0
 18 46  1  0
 19 47  1  0
 20 48  1  0
 20 49  1  0
 25 50  1  0
 26 51  1  0
 27 52  1  0
 28 53  1  0
M  END
>  <UniqueID>  (28) 
28

>  <SMILES>  (28) 
Cn1c(SCCCN2C[C@H]3C[C@@]3(c3ccc(Cl)cc3)C2)nnc1-c1ccccn1

>  <Energy>  (28) 
359.53350131828665

>  <Genealogy>  (28) 
Cn1c(SCCCN2C[C@H]3C[C@@]3(c3ccc(Cl)cc3)C2)nnc1-c1ccccn1 (chirality)
Cn1c(SCCCN2C[C@H]3C[C@@]3(c3ccc(Cl)cc3)C2)nnc1-c1ccccn1 (3D coordinates assigned)
Cn1c(SCCCN2C[C@H]3C[C@@]3(c3ccc(Cl)cc3)C2)nnc1-c1ccccn1 (nonaromatic ring conformer: 359.53350131828665 kcal/mol)

>  <smiles>  (28) 
Cn1c(SCCCN2CC3CC3(c3ccc(Cl)cc3)C2)nnc1-c1ccccn1

>  <score_type>  (28) 
oracle

>  <origin>  (28) 
adg

>  <m_score__min__energy>  (28) 
-10.25

>  <m_primary>  (28) 
energy

$$$$
28:0
     RDKit          3D

 59 61  0  0  0  0  0  0  0  0999 V2000
   63.3970   31.8840   47.1150 C   0  0  0  0  0  0  0  0  0  0  0  0
   63.3520   33.3960   46.8950 C   0  0  0  0  0  0  0  0  0  0  0  0
   61.9840   33.8670   46.3980 C   0  0  0  0  0  0  0  0  0  0  0  0
   60.7410   33.7820   47.7320 S   0  0  0  0  0  0  0  0  0  0  0  0
   59.3710   33.4520   46.6040 C   0  0  0  0  0  0  0  0  0  0  0  0
   58.6910   34.5800   46.1400 C   0  0  0  0  0  0  0  0  0  0  0  0
   57.7070   34.4640   45.1710 C   0  0  0  0  0  0  0  0  0  0  0  0
   57.4410   33.2290   44.5940 C   0  0  0  0  0  0  0  0  0  0  0  0
   58.1400   32.0630   44.9950 C   0  0  0  0  0  0  0  0  0  0  0  0
   59.0310   32.1550   46.1060 C   0  0  0  0  0  0  0  0  0  0  0  0
   59.5480   30.9540   46.6540 C   0  0  0  0  0  0  0  0  0  0  0  0
   60.2350   30.9550   47.9170 N   0  0  0  0  0  0  0  0  0  0  0  0
   59.6600   30.2980   49.0920 C   0  0  0  0  0  0  0  0  0  0  0  0
   60.4020   30.7190   50.3650 C   0  0  0  0  0  0  0  0  0  0  0  0
   61.4670   31.6990   50.0530 N   0  0  0  0  0  0  0  0  0  0  0  0
   61.2620   32.9510   50.8180 C   0  0  0  0  0  0  0  0  0  0  0  0
   59.7790   33.3140   50.8900 C   0  0  0  0  0  0  0  0  0  0  0  0
   62.8230   31.1320   50.2770 C   0  0  0  0  0  0  0  0  0  0  0  0
   63.8360   32.2640   50.3990 C   0  0  0  0  0  0  0  0  0  0  0  0
   59.2550   29.7200   46.0390 C   0  0  0  0  0  0  0  0  0  0  0  0
   59.7600   28.5100   46.5670 C   0  0  0  0  0  0  0  0  0  0  0  0
   59.4200   27.2850   45.9990 C   0  0  0  0  0  0  0  0  0  0  0  0
   58.5600   27.2400   44.9100 C   0  0  0  0  0  0  0  0  0  0  0  0
   58.0580   28.4190   44.3650 C   0  0  0  0  0  0  0  0  0  0  0  0
   58.4220   29.6860   44.8910 C   0  0  0  0  0  0  0  0  0  0  0  0
   57.9580   30.8610   44.3360 N   0  0  0  0  0  0  0  0  0  0  0  0
   57.3140   30.8410   43.0020 C   0  0  0  0  0  0  0  0  0  0  0  0
   63.4034   31.6705   48.1941 H   0  0  0  0  0  0  0  0  0  0  0  0
   62.5123   31.4200   46.6546 H   0  0  0  0  0  0  0  0  0  0  0  0
   64.3078   31.4734   46.6546 H   0  0  0  0  0  0  0  0  0  0  0  0
   63.5756   33.8994   47.8472 H   0  0  0  0  0  0  0  0  0  0  0  0
   64.0961   33.6476   46.1249 H   0  0  0  0  0  0  0  0  0  0  0  0
   62.0664   34.9067   46.0483 H   0  0  0  0  0  0  0  0  0  0  0  0
   61.6632   33.2094   45.5766 H   0  0  0  0  0  0  0  0  0  0  0  0
   58.9390   35.5710   46.5479 H   0  0  0  0  0  0  0  0  0  0  0  0
   57.1361   35.3509   44.8586 H   0  0  0  0  0  0  0  0  0  0  0  0
   56.6727   33.1543   43.8103 H   0  0  0  0  0  0  0  0  0  0  0  0
   61.2510   31.1990   47.9350 H   0  0  0  0  0  0  0  0  0  0  0  0
   58.6006   30.5804   49.1814 H   0  0  0  0  0  0  0  0  0  0  0  0
   59.7556   29.2089   48.9706 H   0  0  0  0  0  0  0  0  0  0  0  0
   59.6866   31.1746   51.0654 H   0  0  0  0  0  0  0  0  0  0  0  0
   60.8638   29.8278   50.8150 H   0  0  0  0  0  0  0  0  0  0  0  0
   61.6490   32.8160   51.8388 H   0  0  0  0  0  0  0  0  0  0  0  0
   61.7970   33.7649   50.3068 H   0  0  0  0  0  0  0  0  0  0  0  0
   59.4707   33.3895   51.9432 H   0  0  0  0  0  0  0  0  0  0  0  0
   59.6131   34.2793   50.3893 H   0  0  0  0  0  0  0  0  0  0  0  0
   59.1860   32.5345   50.3893 H   0  0  0  0  0  0  0  0  0  0  0  0
   62.8234   30.5388   51.2033 H   0  0  0  0  0  0  0  0  0  0  0  0
   63.0949   30.4881   49.4276 H   0  0  0  0  0  0  0  0  0  0  0  0
   64.0244   32.4745   51.4621 H   0  0  0  0  0  0  0  0  0  0  0  0
   64.7767   31.9684   49.9115 H   0  0  0  0  0  0  0  0  0  0  0  0
   63.4381   33.1662   49.9115 H   0  0  0  0  0  0  0  0  0  0  0  0
   60.4307   28.5364   47.4385 H   0  0  0  0  0  0  0  0  0  0  0  0
   59.8327   26.3532   46.4130 H   0  0  0  0  0  0  0  0  0  0  0  0
   58.2744   26.2702   44.4765 H   0  0  0  0  0  0  0  0  0  0  0  0
   57.3666   28.3674   43.5110 H   0  0  0  0  0  0  0  0  0  0  0  0
   56.2212   30.8071   43.1229 H   0  0  0  0  0  0  0  0  0  0  0  0
   57.5934   31.7483   42.4463 H   0  0  0  0  0  0  0  0  0  0  0  0
   57.6492   29.9528   42.4463 H   0  0  0  0  0  0  0  0  0  0  0  0
  1  2  1  0
  2  3  1  0
  3  4  1  0
  4  5  1  0
  5  6  2  0
  6  7  1  0
  7  8  2  0
  8  9  1  0
  9 10  2  0
 10 11  1  0
 11 12  1  0
 12 13  1  0
 13 14  1  0
 14 15  1  0
 15 16  1  0
 16 17  1  0
 15 18  1  0
 18 19  1  0
 11 20  2  0
 20 21  1  0
 21 22  2  0
 22 23  1  0
 23 24  2  0
 24 25  1  0
 25 26  2  0
 26 27  1  0
 10  5  1  0
 25 20  1  0
 26  9  1  0
  1 28  1  0
  1 29  1  0
  1 30  1  0
  2 31  1  0
  2 32  1  0
  3 33  1  0
  3 34  1  0
  6 35  1  0
  7 36  1  0
  8 37  1  0
 12 38  1  0
 13 39  1  0
 13 40  1  0
 14 41  1  0
 14 42  1  0
 16 43  1  0
 16 44  1  0
 17 45  1  0
 17 46  1  0
 17 47  1  0
 18 48  1  0
 18 49  1  0
 19 50  1  0
 19 51  1  0
 19 52  1  0
 21 53  1  0
 22 54  1  0
 23 55  1  0
 24 56  1  0
 27 57  1  0
 27 58  1  0
 27 59  1  0
M  CHG  1  26   1
M  END
>  <UniqueID>  (29) 
29

>  <SMILES>  (29) 
CCCSc1cccc2c1c(NCCN(CC)CC)c1ccccc1[n+]2C

>  <Energy>  (29) 
82.3411738872756

>  <Genealogy>  (29) 
CCCSc1cccc2c1c(NCCN(CC)CC)c1ccccc1[n+]2C (3D coordinates assigned)
CCCSc1cccc2c1c(NCCN(CC)CC)c1ccccc1[n+]2C (optimized conformer: 82.3411738872756 kcal/mol)

>  <smiles>  (29) 
CCCSc1cccc2c1c(NCCN(CC)CC)c1ccccc1[n+]2C

>  <score_type>  (29) 
oracle

>  <origin>  (29) 
adg

>  <m_score__min__energy>  (29) 
-5.7400000000000002

>  <m_primary>  (29) 
energy

$$$$
29:0
     RDKit          3D

 81 82  0  0  0  0  0  0  0  0999 V2000
   58.7350   32.9220   52.8660 C   0  0  0  0  0  0  0  0  0  0  0  0
   59.0950   31.5400   52.2900 C   0  0  0  0  0  0  0  0  0  0  0  0
   58.8400   31.3670   50.8320 N   0  0  2  0  0  0  0  0  0  0  0  0
   57.8750   32.3270   50.2620 C   0  0  0  0  0  0  0  0  0  0  0  0
   58.5810   29.9630   50.4120 C   0  0  0  0  0  0  0  0  0  0  0  0
   58.9650   29.6210   48.9620 C   0  0  0  0  0  0  0  0  0  0  0  0
   59.7760   30.6470   48.4220 O   0  0  0  0  0  0  0  0  0  0  0  0
   61.0870   30.1780   48.1790 C   0  0  0  0  0  0  0  0  0  0  0  0
   62.0930   30.8810   49.1100 C   0  0  0  0  0  0  0  0  0  0  0  0
   61.5480   31.1400   50.3910 O   0  0  0  0  0  0  0  0  0  0  0  0
   62.0680   32.3280   50.9630 C   0  0  0  0  0  0  0  0  0  0  0  0
   61.4010   33.5970   50.4120 C   0  0  0  0  0  0  0  0  0  0  0  0
   60.5540   33.2950   49.3170 O   0  0  0  0  0  0  0  0  0  0  0  0
   60.8410   34.1090   48.1950 C   0  0  0  0  0  0  0  0  0  0  0  0
   61.3130   33.2510   47.0150 C   0  0  0  0  0  0  0  0  0  0  0  0
   60.1600   32.6820   46.3070 N   0  0  0  0  0  0  0  0  0  0  0  0
   59.1690   33.7310   46.0340 C   0  0  0  0  0  0  0  0  0  0  0  0
   57.7340   33.2330   46.3060 C   0  0  2  0  0  0  0  0  0  0  0  0
   57.7610   32.1810   47.2400 O   0  0  0  0  0  0  0  0  0  0  0  0
   57.0210   32.7790   45.0130 C   0  0  0  0  0  0  0  0  0  0  0  0
   57.5850   31.5710   44.5400 O   0  0  0  0  0  0  0  0  0  0  0  0
   56.5960   30.5690   44.4250 C   0  0  0  0  0  0  0  0  0  0  0  0
   57.2630   29.1930   44.5100 C   0  0  2  0  0  0  0  0  0  0  0  0
   56.4910   28.3260   45.3110 O   0  0  0  0  0  0  0  0  0  0  0  0
   57.3880   27.4860   46.0120 C   0  0  1  0  0  0  0  0  0  0  0  0
   57.0970   26.0620   45.7360 N   0  0  0  0  0  0  0  0  0  0  0  0
   58.1270   25.1890   45.5030 C   0  0  0  0  0  0  0  0  0  0  0  0
   57.8780   23.8340   45.2490 C   0  0  0  0  0  0  0  0  0  0  0  0
   59.0090   22.8790   44.9840 C   0  0  0  0  0  0  0  0  0  0  0  0
   56.5510   23.3940   45.2810 C   0  0  0  0  0  0  0  0  0  0  0  0
   56.2680   22.1850   45.0700 O   0  0  0  0  0  0  0  0  0  0  0  0
   55.5560   24.2750   45.5480 N   0  0  0  0  0  0  0  0  0  0  0  0
   55.8100   25.5880   45.7800 C   0  0  0  0  0  0  0  0  0  0  0  0
   54.8450   26.3570   46.0410 O   0  0  0  0  0  0  0  0  0  0  0  0
   58.8220   27.8360   45.6240 C   0  0  0  0  0  0  0  0  0  0  0  0
   58.6870   29.2240   45.0620 C   0  0  2  0  0  0  0  0  0  0  0  0
   58.8140   30.1780   46.0870 O   0  0  0  0  0  0  0  0  0  0  0  0
   58.7471   32.8757   53.9650 H   0  0  0  0  0  0  0  0  0  0  0  0
   59.4695   33.6652   52.5222 H   0  0  0  0  0  0  0  0  0  0  0  0
   57.7312   33.2124   52.5222 H   0  0  0  0  0  0  0  0  0  0  0  0
   60.1662   31.3664   52.4697 H   0  0  0  0  0  0  0  0  0  0  0  0
   58.4378   30.8198   52.7993 H   0  0  0  0  0  0  0  0  0  0  0  0
   59.7500   31.6050   50.3680 H   0  0  0  0  0  0  0  0  0  0  0  0
   57.3512   32.8480   51.0770 H   0  0  0  0  0  0  0  0  0  0  0  0
   58.4107   33.0610   49.6421 H   0  0  0  0  0  0  0  0  0  0  0  0
   57.1438   31.7875   49.6421 H   0  0  0  0  0  0  0  0  0  0  0  0
   59.1517   29.2997   51.0786 H   0  0  0  0  0  0  0  0  0  0  0  0
   57.4913   29.8264   50.4748 H   0  0  0  0  0  0  0  0  0  0  0  0
   59.5201   28.6715   48.9463 H   0  0  0  0  0  0  0  0  0  0  0  0
   58.0502   29.5280   48.3583 H   0  0  0  0  0  0  0  0  0  0  0  0
   61.1229   29.0936   48.3602 H   0  0  0  0  0  0  0  0  0  0  0  0
   61.3554   30.3973   47.1350 H   0  0  0  0  0  0  0  0  0  0  0  0
   62.9778   30.2377   49.2253 H   0  0  0  0  0  0  0  0  0  0  0  0
   62.3559   31.8469   48.6541 H   0  0  0  0  0  0  0  0  0  0  0  0
   61.9100   32.2923   52.0510 H   0  0  0  0  0  0  0  0  0  0  0  0
   63.1365   32.3782   50.7065 H   0  0  0  0  0  0  0  0  0  0  0  0
   60.8043   34.0641   51.2093 H   0  0  0  0  0  0  0  0  0  0  0  0
   62.1883   34.2826   50.0654 H   0  0  0  0  0  0  0  0  0  0  0  0
   59.9328   34.6569   47.9036 H   0  0  0  0  0  0  0  0  0  0  0  0
   61.6405   34.8152   48.4633 H   0  0  0  0  0  0  0  0  0  0  0  0
   61.8931   33.8764   46.3205 H   0  0  0  0  0  0  0  0  0  0  0  0
   61.9397   32.4312   47.3961 H   0  0  0  0  0  0  0  0  0  0  0  0
   59.7280   31.9700   46.9430 H   0  0  0  0  0  0  0  0  0  0  0  0
   59.3763   34.5964   46.6806 H   0  0  0  0  0  0  0  0  0  0  0  0
   59.2436   34.0105   44.9727 H   0  0  0  0  0  0  0  0  0  0  0  0
   57.1612   34.0776   46.7166 H   0  0  0  0  0  0  0  0  0  0  0  0
   58.4400   31.5250   46.9310 H   0  0  0  0  0  0  0  0  0  0  0  0
   55.9526   32.6229   45.2233 H   0  0  0  0  0  0  0  0  0  0  0  0
   57.1439   33.5564   44.2446 H   0  0  0  0  0  0  0  0  0  0  0  0
   55.8670   30.6758   45.2417 H   0  0  0  0  0  0  0  0  0  0  0  0
   56.0772   30.6699   43.4603 H   0  0  0  0  0  0  0  0  0  0  0  0
   57.3232   28.8320   43.4727 H   0  0  0  0  0  0  0  0  0  0  0  0
   57.2623   27.6470   47.0929 H   0  0  0  0  0  0  0  0  0  0  0  0
   59.1635   25.5571   45.5155 H   0  0  0  0  0  0  0  0  0  0  0  0
   59.4244   22.5282   45.9402 H   0  0  0  0  0  0  0  0  0  0  0  0
   58.6355   22.0189   44.4090 H   0  0  0  0  0  0  0  0  0  0  0  0
   59.7944   23.3913   44.4090 H   0  0  0  0  0  0  0  0  0  0  0  0
   59.4834   27.8272   46.5029 H   0  0  0  0  0  0  0  0  0  0  0  0
   59.2679   27.1216   44.9163 H   0  0  0  0  0  0  0  0  0  0  0  0
   59.4468   29.4917   44.3130 H   0  0  0  0  0  0  0  0  0  0  0  0
   58.8200   31.0670   45.6530 H   0  0  0  0  0  0  0  0  0  0  0  0
  1  2  1  0
  2  3  1  0
  3  4  1  0
  3  5  1  0
  5  6  1  0
  6  7  1  0
  7  8  1  0
  8  9  1  0
  9 10  1  0
 10 11  1  0
 11 12  1  0
 12 13  1  0
 13 14  1  0
 14 15  1  0
 15 16  1  0
 16 17  1  0
 17 18  1  0
 18 19  1  0
 18 20  1  0
 20 21  1  0
 21 22  1  0
 22 23  1  0
 23 24  1  0
 24 25  1  0
 25 26  1  0
 26 27  1  0
 27 28  2  0
 28 29  1  0
 28 30  1  0
 30 31  2  0
 30 32  1  0
 32 33  1  0
 33 34  2  0
 25 35  1  0
 35 36  1  0
 36 37  1  0
 36 23  1  0
 33 26  1  0
  1 38  1  0
  1 39  1  0
  1 40  1  0
  2 41  1  0
  2 42  1  0
  3 43  1  6
  4 44  1  0
  4 45  1  0
  4 46  1  0
  5 47  1  0
  5 48  1  0
  6 49  1  0
  6 50  1  0
  8 51  1  0
  8 52  1  0
  9 53  1  0
  9 54  1  0
 11 55  1  0
 11 56  1  0
 12 57  1  0
 12 58  1  0
 14 59  1  0
 14 60  1  0
 15 61  1  0
 15 62  1  0
 16 63  1  0
 17 64  1  0
 17 65  1  0
 18 66  1  1
 19 67  1  0
 20 68  1  0
 20 69  1  0
 22 70  1  0
 22 71  1  0
 23 72  1  6
 25 73  1  1
 27 74  1  0
 29 75  1  0
 29 76  1  0
 29 77  1  0
 35 78  1  0
 35 79  1  0
 36 80  1  6
 37 81  1  0
M  CHG  2   3   1  32  -1
M  END
>  <UniqueID>  (30) 
30

>  <SMILES>  (30) 
CC[N@H+](C)CCOCCOCCOCCNC[C@H](O)COCC1OC(n2cc(C)c(=O)[n-]c2=O)CC1O

>  <Energy>  (30) 
96.31712022455869

>  <Genealogy>  (30) 
CC[NH+](C)CCOCCOCCOCCNCC(O)COCC1OC(n2cc(C)c(=O)[n-]c2=O)CC1O (protonated)
CC[N@H+](C)CCOCCOCCOCCNC[C@H](O)COCC1OC(n2cc(C)c(=O)[n-]c2=O)CC1O (chirality)
CC[N@H+](C)CCOCCOCCOCCNC[C@H](O)COCC1OC(n2cc(C)c(=O)[n-]c2=O)CC1O (3D coordinates assigned)
CC[N@H+](C)CCOCCOCCOCCNC[C@H](O)COCC1OC(n2cc(C)c(=O)[n-]c2=O)CC1O (nonaromatic ring conformer: 96.31712022455869 kcal/mol)

>  <smiles>  (30) 
CCN(C)CCOCCOCCOCCNCC(O)COCC1OC(n2cc(C)c(=O)[nH]c2=O)CC1O

>  <score_type>  (30) 
oracle

>  <origin>  (30) 
adg

>  <m_score__min__energy>  (30) 
-5.2199999999999998

>  <m_primary>  (30) 
energy

$$$$
30:0
     RDKit          3D

 65 67  0  0  0  0  0  0  0  0999 V2000
   60.3980   29.5260   48.5290 C   0  0  0  0  0  0  0  0  0  0  0  0
   60.3340   29.8010   47.0150 C   0  0  0  0  0  0  0  0  0  0  0  0
   59.7400   28.7150   46.1660 N   0  0  0  0  0  0  0  0  0  0  0  0
   59.9860   29.0010   44.7290 C   0  0  0  0  0  0  0  0  0  0  0  0
   60.3390   27.4050   46.5250 C   0  0  0  0  0  0  0  0  0  0  0  0
   58.2660   28.7020   46.4620 C   0  0  0  0  0  0  0  0  0  0  0  0
   57.3130   28.4180   45.2690 C   0  0  0  0  0  0  0  0  0  0  0  0
   56.2410   29.4260   45.1890 N   0  0  0  0  0  0  0  0  0  0  0  0
   56.2480   30.1730   43.9190 C   0  0  0  0  0  0  0  0  0  0  0  0
   57.1900   31.3900   43.9630 C   0  0  0  0  0  0  0  0  0  0  0  0
   57.3090   31.8860   45.2820 O   0  0  0  0  0  0  0  0  0  0  0  0
   57.4560   33.2950   45.3050 C   0  0  0  0  0  0  0  0  0  0  0  0
   57.9750   33.7220   46.6760 C   0  0  0  0  0  0  0  0  0  0  0  0
   58.5920   32.5940   47.3750 N   0  0  0  0  0  0  0  0  0  0  0  0
   59.5580   32.8250   48.4120 C   0  0  0  0  0  0  0  0  0  0  0  0
   60.8690   33.2030   48.0740 C   0  0  0  0  0  0  0  0  0  0  0  0
   61.2520   33.3450   46.7220 C   0  0  0  0  0  0  0  0  0  0  0  0
   62.5630   33.6760   46.3840 C   0  0  0  0  0  0  0  0  0  0  0  0
   63.5150   33.8530   47.3820 C   0  0  0  0  0  0  0  0  0  0  0  0
   63.1580   33.7200   48.7240 C   0  0  0  0  0  0  0  0  0  0  0  0
   61.8220   33.4260   49.1030 C   0  0  0  0  0  0  0  0  0  0  0  0
   61.4410   33.3410   50.4300 N   0  0  0  0  0  0  0  0  0  0  0  0
   62.3430   33.8440   51.4920 C   0  0  0  0  0  0  0  0  0  0  0  0
   60.2030   32.8200   50.7650 C   0  0  0  0  0  0  0  0  0  0  0  0
   59.8740   32.4710   52.1010 C   0  0  0  0  0  0  0  0  0  0  0  0
   58.5950   32.0210   52.4360 C   0  0  0  0  0  0  0  0  0  0  0  0
   58.2130   31.6130   54.1000 Cl  0  0  0  0  0  0  0  0  0  0  0  0
   57.6180   31.9030   51.4530 C   0  0  0  0  0  0  0  0  0  0  0  0
   57.9270   32.1890   50.1250 C   0  0  0  0  0  0  0  0  0  0  0  0
   59.2230   32.6100   49.7590 C   0  0  0  0  0  0  0  0  0  0  0  0
   60.1821   30.4535   49.0796 H   0  0  0  0  0  0  0  0  0  0  0  0
   59.6540   28.7605   48.7944 H   0  0  0  0  0  0  0  0  0  0  0  0
   61.4035   29.1676   48.7944 H   0  0  0  0  0  0  0  0  0  0  0  0
   59.7333   30.7102   46.8647 H   0  0  0  0  0  0  0  0  0  0  0  0
   61.3808   29.8889   46.6885 H   0  0  0  0  0  0  0  0  0  0  0  0
   60.7008   29.8321   44.6377 H   0  0  0  0  0  0  0  0  0  0  0  0
   60.4006   28.1057   44.2427 H   0  0  0  0  0  0  0  0  0  0  0  0
   59.0387   29.2770   44.2427 H   0  0  0  0  0  0  0  0  0  0  0  0
   60.3827   27.3095   47.6200 H   0  0  0  0  0  0  0  0  0  0  0  0
   59.7223   26.5939   46.1105 H   0  0  0  0  0  0  0  0  0  0  0  0
   61.3559   27.3409   46.1105 H   0  0  0  0  0  0  0  0  0  0  0  0
   58.0864   27.9278   47.2225 H   0  0  0  0  0  0  0  0  0  0  0  0
   58.0283   29.7274   46.7815 H   0  0  0  0  0  0  0  0  0  0  0  0
   57.8931   28.4367   44.3346 H   0  0  0  0  0  0  0  0  0  0  0  0
   56.8513   27.4311   45.4204 H   0  0  0  0  0  0  0  0  0  0  0  0
   56.3360   30.0920   45.9910 H   0  0  0  0  0  0  0  0  0  0  0  0
   56.5774   29.4995   43.1141 H   0  0  0  0  0  0  0  0  0  0  0  0
   55.2277   30.5431   43.7403 H   0  0  0  0  0  0  0  0  0  0  0  0
   58.1839   31.0899   43.5996 H   0  0  0  0  0  0  0  0  0  0  0  0
   56.7719   32.1825   43.3249 H   0  0  0  0  0  0  0  0  0  0  0  0
   58.1713   33.6032   44.5282 H   0  0  0  0  0  0  0  0  0  0  0  0
   56.4836   33.7718   45.1124 H   0  0  0  0  0  0  0  0  0  0  0  0
   58.7230   34.5180   46.5461 H   0  0  0  0  0  0  0  0  0  0  0  0
   57.1273   34.0857   47.2752 H   0  0  0  0  0  0  0  0  0  0  0  0
   58.1740   31.6370   47.2990 H   0  0  0  0  0  0  0  0  0  0  0  0
   60.5073   33.1927   45.9269 H   0  0  0  0  0  0  0  0  0  0  0  0
   62.8447   33.7972   45.3276 H   0  0  0  0  0  0  0  0  0  0  0  0
   64.5528   34.0986   47.1125 H   0  0  0  0  0  0  0  0  0  0  0  0
   63.9253   33.8452   49.5022 H   0  0  0  0  0  0  0  0  0  0  0  0
   61.9169   33.6064   52.4779 H   0  0  0  0  0  0  0  0  0  0  0  0
   63.3284   33.3651   51.3934 H   0  0  0  0  0  0  0  0  0  0  0  0
   62.4535   34.9340   51.3934 H   0  0  0  0  0  0  0  0  0  0  0  0
   60.6397   32.5565   52.8861 H   0  0  0  0  0  0  0  0  0  0  0  0
   56.6009   31.5837   51.7243 H   0  0  0  0  0  0  0  0  0  0  0  0
   57.1510   32.0853   49.3523 H   0  0  0  0  0  0  0  0  0  0  0  0
  1  2  1  0
  2  3  1  0
  3  4  1  0
  3  5  1  0
  3  6  1  0
  6  7  1  0
  7  8  1  0
  8  9  1  0
  9 10  1  0
 10 11  1  0
 11 12  1  0
 12 13  1  0
 13 14  1  0
 14 15  1  0
 15 16  2  0
 16 17  1  0
 17 18  2  0
 18 19  1  0
 19 20  2  0
 20 21  1  0
 21 22  2  0
 22 23  1  0
 22 24  1  0
 24 25  2  0
 25 26  1  0
 26 27  1  0
 26 28  2  0
 28 29  1  0
 29 30  2  0
 30 15  1  0
 21 16  1  0
 30 24  1  0
  1 31  1  0
  1 32  1  0
  1 33  1  0
  2 34  1  0
  2 35  1  0
  4 36  1  0
  4 37  1  0
  4 38  1  0
  5 39  1  0
  5 40  1  0
  5 41  1  0
  6 42  1  0
  6 43  1  0
  7 44  1  0
  7 45  1  0
  8 46  1  0
  9 47  1  0
  9 48  1  0
 10 49  1  0
 10 50  1  0
 12 51  1  0
 12 52  1  0
 13 53  1  0
 13 54  1  0
 14 55  1  0
 17 56  1  0
 18 57  1  0
 19 58  1  0
 20 59  1  0
 23 60  1  0
 23 61  1  0
 23 62  1  0
 25 63  1  0
 28 64  1  0
 29 65  1  0
M  CHG  2   3   1  22   1
M  END
>  <UniqueID>  (31) 
31

>  <SMILES>  (31) 
CC[N+](C)(C)CCNCCOCCNc1c2ccccc2[n+](C)c2cc(Cl)ccc12

>  <Energy>  (31) 
106.1369318232339

>  <Genealogy>  (31) 
CC[N+](C)(C)CCNCCOCCNc1c2ccccc2[n+](C)c2cc(Cl)ccc12 (3D coordinates assigned)
CC[N+](C)(C)CCNCCOCCNc1c2ccccc2[n+](C)c2cc(Cl)ccc12 (optimized conformer: 106.1369318232339 kcal/mol)

>  <smiles>  (31) 
CC[N+](C)(C)CCNCCOCCNc1c2ccccc2[n+](C)c2cc(Cl)ccc12

>  <score_type>  (31) 
oracle

>  <origin>  (31) 
adg

>  <m_score__min__energy>  (31) 
-4.79

>  <m_primary>  (31) 
energy

$$$$
31:0
     RDKit          3D

 31 32  0  0  0  0  0  0  0  0999 V2000
   58.7140   27.7180   44.9000 C   0  0  0  0  0  0  0  0  0  0  0  0
   57.9390   28.5780   45.7270 O   0  0  0  0  0  0  0  0  0  0  0  0
   58.3950   29.7960   46.2500 C   0  0  0  0  0  0  0  0  0  0  0  0
   59.0190   29.8920   47.5170 C   0  0  0  0  0  0  0  0  0  0  0  0
   59.4630   31.1370   48.0080 C   0  0  0  0  0  0  0  0  0  0  0  0
   59.2940   32.3050   47.2490 C   0  0  0  0  0  0  0  0  0  0  0  0
   58.6810   32.1930   46.0010 C   0  0  0  0  0  0  0  0  0  0  0  0
   58.2430   30.9820   45.5150 C   0  0  0  0  0  0  0  0  0  0  0  0
   57.6720   31.2380   44.2730 C   0  0  0  0  0  0  0  0  0  0  0  0
   56.9680   30.2880   43.3440 C   0  0  0  0  0  0  0  0  0  0  0  0
   55.5350   30.0090   43.8100 C   0  0  0  0  0  0  0  0  0  0  0  0
   55.5180   29.0070   44.8710 N   0  0  0  0  0  0  0  0  0  0  0  0
   57.7830   32.6110   44.0760 C   0  0  0  0  0  0  0  0  0  0  0  0
   58.4100   33.1840   45.1280 N   0  0  0  0  0  0  0  0  0  0  0  0
   58.6780   34.6090   45.3000 C   0  0  0  0  0  0  0  0  0  0  0  0
   59.3173   27.0485   45.5308 H   0  0  0  0  0  0  0  0  0  0  0  0
   58.0448   27.1190   44.2649 H   0  0  0  0  0  0  0  0  0  0  0  0
   59.3792   28.3215   44.2649 H   0  0  0  0  0  0  0  0  0  0  0  0
   59.1590   28.9859   48.1248 H   0  0  0  0  0  0  0  0  0  0  0  0
   59.9461   31.1931   48.9947 H   0  0  0  0  0  0  0  0  0  0  0  0
   59.6348   33.2802   47.6270 H   0  0  0  0  0  0  0  0  0  0  0  0
   56.9373   30.7292   42.3368 H   0  0  0  0  0  0  0  0  0  0  0  0
   57.5210   29.3371   43.3370 H   0  0  0  0  0  0  0  0  0  0  0  0
   55.0913   30.9417   44.1884 H   0  0  0  0  0  0  0  0  0  0  0  0
   54.9561   29.6267   42.9564 H   0  0  0  0  0  0  0  0  0  0  0  0
   56.1510   28.2260   44.5810 H   0  0  0  0  0  0  0  0  0  0  0  0
   55.9470   29.4310   45.7260 H   0  0  0  0  0  0  0  0  0  0  0  0
   57.4140   33.1520   43.1922 H   0  0  0  0  0  0  0  0  0  0  0  0
   58.7227   34.8468   46.3731 H   0  0  0  0  0  0  0  0  0  0  0  0
   59.6393   34.8609   44.8283 H   0  0  0  0  0  0  0  0  0  0  0  0
   57.8739   35.1929   44.8283 H   0  0  0  0  0  0  0  0  0  0  0  0
  1  2  1  0
  2  3  1  0
  3  4  2  0
  4  5  1  0
  5  6  2  0
  6  7  1  0
  7  8  2  0
  8  9  1  0
  9 10  1  0
 10 11  1  0
 11 12  1  0
  9 13  2  0
 13 14  1  0
 14 15  1  0
  8  3  1  0
 14  7  1  0
  1 16  1  0
  1 17  1  0
  1 18  1  0
  4 19  1  0
  5 20  1  0
  6 21  1  0
 10 22  1  0
 10 23  1  0
 11 24  1  0
 11 25  1  0
 12 26  1  0
 12 27  1  0
 13 28  1  0
 15 29  1  0
 15 30  1  0
 15 31  1  0
M  END
>  <UniqueID>  (32) 
32

>  <SMILES>  (32) 
COc1cccc2c1c(CCN)cn2C

>  <Energy>  (32) 
59.199663929500154

>  <Genealogy>  (32) 
COc1cccc2c1c(CCN)cn2C (3D coordinates assigned)
COc1cccc2c1c(CCN)cn2C (optimized conformer: 59.199663929500154 kcal/mol)

>  <smiles>  (32) 
COc1cccc2c1c(CCN)cn2C

>  <score_type>  (32) 
oracle

>  <origin>  (32) 
adg

>  <m_score__min__energy>  (32) 
-5.4299999999999997

>  <m_primary>  (32) 
energy

$$$$
32:0
     RDKit          3D

 37 38  0  0  0  0  0  0  0  0999 V2000
   60.0993   35.4610   48.1450 H   0  0  0  0  0  0  0  0  0  0  0  0
   59.6430   34.9440   47.2880 C   0  0  0  0  0  0  0  0  0  0  0  0
   59.7020   35.5280   46.0070 C   0  0  0  0  0  0  0  0  0  0  0  0
   60.2003   36.4996   45.8738 H   0  0  0  0  0  0  0  0  0  0  0  0
   59.1320   34.8830   44.9010 C   0  0  0  0  0  0  0  0  0  0  0  0
   59.1715   35.3354   43.8991 H   0  0  0  0  0  0  0  0  0  0  0  0
   58.5150   33.6540   45.1080 C   0  0  0  0  0  0  0  0  0  0  0  0
   57.7390   32.6740   43.9850 S   0  0  0  0  0  0  0  0  0  0  0  0
   57.3490   31.5320   45.1680 C   0  0  0  0  0  0  0  0  0  0  0  0
   56.6830   30.4440   44.9180 N   0  0  0  0  0  0  0  0  0  0  0  0
   57.0560   29.4680   43.8970 C   0  0  0  0  0  0  0  0  0  0  0  0
   56.8300   28.4565   44.2656 H   0  0  0  0  0  0  0  0  0  0  0  0
   58.1315   29.5691   43.6895 H   0  0  0  0  0  0  0  0  0  0  0  0
   56.2840   29.7130   42.6040 C   0  0  0  0  0  0  0  0  0  0  0  0
   55.2608   30.0377   42.8438 H   0  0  0  0  0  0  0  0  0  0  0  0
   56.7890   30.4950   42.0180 H   0  0  0  0  0  0  0  0  0  0  0  0
   56.2457   28.7829   42.0180 H   0  0  0  0  0  0  0  0  0  0  0  0
   57.7970   31.8730   46.4010 N   0  0  0  0  0  0  0  0  0  0  0  0
   58.4510   33.0620   46.3610 C   0  0  0  0  0  0  0  0  0  0  0  0
   59.0000   33.6950   47.4810 C   0  0  0  0  0  0  0  0  0  0  0  0
   58.8900   33.0620   48.7320 O   0  0  0  0  0  0  0  0  0  0  0  0
   59.9570   32.4720   49.4780 C   0  0  0  0  0  0  0  0  0  0  0  0
   60.8584   33.0920   49.3636 H   0  0  0  0  0  0  0  0  0  0  0  0
   59.6507   32.4166   50.5330 H   0  0  0  0  0  0  0  0  0  0  0  0
   60.2660   31.0460   48.9900 C   0  0  0  0  0  0  0  0  0  0  0  0
   61.2525   31.0483   48.5033 H   0  0  0  0  0  0  0  0  0  0  0  0
   60.2428   30.3856   49.8694 H   0  0  0  0  0  0  0  0  0  0  0  0
   59.2680   30.5350   48.0280 N   0  0  0  0  0  0  0  0  0  0  0  0
   58.3550   31.0140   48.2100 H   0  0  0  0  0  0  0  0  0  0  0  0
   59.5460   30.7690   47.0470 H   0  0  0  0  0  0  0  0  0  0  0  0
   59.0540   29.0840   48.1770 C   0  0  0  0  0  0  0  0  0  0  0  0
   59.9352   28.6391   48.6624 H   0  0  0  0  0  0  0  0  0  0  0  0
   58.1535   28.9252   48.7885 H   0  0  0  0  0  0  0  0  0  0  0  0
   58.8420   28.4160   46.8200 C   0  0  0  0  0  0  0  0  0  0  0  0
   58.5124   27.3773   46.9701 H   0  0  0  0  0  0  0  0  0  0  0  0
   58.0744   28.9665   46.2563 H   0  0  0  0  0  0  0  0  0  0  0  0
   59.7865   28.4231   46.2563 H   0  0  0  0  0  0  0  0  0  0  0  0
  1  2  1  0
  2  3  2  0
  3  4  1  0
  3  5  1  0
  5  6  1  0
  5  7  2  0
  7  8  1  0
  8  9  1  0
  9 10  2  0
 10 11  1  0
 11 12  1  0
 11 13  1  0
 11 14  1  0
 14 15  1  0
 14 16  1  0
 14 17  1  0
  9 18  1  0
 18 19  1  0
 19 20  2  0
 20 21  1  0
 21 22  1  0
 22 23  1  0
 22 24  1  0
 22 25  1  0
 25 26  1  0
 25 27  1  0
 25 28  1  0
 28 29  1  0
 28 30  1  0
 28 31  1  0
 31 32  1  0
 31 33  1  0
 31 34  1  0
 34 35  1  0
 34 36  1  0
 34 37  1  0
 20  2  1  0
 19  7  1  0
M  CHG  2  18  -1  28   1
M  END
>  <UniqueID>  (33) 
33

>  <SMILES>  (33) 
CC/N=c1\[n-]c2c(OCC[NH2+]CC)cccc2s1

>  <Energy>  (33) 
66.6701789667821

>  <Genealogy>  (33) 
CCN=c1[n-]c2c(OCC[NH2+]CC)cccc2s1 (protonated)
CC/N=c1\[n-]c2c(OCC[NH2+]CC)cccc2s1 (cis-trans isomerization)
CC/N=c1\[n-]c2c(OCC[NH2+]CC)cccc2s1 (3D coordinates assigned)
CC/N=c1\[n-]c2c(OCC[NH2+]CC)cccc2s1 (optimized conformer: 66.6701789667821 kcal/mol)

>  <smiles>  (33) 
CCN=c1[nH]c2c(OCCNCC)cccc2s1

>  <score_type>  (33) 
oracle

>  <origin>  (33) 
adg

>  <m_score__min__energy>  (33) 
-5.1699999999999999

>  <m_primary>  (33) 
energy

$$$$
