0:0
     RDKit          3D

 34 36  0  0  0  0  0  0  0  0999 V2000
   57.0240   21.8950   43.3570 C   0  0  0  0  0  0  0  0  0  0  0  0
   56.5760   23.3530   43.3570 C   0  0  0  0  0  0  0  0  0  0  0  0
   57.2120   24.0910   44.4490 N   0  0  0  0  0  0  0  0  0  0  0  0
   57.3640   25.5240   44.4950 C   0  0  0  0  0  0  0  0  0  0  0  0
   57.7770   26.2040   43.3400 C   0  0  0  0  0  0  0  0  0  0  0  0
   57.9290   27.5930   43.3450 C   0  0  0  0  0  0  0  0  0  0  0  0
   57.6610   28.3370   44.5070 C   0  0  0  0  0  0  0  0  0  0  0  0
   57.8260   29.8120   44.5340 C   0  0  0  0  0  0  0  0  0  0  0  0
   57.9120   30.4540   45.7300 N   0  0  0  0  0  0  0  0  0  0  0  0
   58.0630   31.8000   45.7890 C   0  0  0  0  0  0  0  0  0  0  0  0
   58.1570   32.4580   47.0210 C   0  0  0  0  0  0  0  0  0  0  0  0
   58.3140   33.8490   47.0560 C   0  0  0  0  0  0  0  0  0  0  0  0
   58.3780   34.5800   45.8630 C   0  0  0  0  0  0  0  0  0  0  0  0
   58.2840   33.9230   44.6310 C   0  0  0  0  0  0  0  0  0  0  0  0
   58.1270   32.5340   44.5950 C   0  0  0  0  0  0  0  0  0  0  0  0
   58.0280   31.8700   43.4170 N   0  0  0  0  0  0  0  0  0  0  0  0
   57.8800   30.5450   43.3800 N   0  0  0  0  0  0  0  0  0  0  0  0
   57.2530   27.6560   45.6670 C   0  0  0  0  0  0  0  0  0  0  0  0
   57.0990   26.2670   45.6620 C   0  0  0  0  0  0  0  0  0  0  0  0
   57.1317   21.5445   44.3941 H   0  0  0  0  0  0  0  0  0  0  0  0
   56.2732   21.2807   42.8385 H   0  0  0  0  0  0  0  0  0  0  0  0
   57.9902   21.8083   42.8385 H   0  0  0  0  0  0  0  0  0  0  0  0
   56.8540   23.8159   42.3987 H   0  0  0  0  0  0  0  0  0  0  0  0
   55.4854   23.3872   43.4960 H   0  0  0  0  0  0  0  0  0  0  0  0
   57.5910   23.5270   45.2430 H   0  0  0  0  0  0  0  0  0  0  0  0
   57.9836   25.6376   42.4199 H   0  0  0  0  0  0  0  0  0  0  0  0
   58.2612   28.1086   42.4318 H   0  0  0  0  0  0  0  0  0  0  0  0
   58.1077   31.8844   47.9583 H   0  0  0  0  0  0  0  0  0  0  0  0
   58.3872   34.3688   48.0227 H   0  0  0  0  0  0  0  0  0  0  0  0
   58.5024   35.6725   45.8945 H   0  0  0  0  0  0  0  0  0  0  0  0
   58.3335   34.4973   43.6941 H   0  0  0  0  0  0  0  0  0  0  0  0
   57.7780   30.0870   42.4490 H   0  0  0  0  0  0  0  0  0  0  0  0
   57.0528   28.2224   46.5885 H   0  0  0  0  0  0  0  0  0  0  0  0
   56.7687   25.7506   46.5753 H   0  0  0  0  0  0  0  0  0  0  0  0
  1  2  1  0
  2  3  1  0
  3  4  1  0
  4  5  2  0
  5  6  1  0
  6  7  2  0
  7  8  1  0
  8  9  2  0
  9 10  1  0
 10 11  2  0
 11 12  1  0
 12 13  2  0
 13 14  1  0
 14 15  2  0
 15 16  1  0
 16 17  2  0
  7 18  1  0
 18 19  2  0
 19  4  1  0
 17  8  1  0
 15 10  1  0
  1 20  1  0
  1 21  1  0
  1 22  1  0
  2 23  1  0
  2 24  1  0
  3 25  1  0
  5 26  1  0
  6 27  1  0
 11 28  1  0
 12 29  1  0
 13 30  1  0
 14 31  1  0
 17 32  1  0
 18 33  1  0
 19 34  1  0
M  CHG  1  17   1
M  END
>  <UniqueID>  (1) 
1

>  <SMILES>  (1) 
CCNc1ccc(-c2nc3ccccc3n[nH+]2)cc1

>  <Energy>  (1) 
40.58779658446731

>  <Genealogy>  (1) 
CCNc1ccc(-c2nc3ccccc3n[nH+]2)cc1 (protonated)
CCNc1ccc(-c2nc3ccccc3n[nH+]2)cc1 (3D coordinates assigned)
CCNc1ccc(-c2nc3ccccc3n[nH+]2)cc1 (optimized conformer: 40.58779658446731 kcal/mol)

>  <smiles>  (1) 
CCNc1ccc(-c2nnc3ccccc3n2)cc1

>  <score_type>  (1) 
oracle

>  <origin>  (1) 
adg

>  <m_score__min__energy>  (1) 
-5.4500000000000002

>  <m_primary>  (1) 
energy

$$$$
1:0
     RDKit          3D

 46 48  0  0  0  0  0  0  0  0999 V2000
   57.8170   33.2550   44.3000 C   0  0  0  0  0  0  0  0  0  0  0  0
   57.6330   31.8270   43.7910 C   0  0  0  0  0  0  0  0  0  0  0  0
   56.9580   30.9740   44.7940 N   0  0  0  0  0  0  0  0  0  0  0  0
   55.9820   30.0630   44.1540 C   0  0  0  0  0  0  0  0  0  0  0  0
   56.4180   29.7540   42.7270 C   0  0  0  0  0  0  0  0  0  0  0  0
   58.1160   30.0590   45.7490 S   0  0  0  0  0  0  0  0  0  0  0  0
   57.5420   28.7090   46.0800 O   0  0  0  0  0  0  0  0  0  0  0  0
   59.3690   29.8300   44.9500 O   0  0  0  0  0  0  0  0  0  0  0  0
   58.5520   30.8910   47.2450 C   0  0  0  0  0  0  0  0  0  0  0  0
   58.9480   30.1600   48.3740 C   0  0  0  0  0  0  0  0  0  0  0  0
   59.2850   30.8190   49.5600 C   0  0  0  0  0  0  0  0  0  0  0  0
   59.2290   32.2220   49.6310 C   0  0  0  0  0  0  0  0  0  0  0  0
   59.5970   32.9350   50.8210 N   0  0  0  0  0  0  0  0  0  0  0  0
   58.7980   33.0810   52.0010 C   0  0  0  0  0  0  0  0  0  0  0  0
   59.0180   34.0220   52.8120 O   0  0  0  0  0  0  0  0  0  0  0  0
   57.7460   32.0980   52.2930 C   0  0  0  0  0  0  0  0  0  0  0  0
   57.6800   31.2800   53.4200 C   0  0  0  0  0  0  0  0  0  0  0  0
   56.5100   30.5680   53.2360 C   0  0  0  0  0  0  0  0  0  0  0  0
   55.9250   29.6050   54.0530 C   0  0  0  0  0  0  0  0  0  0  0  0
   54.7120   29.0410   53.6250 C   0  0  0  0  0  0  0  0  0  0  0  0
   54.1270   29.4510   52.4100 C   0  0  0  0  0  0  0  0  0  0  0  0
   54.7640   30.4280   51.6310 C   0  0  0  0  0  0  0  0  0  0  0  0
   55.9350   30.9450   52.0830 N   0  0  0  0  0  0  0  0  0  0  0  0
   56.6740   31.8720   51.5000 N   0  0  0  0  0  0  0  0  0  0  0  0
   58.8720   32.9510   48.4900 C   0  0  0  0  0  0  0  0  0  0  0  0
   58.5250   32.2910   47.3080 C   0  0  0  0  0  0  0  0  0  0  0  0
   57.8170   33.2550   45.4000 H   0  0  0  0  0  0  0  0  0  0  0  0
   58.7740   33.6545   43.9333 H   0  0  0  0  0  0  0  0  0  0  0  0
   56.9925   33.8841   43.9333 H   0  0  0  0  0  0  0  0  0  0  0  0
   57.0247   31.8502   42.8748 H   0  0  0  0  0  0  0  0  0  0  0  0
   58.6278   31.4020   43.5915 H   0  0  0  0  0  0  0  0  0  0  0  0
   55.9258   29.1268   44.7288 H   0  0  0  0  0  0  0  0  0  0  0  0
   54.9945   30.5472   44.1337 H   0  0  0  0  0  0  0  0  0  0  0  0
   57.3153   29.1181   42.7473 H   0  0  0  0  0  0  0  0  0  0  0  0
   55.6074   29.2277   42.2018 H   0  0  0  0  0  0  0  0  0  0  0  0
   56.6460   30.6932   42.2018 H   0  0  0  0  0  0  0  0  0  0  0  0
   58.9938   29.0620   48.3263 H   0  0  0  0  0  0  0  0  0  0  0  0
   59.5951   30.2377   50.4408 H   0  0  0  0  0  0  0  0  0  0  0  0
   58.3907   31.2164   54.2572 H   0  0  0  0  0  0  0  0  0  0  0  0
   56.3951   29.2971   54.9986 H   0  0  0  0  0  0  0  0  0  0  0  0
   54.2164   28.2760   54.2407 H   0  0  0  0  0  0  0  0  0  0  0  0
   53.1775   29.0079   52.0751 H   0  0  0  0  0  0  0  0  0  0  0  0
   54.3267   30.7660   50.6799 H   0  0  0  0  0  0  0  0  0  0  0  0
   56.4450   32.3430   50.5950 H   0  0  0  0  0  0  0  0  0  0  0  0
   58.8646   34.0504   48.5243 H   0  0  0  0  0  0  0  0  0  0  0  0
   58.2292   32.8731   46.4227 H   0  0  0  0  0  0  0  0  0  0  0  0
  1  2  1  0
  2  3  1  0
  3  4  1  0
  4  5  1  0
  3  6  1  0
  6  7  2  0
  6  8  2  0
  6  9  1  0
  9 10  2  0
 10 11  1  0
 11 12  2  0
 12 13  1  0
 13 14  1  0
 14 15  2  0
 14 16  1  0
 16 17  1  0
 17 18  2  0
 18 19  1  0
 19 20  2  0
 20 21  1  0
 21 22  2  0
 22 23  1  0
 23 24  1  0
 12 25  1  0
 25 26  2  0
 26  9  1  0
 24 16  2  0
 23 18  1  0
  1 27  1  0
  1 28  1  0
  1 29  1  0
  2 30  1  0
  2 31  1  0
  4 32  1  0
  4 33  1  0
  5 34  1  0
  5 35  1  0
  5 36  1  0
 10 37  1  0
 11 38  1  0
 17 39  1  0
 19 40  1  0
 20 41  1  0
 21 42  1  0
 22 43  1  0
 24 44  1  0
 25 45  1  0
 26 46  1  0
M  CHG  2  13  -1  24   1
M  END
>  <UniqueID>  (2) 
2

>  <SMILES>  (2) 
CCN(CC)S(=O)(=O)c1ccc([N-]C(=O)c2cc3ccccn3[nH+]2)cc1

>  <Energy>  (2) 
85.19215857848626

>  <Genealogy>  (2) 
CCN(CC)S(=O)(=O)c1ccc([N-]C(=O)c2cc3ccccn3[nH+]2)cc1 (protonated)
CCN(CC)S(=O)(=O)c1ccc([N-]C(=O)c2cc3ccccn3[nH+]2)cc1 (3D coordinates assigned)
CCN(CC)S(=O)(=O)c1ccc([N-]C(=O)c2cc3ccccn3[nH+]2)cc1 (optimized conformer: 85.19215857848626 kcal/mol)

>  <smiles>  (2) 
CCN(CC)S(=O)(=O)c1ccc(NC(=O)c2cc3ccccn3n2)cc1

>  <score_type>  (2) 
oracle

>  <origin>  (2) 
adg

>  <m_score__min__energy>  (2) 
-7.8200000000000003

>  <m_primary>  (2) 
energy

$$$$
2:0
     RDKit          3D

 62 66  0  0  0  0  0  0  0  0999 V2000
   63.8714   33.4243   49.1606 H   0  0  0  0  0  0  0  0  0  0  0  0
   62.7900   33.6060   49.2480 C   0  0  0  0  0  0  0  0  0  0  0  0
   62.1880   33.5820   50.5130 C   0  0  0  0  0  0  0  0  0  0  0  0
   63.0340   33.3420   51.7330 C   0  0  0  0  0  0  0  0  0  0  0  0
   62.4309   33.5131   52.6369 H   0  0  0  0  0  0  0  0  0  0  0  0
   63.3998   32.3046   51.7272 H   0  0  0  0  0  0  0  0  0  0  0  0
   63.8901   34.0327   51.7272 H   0  0  0  0  0  0  0  0  0  0  0  0
   60.8140   33.8500   50.6370 C   0  0  0  0  0  0  0  0  0  0  0  0
   60.2330   33.8500   51.9180 O   0  0  0  0  0  0  0  0  0  0  0  0
   58.8320   33.8390   52.1750 C   0  0  0  0  0  0  0  0  0  0  0  0
   58.6585   33.8376   53.2612 H   0  0  0  0  0  0  0  0  0  0  0  0
   58.3708   34.7336   51.7311 H   0  0  0  0  0  0  0  0  0  0  0  0
   58.3849   32.9373   51.7311 H   0  0  0  0  0  0  0  0  0  0  0  0
   60.0570   34.1160   49.4820 C   0  0  0  0  0  0  0  0  0  0  0  0
   58.9784   34.3103   49.5760 H   0  0  0  0  0  0  0  0  0  0  0  0
   60.6530   34.1380   48.2120 C   0  0  0  0  0  0  0  0  0  0  0  0
   59.5980   34.4570   46.8200 S   0  0  0  0  0  0  0  0  0  0  0  0
   58.1660   34.4390   47.2760 O   0  0  0  0  0  0  0  0  0  0  0  0
   59.8660   35.7980   46.1990 O   0  0  0  0  0  0  0  0  0  0  0  0
   59.8240   33.2000   45.6520 N   0  0  0  0  0  0  0  0  0  0  0  0
   59.6430   31.8280   45.9970 C   0  0  0  0  0  0  0  0  0  0  0  0
   60.5970   31.1590   46.7770 C   0  0  0  0  0  0  0  0  0  0  0  0
   61.5059   31.6868   47.1017 H   0  0  0  0  0  0  0  0  0  0  0  0
   60.3990   29.8250   47.1440 C   0  0  0  0  0  0  0  0  0  0  0  0
   61.1524   29.3058   47.7546 H   0  0  0  0  0  0  0  0  0  0  0  0
   59.2440   29.1490   46.7360 C   0  0  0  0  0  0  0  0  0  0  0  0
   59.0400   27.8540   47.1150 N   0  0  0  0  0  0  0  0  0  0  0  0
   57.9110   27.2140   46.7230 C   0  0  0  0  0  0  0  0  0  0  0  0
   57.4540   25.6420   47.0850 S   0  0  0  0  0  0  0  0  0  0  0  0
   56.0130   25.8150   46.2090 C   0  0  0  0  0  0  0  0  0  0  0  0
   55.1350   24.8630   46.1030 N   0  0  0  0  0  0  0  0  0  0  0  0
   54.9490   23.9990   44.9700 C   0  0  0  0  0  0  0  0  0  0  0  0
   53.9370   23.2490   44.8860 O   0  0  0  0  0  0  0  0  0  0  0  0
   55.9730   23.9800   43.8620 C   0  0  0  0  0  0  0  0  0  0  0  0
   55.9476   24.9559   43.3551 H   0  0  0  0  0  0  0  0  0  0  0  0
   57.4020   23.8160   44.4260 C   0  0  0  0  0  0  0  0  0  0  0  0
   58.1213   24.0839   43.6380 H   0  0  0  0  0  0  0  0  0  0  0  0
   57.4838   24.4748   45.3031 H   0  0  0  0  0  0  0  0  0  0  0  0
   57.7090   22.3810   44.9020 C   0  0  0  0  0  0  0  0  0  0  0  0
   58.8010   22.2512   44.9273 H   0  0  0  0  0  0  0  0  0  0  0  0
   57.2458   22.2687   45.8934 H   0  0  0  0  0  0  0  0  0  0  0  0
   57.1100   21.2790   44.0020 C   0  0  0  0  0  0  0  0  0  0  0  0
   57.8685   20.4968   43.8512 H   0  0  0  0  0  0  0  0  0  0  0  0
   56.2158   20.8861   44.5080 H   0  0  0  0  0  0  0  0  0  0  0  0
   56.6720   21.8080   42.6320 C   0  0  0  0  0  0  0  0  0  0  0  0
   57.5501   22.2091   42.1048 H   0  0  0  0  0  0  0  0  0  0  0  0
   56.2247   20.9783   42.0649 H   0  0  0  0  0  0  0  0  0  0  0  0
   55.6210   22.9220   42.7760 C   0  0  0  0  0  0  0  0  0  0  0  0
   55.5259   23.4364   41.8084 H   0  0  0  0  0  0  0  0  0  0  0  0
   54.6835   22.4398   43.0899 H   0  0  0  0  0  0  0  0  0  0  0  0
   55.8740   27.0450   45.6480 N   0  0  0  0  0  0  0  0  0  0  0  0
   56.9450   27.8210   45.9430 C   0  0  0  0  0  0  0  0  0  0  0  0
   57.1130   29.1410   45.5300 C   0  0  0  0  0  0  0  0  0  0  0  0
   56.3549   29.6380   44.9069 H   0  0  0  0  0  0  0  0  0  0  0  0
   58.2790   29.8230   45.9310 C   0  0  0  0  0  0  0  0  0  0  0  0
   58.4960   31.1570   45.5610 C   0  0  0  0  0  0  0  0  0  0  0  0
   57.7631   31.6772   44.9267 H   0  0  0  0  0  0  0  0  0  0  0  0
   62.0370   33.8580   48.0900 C   0  0  0  0  0  0  0  0  0  0  0  0
   62.7490   33.8710   46.7640 C   0  0  0  0  0  0  0  0  0  0  0  0
   63.8360   33.8908   46.9317 H   0  0  0  0  0  0  0  0  0  0  0  0
   62.4821   32.9678   46.1956 H   0  0  0  0  0  0  0  0  0  0  0  0
   62.4493   34.7638   46.1956 H   0  0  0  0  0  0  0  0  0  0  0  0
  1  2  1  0
  2  3  2  0
  3  4  1  0
  4  5  1  0
  4  6  1  0
  4  7  1  0
  3  8  1  0
  8  9  1  0
  9 10  1  0
 10 11  1  0
 10 12  1  0
 10 13  1  0
  8 14  2  0
 14 15  1  0
 14 16  1  0
 16 17  1  0
 17 18  2  0
 17 19  2  0
 17 20  1  0
 20 21  1  0
 21 22  2  0
 22 23  1  0
 22 24  1  0
 24 25  1  0
 24 26  2  0
 26 27  1  0
 27 28  2  0
 28 29  1  0
 29 30  1  0
 30 31  2  0
 31 32  1  0
 32 33  2  0
 32 34  1  0
 34 35  1  0
 34 36  1  0
 36 37  1  0
 36 38  1  0
 36 39  1  0
 39 40  1  0
 39 41  1  0
 39 42  1  0
 42 43  1  0
 42 44  1  0
 42 45  1  0
 45 46  1  0
 45 47  1  0
 45 48  1  0
 48 49  1  0
 48 50  1  0
 30 51  1  0
 51 52  1  0
 52 53  2  0
 53 54  1  0
 53 55  1  0
 55 56  2  0
 56 57  1  0
 16 58  2  0
 58 59  1  0
 59 60  1  0
 59 61  1  0
 59 62  1  0
 58  2  1  0
 56 21  1  0
 55 26  1  0
 52 28  1  0
 48 34  1  0
M  CHG  2  20  -1  51  -1
M  END
>  <UniqueID>  (3) 
3

>  <SMILES>  (3) 
COc1cc(S(=O)(=O)[N-]c2ccc3nc4s/c(=N/C(=O)C5CCCCC5)[n-]c4cc3c2)c(C)cc1C

>  <Energy>  (3) 
120.5559283392405

>  <Genealogy>  (3) 
COc1cc(S(=O)(=O)[N-]c2ccc3nc4sc(=NC(=O)C5CCCCC5)[n-]c4cc3c2)c(C)cc1C (protonated)
COc1cc(S(=O)(=O)[N-]c2ccc3nc4s/c(=N/C(=O)C5CCCCC5)[n-]c4cc3c2)c(C)cc1C (cis-trans isomerization)
COc1cc(S(=O)(=O)[N-]c2ccc3nc4s/c(=N/C(=O)C5CCCCC5)[n-]c4cc3c2)c(C)cc1C (3D coordinates assigned)
COc1cc(S(=O)(=O)[N-]c2ccc3nc4s/c(=N/C(=O)C5CCCCC5)[n-]c4cc3c2)c(C)cc1C (nonaromatic ring conformer: 120.5559283392405 kcal/mol)

>  <smiles>  (3) 
COc1cc(S(=O)(=O)Nc2ccc3nc4sc(=NC(=O)C5CCCCC5)[nH]c4cc3c2)c(C)cc1C

>  <score_type>  (3) 
oracle

>  <origin>  (3) 
adg

>  <m_score__min__energy>  (3) 
-13.07

>  <m_primary>  (3) 
energy

$$$$
3:0
     RDKit          3D

 54 55  0  0  0  0  0  0  0  0999 V2000
   56.8820   29.1840   43.0340 N   0  0  0  0  0  0  0  0  0  0  0  0
   56.5290   30.1240   44.0510 C   0  0  0  0  0  0  0  0  0  0  0  0
   55.6080   29.8370   44.8630 O   0  0  0  0  0  0  0  0  0  0  0  0
   57.2150   31.4210   44.1710 C   0  0  0  0  0  0  0  0  0  0  0  0
   57.1140   32.3210   45.2150 C   0  0  0  0  0  0  0  0  0  0  0  0
   57.9050   33.3680   44.9250 N   0  0  0  0  0  0  0  0  0  0  0  0
   58.1390   34.5500   45.7520 C   0  0  0  0  0  0  0  0  0  0  0  0
   59.0920   34.2410   46.9150 C   0  0  0  0  0  0  0  0  0  0  0  0
   60.0000   33.0440   46.6050 C   0  0  0  0  0  0  0  0  0  0  0  0
   59.6350   31.8190   47.4580 C   0  0  0  0  0  0  0  0  0  0  0  0
   59.6830   30.5230   46.6300 C   0  0  0  0  0  0  0  0  0  0  0  0
   59.2920   29.2940   47.4720 C   0  0  0  0  0  0  0  0  0  0  0  0
   59.9190   27.9830   46.9660 C   0  0  0  0  0  0  0  0  0  0  0  0
   59.3410   27.4470   45.6360 C   0  0  0  0  0  0  0  0  0  0  0  0
   57.8060   27.5160   45.4880 C   0  0  0  0  0  0  0  0  0  0  0  0
   57.0300   26.9820   46.7020 C   0  0  0  0  0  0  0  0  0  0  0  0
   56.0550   26.0070   46.3340 O   0  0  0  0  0  0  0  0  0  0  0  0
   56.2960   24.8440   45.5850 C   0  0  0  0  0  0  0  0  0  0  0  0
   55.2070   24.2350   44.9500 C   0  0  0  0  0  0  0  0  0  0  0  0
   55.3930   23.1000   44.1550 C   0  0  0  0  0  0  0  0  0  0  0  0
   56.6710   22.5580   43.9970 C   0  0  0  0  0  0  0  0  0  0  0  0
   56.9060   21.1380   42.9930 Cl  0  0  0  0  0  0  0  0  0  0  0  0
   57.7610   23.1480   44.6400 C   0  0  0  0  0  0  0  0  0  0  0  0
   57.5800   24.2830   45.4370 C   0  0  0  0  0  0  0  0  0  0  0  0
   58.4710   33.0870   43.7340 C   0  0  0  0  0  0  0  0  0  0  0  0
   58.0710   31.8970   43.2410 N   0  0  0  0  0  0  0  0  0  0  0  0
   56.3660   28.2800   42.9590 H   0  0  0  0  0  0  0  0  0  0  0  0
   57.6520   29.3710   42.3560 H   0  0  0  0  0  0  0  0  0  0  0  0
   56.4983   32.2020   46.1187 H   0  0  0  0  0  0  0  0  0  0  0  0
   58.5804   35.3413   45.1283 H   0  0  0  0  0  0  0  0  0  0  0  0
   57.1754   34.8750   46.1714 H   0  0  0  0  0  0  0  0  0  0  0  0
   59.7196   35.1241   47.1053 H   0  0  0  0  0  0  0  0  0  0  0  0
   58.4847   33.9900   47.7972 H   0  0  0  0  0  0  0  0  0  0  0  0
   59.8947   32.7824   45.5418 H   0  0  0  0  0  0  0  0  0  0  0  0
   61.0362   33.3293   46.8396 H   0  0  0  0  0  0  0  0  0  0  0  0
   60.3485   31.7378   48.2913 H   0  0  0  0  0  0  0  0  0  0  0  0
   58.6096   31.9519   47.8333 H   0  0  0  0  0  0  0  0  0  0  0  0
   58.9840   30.6135   45.7855 H   0  0  0  0  0  0  0  0  0  0  0  0
   60.7144   30.3811   46.2748 H   0  0  0  0  0  0  0  0  0  0  0  0
   59.6221   29.4615   48.5079 H   0  0  0  0  0  0  0  0  0  0  0  0
   58.2003   29.1824   47.3968 H   0  0  0  0  0  0  0  0  0  0  0  0
   60.9965   28.1535   46.8246 H   0  0  0  0  0  0  0  0  0  0  0  0
   59.6906   27.2220   47.7267 H   0  0  0  0  0  0  0  0  0  0  0  0
   59.7846   28.0315   44.8165 H   0  0  0  0  0  0  0  0  0  0  0  0
   59.5930   26.3765   45.6135 H   0  0  0  0  0  0  0  0  0  0  0  0
   57.5216   28.5671   45.3323 H   0  0  0  0  0  0  0  0  0  0  0  0
   57.5419   26.8716   44.6365 H   0  0  0  0  0  0  0  0  0  0  0  0
   57.7423   26.5231   47.4035 H   0  0  0  0  0  0  0  0  0  0  0  0
   56.5018   27.8293   47.1637 H   0  0  0  0  0  0  0  0  0  0  0  0
   54.1974   24.6526   45.0775 H   0  0  0  0  0  0  0  0  0  0  0  0
   54.5324   22.6333   43.6535 H   0  0  0  0  0  0  0  0  0  0  0  0
   58.7664   22.7183   44.5192 H   0  0  0  0  0  0  0  0  0  0  0  0
   58.4408   24.7381   45.9487 H   0  0  0  0  0  0  0  0  0  0  0  0
   59.1800   33.7539   43.2215 H   0  0  0  0  0  0  0  0  0  0  0  0
  1  2  1  0
  2  3  2  0
  2  4  1  0
  4  5  2  0
  5  6  1  0
  6  7  1  0
  7  8  1  0
  8  9  1  0
  9 10  1  0
 10 11  1  0
 11 12  1  0
 12 13  1  0
 13 14  1  0
 14 15  1  0
 15 16  1  0
 16 17  1  0
 17 18  1  0
 18 19  2  0
 19 20  1  0
 20 21  2  0
 21 22  1  0
 21 23  1  0
 23 24  2  0
  6 25  1  0
 25 26  2  0
 26  4  1  0
 24 18  1  0
  1 27  1  0
  1 28  1  0
  5 29  1  0
  7 30  1  0
  7 31  1  0
  8 32  1  0
  8 33  1  0
  9 34  1  0
  9 35  1  0
 10 36  1  0
 10 37  1  0
 11 38  1  0
 11 39  1  0
 12 40  1  0
 12 41  1  0
 13 42  1  0
 13 43  1  0
 14 44  1  0
 14 45  1  0
 15 46  1  0
 15 47  1  0
 16 48  1  0
 16 49  1  0
 19 50  1  0
 20 51  1  0
 23 52  1  0
 24 53  1  0
 25 54  1  0
M  END
>  <UniqueID>  (4) 
4

>  <SMILES>  (4) 
NC(=O)c1cn(CCCCCCCCCCOc2ccc(Cl)cc2)cn1

>  <Energy>  (4) 
63.09376531349679

>  <Genealogy>  (4) 
NC(=O)c1cn(CCCCCCCCCCOc2ccc(Cl)cc2)cn1 (3D coordinates assigned)
NC(=O)c1cn(CCCCCCCCCCOc2ccc(Cl)cc2)cn1 (optimized conformer: 63.09376531349679 kcal/mol)

>  <smiles>  (4) 
NC(=O)c1cn(CCCCCCCCCCOc2ccc(Cl)cc2)cn1

>  <score_type>  (4) 
oracle

>  <origin>  (4) 
adg

>  <m_score__min__energy>  (4) 
-7.6600000000000001

>  <m_primary>  (4) 
energy

$$$$
4:0
     RDKit          3D

 28 30  0  0  0  0  0  0  0  0999 V2000
   56.7540   34.4190   44.8840 C   0  0  0  0  0  0  0  0  0  0  0  0
   58.0040   34.2090   45.6860 C   0  0  0  0  0  0  0  0  0  0  0  0
   59.2190   34.7660   45.2600 C   0  0  0  0  0  0  0  0  0  0  0  0
   60.3770   34.6000   46.0260 C   0  0  0  0  0  0  0  0  0  0  0  0
   60.3360   33.8940   47.2390 C   0  0  0  0  0  0  0  0  0  0  0  0
   61.5360   33.7210   48.0150 N   0  0  0  0  0  0  0  0  0  0  0  0
   63.0350   33.3110   47.3940 S   0  0  0  0  0  0  0  0  0  0  0  0
   63.8790   33.3020   48.8300 C   0  0  0  0  0  0  0  0  0  0  0  0
   65.1920   33.0420   49.0470 N   0  0  0  0  0  0  0  0  0  0  0  0
   65.6750   33.1030   50.3240 C   0  0  0  0  0  0  0  0  0  0  0  0
   64.8220   33.4340   51.3970 C   0  0  0  0  0  0  0  0  0  0  0  0
   63.4640   33.7050   51.1550 C   0  0  0  0  0  0  0  0  0  0  0  0
   62.9970   33.6320   49.8410 C   0  0  0  0  0  0  0  0  0  0  0  0
   61.6910   33.8680   49.3670 C   0  0  0  0  0  0  0  0  0  0  0  0
   60.7470   34.2190   50.1250 O   0  0  0  0  0  0  0  0  0  0  0  0
   59.1140   33.3420   47.6650 C   0  0  0  0  0  0  0  0  0  0  0  0
   57.9570   33.5070   46.8990 C   0  0  0  0  0  0  0  0  0  0  0  0
   55.9016   34.5622   45.5643 H   0  0  0  0  0  0  0  0  0  0  0  0
   56.8707   35.3101   44.2497 H   0  0  0  0  0  0  0  0  0  0  0  0
   56.5731   33.5387   44.2497 H   0  0  0  0  0  0  0  0  0  0  0  0
   59.2609   35.3355   44.3198 H   0  0  0  0  0  0  0  0  0  0  0  0
   61.3284   35.0263   45.6752 H   0  0  0  0  0  0  0  0  0  0  0  0
   65.8250   32.7990   48.2530 H   0  0  0  0  0  0  0  0  0  0  0  0
   66.7374   32.8923   50.5163 H   0  0  0  0  0  0  0  0  0  0  0  0
   65.2187   33.4801   52.4219 H   0  0  0  0  0  0  0  0  0  0  0  0
   62.7860   33.9681   51.9803 H   0  0  0  0  0  0  0  0  0  0  0  0
   59.0691   32.7767   48.6075 H   0  0  0  0  0  0  0  0  0  0  0  0
   57.0040   33.0839   47.2495 H   0  0  0  0  0  0  0  0  0  0  0  0
  1  2  1  0
  2  3  2  0
  3  4  1  0
  4  5  2  0
  5  6  1  0
  6  7  1  0
  7  8  1  0
  8  9  2  0
  9 10  1  0
 10 11  2  0
 11 12  1  0
 12 13  2  0
 13 14  1  0
 14 15  2  0
  5 16  1  0
 16 17  2  0
 17  2  1  0
 14  6  1  0
 13  8  1  0
  1 18  1  0
  1 19  1  0
  1 20  1  0
  3 21  1  0
  4 22  1  0
  9 23  1  0
 10 24  1  0
 11 25  1  0
 12 26  1  0
 16 27  1  0
 17 28  1  0
M  CHG  1   9   1
M  END
>  <UniqueID>  (5) 
5

>  <SMILES>  (5) 
Cc1ccc(-n2sc3[nH+]cccc3c2=O)cc1

>  <Energy>  (5) 
76.0634151977094

>  <Genealogy>  (5) 
Cc1ccc(-n2sc3[nH+]cccc3c2=O)cc1 (protonated)
Cc1ccc(-n2sc3[nH+]cccc3c2=O)cc1 (3D coordinates assigned)
Cc1ccc(-n2sc3[nH+]cccc3c2=O)cc1 (optimized conformer: 76.0634151977094 kcal/mol)

>  <smiles>  (5) 
Cc1ccc(-n2sc3ncccc3c2=O)cc1

>  <score_type>  (5) 
oracle

>  <origin>  (5) 
adg

>  <m_score__min__energy>  (5) 
-5.29

>  <m_primary>  (5) 
energy

$$$$
5:0
     RDKit          3D

 64 67  0  0  0  0  0  0  0  0999 V2000
   59.0470   32.0490   50.8960 C   0  0  0  0  0  0  0  0  0  0  0  0
   60.4680   32.0210   50.3170 C   0  0  0  0  0  0  0  0  0  0  0  0
   60.5200   31.9180   48.8420 N   0  0  0  0  0  0  0  0  0  0  0  0
   61.7190   31.2090   48.3530 C   0  0  0  0  0  0  0  0  0  0  0  0
   62.9730   31.7520   49.0300 C   0  0  0  0  0  0  0  0  0  0  0  0
   60.3060   33.4710   48.0540 S   0  0  0  0  0  0  0  0  0  0  0  0
   59.6430   34.4390   48.9960 O   0  0  0  0  0  0  0  0  0  0  0  0
   61.6440   34.0380   47.6720 O   0  0  0  0  0  0  0  0  0  0  0  0
   59.3330   33.2970   46.5800 C   0  0  0  0  0  0  0  0  0  0  0  0
   58.8320   32.0290   46.2440 C   0  0  0  0  0  0  0  0  0  0  0  0
   58.0650   31.8360   45.0820 C   0  0  0  0  0  0  0  0  0  0  0  0
   57.5470   30.4920   44.7260 C   0  0  0  0  0  0  0  0  0  0  0  0
   56.3050   30.2780   44.7580 O   0  0  0  0  0  0  0  0  0  0  0  0
   58.4400   29.4490   44.2960 N   0  0  0  0  0  0  0  0  0  0  0  0
   58.0960   28.0520   44.2860 C   0  0  0  0  0  0  0  0  0  0  0  0
   58.0020   27.3790   43.0590 C   0  0  0  0  0  0  0  0  0  0  0  0
   57.6820   26.0210   43.0170 C   0  0  0  0  0  0  0  0  0  0  0  0
   57.4630   25.3150   44.2030 C   0  0  0  0  0  0  0  0  0  0  0  0
   57.1540   23.9970   44.1580 N   0  0  0  0  0  0  0  0  0  0  0  0
   56.9330   23.2760   45.2880 C   0  0  0  0  0  0  0  0  0  0  0  0
   57.0200   23.8800   46.5220 N   0  0  0  0  0  0  0  0  0  0  0  0
   57.3560   25.2100   46.6110 C   0  0  0  0  0  0  0  0  0  0  0  0
   57.4720   25.7630   47.7410 O   0  0  0  0  0  0  0  0  0  0  0  0
   57.5750   25.9650   45.4430 C   0  0  0  0  0  0  0  0  0  0  0  0
   57.9010   27.3340   45.4810 C   0  0  0  0  0  0  0  0  0  0  0  0
   56.7930   23.0770   47.7420 C   0  0  0  0  0  0  0  0  0  0  0  0
   55.3250   22.6370   47.8730 C   0  0  0  0  0  0  0  0  0  0  0  0
   54.9770   21.3370   47.1270 C   0  0  0  0  0  0  0  0  0  0  0  0
   55.1990   21.4090   45.6040 C   0  0  0  0  0  0  0  0  0  0  0  0
   56.6250   21.8030   45.1470 C   0  0  0  0  0  0  0  0  0  0  0  0
   57.7780   32.9410   44.2680 C   0  0  0  0  0  0  0  0  0  0  0  0
   58.2720   34.2060   44.5890 C   0  0  0  0  0  0  0  0  0  0  0  0
   59.0650   34.3980   45.7320 C   0  0  0  0  0  0  0  0  0  0  0  0
   59.5720   35.7820   46.0400 C   0  0  0  0  0  0  0  0  0  0  0  0
   59.0987   32.0480   51.9948 H   0  0  0  0  0  0  0  0  0  0  0  0
   58.5296   32.9575   50.5541 H   0  0  0  0  0  0  0  0  0  0  0  0
   58.4942   31.1616   50.5541 H   0  0  0  0  0  0  0  0  0  0  0  0
   60.9808   32.9469   50.6164 H   0  0  0  0  0  0  0  0  0  0  0  0
   60.9534   31.1174   50.7143 H   0  0  0  0  0  0  0  0  0  0  0  0
   61.6220   30.1365   48.5771 H   0  0  0  0  0  0  0  0  0  0  0  0
   61.8056   31.3629   47.2673 H   0  0  0  0  0  0  0  0  0  0  0  0
   62.8520   31.6996   50.1221 H   0  0  0  0  0  0  0  0  0  0  0  0
   63.8426   31.1498   48.7281 H   0  0  0  0  0  0  0  0  0  0  0  0
   63.1289   32.7982   48.7281 H   0  0  0  0  0  0  0  0  0  0  0  0
   59.0433   31.1725   46.9011 H   0  0  0  0  0  0  0  0  0  0  0  0
   59.3370   29.7320   43.8400 H   0  0  0  0  0  0  0  0  0  0  0  0
   58.1820   27.9261   42.1218 H   0  0  0  0  0  0  0  0  0  0  0  0
   57.6020   25.5055   42.0485 H   0  0  0  0  0  0  0  0  0  0  0  0
   58.0039   27.8453   46.4495 H   0  0  0  0  0  0  0  0  0  0  0  0
   57.4306   22.1815   47.7023 H   0  0  0  0  0  0  0  0  0  0  0  0
   57.0411   23.7016   48.6128 H   0  0  0  0  0  0  0  0  0  0  0  0
   55.1050   22.4893   48.9406 H   0  0  0  0  0  0  0  0  0  0  0  0
   54.7191   23.4319   47.4136 H   0  0  0  0  0  0  0  0  0  0  0  0
   55.6045   20.5285   47.5301 H   0  0  0  0  0  0  0  0  0  0  0  0
   53.9030   21.1583   47.2837 H   0  0  0  0  0  0  0  0  0  0  0  0
   54.9716   20.4185   45.1829 H   0  0  0  0  0  0  0  0  0  0  0  0
   54.5384   22.2116   45.2442 H   0  0  0  0  0  0  0  0  0  0  0  0
   57.3500   21.2390   45.7522 H   0  0  0  0  0  0  0  0  0  0  0  0
   56.6914   21.5662   44.0749 H   0  0  0  0  0  0  0  0  0  0  0  0
   57.1582   32.8096   43.3688 H   0  0  0  0  0  0  0  0  0  0  0  0
   58.0377   35.0623   43.9395 H   0  0  0  0  0  0  0  0  0  0  0  0
   59.6225   35.9198   47.1302 H   0  0  0  0  0  0  0  0  0  0  0  0
   60.5753   35.9097   45.6074 H   0  0  0  0  0  0  0  0  0  0  0  0
   58.8886   36.5275   45.6074 H   0  0  0  0  0  0  0  0  0  0  0  0
  1  2  1  0
  2  3  1  0
  3  4  1  0
  4  5  1  0
  3  6  1  0
  6  7  2  0
  6  8  2  0
  6  9  1  0
  9 10  2  0
 10 11  1  0
 11 12  1  0
 12 13  2  0
 12 14  1  0
 14 15  1  0
 15 16  2  0
 16 17  1  0
 17 18  2  0
 18 19  1  0
 19 20  2  0
 20 21  1  0
 21 22  1  0
 22 23  2  0
 22 24  1  0
 24 25  2  0
 21 26  1  0
 26 27  1  0
 27 28  1  0
 28 29  1  0
 29 30  1  0
 11 31  2  0
 31 32  1  0
 32 33  2  0
 33 34  1  0
 33  9  1  0
 25 15  1  0
 24 18  1  0
 30 20  1  0
  1 35  1  0
  1 36  1  0
  1 37  1  0
  2 38  1  0
  2 39  1  0
  4 40  1  0
  4 41  1  0
  5 42  1  0
  5 43  1  0
  5 44  1  0
 10 45  1  0
 14 46  1  0
 16 47  1  0
 17 48  1  0
 25 49  1  0
 26 50  1  0
 26 51  1  0
 27 52  1  0
 27 53  1  0
 28 54  1  0
 28 55  1  0
 29 56  1  0
 29 57  1  0
 30 58  1  0
 30 59  1  0
 31 60  1  0
 32 61  1  0
 34 62  1  0
 34 63  1  0
 34 64  1  0
M  END
>  <UniqueID>  (6) 
6

>  <SMILES>  (6) 
CCN(CC)S(=O)(=O)c1cc(C(=O)Nc2ccc3nc4n(c(=O)c3c2)CCCCC4)ccc1C

>  <Energy>  (6) 
85.56609848471976

>  <Genealogy>  (6) 
CCN(CC)S(=O)(=O)c1cc(C(=O)Nc2ccc3nc4n(c(=O)c3c2)CCCCC4)ccc1C (3D coordinates assigned)
CCN(CC)S(=O)(=O)c1cc(C(=O)Nc2ccc3nc4n(c(=O)c3c2)CCCCC4)ccc1C (nonaromatic ring conformer: 85.56609848471976 kcal/mol)

>  <smiles>  (6) 
CCN(CC)S(=O)(=O)c1cc(C(=O)Nc2ccc3nc4n(c(=O)c3c2)CCCCC4)ccc1C

>  <score_type>  (6) 
oracle

>  <origin>  (6) 
adg

>  <m_score__min__energy>  (6) 
-8.0299999999999994

>  <m_primary>  (6) 
energy

$$$$
6:0
     RDKit          3D

 26 28  0  0  0  0  0  0  0  0999 V2000
   55.9000   29.7170   43.3730 Cl  0  0  0  0  0  0  0  0  0  0  0  0
   57.1080   30.4380   44.4200 C   0  0  0  0  0  0  0  0  0  0  0  0
   57.2200   31.8270   44.5070 C   0  0  0  0  0  0  0  0  0  0  0  0
   58.1820   32.4050   45.3400 C   0  0  0  0  0  0  0  0  0  0  0  0
   59.0480   31.5970   46.1040 C   0  0  0  0  0  0  0  0  0  0  0  0
   60.0800   32.1990   46.9950 C   0  0  0  0  0  0  0  0  0  0  0  0
   59.7850   33.2830   47.6670 N   0  0  0  0  0  0  0  0  0  0  0  0
   60.6620   33.9730   48.6220 C   0  0  0  0  0  0  0  0  0  0  0  0
   62.0820   33.5940   48.3860 C   0  0  0  0  0  0  0  0  0  0  0  0
   63.1650   34.2100   48.9020 N   0  0  0  0  0  0  0  0  0  0  0  0
   64.1730   33.4140   48.4690 C   0  0  0  0  0  0  0  0  0  0  0  0
   63.7160   32.3700   47.7480 N   0  0  0  0  0  0  0  0  0  0  0  0
   62.4070   32.4980   47.7000 N   0  0  0  0  0  0  0  0  0  0  0  0
   61.4550   31.5590   47.1180 C   0  0  0  0  0  0  0  0  0  0  0  0
   58.9260   30.1960   46.0020 C   0  0  0  0  0  0  0  0  0  0  0  0
   57.9620   29.6230   45.1670 C   0  0  0  0  0  0  0  0  0  0  0  0
   56.5486   32.4688   43.9177 H   0  0  0  0  0  0  0  0  0  0  0  0
   58.2640   33.5003   45.3999 H   0  0  0  0  0  0  0  0  0  0  0  0
   60.5509   35.0602   48.4967 H   0  0  0  0  0  0  0  0  0  0  0  0
   60.3786   33.6807   49.6439 H   0  0  0  0  0  0  0  0  0  0  0  0
   65.2367   33.5976   48.6804 H   0  0  0  0  0  0  0  0  0  0  0  0
   64.2730   31.5930   47.3260 H   0  0  0  0  0  0  0  0  0  0  0  0
   61.8058   31.2608   46.1190 H   0  0  0  0  0  0  0  0  0  0  0  0
   61.3794   30.6784   47.7728 H   0  0  0  0  0  0  0  0  0  0  0  0
   59.5960   29.5473   46.5853 H   0  0  0  0  0  0  0  0  0  0  0  0
   57.8759   28.5285   45.0981 H   0  0  0  0  0  0  0  0  0  0  0  0
  1  2  1  0
  2  3  2  0
  3  4  1  0
  4  5  2  0
  5  6  1  0
  6  7  2  0
  7  8  1  0
  8  9  1  0
  9 10  2  0
 10 11  1  0
 11 12  2  0
 12 13  1  0
 13 14  1  0
  5 15  1  0
 15 16  2  0
 16  2  1  0
 14  6  1  0
 13  9  1  0
  3 17  1  0
  4 18  1  0
  8 19  1  0
  8 20  1  0
 11 21  1  0
 12 22  1  0
 14 23  1  0
 14 24  1  0
 15 25  1  0
 16 26  1  0
M  CHG  1  12   1
M  END
>  <UniqueID>  (7) 
7

>  <SMILES>  (7) 
Clc1ccc(C2=NCc3nc[nH+]n3C2)cc1

>  <Energy>  (7) 
68.98989059743445

>  <Genealogy>  (7) 
Clc1ccc(C2=NCc3nc[nH+]n3C2)cc1 (protonated)
Clc1ccc(C2=NCc3nc[nH+]n3C2)cc1 (3D coordinates assigned)
Clc1ccc(C2=NCc3nc[nH+]n3C2)cc1 (nonaromatic ring conformer: 68.98989059743445 kcal/mol)

>  <smiles>  (7) 
Clc1ccc(C2=NCc3ncnn3C2)cc1

>  <score_type>  (7) 
oracle

>  <origin>  (7) 
adg

>  <m_score__min__energy>  (7) 
-5.0300000000000002

>  <m_primary>  (7) 
energy

$$$$
7:0
     RDKit          3D

 57 59  0  0  0  0  0  0  0  0999 V2000
   63.3240   32.9040   47.4650 C   0  0  0  0  0  0  0  0  0  0  0  0
   62.3470   33.8370   46.7380 C   0  0  0  0  0  0  0  0  0  0  0  0
   60.9670   33.7300   47.2940 N   0  0  0  0  0  0  0  0  0  0  0  0
   60.8480   34.3870   48.6240 C   0  0  0  0  0  0  0  0  0  0  0  0
   60.2680   33.4630   49.6970 C   0  0  0  0  0  0  0  0  0  0  0  0
   59.9320   34.1360   46.2790 C   0  0  2  0  0  0  0  0  0  0  0  0
   59.8350   35.6490   45.9720 C   0  0  0  0  0  0  0  0  0  0  0  0
   58.5410   33.6360   46.7260 C   0  0  0  0  0  0  0  0  0  0  0  0
   58.2300   32.3040   46.1690 N   0  0  0  0  0  0  0  0  0  0  0  0
   58.5030   31.1770   46.9140 C   0  0  0  0  0  0  0  0  0  0  0  0
   59.0260   31.2670   48.0570 O   0  0  0  0  0  0  0  0  0  0  0  0
   58.1740   29.9350   46.3790 C   0  0  0  0  0  0  0  0  0  0  0  0
   57.5810   29.8530   45.1630 C   0  0  0  0  0  0  0  0  0  0  0  0
   57.3090   28.5730   44.8470 N   0  0  0  0  0  0  0  0  0  0  0  0
   57.7660   27.8930   45.9290 C   0  0  0  0  0  0  0  0  0  0  0  0
   57.6090   26.4700   46.0600 N   0  0  0  0  0  0  0  0  0  0  0  0
   57.4690   25.8620   47.3880 C   0  0  0  0  0  0  0  0  0  0  0  0
   56.6450   24.5760   47.2940 C   0  0  0  0  0  0  0  0  0  0  0  0
   55.5970   24.7590   46.3650 O   0  0  0  0  0  0  0  0  0  0  0  0
   56.1070   24.7730   45.0420 C   0  0  0  0  0  0  0  0  0  0  0  0
   57.3680   25.6510   44.8670 C   0  0  0  0  0  0  0  0  0  0  0  0
   58.3210   28.6930   46.8800 N   0  0  0  0  0  0  0  0  0  0  0  0
   58.9400   28.2880   48.1430 C   0  0  0  0  0  0  0  0  0  0  0  0
   57.2940   30.9530   44.4170 N   0  0  0  0  0  0  0  0  0  0  0  0
   56.6670   30.8270   43.0940 C   0  0  0  0  0  0  0  0  0  0  0  0
   57.6450   32.1860   44.9180 C   0  0  0  0  0  0  0  0  0  0  0  0
   57.4140   33.2220   44.2300 O   0  0  0  0  0  0  0  0  0  0  0  0
   63.2021   33.0204   48.5520 H   0  0  0  0  0  0  0  0  0  0  0  0
   63.1149   31.8618   47.1821 H   0  0  0  0  0  0  0  0  0  0  0  0
   64.3555   33.1608   47.1821 H   0  0  0  0  0  0  0  0  0  0  0  0
   62.6962   34.8744   46.8472 H   0  0  0  0  0  0  0  0  0  0  0  0
   62.3144   33.5423   45.6787 H   0  0  0  0  0  0  0  0  0  0  0  0
   61.8485   34.7125   48.9451 H   0  0  0  0  0  0  0  0  0  0  0  0
   60.1569   35.2354   48.5115 H   0  0  0  0  0  0  0  0  0  0  0  0
   60.5156   33.8575   50.6935 H   0  0  0  0  0  0  0  0  0  0  0  0
   59.1750   33.4111   49.5844 H   0  0  0  0  0  0  0  0  0  0  0  0
   60.6964   32.4561   49.5844 H   0  0  0  0  0  0  0  0  0  0  0  0
   60.2693   33.6658   45.3435 H   0  0  0  0  0  0  0  0  0  0  0  0
   59.7988   36.2130   46.9157 H   0  0  0  0  0  0  0  0  0  0  0  0
   60.7149   35.9624   45.3910 H   0  0  0  0  0  0  0  0  0  0  0  0
   58.9223   35.8475   45.3910 H   0  0  0  0  0  0  0  0  0  0  0  0
   58.5206   33.5760   47.8242 H   0  0  0  0  0  0  0  0  0  0  0  0
   57.7875   34.3458   46.3538 H   0  0  0  0  0  0  0  0  0  0  0  0
   58.4666   25.6264   47.7872 H   0  0  0  0  0  0  0  0  0  0  0  0
   56.9561   26.5700   48.0556 H   0  0  0  0  0  0  0  0  0  0  0  0
   57.2905   23.7497   46.9615 H   0  0  0  0  0  0  0  0  0  0  0  0
   56.2239   24.3356   48.2814 H   0  0  0  0  0  0  0  0  0  0  0  0
   56.3609   23.7412   44.7575 H   0  0  0  0  0  0  0  0  0  0  0  0
   55.3242   25.2064   44.4021 H   0  0  0  0  0  0  0  0  0  0  0  0
   58.2382   25.0003   44.6957 H   0  0  0  0  0  0  0  0  0  0  0  0
   57.2120   26.3206   44.0083 H   0  0  0  0  0  0  0  0  0  0  0  0
   58.3462   28.6765   48.9835 H   0  0  0  0  0  0  0  0  0  0  0  0
   58.9778   27.1900   48.1973 H   0  0  0  0  0  0  0  0  0  0  0  0
   59.9612   28.6931   48.1973 H   0  0  0  0  0  0  0  0  0  0  0  0
   55.5951   30.6116   43.2152 H   0  0  0  0  0  0  0  0  0  0  0  0
   56.7913   31.7681   42.5382 H   0  0  0  0  0  0  0  0  0  0  0  0
   57.1452   30.0070   42.5382 H   0  0  0  0  0  0  0  0  0  0  0  0
  1  2  1  0
  2  3  1  0
  3  4  1  0
  4  5  1  0
  3  6  1  0
  6  7  1  0
  6  8  1  0
  8  9  1  0
  9 10  1  0
 10 11  2  0
 10 12  1  0
 12 13  2  0
 13 14  1  0
 14 15  2  0
 15 16  1  0
 16 17  1  0
 17 18  1  0
 18 19  1  0
 19 20  1  0
 20 21  1  0
 15 22  1  0
 22 23  1  0
 13 24  1  0
 24 25  1  0
 24 26  1  0
 26 27  2  0
 26  9  1  0
 22 12  1  0
 21 16  1  0
  1 28  1  0
  1 29  1  0
  1 30  1  0
  2 31  1  0
  2 32  1  0
  4 33  1  0
  4 34  1  0
  5 35  1  0
  5 36  1  0
  5 37  1  0
  6 38  1  6
  7 39  1  0
  7 40  1  0
  7 41  1  0
  8 42  1  0
  8 43  1  0
 17 44  1  0
 17 45  1  0
 18 46  1  0
 18 47  1  0
 20 48  1  0
 20 49  1  0
 21 50  1  0
 21 51  1  0
 23 52  1  0
 23 53  1  0
 23 54  1  0
 25 55  1  0
 25 56  1  0
 25 57  1  0
M  END
>  <UniqueID>  (8) 
8

>  <SMILES>  (8) 
CCN(CC)[C@H](C)Cn1c(=O)c2c(nc(N3CCOCC3)n2C)n(C)c1=O

>  <Energy>  (8) 
122.66585115386594

>  <Genealogy>  (8) 
CCN(CC)[C@H](C)Cn1c(=O)c2c(nc(N3CCOCC3)n2C)n(C)c1=O (chirality)
CCN(CC)[C@H](C)Cn1c(=O)c2c(nc(N3CCOCC3)n2C)n(C)c1=O (3D coordinates assigned)
CCN(CC)[C@H](C)Cn1c(=O)c2c(nc(N3CCOCC3)n2C)n(C)c1=O (nonaromatic ring conformer: 122.66585115386594 kcal/mol)

>  <smiles>  (8) 
CCN(CC)C(C)Cn1c(=O)c2c(nc(N3CCOCC3)n2C)n(C)c1=O

>  <score_type>  (8) 
oracle

>  <origin>  (8) 
adg

>  <m_score__min__energy>  (8) 
-7.04

>  <m_primary>  (8) 
energy

$$$$
8:0
     RDKit          3D

 35 36  0  0  0  0  0  0  0  0999 V2000
   56.2910   29.7250   42.6210 C   0  0  0  0  0  0  0  0  0  0  0  0
   56.3110   29.7510   44.1450 C   0  0  0  0  0  0  0  0  0  0  0  0
   56.2640   31.0930   44.6290 O   0  0  0  0  0  0  0  0  0  0  0  0
   57.3590   31.8240   45.1210 C   0  0  0  0  0  0  0  0  0  0  0  0
   57.3990   33.2000   44.8690 C   0  0  0  0  0  0  0  0  0  0  0  0
   58.4600   33.9780   45.3390 C   0  0  0  0  0  0  0  0  0  0  0  0
   59.4940   33.3960   46.0890 C   0  0  0  0  0  0  0  0  0  0  0  0
   60.6440   34.2450   46.5970 C   0  0  0  0  0  0  0  0  0  0  0  0
   61.6900   33.4800   47.3140 N   0  0  0  0  0  0  0  0  0  0  0  0
   63.0620   33.7550   46.8410 C   0  0  0  0  0  0  0  0  0  0  0  0
   64.0900   33.1960   47.8370 C   0  0  0  0  0  0  0  0  0  0  0  0
   63.9900   33.7510   49.1450 O   0  0  0  0  0  0  0  0  0  0  0  0
   62.6990   34.2590   49.4590 C   0  0  0  0  0  0  0  0  0  0  0  0
   61.5570   33.4790   48.7870 C   0  0  0  0  0  0  0  0  0  0  0  0
   59.4660   32.0110   46.3240 C   0  0  0  0  0  0  0  0  0  0  0  0
   58.4040   31.2320   45.8540 C   0  0  0  0  0  0  0  0  0  0  0  0
   55.6540   28.8969   42.2767 H   0  0  0  0  0  0  0  0  0  0  0  0
   55.8904   30.6773   42.2433 H   0  0  0  0  0  0  0  0  0  0  0  0
   57.3142   29.5820   42.2433 H   0  0  0  0  0  0  0  0  0  0  0  0
   55.4394   29.1991   44.5267 H   0  0  0  0  0  0  0  0  0  0  0  0
   57.2431   29.2825   44.4937 H   0  0  0  0  0  0  0  0  0  0  0  0
   56.5880   33.6731   44.2959 H   0  0  0  0  0  0  0  0  0  0  0  0
   58.4853   35.0556   45.1195 H   0  0  0  0  0  0  0  0  0  0  0  0
   61.1110   34.7450   45.7356 H   0  0  0  0  0  0  0  0  0  0  0  0
   60.2181   34.9552   47.3210 H   0  0  0  0  0  0  0  0  0  0  0  0
   63.2103   33.2790   45.8605 H   0  0  0  0  0  0  0  0  0  0  0  0
   63.2004   34.8429   46.7557 H   0  0  0  0  0  0  0  0  0  0  0  0
   63.9442   32.1082   47.9107 H   0  0  0  0  0  0  0  0  0  0  0  0
   65.0849   33.4648   47.4523 H   0  0  0  0  0  0  0  0  0  0  0  0
   62.5606   34.2102   50.5492 H   0  0  0  0  0  0  0  0  0  0  0  0
   62.6547   35.2909   49.0806 H   0  0  0  0  0  0  0  0  0  0  0  0
   61.5749   32.4395   49.1463 H   0  0  0  0  0  0  0  0  0  0  0  0
   60.6067   33.9682   49.0470 H   0  0  0  0  0  0  0  0  0  0  0  0
   60.2861   31.5357   46.8822 H   0  0  0  0  0  0  0  0  0  0  0  0
   58.3855   30.1513   46.0583 H   0  0  0  0  0  0  0  0  0  0  0  0
  1  2  1  0
  2  3  1  0
  3  4  1  0
  4  5  2  0
  5  6  1  0
  6  7  2  0
  7  8  1  0
  8  9  1  0
  9 10  1  0
 10 11  1  0
 11 12  1  0
 12 13  1  0
 13 14  1  0
  7 15  1  0
 15 16  2  0
 16  4  1  0
 14  9  1  0
  1 17  1  0
  1 18  1  0
  1 19  1  0
  2 20  1  0
  2 21  1  0
  5 22  1  0
  6 23  1  0
  8 24  1  0
  8 25  1  0
 10 26  1  0
 10 27  1  0
 11 28  1  0
 11 29  1  0
 13 30  1  0
 13 31  1  0
 14 32  1  0
 14 33  1  0
 15 34  1  0
 16 35  1  0
M  END
>  <UniqueID>  (9) 
9

>  <SMILES>  (9) 
CCOc1ccc(CN2CCOCC2)cc1

>  <Energy>  (9) 
48.742447703177994

>  <Genealogy>  (9) 
CCOc1ccc(CN2CCOCC2)cc1 (3D coordinates assigned)
CCOc1ccc(CN2CCOCC2)cc1 (nonaromatic ring conformer: 48.742447703177994 kcal/mol)

>  <smiles>  (9) 
CCOc1ccc(CN2CCOCC2)cc1

>  <score_type>  (9) 
oracle

>  <origin>  (9) 
adg

>  <m_score__min__energy>  (9) 
-5.8300000000000001

>  <m_primary>  (9) 
energy

$$$$
9:0
     RDKit          3D

 49 50  0  0  0  0  0  0  0  0999 V2000
   61.9100   33.6040   50.0580 C   0  0  0  0  0  0  0  0  0  0  0  0
   60.5300   33.3390   49.8260 O   0  0  0  0  0  0  0  0  0  0  0  0
   59.8760   33.5440   48.6000 C   0  0  0  0  0  0  0  0  0  0  0  0
   60.2240   34.5990   47.7360 C   0  0  0  0  0  0  0  0  0  0  0  0
   59.5400   34.7810   46.5330 C   0  0  0  0  0  0  0  0  0  0  0  0
   58.4900   33.9240   46.1750 C   0  0  0  0  0  0  0  0  0  0  0  0
   57.7510   34.1240   44.8720 C   0  0  0  0  0  0  0  0  0  0  0  0
   58.1570   33.1170   43.7760 C   0  0  0  0  0  0  0  0  0  0  0  0
   57.4150   31.7660   43.8370 C   0  0  0  0  0  0  0  0  0  0  0  0
   58.3040   30.5050   43.8650 C   0  0  0  0  0  0  0  0  0  0  0  0
   57.5410   29.1640   44.0030 C   0  0  2  0  0  0  0  0  0  0  0  0
   56.5980   29.1330   45.2220 C   0  0  0  0  0  0  0  0  0  0  0  0
   57.2410   28.5280   46.3260 O   0  0  0  0  0  0  0  0  0  0  0  0
   57.5090   27.1480   46.0680 C   0  0  1  0  0  0  0  0  0  0  0  0
   58.6320   26.6920   47.0090 C   0  0  0  0  0  0  0  0  0  0  0  0
   56.2830   26.3280   46.3840 C   0  0  0  0  0  0  0  0  0  0  0  0
   55.1450   26.7110   46.0000 O   0  0  0  0  0  0  0  0  0  0  0  0
   56.3900   25.1770   47.1550 O   0  0  0  0  0  0  0  0  0  0  0  0
   57.8990   26.8820   44.7190 O   0  0  0  0  0  0  0  0  0  0  0  0
   58.5350   28.0000   44.1350 C   0  0  0  0  0  0  0  0  0  0  0  0
   58.1690   32.8470   47.0170 C   0  0  0  0  0  0  0  0  0  0  0  0
   58.8450   32.6630   48.2390 C   0  0  0  0  0  0  0  0  0  0  0  0
   58.5220   31.6180   49.1200 O   0  0  0  0  0  0  0  0  0  0  0  0
   59.1540   30.3430   49.1240 C   0  0  0  0  0  0  0  0  0  0  0  0
   62.0994   33.6404   51.1410 H   0  0  0  0  0  0  0  0  0  0  0  0
   62.5176   32.8061   49.6061 H   0  0  0  0  0  0  0  0  0  0  0  0
   62.1789   34.5702   49.6061 H   0  0  0  0  0  0  0  0  0  0  0  0
   61.0397   35.2841   48.0103 H   0  0  0  0  0  0  0  0  0  0  0  0
   59.8270   35.6031   45.8608 H   0  0  0  0  0  0  0  0  0  0  0  0
   56.6730   34.0161   45.0625 H   0  0  0  0  0  0  0  0  0  0  0  0
   58.0098   35.1274   44.5028 H   0  0  0  0  0  0  0  0  0  0  0  0
   57.9544   33.5756   42.7969 H   0  0  0  0  0  0  0  0  0  0  0  0
   59.2222   32.8946   43.9368 H   0  0  0  0  0  0  0  0  0  0  0  0
   56.7974   31.7623   44.7473 H   0  0  0  0  0  0  0  0  0  0  0  0
   56.8398   31.7018   42.9016 H   0  0  0  0  0  0  0  0  0  0  0  0
   58.8804   30.4739   42.9286 H   0  0  0  0  0  0  0  0  0  0  0  0
   58.9316   30.5934   44.7641 H   0  0  0  0  0  0  0  0  0  0  0  0
   56.9313   29.0624   43.0931 H   0  0  0  0  0  0  0  0  0  0  0  0
   56.3140   30.1621   45.4870 H   0  0  0  0  0  0  0  0  0  0  0  0
   55.7022   28.5483   44.9659 H   0  0  0  0  0  0  0  0  0  0  0  0
   58.3111   26.8223   48.0530 H   0  0  0  0  0  0  0  0  0  0  0  0
   58.8571   25.6312   46.8243 H   0  0  0  0  0  0  0  0  0  0  0  0
   59.5329   27.2956   46.8243 H   0  0  0  0  0  0  0  0  0  0  0  0
   59.3778   28.3116   44.7695 H   0  0  0  0  0  0  0  0  0  0  0  0
   58.9010   27.7242   43.1350 H   0  0  0  0  0  0  0  0  0  0  0  0
   57.3812   32.1395   46.7191 H   0  0  0  0  0  0  0  0  0  0  0  0
   59.3155   30.0171   50.1621 H   0  0  0  0  0  0  0  0  0  0  0  0
   58.5128   29.6143   48.6065 H   0  0  0  0  0  0  0  0  0  0  0  0
   60.1222   30.4121   48.6065 H   0  0  0  0  0  0  0  0  0  0  0  0
  1  2  1  0
  2  3  1  0
  3  4  2  0
  4  5  1  0
  5  6  2  0
  6  7  1  0
  7  8  1  0
  8  9  1  0
  9 10  1  0
 10 11  1  0
 11 12  1  0
 12 13  1  0
 13 14  1  0
 14 15  1  1
 14 16  1  0
 16 17  2  0
 16 18  1  0
 14 19  1  0
 19 20  1  0
  6 21  1  0
 21 22  2  0
 22 23  1  0
 23 24  1  0
 22  3  1  0
 20 11  1  0
  1 25  1  0
  1 26  1  0
  1 27  1  0
  4 28  1  0
  5 29  1  0
  7 30  1  0
  7 31  1  0
  8 32  1  0
  8 33  1  0
  9 34  1  0
  9 35  1  0
 10 36  1  0
 10 37  1  0
 11 38  1  6
 12 39  1  0
 12 40  1  0
 15 41  1  0
 15 42  1  0
 15 43  1  0
 20 44  1  0
 20 45  1  0
 21 46  1  0
 24 47  1  0
 24 48  1  0
 24 49  1  0
M  CHG  1  18  -1
M  END
>  <UniqueID>  (10) 
10

>  <SMILES>  (10) 
COc1ccc(CCCCC2COC(C)(C(=O)[O-])OC2)cc1OC

>  <Energy>  (10) 
51.42024163891022

>  <Genealogy>  (10) 
COc1ccc(CCCCC2COC(C)(C(=O)[O-])OC2)cc1OC (protonated)
COc1ccc(CCCCC2COC(C)(C(=O)[O-])OC2)cc1OC (3D coordinates assigned)
COc1ccc(CCCCC2COC(C)(C(=O)[O-])OC2)cc1OC (nonaromatic ring conformer: 51.42024163891022 kcal/mol)

>  <smiles>  (10) 
COc1ccc(CCCCC2COC(C)(C(=O)O)OC2)cc1OC

>  <score_type>  (10) 
oracle

>  <origin>  (10) 
adg

>  <m_score__min__energy>  (10) 
-9.8100000000000005

>  <m_primary>  (10) 
energy

$$$$
10:0
     RDKit          3D

 35 37  0  0  0  0  0  0  0  0999 V2000
   59.9620   28.4990   48.9780 C   0  0  0  0  0  0  0  0  0  0  0  0
   59.2040   29.2060   47.9000 C   0  0  0  0  0  0  0  0  0  0  0  0
   59.2480   30.6150   47.8110 C   0  0  0  0  0  0  0  0  0  0  0  0
   58.5300   31.2570   46.7860 C   0  0  0  0  0  0  0  0  0  0  0  0
   58.5460   32.6880   46.6480 N   0  0  0  0  0  0  0  0  0  0  0  0
   57.3180   33.4190   46.3120 C   0  0  0  0  0  0  0  0  0  0  0  0
   57.5490   34.3410   45.1040 C   0  0  0  0  0  0  0  0  0  0  0  0
   58.9630   34.9640   45.0650 C   0  0  0  0  0  0  0  0  0  0  0  0
   59.6790   34.8880   46.4190 C   0  0  0  0  0  0  0  0  0  0  0  0
   59.7970   33.4270   46.8780 C   0  0  0  0  0  0  0  0  0  0  0  0
   57.8350   30.4730   45.9190 N   0  0  0  0  0  0  0  0  0  0  0  0
   57.1480   30.8590   44.8570 N   0  0  0  0  0  0  0  0  0  0  0  0
   56.6600   29.7310   44.2880 C   0  0  0  0  0  0  0  0  0  0  0  0
   55.8760   29.7200   43.0180 C   0  0  0  0  0  0  0  0  0  0  0  0
   57.0720   28.6020   44.9920 C   0  0  0  0  0  0  0  0  0  0  0  0
   57.8120   29.1390   46.0170 C   0  0  0  0  0  0  0  0  0  0  0  0
   58.4870   28.4830   46.9890 N   0  0  0  0  0  0  0  0  0  0  0  0
   59.6012   28.8356   49.9611 H   0  0  0  0  0  0  0  0  0  0  0  0
   59.8086   27.4139   48.8829 H   0  0  0  0  0  0  0  0  0  0  0  0
   61.0338   28.7275   48.8829 H   0  0  0  0  0  0  0  0  0  0  0  0
   59.8352   31.2016   48.5328 H   0  0  0  0  0  0  0  0  0  0  0  0
   56.5233   32.6981   46.0695 H   0  0  0  0  0  0  0  0  0  0  0  0
   57.0244   34.0338   47.1756 H   0  0  0  0  0  0  0  0  0  0  0  0
   57.4015   33.7545   44.1852 H   0  0  0  0  0  0  0  0  0  0  0  0
   56.8321   35.1710   45.1889 H   0  0  0  0  0  0  0  0  0  0  0  0
   59.5646   34.4257   44.3178 H   0  0  0  0  0  0  0  0  0  0  0  0
   58.8513   36.0274   44.8067 H   0  0  0  0  0  0  0  0  0  0  0  0
   60.6858   35.3204   46.3219 H   0  0  0  0  0  0  0  0  0  0  0  0
   59.0974   35.4513   47.1636 H   0  0  0  0  0  0  0  0  0  0  0  0
   60.6083   32.9402   46.3168 H   0  0  0  0  0  0  0  0  0  0  0  0
   60.0091   33.4199   47.9573 H   0  0  0  0  0  0  0  0  0  0  0  0
   54.8010   29.7049   43.2508 H   0  0  0  0  0  0  0  0  0  0  0  0
   56.1120   30.6215   42.4336 H   0  0  0  0  0  0  0  0  0  0  0  0
   56.1372   28.8254   42.4336 H   0  0  0  0  0  0  0  0  0  0  0  0
   56.8581   27.5440   44.7800 H   0  0  0  0  0  0  0  0  0  0  0  0
  1  2  1  0
  2  3  1  0
  3  4  2  0
  4  5  1  0
  5  6  1  0
  6  7  1  0
  7  8  1  0
  8  9  1  0
  9 10  1  0
  4 11  1  0
 11 12  1  0
 12 13  2  0
 13 14  1  0
 13 15  1  0
 15 16  2  0
 16 17  1  0
 17  2  2  0
 10  5  1  0
 16 11  1  0
  1 18  1  0
  1 19  1  0
  1 20  1  0
  3 21  1  0
  6 22  1  0
  6 23  1  0
  7 24  1  0
  7 25  1  0
  8 26  1  0
  8 27  1  0
  9 28  1  0
  9 29  1  0
 10 30  1  0
 10 31  1  0
 14 32  1  0
 14 33  1  0
 14 34  1  0
 15 35  1  0
M  END
>  <UniqueID>  (11) 
11

>  <SMILES>  (11) 
Cc1cc(N2CCCCC2)n2nc(C)cc2n1

>  <Energy>  (11) 
74.60026577873163

>  <Genealogy>  (11) 
Cc1cc(N2CCCCC2)n2nc(C)cc2n1 (3D coordinates assigned)
Cc1cc(N2CCCCC2)n2nc(C)cc2n1 (nonaromatic ring conformer: 74.60026577873163 kcal/mol)

>  <smiles>  (11) 
Cc1cc(N2CCCCC2)n2nc(C)cc2n1

>  <score_type>  (11) 
oracle

>  <origin>  (11) 
adg

>  <m_score__min__energy>  (11) 
-6.7400000000000002

>  <m_primary>  (11) 
energy

$$$$
11:0
     RDKit          3D

 43 45  0  0  0  0  0  0  0  0999 V2000
   55.6860   24.6540   45.2610 C   0  0  0  0  0  0  0  0  0  0  0  0
   55.5360   25.9190   45.8960 O   0  0  0  0  0  0  0  0  0  0  0  0
   56.6000   26.7740   46.2190 C   0  0  0  0  0  0  0  0  0  0  0  0
   56.7680   28.0350   45.6180 C   0  0  0  0  0  0  0  0  0  0  0  0
   57.8170   28.8290   45.9700 N   0  0  0  0  0  0  0  0  0  0  0  0
   58.7320   28.4380   46.9030 C   0  0  0  0  0  0  0  0  0  0  0  0
   59.8160   29.3150   47.2660 N   0  0  0  0  0  0  0  0  0  0  0  0
   60.2580   29.3940   48.6670 C   0  0  0  0  0  0  0  0  0  0  0  0
   59.4890   30.4570   49.4720 C   0  0  0  0  0  0  0  0  0  0  0  0
   59.8150   31.9010   49.0430 C   0  0  0  0  0  0  0  0  0  0  0  0
   59.7980   32.0970   47.5780 N   0  0  0  0  0  0  0  0  0  0  0  0
   58.7070   32.7980   46.9400 C   0  0  0  0  0  0  0  0  0  0  0  0
   57.7640   33.2580   47.6410 O   0  0  0  0  0  0  0  0  0  0  0  0
   58.6550   33.0110   45.4500 C   0  0  0  0  0  0  0  0  0  0  0  0
   57.8500   31.9780   44.8070 N   0  0  0  0  0  0  0  0  0  0  0  0
   58.1630   31.2370   43.7310 C   0  0  0  0  0  0  0  0  0  0  0  0
   57.1690   30.3640   43.4830 N   0  0  0  0  0  0  0  0  0  0  0  0
   56.2620   30.5870   44.4260 N   0  0  0  0  0  0  0  0  0  0  0  0
   56.6730   31.5560   45.2300 N   0  0  0  0  0  0  0  0  0  0  0  0
   60.8630   31.5140   46.7430 C   0  0  0  0  0  0  0  0  0  0  0  0
   60.4790   30.1160   46.2250 C   0  0  0  0  0  0  0  0  0  0  0  0
   58.5970   27.1870   47.5220 C   0  0  0  0  0  0  0  0  0  0  0  0
   57.5290   26.3600   47.1780 C   0  0  0  0  0  0  0  0  0  0  0  0
   57.3930   25.1530   47.7800 F   0  0  0  0  0  0  0  0  0  0  0  0
   55.7791   23.8687   46.0256 H   0  0  0  0  0  0  0  0  0  0  0  0
   54.8055   24.4521   44.6333 H   0  0  0  0  0  0  0  0  0  0  0  0
   56.5893   24.6636   44.6333 H   0  0  0  0  0  0  0  0  0  0  0  0
   56.0491   28.3810   44.8607 H   0  0  0  0  0  0  0  0  0  0  0  0
   57.9220   29.7540   45.4970 H   0  0  0  0  0  0  0  0  0  0  0  0
   60.1035   28.4134   49.1409 H   0  0  0  0  0  0  0  0  0  0  0  0
   61.3198   29.6814   48.6653 H   0  0  0  0  0  0  0  0  0  0  0  0
   58.4110   30.2869   49.3343 H   0  0  0  0  0  0  0  0  0  0  0  0
   59.7942   30.3530   50.5237 H   0  0  0  0  0  0  0  0  0  0  0  0
   59.0712   32.5747   49.4934 H   0  0  0  0  0  0  0  0  0  0  0  0
   60.8366   32.1189   49.3876 H   0  0  0  0  0  0  0  0  0  0  0  0
   58.2114   33.9958   45.2417 H   0  0  0  0  0  0  0  0  0  0  0  0
   59.6786   32.9601   45.0505 H   0  0  0  0  0  0  0  0  0  0  0  0
   59.0884   31.3294   43.1436 H   0  0  0  0  0  0  0  0  0  0  0  0
   61.0442   32.1755   45.8830 H   0  0  0  0  0  0  0  0  0  0  0  0
   61.7676   31.4143   47.3609 H   0  0  0  0  0  0  0  0  0  0  0  0
   59.7950   30.2275   45.3708 H   0  0  0  0  0  0  0  0  0  0  0  0
   61.4006   29.5953   45.9256 H   0  0  0  0  0  0  0  0  0  0  0  0
   59.3296   26.8602   48.2746 H   0  0  0  0  0  0  0  0  0  0  0  0
  1  2  1  0
  2  3  1  0
  3  4  2  0
  4  5  1  0
  5  6  2  0
  6  7  1  0
  7  8  1  0
  8  9  1  0
  9 10  1  0
 10 11  1  0
 11 12  1  0
 12 13  2  0
 12 14  1  0
 14 15  1  0
 15 16  1  0
 16 17  2  0
 17 18  1  0
 18 19  2  0
 11 20  1  0
 20 21  1  0
  6 22  1  0
 22 23  2  0
 23 24  1  0
 23  3  1  0
 21  7  1  0
 19 15  1  0
  1 25  1  0
  1 26  1  0
  1 27  1  0
  4 28  1  0
  5 29  1  0
  8 30  1  0
  8 31  1  0
  9 32  1  0
  9 33  1  0
 10 34  1  0
 10 35  1  0
 14 36  1  0
 14 37  1  0
 16 38  1  0
 20 39  1  0
 20 40  1  0
 21 41  1  0
 21 42  1  0
 22 43  1  0
M  CHG  1   5   1
M  END
>  <UniqueID>  (12) 
12

>  <SMILES>  (12) 
COc1c[nH+]c(N2CCCN(C(=O)Cn3cnnn3)CC2)cc1F

>  <Energy>  (12) 
91.35135680338776

>  <Genealogy>  (12) 
COc1c[nH+]c(N2CCCN(C(=O)Cn3cnnn3)CC2)cc1F (protonated)
COc1c[nH+]c(N2CCCN(C(=O)Cn3cnnn3)CC2)cc1F (3D coordinates assigned)
COc1c[nH+]c(N2CCCN(C(=O)Cn3cnnn3)CC2)cc1F (nonaromatic ring conformer: 91.35135680338776 kcal/mol)

>  <smiles>  (12) 
COc1cnc(N2CCCN(C(=O)Cn3cnnn3)CC2)cc1F

>  <score_type>  (12) 
oracle

>  <origin>  (12) 
adg

>  <m_score__min__energy>  (12) 
-3.79

>  <m_primary>  (12) 
energy

$$$$
12:0
     RDKit          3D

 37 39  0  0  0  0  0  0  0  0999 V2000
   55.1470   30.4740   45.2160 H   0  0  0  0  0  0  0  0  0  0  0  0
   56.0260   30.1120   44.7980 N   0  0  0  0  0  0  0  0  0  0  0  0
   57.2300   30.1490   45.3020 C   0  0  0  0  0  0  0  0  0  0  0  0
   57.9480   28.9750   45.6320 C   0  0  0  0  0  0  0  0  0  0  0  0
   57.3830   27.6840   45.4630 C   0  0  0  0  0  0  0  0  0  0  0  0
   56.3644   27.5905   45.0585 H   0  0  0  0  0  0  0  0  0  0  0  0
   58.0900   26.5360   45.7980 C   0  0  0  0  0  0  0  0  0  0  0  0
   57.6327   25.5463   45.6518 H   0  0  0  0  0  0  0  0  0  0  0  0
   59.3680   26.6370   46.3150 C   0  0  0  0  0  0  0  0  0  0  0  0
   59.9227   25.7268   46.5866 H   0  0  0  0  0  0  0  0  0  0  0  0
   59.9550   27.8850   46.4930 C   0  0  0  0  0  0  0  0  0  0  0  0
   60.9711   27.9434   46.9103 H   0  0  0  0  0  0  0  0  0  0  0  0
   59.2770   29.0900   46.1500 C   0  0  0  0  0  0  0  0  0  0  0  0
   59.8680   30.3390   46.3100 N   0  0  0  0  0  0  0  0  0  0  0  0
   61.2920   30.4650   46.7380 C   0  0  0  0  0  0  0  0  0  0  0  0
   61.7959   29.5002   46.5793 H   0  0  0  0  0  0  0  0  0  0  0  0
   61.7545   31.2629   46.1384 H   0  0  0  0  0  0  0  0  0  0  0  0
   61.4240   30.8560   48.2290 C   0  0  0  0  0  0  0  0  0  0  0  0
   60.4120   30.9588   48.6477 H   0  0  0  0  0  0  0  0  0  0  0  0
   62.0107   30.0592   48.7096 H   0  0  0  0  0  0  0  0  0  0  0  0
   62.1820   32.1670   48.4810 C   0  0  0  0  0  0  0  0  0  0  0  0
   61.4501   32.9791   48.6026 H   0  0  0  0  0  0  0  0  0  0  0  0
   62.7913   32.0302   49.3866 H   0  0  0  0  0  0  0  0  0  0  0  0
   63.1290   32.5290   47.3370 C   0  0  0  0  0  0  0  0  0  0  0  0
   64.0812   32.8930   47.7504 H   0  0  0  0  0  0  0  0  0  0  0  0
   63.3144   31.6383   46.7187 H   0  0  0  0  0  0  0  0  0  0  0  0
   62.6730   33.3162   46.7187 H   0  0  0  0  0  0  0  0  0  0  0  0
   59.1420   31.4930   46.0370 C   0  0  0  0  0  0  0  0  0  0  0  0
   59.6800   32.7960   46.2510 C   0  0  0  0  0  0  0  0  0  0  0  0
   60.6973   32.8959   46.6574 H   0  0  0  0  0  0  0  0  0  0  0  0
   58.9490   33.9470   45.9580 C   0  0  0  0  0  0  0  0  0  0  0  0
   59.6500   35.5310   46.2400 Cl  0  0  0  0  0  0  0  0  0  0  0  0
   57.6640   33.8430   45.4460 C   0  0  0  0  0  0  0  0  0  0  0  0
   57.0903   34.7517   45.2111 H   0  0  0  0  0  0  0  0  0  0  0  0
   57.1020   32.5920   45.2300 C   0  0  0  0  0  0  0  0  0  0  0  0
   56.0820   32.5203   44.8245 H   0  0  0  0  0  0  0  0  0  0  0  0
   57.8200   31.4060   45.5230 C   0  0  0  0  0  0  0  0  0  0  0  0
  1  2  1  0
  2  3  2  0
  3  4  1  0
  4  5  2  0
  5  6  1  0
  5  7  1  0
  7  8  1  0
  7  9  2  0
  9 10  1  0
  9 11  1  0
 11 12  1  0
 11 13  2  0
 13 14  1  0
 14 15  1  0
 15 16  1  0
 15 17  1  0
 15 18  1  0
 18 19  1  0
 18 20  1  0
 18 21  1  0
 21 22  1  0
 21 23  1  0
 21 24  1  0
 24 25  1  0
 24 26  1  0
 24 27  1  0
 14 28  1  0
 28 29  2  0
 29 30  1  0
 29 31  1  0
 31 32  1  0
 31 33  2  0
 33 34  1  0
 33 35  1  0
 35 36  1  0
 35 37  2  0
 37  3  1  0
 13  4  1  0
 37 28  1  0
M  END
>  <UniqueID>  (13) 
13

>  <SMILES>  (13) 
[H]/N=c1\c2ccccc2n(CCCC)c2cc(Cl)ccc12

>  <Energy>  (13) 
64.44733906390434

>  <Genealogy>  (13) 
[H]/N=c1\c2ccccc2n(CCCC)c2cc(Cl)ccc12 (cis-trans isomerization)
[H]/N=c1\c2ccccc2n(CCCC)c2cc(Cl)ccc12 (3D coordinates assigned)
[H]/N=c1\c2ccccc2n(CCCC)c2cc(Cl)ccc12 (optimized conformer: 64.44733906390434 kcal/mol)

>  <smiles>  (13) 
CCCCn1c2ccccc2c(=N)c2ccc(Cl)cc21

>  <score_type>  (13) 
oracle

>  <origin>  (13) 
adg

>  <m_score__min__energy>  (13) 
-7.3300000000000001

>  <m_primary>  (13) 
energy

$$$$
13:0
     RDKit          3D

 48 50  0  0  0  0  0  0  0  0999 V2000
   59.5620   31.0150   48.3830 C   0  0  0  0  0  0  0  0  0  0  0  0
   58.5250   31.7920   47.8110 O   0  0  0  0  0  0  0  0  0  0  0  0
   58.6440   32.8180   46.8570 C   0  0  0  0  0  0  0  0  0  0  0  0
   59.4130   33.9460   47.0850 C   0  0  0  0  0  0  0  0  0  0  0  0
   60.0080   34.3660   48.3980 C   0  0  0  0  0  0  0  0  0  0  0  0
   61.4400   33.9090   48.4780 C   0  0  0  0  0  0  0  0  0  0  0  0
   62.1460   34.0020   49.6900 C   0  0  0  0  0  0  0  0  0  0  0  0
   63.4950   33.6370   49.7500 C   0  0  0  0  0  0  0  0  0  0  0  0
   64.1480   33.1800   48.6020 C   0  0  0  0  0  0  0  0  0  0  0  0
   63.4550   33.0890   47.3920 C   0  0  0  0  0  0  0  0  0  0  0  0
   62.1080   33.4550   47.3280 C   0  0  0  0  0  0  0  0  0  0  0  0
   59.3400   34.6720   45.9110 C   0  0  0  0  0  0  0  0  0  0  0  0
   59.8880   36.0390   45.6570 C   0  0  0  0  0  0  0  0  0  0  0  0
   58.5580   34.0080   45.0430 N   0  0  0  0  0  0  0  0  0  0  0  0
   58.1050   32.8960   45.6070 N   0  0  0  0  0  0  0  0  0  0  0  0
   57.2330   31.9640   44.8760 C   0  0  0  0  0  0  0  0  0  0  0  0
   57.8350   30.5830   44.6650 C   0  0  0  0  0  0  0  0  0  0  0  0
   59.1330   30.3620   45.1700 C   0  0  0  0  0  0  0  0  0  0  0  0
   59.7590   29.1230   45.0300 C   0  0  0  0  0  0  0  0  0  0  0  0
   60.9960   28.9270   45.5490 F   0  0  0  0  0  0  0  0  0  0  0  0
   59.1150   28.0890   44.3580 C   0  0  0  0  0  0  0  0  0  0  0  0
   57.8600   28.3020   43.7880 C   0  0  0  0  0  0  0  0  0  0  0  0
   57.2180   29.5490   43.9000 C   0  0  0  0  0  0  0  0  0  0  0  0
   55.8950   29.7150   43.1950 C   0  0  0  0  0  0  0  0  0  0  0  0
   54.7990   29.3610   44.0910 N   0  0  0  0  0  0  0  0  0  0  0  0
   59.4953   31.0650   49.4798 H   0  0  0  0  0  0  0  0  0  0  0  0
   59.4595   29.9695   48.0567 H   0  0  0  0  0  0  0  0  0  0  0  0
   60.5366   31.4071   48.0567 H   0  0  0  0  0  0  0  0  0  0  0  0
   59.9691   35.4620   48.4827 H   0  0  0  0  0  0  0  0  0  0  0  0
   59.4348   33.9104   49.2189 H   0  0  0  0  0  0  0  0  0  0  0  0
   61.6355   34.3633   50.5949 H   0  0  0  0  0  0  0  0  0  0  0  0
   64.0423   33.7097   50.7014 H   0  0  0  0  0  0  0  0  0  0  0  0
   65.2084   32.8917   48.6510 H   0  0  0  0  0  0  0  0  0  0  0  0
   63.9702   32.7290   46.4893 H   0  0  0  0  0  0  0  0  0  0  0  0
   61.5676   33.3874   46.3723 H   0  0  0  0  0  0  0  0  0  0  0  0
   60.0880   36.5380   46.6167 H   0  0  0  0  0  0  0  0  0  0  0  0
   60.8233   35.9584   45.0837 H   0  0  0  0  0  0  0  0  0  0  0  0
   59.1560   36.6268   45.0837 H   0  0  0  0  0  0  0  0  0  0  0  0
   58.3190   34.3290   44.0770 H   0  0  0  0  0  0  0  0  0  0  0  0
   56.2976   31.8496   45.4434 H   0  0  0  0  0  0  0  0  0  0  0  0
   57.0750   32.3962   43.8769 H   0  0  0  0  0  0  0  0  0  0  0  0
   59.6606   31.1798   45.6827 H   0  0  0  0  0  0  0  0  0  0  0  0
   59.5958   27.1030   44.2762 H   0  0  0  0  0  0  0  0  0  0  0  0
   57.3655   27.4841   43.2436 H   0  0  0  0  0  0  0  0  0  0  0  0
   55.7812   30.7621   42.8776 H   0  0  0  0  0  0  0  0  0  0  0  0
   55.8700   29.0520   42.3176 H   0  0  0  0  0  0  0  0  0  0  0  0
   53.9130   29.3360   43.5330 H   0  0  0  0  0  0  0  0  0  0  0  0
   54.6930   30.1370   44.7870 H   0  0  0  0  0  0  0  0  0  0  0  0
  1  2  1  0
  2  3  1  0
  3  4  2  0
  4  5  1  0
  5  6  1  0
  6  7  2  0
  7  8  1  0
  8  9  2  0
  9 10  1  0
 10 11  2  0
  4 12  1  0
 12 13  1  0
 12 14  2  0
 14 15  1  0
 15 16  1  0
 16 17  1  0
 17 18  2  0
 18 19  1  0
 19 20  1  0
 19 21  2  0
 21 22  1  0
 22 23  2  0
 23 24  1  0
 24 25  1  0
 15  3  1  0
 23 17  1  0
 11  6  1  0
  1 26  1  0
  1 27  1  0
  1 28  1  0
  5 29  1  0
  5 30  1  0
  7 31  1  0
  8 32  1  0
  9 33  1  0
 10 34  1  0
 11 35  1  0
 13 36  1  0
 13 37  1  0
 13 38  1  0
 14 39  1  0
 16 40  1  0
 16 41  1  0
 18 42  1  0
 21 43  1  0
 22 44  1  0
 24 45  1  0
 24 46  1  0
 25 47  1  0
 25 48  1  0
M  CHG  1  14   1
M  END
>  <UniqueID>  (14) 
14

>  <SMILES>  (14) 
COc1c(Cc2ccccc2)c(C)[nH+]n1Cc1cc(F)ccc1CN

>  <Energy>  (14) 
82.51354375618574

>  <Genealogy>  (14) 
COc1c(Cc2ccccc2)c(C)[nH+]n1Cc1cc(F)ccc1CN (protonated)
COc1c(Cc2ccccc2)c(C)[nH+]n1Cc1cc(F)ccc1CN (3D coordinates assigned)
COc1c(Cc2ccccc2)c(C)[nH+]n1Cc1cc(F)ccc1CN (optimized conformer: 82.51354375618574 kcal/mol)

>  <smiles>  (14) 
COc1c(Cc2ccccc2)c(C)nn1Cc1cc(F)ccc1CN

>  <score_type>  (14) 
oracle

>  <origin>  (14) 
adg

>  <m_score__min__energy>  (14) 
-6.3799999999999999

>  <m_primary>  (14) 
energy

$$$$
14:0
     RDKit          3D

 32 33  0  0  0  0  0  0  0  0999 V2000
   59.0049   26.6319   43.6057 H   0  0  0  0  0  0  0  0  0  0  0  0
   58.3630   27.0860   44.3750 C   0  0  0  0  0  0  0  0  0  0  0  0
   58.5730   26.7290   45.7560 N   0  0  0  0  0  0  0  0  0  0  0  0
   59.6400   25.7730   46.0560 C   0  0  0  0  0  0  0  0  0  0  0  0
   59.7490   25.6754   47.1462 H   0  0  0  0  0  0  0  0  0  0  0  0
   59.3871   24.7937   45.6236 H   0  0  0  0  0  0  0  0  0  0  0  0
   60.5858   26.1315   45.6236 H   0  0  0  0  0  0  0  0  0  0  0  0
   57.7580   27.2940   46.8370 C   0  0  0  0  0  0  0  0  0  0  0  0
   58.1824   26.9998   47.8083 H   0  0  0  0  0  0  0  0  0  0  0  0
   57.7520   28.3910   46.7567 H   0  0  0  0  0  0  0  0  0  0  0  0
   56.7286   26.9148   46.7567 H   0  0  0  0  0  0  0  0  0  0  0  0
   57.4380   27.9290   44.0060 N   0  0  0  0  0  0  0  0  0  0  0  0
   56.6460   27.6240   43.3990 H   0  0  0  0  0  0  0  0  0  0  0  0
   57.4520   29.3060   44.4060 C   0  0  0  0  0  0  0  0  0  0  0  0
   56.3550   30.0920   44.4760 N   0  0  0  0  0  0  0  0  0  0  0  0
   56.6270   31.3330   44.8780 N   0  0  0  0  0  0  0  0  0  0  0  0
   57.9410   31.5520   45.1250 C   0  0  0  0  0  0  0  0  0  0  0  0
   58.4950   32.8430   45.6110 C   0  0  0  0  0  0  0  0  0  0  0  0
   58.7280   33.8710   44.6770 C   0  0  0  0  0  0  0  0  0  0  0  0
   58.4771   33.7095   43.6182 H   0  0  0  0  0  0  0  0  0  0  0  0
   59.2730   35.0920   45.0770 C   0  0  0  0  0  0  0  0  0  0  0  0
   59.4492   35.8842   44.3345 H   0  0  0  0  0  0  0  0  0  0  0  0
   59.5940   35.3090   46.4140 C   0  0  0  0  0  0  0  0  0  0  0  0
   60.0306   36.2695   46.7251 H   0  0  0  0  0  0  0  0  0  0  0  0
   59.3630   34.3110   47.3590 C   0  0  0  0  0  0  0  0  0  0  0  0
   59.6220   34.4897   48.4130 H   0  0  0  0  0  0  0  0  0  0  0  0
   58.8020   33.0770   46.9800 C   0  0  0  0  0  0  0  0  0  0  0  0
   58.5400   32.0500   48.0500 C   0  0  0  0  0  0  0  0  0  0  0  0
   58.6583   32.5139   49.0403 H   0  0  0  0  0  0  0  0  0  0  0  0
   57.5149   31.6650   47.9456 H   0  0  0  0  0  0  0  0  0  0  0  0
   59.2554   31.2210   47.9456 H   0  0  0  0  0  0  0  0  0  0  0  0
   58.8380   30.1460   44.8540 S   0  0  0  0  0  0  0  0  0  0  0  0
  1  2  1  0
  2  3  1  0
  3  4  1  0
  4  5  1  0
  4  6  1  0
  4  7  1  0
  3  8  1  0
  8  9  1  0
  8 10  1  0
  8 11  1  0
  2 12  2  0
 12 13  1  0
 12 14  1  0
 14 15  2  0
 15 16  1  0
 16 17  2  0
 17 18  1  0
 18 19  2  0
 19 20  1  0
 19 21  1  0
 21 22  1  0
 21 23  2  0
 23 24  1  0
 23 25  1  0
 25 26  1  0
 25 27  2  0
 27 28  1  0
 28 29  1  0
 28 30  1  0
 28 31  1  0
 17 32  1  0
 32 14  1  0
 27 18  1  0
M  CHG  1  12   1
M  END
>  <UniqueID>  (15) 
15

>  <SMILES>  (15) 
Cc1ccccc1-c1nnc(/[NH+]=C/N(C)C)s1

>  <Energy>  (15) 
67.73880118670651

>  <Genealogy>  (15) 
Cc1ccccc1-c1nnc([NH+]=CN(C)C)s1 (protonated)
Cc1ccccc1-c1nnc(/[NH+]=C/N(C)C)s1 (cis-trans isomerization)
Cc1ccccc1-c1nnc(/[NH+]=C/N(C)C)s1 (3D coordinates assigned)
Cc1ccccc1-c1nnc(/[NH+]=C/N(C)C)s1 (optimized conformer: 67.73880118670651 kcal/mol)

>  <smiles>  (15) 
Cc1ccccc1-c1nnc(N=CN(C)C)s1

>  <score_type>  (15) 
oracle

>  <origin>  (15) 
adg

>  <m_score__min__energy>  (15) 
-5.8899999999999997

>  <m_primary>  (15) 
energy

$$$$
15:0
     RDKit          3D

 53 55  0  0  0  0  0  0  0  0999 V2000
   59.1970   28.4680   44.4040 C   0  0  0  0  0  0  0  0  0  0  0  0
   57.7330   28.1600   44.1060 C   0  0  0  0  0  0  0  0  0  0  0  0
   56.7770   29.3000   44.4990 C   0  0  0  0  0  0  0  0  0  0  0  0
   57.2240   30.6470   43.9490 C   0  0  0  0  0  0  0  0  0  0  0  0
   57.0330   30.8300   42.5690 C   0  0  0  0  0  0  0  0  0  0  0  0
   57.3970   32.0280   41.9660 C   0  0  0  0  0  0  0  0  0  0  0  0
   57.2180   32.1900   40.7300 O   0  0  0  0  0  0  0  0  0  0  0  0
   57.9290   33.0020   42.6830 O   0  0  0  0  0  0  0  0  0  0  0  0
   58.1530   32.9000   43.9880 C   0  0  0  0  0  0  0  0  0  0  0  0
   58.7190   33.9960   44.6390 C   0  0  0  0  0  0  0  0  0  0  0  0
   58.9780   33.9540   46.0070 C   0  0  0  0  0  0  0  0  0  0  0  0
   59.6210   35.1240   46.6930 C   0  0  0  0  0  0  0  0  0  0  0  0
   58.7050   32.7860   46.7210 C   0  0  0  0  0  0  0  0  0  0  0  0
   58.1230   31.6620   46.0980 C   0  0  0  0  0  0  0  0  0  0  0  0
   57.8560   30.5060   46.8480 O   0  0  0  0  0  0  0  0  0  0  0  0
   58.8160   29.5590   47.3190 C   0  0  0  0  0  0  0  0  0  0  0  0
   59.9020   30.2510   48.0880 C   0  0  0  0  0  0  0  0  0  0  0  0
   59.8520   30.2630   49.3480 O   0  0  0  0  0  0  0  0  0  0  0  0
   60.9800   30.9000   47.3980 N   0  0  0  0  0  0  0  0  0  0  0  0
   61.9760   31.7140   48.1010 C   0  0  0  0  0  0  0  0  0  0  0  0
   63.0940   32.1550   47.1240 C   0  0  0  0  0  0  0  0  0  0  0  0
   63.7760   33.4790   47.5250 C   0  0  0  0  0  0  0  0  0  0  0  0
   63.7540   33.6930   49.0410 C   0  0  0  0  0  0  0  0  0  0  0  0
   62.3130   33.7590   49.5860 C   0  0  0  0  0  0  0  0  0  0  0  0
   61.3060   32.9330   48.7600 C   0  0  0  0  0  0  0  0  0  0  0  0
   57.8260   31.7090   44.7020 C   0  0  0  0  0  0  0  0  0  0  0  0
   59.3506   28.5003   45.4927 H   0  0  0  0  0  0  0  0  0  0  0  0
   59.8329   27.6840   43.9671 H   0  0  0  0  0  0  0  0  0  0  0  0
   59.4631   29.4418   43.9671 H   0  0  0  0  0  0  0  0  0  0  0  0
   57.6285   27.9735   43.0270 H   0  0  0  0  0  0  0  0  0  0  0  0
   57.4566   27.2819   44.7081 H   0  0  0  0  0  0  0  0  0  0  0  0
   55.7753   29.0725   44.1056 H   0  0  0  0  0  0  0  0  0  0  0  0
   56.7722   29.3706   45.5967 H   0  0  0  0  0  0  0  0  0  0  0  0
   56.5941   30.0227   41.9643 H   0  0  0  0  0  0  0  0  0  0  0  0
   58.9633   34.9028   44.0663 H   0  0  0  0  0  0  0  0  0  0  0  0
   59.5498   34.9944   47.7830 H   0  0  0  0  0  0  0  0  0  0  0  0
   60.6793   35.1849   46.3994 H   0  0  0  0  0  0  0  0  0  0  0  0
   59.1051   36.0501   46.3994 H   0  0  0  0  0  0  0  0  0  0  0  0
   58.9490   32.7410   47.7927 H   0  0  0  0  0  0  0  0  0  0  0  0
   58.3153   28.8313   47.9746 H   0  0  0  0  0  0  0  0  0  0  0  0
   59.2632   29.0456   46.4550 H   0  0  0  0  0  0  0  0  0  0  0  0
   61.0140   30.8370   46.3550 H   0  0  0  0  0  0  0  0  0  0  0  0
   62.4337   31.1066   48.8957 H   0  0  0  0  0  0  0  0  0  0  0  0
   63.8591   31.3654   47.0915 H   0  0  0  0  0  0  0  0  0  0  0  0
   62.6210   32.3189   46.1445 H   0  0  0  0  0  0  0  0  0  0  0  0
   64.8214   33.4589   47.1833 H   0  0  0  0  0  0  0  0  0  0  0  0
   63.2224   34.3051   47.0548 H   0  0  0  0  0  0  0  0  0  0  0  0
   64.2811   32.8585   49.5266 H   0  0  0  0  0  0  0  0  0  0  0  0
   64.2479   34.6513   49.2596 H   0  0  0  0  0  0  0  0  0  0  0  0
   62.3129   33.3778   50.6179 H   0  0  0  0  0  0  0  0  0  0  0  0
   61.9931   34.8100   49.5303 H   0  0  0  0  0  0  0  0  0  0  0  0
   60.5024   32.5825   49.4243 H   0  0  0  0  0  0  0  0  0  0  0  0
   60.9054   33.5770   47.9633 H   0  0  0  0  0  0  0  0  0  0  0  0
  1  2  1  0
  2  3  1  0
  3  4  1  0
  4  5  2  0
  5  6  1  0
  6  7  2  0
  6  8  1  0
  8  9  1  0
  9 10  2  0
 10 11  1  0
 11 12  1  0
 11 13  2  0
 13 14  1  0
 14 15  1  0
 15 16  1  0
 16 17  1  0
 17 18  2  0
 17 19  1  0
 19 20  1  0
 20 21  1  0
 21 22  1  0
 22 23  1  0
 23 24  1  0
 24 25  1  0
 14 26  2  0
 26  4  1  0
 26  9  1  0
 25 20  1  0
  1 27  1  0
  1 28  1  0
  1 29  1  0
  2 30  1  0
  2 31  1  0
  3 32  1  0
  3 33  1  0
  5 34  1  0
 10 35  1  0
 12 36  1  0
 12 37  1  0
 12 38  1  0
 13 39  1  0
 16 40  1  0
 16 41  1  0
 19 42  1  0
 20 43  1  0
 21 44  1  0
 21 45  1  0
 22 46  1  0
 22 47  1  0
 23 48  1  0
 23 49  1  0
 24 50  1  0
 24 51  1  0
 25 52  1  0
 25 53  1  0
M  END
>  <UniqueID>  (16) 
16

>  <SMILES>  (16) 
CCCc1cc(=O)oc2cc(C)cc(OCC(=O)NC3CCCCC3)c12

>  <Energy>  (16) 
59.52444844722382

>  <Genealogy>  (16) 
CCCc1cc(=O)oc2cc(C)cc(OCC(=O)NC3CCCCC3)c12 (3D coordinates assigned)
CCCc1cc(=O)oc2cc(C)cc(OCC(=O)NC3CCCCC3)c12 (nonaromatic ring conformer: 59.52444844722382 kcal/mol)

>  <smiles>  (16) 
CCCc1cc(=O)oc2cc(C)cc(OCC(=O)NC3CCCCC3)c12

>  <score_type>  (16) 
oracle

>  <origin>  (16) 
adg

>  <m_score__min__energy>  (16) 
-8.0500000000000007

>  <m_primary>  (16) 
energy

$$$$
16:0
     RDKit          3D

 30 32  0  0  0  0  0  0  0  0999 V2000
   55.4640   30.3390   44.3430 O   0  0  0  0  0  0  0  0  0  0  0  0
   56.3250   29.4790   44.6730 C   0  0  0  0  0  0  0  0  0  0  0  0
   55.8980   28.3300   45.2470 N   0  0  0  0  0  0  0  0  0  0  0  0
   56.7570   27.3620   45.6330 C   0  0  0  0  0  0  0  0  0  0  0  0
   56.2590   26.1940   46.2230 C   0  0  0  0  0  0  0  0  0  0  0  0
   57.1330   25.1850   46.6260 C   0  0  0  0  0  0  0  0  0  0  0  0
   58.5080   25.3370   46.4430 C   0  0  0  0  0  0  0  0  0  0  0  0
   59.0150   26.5000   45.8540 C   0  0  0  0  0  0  0  0  0  0  0  0
   58.1430   27.5330   45.4380 C   0  0  0  0  0  0  0  0  0  0  0  0
   58.5870   28.7380   44.8340 C   0  0  0  0  0  0  0  0  0  0  0  0
   60.2070   28.9790   44.5840 S   0  0  0  0  0  0  0  0  0  0  0  0
   57.6660   29.7000   44.4580 N   0  0  0  0  0  0  0  0  0  0  0  0
   58.0990   30.9810   43.8450 C   0  0  0  0  0  0  0  0  0  0  0  0
   58.2000   32.0710   44.8840 C   0  0  0  0  0  0  0  0  0  0  0  0
   58.1690   31.7570   46.2530 C   0  0  0  0  0  0  0  0  0  0  0  0
   58.2710   32.7680   47.2140 C   0  0  0  0  0  0  0  0  0  0  0  0
   58.4130   34.1000   46.8160 C   0  0  0  0  0  0  0  0  0  0  0  0
   58.4580   34.4220   45.4560 C   0  0  0  0  0  0  0  0  0  0  0  0
   58.3560   33.4130   44.4930 C   0  0  0  0  0  0  0  0  0  0  0  0
   55.1756   26.0720   46.3690 H   0  0  0  0  0  0  0  0  0  0  0  0
   56.7382   24.2684   47.0886 H   0  0  0  0  0  0  0  0  0  0  0  0
   59.1952   24.5399   46.7629 H   0  0  0  0  0  0  0  0  0  0  0  0
   60.1002   26.6121   45.7133 H   0  0  0  0  0  0  0  0  0  0  0  0
   59.0833   30.8401   43.3746 H   0  0  0  0  0  0  0  0  0  0  0  0
   57.3525   31.2803   43.0945 H   0  0  0  0  0  0  0  0  0  0  0  0
   58.0638   30.7093   46.5711 H   0  0  0  0  0  0  0  0  0  0  0  0
   58.2394   32.5145   48.2839 H   0  0  0  0  0  0  0  0  0  0  0  0
   58.4894   34.8950   47.5724 H   0  0  0  0  0  0  0  0  0  0  0  0
   58.5738   35.4702   45.1432 H   0  0  0  0  0  0  0  0  0  0  0  0
   58.3980   33.6703   43.4243 H   0  0  0  0  0  0  0  0  0  0  0  0
  1  2  2  0
  2  3  1  0
  3  4  1  0
  4  5  2  0
  5  6  1  0
  6  7  2  0
  7  8  1  0
  8  9  2  0
  9 10  1  0
 10 11  2  0
 10 12  1  0
 12 13  1  0
 13 14  1  0
 14 15  2  0
 15 16  1  0
 16 17  2  0
 17 18  1  0
 18 19  2  0
 12  2  1  0
 19 14  1  0
  9  4  1  0
  5 20  1  0
  6 21  1  0
  7 22  1  0
  8 23  1  0
 13 24  1  0
 13 25  1  0
 15 26  1  0
 16 27  1  0
 17 28  1  0
 18 29  1  0
 19 30  1  0
M  CHG  1   3  -1
M  END
>  <UniqueID>  (17) 
17

>  <SMILES>  (17) 
O=c1[n-]c2ccccc2c(=S)n1Cc1ccccc1

>  <Energy>  (17) 
46.00788712673472

>  <Genealogy>  (17) 
O=c1[n-]c2ccccc2c(=S)n1Cc1ccccc1 (protonated)
O=c1[n-]c2ccccc2c(=S)n1Cc1ccccc1 (3D coordinates assigned)
O=c1[n-]c2ccccc2c(=S)n1Cc1ccccc1 (optimized conformer: 46.00788712673472 kcal/mol)

>  <smiles>  (17) 
O=c1[nH]c2ccccc2c(=S)n1Cc1ccccc1

>  <score_type>  (17) 
oracle

>  <origin>  (17) 
adg

>  <m_score__min__energy>  (17) 
-9.1699999999999999

>  <m_primary>  (17) 
energy

$$$$
17:0
     RDKit          3D

 32 34  0  0  0  0  0  0  0  0999 V2000
   55.5270   29.3200   44.8870 O   0  0  0  0  0  0  0  0  0  0  0  0
   56.7820   29.1890   44.9150 C   0  0  0  0  0  0  0  0  0  0  0  0
   57.3520   28.0060   45.4170 C   0  0  0  0  0  0  0  0  0  0  0  0
   56.5720   26.9360   45.8960 C   0  0  0  0  0  0  0  0  0  0  0  0
   57.1910   25.7830   46.3880 C   0  0  0  0  0  0  0  0  0  0  0  0
   58.5850   25.6870   46.4090 C   0  0  0  0  0  0  0  0  0  0  0  0
   59.3680   26.7450   45.9350 C   0  0  0  0  0  0  0  0  0  0  0  0
   58.7560   27.9020   45.4410 C   0  0  0  0  0  0  0  0  0  0  0  0
   59.5130   28.9260   44.9790 N   0  0  0  0  0  0  0  0  0  0  0  0
   58.9470   30.0610   44.4980 C   0  0  0  0  0  0  0  0  0  0  0  0
   57.5860   30.2050   44.4680 N   0  0  0  0  0  0  0  0  0  0  0  0
   57.0010   31.3890   43.9620 N   0  0  0  0  0  0  0  0  0  0  0  0
   57.7790   32.5870   43.6420 C   0  0  0  0  0  0  0  0  0  0  0  0
   58.2190   33.2800   44.9050 C   0  0  0  0  0  0  0  0  0  0  0  0
   59.1340   34.3450   44.8570 C   0  0  0  0  0  0  0  0  0  0  0  0
   59.5530   34.9660   46.0380 C   0  0  0  0  0  0  0  0  0  0  0  0
   59.0620   34.5300   47.2710 C   0  0  0  0  0  0  0  0  0  0  0  0
   58.1510   33.4710   47.3270 C   0  0  0  0  0  0  0  0  0  0  0  0
   57.7300   32.8460   46.1490 C   0  0  0  0  0  0  0  0  0  0  0  0
   55.4744   27.0074   45.8831 H   0  0  0  0  0  0  0  0  0  0  0  0
   56.5785   24.9484   46.7599 H   0  0  0  0  0  0  0  0  0  0  0  0
   59.0672   24.7784   46.7987 H   0  0  0  0  0  0  0  0  0  0  0  0
   60.4651   26.6672   45.9507 H   0  0  0  0  0  0  0  0  0  0  0  0
   59.5885   30.8744   44.1281 H   0  0  0  0  0  0  0  0  0  0  0  0
   55.9600   31.4830   43.9450 H   0  0  0  0  0  0  0  0  0  0  0  0
   58.6660   32.2982   43.0591 H   0  0  0  0  0  0  0  0  0  0  0  0
   57.1505   33.2752   43.0577 H   0  0  0  0  0  0  0  0  0  0  0  0
   59.5220   34.6914   43.8877 H   0  0  0  0  0  0  0  0  0  0  0  0
   60.2702   35.7990   45.9959 H   0  0  0  0  0  0  0  0  0  0  0  0
   59.3924   35.0203   48.1986 H   0  0  0  0  0  0  0  0  0  0  0  0
   57.7650   33.1291   48.2986 H   0  0  0  0  0  0  0  0  0  0  0  0
   57.0140   32.0123   46.1962 H   0  0  0  0  0  0  0  0  0  0  0  0
  1  2  2  0
  2  3  1  0
  3  4  2  0
  4  5  1  0
  5  6  2  0
  6  7  1  0
  7  8  2  0
  8  9  1  0
  9 10  2  0
 10 11  1  0
 11 12  1  0
 12 13  1  0
 13 14  1  0
 14 15  2  0
 15 16  1  0
 16 17  2  0
 17 18  1  0
 18 19  2  0
 11  2  1  0
 19 14  1  0
  8  3  1  0
  4 20  1  0
  5 21  1  0
  6 22  1  0
  7 23  1  0
 10 24  1  0
 12 25  1  0
 13 26  1  0
 13 27  1  0
 15 28  1  0
 16 29  1  0
 17 30  1  0
 18 31  1  0
 19 32  1  0
M  END
>  <UniqueID>  (18) 
18

>  <SMILES>  (18) 
O=c1c2ccccc2ncn1NCc1ccccc1

>  <Energy>  (18) 
41.10570859781757

>  <Genealogy>  (18) 
O=c1c2ccccc2ncn1NCc1ccccc1 (3D coordinates assigned)
O=c1c2ccccc2ncn1NCc1ccccc1 (optimized conformer: 41.10570859781757 kcal/mol)

>  <smiles>  (18) 
O=c1c2ccccc2ncn1NCc1ccccc1

>  <score_type>  (18) 
oracle

>  <origin>  (18) 
adg

>  <m_score__min__energy>  (18) 
-6.8799999999999999

>  <m_primary>  (18) 
energy

$$$$
18:0
     RDKit          3D

 53 55  0  0  0  0  0  0  0  0999 V2000
   63.4980   33.9510   47.6090 C   0  0  0  0  0  0  0  0  0  0  0  0
   62.3650   33.0220   47.2850 C   0  0  0  0  0  0  0  0  0  0  0  0
   61.1370   33.5250   46.8330 C   0  0  0  0  0  0  0  0  0  0  0  0
   60.0820   32.6540   46.5540 C   0  0  0  0  0  0  0  0  0  0  0  0
   60.2380   31.2730   46.7340 C   0  0  0  0  0  0  0  0  0  0  0  0
   58.8990   30.1960   46.3560 S   0  0  0  0  0  0  0  0  0  0  0  0
   58.3390   29.6100   47.6220 O   0  0  0  0  0  0  0  0  0  0  0  0
   57.8250   31.0060   45.6830 O   0  0  0  0  0  0  0  0  0  0  0  0
   59.4830   28.9410   45.2820 N   0  0  0  0  0  0  0  0  0  0  0  0
   60.1030   27.8050   46.0060 C   0  0  0  0  0  0  0  0  0  0  0  0
   59.0810   26.8000   46.5760 C   0  0  0  0  0  0  0  0  0  0  0  0
   58.0660   26.4910   45.5650 N   0  0  0  0  0  0  0  0  0  0  0  0
   57.7360   25.1300   45.2290 C   0  0  0  0  0  0  0  0  0  0  0  0
   56.4350   24.7920   44.8330 C   0  0  0  0  0  0  0  0  0  0  0  0
   56.1210   23.4730   44.4870 C   0  0  0  0  0  0  0  0  0  0  0  0
   57.1020   22.4670   44.5360 C   0  0  0  0  0  0  0  0  0  0  0  0
   56.7470   21.0750   44.1530 C   0  0  0  0  0  0  0  0  0  0  0  0
   56.2720   20.8660   43.0020 O   0  0  0  0  0  0  0  0  0  0  0  0
   56.9280   19.9620   45.0660 N   0  0  0  0  0  0  0  0  0  0  0  0
   55.8670   18.9570   44.8770 C   0  0  0  0  0  0  0  0  0  0  0  0
   56.9330   20.4490   46.4550 C   0  0  0  0  0  0  0  0  0  0  0  0
   58.4000   22.8060   44.9600 C   0  0  0  0  0  0  0  0  0  0  0  0
   58.7120   24.1250   45.3010 C   0  0  0  0  0  0  0  0  0  0  0  0
   57.4040   27.6170   44.9010 C   0  0  0  0  0  0  0  0  0  0  0  0
   58.4740   28.5230   44.2860 C   0  0  0  0  0  0  0  0  0  0  0  0
   61.4610   30.7690   47.2040 C   0  0  0  0  0  0  0  0  0  0  0  0
   62.5170   31.6390   47.4790 C   0  0  0  0  0  0  0  0  0  0  0  0
   63.6017   34.0360   48.7008 H   0  0  0  0  0  0  0  0  0  0  0  0
   64.4309   33.5545   47.1819 H   0  0  0  0  0  0  0  0  0  0  0  0
   63.2920   34.9435   47.1819 H   0  0  0  0  0  0  0  0  0  0  0  0
   61.0043   34.6086   46.6978 H   0  0  0  0  0  0  0  0  0  0  0  0
   59.1236   33.0538   46.1911 H   0  0  0  0  0  0  0  0  0  0  0  0
   60.7652   27.2695   45.3097 H   0  0  0  0  0  0  0  0  0  0  0  0
   60.6482   28.2290   46.8621 H   0  0  0  0  0  0  0  0  0  0  0  0
   59.6015   25.8749   46.8645 H   0  0  0  0  0  0  0  0  0  0  0  0
   58.5916   27.2421   47.4563 H   0  0  0  0  0  0  0  0  0  0  0  0
   55.6562   25.5679   44.7939 H   0  0  0  0  0  0  0  0  0  0  0  0
   55.0971   23.2209   44.1738 H   0  0  0  0  0  0  0  0  0  0  0  0
   57.8360   19.4800   44.8720 H   0  0  0  0  0  0  0  0  0  0  0  0
   55.5064   18.6155   45.8585 H   0  0  0  0  0  0  0  0  0  0  0  0
   55.0336   19.4047   44.3157 H   0  0  0  0  0  0  0  0  0  0  0  0
   56.2689   18.1006   44.3157 H   0  0  0  0  0  0  0  0  0  0  0  0
   56.9242   19.5917   47.1442 H   0  0  0  0  0  0  0  0  0  0  0  0
   57.8374   21.0504   46.6294 H   0  0  0  0  0  0  0  0  0  0  0  0
   56.0412   21.0688   46.6294 H   0  0  0  0  0  0  0  0  0  0  0  0
   59.1746   22.0276   45.0236 H   0  0  0  0  0  0  0  0  0  0  0  0
   59.7314   24.3771   45.6286 H   0  0  0  0  0  0  0  0  0  0  0  0
   56.7385   27.2408   44.1101 H   0  0  0  0  0  0  0  0  0  0  0  0
   56.8075   28.1840   45.6308 H   0  0  0  0  0  0  0  0  0  0  0  0
   58.9793   27.9768   43.4759 H   0  0  0  0  0  0  0  0  0  0  0  0
   57.9765   29.4273   43.9054 H   0  0  0  0  0  0  0  0  0  0  0  0
   61.5872   29.6868   47.3557 H   0  0  0  0  0  0  0  0  0  0  0  0
   63.4728   31.2399   47.8494 H   0  0  0  0  0  0  0  0  0  0  0  0
  1  2  1  0
  2  3  2  0
  3  4  1  0
  4  5  2  0
  5  6  1  0
  6  7  2  0
  6  8  2  0
  6  9  1  0
  9 10  1  0
 10 11  1  0
 11 12  1  0
 12 13  1  0
 13 14  2  0
 14 15  1  0
 15 16  2  0
 16 17  1  0
 17 18  2  0
 17 19  1  0
 19 20  1  0
 19 21  1  0
 16 22  1  0
 22 23  2  0
 12 24  1  0
 24 25  1  0
  5 26  1  0
 26 27  2  0
 27  2  1  0
 25  9  1  0
 23 13  1  0
  1 28  1  0
  1 29  1  0
  1 30  1  0
  3 31  1  0
  4 32  1  0
 10 33  1  0
 10 34  1  0
 11 35  1  0
 11 36  1  0
 14 37  1  0
 15 38  1  0
 19 39  1  0
 20 40  1  0
 20 41  1  0
 20 42  1  0
 21 43  1  0
 21 44  1  0
 21 45  1  0
 22 46  1  0
 23 47  1  0
 24 48  1  0
 24 49  1  0
 25 50  1  0
 25 51  1  0
 26 52  1  0
 27 53  1  0
M  CHG  1  19   1
M  END
>  <UniqueID>  (19) 
19

>  <SMILES>  (19) 
Cc1ccc(S(=O)(=O)N2CCN(c3ccc(C(=O)[NH+](C)C)cc3)CC2)cc1

>  <Energy>  (19) 
64.87738826821605

>  <Genealogy>  (19) 
Cc1ccc(S(=O)(=O)N2CCN(c3ccc(C(=O)[NH+](C)C)cc3)CC2)cc1 (protonated)
Cc1ccc(S(=O)(=O)N2CCN(c3ccc(C(=O)[NH+](C)C)cc3)CC2)cc1 (3D coordinates assigned)
Cc1ccc(S(=O)(=O)N2CCN(c3ccc(C(=O)[NH+](C)C)cc3)CC2)cc1 (nonaromatic ring conformer: 64.87738826821605 kcal/mol)

>  <smiles>  (19) 
Cc1ccc(S(=O)(=O)N2CCN(c3ccc(C(=O)N(C)C)cc3)CC2)cc1

>  <score_type>  (19) 
oracle

>  <origin>  (19) 
adg

>  <m_score__min__energy>  (19) 
-7.2800000000000002

>  <m_primary>  (19) 
energy

$$$$
19:0
     RDKit          3D

 39 41  0  0  0  0  0  0  0  0999 V2000
   55.1590   29.3510   44.8710 O   0  0  0  0  0  0  0  0  0  0  0  0
   56.3280   29.8140   44.7910 C   0  0  0  0  0  0  0  0  0  0  0  0
   56.5420   31.2030   44.5080 N   0  0  0  0  0  0  0  0  0  0  0  0
   57.4500   32.0840   45.1870 C   0  0  0  0  0  0  0  0  0  0  0  0
   57.5900   33.4350   44.8250 C   0  0  0  0  0  0  0  0  0  0  0  0
   58.4700   34.2650   45.5280 C   0  0  0  0  0  0  0  0  0  0  0  0
   59.2230   33.7570   46.6010 C   0  0  0  0  0  0  0  0  0  0  0  0
   60.1130   34.5990   47.3550 N   0  0  0  0  0  0  0  0  0  0  0  0
   61.4380   34.2200   47.7650 C   0  0  0  0  0  0  0  0  0  0  0  0
   61.7640   34.2200   49.1300 C   0  0  0  0  0  0  0  0  0  0  0  0
   63.0390   33.8280   49.5530 C   0  0  0  0  0  0  0  0  0  0  0  0
   63.9910   33.4180   48.6160 C   0  0  0  0  0  0  0  0  0  0  0  0
   63.6690   33.3920   47.2570 C   0  0  0  0  0  0  0  0  0  0  0  0
   62.3960   33.7830   46.8310 C   0  0  0  0  0  0  0  0  0  0  0  0
   59.0440   32.4220   46.9880 C   0  0  0  0  0  0  0  0  0  0  0  0
   58.1640   31.5930   46.2870 C   0  0  0  0  0  0  0  0  0  0  0  0
   57.4640   28.9580   44.9750 N   0  0  0  0  0  0  0  0  0  0  0  0
   57.3920   27.5250   45.0690 C   0  0  0  0  0  0  0  0  0  0  0  0
   57.8080   26.7420   43.9800 C   0  0  0  0  0  0  0  0  0  0  0  0
   57.7260   25.3480   44.0390 C   0  0  0  0  0  0  0  0  0  0  0  0
   57.2140   24.7230   45.1770 C   0  0  0  0  0  0  0  0  0  0  0  0
   56.7750   25.4930   46.2580 C   0  0  0  0  0  0  0  0  0  0  0  0
   56.8560   26.8890   46.2040 C   0  0  0  0  0  0  0  0  0  0  0  0
   57.0057   33.8411   43.9861 H   0  0  0  0  0  0  0  0  0  0  0  0
   58.5733   35.3214   45.2394 H   0  0  0  0  0  0  0  0  0  0  0  0
   59.7730   35.5510   47.6220 H   0  0  0  0  0  0  0  0  0  0  0  0
   61.0130   34.5299   49.8716 H   0  0  0  0  0  0  0  0  0  0  0  0
   63.2919   33.8426   50.6234 H   0  0  0  0  0  0  0  0  0  0  0  0
   64.9948   33.1155   48.9488 H   0  0  0  0  0  0  0  0  0  0  0  0
   64.4178   33.0635   46.5212 H   0  0  0  0  0  0  0  0  0  0  0  0
   62.1421   33.7489   45.7613 H   0  0  0  0  0  0  0  0  0  0  0  0
   59.6001   32.0239   47.8496 H   0  0  0  0  0  0  0  0  0  0  0  0
   58.0313   30.5473   46.6016 H   0  0  0  0  0  0  0  0  0  0  0  0
   58.3880   29.4170   45.1430 H   0  0  0  0  0  0  0  0  0  0  0  0
   58.2008   27.2287   43.0751 H   0  0  0  0  0  0  0  0  0  0  0  0
   58.0659   24.7419   43.1863 H   0  0  0  0  0  0  0  0  0  0  0  0
   57.1560   23.6255   45.2233 H   0  0  0  0  0  0  0  0  0  0  0  0
   56.3653   25.0008   47.1524 H   0  0  0  0  0  0  0  0  0  0  0  0
   56.4992   27.4916   47.0523 H   0  0  0  0  0  0  0  0  0  0  0  0
  1  2  2  0
  2  3  1  0
  3  4  1  0
  4  5  2  0
  5  6  1  0
  6  7  2  0
  7  8  1  0
  8  9  1  0
  9 10  2  0
 10 11  1  0
 11 12  2  0
 12 13  1  0
 13 14  2  0
  7 15  1  0
 15 16  2  0
  2 17  1  0
 17 18  1  0
 18 19  2  0
 19 20  1  0
 20 21  2  0
 21 22  1  0
 22 23  2  0
 16  4  1  0
 23 18  1  0
 14  9  1  0
  5 24  1  0
  6 25  1  0
  8 26  1  0
 10 27  1  0
 11 28  1  0
 12 29  1  0
 13 30  1  0
 14 31  1  0
 15 32  1  0
 16 33  1  0
 17 34  1  0
 19 35  1  0
 20 36  1  0
 21 37  1  0
 22 38  1  0
 23 39  1  0
M  CHG  1   3  -1
M  END
>  <UniqueID>  (20) 
20

>  <SMILES>  (20) 
O=C([N-]c1ccc(Nc2ccccc2)cc1)Nc1ccccc1

>  <Energy>  (20) 
53.86469556831233

>  <Genealogy>  (20) 
O=C([N-]c1ccc(Nc2ccccc2)cc1)Nc1ccccc1 (protonated)
O=C([N-]c1ccc(Nc2ccccc2)cc1)Nc1ccccc1 (3D coordinates assigned)
O=C([N-]c1ccc(Nc2ccccc2)cc1)Nc1ccccc1 (optimized conformer: 53.86469556831233 kcal/mol)

>  <smiles>  (20) 
O=C(Nc1ccccc1)Nc1ccc(Nc2ccccc2)cc1

>  <score_type>  (20) 
oracle

>  <origin>  (20) 
adg

>  <m_score__min__energy>  (20) 
-9.9399999999999995

>  <m_primary>  (20) 
energy

$$$$
20:0
     RDKit          3D

 37 38  0  0  0  0  0  0  0  0999 V2000
   58.7210   26.7270   47.5050 C   0  0  0  0  0  0  0  0  0  0  0  0
   57.8310   27.5840   47.0020 C   0  0  0  0  0  0  0  0  0  0  0  0
   57.4880   27.5740   45.5380 C   0  0  0  0  0  0  0  0  0  0  0  0
   57.5520   28.9370   44.9740 N   0  0  0  0  0  0  0  0  0  0  0  0
   56.3800   29.5690   44.6400 C   0  0  0  0  0  0  0  0  0  0  0  0
   55.1500   28.9570   44.8710 O   0  0  0  0  0  0  0  0  0  0  0  0
   56.3960   30.8360   44.0590 C   0  0  0  0  0  0  0  0  0  0  0  0
   57.6220   31.4430   43.8200 C   0  0  0  0  0  0  0  0  0  0  0  0
   57.6730   32.5810   43.2840 O   0  0  0  0  0  0  0  0  0  0  0  0
   58.7660   30.8080   44.1660 N   0  0  0  0  0  0  0  0  0  0  0  0
   58.7500   29.5810   44.7530 C   0  0  0  0  0  0  0  0  0  0  0  0
   60.3430   28.8480   45.1810 S   0  0  0  0  0  0  0  0  0  0  0  0
   60.4120   29.5390   46.8730 C   0  0  0  0  0  0  0  0  0  0  0  0
   61.1470   30.8490   46.9140 C   0  0  0  0  0  0  0  0  0  0  0  0
   62.3950   30.8200   47.0920 O   0  0  0  0  0  0  0  0  0  0  0  0
   60.4610   32.1600   46.7440 C   0  0  0  0  0  0  0  0  0  0  0  0
   61.1820   33.3700   46.6970 C   0  0  0  0  0  0  0  0  0  0  0  0
   60.5150   34.5890   46.5550 C   0  0  0  0  0  0  0  0  0  0  0  0
   59.1240   34.6220   46.4640 C   0  0  0  0  0  0  0  0  0  0  0  0
   58.3850   33.4340   46.5230 C   0  0  0  0  0  0  0  0  0  0  0  0
   56.8900   33.4650   46.3980 C   0  0  0  0  0  0  0  0  0  0  0  0
   59.0570   32.2070   46.6440 C   0  0  0  0  0  0  0  0  0  0  0  0
   58.9596   26.7488   48.5786 H   0  0  0  0  0  0  0  0  0  0  0  0
   59.2163   25.9986   46.8462 H   0  0  0  0  0  0  0  0  0  0  0  0
   57.3406   28.3090   47.6683 H   0  0  0  0  0  0  0  0  0  0  0  0
   58.2023   26.9294   45.0049 H   0  0  0  0  0  0  0  0  0  0  0  0
   56.4635   27.1915   45.4190 H   0  0  0  0  0  0  0  0  0  0  0  0
   55.4569   31.3445   43.7953 H   0  0  0  0  0  0  0  0  0  0  0  0
   59.3852   29.6959   47.2352 H   0  0  0  0  0  0  0  0  0  0  0  0
   60.9529   28.8246   47.5111 H   0  0  0  0  0  0  0  0  0  0  0  0
   62.2793   33.3543   46.7728 H   0  0  0  0  0  0  0  0  0  0  0  0
   61.0892   35.5264   46.5148 H   0  0  0  0  0  0  0  0  0  0  0  0
   58.6053   35.5847   46.3454 H   0  0  0  0  0  0  0  0  0  0  0  0
   56.4383   33.4744   47.4009 H   0  0  0  0  0  0  0  0  0  0  0  0
   56.5865   34.3696   45.8507 H   0  0  0  0  0  0  0  0  0  0  0  0
   56.5493   32.5737   45.8507 H   0  0  0  0  0  0  0  0  0  0  0  0
   58.4796   31.2709   46.6609 H   0  0  0  0  0  0  0  0  0  0  0  0
  1  2  2  0
  2  3  1  0
  3  4  1  0
  4  5  1  0
  5  6  1  0
  5  7  2  0
  7  8  1  0
  8  9  2  0
  8 10  1  0
 10 11  2  0
 11 12  1  0
 12 13  1  0
 13 14  1  0
 14 15  2  0
 14 16  1  0
 16 17  2  0
 17 18  1  0
 18 19  2  0
 19 20  1  0
 20 21  1  0
 20 22  2  0
 11  4  1  0
 22 16  1  0
  1 23  1  0
  1 24  1  0
  2 25  1  0
  3 26  1  0
  3 27  1  0
  7 28  1  0
 13 29  1  0
 13 30  1  0
 17 31  1  0
 18 32  1  0
 19 33  1  0
 21 34  1  0
 21 35  1  0
 21 36  1  0
 22 37  1  0
M  CHG  1   6  -1
M  END
>  <UniqueID>  (21) 
21

>  <SMILES>  (21) 
C=CCn1c([O-])cc(=O)nc1SCC(=O)c1cccc(C)c1

>  <Energy>  (21) 
34.029655316078106

>  <Genealogy>  (21) 
C=CCn1c([O-])cc(=O)nc1SCC(=O)c1cccc(C)c1 (protonated)
C=CCn1c([O-])cc(=O)nc1SCC(=O)c1cccc(C)c1 (3D coordinates assigned)
C=CCn1c([O-])cc(=O)nc1SCC(=O)c1cccc(C)c1 (optimized conformer: 34.029655316078106 kcal/mol)

>  <smiles>  (21) 
C=CCn1c(O)cc(=O)nc1SCC(=O)c1cccc(C)c1

>  <score_type>  (21) 
oracle

>  <origin>  (21) 
adg

>  <m_score__min__energy>  (21) 
-10.65

>  <m_primary>  (21) 
energy

$$$$
21:0
     RDKit          3D

 30 32  0  0  0  0  0  0  0  0999 V2000
   66.5810   32.4390   50.4950 C   0  0  0  0  0  0  0  0  0  0  0  0
   65.7420   33.3180   49.7540 O   0  0  0  0  0  0  0  0  0  0  0  0
   64.5600   32.9260   49.1070 C   0  0  0  0  0  0  0  0  0  0  0  0
   63.7760   31.9320   49.6990 C   0  0  0  0  0  0  0  0  0  0  0  0
   62.5900   31.5050   49.0950 C   0  0  0  0  0  0  0  0  0  0  0  0
   62.1650   32.0710   47.8790 C   0  0  0  0  0  0  0  0  0  0  0  0
   60.9060   31.6190   47.2350 C   0  0  0  0  0  0  0  0  0  0  0  0
   60.0100   32.5520   46.6840 C   0  0  0  0  0  0  0  0  0  0  0  0
   58.8240   32.1280   46.0780 C   0  0  0  0  0  0  0  0  0  0  0  0
   58.5100   30.7610   46.0090 C   0  0  0  0  0  0  0  0  0  0  0  0
   57.2560   30.3120   45.3670 C   0  0  0  0  0  0  0  0  0  0  0  0
   56.6860   29.1080   45.5660 N   0  0  0  0  0  0  0  0  0  0  0  0
   55.5990   29.1220   44.8120 N   0  0  0  0  0  0  0  0  0  0  0  0
   55.5080   30.2810   44.1800 N   0  0  0  0  0  0  0  0  0  0  0  0
   56.5320   31.0510   44.5050 N   0  0  0  0  0  0  0  0  0  0  0  0
   59.4020   29.8260   46.5580 C   0  0  0  0  0  0  0  0  0  0  0  0
   60.5890   30.2510   47.1640 C   0  0  0  0  0  0  0  0  0  0  0  0
   62.9550   33.0700   47.2840 C   0  0  0  0  0  0  0  0  0  0  0  0
   64.1410   33.4960   47.8900 C   0  0  0  0  0  0  0  0  0  0  0  0
   66.4243   32.6031   51.5713 H   0  0  0  0  0  0  0  0  0  0  0  0
   66.3339   31.3971   50.2432 H   0  0  0  0  0  0  0  0  0  0  0  0
   67.6333   32.6374   50.2432 H   0  0  0  0  0  0  0  0  0  0  0  0
   64.0956   31.4810   50.6501 H   0  0  0  0  0  0  0  0  0  0  0  0
   61.9847   30.7211   49.5736 H   0  0  0  0  0  0  0  0  0  0  0  0
   60.2446   33.6257   46.7303 H   0  0  0  0  0  0  0  0  0  0  0  0
   58.1322   32.8698   45.6524 H   0  0  0  0  0  0  0  0  0  0  0  0
   59.1660   28.7526   46.5113 H   0  0  0  0  0  0  0  0  0  0  0  0
   61.2805   29.5084   47.5887 H   0  0  0  0  0  0  0  0  0  0  0  0
   62.6371   33.5210   46.3324 H   0  0  0  0  0  0  0  0  0  0  0  0
   64.7489   34.2795   47.4139 H   0  0  0  0  0  0  0  0  0  0  0  0
  1  2  1  0
  2  3  1  0
  3  4  2  0
  4  5  1  0
  5  6  2  0
  6  7  1  0
  7  8  2  0
  8  9  1  0
  9 10  2  0
 10 11  1  0
 11 12  1  0
 12 13  2  0
 13 14  1  0
 14 15  1  0
 10 16  1  0
 16 17  2  0
  6 18  1  0
 18 19  2  0
 19  3  1  0
 17  7  1  0
 15 11  2  0
  1 20  1  0
  1 21  1  0
  1 22  1  0
  4 23  1  0
  5 24  1  0
  8 25  1  0
  9 26  1  0
 16 27  1  0
 17 28  1  0
 18 29  1  0
 19 30  1  0
M  CHG  1  14  -1
M  END
>  <UniqueID>  (22) 
22

>  <SMILES>  (22) 
COc1ccc(-c2ccc(-c3nn[n-]n3)cc2)cc1

>  <Energy>  (22) 
75.94587096431596

>  <Genealogy>  (22) 
COc1ccc(-c2ccc(-c3nn[n-]n3)cc2)cc1 (protonated)
COc1ccc(-c2ccc(-c3nn[n-]n3)cc2)cc1 (3D coordinates assigned)
COc1ccc(-c2ccc(-c3nn[n-]n3)cc2)cc1 (optimized conformer: 75.94587096431596 kcal/mol)

>  <smiles>  (22) 
COc1ccc(-c2ccc(-c3nn[nH]n3)cc2)cc1

>  <score_type>  (22) 
oracle

>  <origin>  (22) 
adg

>  <m_score__min__energy>  (22) 
-8.5

>  <m_primary>  (22) 
energy

$$$$
22:0
     RDKit          3D

 24 24  0  0  0  0  0  0  0  0999 V2000
   58.9420   34.4820   45.6820 C   0  0  0  0  0  0  0  0  0  0  0  0
   59.1030   33.5410   44.6440 O   0  0  0  0  0  0  0  0  0  0  0  0
   57.8450   33.1520   44.1150 C   0  0  1  0  0  0  0  0  0  0  0  0
   58.0830   32.2890   42.8590 C   0  0  0  0  0  0  0  0  0  0  0  0
   57.0140   31.2100   42.7080 C   0  0  0  0  0  0  0  0  0  0  0  0
   57.0180   30.2660   43.9250 C   0  0  0  0  0  0  0  0  0  0  0  0
   57.2830   30.9460   45.2190 N   0  0  0  0  0  0  0  0  0  0  0  0
   58.6100   30.6230   45.7680 C   0  0  0  0  0  0  0  0  0  0  0  0
   57.0240   32.4000   45.1960 C   0  0  0  0  0  0  0  0  0  0  0  0
   59.0289   33.9743   46.6539 H   0  0  0  0  0  0  0  0  0  0  0  0
   59.7211   35.2543   45.6009 H   0  0  0  0  0  0  0  0  0  0  0  0
   57.9505   34.9514   45.6009 H   0  0  0  0  0  0  0  0  0  0  0  0
   57.2581   34.0351   43.8225 H   0  0  0  0  0  0  0  0  0  0  0  0
   58.0632   32.9379   41.9710 H   0  0  0  0  0  0  0  0  0  0  0  0
   59.0598   31.7937   42.9618 H   0  0  0  0  0  0  0  0  0  0  0  0
   56.0270   31.6885   42.6254 H   0  0  0  0  0  0  0  0  0  0  0  0
   57.2299   30.6222   41.8036 H   0  0  0  0  0  0  0  0  0  0  0  0
   56.0344   29.7775   43.9865 H   0  0  0  0  0  0  0  0  0  0  0  0
   57.8386   29.5504   43.7687 H   0  0  0  0  0  0  0  0  0  0  0  0
   58.5647   30.6340   46.8670 H   0  0  0  0  0  0  0  0  0  0  0  0
   58.9161   29.6241   45.4236 H   0  0  0  0  0  0  0  0  0  0  0  0
   59.3409   31.3695   45.4236 H   0  0  0  0  0  0  0  0  0  0  0  0
   55.9542   32.5611   44.9970 H   0  0  0  0  0  0  0  0  0  0  0  0
   57.3282   32.8009   46.1741 H   0  0  0  0  0  0  0  0  0  0  0  0
  1  2  1  0
  2  3  1  0
  3  4  1  0
  4  5  1  0
  5  6  1  0
  6  7  1  0
  7  8  1  0
  7  9  1  0
  9  3  1  0
  1 10  1  0
  1 11  1  0
  1 12  1  0
  3 13  1  6
  4 14  1  0
  4 15  1  0
  5 16  1  0
  5 17  1  0
  6 18  1  0
  6 19  1  0
  8 20  1  0
  8 21  1  0
  8 22  1  0
  9 23  1  0
  9 24  1  0
M  END
>  <UniqueID>  (23) 
23

>  <SMILES>  (23) 
CO[C@H]1CCCN(C)C1

>  <Energy>  (23) 
31.628656361597606

>  <Genealogy>  (23) 
CO[C@H]1CCCN(C)C1 (chirality)
CO[C@H]1CCCN(C)C1 (3D coordinates assigned)
CO[C@H]1CCCN(C)C1 (nonaromatic ring conformer: 31.628656361597606 kcal/mol)

>  <smiles>  (23) 
COC1CCCN(C)C1

>  <score_type>  (23) 
oracle

>  <origin>  (23) 
adg

>  <m_score__min__energy>  (23) 
-4.1200000000000001

>  <m_primary>  (23) 
energy

$$$$
23:0
     RDKit          3D

 40 42  0  0  0  0  0  0  0  0999 V2000
   56.2780   29.7310   42.6570 C   0  0  0  0  0  0  0  0  0  0  0  0
   56.2000   29.7030   44.1800 C   0  0  0  0  0  0  0  0  0  0  0  0
   56.3080   31.0150   44.7010 O   0  0  0  0  0  0  0  0  0  0  0  0
   57.6200   31.5080   44.5310 C   0  0  0  0  0  0  0  0  0  0  0  0
   57.5740   33.0320   44.4530 C   0  0  0  0  0  0  0  0  0  0  0  0
   58.6010   33.6120   45.3140 N   0  0  0  0  0  0  0  0  0  0  0  0
   59.2520   32.9750   46.3040 C   0  0  0  0  0  0  0  0  0  0  0  0
   60.0850   33.8870   46.9270 C   0  0  0  0  0  0  0  0  0  0  0  0
   60.9770   33.6650   48.0940 C   0  0  0  0  0  0  0  0  0  0  0  0
   62.3430   33.4690   47.8820 C   0  0  0  0  0  0  0  0  0  0  0  0
   63.1980   33.2690   48.9570 C   0  0  0  0  0  0  0  0  0  0  0  0
   64.5270   33.0840   48.7440 N   0  0  0  0  0  0  0  0  0  0  0  0
   65.3840   32.8890   49.7760 C   0  0  0  0  0  0  0  0  0  0  0  0
   64.8960   32.8770   51.0800 C   0  0  0  0  0  0  0  0  0  0  0  0
   63.5680   33.0620   51.3070 N   0  0  0  0  0  0  0  0  0  0  0  0
   62.6870   33.2620   50.2730 C   0  0  0  0  0  0  0  0  0  0  0  0
   61.3360   33.4510   50.4870 N   0  0  0  0  0  0  0  0  0  0  0  0
   60.8010   33.4450   51.8620 C   0  0  0  0  0  0  0  0  0  0  0  0
   60.4850   33.6380   49.4180 C   0  0  0  0  0  0  0  0  0  0  0  0
   59.2440   33.7680   49.6140 O   0  0  0  0  0  0  0  0  0  0  0  0
   59.8640   35.0800   46.2560 C   0  0  0  0  0  0  0  0  0  0  0  0
   58.9550   34.8860   45.2810 N   0  0  0  0  0  0  0  0  0  0  0  0
   57.2714   30.0876   42.3472 H   0  0  0  0  0  0  0  0  0  0  0  0
   56.1129   28.7175   42.2627 H   0  0  0  0  0  0  0  0  0  0  0  0
   55.5060   30.4081   42.2627 H   0  0  0  0  0  0  0  0  0  0  0  0
   55.2368   29.2689   44.4862 H   0  0  0  0  0  0  0  0  0  0  0  0
   57.0285   29.0935   44.5699 H   0  0  0  0  0  0  0  0  0  0  0  0
   58.2424   31.2013   45.3846 H   0  0  0  0  0  0  0  0  0  0  0  0
   58.0516   31.1020   43.6042 H   0  0  0  0  0  0  0  0  0  0  0  0
   57.7497   33.3482   43.4142 H   0  0  0  0  0  0  0  0  0  0  0  0
   56.5858   33.3790   44.7891 H   0  0  0  0  0  0  0  0  0  0  0  0
   59.1412   31.9138   46.5715 H   0  0  0  0  0  0  0  0  0  0  0  0
   62.7438   33.4731   46.8576 H   0  0  0  0  0  0  0  0  0  0  0  0
   66.4571   32.7413   49.5847 H   0  0  0  0  0  0  0  0  0  0  0  0
   65.5829   32.7183   51.9244 H   0  0  0  0  0  0  0  0  0  0  0  0
   63.2550   33.0420   52.3020 H   0  0  0  0  0  0  0  0  0  0  0  0
   61.6345   33.4543   52.5798 H   0  0  0  0  0  0  0  0  0  0  0  0
   60.1747   34.3362   52.0157 H   0  0  0  0  0  0  0  0  0  0  0  0
   60.1949   32.5400   52.0157 H   0  0  0  0  0  0  0  0  0  0  0  0
   60.3552   36.0373   46.4846 H   0  0  0  0  0  0  0  0  0  0  0  0
  1  2  1  0
  2  3  1  0
  3  4  1  0
  4  5  1  0
  5  6  1  0
  6  7  1  0
  7  8  2  0
  8  9  1  0
  9 10  2  0
 10 11  1  0
 11 12  2  0
 12 13  1  0
 13 14  2  0
 14 15  1  0
 15 16  2  0
 16 17  1  0
 17 18  1  0
 17 19  1  0
 19 20  2  0
  8 21  1  0
 21 22  2  0
 22  6  1  0
 19  9  1  0
 16 11  1  0
  1 23  1  0
  1 24  1  0
  1 25  1  0
  2 26  1  0
  2 27  1  0
  4 28  1  0
  4 29  1  0
  5 30  1  0
  5 31  1  0
  7 32  1  0
 10 33  1  0
 13 34  1  0
 14 35  1  0
 15 36  1  0
 18 37  1  0
 18 38  1  0
 18 39  1  0
 21 40  1  0
M  CHG  1  15   1
M  END
>  <UniqueID>  (24) 
24

>  <SMILES>  (24) 
CCOCCn1cc(-c2cc3ncc[nH+]c3n(C)c2=O)cn1

>  <Energy>  (24) 
82.59439936728738

>  <Genealogy>  (24) 
CCOCCn1cc(-c2cc3ncc[nH+]c3n(C)c2=O)cn1 (protonated)
CCOCCn1cc(-c2cc3ncc[nH+]c3n(C)c2=O)cn1 (3D coordinates assigned)
CCOCCn1cc(-c2cc3ncc[nH+]c3n(C)c2=O)cn1 (optimized conformer: 82.59439936728738 kcal/mol)

>  <smiles>  (24) 
CCOCCn1cc(-c2cc3nccnc3n(C)c2=O)cn1

>  <score_type>  (24) 
oracle

>  <origin>  (24) 
adg

>  <m_score__min__energy>  (24) 
-5.4000000000000004

>  <m_primary>  (24) 
energy

$$$$
24:0
     RDKit          3D

 48 51  0  0  0  0  0  0  0  0999 V2000
   54.3150   24.1520   45.4180 C   0  0  0  0  0  0  0  0  0  0  0  0
   54.7120   25.4340   45.8950 O   0  0  0  0  0  0  0  0  0  0  0  0
   56.0400   25.8120   46.1410 C   0  0  0  0  0  0  0  0  0  0  0  0
   56.9280   25.0090   46.8840 C   0  0  0  0  0  0  0  0  0  0  0  0
   58.2430   25.4290   47.1010 C   0  0  0  0  0  0  0  0  0  0  0  0
   58.6970   26.6490   46.5680 C   0  0  0  0  0  0  0  0  0  0  0  0
   60.0050   27.1110   46.7770 O   0  0  0  0  0  0  0  0  0  0  0  0
   60.3590   28.4270   47.1070 C   0  0  0  0  0  0  0  0  0  0  0  0
   60.7600   29.3550   46.1310 C   0  0  0  0  0  0  0  0  0  0  0  0
   61.0830   30.6580   46.5140 C   0  0  0  0  0  0  0  0  0  0  0  0
   60.9960   31.0340   47.8580 C   0  0  0  0  0  0  0  0  0  0  0  0
   61.3810   32.6860   48.3360 S   0  0  0  0  0  0  0  0  0  0  0  0
   62.1640   32.6770   49.6210 O   0  0  0  0  0  0  0  0  0  0  0  0
   62.2390   33.2990   47.2650 O   0  0  0  0  0  0  0  0  0  0  0  0
   59.9160   33.6310   48.5120 N   0  0  0  0  0  0  0  0  0  0  0  0
   60.0040   34.9600   47.8770 C   0  0  0  0  0  0  0  0  0  0  0  0
   60.1140   34.8810   46.3490 C   0  0  0  0  0  0  0  0  0  0  0  0
   59.1670   33.8710   45.7570 C   0  0  0  0  0  0  0  0  0  0  0  0
   58.9560   33.8640   44.3690 C   0  0  0  0  0  0  0  0  0  0  0  0
   58.1280   32.9010   43.7870 C   0  0  0  0  0  0  0  0  0  0  0  0
   57.5100   31.9360   44.5830 C   0  0  0  0  0  0  0  0  0  0  0  0
   57.7220   31.9270   45.9630 C   0  0  0  0  0  0  0  0  0  0  0  0
   58.5640   32.8790   46.5590 C   0  0  0  0  0  0  0  0  0  0  0  0
   58.7280   32.8850   48.0610 C   0  0  0  0  0  0  0  0  0  0  0  0
   60.5710   30.0880   48.7990 C   0  0  0  0  0  0  0  0  0  0  0  0
   60.2630   28.8250   48.4050 N   0  0  0  0  0  0  0  0  0  0  0  0
   57.8070   27.4520   45.8470 C   0  0  0  0  0  0  0  0  0  0  0  0
   56.4910   27.0340   45.6310 C   0  0  0  0  0  0  0  0  0  0  0  0
   54.1101   23.4902   46.2724 H   0  0  0  0  0  0  0  0  0  0  0  0
   53.4062   24.2535   44.8066 H   0  0  0  0  0  0  0  0  0  0  0  0
   55.1221   23.7222   44.8066 H   0  0  0  0  0  0  0  0  0  0  0  0
   56.5848   24.0480   47.2947 H   0  0  0  0  0  0  0  0  0  0  0  0
   58.9269   24.8021   47.6919 H   0  0  0  0  0  0  0  0  0  0  0  0
   60.8189   29.0571   45.0737 H   0  0  0  0  0  0  0  0  0  0  0  0
   61.4060   31.3891   45.7583 H   0  0  0  0  0  0  0  0  0  0  0  0
   59.1018   35.5338   48.1355 H   0  0  0  0  0  0  0  0  0  0  0  0
   60.9171   35.4465   48.2507 H   0  0  0  0  0  0  0  0  0  0  0  0
   59.8845   35.8704   45.9266 H   0  0  0  0  0  0  0  0  0  0  0  0
   61.1384   34.5653   46.1023 H   0  0  0  0  0  0  0  0  0  0  0  0
   59.4448   34.6201   43.7370 H   0  0  0  0  0  0  0  0  0  0  0  0
   57.9630   32.9035   42.6994 H   0  0  0  0  0  0  0  0  0  0  0  0
   56.8550   31.1815   44.1228 H   0  0  0  0  0  0  0  0  0  0  0  0
   57.2261   31.1691   46.5872 H   0  0  0  0  0  0  0  0  0  0  0  0
   57.8350   33.3459   48.5084 H   0  0  0  0  0  0  0  0  0  0  0  0
   58.8574   31.8402   48.3800 H   0  0  0  0  0  0  0  0  0  0  0  0
   60.4864   30.3682   49.8593 H   0  0  0  0  0  0  0  0  0  0  0  0
   58.1453   28.4193   45.4472 H   0  0  0  0  0  0  0  0  0  0  0  0
   55.8040   27.6714   45.0550 H   0  0  0  0  0  0  0  0  0  0  0  0
  1  2  1  0
  2  3  1  0
  3  4  2  0
  4  5  1  0
  5  6  2  0
  6  7  1  0
  7  8  1  0
  8  9  2  0
  9 10  1  0
 10 11  2  0
 11 12  1  0
 12 13  2  0
 12 14  2  0
 12 15  1  0
 15 16  1  0
 16 17  1  0
 17 18  1  0
 18 19  2  0
 19 20  1  0
 20 21  2  0
 21 22  1  0
 22 23  2  0
 23 24  1  0
 11 25  1  0
 25 26  2  0
  6 27  1  0
 27 28  2  0
 28  3  1  0
 26  8  1  0
 24 15  1  0
 23 18  1  0
  1 29  1  0
  1 30  1  0
  1 31  1  0
  4 32  1  0
  5 33  1  0
  9 34  1  0
 10 35  1  0
 16 36  1  0
 16 37  1  0
 17 38  1  0
 17 39  1  0
 19 40  1  0
 20 41  1  0
 21 42  1  0
 22 43  1  0
 24 44  1  0
 24 45  1  0
 25 46  1  0
 27 47  1  0
 28 48  1  0
M  END
>  <UniqueID>  (25) 
25

>  <SMILES>  (25) 
COc1ccc(Oc2ccc(S(=O)(=O)N3CCc4ccccc4C3)cn2)cc1

>  <Energy>  (25) 
63.234901877937055

>  <Genealogy>  (25) 
COc1ccc(Oc2ccc(S(=O)(=O)N3CCc4ccccc4C3)cn2)cc1 (3D coordinates assigned)
COc1ccc(Oc2ccc(S(=O)(=O)N3CCc4ccccc4C3)cn2)cc1 (nonaromatic ring conformer: 63.234901877937055 kcal/mol)

>  <smiles>  (25) 
COc1ccc(Oc2ccc(S(=O)(=O)N3CCc4ccccc4C3)cn2)cc1

>  <score_type>  (25) 
oracle

>  <origin>  (25) 
adg

>  <m_score__min__energy>  (25) 
-8.4600000000000009

>  <m_primary>  (25) 
energy

$$$$
25:0
     RDKit          3D

 39 41  0  0  0  0  0  0  0  0999 V2000
   56.3010   29.6780   42.6250 C   0  0  0  0  0  0  0  0  0  0  0  0
   55.9680   30.2730   43.9900 C   0  0  0  0  0  0  0  0  0  0  0  0
   57.1470   30.2210   44.8800 N   0  0  0  0  0  0  0  0  0  0  0  0
   58.0010   31.2950   44.9840 C   0  0  0  0  0  0  0  0  0  0  0  0
   57.7690   32.8070   44.0300 S   0  0  0  0  0  0  0  0  0  0  0  0
   57.7480   33.8780   45.5120 C   0  0  0  0  0  0  0  0  0  0  0  0
   59.0470   34.6190   45.6830 C   0  0  0  0  0  0  0  0  0  0  0  0
   59.2830   35.6280   44.9610 O   0  0  0  0  0  0  0  0  0  0  0  0
   60.0340   34.2260   46.7230 C   0  0  0  0  0  0  0  0  0  0  0  0
   59.6660   34.2320   48.0820 C   0  0  0  0  0  0  0  0  0  0  0  0
   60.5840   33.8630   49.0700 C   0  0  0  0  0  0  0  0  0  0  0  0
   61.8790   33.4800   48.7150 C   0  0  0  0  0  0  0  0  0  0  0  0
   62.2570   33.4630   47.3710 C   0  0  0  0  0  0  0  0  0  0  0  0
   61.3430   33.8310   46.3790 C   0  0  0  0  0  0  0  0  0  0  0  0
   59.0590   31.2520   45.8320 N   0  0  0  0  0  0  0  0  0  0  0  0
   59.3120   30.1670   46.6000 C   0  0  0  0  0  0  0  0  0  0  0  0
   60.4180   30.1590   47.4580 C   0  0  0  0  0  0  0  0  0  0  0  0
   60.6760   29.0400   48.2550 C   0  0  0  0  0  0  0  0  0  0  0  0
   59.8320   27.9290   48.1980 C   0  0  0  0  0  0  0  0  0  0  0  0
   58.7240   27.9310   47.3430 C   0  0  0  0  0  0  0  0  0  0  0  0
   58.4580   29.0530   46.5350 C   0  0  0  0  0  0  0  0  0  0  0  0
   57.3590   29.1080   45.6610 C   0  0  0  0  0  0  0  0  0  0  0  0
   56.5630   28.1270   45.6010 O   0  0  0  0  0  0  0  0  0  0  0  0
   56.8341   28.7254   42.7604 H   0  0  0  0  0  0  0  0  0  0  0  0
   55.3707   29.5012   42.0653 H   0  0  0  0  0  0  0  0  0  0  0  0
   56.9382   30.3785   42.0653 H   0  0  0  0  0  0  0  0  0  0  0  0
   55.6572   31.3204   43.8621 H   0  0  0  0  0  0  0  0  0  0  0  0
   55.1543   29.6882   44.4436 H   0  0  0  0  0  0  0  0  0  0  0  0
   56.9316   34.6084   45.4122 H   0  0  0  0  0  0  0  0  0  0  0  0
   57.5997   33.2385   46.3946 H   0  0  0  0  0  0  0  0  0  0  0  0
   58.6468   34.5298   48.3692 H   0  0  0  0  0  0  0  0  0  0  0  0
   60.2855   33.8744   50.1287 H   0  0  0  0  0  0  0  0  0  0  0  0
   62.6008   33.1919   49.4935 H   0  0  0  0  0  0  0  0  0  0  0  0
   63.2767   33.1592   47.0918 H   0  0  0  0  0  0  0  0  0  0  0  0
   61.6475   33.8122   45.3222 H   0  0  0  0  0  0  0  0  0  0  0  0
   61.0840   31.0332   47.5050 H   0  0  0  0  0  0  0  0  0  0  0  0
   61.5457   29.0346   48.9285 H   0  0  0  0  0  0  0  0  0  0  0  0
   60.0385   27.0502   48.8266 H   0  0  0  0  0  0  0  0  0  0  0  0
   58.0601   27.0549   47.3022 H   0  0  0  0  0  0  0  0  0  0  0  0
  1  2  1  0
  2  3  1  0
  3  4  1  0
  4  5  1  0
  5  6  1  0
  6  7  1  0
  7  8  2  0
  7  9  1  0
  9 10  2  0
 10 11  1  0
 11 12  2  0
 12 13  1  0
 13 14  2  0
  4 15  2  0
 15 16  1  0
 16 17  2  0
 17 18  1  0
 18 19  2  0
 19 20  1  0
 20 21  2  0
 21 22  1  0
 22 23  2  0
 22  3  1  0
 14  9  1  0
 21 16  1  0
  1 24  1  0
  1 25  1  0
  1 26  1  0
  2 27  1  0
  2 28  1  0
  6 29  1  0
  6 30  1  0
 10 31  1  0
 11 32  1  0
 12 33  1  0
 13 34  1  0
 14 35  1  0
 17 36  1  0
 18 37  1  0
 19 38  1  0
 20 39  1  0
M  END
>  <UniqueID>  (26) 
26

>  <SMILES>  (26) 
CCn1c(SCC(=O)c2ccccc2)nc2ccccc2c1=O

>  <Energy>  (26) 
45.84829308389954

>  <Genealogy>  (26) 
CCn1c(SCC(=O)c2ccccc2)nc2ccccc2c1=O (3D coordinates assigned)
CCn1c(SCC(=O)c2ccccc2)nc2ccccc2c1=O (optimized conformer: 45.84829308389954 kcal/mol)

>  <smiles>  (26) 
CCn1c(SCC(=O)c2ccccc2)nc2ccccc2c1=O

>  <score_type>  (26) 
oracle

>  <origin>  (26) 
adg

>  <m_score__min__energy>  (26) 
-7.6299999999999999

>  <m_primary>  (26) 
energy

$$$$
26:0
     RDKit          3D

 35 37  0  0  0  0  0  0  0  0999 V2000
   57.5720   29.3590   42.7150 H   0  0  0  0  0  0  0  0  0  0  0  0
   56.9650   30.1950   42.5590 N   0  0  0  0  0  0  0  0  0  0  0  0
   57.3810   31.4020   42.7840 C   0  0  0  0  0  0  0  0  0  0  0  0
   57.3920   31.9280   44.1660 C   0  0  0  0  0  0  0  0  0  0  0  0
   57.5210   33.1670   44.3550 O   0  0  0  0  0  0  0  0  0  0  0  0
   57.1870   31.0780   45.3030 N   0  0  0  0  0  0  0  0  0  0  0  0
   57.7540   29.7740   45.4990 C   0  0  0  0  0  0  0  0  0  0  0  0
   59.1140   29.5960   45.7270 C   0  0  0  0  0  0  0  0  0  0  0  0
   59.7844   30.4674   45.7624 H   0  0  0  0  0  0  0  0  0  0  0  0
   59.6260   28.3180   45.9100 C   0  0  0  0  0  0  0  0  0  0  0  0
   60.7065   28.1969   46.0767 H   0  0  0  0  0  0  0  0  0  0  0  0
   58.8000   27.1610   45.8890 C   0  0  0  0  0  0  0  0  0  0  0  0
   59.4520   25.9220   46.0720 C   0  0  0  0  0  0  0  0  0  0  0  0
   60.6270   25.9290   46.5400 O   0  0  0  0  0  0  0  0  0  0  0  0
   58.9770   24.6680   45.6990 C   0  0  0  0  0  0  0  0  0  0  0  0
   59.7074   23.8507   45.7912 H   0  0  0  0  0  0  0  0  0  0  0  0
   57.7200   24.2820   45.2260 C   0  0  0  0  0  0  0  0  0  0  0  0
   57.6280   22.9690   44.7090 C   0  0  0  0  0  0  0  0  0  0  0  0
   58.5472   22.3839   44.5580 H   0  0  0  0  0  0  0  0  0  0  0  0
   56.4010   22.4030   44.3880 C   0  0  0  0  0  0  0  0  0  0  0  0
   56.3465   21.3878   43.9681 H   0  0  0  0  0  0  0  0  0  0  0  0
   55.2480   23.1370   44.6050 C   0  0  0  0  0  0  0  0  0  0  0  0
   54.2636   22.6979   44.3856 H   0  0  0  0  0  0  0  0  0  0  0  0
   55.3380   24.3990   45.0890 N   0  0  0  0  0  0  0  0  0  0  0  0
   56.5200   25.0180   45.3840 C   0  0  0  0  0  0  0  0  0  0  0  0
   56.4060   26.3370   45.8380 C   0  0  0  0  0  0  0  0  0  0  0  0
   55.1350   26.6860   46.3210 O   0  0  0  0  0  0  0  0  0  0  0  0
   54.3600   26.0340   46.3760 H   0  0  0  0  0  0  0  0  0  0  0  0
   57.3920   27.3480   45.7430 C   0  0  0  0  0  0  0  0  0  0  0  0
   56.9100   28.6670   45.5320 C   0  0  0  0  0  0  0  0  0  0  0  0
   55.8300   28.8198   45.3894 H   0  0  0  0  0  0  0  0  0  0  0  0
   57.7250   32.3030   41.6320 C   0  0  0  0  0  0  0  0  0  0  0  0
   58.0926   33.2658   42.0166 H   0  0  0  0  0  0  0  0  0  0  0  0
   58.5062   31.8311   41.0180 H   0  0  0  0  0  0  0  0  0  0  0  0
   56.8281   32.4718   41.0180 H   0  0  0  0  0  0  0  0  0  0  0  0
  1  2  1  0
  2  3  2  0
  3  4  1  0
  4  5  2  0
  4  6  1  0
  6  7  1  0
  7  8  2  0
  8  9  1  0
  8 10  1  0
 10 11  1  0
 10 12  2  0
 12 13  1  0
 13 14  2  0
 13 15  1  0
 15 16  1  0
 15 17  2  0
 17 18  1  0
 18 19  1  0
 18 20  2  0
 20 21  1  0
 20 22  1  0
 22 23  1  0
 22 24  2  0
 24 25  1  0
 25 26  2  0
 26 27  1  0
 27 28  1  0
 26 29  1  0
 29 30  2  0
 30 31  1  0
  3 32  1  0
 32 33  1  0
 32 34  1  0
 32 35  1  0
 30  7  1  0
 29 12  1  0
 25 17  1  0
M  CHG  1   6  -1
M  END
>  <UniqueID>  (27) 
27

>  <SMILES>  (27) 
[H]/N=C(\C)C(=O)[N-]c1ccc2c(=O)cc3cccnc3c(O)c2c1

>  <Energy>  (27) 
90.74241647659565

>  <Genealogy>  (27) 
CC(=N)C(=O)[N-]c1ccc2c(=O)cc3cccnc3c(O)c2c1 (protonated)
[H]/N=C(\C)C(=O)[N-]c1ccc2c(=O)cc3cccnc3c(O)c2c1 (cis-trans isomerization)
[H]/N=C(\C)C(=O)[N-]c1ccc2c(=O)cc3cccnc3c(O)c2c1 (3D coordinates assigned)
[H]/N=C(\C)C(=O)[N-]c1ccc2c(=O)cc3cccnc3c(O)c2c1 (optimized conformer: 90.74241647659565 kcal/mol)

>  <smiles>  (27) 
CC(=N)C(=O)Nc1ccc2c(=O)cc3cccnc3c(O)c2c1

>  <score_type>  (27) 
oracle

>  <origin>  (27) 
adg

>  <m_score__min__energy>  (27) 
-9.7100000000000009

>  <m_primary>  (27) 
energy

$$$$
27:0
     RDKit          3D

 43 46  0  0  0  0  0  0  0  0999 V2000
   56.9650   34.3490   45.0930 N   0  0  0  0  0  0  0  0  0  0  0  0
   58.1160   34.4560   45.1200 C   0  0  0  0  0  0  0  0  0  0  0  0
   59.5760   34.5920   45.1580 C   0  0  0  0  0  0  0  0  0  0  0  0
   60.1510   33.5740   46.0300 N   0  0  0  0  0  0  0  0  0  0  0  0
   60.3200   33.6960   47.4490 C   0  0  0  0  0  0  0  0  0  0  0  0
   59.5960   34.5180   48.0710 O   0  0  0  0  0  0  0  0  0  0  0  0
   61.2940   32.8270   48.2130 C   0  0  2  0  0  0  0  0  0  0  0  0
   62.5620   33.6090   48.5620 C   0  0  2  0  0  0  0  0  0  0  0  0
   63.3800   34.2030   47.4190 C   0  0  0  0  0  0  0  0  0  0  0  0
   63.7360   32.8370   47.9780 C   0  0  2  0  0  0  0  0  0  0  0  0
   63.1700   31.6370   47.2310 C   0  0  0  0  0  0  0  0  0  0  0  0
   61.7280   31.6770   47.4250 N   0  0  0  0  0  0  0  0  0  0  0  0
   60.8830   30.5670   47.0630 C   0  0  0  0  0  0  0  0  0  0  0  0
   61.2970   29.7260   46.2180 O   0  0  0  0  0  0  0  0  0  0  0  0
   59.5530   30.3440   47.7360 C   0  0  0  0  0  0  0  0  0  0  0  0
   58.6360   29.6130   46.8630 N   0  0  0  0  0  0  0  0  0  0  0  0
   58.2100   28.3790   47.1100 N   0  0  0  0  0  0  0  0  0  0  0  0
   57.4160   27.9920   46.0810 C   0  0  0  0  0  0  0  0  0  0  0  0
   56.7630   26.6740   46.0140 C   0  0  0  0  0  0  0  0  0  0  0  0
   55.3410   26.5900   46.0200 N   0  0  0  0  0  0  0  0  0  0  0  0
   57.4480   25.6190   45.9510 O   0  0  0  0  0  0  0  0  0  0  0  0
   57.3560   29.0220   45.1550 C   0  0  0  0  0  0  0  0  0  0  0  0
   56.7120   29.1660   43.9240 C   0  0  0  0  0  0  0  0  0  0  0  0
   56.8910   30.3760   43.2290 C   0  0  0  0  0  0  0  0  0  0  0  0
   57.7000   31.4010   43.7710 C   0  0  0  0  0  0  0  0  0  0  0  0
   58.3370   31.2270   45.0120 C   0  0  0  0  0  0  0  0  0  0  0  0
   58.1360   30.0170   45.6800 C   0  0  0  0  0  0  0  0  0  0  0  0
   59.9794   34.4709   44.1418 H   0  0  0  0  0  0  0  0  0  0  0  0
   59.8351   35.5878   45.5469 H   0  0  0  0  0  0  0  0  0  0  0  0
   60.7607   32.4972   49.1168 H   0  0  0  0  0  0  0  0  0  0  0  0
   62.2273   34.0487   49.5131 H   0  0  0  0  0  0  0  0  0  0  0  0
   62.9402   34.2886   46.4144 H   0  0  0  0  0  0  0  0  0  0  0  0
   63.9255   35.1449   47.2604 H   0  0  0  0  0  0  0  0  0  0  0  0
   64.6932   32.4070   48.3080 H   0  0  0  0  0  0  0  0  0  0  0  0
   63.4122   31.7062   46.1602 H   0  0  0  0  0  0  0  0  0  0  0  0
   63.5975   30.6953   47.6057 H   0  0  0  0  0  0  0  0  0  0  0  0
   59.7097   29.7646   48.6578 H   0  0  0  0  0  0  0  0  0  0  0  0
   59.1094   31.3241   47.9654 H   0  0  0  0  0  0  0  0  0  0  0  0
   54.7930   26.6950   45.1370 H   0  0  0  0  0  0  0  0  0  0  0  0
   56.0861   28.3607   43.5119 H   0  0  0  0  0  0  0  0  0  0  0  0
   56.3981   30.5257   42.2571 H   0  0  0  0  0  0  0  0  0  0  0  0
   57.8320   32.3422   43.2172 H   0  0  0  0  0  0  0  0  0  0  0  0
   58.9715   32.0161   45.4419 H   0  0  0  0  0  0  0  0  0  0  0  0
  1  2  3  0
  2  3  1  0
  3  4  1  0
  4  5  1  0
  5  6  2  0
  5  7  1  0
  7  8  1  0
  8  9  1  0
  9 10  1  0
 10 11  1  0
 11 12  1  0
 12 13  1  0
 13 14  2  0
 13 15  1  0
 15 16  1  0
 16 17  1  0
 17 18  2  0
 18 19  1  0
 19 20  1  0
 19 21  2  0
 18 22  1  0
 22 23  2  0
 23 24  1  0
 24 25  2  0
 25 26  1  0
 26 27  2  0
 12  7  1  0
 27 16  1  0
 10  8  1  0
 27 22  1  0
  3 28  1  0
  3 29  1  0
  7 30  1  1
  8 31  1  1
  9 32  1  0
  9 33  1  0
 10 34  1  1
 11 35  1  0
 11 36  1  0
 15 37  1  0
 15 38  1  0
 20 39  1  0
 23 40  1  0
 24 41  1  0
 25 42  1  0
 26 43  1  0
M  CHG  2   4  -1  20  -1
M  END
>  <UniqueID>  (28) 
28

>  <SMILES>  (28) 
N#CC[N-]C(=O)[C@@H]1[C@@H]2CC2CN1C(=O)Cn1nc(C([NH-])=O)c2ccccc21

>  <Energy>  (28) 
345.26116065170896

>  <Genealogy>  (28) 
N#CC[N-]C(=O)C1C2CC2CN1C(=O)Cn1nc(C([NH-])=O)c2ccccc21 (protonated)
N#CC[N-]C(=O)[C@@H]1[C@@H]2CC2CN1C(=O)Cn1nc(C([NH-])=O)c2ccccc21 (chirality)
N#CC[N-]C(=O)[C@@H]1[C@@H]2CC2CN1C(=O)Cn1nc(C([NH-])=O)c2ccccc21 (3D coordinates assigned)
N#CC[N-]C(=O)[C@@H]1[C@@H]2CC2CN1C(=O)Cn1nc(C([NH-])=O)c2ccccc21 (nonaromatic ring conformer: 345.26116065170896 kcal/mol)

>  <smiles>  (28) 
N#CCNC(=O)C1C2CC2CN1C(=O)Cn1nc(C(N)=O)c2ccccc21

>  <score_type>  (28) 
oracle

>  <origin>  (28) 
adg

>  <m_score__min__energy>  (28) 
-12.51

>  <m_primary>  (28) 
energy

$$$$
28:0
     RDKit          3D

 47 49  0  0  0  0  0  0  0  0999 V2000
   56.2930   29.7480   42.7070 C   0  0  0  0  0  0  0  0  0  0  0  0
   56.2700   29.9960   44.1860 C   0  0  0  0  0  0  0  0  0  0  0  0
   55.3580   29.4560   44.8690 O   0  0  0  0  0  0  0  0  0  0  0  0
   57.2840   30.8550   44.8550 C   0  0  0  0  0  0  0  0  0  0  0  0
   57.3670   32.2350   44.5880 C   0  0  0  0  0  0  0  0  0  0  0  0
   58.3270   33.0270   45.2260 C   0  0  0  0  0  0  0  0  0  0  0  0
   59.2280   32.4580   46.1390 C   0  0  0  0  0  0  0  0  0  0  0  0
   60.2080   33.2780   46.8070 N   0  0  0  0  0  0  0  0  0  0  0  0
   61.3200   33.8840   46.0660 C   0  0  0  0  0  0  0  0  0  0  0  0
   62.6630   33.5940   46.7670 C   0  0  0  0  0  0  0  0  0  0  0  0
   62.5080   33.2540   48.2050 N   0  0  0  0  0  0  0  0  0  0  0  0
   63.7720   33.4430   48.9440 C   0  0  0  0  0  0  0  0  0  0  0  0
   64.0420   32.2670   49.8580 C   0  0  0  0  0  0  0  0  0  0  0  0
   62.9820   31.4010   50.1830 C   0  0  0  0  0  0  0  0  0  0  0  0
   63.1860   30.3200   51.0420 C   0  0  0  0  0  0  0  0  0  0  0  0
   64.4460   30.0920   51.5910 C   0  0  0  0  0  0  0  0  0  0  0  0
   65.5090   30.9440   51.2860 C   0  0  0  0  0  0  0  0  0  0  0  0
   65.3220   32.0390   50.4240 C   0  0  0  0  0  0  0  0  0  0  0  0
   66.4890   32.9430   50.1210 C   0  0  0  0  0  0  0  0  0  0  0  0
   61.4170   34.0270   48.8260 C   0  0  0  0  0  0  0  0  0  0  0  0
   60.0790   33.5610   48.2430 C   0  0  0  0  0  0  0  0  0  0  0  0
   59.1430   31.0860   46.4150 C   0  0  0  0  0  0  0  0  0  0  0  0
   58.1840   30.2920   45.7790 C   0  0  0  0  0  0  0  0  0  0  0  0
   56.3931   28.6690   42.5177 H   0  0  0  0  0  0  0  0  0  0  0  0
   55.3571   30.1136   42.2593 H   0  0  0  0  0  0  0  0  0  0  0  0
   57.1457   30.2795   42.2593 H   0  0  0  0  0  0  0  0  0  0  0  0
   56.6705   32.6943   43.8711 H   0  0  0  0  0  0  0  0  0  0  0  0
   58.3762   34.1045   45.0104 H   0  0  0  0  0  0  0  0  0  0  0  0
   61.3461   33.4668   45.0485 H   0  0  0  0  0  0  0  0  0  0  0  0
   61.1684   34.9728   46.0277 H   0  0  0  0  0  0  0  0  0  0  0  0
   63.1484   32.7485   46.2576 H   0  0  0  0  0  0  0  0  0  0  0  0
   63.2677   34.5111   46.7100 H   0  0  0  0  0  0  0  0  0  0  0  0
   64.5991   33.5382   48.2251 H   0  0  0  0  0  0  0  0  0  0  0  0
   63.6895   34.3533   49.5561 H   0  0  0  0  0  0  0  0  0  0  0  0
   61.9836   31.5774   49.7563 H   0  0  0  0  0  0  0  0  0  0  0  0
   62.3507   29.6471   51.2859 H   0  0  0  0  0  0  0  0  0  0  0  0
   64.6037   29.2384   52.2666 H   0  0  0  0  0  0  0  0  0  0  0  0
   66.5008   30.7572   51.7235 H   0  0  0  0  0  0  0  0  0  0  0  0
   66.9378   33.2907   51.0632 H   0  0  0  0  0  0  0  0  0  0  0  0
   67.2405   32.3891   49.5393 H   0  0  0  0  0  0  0  0  0  0  0  0
   66.1405   33.8091   49.5393 H   0  0  0  0  0  0  0  0  0  0  0  0
   61.4221   33.8632   49.9137 H   0  0  0  0  0  0  0  0  0  0  0  0
   61.5580   35.0985   48.6209 H   0  0  0  0  0  0  0  0  0  0  0  0
   59.7571   32.6470   48.7636 H   0  0  0  0  0  0  0  0  0  0  0  0
   59.3360   34.3605   48.3803 H   0  0  0  0  0  0  0  0  0  0  0  0
   59.8363   30.6307   47.1376 H   0  0  0  0  0  0  0  0  0  0  0  0
   58.1324   29.2163   46.0031 H   0  0  0  0  0  0  0  0  0  0  0  0
  1  2  1  0
  2  3  2  0
  2  4  1  0
  4  5  2  0
  5  6  1  0
  6  7  2  0
  7  8  1  0
  8  9  1  0
  9 10  1  0
 10 11  1  0
 11 12  1  0
 12 13  1  0
 13 14  2  0
 14 15  1  0
 15 16  2  0
 16 17  1  0
 17 18  2  0
 18 19  1  0
 11 20  1  0
 20 21  1  0
  7 22  1  0
 22 23  2  0
 23  4  1  0
 21  8  1  0
 18 13  1  0
  1 24  1  0
  1 25  1  0
  1 26  1  0
  5 27  1  0
  6 28  1  0
  9 29  1  0
  9 30  1  0
 10 31  1  0
 10 32  1  0
 12 33  1  0
 12 34  1  0
 14 35  1  0
 15 36  1  0
 16 37  1  0
 17 38  1  0
 19 39  1  0
 19 40  1  0
 19 41  1  0
 20 42  1  0
 20 43  1  0
 21 44  1  0
 21 45  1  0
 22 46  1  0
 23 47  1  0
M  END
>  <UniqueID>  (29) 
29

>  <SMILES>  (29) 
CC(=O)c1ccc(N2CCN(Cc3ccccc3C)CC2)cc1

>  <Energy>  (29) 
58.66826356274575

>  <Genealogy>  (29) 
CC(=O)c1ccc(N2CCN(Cc3ccccc3C)CC2)cc1 (3D coordinates assigned)
CC(=O)c1ccc(N2CCN(Cc3ccccc3C)CC2)cc1 (nonaromatic ring conformer: 58.66826356274575 kcal/mol)

>  <smiles>  (29) 
CC(=O)c1ccc(N2CCN(Cc3ccccc3C)CC2)cc1

>  <score_type>  (29) 
oracle

>  <origin>  (29) 
adg

>  <m_score__min__energy>  (29) 
-8.1699999999999999

>  <m_primary>  (29) 
energy

$$$$
29:0
     RDKit          3D

 47 49  0  0  0  0  0  0  0  0999 V2000
   56.6090   29.1080   42.7500 N   0  0  0  0  0  0  0  0  0  0  0  0
   56.9980   30.0690   43.2630 C   0  0  0  0  0  0  0  0  0  0  0  0
   57.4820   31.2660   43.8990 C   0  0  0  0  0  0  0  0  0  0  0  0
   58.0180   32.3040   43.1270 C   0  0  0  0  0  0  0  0  0  0  0  0
   58.4650   33.4770   43.7420 C   0  0  0  0  0  0  0  0  0  0  0  0
   58.4010   33.6140   45.1380 C   0  0  0  0  0  0  0  0  0  0  0  0
   58.8730   34.8830   45.7940 C   0  0  0  0  0  0  0  0  0  0  0  0
   59.7980   34.5770   46.8950 N   0  0  0  0  0  0  0  0  0  0  0  0
   61.0480   33.9910   46.3920 C   0  0  0  0  0  0  0  0  0  0  0  0
   62.0230   33.6930   47.5520 C   0  0  2  0  0  0  0  0  0  0  0  0
   63.4230   33.3150   47.0050 C   0  0  0  0  0  0  0  0  0  0  0  0
   64.3470   32.7450   48.0150 N   0  0  0  0  0  0  0  0  0  0  0  0
   63.8950   32.9080   49.4020 C   0  0  0  0  0  0  0  0  0  0  0  0
   62.5460   32.2120   49.6140 C   0  0  0  0  0  0  0  0  0  0  0  0
   61.4710   32.6670   48.5900 C   0  0  2  0  0  0  0  0  0  0  0  0
   60.7590   31.4710   47.9670 C   0  0  0  0  0  0  0  0  0  0  0  0
   59.5650   30.9900   48.5380 C   0  0  0  0  0  0  0  0  0  0  0  0
   58.9100   29.8850   47.9890 C   0  0  0  0  0  0  0  0  0  0  0  0
   59.4240   29.2580   46.8530 C   0  0  0  0  0  0  0  0  0  0  0  0
   60.6080   29.7210   46.2780 C   0  0  0  0  0  0  0  0  0  0  0  0
   61.2790   30.8140   46.8350 C   0  0  0  0  0  0  0  0  0  0  0  0
   57.8650   32.5690   45.9080 C   0  0  0  0  0  0  0  0  0  0  0  0
   57.4040   31.4020   45.2910 C   0  0  0  0  0  0  0  0  0  0  0  0
   58.0874   32.1962   42.0345 H   0  0  0  0  0  0  0  0  0  0  0  0
   58.8688   34.2966   43.1295 H   0  0  0  0  0  0  0  0  0  0  0  0
   59.3897   35.5058   45.0489 H   0  0  0  0  0  0  0  0  0  0  0  0
   58.0028   35.4210   46.1980 H   0  0  0  0  0  0  0  0  0  0  0  0
   60.0390   35.4810   47.3640 H   0  0  0  0  0  0  0  0  0  0  0  0
   60.8193   33.0535   45.8639 H   0  0  0  0  0  0  0  0  0  0  0  0
   61.5236   34.7105   45.7092 H   0  0  0  0  0  0  0  0  0  0  0  0
   62.1304   34.6237   48.1285 H   0  0  0  0  0  0  0  0  0  0  0  0
   63.2896   32.5726   46.2044 H   0  0  0  0  0  0  0  0  0  0  0  0
   63.8835   34.2502   46.6538 H   0  0  0  0  0  0  0  0  0  0  0  0
   65.2820   33.2050   47.9200 H   0  0  0  0  0  0  0  0  0  0  0  0
   64.4880   31.7250   47.8250 H   0  0  0  0  0  0  0  0  0  0  0  0
   64.6404   32.4662   50.0796 H   0  0  0  0  0  0  0  0  0  0  0  0
   63.7780   33.9811   49.6135 H   0  0  0  0  0  0  0  0  0  0  0  0
   62.6904   31.1261   49.5139 H   0  0  0  0  0  0  0  0  0  0  0  0
   62.1857   32.4830   50.6174 H   0  0  0  0  0  0  0  0  0  0  0  0
   60.7003   33.2256   49.1413 H   0  0  0  0  0  0  0  0  0  0  0  0
   59.1445   31.4886   49.4238 H   0  0  0  0  0  0  0  0  0  0  0  0
   57.9867   29.5081   48.4532 H   0  0  0  0  0  0  0  0  0  0  0  0
   58.8963   28.3998   46.4114 H   0  0  0  0  0  0  0  0  0  0  0  0
   61.0145   29.2250   45.3843 H   0  0  0  0  0  0  0  0  0  0  0  0
   62.2202   31.1634   46.3856 H   0  0  0  0  0  0  0  0  0  0  0  0
   57.8076   32.6690   47.0019 H   0  0  0  0  0  0  0  0  0  0  0  0
   56.9796   30.5898   45.8994 H   0  0  0  0  0  0  0  0  0  0  0  0
  1  2  3  0
  2  3  1  0
  3  4  2  0
  4  5  1  0
  5  6  2  0
  6  7  1  0
  7  8  1  0
  8  9  1  0
  9 10  1  0
 10 11  1  0
 11 12  1  0
 12 13  1  0
 13 14  1  0
 14 15  1  0
 15 16  1  0
 16 17  2  0
 17 18  1  0
 18 19  2  0
 19 20  1  0
 20 21  2  0
  6 22  1  0
 22 23  2  0
 23  3  1  0
 15 10  1  0
 21 16  1  0
  4 24  1  0
  5 25  1  0
  7 26  1  0
  7 27  1  0
  8 28  1  0
  9 29  1  0
  9 30  1  0
 10 31  1  1
 11 32  1  0
 11 33  1  0
 12 34  1  0
 12 35  1  0
 13 36  1  0
 13 37  1  0
 14 38  1  0
 14 39  1  0
 15 40  1  1
 17 41  1  0
 18 42  1  0
 19 43  1  0
 20 44  1  0
 21 45  1  0
 22 46  1  0
 23 47  1  0
M  CHG  1  12   1
M  END
>  <UniqueID>  (30) 
30

>  <SMILES>  (30) 
N#Cc1ccc(CNC[C@@H]2C[NH2+]CC[C@@H]2c2ccccc2)cc1

>  <Energy>  (30) 
51.47577728579728

>  <Genealogy>  (30) 
N#Cc1ccc(CNCC2C[NH2+]CCC2c2ccccc2)cc1 (protonated)
N#Cc1ccc(CNC[C@@H]2C[NH2+]CC[C@@H]2c2ccccc2)cc1 (chirality)
N#Cc1ccc(CNC[C@@H]2C[NH2+]CC[C@@H]2c2ccccc2)cc1 (3D coordinates assigned)
N#Cc1ccc(CNC[C@@H]2C[NH2+]CC[C@@H]2c2ccccc2)cc1 (nonaromatic ring conformer: 51.47577728579728 kcal/mol)

>  <smiles>  (30) 
N#Cc1ccc(CNCC2CNCCC2c2ccccc2)cc1

>  <score_type>  (30) 
oracle

>  <origin>  (30) 
adg

>  <m_score__min__energy>  (30) 
-6.2699999999999996

>  <m_primary>  (30) 
energy

$$$$
30:0
     RDKit          3D

 60 63  0  0  0  0  0  0  0  0999 V2000
   61.2030   33.0950   50.6280 C   0  0  0  0  0  0  0  0  0  0  0  0
   61.9940   32.9510   49.3540 C   0  0  0  0  0  0  0  0  0  0  0  0
   62.5850   34.0950   48.7930 C   0  0  0  0  0  0  0  0  0  0  0  0
   63.3820   33.9960   47.6500 C   0  0  0  0  0  0  0  0  0  0  0  0
   63.5910   32.7540   47.0500 C   0  0  0  0  0  0  0  0  0  0  0  0
   62.9920   31.6100   47.5810 C   0  0  0  0  0  0  0  0  0  0  0  0
   62.1700   31.6970   48.7120 C   0  0  0  0  0  0  0  0  0  0  0  0
   61.5760   30.4920   49.2110 N   0  0  0  0  0  0  0  0  0  0  0  0
   60.1740   30.2000   49.1650 C   0  0  0  0  0  0  0  0  0  0  0  0
   59.3270   31.1070   49.3910 O   0  0  0  0  0  0  0  0  0  0  0  0
   59.7200   28.8090   48.8590 C   0  0  0  0  0  0  0  0  0  0  0  0
   60.0750   28.3930   47.1150 S   0  0  0  0  0  0  0  0  0  0  0  0
   59.2720   29.8600   46.4260 C   0  0  0  0  0  0  0  0  0  0  0  0
   59.8430   31.0690   46.6860 N   0  0  0  0  0  0  0  0  0  0  0  0
   59.3000   32.2250   46.2270 C   0  0  0  0  0  0  0  0  0  0  0  0
   59.9020   33.4600   46.5200 C   0  0  0  0  0  0  0  0  0  0  0  0
   59.3360   34.6470   46.0480 C   0  0  0  0  0  0  0  0  0  0  0  0
   58.1720   34.6090   45.2810 C   0  0  0  0  0  0  0  0  0  0  0  0
   57.5630   33.3860   44.9840 C   0  0  0  0  0  0  0  0  0  0  0  0
   58.1250   32.1850   45.4560 C   0  0  0  0  0  0  0  0  0  0  0  0
   57.5510   30.9330   45.1800 C   0  0  0  0  0  0  0  0  0  0  0  0
   56.4930   30.8740   44.4920 O   0  0  0  0  0  0  0  0  0  0  0  0
   58.1340   29.7820   45.6520 N   0  0  0  0  0  0  0  0  0  0  0  0
   57.5100   28.4790   45.3420 C   0  0  0  0  0  0  0  0  0  0  0  0
   58.4900   27.5800   44.5750 C   0  0  0  0  0  0  0  0  0  0  0  0
   57.7760   26.4160   43.8860 C   0  0  0  0  0  0  0  0  0  0  0  0
   57.8750   25.1950   44.7250 N   0  0  0  0  0  0  0  0  0  0  0  0
   58.0340   25.4930   46.1640 C   0  0  0  0  0  0  0  0  0  0  0  0
   56.6920   25.8900   46.8080 C   0  0  0  0  0  0  0  0  0  0  0  0
   55.7210   24.8840   46.6060 O   0  0  0  0  0  0  0  0  0  0  0  0
   55.4830   24.7270   45.2220 C   0  0  0  0  0  0  0  0  0  0  0  0
   56.7580   24.2550   44.5060 C   0  0  0  0  0  0  0  0  0  0  0  0
   61.8733   32.9730   51.4916 H   0  0  0  0  0  0  0  0  0  0  0  0
   60.7399   34.0922   50.6613 H   0  0  0  0  0  0  0  0  0  0  0  0
   60.4182   32.3250   50.6613 H   0  0  0  0  0  0  0  0  0  0  0  0
   62.4187   35.0779   49.2579 H   0  0  0  0  0  0  0  0  0  0  0  0
   63.8450   34.8978   47.2229 H   0  0  0  0  0  0  0  0  0  0  0  0
   64.2287   32.6759   46.1571 H   0  0  0  0  0  0  0  0  0  0  0  0
   63.1669   30.6327   47.1075 H   0  0  0  0  0  0  0  0  0  0  0  0
   60.2491   28.1023   49.5153 H   0  0  0  0  0  0  0  0  0  0  0  0
   58.6352   28.7420   49.0284 H   0  0  0  0  0  0  0  0  0  0  0  0
   60.7130   31.1010   47.2650 H   0  0  0  0  0  0  0  0  0  0  0  0
   60.8216   33.4926   47.1227 H   0  0  0  0  0  0  0  0  0  0  0  0
   59.8089   35.6123   46.2816 H   0  0  0  0  0  0  0  0  0  0  0  0
   57.7311   35.5452   44.9081 H   0  0  0  0  0  0  0  0  0  0  0  0
   56.6435   33.3624   44.3807 H   0  0  0  0  0  0  0  0  0  0  0  0
   57.2233   27.9829   46.2810 H   0  0  0  0  0  0  0  0  0  0  0  0
   56.6219   28.6508   44.7161 H   0  0  0  0  0  0  0  0  0  0  0  0
   59.0039   28.1835   43.8124 H   0  0  0  0  0  0  0  0  0  0  0  0
   59.2058   27.1613   45.2977 H   0  0  0  0  0  0  0  0  0  0  0  0
   56.7165   26.6732   43.7397 H   0  0  0  0  0  0  0  0  0  0  0  0
   58.2502   26.2257   42.9119 H   0  0  0  0  0  0  0  0  0  0  0  0
   58.4249   24.5998   46.6733 H   0  0  0  0  0  0  0  0  0  0  0  0
   58.7307   26.3379   46.2674 H   0  0  0  0  0  0  0  0  0  0  0  0
   56.8398   26.0367   47.8881 H   0  0  0  0  0  0  0  0  0  0  0  0
   56.3381   26.8204   46.3399 H   0  0  0  0  0  0  0  0  0  0  0  0
   54.6878   23.9816   45.0739 H   0  0  0  0  0  0  0  0  0  0  0  0
   55.1776   25.6965   44.8017 H   0  0  0  0  0  0  0  0  0  0  0  0
   57.0412   23.2653   44.8937 H   0  0  0  0  0  0  0  0  0  0  0  0
   56.5521   24.2056   43.4266 H   0  0  0  0  0  0  0  0  0  0  0  0
  1  2  1  0
  2  3  2  0
  3  4  1  0
  4  5  2  0
  5  6  1  0
  6  7  2  0
  7  8  1  0
  8  9  1  0
  9 10  2  0
  9 11  1  0
 11 12  1  0
 12 13  1  0
 13 14  2  0
 14 15  1  0
 15 16  2  0
 16 17  1  0
 17 18  2  0
 18 19  1  0
 19 20  2  0
 20 21  1  0
 21 22  2  0
 21 23  1  0
 23 24  1  0
 24 25  1  0
 25 26  1  0
 26 27  1  0
 27 28  1  0
 28 29  1  0
 29 30  1  0
 30 31  1  0
 31 32  1  0
  7  2  1  0
 23 13  1  0
 32 27  1  0
 20 15  1  0
  1 33  1  0
  1 34  1  0
  1 35  1  0
  3 36  1  0
  4 37  1  0
  5 38  1  0
  6 39  1  0
 11 40  1  0
 11 41  1  0
 14 42  1  0
 16 43  1  0
 17 44  1  0
 18 45  1  0
 19 46  1  0
 24 47  1  0
 24 48  1  0
 25 49  1  0
 25 50  1  0
 26 51  1  0
 26 52  1  0
 28 53  1  0
 28 54  1  0
 29 55  1  0
 29 56  1  0
 31 57  1  0
 31 58  1  0
 32 59  1  0
 32 60  1  0
M  CHG  2   8  -1  14   1
M  END
>  <UniqueID>  (31) 
31

>  <SMILES>  (31) 
Cc1ccccc1[N-]C(=O)CSc1[nH+]c2ccccc2c(=O)n1CCCN1CCOCC1

>  <Energy>  (31) 
77.41437879109444

>  <Genealogy>  (31) 
Cc1ccccc1[N-]C(=O)CSc1[nH+]c2ccccc2c(=O)n1CCCN1CCOCC1 (protonated)
Cc1ccccc1[N-]C(=O)CSc1[nH+]c2ccccc2c(=O)n1CCCN1CCOCC1 (3D coordinates assigned)
Cc1ccccc1[N-]C(=O)CSc1[nH+]c2ccccc2c(=O)n1CCCN1CCOCC1 (nonaromatic ring conformer: 77.41437879109444 kcal/mol)

>  <smiles>  (31) 
Cc1ccccc1NC(=O)CSc1nc2ccccc2c(=O)n1CCCN1CCOCC1

>  <score_type>  (31) 
oracle

>  <origin>  (31) 
adg

>  <m_score__min__energy>  (31) 
-8.4900000000000002

>  <m_primary>  (31) 
energy

$$$$
31:0
     RDKit          3D

 40 41  0  0  0  0  0  0  0  0999 V2000
   56.7510   26.3570   45.9590 C   0  0  0  0  0  0  0  0  0  0  0  0
   56.0500   27.5490   45.6180 O   0  0  0  0  0  0  0  0  0  0  0  0
   56.6670   28.7610   45.2740 C   0  0  0  0  0  0  0  0  0  0  0  0
   57.9470   29.1140   45.7430 C   0  0  0  0  0  0  0  0  0  0  0  0
   58.5220   30.3340   45.3740 C   0  0  0  0  0  0  0  0  0  0  0  0
   57.8310   31.2180   44.5320 C   0  0  0  0  0  0  0  0  0  0  0  0
   58.4520   32.5420   44.1500 C   0  0  0  0  0  0  0  0  0  0  0  0
   58.3500   33.5400   45.2450 N   0  0  2  0  0  0  0  0  0  0  0  0
   57.0200   34.1820   45.2300 C   0  0  0  0  0  0  0  0  0  0  0  0
   59.4050   34.5780   45.1180 C   0  0  0  0  0  0  0  0  0  0  0  0
   59.6790   35.2980   46.4520 C   0  0  0  0  0  0  0  0  0  0  0  0
   59.9630   34.3030   47.5430 C   0  0  0  0  0  0  0  0  0  0  0  0
   58.9940   33.7490   48.1310 O   0  0  0  0  0  0  0  0  0  0  0  0
   61.3400   33.9270   47.9160 C   0  0  0  0  0  0  0  0  0  0  0  0
   61.8790   33.8890   49.1990 C   0  0  0  0  0  0  0  0  0  0  0  0
   63.2240   33.4970   49.2230 C   0  0  0  0  0  0  0  0  0  0  0  0
   63.7510   33.2260   47.9670 C   0  0  0  0  0  0  0  0  0  0  0  0
   62.5410   33.4770   46.8270 S   0  0  0  0  0  0  0  0  0  0  0  0
   56.5540   30.8660   44.0670 C   0  0  0  0  0  0  0  0  0  0  0  0
   55.9780   29.6470   44.4360 C   0  0  0  0  0  0  0  0  0  0  0  0
   54.7440   29.3250   43.9770 F   0  0  0  0  0  0  0  0  0  0  0  0
   56.8056   26.2642   47.0537 H   0  0  0  0  0  0  0  0  0  0  0  0
   56.2202   25.4878   45.5433 H   0  0  0  0  0  0  0  0  0  0  0  0
   57.7686   26.3984   45.5433 H   0  0  0  0  0  0  0  0  0  0  0  0
   58.4971   28.4268   46.4027 H   0  0  0  0  0  0  0  0  0  0  0  0
   59.5218   30.6021   45.7461 H   0  0  0  0  0  0  0  0  0  0  0  0
   59.5142   32.3812   43.9137 H   0  0  0  0  0  0  0  0  0  0  0  0
   57.9062   32.9351   43.2796 H   0  0  0  0  0  0  0  0  0  0  0  0
   58.4550   33.0600   46.1700 H   0  0  0  0  0  0  0  0  0  0  0  0
   56.6803   34.3460   46.2633 H   0  0  0  0  0  0  0  0  0  0  0  0
   57.0850   35.1479   44.7078 H   0  0  0  0  0  0  0  0  0  0  0  0
   56.3041   33.5303   44.7078 H   0  0  0  0  0  0  0  0  0  0  0  0
   60.3344   34.0982   44.7774 H   0  0  0  0  0  0  0  0  0  0  0  0
   59.0532   35.3293   44.3957 H   0  0  0  0  0  0  0  0  0  0  0  0
   60.5483   35.9613   46.3327 H   0  0  0  0  0  0  0  0  0  0  0  0
   58.7890   35.8823   46.7284 H   0  0  0  0  0  0  0  0  0  0  0  0
   61.3062   34.1415   50.1035 H   0  0  0  0  0  0  0  0  0  0  0  0
   63.8085   33.4118   50.1510 H   0  0  0  0  0  0  0  0  0  0  0  0
   64.7810   32.9033   47.7549 H   0  0  0  0  0  0  0  0  0  0  0  0
   56.0033   31.5536   43.4083 H   0  0  0  0  0  0  0  0  0  0  0  0
  1  2  1  0
  2  3  1  0
  3  4  2  0
  4  5  1  0
  5  6  2  0
  6  7  1  0
  7  8  1  0
  8  9  1  0
  8 10  1  0
 10 11  1  0
 11 12  1  0
 12 13  2  0
 12 14  1  0
 14 15  2  0
 15 16  1  0
 16 17  2  0
 17 18  1  0
  6 19  1  0
 19 20  2  0
 20 21  1  0
 20  3  1  0
 18 14  1  0
  1 22  1  0
  1 23  1  0
  1 24  1  0
  4 25  1  0
  5 26  1  0
  7 27  1  0
  7 28  1  0
  8 29  1  1
  9 30  1  0
  9 31  1  0
  9 32  1  0
 10 33  1  0
 10 34  1  0
 11 35  1  0
 11 36  1  0
 15 37  1  0
 16 38  1  0
 17 39  1  0
 19 40  1  0
M  CHG  1   8   1
M  END
>  <UniqueID>  (32) 
32

>  <SMILES>  (32) 
COc1ccc(C[N@H+](C)CCC(=O)c2cccs2)cc1F

>  <Energy>  (32) 
65.21430335010673

>  <Genealogy>  (32) 
COc1ccc(C[NH+](C)CCC(=O)c2cccs2)cc1F (protonated)
COc1ccc(C[N@H+](C)CCC(=O)c2cccs2)cc1F (chirality)
COc1ccc(C[N@H+](C)CCC(=O)c2cccs2)cc1F (3D coordinates assigned)
COc1ccc(C[N@H+](C)CCC(=O)c2cccs2)cc1F (optimized conformer: 65.21430335010673 kcal/mol)

>  <smiles>  (32) 
COc1ccc(CN(C)CCC(=O)c2cccs2)cc1F

>  <score_type>  (32) 
oracle

>  <origin>  (32) 
adg

>  <m_score__min__energy>  (32) 
-5.3700000000000001

>  <m_primary>  (32) 
energy

$$$$
32:0
     RDKit          3D

 57 60  0  0  0  0  0  0  0  0999 V2000
   59.9600   33.0920   50.9540 C   0  0  0  0  0  0  0  0  0  0  0  0
   60.6170   32.2140   50.0450 O   0  0  0  0  0  0  0  0  0  0  0  0
   61.5810   32.6110   49.1050 C   0  0  0  0  0  0  0  0  0  0  0  0
   62.2490   33.8500   49.2090 C   0  0  0  0  0  0  0  0  0  0  0  0
   63.2270   34.2050   48.2790 C   0  0  0  0  0  0  0  0  0  0  0  0
   63.5530   33.3370   47.2380 C   0  0  0  0  0  0  0  0  0  0  0  0
   62.8980   32.1100   47.1200 C   0  0  0  0  0  0  0  0  0  0  0  0
   61.9030   31.7390   48.0420 C   0  0  0  0  0  0  0  0  0  0  0  0
   61.2280   30.4740   47.8930 N   0  0  0  0  0  0  0  0  0  0  0  0
   61.1410   29.5320   49.0140 C   0  0  0  0  0  0  0  0  0  0  0  0
   59.7740   28.8410   48.9900 C   0  0  0  0  0  0  0  0  0  0  0  0
   59.4960   28.1410   47.7050 N   0  0  0  0  0  0  0  0  0  0  0  0
   58.0510   28.1370   47.3830 C   0  0  0  0  0  0  0  0  0  0  0  0
   57.7940   28.2550   45.8700 C   0  0  0  0  0  0  0  0  0  0  0  0
   56.3870   27.7900   45.4610 C   0  0  0  0  0  0  0  0  0  0  0  0
   55.6030   28.8800   44.8820 N   0  0  0  0  0  0  0  0  0  0  0  0
   55.9750   29.7020   43.7680 C   0  0  0  0  0  0  0  0  0  0  0  0
   55.6190   29.3500   42.6120 O   0  0  0  0  0  0  0  0  0  0  0  0
   56.7840   30.9230   43.9130 C   0  0  0  0  0  0  0  0  0  0  0  0
   57.2120   31.4430   45.0780 N   0  0  0  0  0  0  0  0  0  0  0  0
   57.8760   32.5500   44.6840 C   0  0  0  0  0  0  0  0  0  0  0  0
   58.5510   33.5080   45.5920 C   0  0  0  0  0  0  0  0  0  0  0  0
   58.5100   33.3530   46.9890 C   0  0  0  0  0  0  0  0  0  0  0  0
   59.1610   34.2700   47.8160 C   0  0  0  0  0  0  0  0  0  0  0  0
   59.8530   35.3370   47.2450 C   0  0  0  0  0  0  0  0  0  0  0  0
   59.8900   35.4780   45.8940 N   0  0  0  0  0  0  0  0  0  0  0  0
   59.2640   34.6000   45.0650 C   0  0  0  0  0  0  0  0  0  0  0  0
   57.8370   32.6940   43.3420 N   0  0  0  0  0  0  0  0  0  0  0  0
   57.1530   31.6770   42.9060 O   0  0  0  0  0  0  0  0  0  0  0  0
   60.3090   28.6190   46.5570 C   0  0  0  0  0  0  0  0  0  0  0  0
   60.5910   30.1250   46.6180 C   0  0  0  0  0  0  0  0  0  0  0  0
   60.1874   32.7881   51.9864 H   0  0  0  0  0  0  0  0  0  0  0  0
   60.3117   34.1211   50.7888 H   0  0  0  0  0  0  0  0  0  0  0  0
   58.8735   33.0449   50.7888 H   0  0  0  0  0  0  0  0  0  0  0  0
   61.9972   34.5399   50.0280 H   0  0  0  0  0  0  0  0  0  0  0  0
   63.7423   35.1728   48.3676 H   0  0  0  0  0  0  0  0  0  0  0  0
   64.3269   33.6192   46.5091 H   0  0  0  0  0  0  0  0  0  0  0  0
   63.1624   31.4275   46.2989 H   0  0  0  0  0  0  0  0  0  0  0  0
   61.9359   28.7772   48.9222 H   0  0  0  0  0  0  0  0  0  0  0  0
   61.2623   30.0758   49.9624 H   0  0  0  0  0  0  0  0  0  0  0  0
   59.7403   28.1031   49.8051 H   0  0  0  0  0  0  0  0  0  0  0  0
   59.0092   29.6224   49.1102 H   0  0  0  0  0  0  0  0  0  0  0  0
   57.6096   27.1969   47.7454 H   0  0  0  0  0  0  0  0  0  0  0  0
   57.5926   29.0085   47.8732 H   0  0  0  0  0  0  0  0  0  0  0  0
   57.9146   29.3079   45.5752 H   0  0  0  0  0  0  0  0  0  0  0  0
   58.5173   27.6004   45.3617 H   0  0  0  0  0  0  0  0  0  0  0  0
   56.4800   26.9843   44.7179 H   0  0  0  0  0  0  0  0  0  0  0  0
   55.8673   27.4364   46.3637 H   0  0  0  0  0  0  0  0  0  0  0  0
   57.0060   31.1120   46.0440 H   0  0  0  0  0  0  0  0  0  0  0  0
   57.9635   32.5070   47.4313 H   0  0  0  0  0  0  0  0  0  0  0  0
   59.1282   34.1517   48.9091 H   0  0  0  0  0  0  0  0  0  0  0  0
   60.3692   36.0649   47.8882 H   0  0  0  0  0  0  0  0  0  0  0  0
   59.3156   34.7448   43.9758 H   0  0  0  0  0  0  0  0  0  0  0  0
   61.2685   28.0810   46.5570 H   0  0  0  0  0  0  0  0  0  0  0  0
   59.7342   28.4255   45.6393 H   0  0  0  0  0  0  0  0  0  0  0  0
   61.2603   30.4024   45.7903 H   0  0  0  0  0  0  0  0  0  0  0  0
   59.6395   30.6703   46.5330 H   0  0  0  0  0  0  0  0  0  0  0  0
  1  2  1  0
  2  3  1  0
  3  4  2  0
  4  5  1  0
  5  6  2  0
  6  7  1  0
  7  8  2  0
  8  9  1  0
  9 10  1  0
 10 11  1  0
 11 12  1  0
 12 13  1  0
 13 14  1  0
 14 15  1  0
 15 16  1  0
 16 17  1  0
 17 18  2  0
 17 19  1  0
 19 20  2  0
 20 21  1  0
 21 22  1  0
 22 23  2  0
 23 24  1  0
 24 25  2  0
 25 26  1  0
 26 27  2  0
 21 28  2  0
 28 29  1  0
 12 30  1  0
 30 31  1  0
  8  3  1  0
 31  9  1  0
 29 19  1  0
 27 22  1  0
  1 32  1  0
  1 33  1  0
  1 34  1  0
  4 35  1  0
  5 36  1  0
  6 37  1  0
  7 38  1  0
 10 39  1  0
 10 40  1  0
 11 41  1  0
 11 42  1  0
 13 43  1  0
 13 44  1  0
 14 45  1  0
 14 46  1  0
 15 47  1  0
 15 48  1  0
 20 49  1  0
 23 50  1  0
 24 51  1  0
 25 52  1  0
 27 53  1  0
 30 54  1  0
 30 55  1  0
 31 56  1  0
 31 57  1  0
M  CHG  2  16  -1  20   1
M  END
>  <UniqueID>  (33) 
33

>  <SMILES>  (33) 
COc1ccccc1N1CCN(CCC[N-]C(=O)c2[nH+]c(-c3cccnc3)no2)CC1

>  <Energy>  (33) 
108.60874715507468

>  <Genealogy>  (33) 
COc1ccccc1N1CCN(CCC[N-]C(=O)c2[nH+]c(-c3cccnc3)no2)CC1 (protonated)
COc1ccccc1N1CCN(CCC[N-]C(=O)c2[nH+]c(-c3cccnc3)no2)CC1 (3D coordinates assigned)
COc1ccccc1N1CCN(CCC[N-]C(=O)c2[nH+]c(-c3cccnc3)no2)CC1 (nonaromatic ring conformer: 108.60874715507468 kcal/mol)

>  <smiles>  (33) 
COc1ccccc1N1CCN(CCCNC(=O)c2nc(-c3cccnc3)no2)CC1

>  <score_type>  (33) 
oracle

>  <origin>  (33) 
adg

>  <m_score__min__energy>  (33) 
-10.109999999999999

>  <m_primary>  (33) 
energy

$$$$
33:0
     RDKit          3D

 37 38  0  0  0  0  0  0  0  0999 V2000
   56.2499   30.3795   41.5173 H   0  0  0  0  0  0  0  0  0  0  0  0
   56.6660   30.5880   42.5140 C   0  0  0  0  0  0  0  0  0  0  0  0
   56.2240   29.8990   43.5960 N   0  0  0  0  0  0  0  0  0  0  0  0
   56.7140   30.1460   44.8380 C   0  0  0  0  0  0  0  0  0  0  0  0
   56.3474   29.5709   45.7010 H   0  0  0  0  0  0  0  0  0  0  0  0
   57.6870   31.1350   45.0150 C   0  0  0  0  0  0  0  0  0  0  0  0
   58.1430   31.3640   46.2140 N   0  0  0  0  0  0  0  0  0  0  0  0
   59.4270   31.9320   46.5180 C   0  0  0  0  0  0  0  0  0  0  0  0
   60.5120   31.0990   46.8720 C   0  0  0  0  0  0  0  0  0  0  0  0
   60.3470   29.6060   46.9650 C   0  0  0  0  0  0  0  0  0  0  0  0
   60.3138   29.3060   48.0228 H   0  0  0  0  0  0  0  0  0  0  0  0
   59.4106   29.3091   46.4701 H   0  0  0  0  0  0  0  0  0  0  0  0
   61.1960   29.1117   46.4701 H   0  0  0  0  0  0  0  0  0  0  0  0
   61.7500   31.6770   47.1940 C   0  0  0  0  0  0  0  0  0  0  0  0
   62.5872   31.0339   47.5029 H   0  0  0  0  0  0  0  0  0  0  0  0
   61.9300   33.0640   47.1260 C   0  0  0  0  0  0  0  0  0  0  0  0
   63.2520   33.6660   47.5060 C   0  0  0  0  0  0  0  0  0  0  0  0
   63.3360   33.7042   48.6021 H   0  0  0  0  0  0  0  0  0  0  0  0
   64.0665   33.0500   47.0971 H   0  0  0  0  0  0  0  0  0  0  0  0
   63.3221   34.6848   47.0971 H   0  0  0  0  0  0  0  0  0  0  0  0
   60.8540   33.8860   46.7630 C   0  0  0  0  0  0  0  0  0  0  0  0
   60.9889   34.9772   46.7286 H   0  0  0  0  0  0  0  0  0  0  0  0
   59.6060   33.3290   46.4430 C   0  0  0  0  0  0  0  0  0  0  0  0
   58.4570   34.2270   46.0730 C   0  0  0  0  0  0  0  0  0  0  0  0
   57.9760   34.6029   46.9881 H   0  0  0  0  0  0  0  0  0  0  0  0
   58.8305   35.0750   45.4802 H   0  0  0  0  0  0  0  0  0  0  0  0
   57.7244   33.6597   45.4802 H   0  0  0  0  0  0  0  0  0  0  0  0
   58.1410   31.8250   43.9220 N   0  0  0  0  0  0  0  0  0  0  0  0
   58.8730   32.5640   44.0250 H   0  0  0  0  0  0  0  0  0  0  0  0
   57.6560   31.5670   42.6740 C   0  0  0  0  0  0  0  0  0  0  0  0
   58.1360   32.3670   41.4930 C   0  0  0  0  0  0  0  0  0  0  0  0
   59.0005   31.8599   41.0398 H   0  0  0  0  0  0  0  0  0  0  0  0
   58.4227   33.3717   41.8372 H   0  0  0  0  0  0  0  0  0  0  0  0
   57.0290   32.5000   40.4510 C   0  0  0  0  0  0  0  0  0  0  0  0
   56.0600   32.6164   40.9584 H   0  0  0  0  0  0  0  0  0  0  0  0
   57.2217   33.3815   39.8218 H   0  0  0  0  0  0  0  0  0  0  0  0
   57.0074   31.5980   39.8218 H   0  0  0  0  0  0  0  0  0  0  0  0
  1  2  1  0
  2  3  1  0
  3  4  2  0
  4  5  1  0
  4  6  1  0
  6  7  2  0
  7  8  1  0
  8  9  2  0
  9 10  1  0
 10 11  1  0
 10 12  1  0
 10 13  1  0
  9 14  1  0
 14 15  1  0
 14 16  2  0
 16 17  1  0
 17 18  1  0
 17 19  1  0
 17 20  1  0
 16 21  1  0
 21 22  1  0
 21 23  2  0
 23 24  1  0
 24 25  1  0
 24 26  1  0
 24 27  1  0
  6 28  1  0
 28 29  1  0
 28 30  1  0
 30 31  1  0
 31 32  1  0
 31 33  1  0
 31 34  1  0
 34 35  1  0
 34 36  1  0
 34 37  1  0
 30  2  2  0
 23  8  1  0
M  END
>  <UniqueID>  (34) 
34

>  <SMILES>  (34) 
CCc1cnc/c(=N/c2c(C)cc(C)cc2C)[nH]1

>  <Energy>  (34) 
43.08630700897245

>  <Genealogy>  (34) 
CCc1cnc/c(=N/c2c(C)cc(C)cc2C)[nH]1 (cis-trans isomerization)
CCc1cnc/c(=N/c2c(C)cc(C)cc2C)[nH]1 (3D coordinates assigned)
CCc1cnc/c(=N/c2c(C)cc(C)cc2C)[nH]1 (optimized conformer: 43.08630700897245 kcal/mol)

>  <smiles>  (34) 
CCc1cncc(=Nc2c(C)cc(C)cc2C)[nH]1

>  <score_type>  (34) 
oracle

>  <origin>  (34) 
adg

>  <m_score__min__energy>  (34) 
-6.2400000000000002

>  <m_primary>  (34) 
energy

$$$$
34:0
     RDKit          3D

 57 62  0  0  1  0  0  0  0  0999 V2000
   58.6430   34.1480   45.4840 C   0  0  0  0  0  0  0  0  0  0  0  0
   56.4800   29.7100   44.9160 N   0  0  0  0  0  0  0  0  0  0  0  0
   56.9000   30.6250   44.1190 C   0  0  0  0  0  0  0  0  0  0  0  0
   57.7500   32.5070   42.3720 C   0  0  0  0  0  0  0  0  0  0  0  0
   57.0480   31.4190   41.9010 C   0  0  0  0  0  0  0  0  0  0  0  0
   56.6490   30.5130   42.8090 N   0  0  0  0  0  0  0  0  0  0  0  0
   58.0170   32.6370   43.7210 C   0  0  0  0  0  0  0  0  0  0  0  0
   58.6730   33.6710   44.0970 N   0  0  0  0  0  0  0  0  0  0  0  0
   57.3760   28.8640   45.6280 C   0  0  0  0  0  0  0  0  0  0  0  0
   57.1510   27.4850   45.6290 C   0  0  0  0  0  0  0  0  0  0  0  0
   57.9800   26.6330   46.2950 C   0  0  0  0  0  0  0  0  0  0  0  0
   57.8320   25.1940   46.3540 C   0  0  0  0  0  0  0  0  0  0  0  0
   57.3720   24.4850   47.4710 C   0  0  0  0  0  0  0  0  0  0  0  0
   57.3580   23.1700   47.1860 N   0  0  0  0  0  0  0  0  0  0  0  0
   57.7930   23.0210   45.9270 N   0  0  0  0  0  0  0  0  0  0  0  0
   57.8960   21.7100   45.3160 C   0  0  0  0  0  0  0  0  0  0  0  0
   56.7520   21.5060   44.3500 C   0  0  0  0  0  0  0  0  0  0  0  0
   57.0960   21.0820   42.9560 C   0  0  0  0  0  0  0  0  0  0  0  0
   56.4800   22.4450   43.2510 C   0  0  0  0  0  0  0  0  0  0  0  0
   58.0850   24.2250   45.4060 C   0  0  0  0  0  0  0  0  0  0  0  0
   59.0650   27.1940   46.9770 C   0  0  0  0  0  0  0  0  0  0  0  0
   59.2820   28.5560   46.9730 C   0  0  0  0  0  0  0  0  0  0  0  0
   60.2470   29.3340   47.5490 C   0  0  0  0  0  0  0  0  0  0  0  0
   59.9720   30.6570   47.2120 C   0  0  0  0  0  0  0  0  0  0  0  0
   60.7740   31.8060   47.6330 C   0  0  0  0  0  0  0  0  0  0  0  0
   62.1240   31.9800   47.4550 C   0  0  0  0  0  0  0  0  0  0  0  0
   62.4130   33.2120   48.0190 C   0  0  0  0  0  0  0  0  0  0  0  0
   63.7700   33.8270   48.0620 C   0  0  0  0  0  0  0  0  0  0  0  0
   61.2660   33.7580   48.5210 N   0  0  0  0  0  0  0  0  0  0  0  0
   60.2860   32.8850   48.2740 N   0  0  0  0  0  0  0  0  0  0  0  0
   58.8840   30.6480   46.4640 O   0  0  0  0  0  0  0  0  0  0  0  0
   58.4460   29.4250   46.3010 C   0  0  0  0  0  0  0  0  0  0  0  0
   57.5840   31.6880   44.5710 N   0  0  0  0  0  0  0  0  0  0  0  0
   58.6970   33.2886   46.1685 H   0  0  0  0  0  0  0  0  0  0  0  0
   59.5011   34.8129   45.6617 H   0  0  0  0  0  0  0  0  0  0  0  0
   57.7084   34.7001   45.6617 H   0  0  0  0  0  0  0  0  0  0  0  0
   58.1002   33.2772   41.6691 H   0  0  0  0  0  0  0  0  0  0  0  0
   56.8246   31.2979   40.8308 H   0  0  0  0  0  0  0  0  0  0  0  0
   56.1080   29.6670   42.4720 H   0  0  0  0  0  0  0  0  0  0  0  0
   56.2876   27.0792   45.0814 H   0  0  0  0  0  0  0  0  0  0  0  0
   57.0700   24.9324   48.4295 H   0  0  0  0  0  0  0  0  0  0  0  0
   58.8501   21.6333   44.7740 H   0  0  0  0  0  0  0  0  0  0  0  0
   57.8527   20.9390   46.0994 H   0  0  0  0  0  0  0  0  0  0  0  0
   56.1224   21.1211   45.1658 H   0  0  0  0  0  0  0  0  0  0  0  0
   58.1478   21.0045   42.6433 H   0  0  0  0  0  0  0  0  0  0  0  0
   56.8475   20.2286   42.3080 H   0  0  0  0  0  0  0  0  0  0  0  0
   57.0855   23.3571   43.1442 H   0  0  0  0  0  0  0  0  0  0  0  0
   55.5940   22.9918   42.8960 H   0  0  0  0  0  0  0  0  0  0  0  0
   58.4639   24.4076   44.3896 H   0  0  0  0  0  0  0  0  0  0  0  0
   59.7567   26.5378   47.5257 H   0  0  0  0  0  0  0  0  0  0  0  0
   61.0865   28.9802   48.1654 H   0  0  0  0  0  0  0  0  0  0  0  0
   62.8270   31.2882   46.9680 H   0  0  0  0  0  0  0  0  0  0  0  0
   64.0766   33.9659   49.1092 H   0  0  0  0  0  0  0  0  0  0  0  0
   64.4882   33.1664   47.5542 H   0  0  0  0  0  0  0  0  0  0  0  0
   63.7467   34.8025   47.5542 H   0  0  0  0  0  0  0  0  0  0  0  0
   61.2140   34.6860   49.0000 H   0  0  0  0  0  0  0  0  0  0  0  0
   57.7820   31.7810   45.5880 H   0  0  0  0  0  0  0  0  0  0  0  0
  1  2  1  0
  2  3  2  0
  3  4  1  0
  4  5  2  0
  5  6  1  0
  6  7  1  0
  7  8  2  0
  8  9  1  0
  9 10  2  0
 10 11  1  0
 11 12  1  0
 12 13  1  0
 13 14  2  0
 14 15  1  0
 15 16  1  0
 16 17  1  0
 17 18  1  0
 18 19  1  0
 15 20  1  0
 11 21  2  0
 21 22  1  0
 22 23  1  0
 23 24  2  0
 24 25  1  0
 25 26  1  0
 26 27  2  0
 27 28  1  0
 27 29  1  0
 29 30  1  0
 24 31  1  0
 31 32  1  0
  7 33  1  0
 33  3  1  0
 32  9  1  0
 20 12  2  0
 32 22  2  0
 19 17  1  0
 30 25  2  0
  1 34  1  0
  1 35  1  0
  1 36  1  0
  4 37  1  0
  5 38  1  0
  6 39  1  0
 10 40  1  0
 13 41  1  0
 16 42  1  0
 16 43  1  0
 17 44  1  0
 18 45  1  0
 18 46  1  0
 19 47  1  0
 19 48  1  0
 20 49  1  0
 21 50  1  0
 23 51  1  0
 26 52  1  0
 28 53  1  0
 28 54  1  0
 28 55  1  0
 29 56  1  0
 33 57  1  0
M  END
>  <smiles>  (35) 
CN=c1cc[nH]c(=Nc2cc(-c3cnn(CC4CC4)c3)cc3cc(-c4cc(C)[nH]n4)oc23)[nH]1

>  <score_type>  (35) 
oracle

>  <origin>  (35) 
adg

>  <m_score__min__energy>  (35) 
-9.1500000000000004

>  <m_primary>  (35) 
energy

$$$$
35:0
     RDKit          3D

 33 36  0  0  0  0  0  0  0  0999 V2000
   58.2970   27.2070   47.2060 C   0  0  0  0  0  0  0  0  0  0  0  0
   58.7980   28.6160   47.2020 C   0  0  0  0  0  0  0  0  0  0  0  0
   59.8660   29.0320   47.9120 N   0  0  0  0  0  0  0  0  0  0  0  0
   60.0040   30.3420   47.5990 C   0  0  0  0  0  0  0  0  0  0  0  0
   61.2010   31.0910   48.0150 C   0  0  0  0  0  0  0  0  0  0  0  0
   61.2400   31.7260   49.2680 C   0  0  0  0  0  0  0  0  0  0  0  0
   62.3620   32.4730   49.6410 C   0  0  0  0  0  0  0  0  0  0  0  0
   63.4400   32.6040   48.7610 C   0  0  0  0  0  0  0  0  0  0  0  0
   63.3940   31.9960   47.5030 C   0  0  0  0  0  0  0  0  0  0  0  0
   62.2730   31.2480   47.1260 C   0  0  0  0  0  0  0  0  0  0  0  0
   59.0510   30.7700   46.7240 N   0  0  0  0  0  0  0  0  0  0  0  0
   58.3170   29.6730   46.4550 C   0  0  0  0  0  0  0  0  0  0  0  0
   57.2800   29.7150   45.5190 C   0  0  0  0  0  0  0  0  0  0  0  0
   56.6050   28.6920   45.2360 O   0  0  0  0  0  0  0  0  0  0  0  0
   57.0150   30.8980   44.9030 N   0  0  0  0  0  0  0  0  0  0  0  0
   57.7150   32.0310   45.1980 C   0  0  0  0  0  0  0  0  0  0  0  0
   57.3810   33.2380   44.5720 C   0  0  0  0  0  0  0  0  0  0  0  0
   58.0420   34.4150   44.9260 C   0  0  0  0  0  0  0  0  0  0  0  0
   59.0200   34.3980   45.9220 C   0  0  0  0  0  0  0  0  0  0  0  0
   59.3670   33.1990   46.5530 C   0  0  0  0  0  0  0  0  0  0  0  0
   58.7540   31.9900   46.1660 C   0  0  0  0  0  0  0  0  0  0  0  0
   58.1751   26.8641   48.2441 H   0  0  0  0  0  0  0  0  0  0  0  0
   57.3275   27.1611   46.6884 H   0  0  0  0  0  0  0  0  0  0  0  0
   59.0199   26.5593   46.6884 H   0  0  0  0  0  0  0  0  0  0  0  0
   60.3869   31.6354   49.9564 H   0  0  0  0  0  0  0  0  0  0  0  0
   62.3961   32.9579   50.6278 H   0  0  0  0  0  0  0  0  0  0  0  0
   64.3249   33.1857   49.0584 H   0  0  0  0  0  0  0  0  0  0  0  0
   64.2400   32.1057   46.8086 H   0  0  0  0  0  0  0  0  0  0  0  0
   62.2331   30.7824   46.1302 H   0  0  0  0  0  0  0  0  0  0  0  0
   56.5971   33.2586   43.8006 H   0  0  0  0  0  0  0  0  0  0  0  0
   57.7917   35.3585   44.4189 H   0  0  0  0  0  0  0  0  0  0  0  0
   59.5208   35.3334   46.2123 H   0  0  0  0  0  0  0  0  0  0  0  0
   60.1209   33.1994   47.3540 H   0  0  0  0  0  0  0  0  0  0  0  0
  1  2  1  0
  2  3  1  0
  3  4  2  0
  4  5  1  0
  5  6  2  0
  6  7  1  0
  7  8  2  0
  8  9  1  0
  9 10  2  0
  4 11  1  0
 11 12  1  0
 12 13  1  0
 13 14  2  0
 13 15  1  0
 15 16  1  0
 16 17  2  0
 17 18  1  0
 18 19  2  0
 19 20  1  0
 20 21  2  0
 12  2  2  0
 21 16  1  0
 10  5  1  0
 21 11  1  0
  1 22  1  0
  1 23  1  0
  1 24  1  0
  6 25  1  0
  7 26  1  0
  8 27  1  0
  9 28  1  0
 10 29  1  0
 17 30  1  0
 18 31  1  0
 19 32  1  0
 20 33  1  0
M  CHG  1  15  -1
M  END
>  <UniqueID>  (36) 
35

>  <SMILES>  (36) 
Cc1nc(-c2ccccc2)n2c1c(=O)[n-]c1ccccc12

>  <Energy>  (36) 
89.42770947410413

>  <Genealogy>  (36) 
Cc1nc(-c2ccccc2)n2c1c(=O)[n-]c1ccccc12 (protonated)
Cc1nc(-c2ccccc2)n2c1c(=O)[n-]c1ccccc12 (3D coordinates assigned)
Cc1nc(-c2ccccc2)n2c1c(=O)[n-]c1ccccc12 (optimized conformer: 89.42770947410413 kcal/mol)

>  <smiles>  (36) 
Cc1nc(-c2ccccc2)n2c1c(=O)[nH]c1ccccc12

>  <score_type>  (36) 
oracle

>  <origin>  (36) 
adg

>  <m_score__min__energy>  (36) 
-8.5500000000000007

>  <m_primary>  (36) 
energy

$$$$
36:0
     RDKit          3D

 53 55  0  0  0  0  0  0  0  0999 V2000
   57.6935   25.4076   44.3535 H   0  0  0  0  0  0  0  0  0  0  0  0
   57.6450   25.8980   45.3370 C   0  0  0  0  0  0  0  0  0  0  0  0
   56.3570   26.4430   45.7970 C   0  0  0  0  0  0  0  0  0  0  0  0
   55.5010   25.7000   46.3510 O   0  0  0  0  0  0  0  0  0  0  0  0
   56.0870   27.8370   45.6070 N   0  0  0  0  0  0  0  0  0  0  0  0
   57.0190   28.8970   45.9740 C   0  0  0  0  0  0  0  0  0  0  0  0
   57.9991   28.4544   46.2052 H   0  0  0  0  0  0  0  0  0  0  0  0
   56.6281   29.4281   46.8544 H   0  0  0  0  0  0  0  0  0  0  0  0
   57.1710   29.8750   44.8400 C   0  0  0  0  0  0  0  0  0  0  0  0
   56.5790   29.6220   43.5960 C   0  0  0  0  0  0  0  0  0  0  0  0
   56.0106   28.6933   43.4397 H   0  0  0  0  0  0  0  0  0  0  0  0
   56.7060   30.5410   42.5540 C   0  0  0  0  0  0  0  0  0  0  0  0
   56.2396   30.3305   41.5803 H   0  0  0  0  0  0  0  0  0  0  0  0
   57.4270   31.7360   42.7400 C   0  0  0  0  0  0  0  0  0  0  0  0
   57.5760   32.6850   41.7160 O   0  0  0  0  0  0  0  0  0  0  0  0
   57.0420   32.5440   40.4040 C   0  0  0  0  0  0  0  0  0  0  0  0
   55.9803   32.2637   40.4684 H   0  0  0  0  0  0  0  0  0  0  0  0
   57.1372   33.4981   39.8649 H   0  0  0  0  0  0  0  0  0  0  0  0
   57.5958   31.7613   39.8649 H   0  0  0  0  0  0  0  0  0  0  0  0
   58.0200   31.9990   43.9860 C   0  0  0  0  0  0  0  0  0  0  0  0
   58.7330   33.1990   44.1420 O   0  0  0  0  0  0  0  0  0  0  0  0
   58.3460   34.2580   45.0120 C   0  0  0  0  0  0  0  0  0  0  0  0
   58.4638   33.9356   46.0571 H   0  0  0  0  0  0  0  0  0  0  0  0
   58.9812   35.1365   44.8255 H   0  0  0  0  0  0  0  0  0  0  0  0
   57.2940   34.5199   44.8255 H   0  0  0  0  0  0  0  0  0  0  0  0
   57.8870   31.0660   45.0320 C   0  0  0  0  0  0  0  0  0  0  0  0
   58.3488   31.2728   46.0087 H   0  0  0  0  0  0  0  0  0  0  0  0
   58.7610   25.9790   46.0760 C   0  0  0  0  0  0  0  0  0  0  0  0
   59.2250   25.0424   46.4187 H   0  0  0  0  0  0  0  0  0  0  0  0
   59.4060   27.2600   46.4580 C   0  0  0  0  0  0  0  0  0  0  0  0
   60.0890   27.9840   45.4720 C   0  0  0  0  0  0  0  0  0  0  0  0
   60.1479   27.5871   44.4478 H   0  0  0  0  0  0  0  0  0  0  0  0
   60.6950   29.2030   45.7760 C   0  0  0  0  0  0  0  0  0  0  0  0
   61.2337   29.7543   44.9912 H   0  0  0  0  0  0  0  0  0  0  0  0
   60.6240   29.7320   47.0720 C   0  0  0  0  0  0  0  0  0  0  0  0
   61.1920   31.0260   47.3220 N   0  0  0  0  0  0  0  0  0  0  0  0
   62.4910   31.3590   47.1930 C   0  0  0  0  0  0  0  0  0  0  0  0
   63.3069   30.6760   46.9141 H   0  0  0  0  0  0  0  0  0  0  0  0
   62.6220   32.7050   47.4710 C   0  0  0  0  0  0  0  0  0  0  0  0
   63.5639   33.2731   47.4613 H   0  0  0  0  0  0  0  0  0  0  0  0
   61.4050   33.2070   47.7560 N   0  0  0  0  0  0  0  0  0  0  0  0
   61.1750   34.1970   47.9980 H   0  0  0  0  0  0  0  0  0  0  0  0
   60.5500   32.1720   47.6410 C   0  0  0  0  0  0  0  0  0  0  0  0
   59.0730   32.2960   47.8610 C   0  0  0  0  0  0  0  0  0  0  0  0
   58.8633   32.3136   48.9407 H   0  0  0  0  0  0  0  0  0  0  0  0
   58.7109   33.2277   47.4019 H   0  0  0  0  0  0  0  0  0  0  0  0
   58.5606   31.4377   47.4019 H   0  0  0  0  0  0  0  0  0  0  0  0
   59.9530   29.0090   48.0860 C   0  0  0  0  0  0  0  0  0  0  0  0
   59.9240   29.4820   49.4460 N   0  0  0  0  0  0  0  0  0  0  0  0
   60.9860   29.7580   50.0410 O   0  0  0  0  0  0  0  0  0  0  0  0
   58.7280   29.7750   50.0590 O   0  0  0  0  0  0  0  0  0  0  0  0
   59.3320   27.7880   47.7610 C   0  0  0  0  0  0  0  0  0  0  0  0
   58.7802   27.2378   48.5375 H   0  0  0  0  0  0  0  0  0  0  0  0
  1  2  1  0
  2  3  1  0
  3  4  2  0
  3  5  1  0
  5  6  1  0
  6  7  1  0
  6  8  1  0
  6  9  1  0
  9 10  2  0
 10 11  1  0
 10 12  1  0
 12 13  1  0
 12 14  2  0
 14 15  1  0
 15 16  1  0
 16 17  1  0
 16 18  1  0
 16 19  1  0
 14 20  1  0
 20 21  1  0
 21 22  1  0
 22 23  1  0
 22 24  1  0
 22 25  1  0
 20 26  2  0
 26 27  1  0
  2 28  2  0
 28 29  1  0
 28 30  1  0
 30 31  2  0
 31 32  1  0
 31 33  1  0
 33 34  1  0
 33 35  2  0
 35 36  1  0
 36 37  1  0
 37 38  1  0
 37 39  2  0
 39 40  1  0
 39 41  1  0
 41 42  1  0
 41 43  2  0
 43 44  1  0
 44 45  1  0
 44 46  1  0
 44 47  1  0
 35 48  1  0
 48 49  1  0
 49 50  2  0
 49 51  1  0
 48 52  2  0
 52 53  1  0
 26  9  1  0
 52 30  1  0
 43 36  1  0
M  CHG  4   5  -1  41   1  49   1  51  -1
M  END
>  <UniqueID>  (37) 
36

>  <SMILES>  (37) 
COc1ccc(C[N-]C(=O)/C=C/c2ccc(-n3cc[nH+]c3C)c([N+](=O)[O-])c2)cc1OC

>  <Energy>  (37) 
92.56687855745001

>  <Genealogy>  (37) 
COc1ccc(C[N-]C(=O)C=Cc2ccc(-n3cc[nH+]c3C)c([N+](=O)[O-])c2)cc1OC (protonated)
COc1ccc(C[N-]C(=O)/C=C/c2ccc(-n3cc[nH+]c3C)c([N+](=O)[O-])c2)cc1OC (cis-trans isomerization)
COc1ccc(C[N-]C(=O)/C=C/c2ccc(-n3cc[nH+]c3C)c([N+](=O)[O-])c2)cc1OC (3D coordinates assigned)
COc1ccc(C[N-]C(=O)/C=C/c2ccc(-n3cc[nH+]c3C)c([N+](=O)[O-])c2)cc1OC (optimized conformer: 92.56687855745001 kcal/mol)

>  <smiles>  (37) 
COc1ccc(CNC(=O)C=Cc2ccc(-n3ccnc3C)c([N+](=O)[O-])c2)cc1OC

>  <score_type>  (37) 
oracle

>  <origin>  (37) 
adg

>  <m_score__min__energy>  (37) 
-8.8200000000000003

>  <m_primary>  (37) 
energy

$$$$
37:0
     RDKit          3D

 57 60  0  0  1  0  0  0  0  0999 V2000
   61.1530   30.8200   48.1930 C   0  0  0  0  0  0  0  0  0  0  0  0
   61.0980   31.7000   47.1410 O   0  0  0  0  0  0  0  0  0  0  0  0
   61.6890   32.8940   47.4430 C   0  0  0  0  0  0  0  0  0  0  0  0
   60.9650   33.6810   48.5410 C   0  0  0  0  0  0  0  0  0  0  0  0
   59.5740   34.0330   48.1270 C   0  0  0  0  0  0  0  0  0  0  0  0
   59.2640   33.6380   46.7930 N   0  0  0  0  0  0  0  0  0  0  0  0
   59.1910   34.7640   45.9260 C   0  0  0  0  0  0  0  0  0  0  0  0
   59.1110   34.2180   44.5180 C   0  0  0  0  0  0  0  0  0  0  0  0
   57.9190   33.3340   44.3120 C   0  0  0  0  0  0  0  0  0  0  0  0
   57.4360   32.5760   45.4810 C   0  0  1  0  0  0  0  0  0  0  0  0
   57.0490   31.1990   45.2230 N   0  0  0  0  0  0  0  0  0  0  0  0
   57.8220   30.1980   45.1570 C   0  0  0  0  0  0  0  0  0  0  0  0
   57.3740   28.9640   44.7660 N   0  0  0  0  0  0  0  0  0  0  0  0
   58.2590   27.9220   44.7160 C   0  0  0  0  0  0  0  0  0  0  0  0
   57.8050   26.6300   44.3090 N   0  0  0  0  0  0  0  0  0  0  0  0
   57.9100   26.1770   43.0570 N   0  0  0  0  0  0  0  0  0  0  0  0
   57.3920   24.9320   42.9890 C   0  0  0  0  0  0  0  0  0  0  0  0
   56.9440   24.5890   44.2510 C   0  0  0  0  0  0  0  0  0  0  0  0
   56.3400   23.4380   44.7220 C   0  0  0  0  0  0  0  0  0  0  0  0
   56.1090   22.4010   43.8320 O   0  0  0  0  0  0  0  0  0  0  0  0
   57.0630   21.4980   43.3680 C   0  0  0  0  0  0  0  0  0  0  0  0
   56.0000   23.3870   46.0590 C   0  0  0  0  0  0  0  0  0  0  0  0
   56.2640   24.4690   46.8930 C   0  0  0  0  0  0  0  0  0  0  0  0
   56.8790   25.6180   46.3770 C   0  0  0  0  0  0  0  0  0  0  0  0
   57.2160   25.6730   45.0580 C   0  0  0  0  0  0  0  0  0  0  0  0
   59.5940   28.1060   45.0550 C   0  0  0  0  0  0  0  0  0  0  0  0
   60.0130   29.3680   45.4460 C   0  0  0  0  0  0  0  0  0  0  0  0
   59.1140   30.3700   45.4840 N   0  0  0  0  0  0  0  0  0  0  0  0
   58.1430   32.7540   46.7720 C   0  0  0  0  0  0  0  0  0  0  0  0
   61.1181   31.3782   49.1402 H   0  0  0  0  0  0  0  0  0  0  0  0
   60.2961   30.1323   48.1409 H   0  0  0  0  0  0  0  0  0  0  0  0
   62.0889   30.2443   48.1409 H   0  0  0  0  0  0  0  0  0  0  0  0
   62.7180   32.6969   47.7783 H   0  0  0  0  0  0  0  0  0  0  0  0
   61.6544   33.5088   46.5315 H   0  0  0  0  0  0  0  0  0  0  0  0
   60.9233   33.0680   49.4534 H   0  0  0  0  0  0  0  0  0  0  0  0
   61.5197   34.6130   48.7242 H   0  0  0  0  0  0  0  0  0  0  0  0
   58.8702   33.5356   48.8105 H   0  0  0  0  0  0  0  0  0  0  0  0
   59.4898   35.1290   48.1693 H   0  0  0  0  0  0  0  0  0  0  0  0
   58.2956   35.3611   46.1534 H   0  0  0  0  0  0  0  0  0  0  0  0
   60.0666   35.4183   46.0495 H   0  0  0  0  0  0  0  0  0  0  0  0
   59.0498   35.0621   43.8153 H   0  0  0  0  0  0  0  0  0  0  0  0
   60.0114   33.6108   44.3435 H   0  0  0  0  0  0  0  0  0  0  0  0
   57.0913   33.9693   43.9637 H   0  0  0  0  0  0  0  0  0  0  0  0
   58.2516   32.5696   43.5943 H   0  0  0  0  0  0  0  0  0  0  0  0
   56.4973   33.1225   45.6546 H   0  0  0  0  0  0  0  0  0  0  0  0
   57.3363   24.3022   42.0889 H   0  0  0  0  0  0  0  0  0  0  0  0
   57.5649   21.0229   44.2238 H   0  0  0  0  0  0  0  0  0  0  0  0
   56.5712   20.7268   42.7569 H   0  0  0  0  0  0  0  0  0  0  0  0
   57.8061   22.0313   42.7569 H   0  0  0  0  0  0  0  0  0  0  0  0
   55.5179   22.4864   46.4671 H   0  0  0  0  0  0  0  0  0  0  0  0
   55.9901   24.4227   47.9573 H   0  0  0  0  0  0  0  0  0  0  0  0
   57.0891   26.4736   47.0356 H   0  0  0  0  0  0  0  0  0  0  0  0
   60.3040   27.2669   45.0139 H   0  0  0  0  0  0  0  0  0  0  0  0
   61.0628   29.5482   45.7208 H   0  0  0  0  0  0  0  0  0  0  0  0
   59.4430   31.2910   45.7740 H   0  0  0  0  0  0  0  0  0  0  0  0
   57.4103   33.1336   47.4994 H   0  0  0  0  0  0  0  0  0  0  0  0
   58.5629   31.7633   47.0006 H   0  0  0  0  0  0  0  0  0  0  0  0
  1  2  1  0
  2  3  1  0
  3  4  1  0
  4  5  1  0
  5  6  1  0
  6  7  1  0
  7  8  1  0
  8  9  1  0
  9 10  1  0
 10 11  1  0
 11 12  2  0
 12 13  1  0
 13 14  2  0
 14 15  1  0
 15 16  1  0
 16 17  2  0
 17 18  1  0
 18 19  2  0
 19 20  1  0
 20 21  1  0
 19 22  1  0
 22 23  2  0
 23 24  1  0
 24 25  2  0
 14 26  1  0
 26 27  2  0
 27 28  1  0
 10 29  1  0
 29  6  1  0
 28 12  1  0
 25 15  1  0
 25 18  1  0
  1 30  1  0
  1 31  1  0
  1 32  1  0
  3 33  1  0
  3 34  1  0
  4 35  1  0
  4 36  1  0
  5 37  1  0
  5 38  1  0
  7 39  1  0
  7 40  1  0
  8 41  1  0
  8 42  1  0
  9 43  1  0
  9 44  1  0
 10 45  1  1
 17 46  1  0
 21 47  1  0
 21 48  1  0
 21 49  1  0
 22 50  1  0
 23 51  1  0
 24 52  1  0
 26 53  1  0
 27 54  1  0
 28 55  1  0
 29 56  1  0
 29 57  1  0
M  END
>  <smiles>  (38) 
COCCCN1CCCC(N=c2nc(-n3ncc4c(OC)cccc43)cc[nH]2)C1

>  <score_type>  (38) 
oracle

>  <origin>  (38) 
adg

>  <m_score__min__energy>  (38) 
-8.6199999999999992

>  <m_primary>  (38) 
energy

$$$$
38:0
     RDKit          3D

 36 37  0  0  0  0  0  0  0  0999 V2000
   61.5980   33.7700   46.3840 C   0  0  0  0  0  0  0  0  0  0  0  0
   60.6740   34.1850   47.2550 C   0  0  0  0  0  0  0  0  0  0  0  0
   59.2070   34.1190   46.9340 C   0  0  0  0  0  0  0  0  0  0  0  0
   58.9630   33.2770   45.7600 N   0  0  0  0  0  0  0  0  0  0  0  0
   57.6750   33.1470   45.1310 C   0  0  0  0  0  0  0  0  0  0  0  0
   56.6490   33.8380   45.5380 N   0  0  0  0  0  0  0  0  0  0  0  0
   57.5100   32.1400   44.0250 C   0  0  0  0  0  0  0  0  0  0  0  0
   57.0800   30.8220   44.5940 C   0  0  0  0  0  0  0  0  0  0  0  0
   55.9100   30.1330   44.2890 C   0  0  0  0  0  0  0  0  0  0  0  0
   55.8910   28.9360   44.9160 N   0  0  0  0  0  0  0  0  0  0  0  0
   57.0440   28.8570   45.6040 C   0  0  0  0  0  0  0  0  0  0  0  0
   57.4850   27.7950   46.3910 C   0  0  0  0  0  0  0  0  0  0  0  0
   58.7510   27.9100   47.0170 C   0  0  0  0  0  0  0  0  0  0  0  0
   59.2780   26.8930   47.8280 O   0  0  0  0  0  0  0  0  0  0  0  0
   60.6610   26.7450   48.1330 C   0  0  0  0  0  0  0  0  0  0  0  0
   59.5220   29.0790   46.8260 C   0  0  0  0  0  0  0  0  0  0  0  0
   59.0500   30.1330   46.0240 C   0  0  0  0  0  0  0  0  0  0  0  0
   57.7990   29.9870   45.4270 C   0  0  0  0  0  0  0  0  0  0  0  0
   62.6651   33.8294   46.6442 H   0  0  0  0  0  0  0  0  0  0  0  0
   61.2917   33.3689   45.4066 H   0  0  0  0  0  0  0  0  0  0  0  0
   60.9939   34.5840   48.2289 H   0  0  0  0  0  0  0  0  0  0  0  0
   58.6688   33.6984   47.7962 H   0  0  0  0  0  0  0  0  0  0  0  0
   58.8503   35.1363   46.7154 H   0  0  0  0  0  0  0  0  0  0  0  0
   59.7550   32.7180   45.3640 H   0  0  0  0  0  0  0  0  0  0  0  0
   56.0860   34.4080   44.8680 H   0  0  0  0  0  0  0  0  0  0  0  0
   56.3540   33.8600   46.5380 H   0  0  0  0  0  0  0  0  0  0  0  0
   56.7478   32.4976   43.3171 H   0  0  0  0  0  0  0  0  0  0  0  0
   58.4709   32.0133   43.5048 H   0  0  0  0  0  0  0  0  0  0  0  0
   55.1133   30.5095   43.6306 H   0  0  0  0  0  0  0  0  0  0  0  0
   55.1390   28.2130   44.8610 H   0  0  0  0  0  0  0  0  0  0  0  0
   56.8683   26.8937   46.5225 H   0  0  0  0  0  0  0  0  0  0  0  0
   60.7962   26.7305   49.2246 H   0  0  0  0  0  0  0  0  0  0  0  0
   61.0320   25.8020   47.7050 H   0  0  0  0  0  0  0  0  0  0  0  0
   61.2231   27.5881   47.7050 H   0  0  0  0  0  0  0  0  0  0  0  0
   60.5052   29.1655   47.3116 H   0  0  0  0  0  0  0  0  0  0  0  0
   59.6486   31.0433   45.8726 H   0  0  0  0  0  0  0  0  0  0  0  0
  1  2  2  0
  2  3  1  0
  3  4  1  0
  4  5  1  0
  5  6  2  0
  5  7  1  0
  7  8  1  0
  8  9  2  0
  9 10  1  0
 10 11  1  0
 11 12  2  0
 12 13  1  0
 13 14  1  0
 14 15  1  0
 13 16  2  0
 16 17  1  0
 17 18  2  0
 18  8  1  0
 18 11  1  0
  1 19  1  0
  1 20  1  0
  2 21  1  0
  3 22  1  0
  3 23  1  0
  4 24  1  0
  6 25  1  0
  6 26  1  0
  7 27  1  0
  7 28  1  0
  9 29  1  0
 10 30  1  0
 12 31  1  0
 15 32  1  0
 15 33  1  0
 15 34  1  0
 16 35  1  0
 17 36  1  0
M  CHG  1   6   1
M  END
>  <UniqueID>  (39) 
37

>  <SMILES>  (39) 
C=CCNC(=[NH2+])Cc1c[nH]c2cc(OC)ccc12

>  <Energy>  (39) 
61.01836673152851

>  <Genealogy>  (39) 
C=CCNC(=[NH2+])Cc1c[nH]c2cc(OC)ccc12 (protonated)
C=CCNC(=[NH2+])Cc1c[nH]c2cc(OC)ccc12 (3D coordinates assigned)
C=CCNC(=[NH2+])Cc1c[nH]c2cc(OC)ccc12 (optimized conformer: 61.01836673152851 kcal/mol)

>  <smiles>  (39) 
C=CCNC(=N)Cc1c[nH]c2cc(OC)ccc12

>  <score_type>  (39) 
oracle

>  <origin>  (39) 
adg

>  <m_score__min__energy>  (39) 
-4.54

>  <m_primary>  (39) 
energy

$$$$
39:0
     RDKit          3D

 18 19  0  0  0  0  0  0  0  0999 V2000
   57.0280   30.6540   43.4880 C   0  0  0  0  0  0  0  0  0  0  0  0
   56.9160   30.9870   44.8670 O   0  0  0  0  0  0  0  0  0  0  0  0
   57.4900   32.1250   45.4550 C   0  0  0  0  0  0  0  0  0  0  0  0
   57.4220   33.4090   44.8490 C   0  0  0  0  0  0  0  0  0  0  0  0
   58.0100   34.5280   45.4660 C   0  0  0  0  0  0  0  0  0  0  0  0
   58.6630   34.3540   46.6870 C   0  0  0  0  0  0  0  0  0  0  0  0
   59.2780   35.3420   47.4020 N   0  0  0  0  0  0  0  0  0  0  0  0
   59.8340   34.9320   48.5410 N   0  0  0  0  0  0  0  0  0  0  0  0
   59.5680   33.2910   48.6880 S   0  0  0  0  0  0  0  0  0  0  0  0
   58.7230   33.0990   47.2660 C   0  0  0  0  0  0  0  0  0  0  0  0
   58.1550   31.9720   46.6860 C   0  0  0  0  0  0  0  0  0  0  0  0
   57.3772   29.6156   43.3887 H   0  0  0  0  0  0  0  0  0  0  0  0
   56.0454   30.7582   43.0047 H   0  0  0  0  0  0  0  0  0  0  0  0
   57.7480   31.3308   43.0047 H   0  0  0  0  0  0  0  0  0  0  0  0
   56.9035   33.5290   43.8863 H   0  0  0  0  0  0  0  0  0  0  0  0
   57.9562   35.5208   44.9953 H   0  0  0  0  0  0  0  0  0  0  0  0
   59.3170   36.3400   47.0940 H   0  0  0  0  0  0  0  0  0  0  0  0
   58.2229   30.9887   47.1744 H   0  0  0  0  0  0  0  0  0  0  0  0
  1  2  1  0
  2  3  1  0
  3  4  2  0
  4  5  1  0
  5  6  2  0
  6  7  1  0
  7  8  2  0
  8  9  1  0
  9 10  1  0
 10 11  2  0
 11  3  1  0
 10  6  1  0
  1 12  1  0
  1 13  1  0
  1 14  1  0
  4 15  1  0
  5 16  1  0
  7 17  1  0
 11 18  1  0
M  CHG  1   7   1
M  END
>  <UniqueID>  (40) 
38

>  <SMILES>  (40) 
COc1ccc2[nH+]nsc2c1

>  <Energy>  (40) 
60.32260189495053

>  <Genealogy>  (40) 
COc1ccc2[nH+]nsc2c1 (protonated)
COc1ccc2[nH+]nsc2c1 (3D coordinates assigned)
COc1ccc2[nH+]nsc2c1 (optimized conformer: 60.32260189495053 kcal/mol)

>  <smiles>  (40) 
COc1ccc2nnsc2c1

>  <score_type>  (40) 
oracle

>  <origin>  (40) 
adg

>  <m_score__min__energy>  (40) 
-3.73

>  <m_primary>  (40) 
energy

$$$$
40:0
     RDKit          3D

 51 53  0  0  0  0  0  0  0  0999 V2000
   58.9220   30.0940   49.4840 C   0  0  0  0  0  0  0  0  0  0  0  0
   59.3350   29.8530   48.0320 C   0  0  0  0  0  0  0  0  0  0  0  0
   60.8350   30.0970   47.7980 C   0  0  0  0  0  0  0  0  0  0  0  0
   61.1480   31.4810   47.2040 C   0  0  0  0  0  0  0  0  0  0  0  0
   62.0780   32.2730   48.0840 C   0  0  0  0  0  0  0  0  0  0  0  0
   63.4250   32.0030   48.2580 C   0  0  0  0  0  0  0  0  0  0  0  0
   63.8580   32.9700   49.1450 C   0  0  0  0  0  0  0  0  0  0  0  0
   65.2330   33.0850   49.7160 C   0  0  0  0  0  0  0  0  0  0  0  0
   62.8230   33.7550   49.4920 N   0  0  0  0  0  0  0  0  0  0  0  0
   61.7420   33.3370   48.8530 N   0  0  0  0  0  0  0  0  0  0  0  0
   60.4380   33.9960   48.9530 C   0  0  0  0  0  0  0  0  0  0  0  0
   59.6780   33.8600   47.6600 C   0  0  0  0  0  0  0  0  0  0  0  0
   58.4930   33.1100   47.6030 C   0  0  0  0  0  0  0  0  0  0  0  0
   57.7970   32.9780   46.3980 C   0  0  0  0  0  0  0  0  0  0  0  0
   58.2750   33.5980   45.2290 C   0  0  0  0  0  0  0  0  0  0  0  0
   57.6250   33.4850   43.9900 O   0  0  0  0  0  0  0  0  0  0  0  0
   57.7640   32.3900   43.0840 C   0  0  0  0  0  0  0  0  0  0  0  0
   57.5680   31.0780   43.7970 C   0  0  0  0  0  0  0  0  0  0  0  0
   58.6650   30.2810   44.1540 C   0  0  0  0  0  0  0  0  0  0  0  0
   58.4620   29.0700   44.8180 C   0  0  0  0  0  0  0  0  0  0  0  0
   57.1610   28.6700   45.1290 C   0  0  0  0  0  0  0  0  0  0  0  0
   56.8770   27.1540   45.9610 Cl  0  0  0  0  0  0  0  0  0  0  0  0
   56.1070   29.4590   44.7890 N   0  0  0  0  0  0  0  0  0  0  0  0
   56.2790   30.6420   44.1410 C   0  0  0  0  0  0  0  0  0  0  0  0
   59.4460   34.3630   45.2950 C   0  0  0  0  0  0  0  0  0  0  0  0
   60.1430   34.4950   46.4990 C   0  0  0  0  0  0  0  0  0  0  0  0
   59.6737   29.6553   50.1567 H   0  0  0  0  0  0  0  0  0  0  0  0
   58.8502   31.1758   49.6701 H   0  0  0  0  0  0  0  0  0  0  0  0
   57.9449   29.6243   49.6701 H   0  0  0  0  0  0  0  0  0  0  0  0
   59.1016   28.8112   47.7672 H   0  0  0  0  0  0  0  0  0  0  0  0
   58.7788   30.5644   47.4039 H   0  0  0  0  0  0  0  0  0  0  0  0
   61.3567   30.0062   48.7621 H   0  0  0  0  0  0  0  0  0  0  0  0
   61.1737   29.3480   47.0671 H   0  0  0  0  0  0  0  0  0  0  0  0
   61.6188   31.3469   46.2189 H   0  0  0  0  0  0  0  0  0  0  0  0
   60.2027   32.0372   47.1196 H   0  0  0  0  0  0  0  0  0  0  0  0
   64.0168   31.1999   47.7946 H   0  0  0  0  0  0  0  0  0  0  0  0
   65.1754   33.0802   50.8145 H   0  0  0  0  0  0  0  0  0  0  0  0
   65.8431   32.2347   49.3771 H   0  0  0  0  0  0  0  0  0  0  0  0
   65.6934   34.0248   49.3771 H   0  0  0  0  0  0  0  0  0  0  0  0
   62.8530   34.5620   50.1560 H   0  0  0  0  0  0  0  0  0  0  0  0
   59.8586   33.5309   49.7641 H   0  0  0  0  0  0  0  0  0  0  0  0
   60.5944   35.0643   49.1632 H   0  0  0  0  0  0  0  0  0  0  0  0
   58.1098   32.6232   48.5119 H   0  0  0  0  0  0  0  0  0  0  0  0
   56.8705   32.3861   46.3635 H   0  0  0  0  0  0  0  0  0  0  0  0
   57.0114   32.4834   42.2872 H   0  0  0  0  0  0  0  0  0  0  0  0
   58.7777   32.4116   42.6575 H   0  0  0  0  0  0  0  0  0  0  0  0
   59.6860   30.6102   43.9107 H   0  0  0  0  0  0  0  0  0  0  0  0
   59.3185   28.4372   45.0935 H   0  0  0  0  0  0  0  0  0  0  0  0
   55.4051   31.2593   43.8856 H   0  0  0  0  0  0  0  0  0  0  0  0
   59.8207   34.8647   44.3907 H   0  0  0  0  0  0  0  0  0  0  0  0
   61.0610   35.0999   46.5364 H   0  0  0  0  0  0  0  0  0  0  0  0
  1  2  1  0
  2  3  1  0
  3  4  1  0
  4  5  1  0
  5  6  2  0
  6  7  1  0
  7  8  1  0
  7  9  2  0
  9 10  1  0
 10 11  1  0
 11 12  1  0
 12 13  2  0
 13 14  1  0
 14 15  2  0
 15 16  1  0
 16 17  1  0
 17 18  1  0
 18 19  2  0
 19 20  1  0
 20 21  2  0
 21 22  1  0
 21 23  1  0
 23 24  2  0
 15 25  1  0
 25 26  2  0
 10  5  1  0
 26 12  1  0
 24 18  1  0
  1 27  1  0
  1 28  1  0
  1 29  1  0
  2 30  1  0
  2 31  1  0
  3 32  1  0
  3 33  1  0
  4 34  1  0
  4 35  1  0
  6 36  1  0
  8 37  1  0
  8 38  1  0
  8 39  1  0
  9 40  1  0
 11 41  1  0
 11 42  1  0
 13 43  1  0
 14 44  1  0
 17 45  1  0
 17 46  1  0
 19 47  1  0
 20 48  1  0
 24 49  1  0
 25 50  1  0
 26 51  1  0
M  CHG  1   9   1
M  END
>  <UniqueID>  (41) 
39

>  <SMILES>  (41) 
CCCCc1cc(C)[nH+]n1Cc1ccc(OCc2ccc(Cl)nc2)cc1

>  <Energy>  (41) 
73.91572175434743

>  <Genealogy>  (41) 
CCCCc1cc(C)[nH+]n1Cc1ccc(OCc2ccc(Cl)nc2)cc1 (protonated)
CCCCc1cc(C)[nH+]n1Cc1ccc(OCc2ccc(Cl)nc2)cc1 (3D coordinates assigned)
CCCCc1cc(C)[nH+]n1Cc1ccc(OCc2ccc(Cl)nc2)cc1 (optimized conformer: 73.91572175434743 kcal/mol)

>  <smiles>  (41) 
CCCCc1cc(C)nn1Cc1ccc(OCc2ccc(Cl)nc2)cc1

>  <score_type>  (41) 
oracle

>  <origin>  (41) 
adg

>  <m_score__min__energy>  (41) 
-7.1900000000000004

>  <m_primary>  (41) 
energy

$$$$
41:0
     RDKit          3D

 46 49  0  0  0  0  0  0  0  0999 V2000
   57.7440   28.1590   43.6800 C   0  0  0  0  0  0  0  0  0  0  0  0
   57.2770   29.4680   44.2220 C   0  0  0  0  0  0  0  0  0  0  0  0
   58.0670   30.5730   44.4580 C   0  0  0  0  0  0  0  0  0  0  0  0
   57.1630   31.5260   44.8730 C   0  0  0  0  0  0  0  0  0  0  0  0
   57.4740   32.9380   45.2530 C   0  0  0  0  0  0  0  0  0  0  0  0
   58.5300   32.9680   46.2620 N   0  0  0  0  0  0  0  0  0  0  0  0
   59.7560   33.6930   46.0680 C   0  0  0  0  0  0  0  0  0  0  0  0
   59.9810   34.2470   44.9570 O   0  0  0  0  0  0  0  0  0  0  0  0
   60.7730   33.7840   47.1430 C   0  0  0  0  0  0  0  0  0  0  0  0
   62.1260   33.5380   46.8520 C   0  0  0  0  0  0  0  0  0  0  0  0
   63.0960   33.6210   47.8540 C   0  0  0  0  0  0  0  0  0  0  0  0
   62.7340   33.9680   49.1640 C   0  0  0  0  0  0  0  0  0  0  0  0
   63.7760   34.0180   50.2490 C   0  0  0  0  0  0  0  0  0  0  0  0
   64.1910   32.6570   50.6210 N   0  0  0  0  0  0  0  0  0  0  0  0
   63.2510   31.7870   51.1280 C   0  0  0  0  0  0  0  0  0  0  0  0
   63.5970   30.5280   51.5130 N   0  0  0  0  0  0  0  0  0  0  0  0
   64.8870   30.1390   51.3980 C   0  0  0  0  0  0  0  0  0  0  0  0
   65.5340   28.6450   51.8000 S   0  0  0  0  0  0  0  0  0  0  0  0
   67.1110   29.0730   51.3520 C   0  0  0  0  0  0  0  0  0  0  0  0
   68.2810   28.1470   51.3750 C   0  0  0  0  0  0  0  0  0  0  0  0
   67.1300   30.3810   50.8630 C   0  0  0  0  0  0  0  0  0  0  0  0
   65.8630   30.9740   50.9050 C   0  0  0  0  0  0  0  0  0  0  0  0
   65.5060   32.2630   50.5090 C   0  0  0  0  0  0  0  0  0  0  0  0
   66.3830   33.0480   50.0550 O   0  0  0  0  0  0  0  0  0  0  0  0
   61.3870   34.2200   49.4590 C   0  0  0  0  0  0  0  0  0  0  0  0
   60.4150   34.1360   48.4580 C   0  0  0  0  0  0  0  0  0  0  0  0
   55.9570   31.0070   44.8590 O   0  0  0  0  0  0  0  0  0  0  0  0
   55.9860   29.7670   44.4650 N   0  0  0  0  0  0  0  0  0  0  0  0
   57.9854   27.4824   44.5130 H   0  0  0  0  0  0  0  0  0  0  0  0
   56.9496   27.7129   43.0637 H   0  0  0  0  0  0  0  0  0  0  0  0
   58.6414   28.3165   43.0637 H   0  0  0  0  0  0  0  0  0  0  0  0
   59.1566   30.6702   44.3427 H   0  0  0  0  0  0  0  0  0  0  0  0
   57.8076   33.4892   44.3614 H   0  0  0  0  0  0  0  0  0  0  0  0
   56.5687   33.4060   45.6669 H   0  0  0  0  0  0  0  0  0  0  0  0
   58.3950   32.3890   47.1210 H   0  0  0  0  0  0  0  0  0  0  0  0
   62.4239   33.2777   45.8256 H   0  0  0  0  0  0  0  0  0  0  0  0
   64.1493   33.4131   47.6143 H   0  0  0  0  0  0  0  0  0  0  0  0
   64.6508   34.5778   49.8865 H   0  0  0  0  0  0  0  0  0  0  0  0
   63.3495   34.5161   51.1322 H   0  0  0  0  0  0  0  0  0  0  0  0
   62.2052   32.1145   51.2232 H   0  0  0  0  0  0  0  0  0  0  0  0
   68.5559   27.9294   52.4176 H   0  0  0  0  0  0  0  0  0  0  0  0
   68.0174   27.2103   50.8622 H   0  0  0  0  0  0  0  0  0  0  0  0
   69.1321   28.6188   50.8622 H   0  0  0  0  0  0  0  0  0  0  0  0
   68.0334   30.8852   50.4893 H   0  0  0  0  0  0  0  0  0  0  0  0
   61.0929   34.4856   50.4851 H   0  0  0  0  0  0  0  0  0  0  0  0
   59.3627   34.3465   48.6997 H   0  0  0  0  0  0  0  0  0  0  0  0
  1  2  1  0
  2  3  1  0
  3  4  2  0
  4  5  1  0
  5  6  1  0
  6  7  1  0
  7  8  2  0
  7  9  1  0
  9 10  2  0
 10 11  1  0
 11 12  2  0
 12 13  1  0
 13 14  1  0
 14 15  1  0
 15 16  2  0
 16 17  1  0
 17 18  1  0
 18 19  1  0
 19 20  1  0
 19 21  2  0
 21 22  1  0
 22 23  1  0
 23 24  2  0
 12 25  1  0
 25 26  2  0
  4 27  1  0
 27 28  1  0
 28  2  2  0
 26  9  1  0
 23 14  1  0
 22 17  2  0
  1 29  1  0
  1 30  1  0
  1 31  1  0
  3 32  1  0
  5 33  1  0
  5 34  1  0
  6 35  1  0
 10 36  1  0
 11 37  1  0
 13 38  1  0
 13 39  1  0
 15 40  1  0
 20 41  1  0
 20 42  1  0
 20 43  1  0
 21 44  1  0
 25 45  1  0
 26 46  1  0
M  END
>  <UniqueID>  (42) 
40

>  <SMILES>  (42) 
Cc1cc(CNC(=O)c2ccc(Cn3cnc4sc(C)cc4c3=O)cc2)on1

>  <Energy>  (42) 
111.6213408312501

>  <Genealogy>  (42) 
Cc1cc(CNC(=O)c2ccc(Cn3cnc4sc(C)cc4c3=O)cc2)on1 (3D coordinates assigned)
Cc1cc(CNC(=O)c2ccc(Cn3cnc4sc(C)cc4c3=O)cc2)on1 (optimized conformer: 111.6213408312501 kcal/mol)

>  <smiles>  (42) 
Cc1cc(CNC(=O)c2ccc(Cn3cnc4sc(C)cc4c3=O)cc2)on1

>  <score_type>  (42) 
oracle

>  <origin>  (42) 
adg

>  <m_score__min__energy>  (42) 
-9.1699999999999999

>  <m_primary>  (42) 
energy

$$$$
42:0
     RDKit          3D

 43 44  0  0  0  0  0  0  0  0999 V2000
   59.2000   24.6410   45.9670 C   0  0  0  0  0  0  0  0  0  0  0  0
   59.6080   26.0620   46.3370 C   0  0  0  0  0  0  0  0  0  0  0  0
   58.4220   26.9030   46.5380 N   0  0  0  0  0  0  0  0  0  0  0  0
   57.1330   26.3000   46.9100 C   0  0  0  0  0  0  0  0  0  0  0  0
   56.3000   25.9680   45.6720 C   0  0  0  0  0  0  0  0  0  0  0  0
   54.9280   26.0580   45.9930 O   0  0  0  0  0  0  0  0  0  0  0  0
   54.2820   24.8600   45.6240 C   0  0  0  0  0  0  0  0  0  0  0  0
   58.5680   28.3350   46.5020 C   0  0  0  0  0  0  0  0  0  0  0  0
   59.0230   29.0170   47.6350 C   0  0  0  0  0  0  0  0  0  0  0  0
   59.2180   30.3620   47.5950 N   0  0  0  0  0  0  0  0  0  0  0  0
   58.9950   31.0680   46.4480 C   0  0  0  0  0  0  0  0  0  0  0  0
   59.2130   32.5360   46.3900 C   0  0  0  0  0  0  0  0  0  0  0  0
   59.8190   33.1990   47.4730 C   0  0  0  0  0  0  0  0  0  0  0  0
   60.0240   34.5810   47.4350 C   0  0  0  0  0  0  0  0  0  0  0  0
   59.6200   35.3180   46.3190 C   0  0  0  0  0  0  0  0  0  0  0  0
   59.0070   34.6750   45.2430 C   0  0  0  0  0  0  0  0  0  0  0  0
   58.7990   33.2920   45.2750 C   0  0  0  0  0  0  0  0  0  0  0  0
   58.5510   30.4180   45.3400 N   0  0  0  0  0  0  0  0  0  0  0  0
   58.3230   29.0790   45.3380 C   0  0  0  0  0  0  0  0  0  0  0  0
   57.7570   28.3030   43.8220 S   0  0  0  0  0  0  0  0  0  0  0  0
   56.6120   29.6590   43.4090 C   0  0  0  0  0  0  0  0  0  0  0  0
   59.0324   24.0571   46.8840 H   0  0  0  0  0  0  0  0  0  0  0  0
   58.2733   24.6680   45.3749 H   0  0  0  0  0  0  0  0  0  0  0  0
   59.9998   24.1723   45.3749 H   0  0  0  0  0  0  0  0  0  0  0  0
   60.1968   26.0390   47.2659 H   0  0  0  0  0  0  0  0  0  0  0  0
   60.2079   26.4841   45.5173 H   0  0  0  0  0  0  0  0  0  0  0  0
   57.3195   25.3751   47.4755 H   0  0  0  0  0  0  0  0  0  0  0  0
   56.5740   27.0231   47.5222 H   0  0  0  0  0  0  0  0  0  0  0  0
   56.5366   26.6808   44.8683 H   0  0  0  0  0  0  0  0  0  0  0  0
   56.5327   24.9471   45.3351 H   0  0  0  0  0  0  0  0  0  0  0  0
   53.9852   24.3097   46.5290 H   0  0  0  0  0  0  0  0  0  0  0  0
   53.3879   25.0942   45.0276 H   0  0  0  0  0  0  0  0  0  0  0  0
   54.9690   24.2417   45.0276 H   0  0  0  0  0  0  0  0  0  0  0  0
   59.2242   28.4624   48.5634 H   0  0  0  0  0  0  0  0  0  0  0  0
   59.5210   30.8400   48.4710 H   0  0  0  0  0  0  0  0  0  0  0  0
   60.1340   32.6249   48.3569 H   0  0  0  0  0  0  0  0  0  0  0  0
   60.5039   35.0889   48.2846 H   0  0  0  0  0  0  0  0  0  0  0  0
   59.7851   36.4051   46.2886 H   0  0  0  0  0  0  0  0  0  0  0  0
   58.6863   35.2575   44.3667 H   0  0  0  0  0  0  0  0  0  0  0  0
   58.3100   32.7922   44.4258 H   0  0  0  0  0  0  0  0  0  0  0  0
   56.2300   30.1115   44.3360 H   0  0  0  0  0  0  0  0  0  0  0  0
   57.1436   30.4215   42.8208 H   0  0  0  0  0  0  0  0  0  0  0  0
   55.7712   29.2626   42.8208 H   0  0  0  0  0  0  0  0  0  0  0  0
  1  2  1  0
  2  3  1  0
  3  4  1  0
  4  5  1  0
  5  6  1  0
  6  7  1  0
  3  8  1  0
  8  9  2  0
  9 10  1  0
 10 11  2  0
 11 12  1  0
 12 13  2  0
 13 14  1  0
 14 15  2  0
 15 16  1  0
 16 17  2  0
 11 18  1  0
 18 19  2  0
 19 20  1  0
 20 21  1  0
 19  8  1  0
 17 12  1  0
  1 22  1  0
  1 23  1  0
  1 24  1  0
  2 25  1  0
  2 26  1  0
  4 27  1  0
  4 28  1  0
  5 29  1  0
  5 30  1  0
  7 31  1  0
  7 32  1  0
  7 33  1  0
  9 34  1  0
 10 35  1  0
 13 36  1  0
 14 37  1  0
 15 38  1  0
 16 39  1  0
 17 40  1  0
 21 41  1  0
 21 42  1  0
 21 43  1  0
M  CHG  1  10   1
M  END
>  <UniqueID>  (43) 
41

>  <SMILES>  (43) 
CCN(CCOC)c1c[nH+]c(-c2ccccc2)nc1SC

>  <Energy>  (43) 
42.13299021309882

>  <Genealogy>  (43) 
CCN(CCOC)c1c[nH+]c(-c2ccccc2)nc1SC (protonated)
CCN(CCOC)c1c[nH+]c(-c2ccccc2)nc1SC (3D coordinates assigned)
CCN(CCOC)c1c[nH+]c(-c2ccccc2)nc1SC (optimized conformer: 42.13299021309882 kcal/mol)

>  <smiles>  (43) 
CCN(CCOC)c1cnc(-c2ccccc2)nc1SC

>  <score_type>  (43) 
oracle

>  <origin>  (43) 
adg

>  <m_score__min__energy>  (43) 
-5.75

>  <m_primary>  (43) 
energy

$$$$
43:0
     RDKit          3D

 48 51  0  0  0  0  0  0  0  0999 V2000
   62.6450   34.3800   50.2410 C   0  0  0  0  0  0  0  0  0  0  0  0
   61.6760   33.8180   49.2860 N   0  0  0  0  0  0  0  0  0  0  0  0
   60.4920   33.2750   49.7260 C   0  0  0  0  0  0  0  0  0  0  0  0
   60.1490   33.2510   51.1180 N   0  0  0  0  0  0  0  0  0  0  0  0
   58.9030   33.8650   51.5840 C   0  0  0  0  0  0  0  0  0  0  0  0
   59.1080   34.4330   52.9940 C   0  0  0  0  0  0  0  0  0  0  0  0
   59.6750   33.4630   53.8560 O   0  0  0  0  0  0  0  0  0  0  0  0
   60.9790   33.1310   53.4150 C   0  0  0  0  0  0  0  0  0  0  0  0
   60.9340   32.4420   52.0490 C   0  0  0  0  0  0  0  0  0  0  0  0
   59.6180   32.7350   48.8390 N   0  0  0  0  0  0  0  0  0  0  0  0
   59.8730   32.6990   47.5060 C   0  0  0  0  0  0  0  0  0  0  0  0
   58.8850   32.0820   46.5860 C   0  0  0  0  0  0  0  0  0  0  0  0
   58.8710   30.6910   46.3740 C   0  0  0  0  0  0  0  0  0  0  0  0
   57.9230   30.1310   45.5080 C   0  0  0  0  0  0  0  0  0  0  0  0
   57.8810   28.7110   45.2950 C   0  0  0  0  0  0  0  0  0  0  0  0
   57.8420   27.5200   45.1050 C   0  0  0  0  0  0  0  0  0  0  0  0
   57.7860   26.0990   44.8810 C   0  0  0  0  0  0  0  0  0  0  0  0
   58.4100   25.2250   45.7790 C   0  0  0  0  0  0  0  0  0  0  0  0
   58.3570   23.8500   45.5420 C   0  0  0  0  0  0  0  0  0  0  0  0
   57.6870   23.3630   44.4190 C   0  0  0  0  0  0  0  0  0  0  0  0
   57.0770   24.2650   43.5440 C   0  0  0  0  0  0  0  0  0  0  0  0
   57.1370   25.6040   43.7880 N   0  0  0  0  0  0  0  0  0  0  0  0
   57.0240   30.9280   44.8760 N   0  0  0  0  0  0  0  0  0  0  0  0
   57.0180   32.2750   45.0510 C   0  0  0  0  0  0  0  0  0  0  0  0
   57.9480   32.8790   45.9000 C   0  0  0  0  0  0  0  0  0  0  0  0
   57.9030   34.2230   46.0820 F   0  0  0  0  0  0  0  0  0  0  0  0
   61.0810   33.2200   47.0360 C   0  0  0  0  0  0  0  0  0  0  0  0
   61.9810   33.7710   47.9480 C   0  0  0  0  0  0  0  0  0  0  0  0
   63.0820   34.2180   47.5200 O   0  0  0  0  0  0  0  0  0  0  0  0
   62.3043   34.1824   51.2681 H   0  0  0  0  0  0  0  0  0  0  0  0
   63.6280   33.9118   50.0843 H   0  0  0  0  0  0  0  0  0  0  0  0
   62.7268   35.4657   50.0843 H   0  0  0  0  0  0  0  0  0  0  0  0
   58.6164   34.6772   50.8998 H   0  0  0  0  0  0  0  0  0  0  0  0
   58.1069   33.1062   51.6069 H   0  0  0  0  0  0  0  0  0  0  0  0
   59.7813   35.3010   52.9374 H   0  0  0  0  0  0  0  0  0  0  0  0
   58.1286   34.7296   53.3974 H   0  0  0  0  0  0  0  0  0  0  0  0
   61.5773   34.0506   53.3351 H   0  0  0  0  0  0  0  0  0  0  0  0
   61.4312   32.4407   54.1424 H   0  0  0  0  0  0  0  0  0  0  0  0
   61.9575   32.3283   51.6623 H   0  0  0  0  0  0  0  0  0  0  0  0
   60.4684   31.4510   52.1546 H   0  0  0  0  0  0  0  0  0  0  0  0
   59.6009   30.0465   46.8858 H   0  0  0  0  0  0  0  0  0  0  0  0
   58.9363   25.6172   46.6617 H   0  0  0  0  0  0  0  0  0  0  0  0
   58.8427   23.1517   46.2395 H   0  0  0  0  0  0  0  0  0  0  0  0
   57.6397   22.2813   44.2250 H   0  0  0  0  0  0  0  0  0  0  0  0
   56.5465   23.8930   42.6551 H   0  0  0  0  0  0  0  0  0  0  0  0
   56.6730   26.2580   43.1170 H   0  0  0  0  0  0  0  0  0  0  0  0
   56.2775   32.8927   44.5218 H   0  0  0  0  0  0  0  0  0  0  0  0
   61.3189   33.1960   45.9623 H   0  0  0  0  0  0  0  0  0  0  0  0
  1  2  1  0
  2  3  1  0
  3  4  1  0
  4  5  1  0
  5  6  1  0
  6  7  1  0
  7  8  1  0
  8  9  1  0
  3 10  2  0
 10 11  1  0
 11 12  1  0
 12 13  2  0
 13 14  1  0
 14 15  1  0
 15 16  3  0
 16 17  1  0
 17 18  2  0
 18 19  1  0
 19 20  2  0
 20 21  1  0
 21 22  2  0
 14 23  2  0
 23 24  1  0
 24 25  2  0
 25 26  1  0
 11 27  2  0
 27 28  1  0
 28 29  2  0
 28  2  1  0
  9  4  1  0
 25 12  1  0
 22 17  1  0
  1 30  1  0
  1 31  1  0
  1 32  1  0
  5 33  1  0
  5 34  1  0
  6 35  1  0
  6 36  1  0
  8 37  1  0
  8 38  1  0
  9 39  1  0
  9 40  1  0
 13 41  1  0
 18 42  1  0
 19 43  1  0
 20 44  1  0
 21 45  1  0
 22 46  1  0
 24 47  1  0
 27 48  1  0
M  CHG  1  22   1
M  END
>  <UniqueID>  (44) 
42

>  <SMILES>  (44) 
Cn1c(N2CCOCC2)nc(-c2cc(C#Cc3cccc[nH+]3)ncc2F)cc1=O

>  <Energy>  (44) 
64.17040712508499

>  <Genealogy>  (44) 
Cn1c(N2CCOCC2)nc(-c2cc(C#Cc3cccc[nH+]3)ncc2F)cc1=O (protonated)
Cn1c(N2CCOCC2)nc(-c2cc(C#Cc3cccc[nH+]3)ncc2F)cc1=O (3D coordinates assigned)
Cn1c(N2CCOCC2)nc(-c2cc(C#Cc3cccc[nH+]3)ncc2F)cc1=O (nonaromatic ring conformer: 64.17040712508499 kcal/mol)

>  <smiles>  (44) 
Cn1c(N2CCOCC2)nc(-c2cc(C#Cc3ccccn3)ncc2F)cc1=O

>  <score_type>  (44) 
oracle

>  <origin>  (44) 
adg

>  <m_score__min__energy>  (44) 
-6.0800000000000001

>  <m_primary>  (44) 
energy

$$$$
44:0
     RDKit          3D

 38 39  0  0  0  0  0  0  0  0999 V2000
   64.2894   33.2669   46.1780 H   0  0  0  0  0  0  0  0  0  0  0  0
   63.3780   33.4330   46.7710 C   0  0  0  0  0  0  0  0  0  0  0  0
   62.3790   33.6150   47.4210 C   0  0  0  0  0  0  0  0  0  0  0  0
   61.1660   33.8360   48.2090 C   0  0  0  0  0  0  0  0  0  0  0  0
   60.5799   32.9060   48.2492 H   0  0  0  0  0  0  0  0  0  0  0  0
   61.4410   34.1392   49.2300 H   0  0  0  0  0  0  0  0  0  0  0  0
   60.3920   34.8570   47.6040 O   0  0  0  0  0  0  0  0  0  0  0  0
   59.0480   34.6680   47.3730 N   0  0  0  0  0  0  0  0  0  0  0  0
   58.6290   33.9480   46.3810 C   0  0  0  0  0  0  0  0  0  0  0  0
   58.9410   34.2780   44.9730 C   0  0  0  0  0  0  0  0  0  0  0  0
   58.6548   35.3146   44.7416 H   0  0  0  0  0  0  0  0  0  0  0  0
   60.0151   34.2020   44.7482 H   0  0  0  0  0  0  0  0  0  0  0  0
   58.1020   33.2920   44.1690 C   0  0  0  0  0  0  0  0  0  0  0  0
   57.1915   33.7843   43.7968 H   0  0  0  0  0  0  0  0  0  0  0  0
   58.6588   32.9169   43.2977 H   0  0  0  0  0  0  0  0  0  0  0  0
   57.7320   32.1460   45.1240 C   0  0  2  0  0  0  0  0  0  0  0  0
   58.4266   31.3027   44.9960 H   0  0  0  0  0  0  0  0  0  0  0  0
   56.3890   31.6210   44.8530 N   0  0  0  0  0  0  0  0  0  0  0  0
   56.4530   29.9850   44.2630 S   0  0  0  0  0  0  0  0  0  0  0  0
   56.6670   29.9800   42.7750 O   0  0  0  0  0  0  0  0  0  0  0  0
   55.1420   29.3120   44.5550 O   0  0  0  0  0  0  0  0  0  0  0  0
   57.7350   29.0840   45.0620 C   0  0  0  0  0  0  0  0  0  0  0  0
   57.4580   28.3990   46.2050 N   0  0  0  0  0  0  0  0  0  0  0  0
   58.4130   27.6970   46.8690 C   0  0  0  0  0  0  0  0  0  0  0  0
   58.1513   27.1553   47.7899 H   0  0  0  0  0  0  0  0  0  0  0  0
   59.7270   27.6580   46.3900 C   0  0  0  0  0  0  0  0  0  0  0  0
   60.6840   26.9240   47.1040 O   0  0  0  0  0  0  0  0  0  0  0  0
   60.7000   26.7910   48.5210 C   0  0  0  0  0  0  0  0  0  0  0  0
   60.5808   27.7818   48.9836 H   0  0  0  0  0  0  0  0  0  0  0  0
   59.8741   26.1369   48.8372 H   0  0  0  0  0  0  0  0  0  0  0  0
   61.6575   26.3515   48.8372 H   0  0  0  0  0  0  0  0  0  0  0  0
   60.0330   28.3620   45.2110 C   0  0  0  0  0  0  0  0  0  0  0  0
   61.0585   28.3500   44.8133 H   0  0  0  0  0  0  0  0  0  0  0  0
   59.0340   29.0760   44.5460 C   0  0  0  0  0  0  0  0  0  0  0  0
   59.2675   29.6277   43.6235 H   0  0  0  0  0  0  0  0  0  0  0  0
   57.7930   32.7310   46.5350 C   0  0  0  0  0  0  0  0  0  0  0  0
   56.7865   32.9906   46.8949 H   0  0  0  0  0  0  0  0  0  0  0  0
   58.2047   32.0237   47.2701 H   0  0  0  0  0  0  0  0  0  0  0  0
  1  2  1  0
  2  3  3  0
  3  4  1  0
  4  5  1  0
  4  6  1  0
  4  7  1  0
  7  8  1  0
  8  9  2  0
  9 10  1  0
 10 11  1  0
 10 12  1  0
 10 13  1  0
 13 14  1  0
 13 15  1  0
 13 16  1  0
 16 17  1  1
 16 18  1  0
 18 19  1  0
 19 20  2  0
 19 21  2  0
 19 22  1  0
 22 23  2  0
 23 24  1  0
 24 25  1  0
 24 26  2  0
 26 27  1  0
 27 28  1  0
 28 29  1  0
 28 30  1  0
 28 31  1  0
 26 32  1  0
 32 33  1  0
 32 34  2  0
 34 35  1  0
 16 36  1  0
 36 37  1  0
 36 38  1  0
 36  9  1  0
 34 22  1  0
M  CHG  1  18  -1
M  END
>  <UniqueID>  (45) 
43

>  <SMILES>  (45) 
C#CCO/N=C1/CC[C@H]([N-]S(=O)(=O)c2ccc(OC)cn2)C1

>  <Energy>  (45) 
29.636294612170698

>  <Genealogy>  (45) 
C#CCON=C1CCC([N-]S(=O)(=O)c2ccc(OC)cn2)C1 (protonated)
C#CCON=C1CC[C@H]([N-]S(=O)(=O)c2ccc(OC)cn2)C1 (chirality)
C#CCO/N=C1/CC[C@H]([N-]S(=O)(=O)c2ccc(OC)cn2)C1 (cis-trans isomerization)
C#CCO/N=C1/CC[C@H]([N-]S(=O)(=O)c2ccc(OC)cn2)C1 (3D coordinates assigned)
C#CCO/N=C1/CC[C@H]([N-]S(=O)(=O)c2ccc(OC)cn2)C1 (nonaromatic ring conformer: 29.636294612170698 kcal/mol)

>  <smiles>  (45) 
C#CCON=C1CCC(NS(=O)(=O)c2ccc(OC)cn2)C1

>  <score_type>  (45) 
oracle

>  <origin>  (45) 
adg

>  <m_score__min__energy>  (45) 
-8.6400000000000006

>  <m_primary>  (45) 
energy

$$$$
45:0
     RDKit          3D

 61 65  0  0  0  0  0  0  0  0999 V2000
   56.5460   30.4490   43.3580 C   0  0  0  0  0  0  0  0  0  0  0  0
   56.3880   31.1490   44.5880 O   0  0  0  0  0  0  0  0  0  0  0  0
   57.3970   31.8950   45.2170 C   0  0  0  0  0  0  0  0  0  0  0  0
   57.2910   33.2910   45.3840 C   0  0  0  0  0  0  0  0  0  0  0  0
   58.2940   34.0030   46.0450 C   0  0  0  0  0  0  0  0  0  0  0  0
   59.4120   33.3350   46.5440 C   0  0  0  0  0  0  0  0  0  0  0  0
   59.5350   31.9550   46.3800 C   0  0  0  0  0  0  0  0  0  0  0  0
   58.5380   31.2230   45.7110 C   0  0  0  0  0  0  0  0  0  0  0  0
   58.6900   29.8020   45.5400 N   0  0  0  0  0  0  0  0  0  0  0  0
   59.6250   29.2590   44.5500 C   0  0  0  0  0  0  0  0  0  0  0  0
   60.3260   28.0270   45.1370 C   0  0  0  0  0  0  0  0  0  0  0  0
   59.3870   26.9890   45.6460 N   0  0  0  0  0  0  0  0  0  0  0  0
   59.8840   26.3430   46.8840 C   0  0  0  0  0  0  0  0  0  0  0  0
   60.6930   27.3250   47.7530 C   0  0  0  0  0  0  0  0  0  0  0  0
   59.8980   27.8840   48.9390 C   0  0  0  0  0  0  0  0  0  0  0  0
   60.2160   29.2970   49.1340 N   0  0  0  0  0  0  0  0  0  0  0  0
   61.2340   29.9150   48.5390 N   0  0  0  0  0  0  0  0  0  0  0  0
   61.1830   31.2280   48.8780 C   0  0  0  0  0  0  0  0  0  0  0  0
   62.0890   32.2170   48.3660 N   0  0  0  0  0  0  0  0  0  0  0  0
   62.8970   32.0170   47.1740 C   0  0  0  0  0  0  0  0  0  0  0  0
   63.7060   33.3130   46.9760 C   0  0  0  0  0  0  0  0  0  0  0  0
   63.4090   34.2270   48.1750 C   0  0  0  0  0  0  0  0  0  0  0  0
   62.4250   33.4590   48.9610 C   0  0  0  0  0  0  0  0  0  0  0  0
   61.9790   33.8410   50.0740 O   0  0  0  0  0  0  0  0  0  0  0  0
   60.0780   31.4270   49.6830 C   0  0  0  0  0  0  0  0  0  0  0  0
   59.5200   32.5570   50.1790 N   0  0  0  0  0  0  0  0  0  0  0  0
   58.3490   32.4410   50.8780 C   0  0  0  0  0  0  0  0  0  0  0  0
   57.7540   31.2150   51.0410 N   0  0  0  0  0  0  0  0  0  0  0  0
   58.3040   30.0800   50.5160 C   0  0  0  0  0  0  0  0  0  0  0  0
   59.5000   30.2090   49.8200 C   0  0  0  0  0  0  0  0  0  0  0  0
   57.9830   27.4520   45.7870 C   0  0  0  0  0  0  0  0  0  0  0  0
   57.8950   28.8750   46.3540 C   0  0  0  0  0  0  0  0  0  0  0  0
   56.7839   29.3950   43.5639 H   0  0  0  0  0  0  0  0  0  0  0  0
   55.6120   30.5079   42.7800 H   0  0  0  0  0  0  0  0  0  0  0  0
   57.3642   30.9034   42.7800 H   0  0  0  0  0  0  0  0  0  0  0  0
   56.4121   33.8229   44.9909 H   0  0  0  0  0  0  0  0  0  0  0  0
   58.2023   35.0918   46.1723 H   0  0  0  0  0  0  0  0  0  0  0  0
   60.1987   33.8975   47.0681 H   0  0  0  0  0  0  0  0  0  0  0  0
   60.4193   31.4352   46.7773 H   0  0  0  0  0  0  0  0  0  0  0  0
   59.0734   28.9706   43.6431 H   0  0  0  0  0  0  0  0  0  0  0  0
   60.3745   30.0222   44.2936 H   0  0  0  0  0  0  0  0  0  0  0  0
   60.9500   27.5755   44.3516 H   0  0  0  0  0  0  0  0  0  0  0  0
   60.9183   28.3736   45.9967 H   0  0  0  0  0  0  0  0  0  0  0  0
   59.0246   25.9772   47.4651 H   0  0  0  0  0  0  0  0  0  0  0  0
   60.5465   25.5134   46.5961 H   0  0  0  0  0  0  0  0  0  0  0  0
   61.5773   26.7993   48.1425 H   0  0  0  0  0  0  0  0  0  0  0  0
   60.9651   28.1774   47.1131 H   0  0  0  0  0  0  0  0  0  0  0  0
   58.8217   27.7774   48.7384 H   0  0  0  0  0  0  0  0  0  0  0  0
   60.1659   27.3254   49.8480 H   0  0  0  0  0  0  0  0  0  0  0  0
   63.5754   31.1623   47.3130 H   0  0  0  0  0  0  0  0  0  0  0  0
   62.2687   31.8006   46.2974 H   0  0  0  0  0  0  0  0  0  0  0  0
   64.7809   33.0829   46.9357 H   0  0  0  0  0  0  0  0  0  0  0  0
   63.4262   33.8056   46.0331 H   0  0  0  0  0  0  0  0  0  0  0  0
   64.3205   34.4139   48.7617 H   0  0  0  0  0  0  0  0  0  0  0  0
   63.0371   35.2179   47.8754 H   0  0  0  0  0  0  0  0  0  0  0  0
   57.8813   33.3369   51.3123 H   0  0  0  0  0  0  0  0  0  0  0  0
   57.8184   29.1007   50.6395 H   0  0  0  0  0  0  0  0  0  0  0  0
   57.5035   27.4350   44.7972 H   0  0  0  0  0  0  0  0  0  0  0  0
   57.4742   26.7766   46.4906 H   0  0  0  0  0  0  0  0  0  0  0  0
   56.8445   29.2012   46.3523 H   0  0  0  0  0  0  0  0  0  0  0  0
   58.2898   28.8742   47.3807 H   0  0  0  0  0  0  0  0  0  0  0  0
  1  2  1  0
  2  3  1  0
  3  4  2  0
  4  5  1  0
  5  6  2  0
  6  7  1  0
  7  8  2  0
  8  9  1  0
  9 10  1  0
 10 11  1  0
 11 12  1  0
 12 13  1  0
 13 14  1  0
 14 15  1  0
 15 16  1  0
 16 17  1  0
 17 18  2  0
 18 19  1  0
 19 20  1  0
 20 21  1  0
 21 22  1  0
 22 23  1  0
 23 24  2  0
 18 25  1  0
 25 26  2  0
 26 27  1  0
 27 28  2  0
 28 29  1  0
 29 30  2  0
 12 31  1  0
 31 32  1  0
  8  3  1  0
 32  9  1  0
 30 16  1  0
 23 19  1  0
 30 25  1  0
  1 33  1  0
  1 34  1  0
  1 35  1  0
  4 36  1  0
  5 37  1  0
  6 38  1  0
  7 39  1  0
 10 40  1  0
 10 41  1  0
 11 42  1  0
 11 43  1  0
 13 44  1  0
 13 45  1  0
 14 46  1  0
 14 47  1  0
 15 48  1  0
 15 49  1  0
 20 50  1  0
 20 51  1  0
 21 52  1  0
 21 53  1  0
 22 54  1  0
 22 55  1  0
 27 56  1  0
 29 57  1  0
 31 58  1  0
 31 59  1  0
 32 60  1  0
 32 61  1  0
M  END
>  <UniqueID>  (46) 
44

>  <SMILES>  (46) 
COc1ccccc1N1CCN(CCCn2nc(N3CCCC3=O)c3ncncc32)CC1

>  <Energy>  (46) 
128.6536043660056

>  <Genealogy>  (46) 
COc1ccccc1N1CCN(CCCn2nc(N3CCCC3=O)c3ncncc32)CC1 (3D coordinates assigned)
COc1ccccc1N1CCN(CCCn2nc(N3CCCC3=O)c3ncncc32)CC1 (nonaromatic ring conformer: 128.6536043660056 kcal/mol)

>  <smiles>  (46) 
COc1ccccc1N1CCN(CCCn2nc(N3CCCC3=O)c3ncncc32)CC1

>  <score_type>  (46) 
oracle

>  <origin>  (46) 
adg

>  <m_score__min__energy>  (46) 
-9.3699999999999992

>  <m_primary>  (46) 
energy

$$$$
46:0
     RDKit          3D

 25 26  0  0  0  0  0  0  0  0999 V2000
   59.7090   28.9210   47.2810 C   0  0  0  0  0  0  0  0  0  0  0  0
   60.1740   29.5210   46.1900 C   0  0  0  0  0  0  0  0  0  0  0  0
   59.5920   29.2510   44.8240 C   0  0  0  0  0  0  0  0  0  0  0  0
   58.1580   29.3430   44.8590 N   0  0  0  0  0  0  0  0  0  0  0  0
   57.3870   30.4410   44.9460 C   0  0  0  0  0  0  0  0  0  0  0  0
   57.8490   31.8230   45.0240 C   0  0  0  0  0  0  0  0  0  0  0  0
   58.0320   32.3230   46.3190 C   0  0  0  0  0  0  0  0  0  0  0  0
   58.4690   33.6240   46.4930 C   0  0  0  0  0  0  0  0  0  0  0  0
   58.7050   34.3710   45.3600 C   0  0  0  0  0  0  0  0  0  0  0  0
   58.5240   33.8740   44.1070 N   0  0  0  0  0  0  0  0  0  0  0  0
   58.0960   32.6030   43.9140 C   0  0  0  0  0  0  0  0  0  0  0  0
   56.0970   30.0690   44.9490 N   0  0  0  0  0  0  0  0  0  0  0  0
   56.0280   28.7310   44.8650 N   0  0  0  0  0  0  0  0  0  0  0  0
   57.3080   28.3020   44.8110 C   0  0  0  0  0  0  0  0  0  0  0  0
   57.7730   26.7330   44.7010 S   0  0  0  0  0  0  0  0  0  0  0  0
   60.1558   29.1402   48.2620 H   0  0  0  0  0  0  0  0  0  0  0  0
   58.8774   28.2052   47.2029 H   0  0  0  0  0  0  0  0  0  0  0  0
   61.0061   30.2341   46.2853 H   0  0  0  0  0  0  0  0  0  0  0  0
   59.9846   29.9908   44.1109 H   0  0  0  0  0  0  0  0  0  0  0  0
   59.8751   28.2349   44.5119 H   0  0  0  0  0  0  0  0  0  0  0  0
   57.8296   31.6855   47.1923 H   0  0  0  0  0  0  0  0  0  0  0  0
   58.6221   34.0457   47.4974 H   0  0  0  0  0  0  0  0  0  0  0  0
   59.0529   35.4084   45.4729 H   0  0  0  0  0  0  0  0  0  0  0  0
   57.9495   32.2042   42.8994 H   0  0  0  0  0  0  0  0  0  0  0  0
   55.1420   28.1550   44.8470 H   0  0  0  0  0  0  0  0  0  0  0  0
  1  2  2  0
  2  3  1  0
  3  4  1  0
  4  5  1  0
  5  6  1  0
  6  7  2  0
  7  8  1  0
  8  9  2  0
  9 10  1  0
 10 11  2  0
  5 12  2  0
 12 13  1  0
 13 14  1  0
 14 15  2  0
 14  4  1  0
 11  6  1  0
  1 16  1  0
  1 17  1  0
  2 18  1  0
  3 19  1  0
  3 20  1  0
  7 21  1  0
  8 22  1  0
  9 23  1  0
 11 24  1  0
 13 25  1  0
M  END
>  <smiles>  (47) 
C=CCn1c(-c2cccnc2)n[nH]c1=S

>  <score_type>  (47) 
oracle

>  <origin>  (47) 
adg

>  <m_score__min__energy>  (47) 
-6.2300000000000004

>  <m_primary>  (47) 
energy

$$$$
47:0
     RDKit          3D

 46 49  0  0  0  0  0  0  0  0999 V2000
   56.6010   23.7250   43.3190 C   0  0  0  0  0  0  0  0  0  0  0  0
   57.2150   24.9510   42.9380 O   0  0  0  0  0  0  0  0  0  0  0  0
   57.7140   25.9020   43.8410 C   0  0  0  0  0  0  0  0  0  0  0  0
   57.7720   25.6700   45.2260 C   0  0  0  0  0  0  0  0  0  0  0  0
   58.2780   26.6490   46.0850 C   0  0  0  0  0  0  0  0  0  0  0  0
   58.7390   27.8800   45.5810 C   0  0  0  0  0  0  0  0  0  0  0  0
   59.2760   28.9140   46.5010 C   0  0  0  0  0  0  0  0  0  0  0  0
   59.3330   30.2950   46.2560 C   0  0  0  0  0  0  0  0  0  0  0  0
   59.9060   31.0100   47.3150 C   0  0  0  0  0  0  0  0  0  0  0  0
   60.1470   32.3870   47.3650 C   0  0  0  0  0  0  0  0  0  0  0  0
   59.7860   33.1830   46.2660 O   0  0  0  0  0  0  0  0  0  0  0  0
   58.5230   33.8330   46.0970 C   0  0  0  0  0  0  0  0  0  0  0  0
   57.3950   32.8150   45.8930 C   0  0  0  0  0  0  0  0  0  0  0  0
   57.3730   32.3070   44.5220 N   0  0  0  0  0  0  0  0  0  0  0  0
   58.1690   32.8450   43.4330 C   0  0  0  0  0  0  0  0  0  0  0  0
   57.7430   32.0630   42.1780 C   0  0  0  0  0  0  0  0  0  0  0  0
   56.9500   30.8370   42.6600 C   0  0  0  0  0  0  0  0  0  0  0  0
   56.7370   31.1180   44.0930 C   0  0  0  0  0  0  0  0  0  0  0  0
   56.0810   30.3690   44.8640 O   0  0  0  0  0  0  0  0  0  0  0  0
   60.7400   32.9090   48.5400 C   0  0  0  0  0  0  0  0  0  0  0  0
   60.9180   34.2410   48.7150 F   0  0  0  0  0  0  0  0  0  0  0  0
   61.1100   32.0370   49.5840 C   0  0  0  0  0  0  0  0  0  0  0  0
   60.8870   30.6960   49.4810 N   0  0  0  0  0  0  0  0  0  0  0  0
   60.2920   30.2050   48.3680 C   0  0  0  0  0  0  0  0  0  0  0  0
   59.9450   28.6040   48.0330 S   0  0  0  0  0  0  0  0  0  0  0  0
   58.6730   28.1060   44.1930 C   0  0  0  0  0  0  0  0  0  0  0  0
   58.1670   27.1240   43.3360 C   0  0  0  0  0  0  0  0  0  0  0  0
   56.5671   23.6574   44.4164 H   0  0  0  0  0  0  0  0  0  0  0  0
   55.5776   23.6872   42.9176 H   0  0  0  0  0  0  0  0  0  0  0  0
   57.1837   22.8828   42.9176 H   0  0  0  0  0  0  0  0  0  0  0  0
   57.4172   24.7128   45.6358 H   0  0  0  0  0  0  0  0  0  0  0  0
   58.3166   26.4557   47.1672 H   0  0  0  0  0  0  0  0  0  0  0  0
   58.9669   30.7651   45.3314 H   0  0  0  0  0  0  0  0  0  0  0  0
   58.3062   34.4331   46.9930 H   0  0  0  0  0  0  0  0  0  0  0  0
   58.5787   34.4728   45.2039 H   0  0  0  0  0  0  0  0  0  0  0  0
   57.5447   31.9724   46.5840 H   0  0  0  0  0  0  0  0  0  0  0  0
   56.4366   33.3177   46.0902 H   0  0  0  0  0  0  0  0  0  0  0  0
   57.9655   33.9182   43.3033 H   0  0  0  0  0  0  0  0  0  0  0  0
   59.2465   32.7415   43.6288 H   0  0  0  0  0  0  0  0  0  0  0  0
   57.1102   32.6939   41.5365 H   0  0  0  0  0  0  0  0  0  0  0  0
   58.6205   31.7565   41.5897 H   0  0  0  0  0  0  0  0  0  0  0  0
   55.9912   30.7526   42.1274 H   0  0  0  0  0  0  0  0  0  0  0  0
   57.4722   29.8859   42.4790 H   0  0  0  0  0  0  0  0  0  0  0  0
   61.5832   32.4425   50.4905 H   0  0  0  0  0  0  0  0  0  0  0  0
   59.0225   29.0634   43.7792 H   0  0  0  0  0  0  0  0  0  0  0  0
   58.1250   27.3150   42.2535 H   0  0  0  0  0  0  0  0  0  0  0  0
  1  2  1  0
  2  3  1  0
  3  4  2  0
  4  5  1  0
  5  6  2  0
  6  7  1  0
  7  8  2  0
  8  9  1  0
  9 10  2  0
 10 11  1  0
 11 12  1  0
 12 13  1  0
 13 14  1  0
 14 15  1  0
 15 16  1  0
 16 17  1  0
 17 18  1  0
 18 19  2  0
 10 20  1  0
 20 21  1  0
 20 22  2  0
 22 23  1  0
 23 24  2  0
 24 25  1  0
  6 26  1  0
 26 27  2  0
 27  3  1  0
 25  7  1  0
 24  9  1  0
 18 14  1  0
  1 28  1  0
  1 29  1  0
  1 30  1  0
  4 31  1  0
  5 32  1  0
  8 33  1  0
 12 34  1  0
 12 35  1  0
 13 36  1  0
 13 37  1  0
 15 38  1  0
 15 39  1  0
 16 40  1  0
 16 41  1  0
 17 42  1  0
 17 43  1  0
 22 44  1  0
 26 45  1  0
 27 46  1  0
M  END
>  <UniqueID>  (48) 
45

>  <SMILES>  (48) 
COc1ccc(-c2cc3c(OCCN4CCCC4=O)c(F)cnc3s2)cc1

>  <Energy>  (48) 
87.570331679269

>  <Genealogy>  (48) 
COc1ccc(-c2cc3c(OCCN4CCCC4=O)c(F)cnc3s2)cc1 (3D coordinates assigned)
COc1ccc(-c2cc3c(OCCN4CCCC4=O)c(F)cnc3s2)cc1 (nonaromatic ring conformer: 87.570331679269 kcal/mol)

>  <smiles>  (48) 
COc1ccc(-c2cc3c(OCCN4CCCC4=O)c(F)cnc3s2)cc1

>  <score_type>  (48) 
oracle

>  <origin>  (48) 
adg

>  <m_score__min__energy>  (48) 
-7.7300000000000004

>  <m_primary>  (48) 
energy

$$$$
48:0
     RDKit          3D

 30 31  0  0  0  0  0  0  0  0999 V2000
   56.6550   30.4500   42.6980 C   0  0  0  0  0  0  0  0  0  0  0  0
   56.6150   30.6680   44.1810 C   0  0  0  0  0  0  0  0  0  0  0  0
   55.8530   29.9390   44.8730 O   0  0  0  0  0  0  0  0  0  0  0  0
   57.4430   31.7110   44.8460 C   0  0  0  0  0  0  0  0  0  0  0  0
   57.5580   32.9900   44.2710 C   0  0  0  0  0  0  0  0  0  0  0  0
   58.3310   33.9810   44.8840 C   0  0  0  0  0  0  0  0  0  0  0  0
   59.0120   33.7100   46.0800 C   0  0  0  0  0  0  0  0  0  0  0  0
   59.8120   34.7880   46.7590 C   0  0  0  0  0  0  0  0  0  0  0  0
   61.0750   34.2110   47.3380 C   0  0  0  0  0  0  0  0  0  0  0  0
   62.1280   33.8210   46.4940 C   0  0  0  0  0  0  0  0  0  0  0  0
   63.3150   33.3190   47.0350 C   0  0  0  0  0  0  0  0  0  0  0  0
   63.4640   33.2120   48.4210 C   0  0  0  0  0  0  0  0  0  0  0  0
   64.6170   32.7270   48.9440 F   0  0  0  0  0  0  0  0  0  0  0  0
   62.4250   33.6100   49.2680 C   0  0  0  0  0  0  0  0  0  0  0  0
   61.2360   34.1130   48.7300 C   0  0  0  0  0  0  0  0  0  0  0  0
   58.8920   32.4410   46.6650 C   0  0  0  0  0  0  0  0  0  0  0  0
   58.1190   31.4500   46.0540 C   0  0  0  0  0  0  0  0  0  0  0  0
   56.8499   29.3878   42.4887 H   0  0  0  0  0  0  0  0  0  0  0  0
   55.6888   30.7390   42.2587 H   0  0  0  0  0  0  0  0  0  0  0  0
   57.4556   31.0632   42.2587 H   0  0  0  0  0  0  0  0  0  0  0  0
   57.0344   33.2127   43.3296 H   0  0  0  0  0  0  0  0  0  0  0  0
   58.4054   34.9783   44.4259 H   0  0  0  0  0  0  0  0  0  0  0  0
   60.0708   35.5653   46.0250 H   0  0  0  0  0  0  0  0  0  0  0  0
   59.2111   35.2234   47.5710 H   0  0  0  0  0  0  0  0  0  0  0  0
   62.0180   33.9110   45.4032 H   0  0  0  0  0  0  0  0  0  0  0  0
   64.1333   33.0076   46.3691 H   0  0  0  0  0  0  0  0  0  0  0  0
   62.5429   33.5274   50.3585 H   0  0  0  0  0  0  0  0  0  0  0  0
   60.4239   34.4330   49.3994 H   0  0  0  0  0  0  0  0  0  0  0  0
   59.4098   32.2243   47.6110 H   0  0  0  0  0  0  0  0  0  0  0  0
   58.0377   30.4572   46.5206 H   0  0  0  0  0  0  0  0  0  0  0  0
  1  2  1  0
  2  3  2  0
  2  4  1  0
  4  5  2  0
  5  6  1  0
  6  7  2  0
  7  8  1  0
  8  9  1  0
  9 10  2  0
 10 11  1  0
 11 12  2  0
 12 13  1  0
 12 14  1  0
 14 15  2  0
  7 16  1  0
 16 17  2  0
 17  4  1  0
 15  9  1  0
  1 18  1  0
  1 19  1  0
  1 20  1  0
  5 21  1  0
  6 22  1  0
  8 23  1  0
  8 24  1  0
 10 25  1  0
 11 26  1  0
 14 27  1  0
 15 28  1  0
 16 29  1  0
 17 30  1  0
M  END
>  <UniqueID>  (49) 
46

>  <SMILES>  (49) 
CC(=O)c1ccc(Cc2ccc(F)cc2)cc1

>  <Energy>  (49) 
29.36026314536232

>  <Genealogy>  (49) 
CC(=O)c1ccc(Cc2ccc(F)cc2)cc1 (3D coordinates assigned)
CC(=O)c1ccc(Cc2ccc(F)cc2)cc1 (optimized conformer: 29.36026314536232 kcal/mol)

>  <smiles>  (49) 
CC(=O)c1ccc(Cc2ccc(F)cc2)cc1

>  <score_type>  (49) 
oracle

>  <origin>  (49) 
adg

>  <m_score__min__energy>  (49) 
-7.3300000000000001

>  <m_primary>  (49) 
energy

$$$$
49:0
     RDKit          3D

 42 45  0  0  0  0  0  0  0  0999 V2000
   53.0670   25.3394   44.6801 H   0  0  0  0  0  0  0  0  0  0  0  0
   53.8690   24.8440   45.2470 C   0  0  0  0  0  0  0  0  0  0  0  0
   54.9120   25.5100   45.7840 N   0  0  0  0  0  0  0  0  0  0  0  0
   55.6280   24.5450   46.3870 C   0  0  0  0  0  0  0  0  0  0  0  0
   56.9320   24.7800   47.0860 C   0  0  0  0  0  0  0  0  0  0  0  0
   56.8702   24.3736   48.1063 H   0  0  0  0  0  0  0  0  0  0  0  0
   57.1233   25.8630   47.1099 H   0  0  0  0  0  0  0  0  0  0  0  0
   58.0860   24.1020   46.3490 C   0  0  0  0  0  0  0  0  0  0  0  0
   57.7371   23.1487   45.9254 H   0  0  0  0  0  0  0  0  0  0  0  0
   58.9073   23.9185   47.0574 H   0  0  0  0  0  0  0  0  0  0  0  0
   58.5680   24.9630   45.2700 N   0  0  0  0  0  0  0  0  0  0  0  0
   58.5360   26.2670   45.2540 C   0  0  0  0  0  0  0  0  0  0  0  0
   59.6890   26.9660   45.6270 C   0  0  0  0  0  0  0  0  0  0  0  0
   60.5944   26.4163   45.9238 H   0  0  0  0  0  0  0  0  0  0  0  0
   59.6890   28.3600   45.6220 C   0  0  0  0  0  0  0  0  0  0  0  0
   60.5947   28.9119   45.9137 H   0  0  0  0  0  0  0  0  0  0  0  0
   58.5370   29.0550   45.2460 C   0  0  0  0  0  0  0  0  0  0  0  0
   58.5110   30.4580   45.2320 C   0  0  0  0  0  0  0  0  0  0  0  0
   59.4108   31.0251   45.5125 H   0  0  0  0  0  0  0  0  0  0  0  0
   57.3400   31.1420   44.8610 C   0  0  0  0  0  0  0  0  0  0  0  0
   57.2820   32.5430   44.8230 O   0  0  0  0  0  0  0  0  0  0  0  0
   58.0920   33.4120   45.5680 C   0  0  0  0  0  0  0  0  0  0  0  0
   58.1510   33.3530   46.9740 C   0  0  0  0  0  0  0  0  0  0  0  0
   57.5594   32.6013   47.5171 H   0  0  0  0  0  0  0  0  0  0  0  0
   58.9600   34.2480   47.6810 C   0  0  0  0  0  0  0  0  0  0  0  0
   59.0116   34.1923   48.7784 H   0  0  0  0  0  0  0  0  0  0  0  0
   59.7030   35.2130   46.9960 C   0  0  0  0  0  0  0  0  0  0  0  0
   60.3426   35.9131   47.5534 H   0  0  0  0  0  0  0  0  0  0  0  0
   59.6330   35.2880   45.6030 C   0  0  0  0  0  0  0  0  0  0  0  0
   60.2144   36.0507   45.0643 H   0  0  0  0  0  0  0  0  0  0  0  0
   58.8250   34.3950   44.8920 C   0  0  0  0  0  0  0  0  0  0  0  0
   58.7650   34.4652   43.7959 H   0  0  0  0  0  0  0  0  0  0  0  0
   56.2120   30.4120   44.4710 C   0  0  0  0  0  0  0  0  0  0  0  0
   55.3029   30.9431   44.1526 H   0  0  0  0  0  0  0  0  0  0  0  0
   56.2290   29.0150   44.4820 C   0  0  0  0  0  0  0  0  0  0  0  0
   55.3310   28.4541   44.1837 H   0  0  0  0  0  0  0  0  0  0  0  0
   57.3870   28.3240   44.8720 C   0  0  0  0  0  0  0  0  0  0  0  0
   57.4110   26.9580   44.8850 N   0  0  0  0  0  0  0  0  0  0  0  0
   56.5440   26.4470   44.6050 H   0  0  0  0  0  0  0  0  0  0  0  0
   55.0210   23.3280   46.1900 C   0  0  0  0  0  0  0  0  0  0  0  0
   55.3910   22.3607   46.5608 H   0  0  0  0  0  0  0  0  0  0  0  0
   53.9010   23.5130   45.4700 N   0  0  0  0  0  0  0  0  0  0  0  0
  1  2  1  0
  2  3  2  0
  3  4  1  0
  4  5  1  0
  5  6  1  0
  5  7  1  0
  5  8  1  0
  8  9  1  0
  8 10  1  0
  8 11  1  0
 11 12  2  0
 12 13  1  0
 13 14  1  0
 13 15  2  0
 15 16  1  0
 15 17  1  0
 17 18  2  0
 18 19  1  0
 18 20  1  0
 20 21  1  0
 21 22  1  0
 22 23  2  0
 23 24  1  0
 23 25  1  0
 25 26  1  0
 25 27  2  0
 27 28  1  0
 27 29  1  0
 29 30  1  0
 29 31  2  0
 31 32  1  0
 20 33  2  0
 33 34  1  0
 33 35  1  0
 35 36  1  0
 35 37  2  0
 37 38  1  0
 38 39  1  0
  4 40  2  0
 40 41  1  0
 40 42  1  0
 42  2  1  0
 38 12  1  0
 37 17  1  0
 31 22  1  0
M  CHG  1  42  -1
M  END
>  <UniqueID>  (50) 
47

>  <SMILES>  (50) 
c1ccc(Oc2ccc3[nH]/c(=N\CCc4c[n-]cn4)ccc3c2)cc1

>  <Energy>  (50) 
81.25654695994925

>  <Genealogy>  (50) 
c1ccc(Oc2ccc3[nH]c(=NCCc4c[n-]cn4)ccc3c2)cc1 (protonated)
c1ccc(Oc2ccc3[nH]/c(=N\CCc4c[n-]cn4)ccc3c2)cc1 (cis-trans isomerization)
c1ccc(Oc2ccc3[nH]/c(=N\CCc4c[n-]cn4)ccc3c2)cc1 (3D coordinates assigned)
c1ccc(Oc2ccc3[nH]/c(=N\CCc4c[n-]cn4)ccc3c2)cc1 (optimized conformer: 81.25654695994925 kcal/mol)

>  <smiles>  (50) 
c1ccc(Oc2ccc3[nH]c(=NCCc4c[nH]cn4)ccc3c2)cc1

>  <score_type>  (50) 
oracle

>  <origin>  (50) 
adg

>  <m_score__min__energy>  (50) 
-9.7400000000000002

>  <m_primary>  (50) 
energy

$$$$
