0:0
     RDKit          3D

 49 52  0  0  0  0  0  0  0  0999 V2000
   62.0200   34.2130   49.2650 C   0  0  0  0  0  0  0  0  0  0  0  0
   60.9210   33.3070   48.7160 C   0  0  0  0  0  0  0  0  0  0  0  0
   61.2270   32.8090   47.2970 C   0  0  0  0  0  0  0  0  0  0  0  0
   59.9920   32.4740   46.5630 N   0  0  0  0  0  0  0  0  0  0  0  0
   59.0310   33.4290   46.3020 C   0  0  0  0  0  0  0  0  0  0  0  0
   59.2150   34.6170   46.6890 O   0  0  0  0  0  0  0  0  0  0  0  0
   57.8720   33.1010   45.6180 N   0  0  0  0  0  0  0  0  0  0  0  0
   56.8690   34.1400   45.3350 C   0  0  0  0  0  0  0  0  0  0  0  0
   57.6840   31.8220   45.1450 C   0  0  0  0  0  0  0  0  0  0  0  0
   56.6520   31.5130   44.4880 O   0  0  0  0  0  0  0  0  0  0  0  0
   58.6580   30.8700   45.4190 C   0  0  0  0  0  0  0  0  0  0  0  0
   59.7640   31.2060   46.1200 C   0  0  0  0  0  0  0  0  0  0  0  0
   60.5590   30.1340   46.3030 N   0  0  0  0  0  0  0  0  0  0  0  0
   59.8700   29.1370   45.6930 C   0  0  0  0  0  0  0  0  0  0  0  0
   60.3890   27.7600   45.6440 C   0  0  0  0  0  0  0  0  0  0  0  0
   59.8580   26.7080   46.2880 C   0  0  0  0  0  0  0  0  0  0  0  0
   58.5170   26.1260   46.0460 C   0  0  0  0  0  0  0  0  0  0  0  0
   57.3910   26.7430   46.6090 C   0  0  0  0  0  0  0  0  0  0  0  0
   56.1250   26.2050   46.3760 C   0  0  0  0  0  0  0  0  0  0  0  0
   55.9860   25.0650   45.5850 C   0  0  0  0  0  0  0  0  0  0  0  0
   57.1270   24.4750   45.0230 C   0  0  0  0  0  0  0  0  0  0  0  0
   57.0170   23.2930   44.2130 N   0  0  0  0  0  0  0  0  0  0  0  0
   56.0580   23.0160   43.3140 C   0  0  0  0  0  0  0  0  0  0  0  0
   56.2700   21.8250   42.7230 N   0  0  0  0  0  0  0  0  0  0  0  0
   57.4070   21.4040   43.3190 C   0  0  0  0  0  0  0  0  0  0  0  0
   57.8710   22.2850   44.2250 N   0  0  0  0  0  0  0  0  0  0  0  0
   58.3510   25.0250   45.2610 N   0  0  0  0  0  0  0  0  0  0  0  0
   58.7100   29.5600   45.1130 N   0  0  0  0  0  0  0  0  0  0  0  0
   57.7690   28.8010   44.2860 C   0  0  0  0  0  0  0  0  0  0  0  0
   61.9962   34.1934   50.3646 H   0  0  0  0  0  0  0  0  0  0  0  0
   62.9992   33.8563   48.9130 H   0  0  0  0  0  0  0  0  0  0  0  0
   61.8566   35.2423   48.9130 H   0  0  0  0  0  0  0  0  0  0  0  0
   60.8158   32.4368   49.3806 H   0  0  0  0  0  0  0  0  0  0  0  0
   59.9926   33.8953   48.6718 H   0  0  0  0  0  0  0  0  0  0  0  0
   61.7652   33.5971   46.7500 H   0  0  0  0  0  0  0  0  0  0  0  0
   61.8393   31.8985   47.3755 H   0  0  0  0  0  0  0  0  0  0  0  0
   56.4806   34.5424   46.2822 H   0  0  0  0  0  0  0  0  0  0  0  0
   57.3345   34.9509   44.7556 H   0  0  0  0  0  0  0  0  0  0  0  0
   56.0422   33.7033   44.7556 H   0  0  0  0  0  0  0  0  0  0  0  0
   61.2838   27.5783   45.0305 H   0  0  0  0  0  0  0  0  0  0  0  0
   60.4750   26.2351   47.0663 H   0  0  0  0  0  0  0  0  0  0  0  0
   57.5048   27.6441   47.2295 H   0  0  0  0  0  0  0  0  0  0  0  0
   55.2361   26.6803   46.8164 H   0  0  0  0  0  0  0  0  0  0  0  0
   54.9908   24.6328   45.4037 H   0  0  0  0  0  0  0  0  0  0  0  0
   55.2083   23.6775   43.0895 H   0  0  0  0  0  0  0  0  0  0  0  0
   57.8991   20.4474   43.0894 H   0  0  0  0  0  0  0  0  0  0  0  0
   57.0777   28.2434   44.9350 H   0  0  0  0  0  0  0  0  0  0  0  0
   57.1975   29.4939   43.6510 H   0  0  0  0  0  0  0  0  0  0  0  0
   58.3252   28.0957   43.6510 H   0  0  0  0  0  0  0  0  0  0  0  0
  1  2  1  0
  2  3  1  0
  3  4  1  0
  4  5  1  0
  5  6  2  0
  5  7  1  0
  7  8  1  0
  7  9  1  0
  9 10  2  0
  9 11  1  0
 11 12  2  0
 12 13  1  0
 13 14  2  0
 14 15  1  0
 15 16  2  3
 16 17  1  0
 17 18  2  0
 18 19  1  0
 19 20  2  0
 20 21  1  0
 21 22  1  0
 22 23  1  0
 23 24  2  0
 24 25  1  0
 25 26  2  0
 21 27  2  0
 14 28  1  0
 28 29  1  0
 12  4  1  0
 27 17  1  0
 28 11  1  0
 26 22  1  0
  1 30  1  0
  1 31  1  0
  1 32  1  0
  2 33  1  0
  2 34  1  0
  3 35  1  0
  3 36  1  0
  8 37  1  0
  8 38  1  0
  8 39  1  0
 15 40  1  0
 16 41  1  0
 18 42  1  0
 19 43  1  0
 20 44  1  0
 23 45  1  0
 25 46  1  0
 29 47  1  0
 29 48  1  0
 29 49  1  0
M  END
>  <UniqueID>  (1) 
1

>  <SMILES>  (1) 
CCCn1c(=O)n(C)c(=O)c2c1nc(C=Cc1cccc(-n3cncn3)n1)n2C

>  <Energy>  (1) 
132.35104251923312

>  <Genealogy>  (1) 
CCCn1c(=O)n(C)c(=O)c2c1nc(C=Cc1cccc(-n3cncn3)n1)n2C (3D coordinates assigned)
CCCn1c(=O)n(C)c(=O)c2c1nc(C=Cc1cccc(-n3cncn3)n1)n2C (optimized conformer: 132.35104251923312 kcal/mol)

>  <smiles>  (1) 
CCCn1c(=O)n(C)c(=O)c2c1nc(C=Cc1cccc(-n3cncn3)n1)n2C

>  <score_type>  (1) 
oracle

>  <origin>  (1) 
adg

>  <m_score__min__energy>  (1) 
-8.1799999999999997

>  <m_primary>  (1) 
energy

$$$$
1:0
     RDKit          3D

 58 62  0  0  0  0  0  0  0  0999 V2000
   59.7960   28.5270   48.9580 C   0  0  0  0  0  0  0  0  0  0  0  0
   58.8680   29.7120   49.2200 C   0  0  0  0  0  0  0  0  0  0  0  0
   59.4460   30.6720   50.2680 C   0  0  0  0  0  0  0  0  0  0  0  0
   58.6710   31.9360   50.3060 N   0  0  0  0  0  0  0  0  0  0  0  0
   58.8490   32.8020   49.1140 C   0  0  0  0  0  0  0  0  0  0  0  0
   59.6560   34.0880   49.3940 C   0  0  0  0  0  0  0  0  0  0  0  0
   60.7300   33.8740   50.3860 N   0  0  0  0  0  0  0  0  0  0  0  0
   61.8630   33.0850   49.8490 C   0  0  0  0  0  0  0  0  0  0  0  0
   62.7660   33.9660   48.9720 C   0  0  0  0  0  0  0  0  0  0  0  0
   63.0470   33.3250   47.6040 C   0  0  0  0  0  0  0  0  0  0  0  0
   61.8460   32.6630   47.0660 N   0  0  0  0  0  0  0  0  0  0  0  0
   61.7250   31.3060   47.1860 C   0  0  0  0  0  0  0  0  0  0  0  0
   60.6090   30.6640   46.7550 N   0  0  0  0  0  0  0  0  0  0  0  0
   59.5760   31.3510   46.1890 C   0  0  0  0  0  0  0  0  0  0  0  0
   59.6730   32.7490   46.0400 C   0  0  0  0  0  0  0  0  0  0  0  0
   58.6060   33.4530   45.4500 C   0  0  0  0  0  0  0  0  0  0  0  0
   57.4950   32.7890   45.0340 N   0  0  0  0  0  0  0  0  0  0  0  0
   57.3770   31.4440   45.1710 C   0  0  0  0  0  0  0  0  0  0  0  0
   56.2570   30.8050   44.7530 N   0  0  0  0  0  0  0  0  0  0  0  0
   56.1300   29.4830   44.8900 N   0  0  0  0  0  0  0  0  0  0  0  0
   57.1210   28.7380   45.4510 C   0  0  0  0  0  0  0  0  0  0  0  0
   56.9650   27.2870   45.6010 C   0  0  0  0  0  0  0  0  0  0  0  0
   55.8130   26.6970   45.9850 N   0  0  0  0  0  0  0  0  0  0  0  0
   55.9300   25.3430   46.0410 C   0  0  0  0  0  0  0  0  0  0  0  0
   57.1820   24.8440   45.7030 C   0  0  0  0  0  0  0  0  0  0  0  0
   58.1710   26.1480   45.3180 S   0  0  0  0  0  0  0  0  0  0  0  0
   58.2570   29.3500   45.8780 N   0  0  0  0  0  0  0  0  0  0  0  0
   58.4120   30.6940   45.7510 C   0  0  0  0  0  0  0  0  0  0  0  0
   60.8350   33.3930   46.4950 C   0  0  0  0  0  0  0  0  0  0  0  0
   60.9460   34.6460   46.3800 O   0  0  0  0  0  0  0  0  0  0  0  0
   60.2070   33.3700   51.6810 C   0  0  0  0  0  0  0  0  0  0  0  0
   58.8330   32.6730   51.5740 C   0  0  0  0  0  0  0  0  0  0  0  0
   60.1284   28.1026   49.9168 H   0  0  0  0  0  0  0  0  0  0  0  0
   59.2568   27.7588   48.3843 H   0  0  0  0  0  0  0  0  0  0  0  0
   60.6710   28.8664   48.3843 H   0  0  0  0  0  0  0  0  0  0  0  0
   58.7187   30.2614   48.2788 H   0  0  0  0  0  0  0  0  0  0  0  0
   57.9157   29.3197   49.6062 H   0  0  0  0  0  0  0  0  0  0  0  0
   59.4048   30.1934   51.2576 H   0  0  0  0  0  0  0  0  0  0  0  0
   60.4871   30.9038   49.9988 H   0  0  0  0  0  0  0  0  0  0  0  0
   59.3754   32.2236   48.3404 H   0  0  0  0  0  0  0  0  0  0  0  0
   57.8449   33.1168   48.7935 H   0  0  0  0  0  0  0  0  0  0  0  0
   60.1083   34.4333   48.4526 H   0  0  0  0  0  0  0  0  0  0  0  0
   58.9628   34.8360   49.8062 H   0  0  0  0  0  0  0  0  0  0  0  0
   62.4527   32.6829   50.6860 H   0  0  0  0  0  0  0  0  0  0  0  0
   61.4646   32.2633   49.2357 H   0  0  0  0  0  0  0  0  0  0  0  0
   62.2705   34.9354   48.8143 H   0  0  0  0  0  0  0  0  0  0  0  0
   63.7274   34.0889   49.4922 H   0  0  0  0  0  0  0  0  0  0  0  0
   63.3700   34.1073   46.9014 H   0  0  0  0  0  0  0  0  0  0  0  0
   63.8338   32.5668   47.7310 H   0  0  0  0  0  0  0  0  0  0  0  0
   62.5434   30.7265   47.6381 H   0  0  0  0  0  0  0  0  0  0  0  0
   60.5610   29.6280   46.8750 H   0  0  0  0  0  0  0  0  0  0  0  0
   58.6715   34.5439   45.3252 H   0  0  0  0  0  0  0  0  0  0  0  0
   55.0940   24.6903   46.3327 H   0  0  0  0  0  0  0  0  0  0  0  0
   57.4743   23.7836   45.6897 H   0  0  0  0  0  0  0  0  0  0  0  0
   60.9302   32.6485   52.0891 H   0  0  0  0  0  0  0  0  0  0  0  0
   60.0701   34.2460   52.3320 H   0  0  0  0  0  0  0  0  0  0  0  0
   58.7306   31.9647   52.4094 H   0  0  0  0  0  0  0  0  0  0  0  0
   58.0585   33.4534   51.6085 H   0  0  0  0  0  0  0  0  0  0  0  0
  1  2  1  0
  2  3  1  0
  3  4  1  0
  4  5  1  0
  5  6  1  0
  6  7  1  0
  7  8  1  0
  8  9  1  0
  9 10  1  0
 10 11  1  0
 11 12  1  0
 12 13  2  0
 13 14  1  0
 14 15  2  0
 15 16  1  0
 16 17  2  0
 17 18  1  0
 18 19  2  0
 19 20  1  0
 20 21  2  0
 21 22  1  0
 22 23  2  0
 23 24  1  0
 24 25  2  0
 25 26  1  0
 21 27  1  0
 27 28  2  0
 15 29  1  0
 29 30  2  0
  7 31  1  0
 31 32  1  0
 32  4  1  0
 29 11  1  0
 28 14  1  0
 28 18  1  0
 26 22  1  0
  1 33  1  0
  1 34  1  0
  1 35  1  0
  2 36  1  0
  2 37  1  0
  3 38  1  0
  3 39  1  0
  5 40  1  0
  5 41  1  0
  6 42  1  0
  6 43  1  0
  8 44  1  0
  8 45  1  0
  9 46  1  0
  9 47  1  0
 10 48  1  0
 10 49  1  0
 12 50  1  0
 13 51  1  0
 16 52  1  0
 24 53  1  0
 25 54  1  0
 31 55  1  0
 31 56  1  0
 32 57  1  0
 32 58  1  0
M  CHG  1  13   1
M  END
>  <UniqueID>  (2) 
2

>  <SMILES>  (2) 
CCCN1CCN(CCCn2c[nH+]c3c(cnc4nnc(-c5nccs5)nc43)c2=O)CC1

>  <Energy>  (2) 
113.32211305874932

>  <Genealogy>  (2) 
CCCN1CCN(CCCn2c[nH+]c3c(cnc4nnc(-c5nccs5)nc43)c2=O)CC1 (protonated)
CCCN1CCN(CCCn2c[nH+]c3c(cnc4nnc(-c5nccs5)nc43)c2=O)CC1 (3D coordinates assigned)
CCCN1CCN(CCCn2c[nH+]c3c(cnc4nnc(-c5nccs5)nc43)c2=O)CC1 (nonaromatic ring conformer: 113.32211305874932 kcal/mol)

>  <smiles>  (2) 
CCCN1CCN(CCCn2cnc3c(cnc4nnc(-c5nccs5)nc43)c2=O)CC1

>  <score_type>  (2) 
oracle

>  <origin>  (2) 
adg

>  <m_score__min__energy>  (2) 
-7.1600000000000001

>  <m_primary>  (2) 
energy

$$$$
2:0
     RDKit          3D

 16 16  0  0  0  0  0  0  0  0999 V2000
   57.1900   31.4940   44.0760 C   0  0  0  0  0  0  0  0  0  0  0  0
   57.6710   30.1360   44.5040 C   0  0  0  0  0  0  0  0  0  0  0  0
   59.0510   29.8640   44.5340 C   0  0  0  0  0  0  0  0  0  0  0  0
   59.5180   28.6080   44.9280 C   0  0  0  0  0  0  0  0  0  0  0  0
   58.6150   27.6110   45.2970 C   0  0  0  0  0  0  0  0  0  0  0  0
   57.2420   27.8660   45.2730 C   0  0  0  0  0  0  0  0  0  0  0  0
   56.7600   29.1200   44.8800 C   0  0  0  0  0  0  0  0  0  0  0  0
   55.3790   29.3260   44.8710 O   0  0  0  0  0  0  0  0  0  0  0  0
   56.9740   32.1037   44.9657 H   0  0  0  0  0  0  0  0  0  0  0  0
   57.9686   31.9860   43.4745 H   0  0  0  0  0  0  0  0  0  0  0  0
   56.2753   31.3862   43.4745 H   0  0  0  0  0  0  0  0  0  0  0  0
   59.7678   30.6467   44.2449 H   0  0  0  0  0  0  0  0  0  0  0  0
   60.5989   28.4049   44.9473 H   0  0  0  0  0  0  0  0  0  0  0  0
   58.9847   26.6226   45.6073 H   0  0  0  0  0  0  0  0  0  0  0  0
   56.5345   27.0759   45.5650 H   0  0  0  0  0  0  0  0  0  0  0  0
   54.7630   28.9690   45.5910 H   0  0  0  0  0  0  0  0  0  0  0  0
  1  2  1  0
  2  3  2  0
  3  4  1  0
  4  5  2  0
  5  6  1  0
  6  7  2  0
  7  8  1  0
  7  2  1  0
  1  9  1  0
  1 10  1  0
  1 11  1  0
  3 12  1  0
  4 13  1  0
  5 14  1  0
  6 15  1  0
  8 16  1  0
M  END
>  <UniqueID>  (3) 
3

>  <SMILES>  (3) 
Cc1ccccc1O

>  <Energy>  (3) 
14.786888793538408

>  <Genealogy>  (3) 
Cc1ccccc1O (3D coordinates assigned)
Cc1ccccc1O (optimized conformer: 14.786888793538408 kcal/mol)

>  <smiles>  (3) 
Cc1ccccc1O

>  <score_type>  (3) 
oracle

>  <origin>  (3) 
adg

>  <m_score__min__energy>  (3) 
-4.9900000000000002

>  <m_primary>  (3) 
energy

$$$$
3:0
     RDKit          3D

 57 59  0  0  0  0  0  0  0  0999 V2000
   56.4700   29.7390   42.8080 C   0  0  0  0  0  0  0  0  0  0  0  0
   55.7920   30.0540   44.1360 C   0  0  0  0  0  0  0  0  0  0  0  0
   56.5200   31.0480   44.8320 O   0  0  0  0  0  0  0  0  0  0  0  0
   57.8030   31.2340   44.2620 C   0  0  1  0  0  0  0  0  0  0  0  0
   57.9770   32.7250   43.9410 C   0  0  0  0  0  0  0  0  0  0  0  0
   57.1280   33.6080   44.8650 C   0  0  0  0  0  0  0  0  0  0  0  0
   57.9650   34.4030   45.7060 O   0  0  0  0  0  0  0  0  0  0  0  0
   58.5730   33.9690   46.8950 C   0  0  0  0  0  0  0  0  0  0  0  0
   58.1410   32.7630   47.4540 C   0  0  0  0  0  0  0  0  0  0  0  0
   58.7050   32.2830   48.6400 C   0  0  0  0  0  0  0  0  0  0  0  0
   59.7160   33.0070   49.2950 C   0  0  0  0  0  0  0  0  0  0  0  0
   60.2930   32.5150   50.5260 N   0  0  0  0  0  0  0  0  0  0  0  0
   60.5780   33.4610   51.6140 C   0  0  0  0  0  0  0  0  0  0  0  0
   61.0000   32.7310   52.8920 C   0  0  0  0  0  0  0  0  0  0  0  0
   62.0150   31.6890   52.6330 N   0  0  0  0  0  0  0  0  0  0  0  0
   63.3290   32.2760   52.4210 C   0  0  0  0  0  0  0  0  0  0  0  0
   64.0370   32.5590   53.4280 O   0  0  0  0  0  0  0  0  0  0  0  0
   63.8670   32.6130   51.0800 C   0  0  0  0  0  0  0  0  0  0  0  0
   65.2070   32.7710   50.7740 C   0  0  0  0  0  0  0  0  0  0  0  0
   65.2580   33.0610   49.4270 C   0  0  0  0  0  0  0  0  0  0  0  0
   63.9500   33.0620   48.9960 C   0  0  0  0  0  0  0  0  0  0  0  0
   63.3710   33.3830   47.2080 Br  0  0  0  0  0  0  0  0  0  0  0  0
   63.1450   32.7950   49.9970 O   0  0  0  0  0  0  0  0  0  0  0  0
   61.6250   30.6930   51.5920 C   0  0  0  0  0  0  0  0  0  0  0  0
   60.3630   31.0710   50.7900 C   0  0  0  0  0  0  0  0  0  0  0  0
   60.1630   34.2120   48.7210 C   0  0  0  0  0  0  0  0  0  0  0  0
   59.5980   34.6890   47.5350 C   0  0  0  0  0  0  0  0  0  0  0  0
   58.7820   30.8530   45.2160 O   0  0  0  0  0  0  0  0  0  0  0  0
   59.2860   29.5670   44.9300 C   0  0  0  0  0  0  0  0  0  0  0  0
   57.4527   29.2824   42.9972 H   0  0  0  0  0  0  0  0  0  0  0  0
   55.8449   29.0391   42.2341 H   0  0  0  0  0  0  0  0  0  0  0  0
   56.6018   30.6681   42.2341 H   0  0  0  0  0  0  0  0  0  0  0  0
   54.7713   30.4173   43.9458 H   0  0  0  0  0  0  0  0  0  0  0  0
   55.7572   29.1401   44.7472 H   0  0  0  0  0  0  0  0  0  0  0  0
   57.9114   30.6309   43.3485 H   0  0  0  0  0  0  0  0  0  0  0  0
   59.0362   32.9949   44.0646 H   0  0  0  0  0  0  0  0  0  0  0  0
   57.6450   32.8936   42.9059 H   0  0  0  0  0  0  0  0  0  0  0  0
   56.4966   34.2694   44.2536 H   0  0  0  0  0  0  0  0  0  0  0  0
   56.5007   32.9617   45.4965 H   0  0  0  0  0  0  0  0  0  0  0  0
   57.3487   32.1852   46.9555 H   0  0  0  0  0  0  0  0  0  0  0  0
   58.3544   31.3305   49.0641 H   0  0  0  0  0  0  0  0  0  0  0  0
   61.3906   34.1329   51.3005 H   0  0  0  0  0  0  0  0  0  0  0  0
   59.6613   34.0305   51.8269 H   0  0  0  0  0  0  0  0  0  0  0  0
   61.4181   33.4647   53.5969 H   0  0  0  0  0  0  0  0  0  0  0  0
   60.1091   32.2373   53.3075 H   0  0  0  0  0  0  0  0  0  0  0  0
   62.0860   31.1490   53.5300 H   0  0  0  0  0  0  0  0  0  0  0  0
   66.0585   32.6831   51.4648 H   0  0  0  0  0  0  0  0  0  0  0  0
   66.1568   33.2519   48.8222 H   0  0  0  0  0  0  0  0  0  0  0  0
   62.4622   30.5870   50.8864 H   0  0  0  0  0  0  0  0  0  0  0  0
   61.3913   29.7586   52.1233 H   0  0  0  0  0  0  0  0  0  0  0  0
   60.3779   30.5344   49.8299 H   0  0  0  0  0  0  0  0  0  0  0  0
   59.4830   30.7908   51.3876 H   0  0  0  0  0  0  0  0  0  0  0  0
   60.9649   34.7839   49.2107 H   0  0  0  0  0  0  0  0  0  0  0  0
   59.9570   35.6331   47.0994 H   0  0  0  0  0  0  0  0  0  0  0  0
   59.4937   29.0369   45.8712 H   0  0  0  0  0  0  0  0  0  0  0  0
   58.5424   29.0029   44.3479 H   0  0  0  0  0  0  0  0  0  0  0  0
   60.2149   29.6583   44.3479 H   0  0  0  0  0  0  0  0  0  0  0  0
  1  2  1  0
  2  3  1  0
  3  4  1  0
  4  5  1  0
  5  6  1  0
  6  7  1  0
  7  8  1  0
  8  9  2  0
  9 10  1  0
 10 11  2  0
 11 12  1  0
 12 13  1  0
 13 14  1  0
 14 15  1  0
 15 16  1  0
 16 17  2  0
 16 18  1  0
 18 19  2  0
 19 20  1  0
 20 21  2  0
 21 22  1  0
 21 23  1  0
 15 24  1  0
 24 25  1  0
 11 26  1  0
 26 27  2  0
  4 28  1  0
 28 29  1  0
 27  8  1  0
 25 12  1  0
 23 18  1  0
  1 30  1  0
  1 31  1  0
  1 32  1  0
  2 33  1  0
  2 34  1  0
  4 35  1  6
  5 36  1  0
  5 37  1  0
  6 38  1  0
  6 39  1  0
  9 40  1  0
 10 41  1  0
 13 42  1  0
 13 43  1  0
 14 44  1  0
 14 45  1  0
 15 46  1  0
 19 47  1  0
 20 48  1  0
 24 49  1  0
 24 50  1  0
 25 51  1  0
 25 52  1  0
 26 53  1  0
 27 54  1  0
 29 55  1  0
 29 56  1  0
 29 57  1  0
M  CHG  1  15   1
M  END
>  <UniqueID>  (4) 
4

>  <SMILES>  (4) 
CCO[C@@H](CCOc1ccc(N2CC[NH+](C(=O)c3ccc(Br)o3)CC2)cc1)OC

>  <Energy>  (4) 
96.23765955289484

>  <Genealogy>  (4) 
CCOC(CCOc1ccc(N2CC[NH+](C(=O)c3ccc(Br)o3)CC2)cc1)OC (protonated)
CCO[C@@H](CCOc1ccc(N2CC[NH+](C(=O)c3ccc(Br)o3)CC2)cc1)OC (chirality)
CCO[C@@H](CCOc1ccc(N2CC[NH+](C(=O)c3ccc(Br)o3)CC2)cc1)OC (3D coordinates assigned)
CCO[C@@H](CCOc1ccc(N2CC[NH+](C(=O)c3ccc(Br)o3)CC2)cc1)OC (nonaromatic ring conformer: 96.23765955289484 kcal/mol)

>  <smiles>  (4) 
CCOC(CCOc1ccc(N2CCN(C(=O)c3ccc(Br)o3)CC2)cc1)OC

>  <score_type>  (4) 
oracle

>  <origin>  (4) 
adg

>  <m_score__min__energy>  (4) 
-6.2699999999999996

>  <m_primary>  (4) 
energy

$$$$
4:0
     RDKit          3D

 32 31  0  0  0  0  0  0  0  0999 V2000
   59.3980   34.9410   46.7200 C   0  0  0  0  0  0  0  0  0  0  0  0
   59.2420   34.6060   45.2360 C   0  0  0  0  0  0  0  0  0  0  0  0
   57.8200   34.1410   44.8750 C   0  0  0  0  0  0  0  0  0  0  0  0
   57.7700   32.8160   44.1010 C   0  0  0  0  0  0  0  0  0  0  0  0
   57.3650   31.6720   44.9790 C   0  0  0  0  0  0  0  0  0  0  0  0
   57.8340   31.5840   46.1460 O   0  0  0  0  0  0  0  0  0  0  0  0
   56.4480   30.7300   44.4980 O   0  0  0  0  0  0  0  0  0  0  0  0
   56.6710   29.9190   43.3450 C   0  0  0  0  0  0  0  0  0  0  0  0
   57.4310   28.6310   43.7020 C   0  0  0  0  0  0  0  0  0  0  0  0
   58.1290   28.7170   45.0140 N   0  0  0  0  0  0  0  0  0  0  0  0
   57.9200   27.4870   45.7970 C   0  0  0  0  0  0  0  0  0  0  0  0
   59.5780   28.9400   44.8350 C   0  0  0  0  0  0  0  0  0  0  0  0
   59.0106   34.1090   47.3264 H   0  0  0  0  0  0  0  0  0  0  0  0
   60.4620   35.0983   46.9505 H   0  0  0  0  0  0  0  0  0  0  0  0
   58.8336   35.8566   46.9505 H   0  0  0  0  0  0  0  0  0  0  0  0
   59.4782   35.5041   44.6464 H   0  0  0  0  0  0  0  0  0  0  0  0
   59.9286   33.7768   45.0101 H   0  0  0  0  0  0  0  0  0  0  0  0
   57.2499   34.0177   45.8076 H   0  0  0  0  0  0  0  0  0  0  0  0
   57.3936   34.9100   44.2141 H   0  0  0  0  0  0  0  0  0  0  0  0
   57.0426   32.9101   43.2812 H   0  0  0  0  0  0  0  0  0  0  0  0
   58.7786   32.6087   43.7140 H   0  0  0  0  0  0  0  0  0  0  0  0
   55.7000   29.6506   42.9033 H   0  0  0  0  0  0  0  0  0  0  0  0
   57.2800   30.4931   42.6311 H   0  0  0  0  0  0  0  0  0  0  0  0
   56.7130   27.7985   43.7400 H   0  0  0  0  0  0  0  0  0  0  0  0
   58.1977   28.4742   42.9290 H   0  0  0  0  0  0  0  0  0  0  0  0
   57.7440   29.5110   45.5790 H   0  0  0  0  0  0  0  0  0  0  0  0
   57.9603   27.7243   46.8703 H   0  0  0  0  0  0  0  0  0  0  0  0
   56.9363   27.0595   45.5527 H   0  0  0  0  0  0  0  0  0  0  0  0
   58.7072   26.7586   45.5527 H   0  0  0  0  0  0  0  0  0  0  0  0
   60.0620   29.0145   45.8200 H   0  0  0  0  0  0  0  0  0  0  0  0
   60.0122   28.0981   44.2758 H   0  0  0  0  0  0  0  0  0  0  0  0
   59.7390   29.8735   44.2758 H   0  0  0  0  0  0  0  0  0  0  0  0
  1  2  1  0
  2  3  1  0
  3  4  1  0
  4  5  1  0
  5  6  2  0
  5  7  1  0
  7  8  1  0
  8  9  1  0
  9 10  1  0
 10 11  1  0
 10 12  1  0
  1 13  1  0
  1 14  1  0
  1 15  1  0
  2 16  1  0
  2 17  1  0
  3 18  1  0
  3 19  1  0
  4 20  1  0
  4 21  1  0
  8 22  1  0
  8 23  1  0
  9 24  1  0
  9 25  1  0
 10 26  1  0
 11 27  1  0
 11 28  1  0
 11 29  1  0
 12 30  1  0
 12 31  1  0
 12 32  1  0
M  CHG  1  10   1
M  END
>  <UniqueID>  (5) 
5

>  <SMILES>  (5) 
CCCCC(=O)OCC[NH+](C)C

>  <Energy>  (5) 
21.66772290092739

>  <Genealogy>  (5) 
CCCCC(=O)OCC[NH+](C)C (protonated)
CCCCC(=O)OCC[NH+](C)C (3D coordinates assigned)
CCCCC(=O)OCC[NH+](C)C (optimized conformer: 21.66772290092739 kcal/mol)

>  <smiles>  (5) 
CCCCC(=O)OCCN(C)C

>  <score_type>  (5) 
oracle

>  <origin>  (5) 
adg

>  <m_score__min__energy>  (5) 
-2.7799999999999998

>  <m_primary>  (5) 
energy

$$$$
5:0
     RDKit          3D

 37 39  0  0  0  0  0  0  0  0999 V2000
   63.6580   33.4610   46.5900 C   0  0  0  0  0  0  0  0  0  0  0  0
   62.7490   33.6050   47.7750 C   0  0  0  0  0  0  0  0  0  0  0  0
   63.2470   33.5660   49.0930 C   0  0  0  0  0  0  0  0  0  0  0  0
   62.3870   33.6710   50.1600 N   0  0  0  0  0  0  0  0  0  0  0  0
   62.9220   33.6760   51.5230 C   0  0  0  0  0  0  0  0  0  0  0  0
   61.0410   33.8370   49.9610 C   0  0  0  0  0  0  0  0  0  0  0  0
   60.5660   33.8580   48.6540 C   0  0  0  0  0  0  0  0  0  0  0  0
   59.2790   33.9990   48.1890 C   0  0  0  0  0  0  0  0  0  0  0  0
   59.4330   33.9400   46.8070 C   0  0  0  0  0  0  0  0  0  0  0  0
   58.3370   34.1110   45.8010 C   0  0  0  0  0  0  0  0  0  0  0  0
   58.7960   33.7020   44.4670 N   0  0  0  0  0  0  0  0  0  0  0  0
   58.0830   32.5230   44.0410 C   0  0  0  0  0  0  0  0  0  0  0  0
   57.6520   31.5720   44.9840 C   0  0  0  0  0  0  0  0  0  0  0  0
   56.9360   30.4440   44.5710 C   0  0  0  0  0  0  0  0  0  0  0  0
   56.6370   30.2600   43.2180 C   0  0  0  0  0  0  0  0  0  0  0  0
   57.0500   31.2050   42.2760 C   0  0  0  0  0  0  0  0  0  0  0  0
   57.7660   32.3350   42.6830 C   0  0  0  0  0  0  0  0  0  0  0  0
   60.7390   33.7950   46.4790 N   0  0  0  0  0  0  0  0  0  0  0  0
   61.4060   33.7390   47.6190 N   0  0  0  0  0  0  0  0  0  0  0  0
   64.6891   33.2977   46.9366 H   0  0  0  0  0  0  0  0  0  0  0  0
   63.3351   32.6028   45.9823 H   0  0  0  0  0  0  0  0  0  0  0  0
   63.6162   34.3770   45.9823 H   0  0  0  0  0  0  0  0  0  0  0  0
   64.3269   33.4512   49.2681 H   0  0  0  0  0  0  0  0  0  0  0  0
   62.0906   33.6682   52.2433 H   0  0  0  0  0  0  0  0  0  0  0  0
   63.5470   32.7837   51.6748 H   0  0  0  0  0  0  0  0  0  0  0  0
   63.5303   34.5799   51.6748 H   0  0  0  0  0  0  0  0  0  0  0  0
   60.3544   33.9506   50.8129 H   0  0  0  0  0  0  0  0  0  0  0  0
   58.3530   34.1272   48.7687 H   0  0  0  0  0  0  0  0  0  0  0  0
   57.4767   33.4912   46.0938 H   0  0  0  0  0  0  0  0  0  0  0  0
   58.0461   35.1713   45.7680 H   0  0  0  0  0  0  0  0  0  0  0  0
   58.6350   34.4780   43.7830 H   0  0  0  0  0  0  0  0  0  0  0  0
   59.8240   33.5020   44.4930 H   0  0  0  0  0  0  0  0  0  0  0  0
   57.8792   31.7163   46.0506 H   0  0  0  0  0  0  0  0  0  0  0  0
   56.6076   29.7004   45.3120 H   0  0  0  0  0  0  0  0  0  0  0  0
   56.0762   29.3705   42.8950 H   0  0  0  0  0  0  0  0  0  0  0  0
   56.8115   31.0600   41.2120 H   0  0  0  0  0  0  0  0  0  0  0  0
   58.0828   33.0801   41.9384 H   0  0  0  0  0  0  0  0  0  0  0  0
  1  2  1  0
  2  3  2  0
  3  4  1  0
  4  5  1  0
  4  6  2  0
  6  7  1  0
  7  8  2  0
  8  9  1  0
  9 10  1  0
 10 11  1  0
 11 12  1  0
 12 13  2  0
 13 14  1  0
 14 15  2  0
 15 16  1  0
 16 17  2  0
  9 18  2  0
 18 19  1  0
 19  2  1  0
 19  7  1  0
 17 12  1  0
  1 20  1  0
  1 21  1  0
  1 22  1  0
  3 23  1  0
  5 24  1  0
  5 25  1  0
  5 26  1  0
  6 27  1  0
  8 28  1  0
 10 29  1  0
 10 30  1  0
 11 31  1  0
 11 32  1  0
 13 33  1  0
 14 34  1  0
 15 35  1  0
 16 36  1  0
 17 37  1  0
M  CHG  2   4   1  11   1
M  END
>  <UniqueID>  (6) 
6

>  <SMILES>  (6) 
Cc1c[n+](C)cc2cc(C[NH2+]c3ccccc3)nn12

>  <Energy>  (6) 
74.02991655851403

>  <Genealogy>  (6) 
Cc1c[n+](C)cc2cc(C[NH2+]c3ccccc3)nn12 (protonated)
Cc1c[n+](C)cc2cc(C[NH2+]c3ccccc3)nn12 (3D coordinates assigned)
Cc1c[n+](C)cc2cc(C[NH2+]c3ccccc3)nn12 (optimized conformer: 74.02991655851403 kcal/mol)

>  <smiles>  (6) 
Cc1c[n+](C)cc2cc(CNc3ccccc3)nn12

>  <score_type>  (6) 
oracle

>  <origin>  (6) 
adg

>  <m_score__min__energy>  (6) 
-4.4100000000000001

>  <m_primary>  (6) 
energy

$$$$
6:0
     RDKit          3D

 31 32  0  0  1  0  0  0  0  0999 V2000
   59.6990   29.5350   47.8910 C   0  0  0  0  0  0  0  0  0  0  0  0
   58.6130   29.2150   46.9160 C   0  0  0  0  0  0  0  0  0  0  0  0
   58.1410   27.9040   46.8390 C   0  0  0  0  0  0  0  0  0  0  0  0
   57.1400   27.6210   45.9370 C   0  0  0  0  0  0  0  0  0  0  0  0
   56.6490   26.2300   45.8640 C   0  0  0  0  0  0  0  0  0  0  0  0
   57.0680   25.5040   46.9750 F   0  0  0  0  0  0  0  0  0  0  0  0
   57.0820   25.6030   44.7150 F   0  0  0  0  0  0  0  0  0  0  0  0
   55.2510   26.2260   45.8500 F   0  0  0  0  0  0  0  0  0  0  0  0
   56.6570   28.6130   45.1680 N   0  0  0  0  0  0  0  0  0  0  0  0
   57.0950   29.8800   45.2240 C   0  0  0  0  0  0  0  0  0  0  0  0
   56.6360   30.8270   44.4920 N   0  0  0  0  0  0  0  0  0  0  0  0
   57.4920   31.9490   44.2110 C   0  0  0  0  0  0  0  0  0  0  0  0
   57.0170   33.2040   44.9390 C   0  0  0  0  0  0  0  0  0  0  0  0
   58.1210   33.6950   45.8070 C   0  0  0  0  0  0  0  0  0  0  0  0
   59.0830   34.5870   45.5180 C   0  0  0  0  0  0  0  0  0  0  0  0
   59.9930   34.8920   46.4550 C   0  0  0  0  0  0  0  0  0  0  0  0
   59.8750   34.2590   47.6690 C   0  0  0  0  0  0  0  0  0  0  0  0
   58.4320   33.1940   47.4850 S   0  0  0  0  0  0  0  0  0  0  0  0
   58.0800   30.1720   46.1090 N   0  0  0  0  0  0  0  0  0  0  0  0
   59.3163   29.4222   48.9161 H   0  0  0  0  0  0  0  0  0  0  0  0
   60.5439   28.8476   47.7373 H   0  0  0  0  0  0  0  0  0  0  0  0
   60.0362   30.5707   47.7373 H   0  0  0  0  0  0  0  0  0  0  0  0
   58.5584   27.1161   47.4831 H   0  0  0  0  0  0  0  0  0  0  0  0
   55.9000   28.3530   44.4990 H   0  0  0  0  0  0  0  0  0  0  0  0
   58.5148   31.7103   44.5380 H   0  0  0  0  0  0  0  0  0  0  0  0
   57.4654   32.1440   43.1287 H   0  0  0  0  0  0  0  0  0  0  0  0
   56.7493   33.9790   44.2057 H   0  0  0  0  0  0  0  0  0  0  0  0
   56.1326   32.9719   45.5506 H   0  0  0  0  0  0  0  0  0  0  0  0
   59.1239   35.0609   44.5262 H   0  0  0  0  0  0  0  0  0  0  0  0
   60.7977   35.6163   46.2604 H   0  0  0  0  0  0  0  0  0  0  0  0
   60.5170   34.3759   48.5545 H   0  0  0  0  0  0  0  0  0  0  0  0
  1  2  1  0
  2  3  1  0
  3  4  2  0
  4  5  1  0
  5  6  1  0
  5  7  1  0
  5  8  1  0
  4  9  1  0
  9 10  1  0
 10 11  2  0
 11 12  1  0
 12 13  1  0
 13 14  1  0
 14 15  2  0
 15 16  1  0
 16 17  2  0
 17 18  1  0
 10 19  1  0
 19  2  2  0
 18 14  1  0
  1 20  1  0
  1 21  1  0
  1 22  1  0
  3 23  1  0
  9 24  1  0
 12 25  1  0
 12 26  1  0
 13 27  1  0
 13 28  1  0
 15 29  1  0
 16 30  1  0
 17 31  1  0
M  END
>  <smiles>  (7) 
Cc1cc(C(F)(F)F)[nH]c(=NCCc2cccs2)n1

>  <score_type>  (7) 
oracle

>  <origin>  (7) 
adg

>  <m_score__min__energy>  (7) 
-6.46

>  <m_primary>  (7) 
energy

$$$$
7:0
     RDKit          3D

 44 46  0  0  0  0  0  0  0  0999 V2000
   57.3380   34.2580   44.8580 C   0  0  0  0  0  0  0  0  0  0  0  0
   58.8140   34.1100   44.4980 C   0  0  0  0  0  0  0  0  0  0  0  0
   59.6160   33.5470   45.6930 C   0  0  0  0  0  0  0  0  0  0  0  0
   59.0310   33.8550   47.0220 N   0  0  0  0  0  0  0  0  0  0  0  0
   58.2680   32.7180   47.5810 C   0  0  0  0  0  0  0  0  0  0  0  0
   58.4390   31.5070   46.7190 C   0  0  0  0  0  0  0  0  0  0  0  0
   59.5650   30.7290   46.8420 N   0  0  0  0  0  0  0  0  0  0  0  0
   59.7350   29.5990   46.0950 C   0  0  0  0  0  0  0  0  0  0  0  0
   60.7740   28.8990   46.2150 O   0  0  0  0  0  0  0  0  0  0  0  0
   58.7280   29.2550   45.2060 C   0  0  0  0  0  0  0  0  0  0  0  0
   58.5510   28.2260   44.3010 C   0  0  0  0  0  0  0  0  0  0  0  0
   57.3540   28.4240   43.6930 N   0  0  0  0  0  0  0  0  0  0  0  0
   56.7820   29.5160   44.1900 N   0  0  0  0  0  0  0  0  0  0  0  0
   55.5200   30.0840   43.7310 C   0  0  0  0  0  0  0  0  0  0  0  0
   57.6190   30.0330   45.1030 C   0  0  0  0  0  0  0  0  0  0  0  0
   57.4490   31.1560   45.8400 N   0  0  0  0  0  0  0  0  0  0  0  0
   60.0140   34.3960   47.9890 C   0  0  0  0  0  0  0  0  0  0  0  0
   60.9420   33.3080   48.4980 C   0  0  0  0  0  0  0  0  0  0  0  0
   62.1550   33.0040   47.8310 C   0  0  0  0  0  0  0  0  0  0  0  0
   62.6720   33.8430   46.3700 Cl  0  0  0  0  0  0  0  0  0  0  0  0
   62.9970   32.0020   48.3280 C   0  0  0  0  0  0  0  0  0  0  0  0
   62.6530   31.2980   49.4810 C   0  0  0  0  0  0  0  0  0  0  0  0
   61.4640   31.5890   50.1480 C   0  0  0  0  0  0  0  0  0  0  0  0
   60.6080   32.5860   49.6680 C   0  0  0  0  0  0  0  0  0  0  0  0
   59.1170   32.8860   50.5570 Cl  0  0  0  0  0  0  0  0  0  0  0  0
   57.2268   34.2691   45.9523 H   0  0  0  0  0  0  0  0  0  0  0  0
   56.9514   35.1994   44.4406 H   0  0  0  0  0  0  0  0  0  0  0  0
   56.7722   33.4121   44.4406 H   0  0  0  0  0  0  0  0  0  0  0  0
   58.9099   33.4236   43.6438 H   0  0  0  0  0  0  0  0  0  0  0  0
   59.2152   35.1011   44.2394 H   0  0  0  0  0  0  0  0  0  0  0  0
   59.6711   32.4536   45.5861 H   0  0  0  0  0  0  0  0  0  0  0  0
   60.6038   34.0302   45.6645 H   0  0  0  0  0  0  0  0  0  0  0  0
   58.6349   32.4974   48.5943 H   0  0  0  0  0  0  0  0  0  0  0  0
   57.2015   32.9848   47.6174 H   0  0  0  0  0  0  0  0  0  0  0  0
   59.2508   27.3993   44.1089 H   0  0  0  0  0  0  0  0  0  0  0  0
   56.9440   27.8230   42.9440 H   0  0  0  0  0  0  0  0  0  0  0  0
   54.9049   30.3608   44.5999 H   0  0  0  0  0  0  0  0  0  0  0  0
   55.7201   30.9789   43.1234 H   0  0  0  0  0  0  0  0  0  0  0  0
   54.9829   29.3408   43.1234 H   0  0  0  0  0  0  0  0  0  0  0  0
   60.6125   35.1749   47.4939 H   0  0  0  0  0  0  0  0  0  0  0  0
   59.4650   34.8134   48.8459 H   0  0  0  0  0  0  0  0  0  0  0  0
   63.9363   31.7687   47.8052 H   0  0  0  0  0  0  0  0  0  0  0  0
   63.3203   30.5122   49.8648 H   0  0  0  0  0  0  0  0  0  0  0  0
   61.1971   31.0311   51.0577 H   0  0  0  0  0  0  0  0  0  0  0  0
  1  2  1  0
  2  3  1  0
  3  4  1  0
  4  5  1  0
  5  6  1  0
  6  7  2  0
  7  8  1  0
  8  9  2  0
  8 10  1  0
 10 11  1  0
 11 12  2  0
 12 13  1  0
 13 14  1  0
 13 15  1  0
 15 16  1  0
  4 17  1  0
 17 18  1  0
 18 19  2  0
 19 20  1  0
 19 21  1  0
 21 22  2  0
 22 23  1  0
 23 24  2  0
 24 25  1  0
 16  6  1  0
 24 18  1  0
 15 10  2  0
  1 26  1  0
  1 27  1  0
  1 28  1  0
  2 29  1  0
  2 30  1  0
  3 31  1  0
  3 32  1  0
  5 33  1  0
  5 34  1  0
 11 35  1  0
 12 36  1  0
 14 37  1  0
 14 38  1  0
 14 39  1  0
 17 40  1  0
 17 41  1  0
 21 42  1  0
 22 43  1  0
 23 44  1  0
M  CHG  2  12   1  16  -1
M  END
>  <UniqueID>  (8) 
7

>  <SMILES>  (8) 
CCCN(Cc1nc(=O)c2c[nH+]n(C)c2[n-]1)Cc1c(Cl)cccc1Cl

>  <Energy>  (8) 
89.43397618763143

>  <Genealogy>  (8) 
CCCN(Cc1nc(=O)c2c[nH+]n(C)c2[n-]1)Cc1c(Cl)cccc1Cl (protonated)
CCCN(Cc1nc(=O)c2c[nH+]n(C)c2[n-]1)Cc1c(Cl)cccc1Cl (3D coordinates assigned)
CCCN(Cc1nc(=O)c2c[nH+]n(C)c2[n-]1)Cc1c(Cl)cccc1Cl (optimized conformer: 89.43397618763143 kcal/mol)

>  <smiles>  (8) 
CCCN(Cc1nc(=O)c2cnn(C)c2[nH]1)Cc1c(Cl)cccc1Cl

>  <score_type>  (8) 
oracle

>  <origin>  (8) 
adg

>  <m_score__min__energy>  (8) 
-7.6399999999999997

>  <m_primary>  (8) 
energy

$$$$
8:0
     RDKit          3D

 34 36  0  0  0  0  0  0  0  0999 V2000
   54.7760   27.0900   46.3700 H   0  0  0  0  0  0  0  0  0  0  0  0
   55.1250   26.2210   45.9090 N   0  0  0  0  0  0  0  0  0  0  0  0
   56.8390   26.3800   45.7580 S   0  0  0  0  0  0  0  0  0  0  0  0
   57.4900   26.0710   47.0770 O   0  0  0  0  0  0  0  0  0  0  0  0
   57.3450   25.4060   44.7300 O   0  0  0  0  0  0  0  0  0  0  0  0
   57.2320   28.0230   45.2670 C   0  0  0  0  0  0  0  0  0  0  0  0
   58.5390   28.5070   45.4110 C   0  0  0  0  0  0  0  0  0  0  0  0
   59.3223   27.8543   45.8238 H   0  0  0  0  0  0  0  0  0  0  0  0
   58.8520   29.8170   45.0320 C   0  0  0  0  0  0  0  0  0  0  0  0
   59.8777   30.1941   45.1579 H   0  0  0  0  0  0  0  0  0  0  0  0
   57.8580   30.6540   44.4900 C   0  0  0  0  0  0  0  0  0  0  0  0
   58.1270   32.0180   44.1240 N   0  0  0  0  0  0  0  0  0  0  0  0
   58.5480   32.9700   44.9050 C   0  0  0  0  0  0  0  0  0  0  0  0
   58.6280   32.7420   46.2420 N   0  0  0  0  0  0  0  0  0  0  0  0
   59.0320   33.7060   47.1130 C   0  0  0  0  0  0  0  0  0  0  0  0
   59.1090   33.3730   48.5560 C   0  0  0  0  0  0  0  0  0  0  0  0
   58.3350   32.3560   49.0330 N   0  0  0  0  0  0  0  0  0  0  0  0
   58.3390   31.9920   50.3430 C   0  0  0  0  0  0  0  0  0  0  0  0
   57.7034   31.1620   50.6851 H   0  0  0  0  0  0  0  0  0  0  0  0
   59.1490   32.6710   51.2530 C   0  0  0  0  0  0  0  0  0  0  0  0
   59.1601   32.3786   52.3134 H   0  0  0  0  0  0  0  0  0  0  0  0
   59.9450   33.7250   50.8040 C   0  0  0  0  0  0  0  0  0  0  0  0
   60.5860   34.2712   51.5116 H   0  0  0  0  0  0  0  0  0  0  0  0
   59.9270   34.0860   49.4540 C   0  0  0  0  0  0  0  0  0  0  0  0
   60.5471   34.9208   49.0954 H   0  0  0  0  0  0  0  0  0  0  0  0
   59.3850   34.9690   46.6100 C   0  0  0  0  0  0  0  0  0  0  0  0
   59.7326   35.7647   47.2853 H   0  0  0  0  0  0  0  0  0  0  0  0
   59.2860   35.1940   45.2380 C   0  0  0  0  0  0  0  0  0  0  0  0
   59.5478   36.1782   44.8222 H   0  0  0  0  0  0  0  0  0  0  0  0
   58.8670   34.2000   44.4150 N   0  0  0  0  0  0  0  0  0  0  0  0
   56.5450   30.1770   44.3880 C   0  0  0  0  0  0  0  0  0  0  0  0
   55.7523   30.8380   44.0076 H   0  0  0  0  0  0  0  0  0  0  0  0
   56.2340   28.8670   44.7660 C   0  0  0  0  0  0  0  0  0  0  0  0
   55.2020   28.4987   44.6693 H   0  0  0  0  0  0  0  0  0  0  0  0
  1  2  1  0
  2  3  1  0
  3  4  2  0
  3  5  2  0
  3  6  1  0
  6  7  2  0
  7  8  1  0
  7  9  1  0
  9 10  1  0
  9 11  2  0
 11 12  1  0
 12 13  2  0
 13 14  1  0
 14 15  2  0
 15 16  1  0
 16 17  2  0
 17 18  1  0
 18 19  1  0
 18 20  2  0
 20 21  1  0
 20 22  1  0
 22 23  1  0
 22 24  2  0
 24 25  1  0
 15 26  1  0
 26 27  1  0
 26 28  2  0
 28 29  1  0
 28 30  1  0
 11 31  1  0
 31 32  1  0
 31 33  2  0
 33 34  1  0
 33  6  1  0
 30 13  1  0
 24 16  1  0
M  CHG  2   2  -1  30  -1
M  END
>  <UniqueID>  (9) 
8

>  <SMILES>  (9) 
[NH-]S(=O)(=O)c1ccc(/N=c2/nc(-c3ccccn3)cc[n-]2)cc1

>  <Energy>  (9) 
47.8448270046003

>  <Genealogy>  (9) 
[NH-]S(=O)(=O)c1ccc(N=c2nc(-c3ccccn3)cc[n-]2)cc1 (protonated)
[NH-]S(=O)(=O)c1ccc(/N=c2/nc(-c3ccccn3)cc[n-]2)cc1 (cis-trans isomerization)
[NH-]S(=O)(=O)c1ccc(/N=c2/nc(-c3ccccn3)cc[n-]2)cc1 (3D coordinates assigned)
[NH-]S(=O)(=O)c1ccc(/N=c2/nc(-c3ccccn3)cc[n-]2)cc1 (optimized conformer: 47.8448270046003 kcal/mol)

>  <smiles>  (9) 
NS(=O)(=O)c1ccc(N=c2nc(-c3ccccn3)cc[nH]2)cc1

>  <score_type>  (9) 
oracle

>  <origin>  (9) 
adg

>  <m_score__min__energy>  (9) 
-11.550000000000001

>  <m_primary>  (9) 
energy

$$$$
9:0
     RDKit          3D

 44 46  0  0  0  0  0  0  0  0999 V2000
   58.1820   24.4640   45.6810 C   0  0  0  0  0  0  0  0  0  0  0  0
   57.0330   25.0380   46.3850 N   0  0  0  0  0  0  0  0  0  0  0  0
   56.4650   24.3250   47.5290 C   0  0  0  0  0  0  0  0  0  0  0  0
   56.4150   26.2620   45.9440 C   0  0  0  0  0  0  0  0  0  0  0  0
   55.1610   26.3790   46.0060 O   0  0  0  0  0  0  0  0  0  0  0  0
   57.2120   27.3960   45.4390 C   0  0  0  0  0  0  0  0  0  0  0  0
   57.9610   28.2650   46.2080 C   0  0  0  0  0  0  0  0  0  0  0  0
   58.5910   29.1160   45.3750 N   0  0  0  0  0  0  0  0  0  0  0  0
   59.5570   30.1460   45.7480 C   0  0  0  0  0  0  0  0  0  0  0  0
   58.8840   31.4950   45.7740 C   0  0  0  0  0  0  0  0  0  0  0  0
   57.9180   31.8140   44.8040 C   0  0  0  0  0  0  0  0  0  0  0  0
   57.2480   33.0380   44.8480 C   0  0  0  0  0  0  0  0  0  0  0  0
   57.5300   33.9530   45.8640 C   0  0  0  0  0  0  0  0  0  0  0  0
   58.4770   33.6430   46.8420 C   0  0  0  0  0  0  0  0  0  0  0  0
   59.1490   32.4080   46.8140 C   0  0  0  0  0  0  0  0  0  0  0  0
   60.1070   32.0880   47.7880 O   0  0  0  0  0  0  0  0  0  0  0  0
   61.4360   32.5330   47.7870 C   0  0  0  0  0  0  0  0  0  0  0  0
   62.3670   32.1050   48.7520 C   0  0  0  0  0  0  0  0  0  0  0  0
   63.6910   32.5560   48.7010 C   0  0  0  0  0  0  0  0  0  0  0  0
   64.0950   33.4260   47.6850 C   0  0  0  0  0  0  0  0  0  0  0  0
   63.1790   33.8410   46.7150 C   0  0  0  0  0  0  0  0  0  0  0  0
   61.8560   33.3900   46.7620 C   0  0  0  0  0  0  0  0  0  0  0  0
   58.2400   28.7470   44.1270 C   0  0  0  0  0  0  0  0  0  0  0  0
   57.3970   27.6970   44.1360 N   0  0  0  0  0  0  0  0  0  0  0  0
   58.9156   24.0975   46.4142 H   0  0  0  0  0  0  0  0  0  0  0  0
   57.8453   23.6282   45.0500 H   0  0  0  0  0  0  0  0  0  0  0  0
   58.6481   25.2352   45.0500 H   0  0  0  0  0  0  0  0  0  0  0  0
   56.8280   24.7807   48.4621 H   0  0  0  0  0  0  0  0  0  0  0  0
   55.3674   24.3887   47.4926 H   0  0  0  0  0  0  0  0  0  0  0  0
   56.7724   23.2695   47.4926 H   0  0  0  0  0  0  0  0  0  0  0  0
   58.0308   28.2627   47.3058 H   0  0  0  0  0  0  0  0  0  0  0  0
   59.9628   29.9215   46.7455 H   0  0  0  0  0  0  0  0  0  0  0  0
   60.3725   30.1621   45.0100 H   0  0  0  0  0  0  0  0  0  0  0  0
   57.6883   31.0941   44.0046 H   0  0  0  0  0  0  0  0  0  0  0  0
   56.4974   33.2816   44.0817 H   0  0  0  0  0  0  0  0  0  0  0  0
   57.0054   34.9194   45.8941 H   0  0  0  0  0  0  0  0  0  0  0  0
   58.6986   34.3686   47.6385 H   0  0  0  0  0  0  0  0  0  0  0  0
   62.0532   31.4142   49.5484 H   0  0  0  0  0  0  0  0  0  0  0  0
   64.4140   32.2253   49.4612 H   0  0  0  0  0  0  0  0  0  0  0  0
   65.1344   33.7842   47.6488 H   0  0  0  0  0  0  0  0  0  0  0  0
   63.4988   34.5232   45.9135 H   0  0  0  0  0  0  0  0  0  0  0  0
   61.1413   33.7102   45.9896 H   0  0  0  0  0  0  0  0  0  0  0  0
   58.5984   29.2430   43.2129 H   0  0  0  0  0  0  0  0  0  0  0  0
   57.0180   27.1990   43.3010 H   0  0  0  0  0  0  0  0  0  0  0  0
  1  2  1  0
  2  3  1  0
  2  4  1  0
  4  5  2  0
  4  6  1  0
  6  7  2  0
  7  8  1  0
  8  9  1  0
  9 10  1  0
 10 11  2  0
 11 12  1  0
 12 13  2  0
 13 14  1  0
 14 15  2  0
 15 16  1  0
 16 17  1  0
 17 18  2  0
 18 19  1  0
 19 20  2  0
 20 21  1  0
 21 22  2  0
  8 23  1  0
 23 24  2  0
 24  6  1  0
 15 10  1  0
 22 17  1  0
  1 25  1  0
  1 26  1  0
  1 27  1  0
  3 28  1  0
  3 29  1  0
  3 30  1  0
  7 31  1  0
  9 32  1  0
  9 33  1  0
 11 34  1  0
 12 35  1  0
 13 36  1  0
 14 37  1  0
 18 38  1  0
 19 39  1  0
 20 40  1  0
 21 41  1  0
 22 42  1  0
 23 43  1  0
 24 44  1  0
M  CHG  1  24   1
M  END
>  <UniqueID>  (10) 
9

>  <SMILES>  (10) 
CN(C)C(=O)c1cn(Cc2ccccc2Oc2ccccc2)c[nH+]1

>  <Energy>  (10) 
81.64062631169934

>  <Genealogy>  (10) 
CN(C)C(=O)c1cn(Cc2ccccc2Oc2ccccc2)c[nH+]1 (protonated)
CN(C)C(=O)c1cn(Cc2ccccc2Oc2ccccc2)c[nH+]1 (3D coordinates assigned)
CN(C)C(=O)c1cn(Cc2ccccc2Oc2ccccc2)c[nH+]1 (optimized conformer: 81.64062631169934 kcal/mol)

>  <smiles>  (10) 
CN(C)C(=O)c1cn(Cc2ccccc2Oc2ccccc2)cn1

>  <score_type>  (10) 
oracle

>  <origin>  (10) 
adg

>  <m_score__min__energy>  (10) 
-6.4400000000000004

>  <m_primary>  (10) 
energy

$$$$
10:0
     RDKit          3D

 39 41  0  0  0  0  0  0  0  0999 V2000
   64.8130   33.0550   49.2400 C   0  0  0  0  0  0  0  0  0  0  0  0
   63.5210   32.8320   48.5120 C   0  0  0  0  0  0  0  0  0  0  0  0
   63.2910   31.6390   47.8080 C   0  0  0  0  0  0  0  0  0  0  0  0
   62.0890   31.4480   47.1210 C   0  0  0  0  0  0  0  0  0  0  0  0
   61.0970   32.4420   47.1330 C   0  0  0  0  0  0  0  0  0  0  0  0
   59.8230   32.2690   46.4020 C   0  0  0  0  0  0  0  0  0  0  0  0
   59.1130   31.1450   46.2800 C   0  0  0  0  0  0  0  0  0  0  0  0
   59.3410   29.8480   46.9530 C   0  0  0  0  0  0  0  0  0  0  0  0
   59.3850   29.7820   48.3560 C   0  0  0  0  0  0  0  0  0  0  0  0
   59.6120   28.5600   48.9990 C   0  0  0  0  0  0  0  0  0  0  0  0
   59.8080   27.3990   48.2470 C   0  0  0  0  0  0  0  0  0  0  0  0
   59.7830   27.4570   46.8510 C   0  0  0  0  0  0  0  0  0  0  0  0
   59.5550   28.6770   46.2040 C   0  0  0  0  0  0  0  0  0  0  0  0
   57.9650   31.4660   45.4460 C   0  0  0  0  0  0  0  0  0  0  0  0
   57.0490   30.6620   45.1240 O   0  0  0  0  0  0  0  0  0  0  0  0
   58.0210   32.9100   45.0710 C   0  0  0  0  0  0  0  0  0  0  0  0
   56.8210   33.6790   45.6290 C   0  0  0  0  0  0  0  0  0  0  0  0
   58.1590   33.0900   43.5560 C   0  0  0  0  0  0  0  0  0  0  0  0
   59.2170   33.3270   45.7250 O   0  0  0  0  0  0  0  0  0  0  0  0
   61.3450   33.6470   47.8080 C   0  0  0  0  0  0  0  0  0  0  0  0
   62.5450   33.8390   48.4970 C   0  0  0  0  0  0  0  0  0  0  0  0
   64.6328   33.0239   50.3247 H   0  0  0  0  0  0  0  0  0  0  0  0
   65.5297   32.2673   48.9647 H   0  0  0  0  0  0  0  0  0  0  0  0
   65.2242   34.0374   48.9647 H   0  0  0  0  0  0  0  0  0  0  0  0
   64.0595   30.8521   47.7972 H   0  0  0  0  0  0  0  0  0  0  0  0
   61.9188   30.5129   46.5672 H   0  0  0  0  0  0  0  0  0  0  0  0
   59.2403   30.6953   48.9517 H   0  0  0  0  0  0  0  0  0  0  0  0
   59.6361   28.5135   50.0978 H   0  0  0  0  0  0  0  0  0  0  0  0
   59.9821   26.4385   48.7541 H   0  0  0  0  0  0  0  0  0  0  0  0
   59.9427   26.5430   46.2601 H   0  0  0  0  0  0  0  0  0  0  0  0
   59.5431   28.7201   45.1049 H   0  0  0  0  0  0  0  0  0  0  0  0
   56.8519   33.6592   46.7284 H   0  0  0  0  0  0  0  0  0  0  0  0
   56.8590   34.7214   45.2798 H   0  0  0  0  0  0  0  0  0  0  0  0
   55.8898   33.2090   45.2798 H   0  0  0  0  0  0  0  0  0  0  0  0
   58.8161   33.9471   43.3469 H   0  0  0  0  0  0  0  0  0  0  0  0
   58.5928   32.1796   43.1166 H   0  0  0  0  0  0  0  0  0  0  0  0
   57.1672   33.2726   43.1166 H   0  0  0  0  0  0  0  0  0  0  0  0
   60.5892   34.4461   47.7945 H   0  0  0  0  0  0  0  0  0  0  0  0
   62.7252   34.7842   49.0301 H   0  0  0  0  0  0  0  0  0  0  0  0
  1  2  1  0
  2  3  2  0
  3  4  1  0
  4  5  2  0
  5  6  1  0
  6  7  2  0
  7  8  1  0
  8  9  2  0
  9 10  1  0
 10 11  2  0
 11 12  1  0
 12 13  2  0
  7 14  1  0
 14 15  2  0
 14 16  1  0
 16 17  1  0
 16 18  1  0
 16 19  1  0
  5 20  1  0
 20 21  2  0
 21  2  1  0
 19  6  1  0
 13  8  1  0
  1 22  1  0
  1 23  1  0
  1 24  1  0
  3 25  1  0
  4 26  1  0
  9 27  1  0
 10 28  1  0
 11 29  1  0
 12 30  1  0
 13 31  1  0
 17 32  1  0
 17 33  1  0
 17 34  1  0
 18 35  1  0
 18 36  1  0
 18 37  1  0
 20 38  1  0
 21 39  1  0
M  END
>  <UniqueID>  (11) 
10

>  <SMILES>  (11) 
Cc1ccc(C2=C(c3ccccc3)C(=O)C(C)(C)O2)cc1

>  <Energy>  (11) 
62.83133813433634

>  <Genealogy>  (11) 
Cc1ccc(C2=C(c3ccccc3)C(=O)C(C)(C)O2)cc1 (3D coordinates assigned)
Cc1ccc(C2=C(c3ccccc3)C(=O)C(C)(C)O2)cc1 (nonaromatic ring conformer: 62.83133813433634 kcal/mol)

>  <smiles>  (11) 
Cc1ccc(C2=C(c3ccccc3)C(=O)C(C)(C)O2)cc1

>  <score_type>  (11) 
oracle

>  <origin>  (11) 
adg

>  <m_score__min__energy>  (11) 
-7.3099999999999996

>  <m_primary>  (11) 
energy

$$$$
11:0
     RDKit          3D

 40 41  0  0  0  0  0  0  0  0999 V2000
   61.1000   31.6450   47.1640 C   0  0  0  0  0  0  0  0  0  0  0  0
   60.8520   30.3190   46.4290 C   0  0  0  0  0  0  0  0  0  0  0  0
   59.4850   29.7590   46.6020 N   0  0  0  0  0  0  0  0  0  0  0  0
   58.9640   29.9590   47.9740 C   0  0  0  0  0  0  0  0  0  0  0  0
   59.5960   28.9440   48.9230 C   0  0  0  0  0  0  0  0  0  0  0  0
   59.3210   28.3640   46.1250 C   0  0  0  0  0  0  0  0  0  0  0  0
   58.4920   28.2990   44.8390 C   0  0  0  0  0  0  0  0  0  0  0  0
   56.7040   28.3090   45.2430 S   0  0  0  0  0  0  0  0  0  0  0  0
   56.1770   29.3810   43.8620 C   0  0  0  0  0  0  0  0  0  0  0  0
   56.9760   30.6450   43.8550 C   0  0  0  0  0  0  0  0  0  0  0  0
   57.5180   31.1900   42.7480 N   0  0  0  0  0  0  0  0  0  0  0  0
   58.1430   32.2990   43.1810 C   0  0  0  0  0  0  0  0  0  0  0  0
   57.9500   32.3850   44.5450 C   0  0  0  0  0  0  0  0  0  0  0  0
   58.4730   33.4120   45.4530 C   0  0  0  0  0  0  0  0  0  0  0  0
   59.2910   34.4820   45.1100 C   0  0  0  0  0  0  0  0  0  0  0  0
   59.6440   35.2780   46.2070 C   0  0  0  0  0  0  0  0  0  0  0  0
   59.1100   34.8380   47.4110 C   0  0  0  0  0  0  0  0  0  0  0  0
   58.1980   33.4570   47.1100 S   0  0  0  0  0  0  0  0  0  0  0  0
   57.2240   31.3620   44.9290 O   0  0  0  0  0  0  0  0  0  0  0  0
   61.0680   31.4738   48.2501 H   0  0  0  0  0  0  0  0  0  0  0  0
   62.0876   32.0402   46.8841 H   0  0  0  0  0  0  0  0  0  0  0  0
   60.3220   32.3705   46.8841 H   0  0  0  0  0  0  0  0  0  0  0  0
   61.0206   30.4858   45.3549 H   0  0  0  0  0  0  0  0  0  0  0  0
   61.5457   29.5863   46.8671 H   0  0  0  0  0  0  0  0  0  0  0  0
   59.2091   30.9765   48.3125 H   0  0  0  0  0  0  0  0  0  0  0  0
   57.8727   29.8209   47.9706 H   0  0  0  0  0  0  0  0  0  0  0  0
   59.4070   29.2475   49.9633 H   0  0  0  0  0  0  0  0  0  0  0  0
   59.1558   27.9518   48.7448 H   0  0  0  0  0  0  0  0  0  0  0  0
   60.6806   28.9013   48.7448 H   0  0  0  0  0  0  0  0  0  0  0  0
   60.3149   27.9346   45.9306 H   0  0  0  0  0  0  0  0  0  0  0  0
   58.7914   27.7954   46.9036 H   0  0  0  0  0  0  0  0  0  0  0  0
   58.7279   29.1696   44.2094 H   0  0  0  0  0  0  0  0  0  0  0  0
   58.7347   27.3714   44.3000 H   0  0  0  0  0  0  0  0  0  0  0  0
   56.3294   28.8496   42.9110 H   0  0  0  0  0  0  0  0  0  0  0  0
   55.1128   29.6299   43.9870 H   0  0  0  0  0  0  0  0  0  0  0  0
   57.4720   30.8290   41.7690 H   0  0  0  0  0  0  0  0  0  0  0  0
   58.7070   33.0102   42.5596 H   0  0  0  0  0  0  0  0  0  0  0  0
   59.6268   34.6831   44.0820 H   0  0  0  0  0  0  0  0  0  0  0  0
   60.2843   36.1684   46.1227 H   0  0  0  0  0  0  0  0  0  0  0  0
   59.2580   35.3113   48.3929 H   0  0  0  0  0  0  0  0  0  0  0  0
  1  2  1  0
  2  3  1  0
  3  4  1  0
  4  5  1  0
  3  6  1  0
  6  7  1  0
  7  8  1  0
  8  9  1  0
  9 10  1  0
 10 11  2  0
 11 12  1  0
 12 13  2  0
 13 14  1  0
 14 15  2  0
 15 16  1  0
 16 17  2  0
 17 18  1  0
 13 19  1  0
 19 10  1  0
 18 14  1  0
  1 20  1  0
  1 21  1  0
  1 22  1  0
  2 23  1  0
  2 24  1  0
  4 25  1  0
  4 26  1  0
  5 27  1  0
  5 28  1  0
  5 29  1  0
  6 30  1  0
  6 31  1  0
  7 32  1  0
  7 33  1  0
  9 34  1  0
  9 35  1  0
 11 36  1  0
 12 37  1  0
 15 38  1  0
 16 39  1  0
 17 40  1  0
M  CHG  1  11   1
M  END
>  <UniqueID>  (12) 
11

>  <SMILES>  (12) 
CCN(CC)CCSCc1[nH+]cc(-c2cccs2)o1

>  <Energy>  (12) 
90.71816268107641

>  <Genealogy>  (12) 
CCN(CC)CCSCc1[nH+]cc(-c2cccs2)o1 (protonated)
CCN(CC)CCSCc1[nH+]cc(-c2cccs2)o1 (3D coordinates assigned)
CCN(CC)CCSCc1[nH+]cc(-c2cccs2)o1 (optimized conformer: 90.71816268107641 kcal/mol)

>  <smiles>  (12) 
CCN(CC)CCSCc1ncc(-c2cccs2)o1

>  <score_type>  (12) 
oracle

>  <origin>  (12) 
adg

>  <m_score__min__energy>  (12) 
-4.6799999999999997

>  <m_primary>  (12) 
energy

$$$$
12:0
     RDKit          3D

 31 33  0  0  0  0  0  0  0  0999 V2000
   58.8680   22.6580   44.9680 C   0  0  0  0  0  0  0  0  0  0  0  0
   58.9220   23.6260   46.0110 O   0  0  0  0  0  0  0  0  0  0  0  0
   58.5130   24.9610   45.8760 C   0  0  0  0  0  0  0  0  0  0  0  0
   57.1700   25.3190   45.6490 C   0  0  0  0  0  0  0  0  0  0  0  0
   56.8080   26.6640   45.5210 C   0  0  0  0  0  0  0  0  0  0  0  0
   57.7830   27.6720   45.6180 C   0  0  0  0  0  0  0  0  0  0  0  0
   57.4670   29.0350   45.4920 C   0  0  0  0  0  0  0  0  0  0  0  0
   56.2790   29.3940   45.2600 O   0  0  0  0  0  0  0  0  0  0  0  0
   58.4910   29.9960   45.6060 C   0  0  0  0  0  0  0  0  0  0  0  0
   58.2170   31.4520   45.4950 C   0  0  0  0  0  0  0  0  0  0  0  0
   58.0310   32.0440   44.2320 C   0  0  0  0  0  0  0  0  0  0  0  0
   57.7820   33.4150   44.1240 C   0  0  0  0  0  0  0  0  0  0  0  0
   57.7210   34.2090   45.2730 C   0  0  0  0  0  0  0  0  0  0  0  0
   57.9120   33.6330   46.5310 C   0  0  0  0  0  0  0  0  0  0  0  0
   58.1600   32.2610   46.6440 C   0  0  0  0  0  0  0  0  0  0  0  0
   59.8010   29.5460   45.8260 C   0  0  0  0  0  0  0  0  0  0  0  0
   60.0680   28.2480   45.9350 O   0  0  0  0  0  0  0  0  0  0  0  0
   59.1300   27.3120   45.8440 C   0  0  0  0  0  0  0  0  0  0  0  0
   59.4830   25.9660   45.9710 C   0  0  0  0  0  0  0  0  0  0  0  0
   58.8118   21.6503   45.4055 H   0  0  0  0  0  0  0  0  0  0  0  0
   57.9785   22.8380   44.3464 H   0  0  0  0  0  0  0  0  0  0  0  0
   59.7720   22.7379   44.3464 H   0  0  0  0  0  0  0  0  0  0  0  0
   56.4011   24.5362   45.5719 H   0  0  0  0  0  0  0  0  0  0  0  0
   55.7565   26.9340   45.3438 H   0  0  0  0  0  0  0  0  0  0  0  0
   58.0819   31.4242   43.3246 H   0  0  0  0  0  0  0  0  0  0  0  0
   57.6338   33.8699   43.1335 H   0  0  0  0  0  0  0  0  0  0  0  0
   57.5226   35.2875   45.1863 H   0  0  0  0  0  0  0  0  0  0  0  0
   57.8673   34.2592   47.4342 H   0  0  0  0  0  0  0  0  0  0  0  0
   58.3113   31.8124   47.6369 H   0  0  0  0  0  0  0  0  0  0  0  0
   60.6188   30.2769   45.9095 H   0  0  0  0  0  0  0  0  0  0  0  0
   60.5339   25.6932   46.1475 H   0  0  0  0  0  0  0  0  0  0  0  0
  1  2  1  0
  2  3  1  0
  3  4  2  0
  4  5  1  0
  5  6  2  0
  6  7  1  0
  7  8  2  0
  7  9  1  0
  9 10  1  0
 10 11  2  0
 11 12  1  0
 12 13  2  0
 13 14  1  0
 14 15  2  0
  9 16  2  0
 16 17  1  0
 17 18  1  0
 18 19  2  0
 19  3  1  0
 18  6  1  0
 15 10  1  0
  1 20  1  0
  1 21  1  0
  1 22  1  0
  4 23  1  0
  5 24  1  0
 11 25  1  0
 12 26  1  0
 13 27  1  0
 14 28  1  0
 15 29  1  0
 16 30  1  0
 19 31  1  0
M  END
>  <UniqueID>  (13) 
12

>  <SMILES>  (13) 
COc1ccc2c(=O)c(-c3ccccc3)coc2c1

>  <Energy>  (13) 
45.34689506162045

>  <Genealogy>  (13) 
COc1ccc2c(=O)c(-c3ccccc3)coc2c1 (3D coordinates assigned)
COc1ccc2c(=O)c(-c3ccccc3)coc2c1 (optimized conformer: 45.34689506162045 kcal/mol)

>  <smiles>  (13) 
COc1ccc2c(=O)c(-c3ccccc3)coc2c1

>  <score_type>  (13) 
oracle

>  <origin>  (13) 
adg

>  <m_score__min__energy>  (13) 
-6.2400000000000002

>  <m_primary>  (13) 
energy

$$$$
13:0
     RDKit          3D

 56 59  0  0  1  0  0  0  0  0999 V2000
   56.8400   29.1420   52.9120 C   0  0  0  0  0  0  0  0  0  0  0  0
   57.0650   30.0960   51.8720 N   0  0  0  0  0  0  0  0  0  0  0  0
   56.2890   31.2900   51.9810 C   0  0  0  0  0  0  0  0  0  0  0  0
   58.4290   30.4030   51.5920 C   0  0  0  0  0  0  0  0  0  0  0  0
   59.3340   29.2300   51.8240 C   0  0  0  0  0  0  0  0  0  0  0  0
   60.2920   29.1640   50.7850 O   0  0  0  0  0  0  0  0  0  0  0  0
   59.9470   28.6980   49.5040 C   0  0  0  0  0  0  0  0  0  0  0  0
   58.8070   29.0890   48.8590 C   0  0  0  0  0  0  0  0  0  0  0  0
   58.5050   28.6090   47.6020 C   0  0  0  0  0  0  0  0  0  0  0  0
   59.3260   27.7190   46.9390 C   0  0  0  0  0  0  0  0  0  0  0  0
   59.0190   27.1880   45.5850 C   0  0  0  0  0  0  0  0  0  0  0  0
   58.9700   28.2170   44.5670 N   0  0  0  0  0  0  0  0  0  0  0  0
   58.1330   29.1920   44.5310 C   0  0  0  0  0  0  0  0  0  0  0  0
   56.9830   29.0420   43.8630 N   0  0  0  0  0  0  0  0  0  0  0  0
   56.0850   30.0380   43.8030 C   0  0  0  0  0  0  0  0  0  0  0  0
   56.3730   31.2100   44.4400 N   0  0  0  0  0  0  0  0  0  0  0  0
   57.5230   31.3830   45.1190 C   0  0  0  0  0  0  0  0  0  0  0  0
   58.4410   30.3620   45.1800 C   0  0  0  0  0  0  0  0  0  0  0  0
   59.4570   30.7930   45.8940 N   0  0  0  0  0  0  0  0  0  0  0  0
   59.2570   32.0690   46.3190 C   0  0  0  0  0  0  0  0  0  0  0  0
   60.2210   32.7840   47.1220 C   0  0  0  0  0  0  0  0  0  0  0  0
   61.4870   33.1350   46.7350 C   0  0  0  0  0  0  0  0  0  0  0  0
   62.3720   33.8290   47.5680 C   0  0  0  0  0  0  0  0  0  0  0  0
   61.9880   34.1940   48.8400 C   0  0  0  0  0  0  0  0  0  0  0  0
   60.7190   33.8440   49.2350 C   0  0  0  0  0  0  0  0  0  0  0  0
   59.8620   33.1650   48.4130 C   0  0  0  0  0  0  0  0  0  0  0  0
   58.6240   32.8760   48.9230 F   0  0  0  0  0  0  0  0  0  0  0  0
   58.0650   32.4080   45.8300 N   0  0  0  0  0  0  0  0  0  0  0  0
   57.3750   33.6680   45.9900 C   0  0  0  0  0  0  0  0  0  0  0  0
   60.4790   27.3370   47.6200 C   0  0  0  0  0  0  0  0  0  0  0  0
   60.7930   27.8100   48.8750 C   0  0  0  0  0  0  0  0  0  0  0  0
   56.9555   29.6318   53.8901 H   0  0  0  0  0  0  0  0  0  0  0  0
   55.8215   28.7361   52.8232 H   0  0  0  0  0  0  0  0  0  0  0  0
   57.5698   28.3238   52.8232 H   0  0  0  0  0  0  0  0  0  0  0  0
   56.1329   31.5302   53.0430 H   0  0  0  0  0  0  0  0  0  0  0  0
   56.8213   32.1192   51.4919 H   0  0  0  0  0  0  0  0  0  0  0  0
   55.3151   31.1403   51.4919 H   0  0  0  0  0  0  0  0  0  0  0  0
   58.5134   30.7126   50.5399 H   0  0  0  0  0  0  0  0  0  0  0  0
   58.7400   31.2087   52.2732 H   0  0  0  0  0  0  0  0  0  0  0  0
   59.8473   29.3476   52.7898 H   0  0  0  0  0  0  0  0  0  0  0  0
   58.7403   28.3041   51.8362 H   0  0  0  0  0  0  0  0  0  0  0  0
   58.1214   29.7959   49.3491 H   0  0  0  0  0  0  0  0  0  0  0  0
   57.5799   28.9462   47.1117 H   0  0  0  0  0  0  0  0  0  0  0  0
   59.7970   26.4606   45.3099 H   0  0  0  0  0  0  0  0  0  0  0  0
   58.0213   26.7272   45.6327 H   0  0  0  0  0  0  0  0  0  0  0  0
   56.7600   28.1600   43.3790 H   0  0  0  0  0  0  0  0  0  0  0  0
   55.1402   29.9125   43.2538 H   0  0  0  0  0  0  0  0  0  0  0  0
   61.8232   32.8592   45.7246 H   0  0  0  0  0  0  0  0  0  0  0  0
   63.3787   34.0842   47.2056 H   0  0  0  0  0  0  0  0  0  0  0  0
   62.6673   34.7415   49.5099 H   0  0  0  0  0  0  0  0  0  0  0  0
   60.3814   34.1189   50.2452 H   0  0  0  0  0  0  0  0  0  0  0  0
   57.2551   33.8869   47.0613 H   0  0  0  0  0  0  0  0  0  0  0  0
   57.9602   34.4694   45.5152 H   0  0  0  0  0  0  0  0  0  0  0  0
   56.3846   33.6066   45.5152 H   0  0  0  0  0  0  0  0  0  0  0  0
   61.1672   26.6285   47.1359 H   0  0  0  0  0  0  0  0  0  0  0  0
   61.7162   27.4800   49.3738 H   0  0  0  0  0  0  0  0  0  0  0  0
  1  2  1  0
  2  3  1  0
  2  4  1  0
  4  5  1  0
  5  6  1  0
  6  7  1  0
  7  8  2  0
  8  9  1  0
  9 10  2  0
 10 11  1  0
 11 12  1  0
 12 13  2  0
 13 14  1  0
 14 15  1  0
 15 16  2  0
 16 17  1  0
 17 18  2  0
 18 19  1  0
 19 20  2  0
 20 21  1  0
 21 22  2  0
 22 23  1  0
 23 24  2  0
 24 25  1  0
 25 26  2  0
 26 27  1  0
 20 28  1  0
 28 29  1  0
 10 30  1  0
 30 31  2  0
 31  7  1  0
 18 13  1  0
 26 21  1  0
 28 17  1  0
  1 32  1  0
  1 33  1  0
  1 34  1  0
  3 35  1  0
  3 36  1  0
  3 37  1  0
  4 38  1  0
  4 39  1  0
  5 40  1  0
  5 41  1  0
  8 42  1  0
  9 43  1  0
 11 44  1  0
 11 45  1  0
 14 46  1  0
 15 47  1  0
 22 48  1  0
 23 49  1  0
 24 50  1  0
 25 51  1  0
 29 52  1  0
 29 53  1  0
 29 54  1  0
 30 55  1  0
 31 56  1  0
M  END
>  <smiles>  (14) 
CN(C)CCOc1ccc(CN=c2[nH]cnc3c2nc(-c2ccccc2F)n3C)cc1

>  <score_type>  (14) 
oracle

>  <origin>  (14) 
adg

>  <m_score__min__energy>  (14) 
-8.2899999999999991

>  <m_primary>  (14) 
energy

$$$$
14:0
     RDKit          3D

 64 66  0  0  0  0  0  0  0  0999 V2000
   66.5970   32.8560   50.1980 C   0  0  0  0  0  0  0  0  0  0  0  0
   65.4140   33.4900   49.7250 O   0  0  0  0  0  0  0  0  0  0  0  0
   64.3070   32.8050   49.2020 C   0  0  0  0  0  0  0  0  0  0  0  0
   63.8980   32.9410   47.8610 C   0  0  0  0  0  0  0  0  0  0  0  0
   62.7900   32.2320   47.3860 C   0  0  0  0  0  0  0  0  0  0  0  0
   62.0800   31.3790   48.2420 C   0  0  0  0  0  0  0  0  0  0  0  0
   60.6920   30.4610   47.6640 S   0  0  0  0  0  0  0  0  0  0  0  0
   60.6650   29.1830   48.4470 O   0  0  0  0  0  0  0  0  0  0  0  0
   60.8530   30.1340   46.2060 O   0  0  0  0  0  0  0  0  0  0  0  0
   59.2310   31.4030   47.9230 N   0  0  0  0  0  0  0  0  0  0  0  0
   59.1570   31.8630   49.3310 C   0  0  0  0  0  0  0  0  0  0  0  0
   59.3100   33.3860   49.4880 C   0  0  0  0  0  0  0  0  0  0  0  0
   60.2780   33.9570   48.4340 C   0  0  0  0  0  0  0  0  0  0  0  0
   60.1070   33.4810   47.1010 O   0  0  0  0  0  0  0  0  0  0  0  0
   59.0620   32.5330   46.9750 C   0  0  1  0  0  0  0  0  0  0  0  0
   58.8700   32.0690   45.5100 C   0  0  0  0  0  0  0  0  0  0  0  0
   58.2830   30.7310   45.3860 N   0  0  0  0  0  0  0  0  0  0  0  0
   56.9540   30.5560   44.8730 C   0  0  0  0  0  0  0  0  0  0  0  0
   56.2850   31.5590   44.5060 O   0  0  0  0  0  0  0  0  0  0  0  0
   56.3750   29.2060   44.7540 C   0  0  0  0  0  0  0  0  0  0  0  0
   55.1380   29.0870   44.5460 O   0  0  0  0  0  0  0  0  0  0  0  0
   57.1710   28.0180   44.8710 N   0  0  0  0  0  0  0  0  0  0  0  0
   57.5810   27.4000   46.1310 C   0  0  0  0  0  0  0  0  0  0  0  0
   57.0210   25.9750   46.2240 C   0  0  0  0  0  0  0  0  0  0  0  0
   57.9730   24.9280   45.6240 C   0  0  0  0  0  0  0  0  0  0  0  0
   57.2500   23.8190   44.9620 N   0  0  0  0  0  0  0  0  0  0  0  0
   56.7140   24.2720   43.6660 C   0  0  0  0  0  0  0  0  0  0  0  0
   55.9180   23.1360   42.9850 C   0  0  0  0  0  0  0  0  0  0  0  0
   56.1460   21.8730   43.5870 O   0  0  0  0  0  0  0  0  0  0  0  0
   57.5330   21.6590   43.7340 C   0  0  0  0  0  0  0  0  0  0  0  0
   58.1210   22.6350   44.7700 C   0  0  0  0  0  0  0  0  0  0  0  0
   62.4840   31.2440   49.5760 C   0  0  0  0  0  0  0  0  0  0  0  0
   63.5890   31.9540   50.0510 C   0  0  0  0  0  0  0  0  0  0  0  0
   66.5980   32.8555   51.2980 H   0  0  0  0  0  0  0  0  0  0  0  0
   66.6295   31.8196   49.8308 H   0  0  0  0  0  0  0  0  0  0  0  0
   67.4780   33.4029   49.8308 H   0  0  0  0  0  0  0  0  0  0  0  0
   64.4525   33.6078   47.1844 H   0  0  0  0  0  0  0  0  0  0  0  0
   62.4750   32.3441   46.3380 H   0  0  0  0  0  0  0  0  0  0  0  0
   58.1811   31.5668   49.7432 H   0  0  0  0  0  0  0  0  0  0  0  0
   59.9958   31.3965   49.8683 H   0  0  0  0  0  0  0  0  0  0  0  0
   58.3252   33.8606   49.3660 H   0  0  0  0  0  0  0  0  0  0  0  0
   59.7184   33.5952   50.4877 H   0  0  0  0  0  0  0  0  0  0  0  0
   60.1521   35.0497   48.4192 H   0  0  0  0  0  0  0  0  0  0  0  0
   61.2797   33.6216   48.7409 H   0  0  0  0  0  0  0  0  0  0  0  0
   58.1255   33.0369   47.2562 H   0  0  0  0  0  0  0  0  0  0  0  0
   58.2084   32.7865   45.0027 H   0  0  0  0  0  0  0  0  0  0  0  0
   59.8701   32.0241   45.0541 H   0  0  0  0  0  0  0  0  0  0  0  0
   58.7960   29.8890   45.7280 H   0  0  0  0  0  0  0  0  0  0  0  0
   58.6794   27.3634   46.1782 H   0  0  0  0  0  0  0  0  0  0  0  0
   57.1909   27.9963   46.9690 H   0  0  0  0  0  0  0  0  0  0  0  0
   56.8509   25.7313   47.2831 H   0  0  0  0  0  0  0  0  0  0  0  0
   56.0851   25.9454   45.6468 H   0  0  0  0  0  0  0  0  0  0  0  0
   58.6179   25.4215   44.8820 H   0  0  0  0  0  0  0  0  0  0  0  0
   58.5610   24.4989   46.4487 H   0  0  0  0  0  0  0  0  0  0  0  0
   56.0489   25.1327   43.8298 H   0  0  0  0  0  0  0  0  0  0  0  0
   57.5522   24.5603   43.0146 H   0  0  0  0  0  0  0  0  0  0  0  0
   54.8450   23.3691   43.0512 H   0  0  0  0  0  0  0  0  0  0  0  0
   56.2561   23.0726   41.9402 H   0  0  0  0  0  0  0  0  0  0  0  0
   57.7066   20.6261   44.0701 H   0  0  0  0  0  0  0  0  0  0  0  0
   58.0246   21.8293   42.7648 H   0  0  0  0  0  0  0  0  0  0  0  0
   58.2291   22.1120   45.7316 H   0  0  0  0  0  0  0  0  0  0  0  0
   59.0965   22.9827   44.3993 H   0  0  0  0  0  0  0  0  0  0  0  0
   61.9293   30.5766   50.2520 H   0  0  0  0  0  0  0  0  0  0  0  0
   63.8978   31.8437   51.1010 H   0  0  0  0  0  0  0  0  0  0  0  0
  1  2  1  0
  2  3  1  0
  3  4  2  0
  4  5  1  0
  5  6  2  0
  6  7  1  0
  7  8  2  0
  7  9  2  0
  7 10  1  0
 10 11  1  0
 11 12  1  0
 12 13  1  0
 13 14  1  0
 14 15  1  0
 15 16  1  0
 16 17  1  0
 17 18  1  0
 18 19  2  0
 18 20  1  0
 20 21  2  0
 20 22  1  0
 22 23  1  0
 23 24  1  0
 24 25  1  0
 25 26  1  0
 26 27  1  0
 27 28  1  0
 28 29  1  0
 29 30  1  0
 30 31  1  0
  6 32  1  0
 32 33  2  0
 33  3  1  0
 15 10  1  0
 31 26  1  0
  1 34  1  0
  1 35  1  0
  1 36  1  0
  4 37  1  0
  5 38  1  0
 11 39  1  0
 11 40  1  0
 12 41  1  0
 12 42  1  0
 13 43  1  0
 13 44  1  0
 15 45  1  1
 16 46  1  0
 16 47  1  0
 17 48  1  0
 23 49  1  0
 23 50  1  0
 24 51  1  0
 24 52  1  0
 25 53  1  0
 25 54  1  0
 27 55  1  0
 27 56  1  0
 28 57  1  0
 28 58  1  0
 30 59  1  0
 30 60  1  0
 31 61  1  0
 31 62  1  0
 32 63  1  0
 33 64  1  0
M  CHG  1  22  -1
M  END
>  <UniqueID>  (15) 
13

>  <SMILES>  (15) 
COc1ccc(S(=O)(=O)N2CCCO[C@H]2CNC(=O)C(=O)[N-]CCCN2CCOCC2)cc1

>  <Energy>  (15) 
84.33042943887138

>  <Genealogy>  (15) 
COc1ccc(S(=O)(=O)N2CCCOC2CNC(=O)C(=O)[N-]CCCN2CCOCC2)cc1 (protonated)
COc1ccc(S(=O)(=O)N2CCCO[C@H]2CNC(=O)C(=O)[N-]CCCN2CCOCC2)cc1 (chirality)
COc1ccc(S(=O)(=O)N2CCCO[C@H]2CNC(=O)C(=O)[N-]CCCN2CCOCC2)cc1 (3D coordinates assigned)
COc1ccc(S(=O)(=O)N2CCCO[C@H]2CNC(=O)C(=O)[N-]CCCN2CCOCC2)cc1 (nonaromatic ring conformer: 84.33042943887138 kcal/mol)

>  <smiles>  (15) 
COc1ccc(S(=O)(=O)N2CCCOC2CNC(=O)C(=O)NCCCN2CCOCC2)cc1

>  <score_type>  (15) 
oracle

>  <origin>  (15) 
adg

>  <m_score__min__energy>  (15) 
-10.32

>  <m_primary>  (15) 
energy

$$$$
15:0
     RDKit          3D

 39 41  0  0  0  0  0  0  0  0999 V2000
   57.9480   24.6270   45.9200 O   0  0  0  0  0  0  0  0  0  0  0  0
   57.5760   24.6900   44.7170 C   0  0  0  0  0  0  0  0  0  0  0  0
   57.4740   25.9650   44.0620 N   0  0  0  0  0  0  0  0  0  0  0  0
   58.1340   27.1570   44.5240 C   0  0  0  0  0  0  0  0  0  0  0  0
   59.3470   27.0940   45.2340 C   0  0  0  0  0  0  0  0  0  0  0  0
   59.9830   28.2670   45.6470 C   0  0  0  0  0  0  0  0  0  0  0  0
   59.4240   29.5120   45.3490 C   0  0  0  0  0  0  0  0  0  0  0  0
   58.2240   29.5900   44.6300 C   0  0  0  0  0  0  0  0  0  0  0  0
   57.5510   31.1680   44.2310 S   0  0  0  0  0  0  0  0  0  0  0  0
   57.6250   31.4000   42.7460 O   0  0  0  0  0  0  0  0  0  0  0  0
   56.1080   31.1940   44.6500 O   0  0  0  0  0  0  0  0  0  0  0  0
   58.4370   32.4110   45.0760 N   0  0  0  0  0  0  0  0  0  0  0  0
   58.1380   33.7280   44.4900 C   0  0  0  0  0  0  0  0  0  0  0  0
   59.0730   34.8040   45.0770 C   0  0  0  0  0  0  0  0  0  0  0  0
   59.6220   34.4140   46.4590 C   0  0  0  0  0  0  0  0  0  0  0  0
   58.5770   33.6400   47.2660 C   0  0  0  0  0  0  0  0  0  0  0  0
   58.0890   32.3820   46.5130 C   0  0  0  0  0  0  0  0  0  0  0  0
   57.5890   28.4130   44.2110 C   0  0  0  0  0  0  0  0  0  0  0  0
   57.2070   23.4440   44.0200 C   0  0  0  0  0  0  0  0  0  0  0  0
   57.8900   22.2330   44.1720 C   0  0  0  0  0  0  0  0  0  0  0  0
   57.0620   21.1680   43.1930 S   0  0  0  0  0  0  0  0  0  0  0  0
   55.9060   22.2080   42.6200 N   0  0  0  0  0  0  0  0  0  0  0  0
   56.1330   23.3960   43.1720 N   0  0  0  0  0  0  0  0  0  0  0  0
   56.8010   26.0610   43.2680 H   0  0  0  0  0  0  0  0  0  0  0  0
   59.7964   26.1169   45.4648 H   0  0  0  0  0  0  0  0  0  0  0  0
   60.9271   28.2102   46.2087 H   0  0  0  0  0  0  0  0  0  0  0  0
   59.9269   30.4328   45.6794 H   0  0  0  0  0  0  0  0  0  0  0  0
   58.2801   33.6802   43.4003 H   0  0  0  0  0  0  0  0  0  0  0  0
   57.0969   33.9943   44.7250 H   0  0  0  0  0  0  0  0  0  0  0  0
   59.9190   34.9499   44.3893 H   0  0  0  0  0  0  0  0  0  0  0  0
   58.4872   35.7272   45.1976 H   0  0  0  0  0  0  0  0  0  0  0  0
   60.5137   33.7836   46.3270 H   0  0  0  0  0  0  0  0  0  0  0  0
   59.8774   35.3331   47.0067 H   0  0  0  0  0  0  0  0  0  0  0  0
   59.0227   33.3318   48.2233 H   0  0  0  0  0  0  0  0  0  0  0  0
   57.7117   34.2996   47.4278 H   0  0  0  0  0  0  0  0  0  0  0  0
   58.5524   31.4953   46.9703 H   0  0  0  0  0  0  0  0  0  0  0  0
   56.9922   32.3508   46.5905 H   0  0  0  0  0  0  0  0  0  0  0  0
   56.6557   28.4734   43.6320 H   0  0  0  0  0  0  0  0  0  0  0  0
   58.7729   22.0296   44.7958 H   0  0  0  0  0  0  0  0  0  0  0  0
  1  2  2  0
  2  3  1  0
  3  4  1  0
  4  5  2  0
  5  6  1  0
  6  7  2  0
  7  8  1  0
  8  9  1  0
  9 10  2  0
  9 11  2  0
  9 12  1  0
 12 13  1  0
 13 14  1  0
 14 15  1  0
 15 16  1  0
 16 17  1  0
  8 18  2  0
  2 19  1  0
 19 20  2  0
 20 21  1  0
 21 22  1  0
 22 23  2  0
 18  4  1  0
 23 19  1  0
 17 12  1  0
  3 24  1  0
  5 25  1  0
  6 26  1  0
  7 27  1  0
 13 28  1  0
 13 29  1  0
 14 30  1  0
 14 31  1  0
 15 32  1  0
 15 33  1  0
 16 34  1  0
 16 35  1  0
 17 36  1  0
 17 37  1  0
 18 38  1  0
 20 39  1  0
M  END
>  <UniqueID>  (16) 
14

>  <SMILES>  (16) 
O=C(Nc1cccc(S(=O)(=O)N2CCCCC2)c1)c1csnn1

>  <Energy>  (16) 
82.79242038200891

>  <Genealogy>  (16) 
O=C(Nc1cccc(S(=O)(=O)N2CCCCC2)c1)c1csnn1 (3D coordinates assigned)
O=C(Nc1cccc(S(=O)(=O)N2CCCCC2)c1)c1csnn1 (nonaromatic ring conformer: 82.79242038200891 kcal/mol)

>  <smiles>  (16) 
O=C(Nc1cccc(S(=O)(=O)N2CCCCC2)c1)c1csnn1

>  <score_type>  (16) 
oracle

>  <origin>  (16) 
adg

>  <m_score__min__energy>  (16) 
-9.6400000000000006

>  <m_primary>  (16) 
energy

$$$$
16:0
     RDKit          3D

 45 45  0  0  0  0  0  0  0  0999 V2000
   60.0630   28.9230   44.8160 C   0  0  0  0  0  0  0  0  0  0  0  0
   59.2600   27.8040   44.1570 C   0  0  0  0  0  0  0  0  0  0  0  0
   57.7620   27.9550   44.4430 C   0  0  0  0  0  0  0  0  0  0  0  0
   57.1650   29.1140   43.6420 C   0  0  0  0  0  0  0  0  0  0  0  0
   56.2010   29.8900   44.4830 C   0  0  0  0  0  0  0  0  0  0  0  0
   55.1450   29.3380   44.8950 O   0  0  0  0  0  0  0  0  0  0  0  0
   56.5100   31.2390   44.8490 N   0  0  0  0  0  0  0  0  0  0  0  0
   57.8660   31.7830   44.9140 C   0  0  1  0  0  0  0  0  0  0  0  0
   58.0330   32.8150   43.7990 C   0  0  0  0  0  0  0  0  0  0  0  0
   58.1220   32.4350   46.2870 C   0  0  0  0  0  0  0  0  0  0  0  0
   59.4380   31.9970   46.8860 C   0  0  0  0  0  0  0  0  0  0  0  0
   60.5540   32.8420   46.7750 C   0  0  0  0  0  0  0  0  0  0  0  0
   61.8090   32.4590   47.2800 C   0  0  0  0  0  0  0  0  0  0  0  0
   62.9770   33.3710   47.1460 C   0  0  0  0  0  0  0  0  0  0  0  0
   64.0170   33.4880   48.2190 C   0  0  0  0  0  0  0  0  0  0  0  0
   63.1060   34.0740   46.1080 O   0  0  0  0  0  0  0  0  0  0  0  0
   61.9290   31.2040   47.9030 C   0  0  0  0  0  0  0  0  0  0  0  0
   60.8290   30.3530   48.0090 C   0  0  0  0  0  0  0  0  0  0  0  0
   59.5750   30.7350   47.4980 C   0  0  0  0  0  0  0  0  0  0  0  0
   58.4590   29.8840   47.5680 O   0  0  0  0  0  0  0  0  0  0  0  0
   58.5230   28.4810   47.7970 C   0  0  0  0  0  0  0  0  0  0  0  0
   59.9949   28.8281   45.9098 H   0  0  0  0  0  0  0  0  0  0  0  0
   61.1160   28.8499   44.5065 H   0  0  0  0  0  0  0  0  0  0  0  0
   59.6566   29.8972   44.5065 H   0  0  0  0  0  0  0  0  0  0  0  0
   59.4230   27.8377   43.0697 H   0  0  0  0  0  0  0  0  0  0  0  0
   59.5985   26.8423   44.5700 H   0  0  0  0  0  0  0  0  0  0  0  0
   57.2471   27.0233   44.1658 H   0  0  0  0  0  0  0  0  0  0  0  0
   57.6292   28.1645   45.5147 H   0  0  0  0  0  0  0  0  0  0  0  0
   57.9750   29.7807   43.3112 H   0  0  0  0  0  0  0  0  0  0  0  0
   56.6300   28.7067   42.7714 H   0  0  0  0  0  0  0  0  0  0  0  0
   58.5955   30.9702   44.7832 H   0  0  0  0  0  0  0  0  0  0  0  0
   58.1939   33.8094   44.2409 H   0  0  0  0  0  0  0  0  0  0  0  0
   58.8992   32.5457   43.1768 H   0  0  0  0  0  0  0  0  0  0  0  0
   57.1260   32.8326   43.1768 H   0  0  0  0  0  0  0  0  0  0  0  0
   58.1342   33.5281   46.1641 H   0  0  0  0  0  0  0  0  0  0  0  0
   57.3176   32.1196   46.9677 H   0  0  0  0  0  0  0  0  0  0  0  0
   60.4445   33.8205   46.2845 H   0  0  0  0  0  0  0  0  0  0  0  0
   63.5336   33.4336   49.2056 H   0  0  0  0  0  0  0  0  0  0  0  0
   64.7407   32.6656   48.1194 H   0  0  0  0  0  0  0  0  0  0  0  0
   64.5399   34.4506   48.1194 H   0  0  0  0  0  0  0  0  0  0  0  0
   62.9010   30.8900   48.3112 H   0  0  0  0  0  0  0  0  0  0  0  0
   60.9430   29.3737   48.4968 H   0  0  0  0  0  0  0  0  0  0  0  0
   58.5319   28.2862   48.8796 H   0  0  0  0  0  0  0  0  0  0  0  0
   57.6461   27.9952   47.3442 H   0  0  0  0  0  0  0  0  0  0  0  0
   59.4405   28.0771   47.3442 H   0  0  0  0  0  0  0  0  0  0  0  0
  1  2  1  0
  2  3  1  0
  3  4  1  0
  4  5  1  0
  5  6  2  0
  5  7  1  0
  7  8  1  0
  8  9  1  0
  8 10  1  0
 10 11  1  0
 11 12  2  0
 12 13  1  0
 13 14  1  0
 14 15  1  0
 14 16  2  0
 13 17  2  0
 17 18  1  0
 18 19  2  0
 19 20  1  0
 20 21  1  0
 19 11  1  0
  1 22  1  0
  1 23  1  0
  1 24  1  0
  2 25  1  0
  2 26  1  0
  3 27  1  0
  3 28  1  0
  4 29  1  0
  4 30  1  0
  8 31  1  6
  9 32  1  0
  9 33  1  0
  9 34  1  0
 10 35  1  0
 10 36  1  0
 12 37  1  0
 15 38  1  0
 15 39  1  0
 15 40  1  0
 17 41  1  0
 18 42  1  0
 21 43  1  0
 21 44  1  0
 21 45  1  0
M  CHG  1   7  -1
M  END
>  <UniqueID>  (17) 
15

>  <SMILES>  (17) 
CCCCC(=O)[N-][C@@H](C)Cc1cc(C(C)=O)ccc1OC

>  <Energy>  (17) 
27.185827058399575

>  <Genealogy>  (17) 
CCCCC(=O)[N-]C(C)Cc1cc(C(C)=O)ccc1OC (protonated)
CCCCC(=O)[N-][C@@H](C)Cc1cc(C(C)=O)ccc1OC (chirality)
CCCCC(=O)[N-][C@@H](C)Cc1cc(C(C)=O)ccc1OC (3D coordinates assigned)
CCCCC(=O)[N-][C@@H](C)Cc1cc(C(C)=O)ccc1OC (optimized conformer: 27.185827058399575 kcal/mol)

>  <smiles>  (17) 
CCCCC(=O)NC(C)Cc1cc(C(C)=O)ccc1OC

>  <score_type>  (17) 
oracle

>  <origin>  (17) 
adg

>  <m_score__min__energy>  (17) 
-8.7200000000000006

>  <m_primary>  (17) 
energy

$$$$
17:0
     RDKit          3D

 39 41  0  0  0  0  0  0  0  0999 V2000
   67.3400   33.0120   50.2560 C   0  0  0  0  0  0  0  0  0  0  0  0
   65.9130   32.5640   50.3610 C   0  0  0  0  0  0  0  0  0  0  0  0
   65.5360   31.5970   51.3020 C   0  0  0  0  0  0  0  0  0  0  0  0
   64.2330   31.2350   51.4240 N   0  0  0  0  0  0  0  0  0  0  0  0
   63.2540   31.7820   50.6520 C   0  0  0  0  0  0  0  0  0  0  0  0
   63.5840   32.7680   49.7000 C   0  0  0  0  0  0  0  0  0  0  0  0
   64.9220   33.1640   49.5750 C   0  0  0  0  0  0  0  0  0  0  0  0
   62.5560   33.3970   48.9090 N   0  0  0  0  0  0  0  0  0  0  0  0
   62.3500   32.9000   47.2570 S   0  0  0  0  0  0  0  0  0  0  0  0
   63.3460   33.6120   46.3850 O   0  0  0  0  0  0  0  0  0  0  0  0
   62.5720   31.4200   47.1110 O   0  0  0  0  0  0  0  0  0  0  0  0
   60.7120   33.3020   46.7590 C   0  0  0  0  0  0  0  0  0  0  0  0
   59.7020   32.3290   46.7870 C   0  0  0  0  0  0  0  0  0  0  0  0
   58.4120   32.6460   46.3500 C   0  0  0  0  0  0  0  0  0  0  0  0
   58.1260   33.9310   45.8800 C   0  0  0  0  0  0  0  0  0  0  0  0
   59.1330   34.9010   45.8430 C   0  0  0  0  0  0  0  0  0  0  0  0
   60.4240   34.5880   46.2770 C   0  0  0  0  0  0  0  0  0  0  0  0
   61.4820   34.2110   49.5040 C   0  0  0  0  0  0  0  0  0  0  0  0
   60.4390   33.3800   50.2640 C   0  0  0  0  0  0  0  0  0  0  0  0
   61.0550   32.4750   51.3570 C   0  0  0  0  0  0  0  0  0  0  0  0
   61.8860   31.3760   50.8340 N   0  0  0  0  0  0  0  0  0  0  0  0
   67.7583   33.1433   51.2649 H   0  0  0  0  0  0  0  0  0  0  0  0
   67.9233   32.2538   49.7131 H   0  0  0  0  0  0  0  0  0  0  0  0
   67.3853   33.9676   49.7131 H   0  0  0  0  0  0  0  0  0  0  0  0
   66.2975   31.1298   51.9437 H   0  0  0  0  0  0  0  0  0  0  0  0
   65.1952   33.9502   48.8558 H   0  0  0  0  0  0  0  0  0  0  0  0
   59.9248   31.3159   47.1530 H   0  0  0  0  0  0  0  0  0  0  0  0
   57.6206   31.8825   46.3762 H   0  0  0  0  0  0  0  0  0  0  0  0
   57.1099   34.1791   45.5395 H   0  0  0  0  0  0  0  0  0  0  0  0
   58.9084   35.9118   45.4717 H   0  0  0  0  0  0  0  0  0  0  0  0
   61.2156   35.3509   46.2407 H   0  0  0  0  0  0  0  0  0  0  0  0
   61.9349   34.9279   50.2047 H   0  0  0  0  0  0  0  0  0  0  0  0
   60.9583   34.7131   48.6772 H   0  0  0  0  0  0  0  0  0  0  0  0
   59.7255   34.0676   50.7415 H   0  0  0  0  0  0  0  0  0  0  0  0
   59.9519   32.7199   49.5312 H   0  0  0  0  0  0  0  0  0  0  0  0
   61.6814   33.1004   52.0100 H   0  0  0  0  0  0  0  0  0  0  0  0
   60.2145   32.0087   51.8918 H   0  0  0  0  0  0  0  0  0  0  0  0
   61.4960   31.0260   49.9280 H   0  0  0  0  0  0  0  0  0  0  0  0
   61.8480   30.5790   51.5100 H   0  0  0  0  0  0  0  0  0  0  0  0
  1  2  1  0
  2  3  2  0
  3  4  1  0
  4  5  2  0
  5  6  1  0
  6  7  2  0
  6  8  1  0
  8  9  1  0
  9 10  2  0
  9 11  2  0
  9 12  1  0
 12 13  2  0
 13 14  1  0
 14 15  2  0
 15 16  1  0
 16 17  2  0
  8 18  1  0
 18 19  1  0
 19 20  1  0
 20 21  1  0
  7  2  1  0
 17 12  1  0
 21  5  1  0
  1 22  1  0
  1 23  1  0
  1 24  1  0
  3 25  1  0
  7 26  1  0
 13 27  1  0
 14 28  1  0
 15 29  1  0
 16 30  1  0
 17 31  1  0
 18 32  1  0
 18 33  1  0
 19 34  1  0
 19 35  1  0
 20 36  1  0
 20 37  1  0
 21 38  1  0
 21 39  1  0
M  CHG  1  21   1
M  END
>  <UniqueID>  (18) 
16

>  <SMILES>  (18) 
Cc1cnc2c(c1)N(S(=O)(=O)c1ccccc1)CCC[NH2+]2

>  <Energy>  (18) 
52.46550814865886

>  <Genealogy>  (18) 
Cc1cnc2c(c1)N(S(=O)(=O)c1ccccc1)CCC[NH2+]2 (protonated)
Cc1cnc2c(c1)N(S(=O)(=O)c1ccccc1)CCC[NH2+]2 (3D coordinates assigned)
Cc1cnc2c(c1)N(S(=O)(=O)c1ccccc1)CCC[NH2+]2 (nonaromatic ring conformer: 52.46550814865886 kcal/mol)

>  <smiles>  (18) 
Cc1cnc2c(c1)N(S(=O)(=O)c1ccccc1)CCCN2

>  <score_type>  (18) 
oracle

>  <origin>  (18) 
adg

>  <m_score__min__energy>  (18) 
-3.8399999999999999

>  <m_primary>  (18) 
energy

$$$$
18:0
     RDKit          3D

 35 37  0  0  0  0  0  0  0  0999 V2000
   58.3672   34.1014   43.7088 H   0  0  0  0  0  0  0  0  0  0  0  0
   58.5350   33.5590   44.6510 C   0  0  0  0  0  0  0  0  0  0  0  0
   59.2810   34.1660   45.5860 C   0  0  0  0  0  0  0  0  0  0  0  0
   59.6460   35.1799   45.3651 H   0  0  0  0  0  0  0  0  0  0  0  0
   59.6500   33.5770   46.8900 C   0  0  0  0  0  0  0  0  0  0  0  0
   58.6310   33.2230   47.7920 C   0  0  0  0  0  0  0  0  0  0  0  0
   57.3270   33.3870   47.4520 F   0  0  0  0  0  0  0  0  0  0  0  0
   58.9520   32.6820   49.0400 C   0  0  0  0  0  0  0  0  0  0  0  0
   57.9670   32.3280   49.9000 F   0  0  0  0  0  0  0  0  0  0  0  0
   60.2880   32.5060   49.4040 C   0  0  0  0  0  0  0  0  0  0  0  0
   60.5368   32.0722   50.3838 H   0  0  0  0  0  0  0  0  0  0  0  0
   61.3100   32.8790   48.5280 C   0  0  0  0  0  0  0  0  0  0  0  0
   62.3606   32.7411   48.8232 H   0  0  0  0  0  0  0  0  0  0  0  0
   61.0030   33.4310   47.2680 C   0  0  0  0  0  0  0  0  0  0  0  0
   62.0070   33.8480   46.3790 O   0  0  0  0  0  0  0  0  0  0  0  0
   63.4010   33.8340   46.6690 C   0  0  0  0  0  0  0  0  0  0  0  0
   63.5488   33.8325   47.7590 H   0  0  0  0  0  0  0  0  0  0  0  0
   63.8565   32.9312   46.2360 H   0  0  0  0  0  0  0  0  0  0  0  0
   63.8746   34.7274   46.2360 H   0  0  0  0  0  0  0  0  0  0  0  0
   57.9210   32.2240   44.7820 C   0  0  0  0  0  0  0  0  0  0  0  0
   56.5950   31.9810   44.7720 N   0  0  0  0  0  0  0  0  0  0  0  0
   56.4890   30.6920   44.8710 O   0  0  0  0  0  0  0  0  0  0  0  0
   57.6830   30.1540   44.9310 C   0  0  0  0  0  0  0  0  0  0  0  0
   57.9370   28.7050   45.0480 C   0  0  0  0  0  0  0  0  0  0  0  0
   58.2300   28.1370   46.3000 C   0  0  0  0  0  0  0  0  0  0  0  0
   58.2692   28.7756   47.1948 H   0  0  0  0  0  0  0  0  0  0  0  0
   58.4720   26.7640   46.4140 C   0  0  0  0  0  0  0  0  0  0  0  0
   58.7011   26.3263   47.3968 H   0  0  0  0  0  0  0  0  0  0  0  0
   58.4230   25.9480   45.2810 C   0  0  0  0  0  0  0  0  0  0  0  0
   58.6127   24.8683   45.3725 H   0  0  0  0  0  0  0  0  0  0  0  0
   58.1330   26.5030   44.0310 C   0  0  0  0  0  0  0  0  0  0  0  0
   58.0959   25.8598   43.1394 H   0  0  0  0  0  0  0  0  0  0  0  0
   57.8900   27.8750   43.9130 C   0  0  0  0  0  0  0  0  0  0  0  0
   57.6610   28.3075   42.9279 H   0  0  0  0  0  0  0  0  0  0  0  0
   58.6490   31.0930   44.8700 N   0  0  0  0  0  0  0  0  0  0  0  0
  1  2  1  0
  2  3  2  0
  3  4  1  0
  3  5  1  0
  5  6  2  0
  6  7  1  0
  6  8  1  0
  8  9  1  0
  8 10  2  0
 10 11  1  0
 10 12  1  0
 12 13  1  0
 12 14  2  0
 14 15  1  0
 15 16  1  0
 16 17  1  0
 16 18  1  0
 16 19  1  0
  2 20  1  0
 20 21  2  0
 21 22  1  0
 22 23  1  0
 23 24  1  0
 24 25  2  0
 25 26  1  0
 25 27  1  0
 27 28  1  0
 27 29  2  0
 29 30  1  0
 29 31  1  0
 31 32  1  0
 31 33  2  0
 33 34  1  0
 23 35  2  0
 14  5  1  0
 35 20  1  0
 33 24  1  0
M  END
>  <UniqueID>  (19) 
17

>  <SMILES>  (19) 
COc1ccc(F)c(F)c1/C=C\c1noc(-c2ccccc2)n1

>  <Energy>  (19) 
78.36427292362556

>  <Genealogy>  (19) 
COc1ccc(F)c(F)c1/C=C\c1noc(-c2ccccc2)n1 (cis-trans isomerization)
COc1ccc(F)c(F)c1/C=C\c1noc(-c2ccccc2)n1 (3D coordinates assigned)
COc1ccc(F)c(F)c1/C=C\c1noc(-c2ccccc2)n1 (optimized conformer: 78.36427292362556 kcal/mol)

>  <smiles>  (19) 
COc1ccc(F)c(F)c1C=Cc1noc(-c2ccccc2)n1

>  <score_type>  (19) 
oracle

>  <origin>  (19) 
adg

>  <m_score__min__energy>  (19) 
-7.96

>  <m_primary>  (19) 
energy

$$$$
19:0
     RDKit          3D

 37 39  0  0  0  0  0  0  0  0999 V2000
   55.6260   29.9350   42.2870 H   0  0  0  0  0  0  0  0  0  0  0  0
   56.2620   30.5580   42.8340 N   0  0  0  0  0  0  0  0  0  0  0  0
   56.9240   30.1840   43.8890 C   0  0  0  0  0  0  0  0  0  0  0  0
   57.6480   31.1110   44.6780 C   0  0  0  0  0  0  0  0  0  0  0  0
   57.6340   32.5250   44.3620 C   0  0  0  0  0  0  0  0  0  0  0  0
   57.6230   33.6540   44.1100 N   0  0  0  0  0  0  0  0  0  0  0  0
   58.3480   30.6420   45.8120 C   0  0  0  0  0  0  0  0  0  0  0  0
   59.1450   31.5480   46.6760 C   0  0  0  0  0  0  0  0  0  0  0  0
   58.5220   32.5800   47.3970 C   0  0  0  0  0  0  0  0  0  0  0  0
   57.4319   32.7120   47.3315 H   0  0  0  0  0  0  0  0  0  0  0  0
   59.2790   33.4400   48.1970 C   0  0  0  0  0  0  0  0  0  0  0  0
   58.7819   34.2469   48.7553 H   0  0  0  0  0  0  0  0  0  0  0  0
   60.6690   33.2800   48.2920 C   0  0  0  0  0  0  0  0  0  0  0  0
   61.4870   34.2280   49.1180 C   0  0  0  0  0  0  0  0  0  0  0  0
   61.3139   34.0274   50.1856 H   0  0  0  0  0  0  0  0  0  0  0  0
   62.5535   34.0892   48.8871 H   0  0  0  0  0  0  0  0  0  0  0  0
   61.1935   35.2627   48.8871 H   0  0  0  0  0  0  0  0  0  0  0  0
   61.2980   32.2690   47.5480 C   0  0  0  0  0  0  0  0  0  0  0  0
   62.3910   32.1544   47.5945 H   0  0  0  0  0  0  0  0  0  0  0  0
   60.5410   31.4070   46.7480 C   0  0  0  0  0  0  0  0  0  0  0  0
   61.0413   30.6145   46.1721 H   0  0  0  0  0  0  0  0  0  0  0  0
   58.2930   29.2820   46.1360 C   0  0  0  0  0  0  0  0  0  0  0  0
   58.8241   28.9091   47.0242 H   0  0  0  0  0  0  0  0  0  0  0  0
   57.5650   28.3930   45.3350 C   0  0  0  0  0  0  0  0  0  0  0  0
   57.5180   26.9480   45.6720 C   0  0  0  0  0  0  0  0  0  0  0  0
   56.2960   26.3360   46.0070 C   0  0  0  0  0  0  0  0  0  0  0  0
   55.3713   26.9316   46.0181 H   0  0  0  0  0  0  0  0  0  0  0  0
   56.2500   24.9750   46.3260 C   0  0  0  0  0  0  0  0  0  0  0  0
   55.2905   24.5045   46.5869 H   0  0  0  0  0  0  0  0  0  0  0  0
   57.4200   24.2120   46.3140 C   0  0  0  0  0  0  0  0  0  0  0  0
   57.3818   23.1417   46.5651 H   0  0  0  0  0  0  0  0  0  0  0  0
   58.6380   24.8090   45.9830 C   0  0  0  0  0  0  0  0  0  0  0  0
   59.5591   24.2077   45.9740 H   0  0  0  0  0  0  0  0  0  0  0  0
   58.6900   26.1690   45.6630 C   0  0  0  0  0  0  0  0  0  0  0  0
   59.6528   26.6329   45.4026 H   0  0  0  0  0  0  0  0  0  0  0  0
   56.9090   28.8660   44.2360 N   0  0  0  0  0  0  0  0  0  0  0  0
   56.3490   28.2040   43.6510 H   0  0  0  0  0  0  0  0  0  0  0  0
  1  2  1  0
  2  3  2  0
  3  4  1  0
  4  5  1  0
  5  6  3  0
  4  7  2  0
  7  8  1  0
  8  9  2  0
  9 10  1  0
  9 11  1  0
 11 12  1  0
 11 13  2  0
 13 14  1  0
 14 15  1  0
 14 16  1  0
 14 17  1  0
 13 18  1  0
 18 19  1  0
 18 20  2  0
 20 21  1  0
  7 22  1  0
 22 23  1  0
 22 24  2  0
 24 25  1  0
 25 26  2  0
 26 27  1  0
 26 28  1  0
 28 29  1  0
 28 30  2  0
 30 31  1  0
 30 32  1  0
 32 33  1  0
 32 34  2  0
 34 35  1  0
 24 36  1  0
 36 37  1  0
 36  3  1  0
 20  8  1  0
 34 25  1  0
M  END
>  <UniqueID>  (20) 
18

>  <SMILES>  (20) 
[H]/N=c1/[nH]c(-c2ccccc2)cc(-c2ccc(C)cc2)c1C#N

>  <Energy>  (20) 
54.00926599871513

>  <Genealogy>  (20) 
[H]/N=c1/[nH]c(-c2ccccc2)cc(-c2ccc(C)cc2)c1C#N (cis-trans isomerization)
[H]/N=c1/[nH]c(-c2ccccc2)cc(-c2ccc(C)cc2)c1C#N (3D coordinates assigned)
[H]/N=c1/[nH]c(-c2ccccc2)cc(-c2ccc(C)cc2)c1C#N (optimized conformer: 54.00926599871513 kcal/mol)

>  <smiles>  (20) 
Cc1ccc(-c2cc(-c3ccccc3)[nH]c(=N)c2C#N)cc1

>  <score_type>  (20) 
oracle

>  <origin>  (20) 
adg

>  <m_score__min__energy>  (20) 
-7.04

>  <m_primary>  (20) 
energy

$$$$
20:0
     RDKit          3D

 35 37  0  0  0  0  0  0  0  0999 V2000
   59.3250   33.8270   50.8560 C   0  0  0  0  0  0  0  0  0  0  0  0
   60.2130   33.7670   49.6490 C   0  0  0  0  0  0  0  0  0  0  0  0
   59.7390   34.2240   48.3980 C   0  0  0  0  0  0  0  0  0  0  0  0
   60.5900   34.1980   47.2700 C   0  0  0  0  0  0  0  0  0  0  0  0
   60.1820   34.6230   45.9940 O   0  0  0  0  0  0  0  0  0  0  0  0
   58.8380   34.5950   45.5120 C   0  0  0  0  0  0  0  0  0  0  0  0
   58.4550   33.2050   45.0940 C   0  0  0  0  0  0  0  0  0  0  0  0
   58.1110   32.9220   43.7630 C   0  0  0  0  0  0  0  0  0  0  0  0
   57.7720   31.6150   43.4060 C   0  0  0  0  0  0  0  0  0  0  0  0
   57.7870   30.6060   44.3700 C   0  0  0  0  0  0  0  0  0  0  0  0
   58.1470   30.9190   45.6820 C   0  0  0  0  0  0  0  0  0  0  0  0
   58.4730   32.1980   46.0120 N   0  0  0  0  0  0  0  0  0  0  0  0
   61.8570   33.7400   47.4480 N   0  0  0  0  0  0  0  0  0  0  0  0
   62.8670   33.6140   46.5650 C   0  0  0  0  0  0  0  0  0  0  0  0
   63.9770   33.1210   47.1590 N   0  0  0  0  0  0  0  0  0  0  0  0
   63.6480   32.9280   48.4560 C   0  0  0  0  0  0  0  0  0  0  0  0
   64.5800   32.4110   49.5040 C   0  0  0  0  0  0  0  0  0  0  0  0
   62.3360   33.3150   48.6280 C   0  0  0  0  0  0  0  0  0  0  0  0
   61.5420   33.3170   49.7740 C   0  0  0  0  0  0  0  0  0  0  0  0
   59.9407   33.7854   51.7666 H   0  0  0  0  0  0  0  0  0  0  0  0
   58.7520   34.7659   50.8434 H   0  0  0  0  0  0  0  0  0  0  0  0
   58.6309   32.9737   50.8434 H   0  0  0  0  0  0  0  0  0  0  0  0
   58.7094   34.5992   48.3027 H   0  0  0  0  0  0  0  0  0  0  0  0
   58.1606   34.9319   46.3105 H   0  0  0  0  0  0  0  0  0  0  0  0
   58.7601   35.2614   44.6403 H   0  0  0  0  0  0  0  0  0  0  0  0
   58.1084   33.7221   43.0081 H   0  0  0  0  0  0  0  0  0  0  0  0
   57.4939   31.3815   42.3677 H   0  0  0  0  0  0  0  0  0  0  0  0
   57.5179   29.5745   44.0988 H   0  0  0  0  0  0  0  0  0  0  0  0
   58.1671   30.1311   46.4494 H   0  0  0  0  0  0  0  0  0  0  0  0
   62.7975   33.8779   45.4994 H   0  0  0  0  0  0  0  0  0  0  0  0
   64.8990   32.9340   46.7050 H   0  0  0  0  0  0  0  0  0  0  0  0
   64.1728   32.6369   50.5006 H   0  0  0  0  0  0  0  0  0  0  0  0
   64.6909   31.3224   49.3913 H   0  0  0  0  0  0  0  0  0  0  0  0
   65.5622   32.8932   49.3913 H   0  0  0  0  0  0  0  0  0  0  0  0
   61.9396   32.9789   50.7423 H   0  0  0  0  0  0  0  0  0  0  0  0
  1  2  1  0
  2  3  1  0
  3  4  2  0
  4  5  1  0
  5  6  1  0
  6  7  1  0
  7  8  2  0
  8  9  1  0
  9 10  2  0
 10 11  1  0
 11 12  2  0
  4 13  1  0
 13 14  1  0
 14 15  2  0
 15 16  1  0
 16 17  1  0
 16 18  2  0
 18 19  1  0
 19  2  2  0
 12  7  1  0
 18 13  1  0
  1 20  1  0
  1 21  1  0
  1 22  1  0
  3 23  1  0
  6 24  1  0
  6 25  1  0
  8 26  1  0
  9 27  1  0
 10 28  1  0
 11 29  1  0
 14 30  1  0
 15 31  1  0
 17 32  1  0
 17 33  1  0
 17 34  1  0
 19 35  1  0
M  CHG  1  15   1
M  END
>  <UniqueID>  (21) 
19

>  <SMILES>  (21) 
Cc1cc(OCc2ccccn2)n2c[nH+]c(C)c2c1

>  <Energy>  (21) 
71.85756915499435

>  <Genealogy>  (21) 
Cc1cc(OCc2ccccn2)n2c[nH+]c(C)c2c1 (protonated)
Cc1cc(OCc2ccccn2)n2c[nH+]c(C)c2c1 (3D coordinates assigned)
Cc1cc(OCc2ccccn2)n2c[nH+]c(C)c2c1 (optimized conformer: 71.85756915499435 kcal/mol)

>  <smiles>  (21) 
Cc1cc(OCc2ccccn2)n2cnc(C)c2c1

>  <score_type>  (21) 
oracle

>  <origin>  (21) 
adg

>  <m_score__min__energy>  (21) 
-5.6600000000000001

>  <m_primary>  (21) 
energy

$$$$
21:0
     RDKit          3D

 54 57  0  0  0  0  0  0  0  0999 V2000
   59.8110   33.4050   50.7900 C   0  0  0  0  0  0  0  0  0  0  0  0
   60.2290   34.2330   49.7090 O   0  0  0  0  0  0  0  0  0  0  0  0
   61.3450   33.9830   48.8930 C   0  0  0  0  0  0  0  0  0  0  0  0
   62.6570   34.0580   49.4040 C   0  0  0  0  0  0  0  0  0  0  0  0
   63.7540   33.7990   48.5830 C   0  0  0  0  0  0  0  0  0  0  0  0
   63.5610   33.4630   47.2440 C   0  0  0  0  0  0  0  0  0  0  0  0
   62.2700   33.3850   46.7210 C   0  0  0  0  0  0  0  0  0  0  0  0
   61.1480   33.6430   47.5340 C   0  0  0  0  0  0  0  0  0  0  0  0
   59.7420   33.5330   46.9380 C   0  0  1  0  0  0  0  0  0  0  0  0
   59.5050   34.7030   45.9240 C   0  0  0  0  0  0  0  0  0  0  0  0
   59.2670   34.2180   44.4910 C   0  0  0  0  0  0  0  0  0  0  0  0
   58.1190   33.2110   44.4590 C   0  0  0  0  0  0  0  0  0  0  0  0
   58.2850   32.1910   45.5510 C   0  0  0  0  0  0  0  0  0  0  0  0
   57.3800   31.3920   45.7440 O   0  0  0  0  0  0  0  0  0  0  0  0
   59.5050   32.1780   46.3520 N   0  0  2  0  0  0  0  0  0  0  0  0
   59.4720   31.1360   47.4170 C   0  0  0  0  0  0  0  0  0  0  0  0
   59.1880   29.7590   46.8590 C   0  0  0  0  0  0  0  0  0  0  0  0
   59.5730   29.4220   45.5520 C   0  0  0  0  0  0  0  0  0  0  0  0
   59.3070   28.1470   45.0430 C   0  0  0  0  0  0  0  0  0  0  0  0
   58.6420   27.1870   45.8290 C   0  0  0  0  0  0  0  0  0  0  0  0
   58.3600   25.8340   45.2880 C   0  0  0  0  0  0  0  0  0  0  0  0
   58.8310   24.6850   45.9520 C   0  0  0  0  0  0  0  0  0  0  0  0
   58.5640   23.4120   45.4410 C   0  0  0  0  0  0  0  0  0  0  0  0
   57.8260   23.2700   44.2640 C   0  0  0  0  0  0  0  0  0  0  0  0
   57.3520   24.4010   43.5970 C   0  0  0  0  0  0  0  0  0  0  0  0
   57.6160   25.6770   44.1030 C   0  0  0  0  0  0  0  0  0  0  0  0
   58.2480   27.5350   47.1330 C   0  0  0  0  0  0  0  0  0  0  0  0
   58.5160   28.8080   47.6420 C   0  0  0  0  0  0  0  0  0  0  0  0
   60.0581   33.8945   51.7436 H   0  0  0  0  0  0  0  0  0  0  0  0
   58.7243   33.2453   50.7306 H   0  0  0  0  0  0  0  0  0  0  0  0
   60.3278   32.4358   50.7306 H   0  0  0  0  0  0  0  0  0  0  0  0
   62.8166   34.3231   50.4596 H   0  0  0  0  0  0  0  0  0  0  0  0
   64.7731   33.8599   48.9926 H   0  0  0  0  0  0  0  0  0  0  0  0
   64.4281   33.2590   46.5986 H   0  0  0  0  0  0  0  0  0  0  0  0
   62.1263   33.1194   45.6633 H   0  0  0  0  0  0  0  0  0  0  0  0
   58.9939   33.6405   47.7372 H   0  0  0  0  0  0  0  0  0  0  0  0
   58.6245   35.2759   46.2503 H   0  0  0  0  0  0  0  0  0  0  0  0
   60.4168   35.3182   45.9146 H   0  0  0  0  0  0  0  0  0  0  0  0
   59.0139   35.0780   43.8536 H   0  0  0  0  0  0  0  0  0  0  0  0
   60.1814   33.7319   44.1200 H   0  0  0  0  0  0  0  0  0  0  0  0
   57.1666   33.7426   44.6015 H   0  0  0  0  0  0  0  0  0  0  0  0
   58.1232   32.6964   43.4868 H   0  0  0  0  0  0  0  0  0  0  0  0
   60.2890   31.9540   45.6960 H   0  0  0  0  0  0  0  0  0  0  0  0
   60.4471   31.1181   47.9257 H   0  0  0  0  0  0  0  0  0  0  0  0
   58.6614   31.3917   48.1153 H   0  0  0  0  0  0  0  0  0  0  0  0
   60.0869   30.1651   44.9245 H   0  0  0  0  0  0  0  0  0  0  0  0
   59.6200   27.8921   44.0198 H   0  0  0  0  0  0  0  0  0  0  0  0
   59.4132   24.7902   46.8794 H   0  0  0  0  0  0  0  0  0  0  0  0
   58.9358   22.5202   45.9668 H   0  0  0  0  0  0  0  0  0  0  0  0
   57.6182   22.2672   43.8626 H   0  0  0  0  0  0  0  0  0  0  0  0
   56.7693   24.2878   42.6709 H   0  0  0  0  0  0  0  0  0  0  0  0
   57.2401   26.5640   43.5721 H   0  0  0  0  0  0  0  0  0  0  0  0
   57.7236   26.7976   47.7585 H   0  0  0  0  0  0  0  0  0  0  0  0
   58.1983   29.0665   48.6629 H   0  0  0  0  0  0  0  0  0  0  0  0
  1  2  1  0
  2  3  1  0
  3  4  2  0
  4  5  1  0
  5  6  2  0
  6  7  1  0
  7  8  2  0
  8  9  1  0
  9 10  1  0
 10 11  1  0
 11 12  1  0
 12 13  1  0
 13 14  2  0
 13 15  1  0
 15 16  1  0
 16 17  1  0
 17 18  2  0
 18 19  1  0
 19 20  2  0
 20 21  1  0
 21 22  2  0
 22 23  1  0
 23 24  2  0
 24 25  1  0
 25 26  2  0
 20 27  1  0
 27 28  2  0
  8  3  1  0
 15  9  1  0
 28 17  1  0
 26 21  1  0
  1 29  1  0
  1 30  1  0
  1 31  1  0
  4 32  1  0
  5 33  1  0
  6 34  1  0
  7 35  1  0
  9 36  1  1
 10 37  1  0
 10 38  1  0
 11 39  1  0
 11 40  1  0
 12 41  1  0
 12 42  1  0
 15 43  1  6
 16 44  1  0
 16 45  1  0
 18 46  1  0
 19 47  1  0
 22 48  1  0
 23 49  1  0
 24 50  1  0
 25 51  1  0
 26 52  1  0
 27 53  1  0
 28 54  1  0
M  CHG  1  15   1
M  END
>  <UniqueID>  (22) 
20

>  <SMILES>  (22) 
COc1ccccc1[C@H]1CCCC(=O)[N@@H+]1Cc1ccc(-c2ccccc2)cc1

>  <Energy>  (22) 
73.97205118756126

>  <Genealogy>  (22) 
COc1ccccc1C1CCCC(=O)[NH+]1Cc1ccc(-c2ccccc2)cc1 (protonated)
COc1ccccc1[C@H]1CCCC(=O)[N@@H+]1Cc1ccc(-c2ccccc2)cc1 (chirality)
COc1ccccc1[C@H]1CCCC(=O)[N@@H+]1Cc1ccc(-c2ccccc2)cc1 (3D coordinates assigned)
COc1ccccc1[C@H]1CCCC(=O)[N@@H+]1Cc1ccc(-c2ccccc2)cc1 (nonaromatic ring conformer: 73.97205118756126 kcal/mol)

>  <smiles>  (22) 
COc1ccccc1C1CCCC(=O)N1Cc1ccc(-c2ccccc2)cc1

>  <score_type>  (22) 
oracle

>  <origin>  (22) 
adg

>  <m_score__min__energy>  (22) 
-7.3099999999999996

>  <m_primary>  (22) 
energy

$$$$
22:0
     RDKit          3D

 28 29  0  0  0  0  0  0  0  0999 V2000
   58.5230   27.5360   47.3320 C   0  0  0  0  0  0  0  0  0  0  0  0
   59.3600   28.2400   46.3680 N   0  0  0  0  0  0  0  0  0  0  0  0
   60.4800   28.8820   46.6470 N   0  0  0  0  0  0  0  0  0  0  0  0
   61.0310   29.3220   45.5270 N   0  0  0  0  0  0  0  0  0  0  0  0
   60.2810   28.9610   44.4930 N   0  0  0  0  0  0  0  0  0  0  0  0
   59.2480   28.2800   45.0290 C   0  0  0  0  0  0  0  0  0  0  0  0
   57.9330   27.5200   44.0700 S   0  0  0  0  0  0  0  0  0  0  0  0
   57.3200   29.0920   43.3720 C   0  0  0  0  0  0  0  0  0  0  0  0
   56.3310   29.7250   44.2950 C   0  0  0  0  0  0  0  0  0  0  0  0
   55.4710   29.0100   44.8760 O   0  0  0  0  0  0  0  0  0  0  0  0
   56.3640   31.1440   44.4990 N   0  0  0  0  0  0  0  0  0  0  0  0
   57.3860   31.8790   45.1860 C   0  0  0  0  0  0  0  0  0  0  0  0
   58.1670   31.2130   46.1410 C   0  0  0  0  0  0  0  0  0  0  0  0
   59.1540   31.9010   46.8530 C   0  0  0  0  0  0  0  0  0  0  0  0
   59.3580   33.2660   46.6270 C   0  0  0  0  0  0  0  0  0  0  0  0
   60.7040   34.2050   47.6030 Br  0  0  0  0  0  0  0  0  0  0  0  0
   58.5670   33.9440   45.6950 C   0  0  0  0  0  0  0  0  0  0  0  0
   57.5790   33.2580   44.9800 C   0  0  0  0  0  0  0  0  0  0  0  0
   58.8373   27.8003   48.3525 H   0  0  0  0  0  0  0  0  0  0  0  0
   57.4720   27.8256   47.1854 H   0  0  0  0  0  0  0  0  0  0  0  0
   58.6282   26.4509   47.1854 H   0  0  0  0  0  0  0  0  0  0  0  0
   60.8810   29.0130   47.6020 H   0  0  0  0  0  0  0  0  0  0  0  0
   58.1677   29.7774   43.2248 H   0  0  0  0  0  0  0  0  0  0  0  0
   56.8271   28.8856   42.4105 H   0  0  0  0  0  0  0  0  0  0  0  0
   58.0021   30.1422   46.3313 H   0  0  0  0  0  0  0  0  0  0  0  0
   59.7708   31.3682   47.5917 H   0  0  0  0  0  0  0  0  0  0  0  0
   58.7216   35.0195   45.5232 H   0  0  0  0  0  0  0  0  0  0  0  0
   56.9517   33.7976   44.2553 H   0  0  0  0  0  0  0  0  0  0  0  0
  1  2  1  0
  2  3  1  0
  3  4  2  0
  4  5  1  0
  5  6  2  0
  6  7  1  0
  7  8  1  0
  8  9  1  0
  9 10  2  0
  9 11  1  0
 11 12  1  0
 12 13  2  0
 13 14  1  0
 14 15  2  0
 15 16  1  0
 15 17  1  0
 17 18  2  0
  6  2  1  0
 18 12  1  0
  1 19  1  0
  1 20  1  0
  1 21  1  0
  3 22  1  0
  8 23  1  0
  8 24  1  0
 13 25  1  0
 14 26  1  0
 17 27  1  0
 18 28  1  0
M  CHG  2   3   1  11  -1
M  END
>  <UniqueID>  (23) 
21

>  <SMILES>  (23) 
Cn1[nH+]nnc1SCC(=O)[N-]c1ccc(Br)cc1

>  <Energy>  (23) 
65.85559119002693

>  <Genealogy>  (23) 
Cn1[nH+]nnc1SCC(=O)[N-]c1ccc(Br)cc1 (protonated)
Cn1[nH+]nnc1SCC(=O)[N-]c1ccc(Br)cc1 (3D coordinates assigned)
Cn1[nH+]nnc1SCC(=O)[N-]c1ccc(Br)cc1 (optimized conformer: 65.85559119002693 kcal/mol)

>  <smiles>  (23) 
Cn1nnnc1SCC(=O)Nc1ccc(Br)cc1

>  <score_type>  (23) 
oracle

>  <origin>  (23) 
adg

>  <m_score__min__energy>  (23) 
-8.4800000000000004

>  <m_primary>  (23) 
energy

$$$$
23:0
     RDKit          3D

 48 50  0  0  0  0  0  0  0  0999 V2000
   60.1030   27.8980   45.3190 C   0  0  0  0  0  0  0  0  0  0  0  0
   60.4200   29.3630   45.5920 C   0  0  0  0  0  0  0  0  0  0  0  0
   60.0400   29.7200   46.9600 N   0  0  0  0  0  0  0  0  0  0  0  0
   59.2370   28.9920   47.7610 C   0  0  0  0  0  0  0  0  0  0  0  0
   59.2070   29.5850   49.0050 C   0  0  0  0  0  0  0  0  0  0  0  0
   59.9970   30.6740   48.9830 N   0  0  0  0  0  0  0  0  0  0  0  0
   60.4960   30.7390   47.7310 C   0  0  0  0  0  0  0  0  0  0  0  0
   61.4440   31.8230   47.2670 C   0  0  0  0  0  0  0  0  0  0  0  0
   60.7710   32.9300   46.5490 N   0  0  0  0  0  0  0  0  0  0  0  0
   60.7560   34.2130   47.2860 C   0  0  0  0  0  0  0  0  0  0  0  0
   59.3260   34.6500   47.6370 C   0  0  0  0  0  0  0  0  0  0  0  0
   58.5100   34.8090   46.4870 O   0  0  0  0  0  0  0  0  0  0  0  0
   58.7010   33.8070   45.4890 C   0  0  2  0  0  0  0  0  0  0  0  0
   57.3260   33.4290   44.9160 C   0  0  0  0  0  0  0  0  0  0  0  0
   57.2880   32.0240   44.5070 N   0  0  0  0  0  0  0  0  0  0  0  0
   57.0310   31.0320   45.3460 N   0  0  0  0  0  0  0  0  0  0  0  0
   57.0490   29.8870   44.6370 C   0  0  0  0  0  0  0  0  0  0  0  0
   56.7380   28.5470   45.2120 C   0  0  0  0  0  0  0  0  0  0  0  0
   57.3030   30.1550   43.3050 C   0  0  0  0  0  0  0  0  0  0  0  0
   57.4540   31.5260   43.2600 C   0  0  0  0  0  0  0  0  0  0  0  0
   57.7570   32.3290   42.0330 C   0  0  0  0  0  0  0  0  0  0  0  0
   59.4600   32.5520   45.9850 C   0  0  0  0  0  0  0  0  0  0  0  0
   59.9874   27.3638   46.2736 H   0  0  0  0  0  0  0  0  0  0  0  0
   59.1685   27.8262   44.7431 H   0  0  0  0  0  0  0  0  0  0  0  0
   60.9242   27.4463   44.7431 H   0  0  0  0  0  0  0  0  0  0  0  0
   61.4990   29.5313   45.4597 H   0  0  0  0  0  0  0  0  0  0  0  0
   59.8513   29.9887   44.8884 H   0  0  0  0  0  0  0  0  0  0  0  0
   58.6967   28.0788   47.4710 H   0  0  0  0  0  0  0  0  0  0  0  0
   58.6324   29.2272   49.8721 H   0  0  0  0  0  0  0  0  0  0  0  0
   60.1960   31.3100   49.7850 H   0  0  0  0  0  0  0  0  0  0  0  0
   61.9547   32.2392   48.1479 H   0  0  0  0  0  0  0  0  0  0  0  0
   62.1453   31.3576   46.5588 H   0  0  0  0  0  0  0  0  0  0  0  0
   61.3316   34.0965   48.2161 H   0  0  0  0  0  0  0  0  0  0  0  0
   61.2015   34.9843   46.6406 H   0  0  0  0  0  0  0  0  0  0  0  0
   58.8737   33.8875   48.2881 H   0  0  0  0  0  0  0  0  0  0  0  0
   59.3883   35.6258   48.1409 H   0  0  0  0  0  0  0  0  0  0  0  0
   59.3495   34.2339   44.7098 H   0  0  0  0  0  0  0  0  0  0  0  0
   56.5582   33.5991   45.6852 H   0  0  0  0  0  0  0  0  0  0  0  0
   57.1353   34.0535   44.0308 H   0  0  0  0  0  0  0  0  0  0  0  0
   56.7519   28.6071   46.3103 H   0  0  0  0  0  0  0  0  0  0  0  0
   55.7414   28.2257   44.8750 H   0  0  0  0  0  0  0  0  0  0  0  0
   57.4912   27.8196   44.8750 H   0  0  0  0  0  0  0  0  0  0  0  0
   57.3695   29.4397   42.4720 H   0  0  0  0  0  0  0  0  0  0  0  0
   58.1312   33.3207   42.3270 H   0  0  0  0  0  0  0  0  0  0  0  0
   58.5215   31.8110   41.4353 H   0  0  0  0  0  0  0  0  0  0  0  0
   56.8409   32.4452   41.4353 H   0  0  0  0  0  0  0  0  0  0  0  0
   58.8629   32.0510   46.7612 H   0  0  0  0  0  0  0  0  0  0  0  0
   59.6210   31.8740   45.1339 H   0  0  0  0  0  0  0  0  0  0  0  0
  1  2  1  0
  2  3  1  0
  3  4  1  0
  4  5  2  0
  5  6  1  0
  6  7  2  0
  7  8  1  0
  8  9  1  0
  9 10  1  0
 10 11  1  0
 11 12  1  0
 12 13  1  0
 13 14  1  0
 14 15  1  0
 15 16  1  0
 16 17  2  0
 17 18  1  0
 17 19  1  0
 19 20  2  0
 20 21  1  0
 13 22  1  0
  7  3  1  0
 22  9  1  0
 20 15  1  0
  1 23  1  0
  1 24  1  0
  1 25  1  0
  2 26  1  0
  2 27  1  0
  4 28  1  0
  5 29  1  0
  6 30  1  0
  8 31  1  0
  8 32  1  0
 10 33  1  0
 10 34  1  0
 11 35  1  0
 11 36  1  0
 13 37  1  6
 14 38  1  0
 14 39  1  0
 18 40  1  0
 18 41  1  0
 18 42  1  0
 19 43  1  0
 21 44  1  0
 21 45  1  0
 21 46  1  0
 22 47  1  0
 22 48  1  0
M  CHG  1   6   1
M  END
>  <UniqueID>  (24) 
22

>  <SMILES>  (24) 
CCn1cc[nH+]c1CN1CCO[C@H](Cn2nc(C)cc2C)C1

>  <Energy>  (24) 
115.21046283248599

>  <Genealogy>  (24) 
CCn1cc[nH+]c1CN1CCOC(Cn2nc(C)cc2C)C1 (protonated)
CCn1cc[nH+]c1CN1CCO[C@H](Cn2nc(C)cc2C)C1 (chirality)
CCn1cc[nH+]c1CN1CCO[C@H](Cn2nc(C)cc2C)C1 (3D coordinates assigned)
CCn1cc[nH+]c1CN1CCO[C@H](Cn2nc(C)cc2C)C1 (nonaromatic ring conformer: 115.21046283248599 kcal/mol)

>  <smiles>  (24) 
CCn1ccnc1CN1CCOC(Cn2nc(C)cc2C)C1

>  <score_type>  (24) 
oracle

>  <origin>  (24) 
adg

>  <m_score__min__energy>  (24) 
-5.9900000000000002

>  <m_primary>  (24) 
energy

$$$$
24:0
     RDKit          3D

 47 50  0  0  0  0  0  0  0  0999 V2000
   54.2141   24.2846   45.9658 H   0  0  0  0  0  0  0  0  0  0  0  0
   55.1200   24.8830   45.7890 C   0  0  0  0  0  0  0  0  0  0  0  0
   55.1580   26.2270   45.9980 N   0  0  0  0  0  0  0  0  0  0  0  0
   56.3640   26.7440   45.6890 C   0  0  0  0  0  0  0  0  0  0  0  0
   56.6500   27.9970   45.8810 N   0  0  0  0  0  0  0  0  0  0  0  0
   56.3530   29.0520   44.9600 C   0  0  0  0  0  0  0  0  0  0  0  0
   55.1640   29.4360   44.7880 O   0  0  0  0  0  0  0  0  0  0  0  0
   57.4490   29.6430   44.1370 C   0  0  0  0  0  0  0  0  0  0  0  0
   57.0236   30.3368   43.3969 H   0  0  0  0  0  0  0  0  0  0  0  0
   57.9925   28.8463   43.6080 H   0  0  0  0  0  0  0  0  0  0  0  0
   58.3860   30.3860   45.0470 C   0  0  0  0  0  0  0  0  0  0  0  0
   58.4510   31.7680   45.2490 C   0  0  0  0  0  0  0  0  0  0  0  0
   57.6400   32.7900   44.5020 C   0  0  0  0  0  0  0  0  0  0  0  0
   57.1219   33.4429   45.2198 H   0  0  0  0  0  0  0  0  0  0  0  0
   58.3059   33.3957   43.8698 H   0  0  0  0  0  0  0  0  0  0  0  0
   56.8988   32.2791   43.8698 H   0  0  0  0  0  0  0  0  0  0  0  0
   59.2260   32.0550   46.3320 N   0  0  0  0  0  0  0  0  0  0  0  0
   59.3890   33.3720   46.9620 C   0  0  0  0  0  0  0  0  0  0  0  0
   59.2210   34.1568   46.2098 H   0  0  0  0  0  0  0  0  0  0  0  0
   58.6593   33.4691   47.7794 H   0  0  0  0  0  0  0  0  0  0  0  0
   60.7790   33.5160   47.5280 C   0  0  0  0  0  0  0  0  0  0  0  0
   61.9010   33.3860   46.6930 C   0  0  0  0  0  0  0  0  0  0  0  0
   61.7643   33.2038   45.6168 H   0  0  0  0  0  0  0  0  0  0  0  0
   63.1900   33.4870   47.2230 C   0  0  0  0  0  0  0  0  0  0  0  0
   64.0645   33.3814   46.5641 H   0  0  0  0  0  0  0  0  0  0  0  0
   63.3700   33.7220   48.5890 C   0  0  0  0  0  0  0  0  0  0  0  0
   64.6220   33.8140   49.1020 F   0  0  0  0  0  0  0  0  0  0  0  0
   62.2600   33.8660   49.4240 C   0  0  0  0  0  0  0  0  0  0  0  0
   62.4016   34.0591   50.4976 H   0  0  0  0  0  0  0  0  0  0  0  0
   60.9690   33.7650   48.8970 C   0  0  0  0  0  0  0  0  0  0  0  0
   60.0975   33.8812   49.5581 H   0  0  0  0  0  0  0  0  0  0  0  0
   59.6480   30.8610   46.8140 C   0  0  0  0  0  0  0  0  0  0  0  0
   60.4150   30.6110   47.9570 C   0  0  0  0  0  0  0  0  0  0  0  0
   60.8099   31.4392   48.5638 H   0  0  0  0  0  0  0  0  0  0  0  0
   60.6680   29.2740   48.3100 C   0  0  0  0  0  0  0  0  0  0  0  0
   61.2822   29.0516   49.1950 H   0  0  0  0  0  0  0  0  0  0  0  0
   60.1410   28.2120   47.5390 C   0  0  0  0  0  0  0  0  0  0  0  0
   60.4140   26.7860   47.9160 C   0  0  0  0  0  0  0  0  0  0  0  0
   60.4317   26.6934   49.0120 H   0  0  0  0  0  0  0  0  0  0  0  0
   59.6231   26.1406   47.5063 H   0  0  0  0  0  0  0  0  0  0  0  0
   61.3874   26.4783   47.5063 H   0  0  0  0  0  0  0  0  0  0  0  0
   59.3720   28.4940   46.3910 C   0  0  0  0  0  0  0  0  0  0  0  0
   58.9577   27.6815   45.7760 H   0  0  0  0  0  0  0  0  0  0  0  0
   59.1500   29.8310   46.0550 C   0  0  0  0  0  0  0  0  0  0  0  0
   57.4430   25.5520   45.1770 S   0  0  0  0  0  0  0  0  0  0  0  0
   56.3080   24.3200   45.3360 C   0  0  0  0  0  0  0  0  0  0  0  0
   56.4765   23.2548   45.1193 H   0  0  0  0  0  0  0  0  0  0  0  0
  1  2  1  0
  2  3  1  0
  3  4  1  0
  4  5  2  0
  5  6  1  0
  6  7  2  0
  6  8  1  0
  8  9  1  0
  8 10  1  0
  8 11  1  0
 11 12  2  0
 12 13  1  0
 13 14  1  0
 13 15  1  0
 13 16  1  0
 12 17  1  0
 17 18  1  0
 18 19  1  0
 18 20  1  0
 18 21  1  0
 21 22  2  0
 22 23  1  0
 22 24  1  0
 24 25  1  0
 24 26  2  0
 26 27  1  0
 26 28  1  0
 28 29  1  0
 28 30  2  0
 30 31  1  0
 17 32  1  0
 32 33  2  0
 33 34  1  0
 33 35  1  0
 35 36  1  0
 35 37  2  0
 37 38  1  0
 38 39  1  0
 38 40  1  0
 38 41  1  0
 37 42  1  0
 42 43  1  0
 42 44  2  0
  4 45  1  0
 45 46  1  0
 46 47  1  0
 46  2  2  0
 44 11  1  0
 30 21  1  0
 44 32  1  0
M  CHG  1   3  -1
M  END
>  <UniqueID>  (25) 
23

>  <SMILES>  (25) 
Cc1ccc2c(c1)c(CC(=O)/N=c1/[n-]ccs1)c(C)n2Cc1ccc(F)cc1

>  <Energy>  (25) 
113.14758016995064

>  <Genealogy>  (25) 
Cc1ccc2c(c1)c(CC(=O)N=c1[n-]ccs1)c(C)n2Cc1ccc(F)cc1 (protonated)
Cc1ccc2c(c1)c(CC(=O)/N=c1/[n-]ccs1)c(C)n2Cc1ccc(F)cc1 (cis-trans isomerization)
Cc1ccc2c(c1)c(CC(=O)/N=c1/[n-]ccs1)c(C)n2Cc1ccc(F)cc1 (3D coordinates assigned)
Cc1ccc2c(c1)c(CC(=O)/N=c1/[n-]ccs1)c(C)n2Cc1ccc(F)cc1 (optimized conformer: 113.14758016995064 kcal/mol)

>  <smiles>  (25) 
Cc1ccc2c(c1)c(CC(=O)N=c1[nH]ccs1)c(C)n2Cc1ccc(F)cc1

>  <score_type>  (25) 
oracle

>  <origin>  (25) 
adg

>  <m_score__min__energy>  (25) 
-11.140000000000001

>  <m_primary>  (25) 
energy

$$$$
25:0
     RDKit          3D

 54 57  0  0  0  0  0  0  0  0999 V2000
   63.3590   33.8050   48.5280 C   0  0  0  0  0  0  0  0  0  0  0  0
   61.9700   34.2160   49.0090 C   0  0  0  0  0  0  0  0  0  0  0  0
   60.9400   33.7620   48.0500 N   0  0  0  0  0  0  0  0  0  0  0  0
   59.6540   34.4590   48.2590 C   0  0  0  0  0  0  0  0  0  0  0  0
   58.5550   33.7290   47.4770 C   0  0  0  0  0  0  0  0  0  0  0  0
   59.0830   33.2070   46.2100 N   0  0  0  0  0  0  0  0  0  0  0  0
   58.5340   32.0040   45.6400 C   0  0  0  0  0  0  0  0  0  0  0  0
   57.8620   32.0260   44.4040 C   0  0  0  0  0  0  0  0  0  0  0  0
   57.3680   30.8160   43.8690 C   0  0  0  0  0  0  0  0  0  0  0  0
   56.6470   30.8120   42.5600 C   0  0  0  0  0  0  0  0  0  0  0  0
   57.5510   29.6440   44.5430 N   0  0  0  0  0  0  0  0  0  0  0  0
   58.2160   29.6610   45.7240 C   0  0  0  0  0  0  0  0  0  0  0  0
   58.4710   28.6080   46.5750 C   0  0  0  0  0  0  0  0  0  0  0  0
   58.1360   27.1820   46.3730 C   0  0  0  0  0  0  0  0  0  0  0  0
   59.1490   26.2210   46.2150 C   0  0  0  0  0  0  0  0  0  0  0  0
   58.8220   24.8760   46.0330 C   0  0  0  0  0  0  0  0  0  0  0  0
   57.4840   24.4770   46.0080 C   0  0  0  0  0  0  0  0  0  0  0  0
   56.4590   25.4150   46.1780 C   0  0  0  0  0  0  0  0  0  0  0  0
   55.1300   24.9640   46.1530 O   0  0  0  0  0  0  0  0  0  0  0  0
   54.6090   24.0470   45.1950 C   0  0  0  0  0  0  0  0  0  0  0  0
   56.7930   26.7710   46.3640 C   0  0  0  0  0  0  0  0  0  0  0  0
   59.1350   29.2210   47.6440 C   0  0  0  0  0  0  0  0  0  0  0  0
   59.6600   28.5570   48.8760 C   0  0  0  0  0  0  0  0  0  0  0  0
   59.2400   30.5550   47.4270 N   0  0  0  0  0  0  0  0  0  0  0  0
   58.6810   30.7980   46.2520 N   0  0  0  0  0  0  0  0  0  0  0  0
   60.2630   33.8540   45.6240 C   0  0  0  0  0  0  0  0  0  0  0  0
   61.4120   33.9110   46.6520 C   0  0  0  0  0  0  0  0  0  0  0  0
   64.0061   33.6135   49.3967 H   0  0  0  0  0  0  0  0  0  0  0  0
   63.2812   32.8914   47.9203 H   0  0  0  0  0  0  0  0  0  0  0  0
   63.7908   34.6139   47.9203 H   0  0  0  0  0  0  0  0  0  0  0  0
   61.7768   33.7609   49.9916 H   0  0  0  0  0  0  0  0  0  0  0  0
   61.9281   35.3124   49.0869 H   0  0  0  0  0  0  0  0  0  0  0  0
   59.4052   34.4597   49.3305 H   0  0  0  0  0  0  0  0  0  0  0  0
   59.7334   35.4975   47.9051 H   0  0  0  0  0  0  0  0  0  0  0  0
   58.1750   32.8928   48.0823 H   0  0  0  0  0  0  0  0  0  0  0  0
   57.7439   34.4390   47.2579 H   0  0  0  0  0  0  0  0  0  0  0  0
   57.7233   32.9729   43.8617 H   0  0  0  0  0  0  0  0  0  0  0  0
   55.5617   30.8060   42.7392 H   0  0  0  0  0  0  0  0  0  0  0  0
   56.9193   31.7117   41.9887 H   0  0  0  0  0  0  0  0  0  0  0  0
   56.9293   29.9154   41.9887 H   0  0  0  0  0  0  0  0  0  0  0  0
   60.2045   26.5299   46.2348 H   0  0  0  0  0  0  0  0  0  0  0  0
   59.6199   24.1290   45.9090 H   0  0  0  0  0  0  0  0  0  0  0  0
   57.2335   23.4171   45.8535 H   0  0  0  0  0  0  0  0  0  0  0  0
   54.1305   23.2047   45.7161 H   0  0  0  0  0  0  0  0  0  0  0  0
   53.8663   24.5578   44.5646 H   0  0  0  0  0  0  0  0  0  0  0  0
   55.4281   23.6705   44.5646 H   0  0  0  0  0  0  0  0  0  0  0  0
   55.9946   27.5147   46.5035 H   0  0  0  0  0  0  0  0  0  0  0  0
   59.2586   29.0646   49.7655 H   0  0  0  0  0  0  0  0  0  0  0  0
   59.3493   27.5018   48.8846 H   0  0  0  0  0  0  0  0  0  0  0  0
   60.7584   28.6159   48.8846 H   0  0  0  0  0  0  0  0  0  0  0  0
   60.5916   33.2804   44.7448 H   0  0  0  0  0  0  0  0  0  0  0  0
   59.9975   34.8798   45.3288 H   0  0  0  0  0  0  0  0  0  0  0  0
   62.1210   33.0993   46.4320 H   0  0  0  0  0  0  0  0  0  0  0  0
   61.8849   34.9004   46.5657 H   0  0  0  0  0  0  0  0  0  0  0  0
  1  2  1  0
  2  3  1  0
  3  4  1  0
  4  5  1  0
  5  6  1  0
  6  7  1  0
  7  8  2  0
  8  9  1  0
  9 10  1  0
  9 11  2  0
 11 12  1  0
 12 13  2  0
 13 14  1  0
 14 15  2  0
 15 16  1  0
 16 17  2  0
 17 18  1  0
 18 19  1  0
 19 20  1  0
 18 21  2  0
 13 22  1  0
 22 23  1  0
 22 24  2  0
 24 25  1  0
  6 26  1  0
 26 27  1  0
 27  3  1  0
 25  7  1  0
 25 12  1  0
 21 14  1  0
  1 28  1  0
  1 29  1  0
  1 30  1  0
  2 31  1  0
  2 32  1  0
  4 33  1  0
  4 34  1  0
  5 35  1  0
  5 36  1  0
  8 37  1  0
 10 38  1  0
 10 39  1  0
 10 40  1  0
 15 41  1  0
 16 42  1  0
 17 43  1  0
 20 44  1  0
 20 45  1  0
 20 46  1  0
 21 47  1  0
 23 48  1  0
 23 49  1  0
 23 50  1  0
 26 51  1  0
 26 52  1  0
 27 53  1  0
 27 54  1  0
M  END
>  <UniqueID>  (26) 
24

>  <SMILES>  (26) 
CCN1CCN(c2cc(C)nc3c(-c4cccc(OC)c4)c(C)nn23)CC1

>  <Energy>  (26) 
103.89820337008936

>  <Genealogy>  (26) 
CCN1CCN(c2cc(C)nc3c(-c4cccc(OC)c4)c(C)nn23)CC1 (3D coordinates assigned)
CCN1CCN(c2cc(C)nc3c(-c4cccc(OC)c4)c(C)nn23)CC1 (nonaromatic ring conformer: 103.89820337008936 kcal/mol)

>  <smiles>  (26) 
CCN1CCN(c2cc(C)nc3c(-c4cccc(OC)c4)c(C)nn23)CC1

>  <score_type>  (26) 
oracle

>  <origin>  (26) 
adg

>  <m_score__min__energy>  (26) 
-8.1799999999999997

>  <m_primary>  (26) 
energy

$$$$
26:0
     RDKit          3D

 73 76  0  0  0  0  0  0  0  0999 V2000
   59.3140   34.1970   48.4310 C   0  0  0  0  0  0  0  0  0  0  0  0
   58.9360   32.8220   48.9070 C   0  0  0  0  0  0  0  0  0  0  0  0
   58.4880   32.6720   50.2450 C   0  0  0  0  0  0  0  0  0  0  0  0
   58.2820   31.3860   50.8270 C   0  0  0  0  0  0  0  0  0  0  0  0
   57.7960   31.2040   52.2800 C   0  0  0  0  0  0  0  0  0  0  0  0
   58.2050   32.4390   53.1200 C   0  0  0  0  0  0  0  0  0  0  0  0
   56.2600   31.0620   52.2840 C   0  0  0  0  0  0  0  0  0  0  0  0
   58.3920   29.9540   52.9800 C   0  0  0  0  0  0  0  0  0  0  0  0
   58.5820   30.2410   50.0420 C   0  0  0  0  0  0  0  0  0  0  0  0
   58.9810   30.4140   48.7230 C   0  0  0  0  0  0  0  0  0  0  0  0
   59.2980   29.4410   47.8600 N   0  0  0  0  0  0  0  0  0  0  0  0
   59.5900   30.1130   46.7190 C   0  0  0  0  0  0  0  0  0  0  0  0
   60.0000   29.3750   45.4670 C   0  0  0  0  0  0  0  0  0  0  0  0
   60.4010   27.9180   45.7690 C   0  0  0  0  0  0  0  0  0  0  0  0
   59.1730   27.0510   45.8980 C   0  0  0  0  0  0  0  0  0  0  0  0
   58.8060   26.5250   47.1430 C   0  0  0  0  0  0  0  0  0  0  0  0
   57.7150   25.6530   47.2430 C   0  0  0  0  0  0  0  0  0  0  0  0
   56.9740   25.2940   46.1010 C   0  0  0  0  0  0  0  0  0  0  0  0
   55.7760   24.4170   46.2190 C   0  0  0  0  0  0  0  0  0  0  0  0
   54.7510   24.4830   45.2590 C   0  0  0  0  0  0  0  0  0  0  0  0
   53.6040   23.6990   45.3890 C   0  0  0  0  0  0  0  0  0  0  0  0
   53.4710   22.8270   46.4710 C   0  0  0  0  0  0  0  0  0  0  0  0
   54.4900   22.7370   47.4230 C   0  0  0  0  0  0  0  0  0  0  0  0
   55.6360   23.5300   47.3020 C   0  0  0  0  0  0  0  0  0  0  0  0
   57.3590   25.8100   44.8510 C   0  0  0  0  0  0  0  0  0  0  0  0
   58.4490   26.6820   44.7520 C   0  0  0  0  0  0  0  0  0  0  0  0
   59.4710   31.4710   46.8380 N   0  0  0  0  0  0  0  0  0  0  0  0
   59.4290   32.4360   45.7210 C   0  0  0  0  0  0  0  0  0  0  0  0
   57.9950   32.9410   45.4690 C   0  0  0  0  0  0  0  0  0  0  0  0
   57.1350   31.8910   44.8930 N   0  0  0  0  0  0  0  0  0  0  0  0
   57.8880   30.9790   44.0060 C   0  0  0  0  0  0  0  0  0  0  0  0
   57.1500   29.6450   43.7680 C   0  0  0  0  0  0  0  0  0  0  0  0
   55.8610   29.5800   44.5350 C   0  0  0  0  0  0  0  0  0  0  0  0
   55.0510   30.5470   44.5000 O   0  0  0  0  0  0  0  0  0  0  0  0
   55.5310   28.4330   45.2370 O   0  0  0  0  0  0  0  0  0  0  0  0
   59.1130   31.6460   48.1390 C   0  0  0  0  0  0  0  0  0  0  0  0
   59.4932   34.8490   49.2986 H   0  0  0  0  0  0  0  0  0  0  0  0
   60.2287   34.1360   47.8230 H   0  0  0  0  0  0  0  0  0  0  0  0
   58.4967   34.6121   47.8230 H   0  0  0  0  0  0  0  0  0  0  0  0
   58.2945   33.5707   50.8491 H   0  0  0  0  0  0  0  0  0  0  0  0
   58.1250   32.1974   54.1901 H   0  0  0  0  0  0  0  0  0  0  0  0
   59.2429   32.7161   52.8833 H   0  0  0  0  0  0  0  0  0  0  0  0
   57.5377   33.2808   52.8833 H   0  0  0  0  0  0  0  0  0  0  0  0
   55.8976   31.0285   53.3220 H   0  0  0  0  0  0  0  0  0  0  0  0
   55.8109   31.9225   51.7664 H   0  0  0  0  0  0  0  0  0  0  0  0
   55.9762   30.1338   51.7664 H   0  0  0  0  0  0  0  0  0  0  0  0
   58.3315   30.0809   54.0710 H   0  0  0  0  0  0  0  0  0  0  0  0
   57.8228   29.0609   52.6826 H   0  0  0  0  0  0  0  0  0  0  0  0
   59.4442   29.8340   52.6826 H   0  0  0  0  0  0  0  0  0  0  0  0
   58.4995   29.2320   50.4724 H   0  0  0  0  0  0  0  0  0  0  0  0
   59.1559   29.3734   44.7617 H   0  0  0  0  0  0  0  0  0  0  0  0
   60.8726   29.8884   45.0368 H   0  0  0  0  0  0  0  0  0  0  0  0
   61.0290   27.5376   44.9499 H   0  0  0  0  0  0  0  0  0  0  0  0
   60.9588   27.8903   46.7167 H   0  0  0  0  0  0  0  0  0  0  0  0
   59.3757   26.7973   48.0437 H   0  0  0  0  0  0  0  0  0  0  0  0
   57.4338   25.2440   48.2246 H   0  0  0  0  0  0  0  0  0  0  0  0
   54.8542   25.1590   44.3974 H   0  0  0  0  0  0  0  0  0  0  0  0
   52.8034   23.7682   44.6378 H   0  0  0  0  0  0  0  0  0  0  0  0
   52.5652   22.2115   46.5741 H   0  0  0  0  0  0  0  0  0  0  0  0
   54.3908   22.0412   48.2692 H   0  0  0  0  0  0  0  0  0  0  0  0
   56.4321   23.4597   48.0578 H   0  0  0  0  0  0  0  0  0  0  0  0
   56.8007   25.5269   43.9465 H   0  0  0  0  0  0  0  0  0  0  0  0
   58.7411   27.0815   43.7696 H   0  0  0  0  0  0  0  0  0  0  0  0
   60.0731   33.2938   45.9645 H   0  0  0  0  0  0  0  0  0  0  0  0
   59.7827   31.9287   44.8113 H   0  0  0  0  0  0  0  0  0  0  0  0
   57.5613   33.2713   46.4244 H   0  0  0  0  0  0  0  0  0  0  0  0
   58.0477   33.7711   44.7491 H   0  0  0  0  0  0  0  0  0  0  0  0
   56.3860   32.3500   44.3240 H   0  0  0  0  0  0  0  0  0  0  0  0
   56.6690   31.3380   45.6440 H   0  0  0  0  0  0  0  0  0  0  0  0
   58.0406   31.4758   43.0365 H   0  0  0  0  0  0  0  0  0  0  0  0
   58.8450   30.7490   44.4971 H   0  0  0  0  0  0  0  0  0  0  0  0
   56.9317   29.5448   42.6945 H   0  0  0  0  0  0  0  0  0  0  0  0
   57.7982   28.8272   44.1160 H   0  0  0  0  0  0  0  0  0  0  0  0
  1  2  1  0
  2  3  2  0
  3  4  1  0
  4  5  1  0
  5  6  1  0
  5  7  1  0
  5  8  1  0
  4  9  2  0
  9 10  1  0
 10 11  1  0
 11 12  2  0
 12 13  1  0
 13 14  1  0
 14 15  1  0
 15 16  2  0
 16 17  1  0
 17 18  2  0
 18 19  1  0
 19 20  2  0
 20 21  1  0
 21 22  2  0
 22 23  1  0
 23 24  2  0
 18 25  1  0
 25 26  2  0
 12 27  1  0
 27 28  1  0
 28 29  1  0
 29 30  1  0
 30 31  1  0
 31 32  1  0
 32 33  1  0
 33 34  2  0
 33 35  1  0
 27 36  1  0
 36  2  1  0
 36 10  2  0
 26 15  1  0
 24 19  1  0
  1 37  1  0
  1 38  1  0
  1 39  1  0
  3 40  1  0
  6 41  1  0
  6 42  1  0
  6 43  1  0
  7 44  1  0
  7 45  1  0
  7 46  1  0
  8 47  1  0
  8 48  1  0
  8 49  1  0
  9 50  1  0
 13 51  1  0
 13 52  1  0
 14 53  1  0
 14 54  1  0
 16 55  1  0
 17 56  1  0
 20 57  1  0
 21 58  1  0
 22 59  1  0
 23 60  1  0
 24 61  1  0
 25 62  1  0
 26 63  1  0
 28 64  1  0
 28 65  1  0
 29 66  1  0
 29 67  1  0
 30 68  1  0
 30 69  1  0
 31 70  1  0
 31 71  1  0
 32 72  1  0
 32 73  1  0
M  CHG  2  30   1  35  -1
M  END
>  <UniqueID>  (27) 
25

>  <SMILES>  (27) 
Cc1cc(C(C)(C)C)cc2nc(CCc3ccc(-c4ccccc4)cc3)n(CC[NH2+]CCC(=O)[O-])c12

>  <Energy>  (27) 
119.84391840556857

>  <Genealogy>  (27) 
Cc1cc(C(C)(C)C)cc2nc(CCc3ccc(-c4ccccc4)cc3)n(CC[NH2+]CCC(=O)[O-])c12 (protonated)
Cc1cc(C(C)(C)C)cc2nc(CCc3ccc(-c4ccccc4)cc3)n(CC[NH2+]CCC(=O)[O-])c12 (3D coordinates assigned)
Cc1cc(C(C)(C)C)cc2nc(CCc3ccc(-c4ccccc4)cc3)n(CC[NH2+]CCC(=O)[O-])c12 (optimized conformer: 119.84391840556857 kcal/mol)

>  <smiles>  (27) 
Cc1cc(C(C)(C)C)cc2nc(CCc3ccc(-c4ccccc4)cc3)n(CCNCCC(=O)O)c12

>  <score_type>  (27) 
oracle

>  <origin>  (27) 
adg

>  <m_score__min__energy>  (27) 
-10.65

>  <m_primary>  (27) 
energy

$$$$
27:0
     RDKit          3D

 32 33  0  0  0  0  0  0  0  0999 V2000
   57.4400   33.5020   46.6480 C   0  0  0  0  0  0  0  0  0  0  0  0
   58.3680   33.2680   45.5310 N   0  0  0  0  0  0  0  0  0  0  0  0
   58.9200   34.5550   45.0710 C   0  0  0  0  0  0  0  0  0  0  0  0
   57.6690   32.5730   44.4300 C   0  0  0  0  0  0  0  0  0  0  0  0
   57.6280   31.0880   44.6800 C   0  0  0  0  0  0  0  0  0  0  0  0
   58.7400   30.4220   45.2160 C   0  0  0  0  0  0  0  0  0  0  0  0
   58.6900   29.0470   45.4630 C   0  0  0  0  0  0  0  0  0  0  0  0
   57.5250   28.3140   45.1760 C   0  0  0  0  0  0  0  0  0  0  0  0
   57.4590   26.8570   45.4420 C   0  0  0  0  0  0  0  0  0  0  0  0
   58.5340   25.9850   45.4120 C   0  0  0  0  0  0  0  0  0  0  0  0
   58.0370   24.7320   45.7270 C   0  0  0  0  0  0  0  0  0  0  0  0
   56.6820   24.8840   45.9440 C   0  0  0  0  0  0  0  0  0  0  0  0
   56.3440   26.1730   45.7670 N   0  0  0  0  0  0  0  0  0  0  0  0
   55.0890   26.7050   45.9770 O   0  0  0  0  0  0  0  0  0  0  0  0
   56.4060   28.9880   44.6550 C   0  0  0  0  0  0  0  0  0  0  0  0
   56.4590   30.3630   44.4070 C   0  0  0  0  0  0  0  0  0  0  0  0
   57.9723   33.3678   47.6012 H   0  0  0  0  0  0  0  0  0  0  0  0
   57.0464   34.5275   46.5891 H   0  0  0  0  0  0  0  0  0  0  0  0
   56.6072   32.7857   46.5891 H   0  0  0  0  0  0  0  0  0  0  0  0
   59.1849   35.1726   45.9419 H   0  0  0  0  0  0  0  0  0  0  0  0
   59.8190   34.3724   44.4639 H   0  0  0  0  0  0  0  0  0  0  0  0
   58.1681   35.0805   44.4639 H   0  0  0  0  0  0  0  0  0  0  0  0
   56.6403   32.9556   44.3567 H   0  0  0  0  0  0  0  0  0  0  0  0
   58.2126   32.7593   43.4920 H   0  0  0  0  0  0  0  0  0  0  0  0
   59.6571   30.9852   45.4434 H   0  0  0  0  0  0  0  0  0  0  0  0
   59.5677   28.5352   45.8846 H   0  0  0  0  0  0  0  0  0  0  0  0
   59.5795   26.2385   45.1825 H   0  0  0  0  0  0  0  0  0  0  0  0
   58.6109   23.7958   45.7919 H   0  0  0  0  0  0  0  0  0  0  0  0
   55.9875   24.0765   46.2188 H   0  0  0  0  0  0  0  0  0  0  0  0
   54.4020   26.7210   45.2330 H   0  0  0  0  0  0  0  0  0  0  0  0
   55.4827   28.4296   44.4411 H   0  0  0  0  0  0  0  0  0  0  0  0
   55.5789   30.8789   43.9955 H   0  0  0  0  0  0  0  0  0  0  0  0
  1  2  1  0
  2  3  1  0
  2  4  1  0
  4  5  1  0
  5  6  2  0
  6  7  1  0
  7  8  2  0
  8  9  1  0
  9 10  2  0
 10 11  1  0
 11 12  2  0
 12 13  1  0
 13 14  1  0
  8 15  1  0
 15 16  2  0
 16  5  1  0
 13  9  1  0
  1 17  1  0
  1 18  1  0
  1 19  1  0
  3 20  1  0
  3 21  1  0
  3 22  1  0
  4 23  1  0
  4 24  1  0
  6 25  1  0
  7 26  1  0
 10 27  1  0
 11 28  1  0
 12 29  1  0
 14 30  1  0
 15 31  1  0
 16 32  1  0
M  END
>  <UniqueID>  (28) 
26

>  <SMILES>  (28) 
CN(C)Cc1ccc(-c2cccn2O)cc1

>  <Energy>  (28) 
61.61748928228576

>  <Genealogy>  (28) 
CN(C)Cc1ccc(-c2cccn2O)cc1 (3D coordinates assigned)
CN(C)Cc1ccc(-c2cccn2O)cc1 (optimized conformer: 61.61748928228576 kcal/mol)

>  <smiles>  (28) 
CN(C)Cc1ccc(-c2cccn2O)cc1

>  <score_type>  (28) 
oracle

>  <origin>  (28) 
adg

>  <m_score__min__energy>  (28) 
-7.4100000000000001

>  <m_primary>  (28) 
energy

$$$$
28:0
     RDKit          3D

 18 18  0  0  0  0  0  0  0  0999 V2000
   57.5250   32.3430   41.4460 C   0  0  0  0  0  0  0  0  0  0  0  0
   57.4140   31.6280   42.7190 N   0  0  0  0  0  0  0  0  0  0  0  0
   56.6370   30.3850   42.7790 C   0  0  0  0  0  0  0  0  0  0  0  0
   56.9250   29.5990   44.0640 C   0  0  0  0  0  0  0  0  0  0  0  0
   56.8280   30.4670   45.2430 N   0  0  0  0  0  0  0  0  0  0  0  0
   57.8830   31.4860   45.2260 C   0  0  0  0  0  0  0  0  0  0  0  0
   57.9110   32.2390   43.9250 C   0  0  0  0  0  0  0  0  0  0  0  0
   58.4350   33.3850   43.8890 O   0  0  0  0  0  0  0  0  0  0  0  0
   57.6911   33.4130   41.6397 H   0  0  0  0  0  0  0  0  0  0  0  0
   58.3712   31.9388   40.8710 H   0  0  0  0  0  0  0  0  0  0  0  0
   56.5961   32.2143   40.8710 H   0  0  0  0  0  0  0  0  0  0  0  0
   55.5656   30.6320   42.7445 H   0  0  0  0  0  0  0  0  0  0  0  0
   56.9243   29.7587   41.9216 H   0  0  0  0  0  0  0  0  0  0  0  0
   56.1945   28.7820   44.1575 H   0  0  0  0  0  0  0  0  0  0  0  0
   57.9472   29.1967   44.0076 H   0  0  0  0  0  0  0  0  0  0  0  0
   55.8950   30.9440   45.2430 H   0  0  0  0  0  0  0  0  0  0  0  0
   57.7039   32.1976   46.0455 H   0  0  0  0  0  0  0  0  0  0  0  0
   58.8510   30.9780   45.3479 H   0  0  0  0  0  0  0  0  0  0  0  0
  1  2  1  0
  2  3  1  0
  3  4  1  0
  4  5  1  0
  5  6  1  0
  6  7  1  0
  7  8  2  0
  7  2  1  0
  1  9  1  0
  1 10  1  0
  1 11  1  0
  3 12  1  0
  3 13  1  0
  4 14  1  0
  4 15  1  0
  5 16  1  0
  6 17  1  0
  6 18  1  0
M  END
>  <UniqueID>  (29) 
27

>  <SMILES>  (29) 
CN1CCNCC1=O

>  <Energy>  (29) 
13.555261100200989

>  <Genealogy>  (29) 
CN1CCNCC1=O (3D coordinates assigned)
CN1CCNCC1=O (nonaromatic ring conformer: 13.555261100200989 kcal/mol)

>  <smiles>  (29) 
CN1CCNCC1=O

>  <score_type>  (29) 
oracle

>  <origin>  (29) 
adg

>  <m_score__min__energy>  (29) 
-3.8199999999999998

>  <m_primary>  (29) 
energy

$$$$
29:0
     RDKit          3D

 36 36  0  0  0  0  0  0  0  0999 V2000
   59.5930   30.3790   46.0240 C   0  0  0  0  0  0  0  0  0  0  0  0
   58.4250   29.9090   45.2780 N   0  0  0  0  0  0  0  0  0  0  0  0
   58.2850   28.4800   44.9940 C   0  0  0  0  0  0  0  0  0  0  0  0
   57.4010   30.8170   44.8300 C   0  0  0  0  0  0  0  0  0  0  0  0
   56.2010   30.4270   44.8170 O   0  0  0  0  0  0  0  0  0  0  0  0
   57.7230   32.1450   44.3620 N   0  0  0  0  0  0  0  0  0  0  0  0
   58.0890   32.3470   42.9550 C   0  0  0  0  0  0  0  0  0  0  0  0
   57.4080   33.3160   45.1960 C   0  0  0  0  0  0  0  0  0  0  0  0
   58.6310   34.2300   45.3900 C   0  0  0  0  0  0  0  0  0  0  0  0
   58.9050   34.5890   46.8590 C   0  0  0  0  0  0  0  0  0  0  0  0
   60.2990   34.2140   47.2920 C   0  0  0  0  0  0  0  0  0  0  0  0
   61.2680   33.8510   46.3400 C   0  0  0  0  0  0  0  0  0  0  0  0
   62.5530   33.4790   46.7490 C   0  0  0  0  0  0  0  0  0  0  0  0
   62.8790   33.4670   48.1090 C   0  0  0  0  0  0  0  0  0  0  0  0
   61.9220   33.8260   49.0610 C   0  0  0  0  0  0  0  0  0  0  0  0
   60.6360   34.1990   48.6570 C   0  0  0  0  0  0  0  0  0  0  0  0
   59.3952   30.2994   47.1031 H   0  0  0  0  0  0  0  0  0  0  0  0
   60.4662   29.7622   45.7648 H   0  0  0  0  0  0  0  0  0  0  0  0
   59.7956   31.4287   45.7648 H   0  0  0  0  0  0  0  0  0  0  0  0
   58.2303   27.9217   45.9402 H   0  0  0  0  0  0  0  0  0  0  0  0
   57.3659   28.3097   44.4142 H   0  0  0  0  0  0  0  0  0  0  0  0
   59.1536   28.1346   44.4142 H   0  0  0  0  0  0  0  0  0  0  0  0
   59.0508   32.8778   42.8989 H   0  0  0  0  0  0  0  0  0  0  0  0
   58.1792   31.3709   42.4558 H   0  0  0  0  0  0  0  0  0  0  0  0
   57.3113   32.9436   42.4558 H   0  0  0  0  0  0  0  0  0  0  0  0
   56.6068   33.8927   44.7107 H   0  0  0  0  0  0  0  0  0  0  0  0
   57.0933   32.9540   46.1859 H   0  0  0  0  0  0  0  0  0  0  0  0
   59.5162   33.7164   44.9867 H   0  0  0  0  0  0  0  0  0  0  0  0
   58.4166   35.1713   44.8628 H   0  0  0  0  0  0  0  0  0  0  0  0
   58.7750   35.6737   46.9877 H   0  0  0  0  0  0  0  0  0  0  0  0
   58.1968   34.0214   47.4805 H   0  0  0  0  0  0  0  0  0  0  0  0
   61.0147   33.8596   45.2696 H   0  0  0  0  0  0  0  0  0  0  0  0
   63.3076   33.1957   46.0004 H   0  0  0  0  0  0  0  0  0  0  0  0
   63.8899   33.1746   48.4292 H   0  0  0  0  0  0  0  0  0  0  0  0
   62.1802   33.8153   50.1302 H   0  0  0  0  0  0  0  0  0  0  0  0
   59.8855   34.4817   49.4099 H   0  0  0  0  0  0  0  0  0  0  0  0
  1  2  1  0
  2  3  1  0
  2  4  1  0
  4  5  2  0
  4  6  1  0
  6  7  1  0
  6  8  1  0
  8  9  1  0
  9 10  1  0
 10 11  1  0
 11 12  2  0
 12 13  1  0
 13 14  2  0
 14 15  1  0
 15 16  2  0
 16 11  1  0
  1 17  1  0
  1 18  1  0
  1 19  1  0
  3 20  1  0
  3 21  1  0
  3 22  1  0
  7 23  1  0
  7 24  1  0
  7 25  1  0
  8 26  1  0
  8 27  1  0
  9 28  1  0
  9 29  1  0
 10 30  1  0
 10 31  1  0
 12 32  1  0
 13 33  1  0
 14 34  1  0
 15 35  1  0
 16 36  1  0
M  END
>  <UniqueID>  (30) 
28

>  <SMILES>  (30) 
CN(C)C(=O)N(C)CCCc1ccccc1

>  <Energy>  (30) 
29.335872091644767

>  <Genealogy>  (30) 
CN(C)C(=O)N(C)CCCc1ccccc1 (3D coordinates assigned)
CN(C)C(=O)N(C)CCCc1ccccc1 (optimized conformer: 29.335872091644767 kcal/mol)

>  <smiles>  (30) 
CN(C)C(=O)N(C)CCCc1ccccc1

>  <score_type>  (30) 
oracle

>  <origin>  (30) 
adg

>  <m_score__min__energy>  (30) 
-6.1299999999999999

>  <m_primary>  (30) 
energy

$$$$
30:0
     RDKit          3D

 37 37  0  0  0  0  0  0  0  0999 V2000
   54.6349   24.6360   46.3377 H   0  0  0  0  0  0  0  0  0  0  0  0
   55.5330   25.1910   46.0290 C   0  0  0  0  0  0  0  0  0  0  0  0
   55.5140   26.5490   45.9940 N   0  0  0  0  0  0  0  0  0  0  0  0
   56.5920   27.2880   45.6130 C   0  0  0  0  0  0  0  0  0  0  0  0
   56.4760   28.5880   45.6170 N   0  0  0  0  0  0  0  0  0  0  0  0
   55.9860   29.4640   44.5870 C   0  0  0  0  0  0  0  0  0  0  0  0
   54.8140   29.3580   44.1370 O   0  0  0  0  0  0  0  0  0  0  0  0
   56.8410   30.6080   44.1350 C   0  0  0  0  0  0  0  0  0  0  0  0
   56.2313   31.2907   43.5249 H   0  0  0  0  0  0  0  0  0  0  0  0
   57.6791   30.2021   43.5494 H   0  0  0  0  0  0  0  0  0  0  0  0
   57.3980   31.3580   45.2860 N   0  0  0  0  0  0  0  0  0  0  0  0
   57.0380   32.7910   45.1730 C   0  0  0  0  0  0  0  0  0  0  0  0
   55.9901   32.9247   45.4798 H   0  0  0  0  0  0  0  0  0  0  0  0
   57.1749   33.1073   44.1284 H   0  0  0  0  0  0  0  0  0  0  0  0
   57.9380   33.6520   46.0690 C   0  0  0  0  0  0  0  0  0  0  0  0
   58.5734   32.9924   46.6782 H   0  0  0  0  0  0  0  0  0  0  0  0
   57.2963   34.2747   46.7097 H   0  0  0  0  0  0  0  0  0  0  0  0
   58.8290   34.5730   45.2390 C   0  0  0  0  0  0  0  0  0  0  0  0
   59.4350   35.1994   45.9101 H   0  0  0  0  0  0  0  0  0  0  0  0
   59.4925   33.9671   44.6044 H   0  0  0  0  0  0  0  0  0  0  0  0
   58.2015   35.2161   44.6044 H   0  0  0  0  0  0  0  0  0  0  0  0
   58.8710   31.1770   45.3990 C   0  0  0  0  0  0  0  0  0  0  0  0
   59.3248   31.2982   44.4043 H   0  0  0  0  0  0  0  0  0  0  0  0
   59.2621   31.9309   46.0981 H   0  0  0  0  0  0  0  0  0  0  0  0
   59.2190   29.7830   45.9420 C   0  0  0  0  0  0  0  0  0  0  0  0
   59.7257   29.8980   46.9116 H   0  0  0  0  0  0  0  0  0  0  0  0
   58.2803   29.2183   46.0419 H   0  0  0  0  0  0  0  0  0  0  0  0
   60.1330   29.0030   45.0010 C   0  0  0  0  0  0  0  0  0  0  0  0
   60.8390   28.4005   45.5914 H   0  0  0  0  0  0  0  0  0  0  0  0
   59.5264   28.3400   44.3667 H   0  0  0  0  0  0  0  0  0  0  0  0
   60.6924   29.7063   44.3667 H   0  0  0  0  0  0  0  0  0  0  0  0
   57.7860   26.6180   45.2650 C   0  0  0  0  0  0  0  0  0  0  0  0
   58.6786   27.1910   44.9735 H   0  0  0  0  0  0  0  0  0  0  0  0
   57.8240   25.2220   45.2940 C   0  0  0  0  0  0  0  0  0  0  0  0
   58.7472   24.6917   45.0175 H   0  0  0  0  0  0  0  0  0  0  0  0
   56.6930   24.5000   45.6730 C   0  0  0  0  0  0  0  0  0  0  0  0
   56.7340   22.5910   45.7200 Br  0  0  0  0  0  0  0  0  0  0  0  0
  1  2  1  0
  2  3  1  0
  3  4  1  0
  4  5  2  0
  5  6  1  0
  6  7  2  0
  6  8  1  0
  8  9  1  0
  8 10  1  0
  8 11  1  0
 11 12  1  0
 12 13  1  0
 12 14  1  0
 12 15  1  0
 15 16  1  0
 15 17  1  0
 15 18  1  0
 18 19  1  0
 18 20  1  0
 18 21  1  0
 11 22  1  0
 22 23  1  0
 22 24  1  0
 22 25  1  0
 25 26  1  0
 25 27  1  0
 25 28  1  0
 28 29  1  0
 28 30  1  0
 28 31  1  0
  4 32  1  0
 32 33  1  0
 32 34  2  0
 34 35  1  0
 34 36  1  0
 36 37  1  0
 36  2  2  0
M  CHG  1   3  -1
M  END
>  <UniqueID>  (31) 
29

>  <SMILES>  (31) 
CCCN(CCC)CC(=O)/N=c1\ccc(Br)c[n-]1

>  <Energy>  (31) 
36.95992832906912

>  <Genealogy>  (31) 
CCCN(CCC)CC(=O)N=c1ccc(Br)c[n-]1 (protonated)
CCCN(CCC)CC(=O)/N=c1\ccc(Br)c[n-]1 (cis-trans isomerization)
CCCN(CCC)CC(=O)/N=c1\ccc(Br)c[n-]1 (3D coordinates assigned)
CCCN(CCC)CC(=O)/N=c1\ccc(Br)c[n-]1 (optimized conformer: 36.95992832906912 kcal/mol)

>  <smiles>  (31) 
CCCN(CCC)CC(=O)N=c1ccc(Br)c[nH]1

>  <score_type>  (31) 
oracle

>  <origin>  (31) 
adg

>  <m_score__min__energy>  (31) 
-8.7100000000000009

>  <m_primary>  (31) 
energy

$$$$
31:0
     RDKit          3D

 40 41  0  0  0  0  0  0  0  0999 V2000
   60.2270   34.6140   48.2690 C   0  0  0  0  0  0  0  0  0  0  0  0
   59.3310   33.8900   47.3160 C   0  0  0  0  0  0  0  0  0  0  0  0
   59.1040   34.3120   45.7020 S   0  0  0  0  0  0  0  0  0  0  0  0
   57.9640   33.1090   45.4220 C   0  0  0  0  0  0  0  0  0  0  0  0
   57.7430   32.3910   46.5450 N   0  0  0  0  0  0  0  0  0  0  0  0
   58.4950   32.8070   47.6010 C   0  0  0  0  0  0  0  0  0  0  0  0
   58.3570   32.1810   48.9620 C   0  0  0  0  0  0  0  0  0  0  0  0
   59.7250   31.7680   49.5070 C   0  0  0  0  0  0  0  0  0  0  0  0
   59.9990   30.4020   49.1940 O   0  0  0  0  0  0  0  0  0  0  0  0
   59.8400   29.8060   47.9320 C   0  0  0  0  0  0  0  0  0  0  0  0
   60.4350   30.3210   46.7640 C   0  0  0  0  0  0  0  0  0  0  0  0
   60.2440   29.6840   45.5350 C   0  0  0  0  0  0  0  0  0  0  0  0
   59.4640   28.5210   45.4510 C   0  0  0  0  0  0  0  0  0  0  0  0
   59.2770   27.8250   44.1270 C   0  0  0  0  0  0  0  0  0  0  0  0
   57.7940   27.6710   43.7420 C   0  0  0  0  0  0  0  0  0  0  0  0
   57.0800   29.0090   43.4870 C   0  0  0  0  0  0  0  0  0  0  0  0
   56.3730   29.5240   44.7050 C   0  0  0  0  0  0  0  0  0  0  0  0
   55.1500   29.2780   44.8770 O   0  0  0  0  0  0  0  0  0  0  0  0
   57.0700   30.2430   45.6670 O   0  0  0  0  0  0  0  0  0  0  0  0
   58.8710   28.0070   46.6150 C   0  0  0  0  0  0  0  0  0  0  0  0
   59.0620   28.6460   47.8440 C   0  0  0  0  0  0  0  0  0  0  0  0
   59.9326   34.3761   49.3018 H   0  0  0  0  0  0  0  0  0  0  0  0
   61.2683   34.3007   48.1032 H   0  0  0  0  0  0  0  0  0  0  0  0
   60.1394   35.6979   48.1032 H   0  0  0  0  0  0  0  0  0  0  0  0
   57.4664   32.9308   44.4573 H   0  0  0  0  0  0  0  0  0  0  0  0
   57.0560   31.6060   46.5920 H   0  0  0  0  0  0  0  0  0  0  0  0
   57.8987   32.9075   49.6491 H   0  0  0  0  0  0  0  0  0  0  0  0
   57.7244   31.2851   48.8773 H   0  0  0  0  0  0  0  0  0  0  0  0
   60.5008   32.4047   49.0567 H   0  0  0  0  0  0  0  0  0  0  0  0
   59.7220   31.8876   50.6005 H   0  0  0  0  0  0  0  0  0  0  0  0
   61.0532   31.2292   46.8195 H   0  0  0  0  0  0  0  0  0  0  0  0
   60.7083   30.0972   44.6274 H   0  0  0  0  0  0  0  0  0  0  0  0
   59.7844   28.4109   43.3464 H   0  0  0  0  0  0  0  0  0  0  0  0
   59.7035   26.8152   44.2188 H   0  0  0  0  0  0  0  0  0  0  0  0
   57.7340   27.0651   42.8259 H   0  0  0  0  0  0  0  0  0  0  0  0
   57.2882   27.1937   44.5943 H   0  0  0  0  0  0  0  0  0  0  0  0
   57.8266   29.7527   43.1716 H   0  0  0  0  0  0  0  0  0  0  0  0
   56.3227   28.8404   42.7073 H   0  0  0  0  0  0  0  0  0  0  0  0
   58.2538   27.0982   46.5601 H   0  0  0  0  0  0  0  0  0  0  0  0
   58.5961   28.2328   48.7507 H   0  0  0  0  0  0  0  0  0  0  0  0
  1  2  1  0
  2  3  1  0
  3  4  1  0
  4  5  2  0
  5  6  1  0
  6  7  1  0
  7  8  1  0
  8  9  1  0
  9 10  1  0
 10 11  2  0
 11 12  1  0
 12 13  2  0
 13 14  1  0
 14 15  1  0
 15 16  1  0
 16 17  1  0
 17 18  2  0
 17 19  1  0
 13 20  1  0
 20 21  2  0
  6  2  2  0
 21 10  1  0
  1 22  1  0
  1 23  1  0
  1 24  1  0
  4 25  1  0
  5 26  1  0
  7 27  1  0
  7 28  1  0
  8 29  1  0
  8 30  1  0
 11 31  1  0
 12 32  1  0
 14 33  1  0
 14 34  1  0
 15 35  1  0
 15 36  1  0
 16 37  1  0
 16 38  1  0
 20 39  1  0
 21 40  1  0
M  CHG  2   5   1  19  -1
M  END
>  <UniqueID>  (32) 
30

>  <SMILES>  (32) 
Cc1sc[nH+]c1CCOc1ccc(CCCC(=O)[O-])cc1

>  <Energy>  (32) 
60.45156677574007

>  <Genealogy>  (32) 
Cc1sc[nH+]c1CCOc1ccc(CCCC(=O)[O-])cc1 (protonated)
Cc1sc[nH+]c1CCOc1ccc(CCCC(=O)[O-])cc1 (3D coordinates assigned)
Cc1sc[nH+]c1CCOc1ccc(CCCC(=O)[O-])cc1 (optimized conformer: 60.45156677574007 kcal/mol)

>  <smiles>  (32) 
Cc1scnc1CCOc1ccc(CCCC(=O)O)cc1

>  <score_type>  (32) 
oracle

>  <origin>  (32) 
adg

>  <m_score__min__energy>  (32) 
-8.5

>  <m_primary>  (32) 
energy

$$$$
32:0
     RDKit          3D

 52 55  0  0  0  0  0  0  0  0999 V2000
   59.5170   27.2910   45.6060 C   0  0  0  0  0  0  0  0  0  0  0  0
   58.2170   26.5890   45.9000 C   0  0  0  0  0  0  0  0  0  0  0  0
   58.2470   25.2360   46.2740 C   0  0  0  0  0  0  0  0  0  0  0  0
   57.0580   24.5380   46.4990 C   0  0  0  0  0  0  0  0  0  0  0  0
   57.0880   23.1470   46.8690 C   0  0  0  0  0  0  0  0  0  0  0  0
   57.1120   22.0290   47.1670 N   0  0  0  0  0  0  0  0  0  0  0  0
   55.8410   25.2020   46.3500 C   0  0  0  0  0  0  0  0  0  0  0  0
   55.8220   26.5180   46.0140 N   0  0  0  0  0  0  0  0  0  0  0  0
   56.9600   27.2370   45.8060 C   0  0  0  0  0  0  0  0  0  0  0  0
   56.8180   28.6670   45.4650 C   0  0  0  0  0  0  0  0  0  0  0  0
   55.7740   29.0540   44.8730 O   0  0  0  0  0  0  0  0  0  0  0  0
   57.7980   29.6260   45.8930 N   0  0  0  0  0  0  0  0  0  0  0  0
   57.9630   30.9230   45.2930 C   0  0  0  0  0  0  0  0  0  0  0  0
   57.5710   31.1700   43.9670 C   0  0  0  0  0  0  0  0  0  0  0  0
   57.7760   32.4280   43.3950 C   0  0  0  0  0  0  0  0  0  0  0  0
   58.3760   33.4480   44.1360 C   0  0  0  0  0  0  0  0  0  0  0  0
   58.7770   33.2210   45.4630 C   0  0  0  0  0  0  0  0  0  0  0  0
   59.4320   34.3030   46.2330 C   0  0  0  0  0  0  0  0  0  0  0  0
   59.3160   35.4930   45.8340 O   0  0  0  0  0  0  0  0  0  0  0  0
   60.1980   34.0330   47.4690 C   0  0  0  0  0  0  0  0  0  0  0  0
   59.7030   34.0130   48.7760 C   0  0  0  0  0  0  0  0  0  0  0  0
   60.7050   33.7720   49.6600 N   0  0  0  0  0  0  0  0  0  0  0  0
   60.5920   33.6740   51.1200 C   0  0  0  0  0  0  0  0  0  0  0  0
   59.1260   33.7820   51.5510 C   0  0  0  0  0  0  0  0  0  0  0  0
   61.2190   32.3700   51.6180 C   0  0  0  0  0  0  0  0  0  0  0  0
   61.8220   33.6500   48.9190 C   0  0  0  0  0  0  0  0  0  0  0  0
   63.0740   33.4060   49.3800 N   0  0  0  0  0  0  0  0  0  0  0  0
   64.0930   33.3100   48.4760 C   0  0  0  0  0  0  0  0  0  0  0  0
   63.8480   33.4580   47.1360 N   0  0  0  0  0  0  0  0  0  0  0  0
   62.5920   33.7060   46.6650 C   0  0  0  0  0  0  0  0  0  0  0  0
   61.5580   33.8060   47.5910 C   0  0  0  0  0  0  0  0  0  0  0  0
   58.5870   31.9450   46.0260 C   0  0  0  0  0  0  0  0  0  0  0  0
   60.0115   27.5580   46.5516 H   0  0  0  0  0  0  0  0  0  0  0  0
   60.1711   26.6235   45.0259 H   0  0  0  0  0  0  0  0  0  0  0  0
   59.3176   28.2041   45.0259 H   0  0  0  0  0  0  0  0  0  0  0  0
   59.2127   24.7224   46.3906 H   0  0  0  0  0  0  0  0  0  0  0  0
   54.8963   24.6601   46.5045 H   0  0  0  0  0  0  0  0  0  0  0  0
   58.3520   29.4030   46.7500 H   0  0  0  0  0  0  0  0  0  0  0  0
   57.1008   30.3698   43.3766 H   0  0  0  0  0  0  0  0  0  0  0  0
   57.4636   32.6156   42.3571 H   0  0  0  0  0  0  0  0  0  0  0  0
   58.5356   34.4353   43.6779 H   0  0  0  0  0  0  0  0  0  0  0  0
   58.6494   34.1704   49.0500 H   0  0  0  0  0  0  0  0  0  0  0  0
   61.1426   34.5110   51.5742 H   0  0  0  0  0  0  0  0  0  0  0  0
   59.0661   33.7864   52.6494 H   0  0  0  0  0  0  0  0  0  0  0  0
   58.6956   34.7143   51.1566 H   0  0  0  0  0  0  0  0  0  0  0  0
   58.5636   32.9229   51.1566 H   0  0  0  0  0  0  0  0  0  0  0  0
   61.2230   32.3617   52.7180 H   0  0  0  0  0  0  0  0  0  0  0  0
   60.6329   31.5162   51.2470 H   0  0  0  0  0  0  0  0  0  0  0  0
   62.2518   32.2946   51.2470 H   0  0  0  0  0  0  0  0  0  0  0  0
   65.1171   33.1126   48.8258 H   0  0  0  0  0  0  0  0  0  0  0  0
   62.4026   33.8232   45.5878 H   0  0  0  0  0  0  0  0  0  0  0  0
   58.9312   31.7463   47.0517 H   0  0  0  0  0  0  0  0  0  0  0  0
  1  2  1  0
  2  3  2  0
  3  4  1  0
  4  5  1  0
  5  6  3  0
  4  7  2  0
  7  8  1  0
  8  9  2  0
  9 10  1  0
 10 11  2  0
 10 12  1  0
 12 13  1  0
 13 14  2  0
 14 15  1  0
 15 16  2  0
 16 17  1  0
 17 18  1  0
 18 19  2  0
 18 20  1  0
 20 21  2  0
 21 22  1  0
 22 23  1  0
 23 24  1  0
 23 25  1  0
 22 26  1  0
 26 27  2  0
 27 28  1  0
 28 29  2  0
 29 30  1  0
 30 31  2  0
 17 32  2  0
  9  2  1  0
 32 13  1  0
 31 20  1  0
 31 26  1  0
  1 33  1  0
  1 34  1  0
  1 35  1  0
  3 36  1  0
  7 37  1  0
 12 38  1  0
 14 39  1  0
 15 40  1  0
 16 41  1  0
 21 42  1  0
 23 43  1  0
 24 44  1  0
 24 45  1  0
 24 46  1  0
 25 47  1  0
 25 48  1  0
 25 49  1  0
 28 50  1  0
 30 51  1  0
 32 52  1  0
M  END
>  <UniqueID>  (33) 
31

>  <SMILES>  (33) 
Cc1cc(C#N)cnc1C(=O)Nc1cccc(C(=O)c2cn(C(C)C)c3ncncc23)c1

>  <Energy>  (33) 
101.3438053854258

>  <Genealogy>  (33) 
Cc1cc(C#N)cnc1C(=O)Nc1cccc(C(=O)c2cn(C(C)C)c3ncncc23)c1 (3D coordinates assigned)
Cc1cc(C#N)cnc1C(=O)Nc1cccc(C(=O)c2cn(C(C)C)c3ncncc23)c1 (optimized conformer: 101.3438053854258 kcal/mol)

>  <smiles>  (33) 
Cc1cc(C#N)cnc1C(=O)Nc1cccc(C(=O)c2cn(C(C)C)c3ncncc23)c1

>  <score_type>  (33) 
oracle

>  <origin>  (33) 
adg

>  <m_score__min__energy>  (33) 
-9.8499999999999996

>  <m_primary>  (33) 
energy

$$$$
33:0
     RDKit          3D

 58 61  0  0  0  0  0  0  0  0999 V2000
   59.6710   35.7510   45.6990 C   0  0  0  0  0  0  0  0  0  0  0  0
   59.4310   34.6290   46.7230 C   0  0  2  0  0  0  0  0  0  0  0  0
   60.7360   33.8660   47.0540 C   0  0  0  0  0  0  0  0  0  0  0  0
   60.5120   32.6340   47.8590 N   0  0  0  0  0  0  0  0  0  0  0  0
   60.8610   31.3940   47.1330 C   0  0  0  0  0  0  0  0  0  0  0  0
   60.7900   30.2030   48.0540 C   0  0  0  0  0  0  0  0  0  0  0  0
   60.9880   30.3630   49.4370 C   0  0  0  0  0  0  0  0  0  0  0  0
   60.9080   29.2610   50.2930 C   0  0  0  0  0  0  0  0  0  0  0  0
   60.6290   27.9930   49.7760 C   0  0  0  0  0  0  0  0  0  0  0  0
   60.4310   27.8240   48.4040 C   0  0  0  0  0  0  0  0  0  0  0  0
   60.5100   28.9230   47.5420 C   0  0  0  0  0  0  0  0  0  0  0  0
   60.3110   28.7410   46.2120 F   0  0  0  0  0  0  0  0  0  0  0  0
   59.1620   32.5650   48.4490 C   0  0  0  0  0  0  0  0  0  0  0  0
   58.0520   32.6920   47.3820 C   0  0  0  0  0  0  0  0  0  0  0  0
   58.3440   33.7000   46.3270 N   0  0  0  0  0  0  0  0  0  0  0  0
   58.4900   33.1150   44.9690 C   0  0  0  0  0  0  0  0  0  0  0  0
   57.8650   31.7560   44.9270 C   0  0  0  0  0  0  0  0  0  0  0  0
   58.4720   30.5520   45.2170 C   0  0  0  0  0  0  0  0  0  0  0  0
   57.5560   29.5910   44.9700 N   0  0  0  0  0  0  0  0  0  0  0  0
   57.7140   28.1640   45.1080 C   0  0  0  0  0  0  0  0  0  0  0  0
   57.5970   27.5630   46.3740 C   0  0  0  0  0  0  0  0  0  0  0  0
   57.7440   26.1810   46.5220 C   0  0  0  0  0  0  0  0  0  0  0  0
   58.0120   25.3770   45.4080 C   0  0  0  0  0  0  0  0  0  0  0  0
   58.2090   23.6390   45.6060 S   0  0  0  0  0  0  0  0  0  0  0  0
   57.4160   22.7960   44.2550 C   0  0  0  0  0  0  0  0  0  0  0  0
   57.5920   23.1950   46.9030 O   0  0  0  0  0  0  0  0  0  0  0  0
   59.6720   23.2960   45.6260 O   0  0  0  0  0  0  0  0  0  0  0  0
   58.1470   25.9680   44.1460 C   0  0  0  0  0  0  0  0  0  0  0  0
   57.9970   27.3500   43.9940 C   0  0  0  0  0  0  0  0  0  0  0  0
   56.4490   30.1780   44.5350 N   0  0  0  0  0  0  0  0  0  0  0  0
   56.6180   31.4890   44.5010 N   0  0  0  0  0  0  0  0  0  0  0  0
   59.8727   36.6938   46.2286 H   0  0  0  0  0  0  0  0  0  0  0  0
   60.5343   35.4930   45.0680 H   0  0  0  0  0  0  0  0  0  0  0  0
   58.7777   35.8687   45.0680 H   0  0  0  0  0  0  0  0  0  0  0  0
   59.0898   35.1273   47.6424 H   0  0  0  0  0  0  0  0  0  0  0  0
   61.2229   33.5817   46.1095 H   0  0  0  0  0  0  0  0  0  0  0  0
   61.3619   34.5394   47.6579 H   0  0  0  0  0  0  0  0  0  0  0  0
   60.1551   31.2508   46.3016 H   0  0  0  0  0  0  0  0  0  0  0  0
   61.8877   31.4847   46.7487 H   0  0  0  0  0  0  0  0  0  0  0  0
   61.2068   31.3600   49.8470 H   0  0  0  0  0  0  0  0  0  0  0  0
   61.0647   29.3918   51.3739 H   0  0  0  0  0  0  0  0  0  0  0  0
   60.5653   27.1267   50.4508 H   0  0  0  0  0  0  0  0  0  0  0  0
   60.2124   26.8244   48.0001 H   0  0  0  0  0  0  0  0  0  0  0  0
   59.0494   31.5997   48.9642 H   0  0  0  0  0  0  0  0  0  0  0  0
   59.0557   33.4069   49.1489 H   0  0  0  0  0  0  0  0  0  0  0  0
   57.9219   31.7124   46.8989 H   0  0  0  0  0  0  0  0  0  0  0  0
   57.1440   33.0288   47.9036 H   0  0  0  0  0  0  0  0  0  0  0  0
   57.9928   33.7674   44.2360 H   0  0  0  0  0  0  0  0  0  0  0  0
   59.5594   33.0282   44.7264 H   0  0  0  0  0  0  0  0  0  0  0  0
   59.5003   30.4037   45.5785 H   0  0  0  0  0  0  0  0  0  0  0  0
   57.3879   28.1863   47.2559 H   0  0  0  0  0  0  0  0  0  0  0  0
   57.6487   25.7234   47.5178 H   0  0  0  0  0  0  0  0  0  0  0  0
   56.7129   22.0486   44.6513 H   0  0  0  0  0  0  0  0  0  0  0  0
   56.8682   23.5245   43.6392 H   0  0  0  0  0  0  0  0  0  0  0  0
   58.1766   22.2937   43.6392 H   0  0  0  0  0  0  0  0  0  0  0  0
   58.3721   25.3422   43.2698 H   0  0  0  0  0  0  0  0  0  0  0  0
   58.1007   27.8044   42.9976 H   0  0  0  0  0  0  0  0  0  0  0  0
   55.8980   32.1760   44.1820 H   0  0  0  0  0  0  0  0  0  0  0  0
  1  2  1  0
  2  3  1  0
  3  4  1  0
  4  5  1  0
  5  6  1  0
  6  7  2  0
  7  8  1  0
  8  9  2  0
  9 10  1  0
 10 11  2  0
 11 12  1  0
  4 13  1  0
 13 14  1  0
 14 15  1  0
 15 16  1  0
 16 17  1  0
 17 18  2  0
 18 19  1  0
 19 20  1  0
 20 21  2  0
 21 22  1  0
 22 23  2  0
 23 24  1  0
 24 25  1  0
 24 26  2  0
 24 27  2  0
 23 28  1  0
 28 29  2  0
 19 30  1  0
 30 31  2  0
 15  2  1  0
 31 17  1  0
 11  6  1  0
 29 20  1  0
  1 32  1  0
  1 33  1  0
  1 34  1  0
  2 35  1  1
  3 36  1  0
  3 37  1  0
  5 38  1  0
  5 39  1  0
  7 40  1  0
  8 41  1  0
  9 42  1  0
 10 43  1  0
 13 44  1  0
 13 45  1  0
 14 46  1  0
 14 47  1  0
 16 48  1  0
 16 49  1  0
 18 50  1  0
 21 51  1  0
 22 52  1  0
 25 53  1  0
 25 54  1  0
 25 55  1  0
 28 56  1  0
 29 57  1  0
 31 58  1  0
M  CHG  1  31   1
M  END
>  <UniqueID>  (34) 
32

>  <SMILES>  (34) 
C[C@@H]1CN(Cc2ccccc2F)CCN1Cc1cn(-c2ccc(S(C)(=O)=O)cc2)n[nH+]1

>  <Energy>  (34) 
113.78761324109719

>  <Genealogy>  (34) 
CC1CN(Cc2ccccc2F)CCN1Cc1cn(-c2ccc(S(C)(=O)=O)cc2)n[nH+]1 (protonated)
C[C@@H]1CN(Cc2ccccc2F)CCN1Cc1cn(-c2ccc(S(C)(=O)=O)cc2)n[nH+]1 (chirality)
C[C@@H]1CN(Cc2ccccc2F)CCN1Cc1cn(-c2ccc(S(C)(=O)=O)cc2)n[nH+]1 (3D coordinates assigned)
C[C@@H]1CN(Cc2ccccc2F)CCN1Cc1cn(-c2ccc(S(C)(=O)=O)cc2)n[nH+]1 (nonaromatic ring conformer: 113.78761324109719 kcal/mol)

>  <smiles>  (34) 
CC1CN(Cc2ccccc2F)CCN1Cc1cn(-c2ccc(S(C)(=O)=O)cc2)nn1

>  <score_type>  (34) 
oracle

>  <origin>  (34) 
adg

>  <m_score__min__energy>  (34) 
-8.2400000000000002

>  <m_primary>  (34) 
energy

$$$$
34:0
     RDKit          3D

 47 50  0  0  0  0  0  0  0  0999 V2000
   58.5170   30.0390   50.9980 C   0  0  0  0  0  0  0  0  0  0  0  0
   59.2950   30.2220   49.8130 O   0  0  0  0  0  0  0  0  0  0  0  0
   59.7220   31.4690   49.3290 C   0  0  0  0  0  0  0  0  0  0  0  0
   59.2590   32.6800   49.8880 C   0  0  0  0  0  0  0  0  0  0  0  0
   59.6690   33.9050   49.3630 C   0  0  0  0  0  0  0  0  0  0  0  0
   60.5510   33.9450   48.2840 C   0  0  0  0  0  0  0  0  0  0  0  0
   61.0480   32.7560   47.7470 C   0  0  0  0  0  0  0  0  0  0  0  0
   60.6330   31.5090   48.2500 C   0  0  0  0  0  0  0  0  0  0  0  0
   61.1850   30.2950   47.6960 N   0  0  0  0  0  0  0  0  0  0  0  0
   60.7020   30.0950   46.3170 C   0  0  0  0  0  0  0  0  0  0  0  0
   59.4550   29.2240   46.3050 C   0  0  0  0  0  0  0  0  0  0  0  0
   58.2310   29.6500   45.7340 C   0  0  0  0  0  0  0  0  0  0  0  0
   57.9760   31.0470   45.3180 C   0  0  0  0  0  0  0  0  0  0  0  0
   57.9790   31.3960   43.9550 C   0  0  0  0  0  0  0  0  0  0  0  0
   57.8260   32.7320   43.5650 C   0  0  0  0  0  0  0  0  0  0  0  0
   57.7090   33.7360   44.5330 C   0  0  0  0  0  0  0  0  0  0  0  0
   57.7320   33.4030   45.8910 C   0  0  0  0  0  0  0  0  0  0  0  0
   57.8720   32.0640   46.2840 C   0  0  0  0  0  0  0  0  0  0  0  0
   57.1880   28.7790   45.6450 N   0  0  0  0  0  0  0  0  0  0  0  0
   57.2560   27.5030   46.0950 C   0  0  0  0  0  0  0  0  0  0  0  0
   56.1400   26.6630   45.9810 C   0  0  0  0  0  0  0  0  0  0  0  0
   56.1970   25.3550   46.4650 C   0  0  0  0  0  0  0  0  0  0  0  0
   57.3660   24.8800   47.0660 C   0  0  0  0  0  0  0  0  0  0  0  0
   58.4850   25.7120   47.1860 C   0  0  0  0  0  0  0  0  0  0  0  0
   58.4420   27.0320   46.6960 C   0  0  0  0  0  0  0  0  0  0  0  0
   59.5440   27.9010   46.7970 C   0  0  0  0  0  0  0  0  0  0  0  0
   60.6050   27.5040   47.3530 O   0  0  0  0  0  0  0  0  0  0  0  0
   59.1544   30.1889   51.8819 H   0  0  0  0  0  0  0  0  0  0  0  0
   57.6933   30.7679   51.0120 H   0  0  0  0  0  0  0  0  0  0  0  0
   58.1046   29.0193   51.0120 H   0  0  0  0  0  0  0  0  0  0  0  0
   58.5693   32.6570   50.7446 H   0  0  0  0  0  0  0  0  0  0  0  0
   59.2956   34.8423   49.8013 H   0  0  0  0  0  0  0  0  0  0  0  0
   60.8548   34.9119   47.8564 H   0  0  0  0  0  0  0  0  0  0  0  0
   61.7729   32.7944   46.9205 H   0  0  0  0  0  0  0  0  0  0  0  0
   62.2310   30.3430   47.6950 H   0  0  0  0  0  0  0  0  0  0  0  0
   60.9100   29.4800   48.2960 H   0  0  0  0  0  0  0  0  0  0  0  0
   60.4639   31.0726   45.8725 H   0  0  0  0  0  0  0  0  0  0  0  0
   61.4895   29.5930   45.7358 H   0  0  0  0  0  0  0  0  0  0  0  0
   58.1023   30.6143   43.1910 H   0  0  0  0  0  0  0  0  0  0  0  0
   57.7977   32.9927   42.4967 H   0  0  0  0  0  0  0  0  0  0  0  0
   57.5990   34.7865   44.2258 H   0  0  0  0  0  0  0  0  0  0  0  0
   57.6402   34.1921   46.6518 H   0  0  0  0  0  0  0  0  0  0  0  0
   57.9006   31.8078   47.3534 H   0  0  0  0  0  0  0  0  0  0  0  0
   55.2183   27.0348   45.5097 H   0  0  0  0  0  0  0  0  0  0  0  0
   55.3203   24.6969   46.3732 H   0  0  0  0  0  0  0  0  0  0  0  0
   57.4067   23.8485   47.4461 H   0  0  0  0  0  0  0  0  0  0  0  0
   59.4007   25.3341   47.6643 H   0  0  0  0  0  0  0  0  0  0  0  0
  1  2  1  0
  2  3  1  0
  3  4  2  0
  4  5  1  0
  5  6  2  0
  6  7  1  0
  7  8  2  0
  8  9  1  0
  9 10  1  0
 10 11  1  0
 11 12  2  0
 12 13  1  0
 13 14  2  0
 14 15  1  0
 15 16  2  0
 16 17  1  0
 17 18  2  0
 12 19  1  0
 19 20  1  0
 20 21  2  0
 21 22  1  0
 22 23  2  0
 23 24  1  0
 24 25  2  0
 25 26  1  0
 26 27  2  0
  8  3  1  0
 26 11  1  0
 18 13  1  0
 25 20  1  0
  1 28  1  0
  1 29  1  0
  1 30  1  0
  4 31  1  0
  5 32  1  0
  6 33  1  0
  7 34  1  0
  9 35  1  0
  9 36  1  0
 10 37  1  0
 10 38  1  0
 14 39  1  0
 15 40  1  0
 16 41  1  0
 17 42  1  0
 18 43  1  0
 21 44  1  0
 22 45  1  0
 23 46  1  0
 24 47  1  0
M  CHG  2   9   1  19  -1
M  END
>  <UniqueID>  (35) 
33

>  <SMILES>  (35) 
COc1ccccc1[NH2+]Cc1c(-c2ccccc2)[n-]c2ccccc2c1=O

>  <Energy>  (35) 
67.12772049228545

>  <Genealogy>  (35) 
COc1ccccc1[NH2+]Cc1c(-c2ccccc2)[n-]c2ccccc2c1=O (protonated)
COc1ccccc1[NH2+]Cc1c(-c2ccccc2)[n-]c2ccccc2c1=O (3D coordinates assigned)
COc1ccccc1[NH2+]Cc1c(-c2ccccc2)[n-]c2ccccc2c1=O (optimized conformer: 67.12772049228545 kcal/mol)

>  <smiles>  (35) 
COc1ccccc1NCc1c(-c2ccccc2)[nH]c2ccccc2c1=O

>  <score_type>  (35) 
oracle

>  <origin>  (35) 
adg

>  <m_score__min__energy>  (35) 
-7.0199999999999996

>  <m_primary>  (35) 
energy

$$$$
35:0
     RDKit          3D

 58 60  0  0  0  0  0  0  0  0999 V2000
   57.1980   32.3610   40.7720 C   0  0  0  0  0  0  0  0  0  0  0  0
   58.1620   32.3360   41.9570 C   0  0  0  0  0  0  0  0  0  0  0  0
   57.4250   32.0360   43.2660 C   0  0  0  0  0  0  0  0  0  0  0  0
   57.4190   33.1870   44.1130 O   0  0  0  0  0  0  0  0  0  0  0  0
   58.1950   33.3490   45.2720 C   0  0  0  0  0  0  0  0  0  0  0  0
   59.4530   33.9810   45.2670 C   0  0  0  0  0  0  0  0  0  0  0  0
   60.1880   34.0990   46.4490 C   0  0  0  0  0  0  0  0  0  0  0  0
   59.6700   33.6250   47.6630 C   0  0  0  0  0  0  0  0  0  0  0  0
   60.6340   33.7110   49.1480 S   0  0  0  0  0  0  0  0  0  0  0  0
   61.5140   34.9290   49.0560 O   0  0  0  0  0  0  0  0  0  0  0  0
   59.6910   33.9440   50.2940 O   0  0  0  0  0  0  0  0  0  0  0  0
   61.6570   32.3110   49.4880 N   0  0  2  0  0  0  0  0  0  0  0  0
   62.5570   32.5550   50.6410 C   0  0  0  0  0  0  0  0  0  0  0  0
   63.6910   33.5600   50.3440 C   0  0  0  0  0  0  0  0  0  0  0  0
   64.1870   33.4740   48.9710 N   0  0  0  0  0  0  0  0  0  0  0  0
   63.5310   32.7230   47.9500 C   0  0  0  0  0  0  0  0  0  0  0  0
   63.9450   32.7970   46.7610 O   0  0  0  0  0  0  0  0  0  0  0  0
   62.4340   31.7720   48.3390 C   0  0  2  0  0  0  0  0  0  0  0  0
   61.5730   31.2970   47.1410 C   0  0  0  0  0  0  0  0  0  0  0  0
   60.6330   30.1700   47.4800 C   0  0  0  0  0  0  0  0  0  0  0  0
   60.5470   29.7660   48.6700 O   0  0  0  0  0  0  0  0  0  0  0  0
   59.7780   29.5970   46.4810 N   0  0  0  0  0  0  0  0  0  0  0  0
   58.3240   29.6750   46.6640 C   0  0  0  0  0  0  0  0  0  0  0  0
   57.6170   29.6230   45.3070 C   0  0  0  0  0  0  0  0  0  0  0  0
   57.9870   28.3550   44.5100 C   0  0  0  0  0  0  0  0  0  0  0  0
   59.4000   27.8200   44.8130 C   0  0  0  0  0  0  0  0  0  0  0  0
   60.3510   28.9110   45.3170 C   0  0  0  0  0  0  0  0  0  0  0  0
   58.4240   32.9780   47.6630 C   0  0  0  0  0  0  0  0  0  0  0  0
   57.6890   32.8560   46.4810 C   0  0  0  0  0  0  0  0  0  0  0  0
   56.1625   32.3879   41.1422 H   0  0  0  0  0  0  0  0  0  0  0  0
   57.3920   33.2544   40.1603 H   0  0  0  0  0  0  0  0  0  0  0  0
   57.3454   31.4587   40.1603 H   0  0  0  0  0  0  0  0  0  0  0  0
   58.9203   31.5578   41.7860 H   0  0  0  0  0  0  0  0  0  0  0  0
   58.6338   33.3260   42.0425 H   0  0  0  0  0  0  0  0  0  0  0  0
   56.3878   31.7480   43.0395 H   0  0  0  0  0  0  0  0  0  0  0  0
   57.9421   31.2155   43.7850 H   0  0  0  0  0  0  0  0  0  0  0  0
   59.8592   34.3839   44.3275 H   0  0  0  0  0  0  0  0  0  0  0  0
   61.1827   34.5682   46.4274 H   0  0  0  0  0  0  0  0  0  0  0  0
   61.0020   31.5560   49.8010 H   0  0  0  0  0  0  0  0  0  0  0  0
   61.9551   32.9473   51.4739 H   0  0  0  0  0  0  0  0  0  0  0  0
   63.0352   31.5945   50.8833 H   0  0  0  0  0  0  0  0  0  0  0  0
   63.3110   34.5778   50.5161 H   0  0  0  0  0  0  0  0  0  0  0  0
   64.5299   33.3158   51.0123 H   0  0  0  0  0  0  0  0  0  0  0  0
   62.9041   30.8415   48.6899 H   0  0  0  0  0  0  0  0  0  0  0  0
   60.9778   32.1494   46.7815 H   0  0  0  0  0  0  0  0  0  0  0  0
   62.2672   30.9177   46.3767 H   0  0  0  0  0  0  0  0  0  0  0  0
   57.9894   28.8279   47.2808 H   0  0  0  0  0  0  0  0  0  0  0  0
   58.0752   30.6236   47.1623 H   0  0  0  0  0  0  0  0  0  0  0  0
   56.5296   29.6335   45.4726 H   0  0  0  0  0  0  0  0  0  0  0  0
   57.9393   30.4974   44.7226 H   0  0  0  0  0  0  0  0  0  0  0  0
   57.2585   27.5676   44.7533 H   0  0  0  0  0  0  0  0  0  0  0  0
   57.9701   28.6298   43.4450 H   0  0  0  0  0  0  0  0  0  0  0  0
   59.3224   27.0379   45.5827 H   0  0  0  0  0  0  0  0  0  0  0  0
   59.8146   27.4267   43.8731 H   0  0  0  0  0  0  0  0  0  0  0  0
   61.3089   28.4520   45.6030 H   0  0  0  0  0  0  0  0  0  0  0  0
   60.5066   29.6455   44.5131 H   0  0  0  0  0  0  0  0  0  0  0  0
   58.0236   32.5642   48.6002 H   0  0  0  0  0  0  0  0  0  0  0  0
   56.7034   32.3680   46.5004 H   0  0  0  0  0  0  0  0  0  0  0  0
  1  2  1  0
  2  3  1  0
  3  4  1  0
  4  5  1  0
  5  6  2  0
  6  7  1  0
  7  8  2  0
  8  9  1  0
  9 10  2  0
  9 11  2  0
  9 12  1  0
 12 13  1  0
 13 14  1  0
 14 15  1  0
 15 16  1  0
 16 17  2  0
 16 18  1  0
 18 19  1  0
 19 20  1  0
 20 21  2  0
 20 22  1  0
 22 23  1  0
 23 24  1  0
 24 25  1  0
 25 26  1  0
 26 27  1  0
  8 28  1  0
 28 29  2  0
 29  5  1  0
 18 12  1  0
 27 22  1  0
  1 30  1  0
  1 31  1  0
  1 32  1  0
  2 33  1  0
  2 34  1  0
  3 35  1  0
  3 36  1  0
  6 37  1  0
  7 38  1  0
 12 39  1  1
 13 40  1  0
 13 41  1  0
 14 42  1  0
 14 43  1  0
 18 44  1  1
 19 45  1  0
 19 46  1  0
 23 47  1  0
 23 48  1  0
 24 49  1  0
 24 50  1  0
 25 51  1  0
 25 52  1  0
 26 53  1  0
 26 54  1  0
 27 55  1  0
 27 56  1  0
 28 57  1  0
 29 58  1  0
M  CHG  2  12   1  15  -1
M  END
>  <UniqueID>  (36) 
34

>  <SMILES>  (36) 
CCCOc1ccc(S(=O)(=O)[N@@H+]2CC[N-]C(=O)[C@@H]2CC(=O)N2CCCCC2)cc1

>  <Energy>  (36) 
69.43430312040819

>  <Genealogy>  (36) 
CCCOc1ccc(S(=O)(=O)[NH+]2CC[N-]C(=O)C2CC(=O)N2CCCCC2)cc1 (protonated)
CCCOc1ccc(S(=O)(=O)[N@@H+]2CC[N-]C(=O)[C@@H]2CC(=O)N2CCCCC2)cc1 (chirality)
CCCOc1ccc(S(=O)(=O)[N@@H+]2CC[N-]C(=O)[C@@H]2CC(=O)N2CCCCC2)cc1 (3D coordinates assigned)
CCCOc1ccc(S(=O)(=O)[N@@H+]2CC[N-]C(=O)[C@@H]2CC(=O)N2CCCCC2)cc1 (nonaromatic ring conformer: 69.43430312040819 kcal/mol)

>  <smiles>  (36) 
CCCOc1ccc(S(=O)(=O)N2CCNC(=O)C2CC(=O)N2CCCCC2)cc1

>  <score_type>  (36) 
oracle

>  <origin>  (36) 
adg

>  <m_score__min__energy>  (36) 
-9.0700000000000003

>  <m_primary>  (36) 
energy

$$$$
36:0
     RDKit          3D

 61 64  0  0  0  0  0  0  0  0999 V2000
   58.5340   34.5510   46.1590 C   0  0  0  0  0  0  0  0  0  0  0  0
   58.9110   33.5930   45.0310 C   0  0  0  0  0  0  0  0  0  0  0  0
   58.5990   32.1970   45.4030 N   0  0  0  0  0  0  0  0  0  0  0  0
   57.5590   31.5990   44.7430 C   0  0  0  0  0  0  0  0  0  0  0  0
   57.1590   30.2860   45.0250 C   0  0  0  0  0  0  0  0  0  0  0  0
   56.0130   29.6970   44.2780 C   0  0  0  0  0  0  0  0  0  0  0  0
   55.1480   28.9930   44.8620 O   0  0  0  0  0  0  0  0  0  0  0  0
   55.8820   29.9130   42.9110 O   0  0  0  0  0  0  0  0  0  0  0  0
   57.8630   29.5660   46.0060 C   0  0  0  0  0  0  0  0  0  0  0  0
   57.5220   28.3840   46.2940 O   0  0  0  0  0  0  0  0  0  0  0  0
   58.9540   30.1600   46.6650 C   0  0  0  0  0  0  0  0  0  0  0  0
   59.6850   29.4430   47.6320 C   0  0  0  0  0  0  0  0  0  0  0  0
   60.7810   30.0170   48.2710 C   0  0  0  0  0  0  0  0  0  0  0  0
   61.4370   29.2980   49.2160 F   0  0  0  0  0  0  0  0  0  0  0  0
   61.1780   31.3250   47.9570 C   0  0  0  0  0  0  0  0  0  0  0  0
   62.3230   31.9220   48.6010 N   0  0  0  0  0  0  0  0  0  0  0  0
   62.3710   32.0510   50.0630 C   0  0  0  0  0  0  0  0  0  0  0  0
   63.8290   32.0480   50.5310 C   0  0  0  0  0  0  0  0  0  0  0  0
   64.6480   33.1200   49.8990 N   0  0  0  0  0  0  0  0  0  0  0  0
   66.0650   32.7140   49.7670 C   0  0  0  0  0  0  0  0  0  0  0  0
   66.5180   31.9210   50.9670 C   0  0  0  0  0  0  0  0  0  0  0  0
   66.6690   32.5520   52.2080 C   0  0  0  0  0  0  0  0  0  0  0  0
   67.0930   31.8250   53.3230 C   0  0  0  0  0  0  0  0  0  0  0  0
   67.3620   30.4480   53.2140 C   0  0  0  0  0  0  0  0  0  0  0  0
   67.7950   29.6850   54.3110 O   0  0  0  0  0  0  0  0  0  0  0  0
   67.0350   28.6450   54.9210 C   0  0  0  0  0  0  0  0  0  0  0  0
   67.1960   29.8040   51.9780 C   0  0  0  0  0  0  0  0  0  0  0  0
   67.4610   28.4270   51.9030 O   0  0  0  0  0  0  0  0  0  0  0  0
   67.8060   27.7350   50.7060 C   0  0  0  0  0  0  0  0  0  0  0  0
   66.7760   30.5450   50.8560 C   0  0  0  0  0  0  0  0  0  0  0  0
   64.1090   33.6190   48.6080 C   0  0  0  0  0  0  0  0  0  0  0  0
   63.3990   32.5240   47.8020 C   0  0  0  0  0  0  0  0  0  0  0  0
   60.4510   32.0500   46.9990 C   0  0  0  0  0  0  0  0  0  0  0  0
   59.3260   31.4920   46.3430 C   0  0  0  0  0  0  0  0  0  0  0  0
   58.7240   34.0682   47.1290 H   0  0  0  0  0  0  0  0  0  0  0  0
   59.1390   35.4663   46.0803 H   0  0  0  0  0  0  0  0  0  0  0  0
   57.4675   34.8085   46.0803 H   0  0  0  0  0  0  0  0  0  0  0  0
   58.3452   33.8604   44.1263 H   0  0  0  0  0  0  0  0  0  0  0  0
   59.9919   33.6754   44.8444 H   0  0  0  0  0  0  0  0  0  0  0  0
   57.0217   32.1660   43.9686 H   0  0  0  0  0  0  0  0  0  0  0  0
   59.3860   28.4153   47.8860 H   0  0  0  0  0  0  0  0  0  0  0  0
   61.8920   32.9946   50.3632 H   0  0  0  0  0  0  0  0  0  0  0  0
   61.8381   31.2053   50.5222 H   0  0  0  0  0  0  0  0  0  0  0  0
   63.8469   32.1908   51.6215 H   0  0  0  0  0  0  0  0  0  0  0  0
   64.2666   31.0833   50.2346 H   0  0  0  0  0  0  0  0  0  0  0  0
   66.1787   32.0957   48.8643 H   0  0  0  0  0  0  0  0  0  0  0  0
   66.6826   33.6214   49.6952 H   0  0  0  0  0  0  0  0  0  0  0  0
   66.4525   33.6261   52.3054 H   0  0  0  0  0  0  0  0  0  0  0  0
   67.2173   32.3317   54.2914 H   0  0  0  0  0  0  0  0  0  0  0  0
   67.1014   28.7358   56.0152 H   0  0  0  0  0  0  0  0  0  0  0  0
   65.9834   28.7282   54.6093 H   0  0  0  0  0  0  0  0  0  0  0  0
   67.4337   27.6683   54.6093 H   0  0  0  0  0  0  0  0  0  0  0  0
   68.2835   26.7773   50.9607 H   0  0  0  0  0  0  0  0  0  0  0  0
   66.8966   27.5460   50.1166 H   0  0  0  0  0  0  0  0  0  0  0  0
   68.5042   28.3475   50.1166 H   0  0  0  0  0  0  0  0  0  0  0  0
   66.6492   30.0422   49.8859 H   0  0  0  0  0  0  0  0  0  0  0  0
   63.3907   34.4261   48.8146 H   0  0  0  0  0  0  0  0  0  0  0  0
   64.9591   33.9759   48.0080 H   0  0  0  0  0  0  0  0  0  0  0  0
   62.9709   32.9644   46.8894 H   0  0  0  0  0  0  0  0  0  0  0  0
   64.1280   31.7442   47.5367 H   0  0  0  0  0  0  0  0  0  0  0  0
   60.7624   33.0757   46.7520 H   0  0  0  0  0  0  0  0  0  0  0  0
  1  2  1  0
  2  3  1  0
  3  4  1  0
  4  5  2  0
  5  6  1  0
  6  7  2  0
  6  8  1  0
  5  9  1  0
  9 10  2  0
  9 11  1  0
 11 12  2  0
 12 13  1  0
 13 14  1  0
 13 15  2  0
 15 16  1  0
 16 17  1  0
 17 18  1  0
 18 19  1  0
 19 20  1  0
 20 21  1  0
 21 22  2  0
 22 23  1  0
 23 24  2  0
 24 25  1  0
 25 26  1  0
 24 27  1  0
 27 28  1  0
 28 29  1  0
 27 30  2  0
 19 31  1  0
 31 32  1  0
 15 33  1  0
 33 34  2  0
 34  3  1  0
 34 11  1  0
 32 16  1  0
 30 21  1  0
  1 35  1  0
  1 36  1  0
  1 37  1  0
  2 38  1  0
  2 39  1  0
  4 40  1  0
 12 41  1  0
 17 42  1  0
 17 43  1  0
 18 44  1  0
 18 45  1  0
 20 46  1  0
 20 47  1  0
 22 48  1  0
 23 49  1  0
 26 50  1  0
 26 51  1  0
 26 52  1  0
 29 53  1  0
 29 54  1  0
 29 55  1  0
 30 56  1  0
 31 57  1  0
 31 58  1  0
 32 59  1  0
 32 60  1  0
 33 61  1  0
M  CHG  1   8  -1
M  END
>  <UniqueID>  (37) 
35

>  <SMILES>  (37) 
CCn1cc(C(=O)[O-])c(=O)c2cc(F)c(N3CCN(Cc4ccc(OC)c(OC)c4)CC3)cc21

>  <Energy>  (37) 
84.79111117318027

>  <Genealogy>  (37) 
CCn1cc(C(=O)[O-])c(=O)c2cc(F)c(N3CCN(Cc4ccc(OC)c(OC)c4)CC3)cc21 (protonated)
CCn1cc(C(=O)[O-])c(=O)c2cc(F)c(N3CCN(Cc4ccc(OC)c(OC)c4)CC3)cc21 (3D coordinates assigned)
CCn1cc(C(=O)[O-])c(=O)c2cc(F)c(N3CCN(Cc4ccc(OC)c(OC)c4)CC3)cc21 (nonaromatic ring conformer: 84.79111117318027 kcal/mol)

>  <smiles>  (37) 
CCn1cc(C(=O)O)c(=O)c2cc(F)c(N3CCN(Cc4ccc(OC)c(OC)c4)CC3)cc21

>  <score_type>  (37) 
oracle

>  <origin>  (37) 
adg

>  <m_score__min__energy>  (37) 
-10.199999999999999

>  <m_primary>  (37) 
energy

$$$$
37:0
     RDKit          3D

 38 39  0  0  0  0  0  0  0  0999 V2000
   55.5200   29.7000   44.9140 N   0  0  0  0  0  0  0  0  0  0  0  0
   55.9490   29.5070   43.5330 C   0  0  0  0  0  0  0  0  0  0  0  0
   56.5140   30.8140   42.9680 C   0  0  0  0  0  0  0  0  0  0  0  0
   57.7250   31.3180   43.7660 C   0  0  0  0  0  0  0  0  0  0  0  0
   57.4260   31.3760   45.2240 N   0  0  0  0  0  0  0  0  0  0  0  0
   57.0470   32.7460   45.6390 C   0  0  0  0  0  0  0  0  0  0  0  0
   58.1790   33.4010   46.3870 C   0  0  0  0  0  0  0  0  0  0  0  0
   59.1740   34.0990   45.6830 C   0  0  0  0  0  0  0  0  0  0  0  0
   60.2440   34.6830   46.3670 C   0  0  0  0  0  0  0  0  0  0  0  0
   60.3270   34.5770   47.7580 C   0  0  0  0  0  0  0  0  0  0  0  0
   59.3380   33.8890   48.4670 C   0  0  0  0  0  0  0  0  0  0  0  0
   58.2660   33.3030   47.7860 C   0  0  0  0  0  0  0  0  0  0  0  0
   58.5660   30.8980   46.0380 C   0  0  0  0  0  0  0  0  0  0  0  0
   58.6970   29.4090   45.9600 C   0  0  0  0  0  0  0  0  0  0  0  0
   59.2460   28.6910   44.9050 C   0  0  0  0  0  0  0  0  0  0  0  0
   59.1900   27.3060   45.0960 C   0  0  0  0  0  0  0  0  0  0  0  0
   58.5960   26.9320   46.2950 C   0  0  0  0  0  0  0  0  0  0  0  0
   58.1370   28.3260   47.1170 S   0  0  0  0  0  0  0  0  0  0  0  0
   55.3080   30.7140   45.0510 H   0  0  0  0  0  0  0  0  0  0  0  0
   56.3340   29.4800   45.5330 H   0  0  0  0  0  0  0  0  0  0  0  0
   56.7269   28.7300   43.4992 H   0  0  0  0  0  0  0  0  0  0  0  0
   55.0839   29.1982   42.9278 H   0  0  0  0  0  0  0  0  0  0  0  0
   56.8226   30.6448   41.9258 H   0  0  0  0  0  0  0  0  0  0  0  0
   55.7255   31.5781   43.0342 H   0  0  0  0  0  0  0  0  0  0  0  0
   58.5721   30.6360   43.6008 H   0  0  0  0  0  0  0  0  0  0  0  0
   57.9700   32.3334   43.4211 H   0  0  0  0  0  0  0  0  0  0  0  0
   56.8098   33.3426   44.7458 H   0  0  0  0  0  0  0  0  0  0  0  0
   56.1693   32.6884   46.2996 H   0  0  0  0  0  0  0  0  0  0  0  0
   59.1109   34.1865   44.5883 H   0  0  0  0  0  0  0  0  0  0  0  0
   61.0214   35.2265   45.8099 H   0  0  0  0  0  0  0  0  0  0  0  0
   61.1707   35.0350   48.2951 H   0  0  0  0  0  0  0  0  0  0  0  0
   59.4029   33.8084   49.5621 H   0  0  0  0  0  0  0  0  0  0  0  0
   57.4887   32.7638   48.3473 H   0  0  0  0  0  0  0  0  0  0  0  0
   59.4921   31.3601   45.6655 H   0  0  0  0  0  0  0  0  0  0  0  0
   58.3885   31.1786   47.0867 H   0  0  0  0  0  0  0  0  0  0  0  0
   59.6802   29.1629   44.0112 H   0  0  0  0  0  0  0  0  0  0  0  0
   59.5796   26.5815   44.3657 H   0  0  0  0  0  0  0  0  0  0  0  0
   58.4506   25.9000   46.6469 H   0  0  0  0  0  0  0  0  0  0  0  0
  1  2  1  0
  2  3  1  0
  3  4  1  0
  4  5  1  0
  5  6  1  0
  6  7  1  0
  7  8  2  0
  8  9  1  0
  9 10  2  0
 10 11  1  0
 11 12  2  0
  5 13  1  0
 13 14  1  0
 14 15  2  0
 15 16  1  0
 16 17  2  0
 17 18  1  0
 12  7  1  0
 18 14  1  0
  1 19  1  0
  1 20  1  0
  2 21  1  0
  2 22  1  0
  3 23  1  0
  3 24  1  0
  4 25  1  0
  4 26  1  0
  6 27  1  0
  6 28  1  0
  8 29  1  0
  9 30  1  0
 10 31  1  0
 11 32  1  0
 12 33  1  0
 13 34  1  0
 13 35  1  0
 15 36  1  0
 16 37  1  0
 17 38  1  0
M  END
>  <UniqueID>  (38) 
36

>  <SMILES>  (38) 
NCCCN(Cc1ccccc1)Cc1cccs1

>  <Energy>  (38) 
59.104565807642444

>  <Genealogy>  (38) 
NCCCN(Cc1ccccc1)Cc1cccs1 (3D coordinates assigned)
NCCCN(Cc1ccccc1)Cc1cccs1 (optimized conformer: 59.104565807642444 kcal/mol)

>  <smiles>  (38) 
NCCCN(Cc1ccccc1)Cc1cccs1

>  <score_type>  (38) 
oracle

>  <origin>  (38) 
adg

>  <m_score__min__energy>  (38) 
-6.8700000000000001

>  <m_primary>  (38) 
energy

$$$$
38:0
     RDKit          3D

 41 43  0  0  0  0  0  0  0  0999 V2000
   56.2630   20.1440   43.8930 C   0  0  0  0  0  0  0  0  0  0  0  0
   56.6060   21.5010   42.7320 S   0  0  0  0  0  0  0  0  0  0  0  0
   57.7470   22.3160   43.8480 C   0  0  0  0  0  0  0  0  0  0  0  0
   57.5860   23.6360   44.1250 N   0  0  0  0  0  0  0  0  0  0  0  0
   58.4320   24.2960   44.9620 C   0  0  0  0  0  0  0  0  0  0  0  0
   58.2150   25.6960   45.2350 N   0  0  0  0  0  0  0  0  0  0  0  0
   56.9770   26.0930   45.9240 C   0  0  0  0  0  0  0  0  0  0  0  0
   57.0360   27.5490   46.3890 C   0  0  0  0  0  0  0  0  0  0  0  0
   57.4600   28.4080   45.2800 N   0  0  0  0  0  0  0  0  0  0  0  0
   56.6720   29.5570   44.9210 C   0  0  0  0  0  0  0  0  0  0  0  0
   55.4180   29.4450   44.8390 O   0  0  0  0  0  0  0  0  0  0  0  0
   57.3030   30.8670   44.6460 C   0  0  0  0  0  0  0  0  0  0  0  0
   57.8140   31.6440   45.7000 C   0  0  0  0  0  0  0  0  0  0  0  0
   58.4250   32.8750   45.4400 C   0  0  0  0  0  0  0  0  0  0  0  0
   58.5410   33.3350   44.1260 C   0  0  0  0  0  0  0  0  0  0  0  0
   58.0500   32.5640   43.0700 C   0  0  0  0  0  0  0  0  0  0  0  0
   57.4390   31.3320   43.3250 C   0  0  0  0  0  0  0  0  0  0  0  0
   58.5850   28.0060   44.4230 C   0  0  0  0  0  0  0  0  0  0  0  0
   59.2370   26.7050   44.9090 C   0  0  0  0  0  0  0  0  0  0  0  0
   59.4800   23.5850   45.5660 C   0  0  0  0  0  0  0  0  0  0  0  0
   59.6290   22.2300   45.2710 C   0  0  0  0  0  0  0  0  0  0  0  0
   58.7660   21.6190   44.4180 N   0  0  0  0  0  0  0  0  0  0  0  0
   56.3561   20.5123   44.9253 H   0  0  0  0  0  0  0  0  0  0  0  0
   55.2420   19.7695   43.7280 H   0  0  0  0  0  0  0  0  0  0  0  0
   56.9835   19.3293   43.7280 H   0  0  0  0  0  0  0  0  0  0  0  0
   56.1293   25.9725   45.2334 H   0  0  0  0  0  0  0  0  0  0  0  0
   56.8547   25.4526   46.8100 H   0  0  0  0  0  0  0  0  0  0  0  0
   56.0396   27.8629   46.7336 H   0  0  0  0  0  0  0  0  0  0  0  0
   57.7586   27.6377   47.2136 H   0  0  0  0  0  0  0  0  0  0  0  0
   57.7329   31.2818   46.7355 H   0  0  0  0  0  0  0  0  0  0  0  0
   58.8145   33.4815   46.2709 H   0  0  0  0  0  0  0  0  0  0  0  0
   59.0191   34.3046   43.9230 H   0  0  0  0  0  0  0  0  0  0  0  0
   58.1440   32.9264   42.0357 H   0  0  0  0  0  0  0  0  0  0  0  0
   57.0631   30.7238   42.4890 H   0  0  0  0  0  0  0  0  0  0  0  0
   58.2157   27.8574   43.3976 H   0  0  0  0  0  0  0  0  0  0  0  0
   59.3433   28.8021   44.4595 H   0  0  0  0  0  0  0  0  0  0  0  0
   59.8914   26.3121   44.1169 H   0  0  0  0  0  0  0  0  0  0  0  0
   59.8200   26.9212   45.8164 H   0  0  0  0  0  0  0  0  0  0  0  0
   60.1711   24.0868   46.2592 H   0  0  0  0  0  0  0  0  0  0  0  0
   60.4468   21.6550   45.7298 H   0  0  0  0  0  0  0  0  0  0  0  0
   58.8880   20.6030   44.2050 H   0  0  0  0  0  0  0  0  0  0  0  0
  1  2  1  0
  2  3  1  0
  3  4  2  0
  4  5  1  0
  5  6  1  0
  6  7  1  0
  7  8  1  0
  8  9  1  0
  9 10  1  0
 10 11  2  0
 10 12  1  0
 12 13  2  0
 13 14  1  0
 14 15  2  0
 15 16  1  0
 16 17  2  0
  9 18  1  0
 18 19  1  0
  5 20  2  0
 20 21  1  0
 21 22  2  0
 22  3  1  0
 19  6  1  0
 17 12  1  0
  1 23  1  0
  1 24  1  0
  1 25  1  0
  7 26  1  0
  7 27  1  0
  8 28  1  0
  8 29  1  0
 13 30  1  0
 14 31  1  0
 15 32  1  0
 16 33  1  0
 17 34  1  0
 18 35  1  0
 18 36  1  0
 19 37  1  0
 19 38  1  0
 20 39  1  0
 21 40  1  0
 22 41  1  0
M  CHG  1  22   1
M  END
>  <UniqueID>  (39) 
37

>  <SMILES>  (39) 
CSc1nc(N2CCN(C(=O)c3ccccc3)CC2)cc[nH+]1

>  <Energy>  (39) 
46.560471696615224

>  <Genealogy>  (39) 
CSc1nc(N2CCN(C(=O)c3ccccc3)CC2)cc[nH+]1 (protonated)
CSc1nc(N2CCN(C(=O)c3ccccc3)CC2)cc[nH+]1 (3D coordinates assigned)
CSc1nc(N2CCN(C(=O)c3ccccc3)CC2)cc[nH+]1 (nonaromatic ring conformer: 46.560471696615224 kcal/mol)

>  <smiles>  (39) 
CSc1nccc(N2CCN(C(=O)c3ccccc3)CC2)n1

>  <score_type>  (39) 
oracle

>  <origin>  (39) 
adg

>  <m_score__min__energy>  (39) 
-5.9199999999999999

>  <m_primary>  (39) 
energy

$$$$
39:0
     RDKit          3D

 40 42  0  0  0  0  0  0  0  0999 V2000
   59.2780   33.1160   50.9210 C   0  0  0  0  0  0  0  0  0  0  0  0
   59.7010   33.8450   49.7730 O   0  0  0  0  0  0  0  0  0  0  0  0
   59.3720   33.5000   48.4540 C   0  0  0  0  0  0  0  0  0  0  0  0
   59.8580   34.2070   47.3400 C   0  0  0  0  0  0  0  0  0  0  0  0
   59.4950   33.8140   46.0520 C   0  0  0  0  0  0  0  0  0  0  0  0
   58.6590   32.7010   45.8770 C   0  0  0  0  0  0  0  0  0  0  0  0
   58.2560   32.2740   44.5650 N   0  0  0  0  0  0  0  0  0  0  0  0
   58.0840   33.0910   43.5060 C   0  0  0  0  0  0  0  0  0  0  0  0
   57.7820   32.3210   42.4030 C   0  0  0  0  0  0  0  0  0  0  0  0
   57.7580   31.0280   42.7740 N   0  0  0  0  0  0  0  0  0  0  0  0
   58.0360   31.0210   44.0940 C   0  0  0  0  0  0  0  0  0  0  0  0
   57.9960   29.7880   44.9120 C   0  0  0  0  0  0  0  0  0  0  0  0
   59.0820   29.4310   45.7250 C   0  0  0  0  0  0  0  0  0  0  0  0
   59.0420   28.2560   46.4910 C   0  0  0  0  0  0  0  0  0  0  0  0
   60.2000   27.8950   47.3720 C   0  0  0  0  0  0  0  0  0  0  0  0
   57.8860   27.4630   46.4800 C   0  0  0  0  0  0  0  0  0  0  0  0
   56.7800   27.8230   45.6860 C   0  0  0  0  0  0  0  0  0  0  0  0
   55.6050   27.0580   45.6420 O   0  0  0  0  0  0  0  0  0  0  0  0
   55.5670   25.6370   45.6950 C   0  0  0  0  0  0  0  0  0  0  0  0
   56.8450   28.9850   44.9100 C   0  0  0  0  0  0  0  0  0  0  0  0
   58.1840   32.0450   46.9720 N   0  0  0  0  0  0  0  0  0  0  0  0
   58.5200   32.4130   48.2360 C   0  0  0  0  0  0  0  0  0  0  0  0
   59.5887   33.6514   51.8303 H   0  0  0  0  0  0  0  0  0  0  0  0
   58.1825   33.0175   50.9097 H   0  0  0  0  0  0  0  0  0  0  0  0
   59.7362   32.1160   50.9097 H   0  0  0  0  0  0  0  0  0  0  0  0
   60.5245   35.0701   47.4844 H   0  0  0  0  0  0  0  0  0  0  0  0
   59.8619   34.3733   45.1787 H   0  0  0  0  0  0  0  0  0  0  0  0
   58.1702   34.1875   43.5199 H   0  0  0  0  0  0  0  0  0  0  0  0
   57.5922   32.7007   41.3882 H   0  0  0  0  0  0  0  0  0  0  0  0
   57.5270   30.2100   42.1680 H   0  0  0  0  0  0  0  0  0  0  0  0
   59.9716   30.0770   45.7623 H   0  0  0  0  0  0  0  0  0  0  0  0
   59.9014   27.9881   48.4266 H   0  0  0  0  0  0  0  0  0  0  0  0
   60.5068   26.8586   47.1679 H   0  0  0  0  0  0  0  0  0  0  0  0
   61.0415   28.5735   47.1679 H   0  0  0  0  0  0  0  0  0  0  0  0
   57.8425   26.5528   47.0961 H   0  0  0  0  0  0  0  0  0  0  0  0
   55.5582   25.3093   46.7450 H   0  0  0  0  0  0  0  0  0  0  0  0
   54.6589   25.2754   45.1905 H   0  0  0  0  0  0  0  0  0  0  0  0
   56.4545   25.2274   45.1905 H   0  0  0  0  0  0  0  0  0  0  0  0
   55.9830   29.2731   44.2903 H   0  0  0  0  0  0  0  0  0  0  0  0
   58.1192   31.8522   49.0933 H   0  0  0  0  0  0  0  0  0  0  0  0
  1  2  1  0
  2  3  1  0
  3  4  2  0
  4  5  1  0
  5  6  2  0
  6  7  1  0
  7  8  1  0
  8  9  2  0
  9 10  1  0
 10 11  2  0
 11 12  1  0
 12 13  2  0
 13 14  1  0
 14 15  1  0
 14 16  2  0
 16 17  1  0
 17 18  1  0
 18 19  1  0
 17 20  2  0
  6 21  1  0
 21 22  2  0
 22  3  1  0
 11  7  1  0
 20 12  1  0
  1 23  1  0
  1 24  1  0
  1 25  1  0
  4 26  1  0
  5 27  1  0
  8 28  1  0
  9 29  1  0
 10 30  1  0
 13 31  1  0
 15 32  1  0
 15 33  1  0
 15 34  1  0
 16 35  1  0
 19 36  1  0
 19 37  1  0
 19 38  1  0
 20 39  1  0
 22 40  1  0
M  CHG  1  10   1
M  END
>  <UniqueID>  (40) 
38

>  <SMILES>  (40) 
COc1ccc(-n2cc[nH+]c2-c2cc(C)cc(OC)c2)nc1

>  <Energy>  (40) 
79.46912026019555

>  <Genealogy>  (40) 
COc1ccc(-n2cc[nH+]c2-c2cc(C)cc(OC)c2)nc1 (protonated)
COc1ccc(-n2cc[nH+]c2-c2cc(C)cc(OC)c2)nc1 (3D coordinates assigned)
COc1ccc(-n2cc[nH+]c2-c2cc(C)cc(OC)c2)nc1 (optimized conformer: 79.46912026019555 kcal/mol)

>  <smiles>  (40) 
COc1ccc(-n2ccnc2-c2cc(C)cc(OC)c2)nc1

>  <score_type>  (40) 
oracle

>  <origin>  (40) 
adg

>  <m_score__min__energy>  (40) 
-5.29

>  <m_primary>  (40) 
energy

$$$$
40:0
     RDKit          3D

 44 46  0  0  0  0  0  0  0  0999 V2000
   57.7371   23.4874   42.8971 H   0  0  0  0  0  0  0  0  0  0  0  0
   56.9460   23.5470   43.6590 C   0  0  0  0  0  0  0  0  0  0  0  0
   56.7450   24.7370   44.3660 C   0  0  0  0  0  0  0  0  0  0  0  0
   57.3683   25.6163   44.1464 H   0  0  0  0  0  0  0  0  0  0  0  0
   55.7530   24.8140   45.3530 C   0  0  0  0  0  0  0  0  0  0  0  0
   55.5300   26.0630   46.0260 N   0  0  0  0  0  0  0  0  0  0  0  0
   56.3390   27.0840   46.0990 C   0  0  0  0  0  0  0  0  0  0  0  0
   56.1770   28.0980   45.2100 N   0  0  0  0  0  0  0  0  0  0  0  0
   56.9760   29.1970   45.1990 C   0  0  0  0  0  0  0  0  0  0  0  0
   56.6970   30.2980   44.2150 C   0  0  0  0  0  0  0  0  0  0  0  0
   55.7455   30.0916   43.7031 H   0  0  0  0  0  0  0  0  0  0  0  0
   57.5217   30.3387   43.4882 H   0  0  0  0  0  0  0  0  0  0  0  0
   56.6090   31.5470   44.8710 O   0  0  0  0  0  0  0  0  0  0  0  0
   57.7160   32.3790   44.5670 C   0  0  0  0  0  0  0  0  0  0  0  0
   57.6749   32.6712   43.5073 H   0  0  0  0  0  0  0  0  0  0  0  0
   58.6501   31.8313   44.7607 H   0  0  0  0  0  0  0  0  0  0  0  0
   57.6690   33.6270   45.4400 C   0  0  0  0  0  0  0  0  0  0  0  0
   57.6801   33.3336   46.5001 H   0  0  0  0  0  0  0  0  0  0  0  0
   58.5440   34.2580   45.2251 H   0  0  0  0  0  0  0  0  0  0  0  0
   56.7490   34.1904   45.2251 H   0  0  0  0  0  0  0  0  0  0  0  0
   58.0090   29.3130   46.1360 C   0  0  0  0  0  0  0  0  0  0  0  0
   58.6472   30.2089   46.1429 H   0  0  0  0  0  0  0  0  0  0  0  0
   58.2310   28.2850   47.0680 C   0  0  0  0  0  0  0  0  0  0  0  0
   59.3010   28.3840   48.0370 N   0  0  0  0  0  0  0  0  0  0  0  0
   59.7740   29.6390   48.6020 C   0  0  0  0  0  0  0  0  0  0  0  0
   60.0508   30.3392   47.8001 H   0  0  0  0  0  0  0  0  0  0  0  0
   58.9960   30.1280   49.2067 H   0  0  0  0  0  0  0  0  0  0  0  0
   60.9940   29.2860   49.4410 C   0  0  0  0  0  0  0  0  0  0  0  0
   61.9177   29.5341   48.8977 H   0  0  0  0  0  0  0  0  0  0  0  0
   61.0134   29.8493   50.3856 H   0  0  0  0  0  0  0  0  0  0  0  0
   60.9080   27.7850   49.6840 C   0  0  0  0  0  0  0  0  0  0  0  0
   61.9085   27.3306   49.6337 H   0  0  0  0  0  0  0  0  0  0  0  0
   60.4996   27.5582   50.6799 H   0  0  0  0  0  0  0  0  0  0  0  0
   60.0200   27.2370   48.5750 C   0  0  0  0  0  0  0  0  0  0  0  0
   60.6324   26.7671   47.7913 H   0  0  0  0  0  0  0  0  0  0  0  0
   59.3299   26.4681   48.9525 H   0  0  0  0  0  0  0  0  0  0  0  0
   57.3910   27.1570   47.0360 C   0  0  0  0  0  0  0  0  0  0  0  0
   57.5548   26.3303   47.7430 H   0  0  0  0  0  0  0  0  0  0  0  0
   54.9240   23.7020   45.5850 C   0  0  0  0  0  0  0  0  0  0  0  0
   54.1127   23.7682   46.3249 H   0  0  0  0  0  0  0  0  0  0  0  0
   55.1270   22.5130   44.8790 C   0  0  0  0  0  0  0  0  0  0  0  0
   54.4883   21.6398   45.0776 H   0  0  0  0  0  0  0  0  0  0  0  0
   56.1420   22.4330   43.9200 C   0  0  0  0  0  0  0  0  0  0  0  0
   56.3360   21.2800   43.2320 F   0  0  0  0  0  0  0  0  0  0  0  0
  1  2  1  0
  2  3  2  0
  3  4  1  0
  3  5  1  0
  5  6  1  0
  6  7  2  0
  7  8  1  0
  8  9  1  0
  9 10  1  0
 10 11  1  0
 10 12  1  0
 10 13  1  0
 13 14  1  0
 14 15  1  0
 14 16  1  0
 14 17  1  0
 17 18  1  0
 17 19  1  0
 17 20  1  0
  9 21  2  0
 21 22  1  0
 21 23  1  0
 23 24  1  0
 24 25  1  0
 25 26  1  0
 25 27  1  0
 25 28  1  0
 28 29  1  0
 28 30  1  0
 28 31  1  0
 31 32  1  0
 31 33  1  0
 31 34  1  0
 34 35  1  0
 34 36  1  0
 23 37  2  0
 37 38  1  0
  5 39  2  0
 39 40  1  0
 39 41  1  0
 41 42  1  0
 41 43  2  0
 43 44  1  0
 43  2  1  0
 37  7  1  0
 34 24  1  0
M  CHG  1   8  -1
M  END
>  <UniqueID>  (41) 
39

>  <SMILES>  (41) 
CCOCc1cc(N2CCCC2)c/c(=N\c2ccc(F)cc2)[n-]1

>  <Energy>  (41) 
55.85479765966542

>  <Genealogy>  (41) 
CCOCc1cc(N2CCCC2)cc(=Nc2ccc(F)cc2)[n-]1 (protonated)
CCOCc1cc(N2CCCC2)c/c(=N\c2ccc(F)cc2)[n-]1 (cis-trans isomerization)
CCOCc1cc(N2CCCC2)c/c(=N\c2ccc(F)cc2)[n-]1 (3D coordinates assigned)
CCOCc1cc(N2CCCC2)c/c(=N\c2ccc(F)cc2)[n-]1 (nonaromatic ring conformer: 55.85479765966542 kcal/mol)

>  <smiles>  (41) 
CCOCc1cc(N2CCCC2)cc(=Nc2ccc(F)cc2)[nH]1

>  <score_type>  (41) 
oracle

>  <origin>  (41) 
adg

>  <m_score__min__energy>  (41) 
-8.3800000000000008

>  <m_primary>  (41) 
energy

$$$$
41:0
     RDKit          3D

 29 30  0  0  0  0  0  0  0  0999 V2000
   55.5290   29.7820   44.1670 C   0  0  0  0  0  0  0  0  0  0  0  0
   56.2720   29.9990   42.8540 C   0  0  0  0  0  0  0  0  0  0  0  0
   57.3780   30.9450   43.0410 N   0  0  0  0  0  0  0  0  0  0  0  0
   57.6950   31.9530   42.0310 C   0  0  0  0  0  0  0  0  0  0  0  0
   58.1910   30.8700   44.2230 C   0  0  0  0  0  0  0  0  0  0  0  0
   58.9140   29.7000   44.4870 C   0  0  0  0  0  0  0  0  0  0  0  0
   59.6790   29.5970   45.6060 N   0  0  0  0  0  0  0  0  0  0  0  0
   59.7740   30.6150   46.5020 C   0  0  0  0  0  0  0  0  0  0  0  0
   59.0830   31.8140   46.2840 C   0  0  0  0  0  0  0  0  0  0  0  0
   59.1840   32.8740   47.1980 C   0  0  0  0  0  0  0  0  0  0  0  0
   58.4980   34.0690   46.9620 C   0  0  0  0  0  0  0  0  0  0  0  0
   57.7140   34.2140   45.8170 C   0  0  0  0  0  0  0  0  0  0  0  0
   57.6040   33.1640   44.9000 C   0  0  0  0  0  0  0  0  0  0  0  0
   58.2800   31.9500   45.1260 C   0  0  0  0  0  0  0  0  0  0  0  0
   56.2078   29.9803   45.0095 H   0  0  0  0  0  0  0  0  0  0  0  0
   54.6697   30.4667   44.2195 H   0  0  0  0  0  0  0  0  0  0  0  0
   55.1733   28.7424   44.2195 H   0  0  0  0  0  0  0  0  0  0  0  0
   56.6735   29.0374   42.5018 H   0  0  0  0  0  0  0  0  0  0  0  0
   55.5720   30.4114   42.1125 H   0  0  0  0  0  0  0  0  0  0  0  0
   57.9895   32.8894   42.5274 H   0  0  0  0  0  0  0  0  0  0  0  0
   58.5238   31.5946   41.4028 H   0  0  0  0  0  0  0  0  0  0  0  0
   56.8103   32.1335   41.4028 H   0  0  0  0  0  0  0  0  0  0  0  0
   58.8624   28.8568   43.7825 H   0  0  0  0  0  0  0  0  0  0  0  0
   60.2050   28.7110   45.7830 H   0  0  0  0  0  0  0  0  0  0  0  0
   60.3958   30.4968   47.4016 H   0  0  0  0  0  0  0  0  0  0  0  0
   59.8032   32.7646   48.1006 H   0  0  0  0  0  0  0  0  0  0  0  0
   58.5766   34.8976   47.6813 H   0  0  0  0  0  0  0  0  0  0  0  0
   57.1801   35.1583   45.6348 H   0  0  0  0  0  0  0  0  0  0  0  0
   56.9865   33.2872   43.9980 H   0  0  0  0  0  0  0  0  0  0  0  0
  1  2  1  0
  2  3  1  0
  3  4  1  0
  3  5  1  0
  5  6  2  0
  6  7  1  0
  7  8  2  0
  8  9  1  0
  9 10  2  0
 10 11  1  0
 11 12  2  0
 12 13  1  0
 13 14  2  0
 14  5  1  0
 14  9  1  0
  1 15  1  0
  1 16  1  0
  1 17  1  0
  2 18  1  0
  2 19  1  0
  4 20  1  0
  4 21  1  0
  4 22  1  0
  6 23  1  0
  7 24  1  0
  8 25  1  0
 10 26  1  0
 11 27  1  0
 12 28  1  0
 13 29  1  0
M  CHG  1   7   1
M  END
>  <UniqueID>  (42) 
40

>  <SMILES>  (42) 
CCN(C)c1c[nH+]cc2ccccc12

>  <Energy>  (42) 
33.908246024586035

>  <Genealogy>  (42) 
CCN(C)c1c[nH+]cc2ccccc12 (protonated)
CCN(C)c1c[nH+]cc2ccccc12 (3D coordinates assigned)
CCN(C)c1c[nH+]cc2ccccc12 (optimized conformer: 33.908246024586035 kcal/mol)

>  <smiles>  (42) 
CCN(C)c1cncc2ccccc12

>  <score_type>  (42) 
oracle

>  <origin>  (42) 
adg

>  <m_score__min__energy>  (42) 
-3.77

>  <m_primary>  (42) 
energy

$$$$
42:0
     RDKit          3D

 47 49  0  0  1  0  0  0  0  0999 V2000
   56.7500   30.6520   43.8990 C   0  0  0  0  0  0  0  0  0  0  0  0
   57.0050   31.0870   45.2180 O   0  0  0  0  0  0  0  0  0  0  0  0
   57.7830   32.2270   45.3820 C   0  0  0  0  0  0  0  0  0  0  0  0
   57.4010   33.4630   44.8550 C   0  0  0  0  0  0  0  0  0  0  0  0
   58.1780   34.5910   45.0210 C   0  0  0  0  0  0  0  0  0  0  0  0
   59.3790   34.5140   45.7310 C   0  0  0  0  0  0  0  0  0  0  0  0
   59.7560   33.3090   46.2460 C   0  0  0  0  0  0  0  0  0  0  0  0
   58.9720   32.1700   46.0780 C   0  0  0  0  0  0  0  0  0  0  0  0
   59.4810   30.9220   46.6790 C   0  0  0  0  0  0  0  0  0  0  0  0
   58.8910   29.7200   46.1200 N   0  0  0  0  0  0  0  0  0  0  0  0
   59.6880   29.1530   45.0720 C   0  0  0  0  0  0  0  0  0  0  0  0
   59.5320   27.6990   44.8630 C   0  0  0  0  0  0  0  0  0  0  0  0
   58.4810   27.0520   45.6060 N   0  0  0  0  0  0  0  0  0  0  0  0
   58.1300   25.7260   45.2170 C   0  0  0  0  0  0  0  0  0  0  0  0
   57.4030   25.4780   44.0470 C   0  0  0  0  0  0  0  0  0  0  0  0
   57.0660   24.1670   43.6850 C   0  0  0  0  0  0  0  0  0  0  0  0
   57.4480   23.1080   44.4760 C   0  0  0  0  0  0  0  0  0  0  0  0
   57.1520   21.7170   44.1940 C   0  0  0  0  0  0  0  0  0  0  0  0
   57.7750   20.7410   44.9950 O   0  0  0  0  0  0  0  0  0  0  0  0
   56.3790   21.2810   43.2880 N   0  0  0  0  0  0  0  0  0  0  0  0
   56.1450   19.9840   43.0090 O   0  0  0  0  0  0  0  0  0  0  0  0
   58.1600   23.4190   45.6080 C   0  0  0  0  0  0  0  0  0  0  0  0
   58.4730   24.6740   45.9400 N   0  0  0  0  0  0  0  0  0  0  0  0
   57.7660   27.6440   46.7070 C   0  0  0  0  0  0  0  0  0  0  0  0
   58.5980   28.8090   47.1910 C   0  0  0  0  0  0  0  0  0  0  0  0
   56.1939   29.7033   43.9268 H   0  0  0  0  0  0  0  0  0  0  0  0
   56.1539   31.4111   43.3713 H   0  0  0  0  0  0  0  0  0  0  0  0
   57.7036   30.5027   43.3713 H   0  0  0  0  0  0  0  0  0  0  0  0
   56.4578   33.5388   44.2940 H   0  0  0  0  0  0  0  0  0  0  0  0
   57.8520   35.5510   44.5944 H   0  0  0  0  0  0  0  0  0  0  0  0
   60.0068   35.4062   45.8715 H   0  0  0  0  0  0  0  0  0  0  0  0
   60.6997   33.2348   46.8063 H   0  0  0  0  0  0  0  0  0  0  0  0
   60.5689   30.8798   46.5218 H   0  0  0  0  0  0  0  0  0  0  0  0
   59.2104   30.9460   47.7449 H   0  0  0  0  0  0  0  0  0  0  0  0
   59.4213   29.6598   44.1329 H   0  0  0  0  0  0  0  0  0  0  0  0
   60.7342   29.3011   45.3777 H   0  0  0  0  0  0  0  0  0  0  0  0
   59.3353   27.5343   43.7933 H   0  0  0  0  0  0  0  0  0  0  0  0
   60.4668   27.2502   45.2300 H   0  0  0  0  0  0  0  0  0  0  0  0
   57.0941   26.3179   43.4074 H   0  0  0  0  0  0  0  0  0  0  0  0
   56.4933   23.9836   42.7640 H   0  0  0  0  0  0  0  0  0  0  0  0
   57.8230   19.7990   44.6820 H   0  0  0  0  0  0  0  0  0  0  0  0
   56.6270   19.1820   43.3870 H   0  0  0  0  0  0  0  0  0  0  0  0
   58.4857   22.6015   46.2680 H   0  0  0  0  0  0  0  0  0  0  0  0
   56.7792   27.9964   46.3722 H   0  0  0  0  0  0  0  0  0  0  0  0
   57.6046   26.9123   47.5123 H   0  0  0  0  0  0  0  0  0  0  0  0
   58.0432   29.3444   47.9755 H   0  0  0  0  0  0  0  0  0  0  0  0
   59.5478   28.4182   47.5848 H   0  0  0  0  0  0  0  0  0  0  0  0
  1  2  1  0
  2  3  1  0
  3  4  2  0
  4  5  1  0
  5  6  2  0
  6  7  1  0
  7  8  2  0
  8  9  1  0
  9 10  1  0
 10 11  1  0
 11 12  1  0
 12 13  1  0
 13 14  1  0
 14 15  2  0
 15 16  1  0
 16 17  2  0
 17 18  1  0
 18 19  1  0
 18 20  2  0
 20 21  1  0
 17 22  1  0
 22 23  2  0
 13 24  1  0
 24 25  1  0
  8  3  1  0
 25 10  1  0
 23 14  1  0
  1 26  1  0
  1 27  1  0
  1 28  1  0
  4 29  1  0
  5 30  1  0
  6 31  1  0
  7 32  1  0
  9 33  1  0
  9 34  1  0
 11 35  1  0
 11 36  1  0
 12 37  1  0
 12 38  1  0
 15 39  1  0
 16 40  1  0
 19 41  1  0
 21 42  1  0
 22 43  1  0
 24 44  1  0
 24 45  1  0
 25 46  1  0
 25 47  1  0
M  END
>  <smiles>  (43) 
COc1ccccc1CN1CCN(c2ccc(C(O)=NO)cn2)CC1

>  <score_type>  (43) 
oracle

>  <origin>  (43) 
adg

>  <m_score__min__energy>  (43) 
-8.3000000000000007

>  <m_primary>  (43) 
energy

$$$$
43:0
     RDKit          3D

 50 53  0  0  1  0  0  0  0  0999 V2000
   56.9800   34.2940   44.8600 C   0  0  0  0  0  0  0  0  0  0  0  0
   58.2240   34.5400   45.6180 C   0  0  0  0  0  0  0  0  0  0  0  0
   59.2450   33.3270   45.3280 C   0  0  2  0  0  0  0  0  0  0  0  0
   58.2860   32.2960   45.3800 N   0  0  0  0  0  0  0  0  0  0  0  0
   58.3340   31.0780   45.6400 C   0  0  0  0  0  0  0  0  0  0  0  0
   58.9650   30.6720   46.7700 N   0  0  0  0  0  0  0  0  0  0  0  0
   59.0550   29.3950   47.1570 C   0  0  0  0  0  0  0  0  0  0  0  0
   59.7210   28.9170   48.3600 C   0  0  0  0  0  0  0  0  0  0  0  0
   60.1340   27.5840   48.4620 C   0  0  0  0  0  0  0  0  0  0  0  0
   60.7700   27.0900   49.5880 C   0  0  0  0  0  0  0  0  0  0  0  0
   61.0270   27.8870   50.6610 C   0  0  0  0  0  0  0  0  0  0  0  0
   60.6380   29.1970   50.5970 C   0  0  0  0  0  0  0  0  0  0  0  0
   59.9930   29.7020   49.4590 C   0  0  0  0  0  0  0  0  0  0  0  0
   59.6490   31.0290   49.5080 O   0  0  0  0  0  0  0  0  0  0  0  0
   59.0630   31.5930   50.6440 C   0  0  0  0  0  0  0  0  0  0  0  0
   58.4520   28.4640   46.3190 C   0  0  0  0  0  0  0  0  0  0  0  0
   57.7940   28.8680   45.1440 C   0  0  0  0  0  0  0  0  0  0  0  0
   57.1680   28.1920   44.2030 N   0  0  0  0  0  0  0  0  0  0  0  0
   56.7340   29.0350   43.3070 N   0  0  0  0  0  0  0  0  0  0  0  0
   57.0730   30.3310   43.6410 C   0  0  0  0  0  0  0  0  0  0  0  0
   56.7120   31.2090   42.8530 O   0  0  0  0  0  0  0  0  0  0  0  0
   57.7380   30.2010   44.8010 C   0  0  0  0  0  0  0  0  0  0  0  0
   60.0610   33.4770   46.5620 C   0  0  0  0  0  0  0  0  0  0  0  0
   61.3440   33.0290   46.7220 C   0  0  0  0  0  0  0  0  0  0  0  0
   62.0580   33.1830   47.8980 C   0  0  0  0  0  0  0  0  0  0  0  0
   61.4720   33.8140   48.9730 C   0  0  0  0  0  0  0  0  0  0  0  0
   60.1800   34.2710   48.8270 C   0  0  0  0  0  0  0  0  0  0  0  0
   59.4680   34.1080   47.6310 C   0  0  0  0  0  0  0  0  0  0  0  0
   56.1493   34.1297   45.5621 H   0  0  0  0  0  0  0  0  0  0  0  0
   56.7580   35.1656   44.2268 H   0  0  0  0  0  0  0  0  0  0  0  0
   57.1065   33.4035   44.2268 H   0  0  0  0  0  0  0  0  0  0  0  0
   58.6744   35.4900   45.2945 H   0  0  0  0  0  0  0  0  0  0  0  0
   58.0050   34.6004   46.6943 H   0  0  0  0  0  0  0  0  0  0  0  0
   59.8914   33.2242   44.4439 H   0  0  0  0  0  0  0  0  0  0  0  0
   59.3850   31.4020   47.3380 H   0  0  0  0  0  0  0  0  0  0  0  0
   59.9467   26.9045   47.6175 H   0  0  0  0  0  0  0  0  0  0  0  0
   61.0735   26.0331   49.6161 H   0  0  0  0  0  0  0  0  0  0  0  0
   61.5326   27.4895   51.5534 H   0  0  0  0  0  0  0  0  0  0  0  0
   60.8339   29.8633   51.4500 H   0  0  0  0  0  0  0  0  0  0  0  0
   59.5168   31.1563   51.5459 H   0  0  0  0  0  0  0  0  0  0  0  0
   59.2282   32.6805   50.6403 H   0  0  0  0  0  0  0  0  0  0  0  0
   57.9826   31.3863   50.6403 H   0  0  0  0  0  0  0  0  0  0  0  0
   58.4902   27.3958   46.5790 H   0  0  0  0  0  0  0  0  0  0  0  0
   57.0310   27.1620   44.1640 H   0  0  0  0  0  0  0  0  0  0  0  0
   56.2050   28.7610   42.4600 H   0  0  0  0  0  0  0  0  0  0  0  0
   61.8313   32.5224   45.8759 H   0  0  0  0  0  0  0  0  0  0  0  0
   63.0877   32.8035   47.9735 H   0  0  0  0  0  0  0  0  0  0  0  0
   62.0180   33.9489   49.9183 H   0  0  0  0  0  0  0  0  0  0  0  0
   59.6938   34.7782   49.6734 H   0  0  0  0  0  0  0  0  0  0  0  0
   58.4375   34.4837   47.5472 H   0  0  0  0  0  0  0  0  0  0  0  0
  1  2  1  0
  2  3  1  0
  3  4  1  0
  4  5  2  0
  5  6  1  0
  6  7  1  0
  7  8  1  0
  8  9  2  0
  9 10  1  0
 10 11  2  0
 11 12  1  0
 12 13  2  0
 13 14  1  0
 14 15  1  0
  7 16  2  0
 16 17  1  0
 17 18  1  0
 18 19  1  0
 19 20  1  0
 20 21  2  0
 20 22  1  0
  3 23  1  0
 23 24  2  0
 24 25  1  0
 25 26  2  0
 26 27  1  0
 27 28  2  0
 22  5  1  0
 28 23  1  0
 13  8  1  0
 22 17  2  0
  1 29  1  0
  1 30  1  0
  1 31  1  0
  2 32  1  0
  2 33  1  0
  3 34  1  6
  6 35  1  0
  9 36  1  0
 10 37  1  0
 11 38  1  0
 12 39  1  0
 15 40  1  0
 15 41  1  0
 15 42  1  0
 16 43  1  0
 18 44  1  0
 19 45  1  0
 24 46  1  0
 25 47  1  0
 26 48  1  0
 27 49  1  0
 28 50  1  0
M  END
>  <smiles>  (44) 
CCC(N=c1[nH]c(-c2ccccc2OC)cc2[nH][nH]c(=O)c12)c1ccccc1

>  <score_type>  (44) 
oracle

>  <origin>  (44) 
adg

>  <m_score__min__energy>  (44) 
-8.0299999999999994

>  <m_primary>  (44) 
energy

$$$$
44:0
     RDKit          3D

 32 34  0  0  0  0  0  0  0  0999 V2000
   56.4281   29.3949   43.4211 H   0  0  0  0  0  0  0  0  0  0  0  0
   56.8410   30.3880   43.6520 C   0  0  0  0  0  0  0  0  0  0  0  0
   56.9050   30.8140   44.9410 N   0  0  0  0  0  0  0  0  0  0  0  0
   57.4030   32.0370   45.2670 C   0  0  0  0  0  0  0  0  0  0  0  0
   57.4438   32.3491   46.3210 H   0  0  0  0  0  0  0  0  0  0  0  0
   57.8650   32.9020   44.2630 C   0  0  0  0  0  0  0  0  0  0  0  0
   58.4300   34.2550   44.6060 C   0  0  0  0  0  0  0  0  0  0  0  0
   57.7452   35.0348   44.2413 H   0  0  0  0  0  0  0  0  0  0  0  0
   59.4155   34.3571   44.1282 H   0  0  0  0  0  0  0  0  0  0  0  0
   58.5930   34.3980   46.0530 N   0  0  0  0  0  0  0  0  0  0  0  0
   59.6960   34.1950   46.7120 C   0  0  0  0  0  0  0  0  0  0  0  0
   59.7840   34.2470   48.4000 S   0  0  0  0  0  0  0  0  0  0  0  0
   61.4280   33.8960   48.3920 C   0  0  0  0  0  0  0  0  0  0  0  0
   62.2900   33.7570   49.4770 C   0  0  0  0  0  0  0  0  0  0  0  0
   61.9237   33.8775   50.5072 H   0  0  0  0  0  0  0  0  0  0  0  0
   63.6480   33.4570   49.2210 C   0  0  0  0  0  0  0  0  0  0  0  0
   64.5870   33.3000   50.2510 O   0  0  0  0  0  0  0  0  0  0  0  0
   65.7750   32.5230   50.1420 C   0  0  0  0  0  0  0  0  0  0  0  0
   66.1474   32.2794   51.1480 H   0  0  0  0  0  0  0  0  0  0  0  0
   65.5561   31.5930   49.5969 H   0  0  0  0  0  0  0  0  0  0  0  0
   66.5393   33.0963   49.5969 H   0  0  0  0  0  0  0  0  0  0  0  0
   64.0890   33.3090   47.8880 C   0  0  0  0  0  0  0  0  0  0  0  0
   65.1455   33.0760   47.6895 H   0  0  0  0  0  0  0  0  0  0  0  0
   63.1980   33.4550   46.8110 C   0  0  0  0  0  0  0  0  0  0  0  0
   63.5472   33.3391   45.7744 H   0  0  0  0  0  0  0  0  0  0  0  0
   61.8610   33.7500   47.0830 C   0  0  0  0  0  0  0  0  0  0  0  0
   60.8970   33.9180   46.1410 N   0  0  0  0  0  0  0  0  0  0  0  0
   61.0770   33.8450   45.1160 H   0  0  0  0  0  0  0  0  0  0  0  0
   57.8160   32.4690   42.9280 C   0  0  0  0  0  0  0  0  0  0  0  0
   58.1854   33.1227   42.1241 H   0  0  0  0  0  0  0  0  0  0  0  0
   57.2990   31.2100   42.6210 C   0  0  0  0  0  0  0  0  0  0  0  0
   57.2528   30.8684   41.5764 H   0  0  0  0  0  0  0  0  0  0  0  0
  1  2  1  0
  2  3  2  0
  3  4  1  0
  4  5  1  0
  4  6  2  0
  6  7  1  0
  7  8  1  0
  7  9  1  0
  7 10  1  0
 10 11  2  0
 11 12  1  0
 12 13  1  0
 13 14  2  0
 14 15  1  0
 14 16  1  0
 16 17  1  0
 17 18  1  0
 18 19  1  0
 18 20  1  0
 18 21  1  0
 16 22  2  0
 22 23  1  0
 22 24  1  0
 24 25  1  0
 24 26  2  0
 26 27  1  0
 27 28  1  0
  6 29  1  0
 29 30  1  0
 29 31  2  0
 31 32  1  0
 31  2  1  0
 27 11  1  0
 26 13  1  0
M  END
>  <UniqueID>  (45) 
41

>  <SMILES>  (45) 
COc1ccc2[nH]/c(=N\Cc3cccnc3)sc2c1

>  <Energy>  (45) 
68.97434759867494

>  <Genealogy>  (45) 
COc1ccc2[nH]/c(=N\Cc3cccnc3)sc2c1 (cis-trans isomerization)
COc1ccc2[nH]/c(=N\Cc3cccnc3)sc2c1 (3D coordinates assigned)
COc1ccc2[nH]/c(=N\Cc3cccnc3)sc2c1 (optimized conformer: 68.97434759867494 kcal/mol)

>  <smiles>  (45) 
COc1ccc2[nH]c(=NCc3cccnc3)sc2c1

>  <score_type>  (45) 
oracle

>  <origin>  (45) 
adg

>  <m_score__min__energy>  (45) 
-6.7199999999999998

>  <m_primary>  (45) 
energy

$$$$
45:0
     RDKit          3D

 85 89  0  0  0  0  0  0  0  0999 V2000
   65.7060   33.1290   50.0390 C   0  0  0  0  0  0  0  0  0  0  0  0
   64.1220   33.4870   50.7780 S   0  0  0  0  0  0  0  0  0  0  0  0
   64.1180   34.9140   51.2480 O   0  0  0  0  0  0  0  0  0  0  0  0
   63.9270   32.5860   51.9640 O   0  0  0  0  0  0  0  0  0  0  0  0
   62.8070   33.2480   49.6500 N   0  0  0  0  0  0  0  0  0  0  0  0
   63.3220   32.9680   48.2900 C   0  0  0  0  0  0  0  0  0  0  0  0
   62.3300   33.3540   47.1730 C   0  0  0  0  0  0  0  0  0  0  0  0
   60.9460   33.3250   47.6620 N   0  0  0  0  0  0  0  0  0  0  0  0
   59.9060   32.7280   46.8640 C   0  0  0  0  0  0  0  0  0  0  0  0
   59.1950   31.6130   47.3370 C   0  0  0  0  0  0  0  0  0  0  0  0
   58.1380   31.0830   46.5930 C   0  0  0  0  0  0  0  0  0  0  0  0
   57.7920   31.6370   45.3550 C   0  0  0  0  0  0  0  0  0  0  0  0
   56.6360   31.1340   44.6720 N   0  0  0  0  0  0  0  0  0  0  0  0
   56.3210   29.7590   44.4180 C   0  0  0  0  0  0  0  0  0  0  0  0
   55.1320   29.3740   44.5720 O   0  0  0  0  0  0  0  0  0  0  0  0
   57.3740   28.7640   44.0090 C   0  0  0  0  0  0  0  0  0  0  0  0
   58.2970   28.4720   45.1620 C   0  0  0  0  0  0  0  0  0  0  0  0
   59.6570   28.8230   45.0950 C   0  0  0  0  0  0  0  0  0  0  0  0
   60.4920   28.6270   46.2000 C   0  0  0  0  0  0  0  0  0  0  0  0
   59.9750   28.1080   47.3980 C   0  0  0  0  0  0  0  0  0  0  0  0
   60.8460   27.9370   48.5290 N   0  0  0  0  0  0  0  0  0  0  0  0
   61.0430   28.9450   49.5320 C   0  0  0  0  0  0  0  0  0  0  0  0
   60.7500   30.1490   49.2850 O   0  0  0  0  0  0  0  0  0  0  0  0
   61.7090   28.5920   50.8380 C   0  0  2  0  0  0  0  0  0  0  0  0
   60.7570   27.8020   51.7560 C   0  0  0  0  0  0  0  0  0  0  0  0
   61.4490   27.3540   53.0610 C   0  0  0  0  0  0  0  0  0  0  0  0
   62.6740   28.2110   53.4290 C   0  0  0  0  0  0  0  0  0  0  0  0
   62.4970   29.5950   52.9740 N   0  0  0  0  0  0  0  0  0  0  0  0
   62.6870   30.7030   53.8700 C   0  0  0  0  0  0  0  0  0  0  0  0
   63.8420   30.9540   54.3060 O   0  0  0  0  0  0  0  0  0  0  0  0
   61.5190   31.5480   54.3130 C   0  0  0  0  0  0  0  0  0  0  0  0
   60.9810   32.4550   53.1930 C   0  0  0  0  0  0  0  0  0  0  0  0
   59.7520   31.8840   52.5300 C   0  0  0  0  0  0  0  0  0  0  0  0
   59.1730   32.5410   51.4300 C   0  0  0  0  0  0  0  0  0  0  0  0
   58.0360   32.0100   50.8100 C   0  0  0  0  0  0  0  0  0  0  0  0
   57.4680   30.8240   51.2850 C   0  0  0  0  0  0  0  0  0  0  0  0
   58.0340   30.1680   52.3810 C   0  0  0  0  0  0  0  0  0  0  0  0
   59.1710   30.6940   53.0030 C   0  0  0  0  0  0  0  0  0  0  0  0
   62.1950   29.8640   51.5610 C   0  0  0  0  0  0  0  0  0  0  0  0
   58.6230   27.7270   47.4540 C   0  0  0  0  0  0  0  0  0  0  0  0
   57.7910   27.9100   46.3460 C   0  0  0  0  0  0  0  0  0  0  0  0
   58.5080   32.7450   44.8740 C   0  0  0  0  0  0  0  0  0  0  0  0
   59.5620   33.2800   45.6190 C   0  0  0  0  0  0  0  0  0  0  0  0
   60.6110   34.0180   48.9120 C   0  0  0  0  0  0  0  0  0  0  0  0
   61.8810   34.3890   49.6830 C   0  0  0  0  0  0  0  0  0  0  0  0
   66.4505   32.9607   50.8311 H   0  0  0  0  0  0  0  0  0  0  0  0
   65.6240   32.2267   49.4152 H   0  0  0  0  0  0  0  0  0  0  0  0
   66.0200   33.9788   49.4152 H   0  0  0  0  0  0  0  0  0  0  0  0
   64.2517   33.5375   48.1441 H   0  0  0  0  0  0  0  0  0  0  0  0
   63.4870   31.8827   48.2200 H   0  0  0  0  0  0  0  0  0  0  0  0
   62.5647   34.3687   46.8189 H   0  0  0  0  0  0  0  0  0  0  0  0
   62.4263   32.6266   46.3535 H   0  0  0  0  0  0  0  0  0  0  0  0
   59.4717   31.1548   48.2980 H   0  0  0  0  0  0  0  0  0  0  0  0
   57.5732   30.2235   46.9832 H   0  0  0  0  0  0  0  0  0  0  0  0
   56.8865   27.8310   43.6899 H   0  0  0  0  0  0  0  0  0  0  0  0
   57.9612   29.1866   43.1804 H   0  0  0  0  0  0  0  0  0  0  0  0
   60.0662   29.2537   44.1693 H   0  0  0  0  0  0  0  0  0  0  0  0
   61.5600   28.8809   46.1301 H   0  0  0  0  0  0  0  0  0  0  0  0
   61.4440   27.0800   48.5730 H   0  0  0  0  0  0  0  0  0  0  0  0
   62.5759   27.9557   50.6065 H   0  0  0  0  0  0  0  0  0  0  0  0
   59.8985   28.4407   52.0108 H   0  0  0  0  0  0  0  0  0  0  0  0
   60.4359   26.8995   51.2153 H   0  0  0  0  0  0  0  0  0  0  0  0
   60.7197   27.4176   53.8820 H   0  0  0  0  0  0  0  0  0  0  0  0
   61.8076   26.3263   52.9021 H   0  0  0  0  0  0  0  0  0  0  0  0
   62.8040   28.2042   54.5213 H   0  0  0  0  0  0  0  0  0  0  0  0
   63.5614   27.7882   52.9354 H   0  0  0  0  0  0  0  0  0  0  0  0
   60.7092   30.8818   54.6453 H   0  0  0  0  0  0  0  0  0  0  0  0
   61.8710   32.1994   55.1265 H   0  0  0  0  0  0  0  0  0  0  0  0
   60.7270   33.4349   53.6235 H   0  0  0  0  0  0  0  0  0  0  0  0
   61.7653   32.5421   52.4266 H   0  0  0  0  0  0  0  0  0  0  0  0
   59.6153   33.4759   51.0552 H   0  0  0  0  0  0  0  0  0  0  0  0
   57.5887   32.5265   49.9479 H   0  0  0  0  0  0  0  0  0  0  0  0
   56.5753   30.4073   50.7957 H   0  0  0  0  0  0  0  0  0  0  0  0
   57.5847   29.2363   52.7554 H   0  0  0  0  0  0  0  0  0  0  0  0
   59.6127   30.1744   53.8661 H   0  0  0  0  0  0  0  0  0  0  0  0
   61.4090   30.6313   51.5027 H   0  0  0  0  0  0  0  0  0  0  0  0
   63.1161   30.2110   51.0699 H   0  0  0  0  0  0  0  0  0  0  0  0
   58.2177   27.2824   48.3749 H   0  0  0  0  0  0  0  0  0  0  0  0
   56.7335   27.6122   46.4013 H   0  0  0  0  0  0  0  0  0  0  0  0
   58.2380   33.1937   43.9066 H   0  0  0  0  0  0  0  0  0  0  0  0
   60.1263   34.1394   45.2279 H   0  0  0  0  0  0  0  0  0  0  0  0
   60.0503   34.9348   48.6774 H   0  0  0  0  0  0  0  0  0  0  0  0
   60.0021   33.3471   49.5358 H   0  0  0  0  0  0  0  0  0  0  0  0
   62.3556   35.2637   49.2142 H   0  0  0  0  0  0  0  0  0  0  0  0
   61.6270   34.6335   50.7250 H   0  0  0  0  0  0  0  0  0  0  0  0
  1  2  1  0
  2  3  2  0
  2  4  2  0
  2  5  1  0
  5  6  1  0
  6  7  1  0
  7  8  1  0
  8  9  1  0
  9 10  2  0
 10 11  1  0
 11 12  2  0
 12 13  1  0
 13 14  1  0
 14 15  2  0
 14 16  1  0
 16 17  1  0
 17 18  2  0
 18 19  1  0
 19 20  2  0
 20 21  1  0
 21 22  1  0
 22 23  2  0
 22 24  1  0
 24 25  1  0
 25 26  1  0
 26 27  1  0
 27 28  1  0
 28 29  1  0
 29 30  2  0
 29 31  1  0
 31 32  1  0
 32 33  1  0
 33 34  2  0
 34 35  1  0
 35 36  2  0
 36 37  1  0
 37 38  2  0
 28 39  1  0
 20 40  1  0
 40 41  2  0
 12 42  1  0
 42 43  2  0
  8 44  1  0
 44 45  1  0
 45  5  1  0
 43  9  1  0
 41 17  1  0
 39 24  1  0
 38 33  1  0
  1 46  1  0
  1 47  1  0
  1 48  1  0
  6 49  1  0
  6 50  1  0
  7 51  1  0
  7 52  1  0
 10 53  1  0
 11 54  1  0
 16 55  1  0
 16 56  1  0
 18 57  1  0
 19 58  1  0
 21 59  1  0
 24 60  1  6
 25 61  1  0
 25 62  1  0
 26 63  1  0
 26 64  1  0
 27 65  1  0
 27 66  1  0
 31 67  1  0
 31 68  1  0
 32 69  1  0
 32 70  1  0
 34 71  1  0
 35 72  1  0
 36 73  1  0
 37 74  1  0
 38 75  1  0
 39 76  1  0
 39 77  1  0
 40 78  1  0
 41 79  1  0
 42 80  1  0
 43 81  1  0
 44 82  1  0
 44 83  1  0
 45 84  1  0
 45 85  1  0
M  CHG  1  13  -1
M  END
>  <UniqueID>  (46) 
42

>  <SMILES>  (46) 
CS(=O)(=O)N1CCN(c2ccc([N-]C(=O)Cc3ccc(NC(=O)[C@@H]4CCCN(C(=O)CCc5ccccc5)C4)cc3)cc2)CC1

>  <Energy>  (46) 
103.18014068780361

>  <Genealogy>  (46) 
CS(=O)(=O)N1CCN(c2ccc([N-]C(=O)Cc3ccc(NC(=O)C4CCCN(C(=O)CCc5ccccc5)C4)cc3)cc2)CC1 (protonated)
CS(=O)(=O)N1CCN(c2ccc([N-]C(=O)Cc3ccc(NC(=O)[C@@H]4CCCN(C(=O)CCc5ccccc5)C4)cc3)cc2)CC1 (chirality)
CS(=O)(=O)N1CCN(c2ccc([N-]C(=O)Cc3ccc(NC(=O)[C@@H]4CCCN(C(=O)CCc5ccccc5)C4)cc3)cc2)CC1 (3D coordinates assigned)
CS(=O)(=O)N1CCN(c2ccc([N-]C(=O)Cc3ccc(NC(=O)[C@@H]4CCCN(C(=O)CCc5ccccc5)C4)cc3)cc2)CC1 (nonaromatic ring conformer: 103.18014068780361 kcal/mol)

>  <smiles>  (46) 
CS(=O)(=O)N1CCN(c2ccc(NC(=O)Cc3ccc(NC(=O)C4CCCN(C(=O)CCc5ccccc5)C4)cc3)cc2)CC1

>  <score_type>  (46) 
oracle

>  <origin>  (46) 
adg

>  <m_score__min__energy>  (46) 
-11.52

>  <m_primary>  (46) 
energy

$$$$
46:0
     RDKit          3D

 49 51  0  0  0  0  0  0  0  0999 V2000
   59.6600   35.3160   46.1610 C   0  0  0  0  0  0  0  0  0  0  0  0
   58.9210   34.6260   47.2310 N   0  0  0  0  0  0  0  0  0  0  0  0
   59.8150   33.7980   48.0540 C   0  0  0  0  0  0  0  0  0  0  0  0
   57.7240   33.9010   46.7450 C   0  0  0  0  0  0  0  0  0  0  0  0
   57.3790   34.1290   45.2570 C   0  0  0  0  0  0  0  0  0  0  0  0
   58.1150   33.2590   44.3980 O   0  0  0  0  0  0  0  0  0  0  0  0
   58.0610   31.8550   44.4120 C   0  0  0  0  0  0  0  0  0  0  0  0
   58.8360   31.0690   45.2840 C   0  0  0  0  0  0  0  0  0  0  0  0
   58.7440   29.6750   45.2500 C   0  0  0  0  0  0  0  0  0  0  0  0
   57.8800   29.0350   44.3410 C   0  0  0  0  0  0  0  0  0  0  0  0
   57.7630   27.5550   44.2930 C   0  0  0  0  0  0  0  0  0  0  0  0
   57.5970   26.7840   45.4520 C   0  0  0  0  0  0  0  0  0  0  0  0
   57.4970   25.3990   45.3480 C   0  0  0  0  0  0  0  0  0  0  0  0
   57.5690   24.7910   44.0850 C   0  0  0  0  0  0  0  0  0  0  0  0
   57.4680   23.3550   43.9200 N   0  0  0  0  0  0  0  0  0  0  0  0
   56.6400   22.7900   42.8410 C   0  0  0  0  0  0  0  0  0  0  0  0
   56.8030   21.2750   42.7540 C   0  0  0  0  0  0  0  0  0  0  0  0
   56.6510   20.7110   44.0950 N   0  0  0  0  0  0  0  0  0  0  0  0
   57.7550   21.1030   44.9900 C   0  0  0  0  0  0  0  0  0  0  0  0
   58.3900   22.4730   44.6560 C   0  0  0  0  0  0  0  0  0  0  0  0
   57.7420   25.5890   42.9950 N   0  0  0  0  0  0  0  0  0  0  0  0
   57.8370   26.9150   43.0950 N   0  0  0  0  0  0  0  0  0  0  0  0
   57.0950   29.8280   43.4850 C   0  0  0  0  0  0  0  0  0  0  0  0
   57.1890   31.2210   43.5210 C   0  0  0  0  0  0  0  0  0  0  0  0
   60.3950   36.0023   46.6068 H   0  0  0  0  0  0  0  0  0  0  0  0
   60.1815   34.5742   45.5384 H   0  0  0  0  0  0  0  0  0  0  0  0
   58.9556   35.8871   45.5384 H   0  0  0  0  0  0  0  0  0  0  0  0
   59.6121   33.9860   49.1187 H   0  0  0  0  0  0  0  0  0  0  0  0
   59.6406   32.7354   47.8295 H   0  0  0  0  0  0  0  0  0  0  0  0
   60.8612   34.0533   47.8295 H   0  0  0  0  0  0  0  0  0  0  0  0
   57.8937   32.8245   46.8943 H   0  0  0  0  0  0  0  0  0  0  0  0
   56.8731   34.2944   47.3204 H   0  0  0  0  0  0  0  0  0  0  0  0
   56.3041   33.9474   45.1098 H   0  0  0  0  0  0  0  0  0  0  0  0
   57.6463   35.1649   45.0012 H   0  0  0  0  0  0  0  0  0  0  0  0
   59.5186   31.5546   45.9970 H   0  0  0  0  0  0  0  0  0  0  0  0
   59.3524   29.0719   45.9400 H   0  0  0  0  0  0  0  0  0  0  0  0
   57.5461   27.2701   46.4375 H   0  0  0  0  0  0  0  0  0  0  0  0
   57.3623   24.7849   46.2506 H   0  0  0  0  0  0  0  0  0  0  0  0
   55.5839   23.0263   43.0383 H   0  0  0  0  0  0  0  0  0  0  0  0
   56.9649   23.2301   41.8866 H   0  0  0  0  0  0  0  0  0  0  0  0
   56.0343   20.8574   42.0871 H   0  0  0  0  0  0  0  0  0  0  0  0
   57.7965   21.0266   42.3525 H   0  0  0  0  0  0  0  0  0  0  0  0
   56.6460   19.6680   44.0110 H   0  0  0  0  0  0  0  0  0  0  0  0
   57.3664   21.1450   46.0182 H   0  0  0  0  0  0  0  0  0  0  0  0
   58.5464   20.3498   44.8622 H   0  0  0  0  0  0  0  0  0  0  0  0
   58.6774   22.9676   45.5956 H   0  0  0  0  0  0  0  0  0  0  0  0
   59.2636   22.2898   44.0132 H   0  0  0  0  0  0  0  0  0  0  0  0
   56.4006   29.3467   42.7806 H   0  0  0  0  0  0  0  0  0  0  0  0
   56.5707   31.8259   42.8414 H   0  0  0  0  0  0  0  0  0  0  0  0
  1  2  1  0
  2  3  1  0
  2  4  1  0
  4  5  1  0
  5  6  1  0
  6  7  1  0
  7  8  2  0
  8  9  1  0
  9 10  2  0
 10 11  1  0
 11 12  2  0
 12 13  1  0
 13 14  2  0
 14 15  1  0
 15 16  1  0
 16 17  1  0
 17 18  1  0
 18 19  1  0
 19 20  1  0
 14 21  1  0
 21 22  2  0
 10 23  1  0
 23 24  2  0
 24  7  1  0
 22 11  1  0
 20 15  1  0
  1 25  1  0
  1 26  1  0
  1 27  1  0
  3 28  1  0
  3 29  1  0
  3 30  1  0
  4 31  1  0
  4 32  1  0
  5 33  1  0
  5 34  1  0
  8 35  1  0
  9 36  1  0
 12 37  1  0
 13 38  1  0
 16 39  1  0
 16 40  1  0
 17 41  1  0
 17 42  1  0
 18 43  1  0
 19 44  1  0
 19 45  1  0
 20 46  1  0
 20 47  1  0
 23 48  1  0
 24 49  1  0
M  END
>  <UniqueID>  (47) 
43

>  <SMILES>  (47) 
CN(C)CCOc1ccc(-c2ccc(N3CCNCC3)nn2)cc1

>  <Energy>  (47) 
63.60094400721924

>  <Genealogy>  (47) 
CN(C)CCOc1ccc(-c2ccc(N3CCNCC3)nn2)cc1 (3D coordinates assigned)
CN(C)CCOc1ccc(-c2ccc(N3CCNCC3)nn2)cc1 (nonaromatic ring conformer: 63.60094400721924 kcal/mol)

>  <smiles>  (47) 
CN(C)CCOc1ccc(-c2ccc(N3CCNCC3)nn2)cc1

>  <score_type>  (47) 
oracle

>  <origin>  (47) 
adg

>  <m_score__min__energy>  (47) 
-7.2199999999999998

>  <m_primary>  (47) 
energy

$$$$
47:0
     RDKit          3D

 45 47  0  0  0  0  0  0  0  0999 V2000
   63.9343   32.5352   47.8666 H   0  0  0  0  0  0  0  0  0  0  0  0
   62.8560   32.6320   47.6720 C   0  0  0  0  0  0  0  0  0  0  0  0
   62.3346   33.5687   47.9185 H   0  0  0  0  0  0  0  0  0  0  0  0
   62.1830   31.6170   47.1390 C   0  0  0  0  0  0  0  0  0  0  0  0
   62.7207   30.6879   46.8989 H   0  0  0  0  0  0  0  0  0  0  0  0
   60.7740   31.6970   46.8670 N   0  0  0  0  0  0  0  0  0  0  0  0
   59.8570   30.7180   47.0830 C   0  0  0  0  0  0  0  0  0  0  0  0
   60.1740   29.5470   47.5580 N   0  0  0  0  0  0  0  0  0  0  0  0
   60.2590   28.3130   46.7790 C   0  0  0  0  0  0  0  0  0  0  0  0
   60.7370   28.5284   45.8120 H   0  0  0  0  0  0  0  0  0  0  0  0
   60.8532   27.5786   47.3425 H   0  0  0  0  0  0  0  0  0  0  0  0
   58.8850   27.7420   46.5360 C   0  0  0  0  0  0  0  0  0  0  0  0
   58.5660   26.4630   47.0090 C   0  0  0  0  0  0  0  0  0  0  0  0
   59.3195   25.8801   47.5590 H   0  0  0  0  0  0  0  0  0  0  0  0
   57.2980   25.9230   46.7870 C   0  0  0  0  0  0  0  0  0  0  0  0
   57.0603   24.9152   47.1584 H   0  0  0  0  0  0  0  0  0  0  0  0
   56.3220   26.6600   46.0910 C   0  0  0  0  0  0  0  0  0  0  0  0
   55.0330   26.1550   45.8400 O   0  0  0  0  0  0  0  0  0  0  0  0
   54.7040   24.7840   45.6120 C   0  0  0  0  0  0  0  0  0  0  0  0
   54.7640   24.2355   46.5636 H   0  0  0  0  0  0  0  0  0  0  0  0
   53.6845   24.7290   45.2025 H   0  0  0  0  0  0  0  0  0  0  0  0
   55.6680   24.1560   44.6110 C   0  0  0  0  0  0  0  0  0  0  0  0
   56.4702   23.6334   45.1527 H   0  0  0  0  0  0  0  0  0  0  0  0
   55.1243   23.4382   43.9791 H   0  0  0  0  0  0  0  0  0  0  0  0
   56.1048   24.9433   43.9791 H   0  0  0  0  0  0  0  0  0  0  0  0
   56.6320   27.9440   45.6170 C   0  0  0  0  0  0  0  0  0  0  0  0
   55.6410   28.6550   44.9220 O   0  0  0  0  0  0  0  0  0  0  0  0
   55.8990   29.7010   43.9910 C   0  0  0  0  0  0  0  0  0  0  0  0
   56.1278   30.6287   44.5360 H   0  0  0  0  0  0  0  0  0  0  0  0
   56.7563   29.4261   43.3589 H   0  0  0  0  0  0  0  0  0  0  0  0
   55.0122   29.8563   43.3589 H   0  0  0  0  0  0  0  0  0  0  0  0
   57.9130   28.4830   45.8490 C   0  0  0  0  0  0  0  0  0  0  0  0
   58.1526   29.4941   45.4880 H   0  0  0  0  0  0  0  0  0  0  0  0
   58.5940   31.0860   46.7440 N   0  0  0  0  0  0  0  0  0  0  0  0
   57.7070   30.5420   46.8190 H   0  0  0  0  0  0  0  0  0  0  0  0
   58.7310   32.3510   46.3130 C   0  0  0  0  0  0  0  0  0  0  0  0
   57.7310   33.2220   45.8900 C   0  0  0  0  0  0  0  0  0  0  0  0
   56.6821   32.8965   45.8274 H   0  0  0  0  0  0  0  0  0  0  0  0
   58.1080   34.5340   45.5450 C   0  0  0  0  0  0  0  0  0  0  0  0
   57.3483   35.2469   45.1920 H   0  0  0  0  0  0  0  0  0  0  0  0
   59.4570   34.9390   45.6500 C   0  0  0  0  0  0  0  0  0  0  0  0
   59.7386   35.9693   45.3869 H   0  0  0  0  0  0  0  0  0  0  0  0
   60.4440   34.0370   46.0880 C   0  0  0  0  0  0  0  0  0  0  0  0
   61.4941   34.3485   46.1895 H   0  0  0  0  0  0  0  0  0  0  0  0
   60.0450   32.7310   46.3900 C   0  0  0  0  0  0  0  0  0  0  0  0
  1  2  1  0
  2  3  1  0
  2  4  2  0
  4  5  1  0
  4  6  1  0
  6  7  1  0
  7  8  2  0
  8  9  1  0
  9 10  1  0
  9 11  1  0
  9 12  1  0
 12 13  2  0
 13 14  1  0
 13 15  1  0
 15 16  1  0
 15 17  2  0
 17 18  1  0
 18 19  1  0
 19 20  1  0
 19 21  1  0
 19 22  1  0
 22 23  1  0
 22 24  1  0
 22 25  1  0
 17 26  1  0
 26 27  1  0
 27 28  1  0
 28 29  1  0
 28 30  1  0
 28 31  1  0
 26 32  2  0
 32 33  1  0
  7 34  1  0
 34 35  1  0
 34 36  1  0
 36 37  2  0
 37 38  1  0
 37 39  1  0
 39 40  1  0
 39 41  2  0
 41 42  1  0
 41 43  1  0
 43 44  1  0
 43 45  2  0
 45  6  1  0
 32 12  1  0
 45 36  1  0
M  END
>  <UniqueID>  (48) 
44

>  <SMILES>  (48) 
C=Cn1/c(=N/Cc2ccc(OCC)c(OC)c2)[nH]c2ccccc21

>  <Energy>  (48) 
87.07695421838577

>  <Genealogy>  (48) 
C=Cn1/c(=N/Cc2ccc(OCC)c(OC)c2)[nH]c2ccccc21 (cis-trans isomerization)
C=Cn1/c(=N/Cc2ccc(OCC)c(OC)c2)[nH]c2ccccc21 (3D coordinates assigned)
C=Cn1/c(=N/Cc2ccc(OCC)c(OC)c2)[nH]c2ccccc21 (optimized conformer: 87.07695421838577 kcal/mol)

>  <smiles>  (48) 
C=Cn1c(=NCc2ccc(OCC)c(OC)c2)[nH]c2ccccc21

>  <score_type>  (48) 
oracle

>  <origin>  (48) 
adg

>  <m_score__min__energy>  (48) 
-7.7800000000000002

>  <m_primary>  (48) 
energy

$$$$
