0:0
     RDKit          3D

 45 47  0  0  0  0  0  0  0  0999 V2000
   60.0180   30.0580   46.1490 C   0  0  0  0  0  0  0  0  0  0  0  0
   59.5270   29.7020   44.7480 C   0  0  0  0  0  0  0  0  0  0  0  0
   58.0620   29.7240   44.6890 N   0  0  0  0  0  0  0  0  0  0  0  0
   57.2740   30.7680   44.3530 C   0  0  0  0  0  0  0  0  0  0  0  0
   57.8640   32.3810   43.8360 S   0  0  0  0  0  0  0  0  0  0  0  0
   57.4350   33.1750   45.4210 C   0  0  0  0  0  0  0  0  0  0  0  0
   58.3310   34.3820   45.6540 C   0  0  0  0  0  0  0  0  0  0  0  0
   58.7930   34.3740   47.0030 O   0  0  0  0  0  0  0  0  0  0  0  0
   60.1220   34.1340   47.3830 C   0  0  0  0  0  0  0  0  0  0  0  0
   61.0580   33.8450   46.3840 C   0  0  0  0  0  0  0  0  0  0  0  0
   62.3950   33.5970   46.7120 C   0  0  0  0  0  0  0  0  0  0  0  0
   62.8150   33.6370   48.0550 C   0  0  0  0  0  0  0  0  0  0  0  0
   64.1420   33.3940   48.4370 O   0  0  0  0  0  0  0  0  0  0  0  0
   64.5260   32.5620   49.5270 C   0  0  0  0  0  0  0  0  0  0  0  0
   61.8780   33.9270   49.0540 C   0  0  0  0  0  0  0  0  0  0  0  0
   60.5410   34.1750   48.7270 C   0  0  0  0  0  0  0  0  0  0  0  0
   55.9700   30.4720   44.4950 N   0  0  0  0  0  0  0  0  0  0  0  0
   55.9040   29.2250   44.9360 N   0  0  0  0  0  0  0  0  0  0  0  0
   57.1680   28.7730   45.0480 C   0  0  0  0  0  0  0  0  0  0  0  0
   57.4890   27.4280   45.5720 C   0  0  0  0  0  0  0  0  0  0  0  0
   57.7970   27.2720   46.9310 C   0  0  0  0  0  0  0  0  0  0  0  0
   58.0800   25.9980   47.4340 C   0  0  0  0  0  0  0  0  0  0  0  0
   58.0370   24.9170   46.6120 N   0  0  0  0  0  0  0  0  0  0  0  0
   57.7220   25.0350   45.2950 C   0  0  0  0  0  0  0  0  0  0  0  0
   57.4350   26.2900   44.7530 C   0  0  0  0  0  0  0  0  0  0  0  0
   59.3654   29.5848   46.8975 H   0  0  0  0  0  0  0  0  0  0  0  0
   61.0484   29.6957   46.2795 H   0  0  0  0  0  0  0  0  0  0  0  0
   59.9940   31.1500   46.2795 H   0  0  0  0  0  0  0  0  0  0  0  0
   59.9280   30.4316   44.0290 H   0  0  0  0  0  0  0  0  0  0  0  0
   59.8749   28.6886   44.4991 H   0  0  0  0  0  0  0  0  0  0  0  0
   56.3846   33.5003   45.3936 H   0  0  0  0  0  0  0  0  0  0  0  0
   57.5793   32.4534   46.2386 H   0  0  0  0  0  0  0  0  0  0  0  0
   59.1919   34.3376   44.9707 H   0  0  0  0  0  0  0  0  0  0  0  0
   57.7622   35.3044   45.4653 H   0  0  0  0  0  0  0  0  0  0  0  0
   60.7397   33.8125   45.3316 H   0  0  0  0  0  0  0  0  0  0  0  0
   63.1210   33.3698   45.9174 H   0  0  0  0  0  0  0  0  0  0  0  0
   64.2922   33.0685   50.4750 H   0  0  0  0  0  0  0  0  0  0  0  0
   63.9757   31.6110   49.4740 H   0  0  0  0  0  0  0  0  0  0  0  0
   65.6067   32.3638   49.4740 H   0  0  0  0  0  0  0  0  0  0  0  0
   62.1965   33.9601   50.1064 H   0  0  0  0  0  0  0  0  0  0  0  0
   59.8150   34.4026   49.5214 H   0  0  0  0  0  0  0  0  0  0  0  0
   57.8159   28.1467   47.5978 H   0  0  0  0  0  0  0  0  0  0  0  0
   58.3376   25.8711   48.4959 H   0  0  0  0  0  0  0  0  0  0  0  0
   57.6931   24.1408   44.6550 H   0  0  0  0  0  0  0  0  0  0  0  0
   57.1682   26.3856   43.6901 H   0  0  0  0  0  0  0  0  0  0  0  0
  1  2  1  0
  2  3  1  0
  3  4  1  0
  4  5  1  0
  5  6  1  0
  6  7  1  0
  7  8  1  0
  8  9  1  0
  9 10  2  0
 10 11  1  0
 11 12  2  0
 12 13  1  0
 13 14  1  0
 12 15  1  0
 15 16  2  0
  4 17  2  0
 17 18  1  0
 18 19  2  0
 19 20  1  0
 20 21  2  0
 21 22  1  0
 22 23  2  0
 23 24  1  0
 24 25  2  0
 19  3  1  0
 25 20  1  0
 16  9  1  0
  1 26  1  0
  1 27  1  0
  1 28  1  0
  2 29  1  0
  2 30  1  0
  6 31  1  0
  6 32  1  0
  7 33  1  0
  7 34  1  0
 10 35  1  0
 11 36  1  0
 14 37  1  0
 14 38  1  0
 14 39  1  0
 15 40  1  0
 16 41  1  0
 21 42  1  0
 22 43  1  0
 24 44  1  0
 25 45  1  0
M  END
>  <UniqueID>  (1) 
1

>  <SMILES>  (1) 
CCn1c(SCCOc2ccc(OC)cc2)nnc1-c1ccncc1

>  <Energy>  (1) 
77.70172461095278

>  <Genealogy>  (1) 
CCn1c(SCCOc2ccc(OC)cc2)nnc1-c1ccncc1 (3D coordinates assigned)
CCn1c(SCCOc2ccc(OC)cc2)nnc1-c1ccncc1 (optimized conformer: 77.70172461095278 kcal/mol)

>  <smiles>  (1) 
CCn1c(SCCOc2ccc(OC)cc2)nnc1-c1ccncc1

>  <score_type>  (1) 
oracle

>  <origin>  (1) 
adg

>  <m_score__min__energy>  (1) 
-8.2100000000000009

>  <m_primary>  (1) 
energy

$$$$
1:0
     RDKit          3D

 61 63  0  0  0  0  0  0  0  0999 V2000
   57.1150   30.8360   51.9440 C   0  0  0  0  0  0  0  0  0  0  0  0
   58.1250   30.1360   51.0420 C   0  0  0  0  0  0  0  0  0  0  0  0
   59.0970   31.1060   50.5250 N   0  0  0  0  0  0  0  0  0  0  0  0
   58.4160   32.3390   50.1100 C   0  0  0  0  0  0  0  0  0  0  0  0
   59.4040   33.5080   50.0530 C   0  0  0  0  0  0  0  0  0  0  0  0
   59.9960   33.8320   51.4310 C   0  0  0  0  0  0  0  0  0  0  0  0
   60.8880   32.8110   51.8350 O   0  0  0  0  0  0  0  0  0  0  0  0
   60.9000   32.6860   53.2420 C   0  0  0  0  0  0  0  0  0  0  0  0
   61.0130   31.2090   53.6260 C   0  0  0  0  0  0  0  0  0  0  0  0
   60.9650   30.3630   52.4910 O   0  0  0  0  0  0  0  0  0  0  0  0
   62.2270   29.7800   52.2210 C   0  0  0  0  0  0  0  0  0  0  0  0
   62.6390   30.0920   50.7760 C   0  0  0  0  0  0  0  0  0  0  0  0
   61.6670   30.9610   50.0790 N   0  0  0  0  0  0  0  0  0  0  0  0
   62.2810   31.7660   49.0350 C   0  0  0  0  0  0  0  0  0  0  0  0
   63.6400   32.1140   49.1750 C   0  0  0  0  0  0  0  0  0  0  0  0
   64.2010   33.1390   48.4200 C   0  0  0  0  0  0  0  0  0  0  0  0
   63.4160   33.8460   47.5180 C   0  0  0  0  0  0  0  0  0  0  0  0
   62.0900   33.4590   47.2830 C   0  0  0  0  0  0  0  0  0  0  0  0
   61.3120   34.1830   46.3810 C   0  0  0  0  0  0  0  0  0  0  0  0
   59.9900   33.8160   46.1530 C   0  0  0  0  0  0  0  0  0  0  0  0
   59.1680   34.6070   45.3350 C   0  0  0  0  0  0  0  0  0  0  0  0
   57.8430   34.2390   45.1040 C   0  0  0  0  0  0  0  0  0  0  0  0
   57.3320   33.0750   45.6770 C   0  0  0  0  0  0  0  0  0  0  0  0
   58.1440   32.2690   46.4780 C   0  0  0  0  0  0  0  0  0  0  0  0
   59.4910   32.6250   46.7320 C   0  0  0  0  0  0  0  0  0  0  0  0
   60.3200   31.8320   47.5010 N   0  0  0  0  0  0  0  0  0  0  0  0
   60.0230   30.3860   47.5790 C   0  0  0  0  0  0  0  0  0  0  0  0
   61.5330   32.3330   47.9480 C   0  0  0  0  0  0  0  0  0  0  0  0
   57.3764   30.6548   52.9970 H   0  0  0  0  0  0  0  0  0  0  0  0
   57.1315   31.9173   51.7429 H   0  0  0  0  0  0  0  0  0  0  0  0
   56.1083   30.4410   51.7429 H   0  0  0  0  0  0  0  0  0  0  0  0
   58.6540   29.3633   51.6192 H   0  0  0  0  0  0  0  0  0  0  0  0
   57.5934   29.6740   50.1971 H   0  0  0  0  0  0  0  0  0  0  0  0
   59.7520   31.3510   51.3060 H   0  0  0  0  0  0  0  0  0  0  0  0
   57.9743   32.1901   49.1136 H   0  0  0  0  0  0  0  0  0  0  0  0
   57.6306   32.5742   50.8433 H   0  0  0  0  0  0  0  0  0  0  0  0
   60.2236   33.2464   49.3676 H   0  0  0  0  0  0  0  0  0  0  0  0
   58.8578   34.3960   49.7020 H   0  0  0  0  0  0  0  0  0  0  0  0
   60.5385   34.7874   51.3773 H   0  0  0  0  0  0  0  0  0  0  0  0
   59.1786   33.9033   52.1636 H   0  0  0  0  0  0  0  0  0  0  0  0
   61.7595   33.2372   53.6510 H   0  0  0  0  0  0  0  0  0  0  0  0
   59.9673   33.0997   53.6531 H   0  0  0  0  0  0  0  0  0  0  0  0
   61.9678   31.0494   54.1484 H   0  0  0  0  0  0  0  0  0  0  0  0
   60.1599   30.9590   54.2739 H   0  0  0  0  0  0  0  0  0  0  0  0
   62.9764   30.1924   52.9126 H   0  0  0  0  0  0  0  0  0  0  0  0
   62.1625   28.6902   52.3555 H   0  0  0  0  0  0  0  0  0  0  0  0
   63.6158   30.5977   50.7902 H   0  0  0  0  0  0  0  0  0  0  0  0
   62.6819   29.1380   50.2301 H   0  0  0  0  0  0  0  0  0  0  0  0
   61.2150   31.5330   50.8170 H   0  0  0  0  0  0  0  0  0  0  0  0
   60.9310   30.3590   49.6430 H   0  0  0  0  0  0  0  0  0  0  0  0
   64.2673   31.5658   49.8933 H   0  0  0  0  0  0  0  0  0  0  0  0
   65.2657   33.3895   48.5372 H   0  0  0  0  0  0  0  0  0  0  0  0
   63.8367   34.7124   46.9866 H   0  0  0  0  0  0  0  0  0  0  0  0
   61.7434   35.0442   45.8498 H   0  0  0  0  0  0  0  0  0  0  0  0
   59.5708   35.5210   44.8743 H   0  0  0  0  0  0  0  0  0  0  0  0
   57.2006   34.8672   44.4695 H   0  0  0  0  0  0  0  0  0  0  0  0
   56.2848   32.7903   45.4974 H   0  0  0  0  0  0  0  0  0  0  0  0
   57.7328   31.3477   46.9163 H   0  0  0  0  0  0  0  0  0  0  0  0
   59.9603   30.0809   48.6340 H   0  0  0  0  0  0  0  0  0  0  0  0
   59.0640   30.1812   47.0805 H   0  0  0  0  0  0  0  0  0  0  0  0
   60.8236   29.8198   47.0805 H   0  0  0  0  0  0  0  0  0  0  0  0
  1  2  1  0
  2  3  1  0
  3  4  1  0
  4  5  1  0
  5  6  1  0
  6  7  1  0
  7  8  1  0
  8  9  1  0
  9 10  1  0
 10 11  1  0
 11 12  1  0
 12 13  1  0
 13 14  1  0
 14 15  2  0
 15 16  1  0
 16 17  2  0
 17 18  1  0
 18 19  2  0
 19 20  1  0
 20 21  2  0
 21 22  1  0
 22 23  2  0
 23 24  1  0
 24 25  2  0
 25 26  1  0
 26 27  1  0
 26 28  2  0
 28 14  1  0
 28 18  1  0
 25 20  1  0
  1 29  1  0
  1 30  1  0
  1 31  1  0
  2 32  1  0
  2 33  1  0
  3 34  1  0
  4 35  1  0
  4 36  1  0
  5 37  1  0
  5 38  1  0
  6 39  1  0
  6 40  1  0
  8 41  1  0
  8 42  1  0
  9 43  1  0
  9 44  1  0
 11 45  1  0
 11 46  1  0
 12 47  1  0
 12 48  1  0
 13 49  1  0
 13 50  1  0
 15 51  1  0
 16 52  1  0
 17 53  1  0
 19 54  1  0
 21 55  1  0
 22 56  1  0
 23 57  1  0
 24 58  1  0
 27 59  1  0
 27 60  1  0
 27 61  1  0
M  CHG  2  13   1  26   1
M  END
>  <UniqueID>  (2) 
2

>  <SMILES>  (2) 
CCNCCCOCCOCC[NH2+]c1cccc2cc3ccccc3[n+](C)c12

>  <Energy>  (2) 
84.29882074174463

>  <Genealogy>  (2) 
CCNCCCOCCOCC[NH2+]c1cccc2cc3ccccc3[n+](C)c12 (protonated)
CCNCCCOCCOCC[NH2+]c1cccc2cc3ccccc3[n+](C)c12 (3D coordinates assigned)
CCNCCCOCCOCC[NH2+]c1cccc2cc3ccccc3[n+](C)c12 (optimized conformer: 84.29882074174463 kcal/mol)

>  <smiles>  (2) 
CCNCCCOCCOCCNc1cccc2cc3ccccc3[n+](C)c12

>  <score_type>  (2) 
oracle

>  <origin>  (2) 
adg

>  <m_score__min__energy>  (2) 
-4.4299999999999997

>  <m_primary>  (2) 
energy

$$$$
2:0
     RDKit          3D

 84 88  0  0  0  0  0  0  0  0999 V2000
   58.7020   33.9110   46.3540 C   0  0  0  0  0  0  0  0  0  0  0  0
   60.1900   33.8200   46.0270 C   0  0  0  0  0  0  0  0  0  0  0  0
   60.9800   33.5660   47.2500 N   0  0  0  0  0  0  0  0  0  0  0  0
   60.4570   34.3700   48.3680 C   0  0  0  0  0  0  0  0  0  0  0  0
   62.4290   33.8190   47.0470 C   0  0  0  0  0  0  0  0  0  0  0  0
   63.2030   33.5260   48.3400 C   0  0  0  0  0  0  0  0  0  0  0  0
   63.6600   32.1210   48.4050 N   0  0  0  0  0  0  0  0  0  0  0  0
   63.8790   31.6930   49.7800 C   0  0  0  0  0  0  0  0  0  0  0  0
   65.1160   32.0100   50.4220 C   0  0  0  0  0  0  0  0  0  0  0  0
   66.1290   32.7660   49.7730 C   0  0  0  0  0  0  0  0  0  0  0  0
   67.3290   33.0670   50.4100 C   0  0  0  0  0  0  0  0  0  0  0  0
   67.5700   32.6100   51.6950 C   0  0  0  0  0  0  0  0  0  0  0  0
   66.6090   31.8520   52.3540 C   0  0  0  0  0  0  0  0  0  0  0  0
   65.3630   31.5490   51.7460 C   0  0  0  0  0  0  0  0  0  0  0  0
   64.4240   30.7840   52.3990 N   0  0  0  0  0  0  0  0  0  0  0  0
   64.5560   30.5300   53.8520 C   0  0  0  0  0  0  0  0  0  0  0  0
   63.3540   30.2640   51.7070 C   0  0  0  0  0  0  0  0  0  0  0  0
   62.6560   29.1440   52.2150 C   0  0  0  0  0  0  0  0  0  0  0  0
   61.5350   28.6450   51.5720 C   0  0  0  0  0  0  0  0  0  0  0  0
   61.0320   29.2930   50.4610 C   0  0  0  0  0  0  0  0  0  0  0  0
   61.6780   30.4160   49.9250 C   0  0  0  0  0  0  0  0  0  0  0  0
   60.9370   31.2210   48.9890 N   0  0  0  0  0  0  0  0  0  0  0  0
   60.0760   30.6460   47.9490 C   0  0  0  0  0  0  0  0  0  0  0  0
   60.5360   29.2450   47.4510 C   0  0  0  0  0  0  0  0  0  0  0  0
   59.5260   28.3600   46.7620 N   0  0  2  0  0  0  0  0  0  0  0  0
   59.5440   27.0100   47.3910 C   0  0  0  0  0  0  0  0  0  0  0  0
   59.8080   28.1860   45.3090 C   0  0  0  0  0  0  0  0  0  0  0  0
   59.7780   29.5020   44.5040 C   0  0  0  0  0  0  0  0  0  0  0  0
   58.6720   30.4780   44.9690 C   0  0  1  0  0  0  0  0  0  0  0  0
   58.1010   31.3310   43.8010 C   0  0  0  0  0  0  0  0  0  0  0  0
   56.7410   30.8480   43.2650 C   0  0  0  0  0  0  0  0  0  0  0  0
   56.5810   29.3360   43.4050 C   0  0  0  0  0  0  0  0  0  0  0  0
   56.6120   28.9040   44.8800 C   0  0  0  0  0  0  0  0  0  0  0  0
   57.5630   29.7590   45.7690 C   0  0  1  0  0  0  0  0  0  0  0  0
   58.1440   28.9440   46.9650 C   0  0  0  0  0  0  0  0  0  0  0  0
   62.9530   30.8240   50.4560 C   0  0  0  0  0  0  0  0  0  0  0  0
   58.5663   33.9193   47.4456 H   0  0  0  0  0  0  0  0  0  0  0  0
   58.2884   34.8361   45.9261 H   0  0  0  0  0  0  0  0  0  0  0  0
   58.1788   33.0432   45.9261 H   0  0  0  0  0  0  0  0  0  0  0  0
   60.3534   32.9979   45.3146 H   0  0  0  0  0  0  0  0  0  0  0  0
   60.5145   34.7754   45.5889 H   0  0  0  0  0  0  0  0  0  0  0  0
   60.7560   33.9103   49.3216 H   0  0  0  0  0  0  0  0  0  0  0  0
   60.8651   35.3898   48.3087 H   0  0  0  0  0  0  0  0  0  0  0  0
   59.3593   34.4103   48.3087 H   0  0  0  0  0  0  0  0  0  0  0  0
   62.8029   33.1671   46.2437 H   0  0  0  0  0  0  0  0  0  0  0  0
   62.5747   34.8740   46.7719 H   0  0  0  0  0  0  0  0  0  0  0  0
   64.0806   34.1876   48.3864 H   0  0  0  0  0  0  0  0  0  0  0  0
   62.5263   33.7031   49.1890 H   0  0  0  0  0  0  0  0  0  0  0  0
   63.0150   31.4820   47.9000 H   0  0  0  0  0  0  0  0  0  0  0  0
   64.5400   32.0120   47.8540 H   0  0  0  0  0  0  0  0  0  0  0  0
   65.9611   33.1208   48.7454 H   0  0  0  0  0  0  0  0  0  0  0  0
   68.0888   33.6700   49.8912 H   0  0  0  0  0  0  0  0  0  0  0  0
   68.5214   32.8467   52.1939 H   0  0  0  0  0  0  0  0  0  0  0  0
   66.8186   31.4794   53.3675 H   0  0  0  0  0  0  0  0  0  0  0  0
   64.1195   31.3700   54.4122 H   0  0  0  0  0  0  0  0  0  0  0  0
   64.0263   29.6015   54.1115 H   0  0  0  0  0  0  0  0  0  0  0  0
   65.6202   30.4298   54.1115 H   0  0  0  0  0  0  0  0  0  0  0  0
   63.0096   28.6602   53.1375 H   0  0  0  0  0  0  0  0  0  0  0  0
   61.0460   27.7334   51.9460 H   0  0  0  0  0  0  0  0  0  0  0  0
   60.1101   28.9223   49.9892 H   0  0  0  0  0  0  0  0  0  0  0  0
   61.1660   32.2310   48.9390 H   0  0  0  0  0  0  0  0  0  0  0  0
   59.0582   30.5518   48.3554 H   0  0  0  0  0  0  0  0  0  0  0  0
   60.1251   31.3237   47.0839 H   0  0  0  0  0  0  0  0  0  0  0  0
   61.3626   29.4068   46.7435 H   0  0  0  0  0  0  0  0  0  0  0  0
   60.7881   28.7002   48.3727 H   0  0  0  0  0  0  0  0  0  0  0  0
   59.5426   27.1156   48.4859 H   0  0  0  0  0  0  0  0  0  0  0  0
   58.6533   26.4467   47.0758 H   0  0  0  0  0  0  0  0  0  0  0  0
   60.4494   26.4707   47.0758 H   0  0  0  0  0  0  0  0  0  0  0  0
   60.8064   27.7369   45.2014 H   0  0  0  0  0  0  0  0  0  0  0  0
   59.0107   27.5457   44.9036 H   0  0  0  0  0  0  0  0  0  0  0  0
   60.7524   30.0006   44.6135 H   0  0  0  0  0  0  0  0  0  0  0  0
   59.5622   29.2394   43.4578 H   0  0  0  0  0  0  0  0  0  0  0  0
   59.1509   31.1872   45.6602 H   0  0  0  0  0  0  0  0  0  0  0  0
   57.9828   32.3653   44.1564 H   0  0  0  0  0  0  0  0  0  0  0  0
   58.8153   31.2417   42.9693 H   0  0  0  0  0  0  0  0  0  0  0  0
   55.9387   31.3448   43.8303 H   0  0  0  0  0  0  0  0  0  0  0  0
   56.6858   31.1001   42.1957 H   0  0  0  0  0  0  0  0  0  0  0  0
   55.6192   29.0353   42.9639 H   0  0  0  0  0  0  0  0  0  0  0  0
   57.4182   28.8490   42.8835 H   0  0  0  0  0  0  0  0  0  0  0  0
   55.5928   28.9849   45.2859 H   0  0  0  0  0  0  0  0  0  0  0  0
   56.9954   27.8732   44.9025 H   0  0  0  0  0  0  0  0  0  0  0  0
   56.9327   30.5553   46.1917 H   0  0  0  0  0  0  0  0  0  0  0  0
   58.1858   29.6116   47.8383 H   0  0  0  0  0  0  0  0  0  0  0  0
   57.4731   28.0812   47.0892 H   0  0  0  0  0  0  0  0  0  0  0  0
  1  2  1  0
  2  3  1  0
  3  4  1  0
  3  5  1  0
  5  6  1  0
  6  7  1  0
  7  8  1  0
  8  9  2  0
  9 10  1  0
 10 11  2  0
 11 12  1  0
 12 13  2  0
 13 14  1  0
 14 15  2  0
 15 16  1  0
 15 17  1  0
 17 18  2  0
 18 19  1  0
 19 20  2  0
 20 21  1  0
 21 22  1  0
 22 23  1  0
 23 24  1  0
 25 24  1  1
 25 26  1  0
 25 27  1  0
 27 28  1  0
 28 29  1  0
 29 30  1  0
 30 31  1  0
 31 32  1  0
 32 33  1  0
 33 34  1  0
 34 35  1  0
 21 36  2  0
 36  8  1  0
 14  9  1  0
 36 17  1  0
 35 25  1  0
 34 29  1  0
  1 37  1  0
  1 38  1  0
  1 39  1  0
  2 40  1  0
  2 41  1  0
  4 42  1  0
  4 43  1  0
  4 44  1  0
  5 45  1  0
  5 46  1  0
  6 47  1  0
  6 48  1  0
  7 49  1  0
  7 50  1  0
 10 51  1  0
 11 52  1  0
 12 53  1  0
 13 54  1  0
 16 55  1  0
 16 56  1  0
 16 57  1  0
 18 58  1  0
 19 59  1  0
 20 60  1  0
 22 61  1  0
 23 62  1  0
 23 63  1  0
 24 64  1  0
 24 65  1  0
 26 66  1  0
 26 67  1  0
 26 68  1  0
 27 69  1  0
 27 70  1  0
 28 71  1  0
 28 72  1  0
 29 73  1  1
 30 74  1  0
 30 75  1  0
 31 76  1  0
 31 77  1  0
 32 78  1  0
 32 79  1  0
 33 80  1  0
 33 81  1  0
 34 82  1  1
 35 83  1  0
 35 84  1  0
M  CHG  3   7   1  15   1  25   1
M  END
>  <UniqueID>  (3) 
3

>  <SMILES>  (3) 
CCN(C)CC[NH2+]c1c2ccccc2[n+](C)c2cccc(NCC[N@+]3(C)CC[C@H]4CCCCC4C3)c12

>  <Energy>  (3) 
158.82299607511936

>  <Genealogy>  (3) 
CCN(C)CC[NH2+]c1c2ccccc2[n+](C)c2cccc(NCC[N+]3(C)CCC4CCCCC4C3)c12 (protonated)
CCN(C)CC[NH2+]c1c2ccccc2[n+](C)c2cccc(NCC[N@+]3(C)CC[C@H]4CCCCC4C3)c12 (chirality)
CCN(C)CC[NH2+]c1c2ccccc2[n+](C)c2cccc(NCC[N@+]3(C)CC[C@H]4CCCCC4C3)c12 (3D coordinates assigned)
CCN(C)CC[NH2+]c1c2ccccc2[n+](C)c2cccc(NCC[N@+]3(C)CC[C@H]4CCCCC4C3)c12 (nonaromatic ring conformer: 158.82299607511936 kcal/mol)

>  <smiles>  (3) 
CCN(C)CCNc1c2ccccc2[n+](C)c2cccc(NCC[N+]3(C)CCC4CCCCC4C3)c12

>  <score_type>  (3) 
oracle

>  <origin>  (3) 
adg

>  <m_score__min__energy>  (3) 
-4.6699999999999999

>  <m_primary>  (3) 
energy

$$$$
3:0
     RDKit          3D

 44 46  0  0  0  0  0  0  0  0999 V2000
   55.6190   30.8240   52.0180 C   0  0  0  0  0  0  0  0  0  0  0  0
   56.8190   31.7630   52.1580 C   0  0  0  0  0  0  0  0  0  0  0  0
   58.0660   31.0570   52.5130 N   0  0  0  0  0  0  0  0  0  0  0  0
   58.7360   30.3400   51.4070 C   0  0  0  0  0  0  0  0  0  0  0  0
   60.2620   30.5490   51.3240 C   0  0  0  0  0  0  0  0  0  0  0  0
   60.8260   30.0700   50.0570 N   0  0  0  0  0  0  0  0  0  0  0  0
   61.4720   30.9400   49.1120 C   0  0  0  0  0  0  0  0  0  0  0  0
   62.7770   31.3920   49.3860 C   0  0  0  0  0  0  0  0  0  0  0  0
   63.5160   30.8500   50.4610 C   0  0  0  0  0  0  0  0  0  0  0  0
   64.7750   31.3460   50.7840 C   0  0  0  0  0  0  0  0  0  0  0  0
   65.3140   32.4030   50.0600 C   0  0  0  0  0  0  0  0  0  0  0  0
   67.0210   33.1130   50.5430 Br  0  0  0  0  0  0  0  0  0  0  0  0
   64.6030   32.9560   48.9950 C   0  0  0  0  0  0  0  0  0  0  0  0
   63.3340   32.4450   48.6130 C   0  0  0  0  0  0  0  0  0  0  0  0
   62.6250   32.9780   47.5560 N   0  0  0  0  0  0  0  0  0  0  0  0
   63.2910   33.9110   46.6170 C   0  0  0  0  0  0  0  0  0  0  0  0
   61.3120   32.6040   47.3380 C   0  0  0  0  0  0  0  0  0  0  0  0
   60.4780   33.3240   46.4480 C   0  0  0  0  0  0  0  0  0  0  0  0
   59.2050   32.8640   46.1240 C   0  0  0  0  0  0  0  0  0  0  0  0
   58.1130   33.8480   44.9040 Br  0  0  0  0  0  0  0  0  0  0  0  0
   58.7500   31.6590   46.6440 C   0  0  0  0  0  0  0  0  0  0  0  0
   59.5190   30.9490   47.5670 C   0  0  0  0  0  0  0  0  0  0  0  0
   58.8940   29.1710   47.9630 Br  0  0  0  0  0  0  0  0  0  0  0  0
   60.7610   31.4820   48.0190 C   0  0  0  0  0  0  0  0  0  0  0  0
   55.2567   30.5405   53.0172 H   0  0  0  0  0  0  0  0  0  0  0  0
   54.8153   31.3356   51.4681 H   0  0  0  0  0  0  0  0  0  0  0  0
   55.9223   29.9209   51.4681 H   0  0  0  0  0  0  0  0  0  0  0  0
   56.9709   32.2827   51.2005 H   0  0  0  0  0  0  0  0  0  0  0  0
   56.5942   32.4644   52.9750 H   0  0  0  0  0  0  0  0  0  0  0  0
   58.7250   31.7420   52.9400 H   0  0  0  0  0  0  0  0  0  0  0  0
   57.8450   30.3570   53.2600 H   0  0  0  0  0  0  0  0  0  0  0  0
   58.5454   29.2640   51.5330 H   0  0  0  0  0  0  0  0  0  0  0  0
   58.3184   30.7517   50.4763 H   0  0  0  0  0  0  0  0  0  0  0  0
   60.4769   31.6233   51.4222 H   0  0  0  0  0  0  0  0  0  0  0  0
   60.7238   29.9686   52.1364 H   0  0  0  0  0  0  0  0  0  0  0  0
   60.7920   29.0470   49.8510 H   0  0  0  0  0  0  0  0  0  0  0  0
   63.0903   30.0247   51.0506 H   0  0  0  0  0  0  0  0  0  0  0  0
   65.3446   30.9012   51.6133 H   0  0  0  0  0  0  0  0  0  0  0  0
   65.0329   33.8034   48.4408 H   0  0  0  0  0  0  0  0  0  0  0  0
   63.8376   34.6768   47.1869 H   0  0  0  0  0  0  0  0  0  0  0  0
   63.9959   33.3526   45.9835 H   0  0  0  0  0  0  0  0  0  0  0  0
   62.5339   34.3962   45.9835 H   0  0  0  0  0  0  0  0  0  0  0  0
   60.8426   34.2627   46.0053 H   0  0  0  0  0  0  0  0  0  0  0  0
   57.7752   31.2610   46.3255 H   0  0  0  0  0  0  0  0  0  0  0  0
  1  2  1  0
  2  3  1  0
  3  4  1  0
  4  5  1  0
  5  6  1  0
  6  7  1  0
  7  8  2  0
  8  9  1  0
  9 10  2  0
 10 11  1  0
 11 12  1  0
 11 13  2  0
 13 14  1  0
 14 15  2  0
 15 16  1  0
 15 17  1  0
 17 18  2  0
 18 19  1  0
 19 20  1  0
 19 21  2  0
 21 22  1  0
 22 23  1  0
 22 24  2  0
 24  7  1  0
 14  8  1  0
 24 17  1  0
  1 25  1  0
  1 26  1  0
  1 27  1  0
  2 28  1  0
  2 29  1  0
  3 30  1  0
  3 31  1  0
  4 32  1  0
  4 33  1  0
  5 34  1  0
  5 35  1  0
  6 36  1  0
  9 37  1  0
 10 38  1  0
 13 39  1  0
 16 40  1  0
 16 41  1  0
 16 42  1  0
 18 43  1  0
 21 44  1  0
M  CHG  2   3   1  15   1
M  END
>  <UniqueID>  (4) 
4

>  <SMILES>  (4) 
CC[NH2+]CCNc1c2ccc(Br)cc2[n+](C)c2cc(Br)cc(Br)c12

>  <Energy>  (4) 
79.18852754917168

>  <Genealogy>  (4) 
CC[NH2+]CCNc1c2ccc(Br)cc2[n+](C)c2cc(Br)cc(Br)c12 (protonated)
CC[NH2+]CCNc1c2ccc(Br)cc2[n+](C)c2cc(Br)cc(Br)c12 (3D coordinates assigned)
CC[NH2+]CCNc1c2ccc(Br)cc2[n+](C)c2cc(Br)cc(Br)c12 (optimized conformer: 79.18852754917168 kcal/mol)

>  <smiles>  (4) 
CCNCCNc1c2ccc(Br)cc2[n+](C)c2cc(Br)cc(Br)c12

>  <score_type>  (4) 
oracle

>  <origin>  (4) 
adg

>  <m_score__min__energy>  (4) 
-4.8099999999999996

>  <m_primary>  (4) 
energy

$$$$
4:0
     RDKit          3D

 32 32  0  0  0  0  0  0  0  0999 V2000
   57.5351   32.6819   43.4484 H   0  0  0  0  0  0  0  0  0  0  0  0
   57.3690   32.3870   44.4950 C   0  0  0  0  0  0  0  0  0  0  0  0
   56.4040   31.5740   44.7800 N   0  0  0  0  0  0  0  0  0  0  0  0
   56.6400   30.2250   44.9130 O   0  0  0  0  0  0  0  0  0  0  0  0
   56.6930   29.3900   43.7680 C   0  0  0  0  0  0  0  0  0  0  0  0
   56.9096   30.0011   42.8794 H   0  0  0  0  0  0  0  0  0  0  0  0
   55.7247   28.8839   43.6408 H   0  0  0  0  0  0  0  0  0  0  0  0
   57.7860   28.3490   43.9440 C   0  0  0  0  0  0  0  0  0  0  0  0
   57.9627   28.1807   45.0166 H   0  0  0  0  0  0  0  0  0  0  0  0
   57.4738   27.4060   43.4714 H   0  0  0  0  0  0  0  0  0  0  0  0
   58.7126   28.7068   43.4714 H   0  0  0  0  0  0  0  0  0  0  0  0
   58.2510   32.9260   45.5480 C   0  0  0  0  0  0  0  0  0  0  0  0
   58.5830   32.1710   46.6870 C   0  0  0  0  0  0  0  0  0  0  0  0
   58.1809   31.1538   46.8037 H   0  0  0  0  0  0  0  0  0  0  0  0
   59.4200   32.7030   47.6720 C   0  0  0  0  0  0  0  0  0  0  0  0
   59.6737   32.1024   48.5579 H   0  0  0  0  0  0  0  0  0  0  0  0
   59.9400   34.0050   47.5350 C   0  0  0  0  0  0  0  0  0  0  0  0
   60.7850   34.5930   48.4900 O   0  0  0  0  0  0  0  0  0  0  0  0
   62.1300   34.1960   48.7660 C   0  0  0  0  0  0  0  0  0  0  0  0
   62.6560   35.0292   49.2550 H   0  0  0  0  0  0  0  0  0  0  0  0
   62.1031   33.3132   49.4217 H   0  0  0  0  0  0  0  0  0  0  0  0
   62.8770   33.8200   47.4800 C   0  0  0  0  0  0  0  0  0  0  0  0
   62.1926   33.9291   46.6258 H   0  0  0  0  0  0  0  0  0  0  0  0
   63.7440   34.4896   47.3799 H   0  0  0  0  0  0  0  0  0  0  0  0
   63.3900   32.3820   47.5220 C   0  0  0  0  0  0  0  0  0  0  0  0
   64.2459   32.2787   46.8388 H   0  0  0  0  0  0  0  0  0  0  0  0
   63.7049   32.1366   48.5470 H   0  0  0  0  0  0  0  0  0  0  0  0
   62.3830   31.5180   47.1320 F   0  0  0  0  0  0  0  0  0  0  0  0
   59.6120   34.7520   46.3980 C   0  0  0  0  0  0  0  0  0  0  0  0
   60.0168   35.7678   46.2782 H   0  0  0  0  0  0  0  0  0  0  0  0
   58.7750   34.2200   45.4130 C   0  0  0  0  0  0  0  0  0  0  0  0
   58.5255   34.8204   44.5257 H   0  0  0  0  0  0  0  0  0  0  0  0
  1  2  1  0
  2  3  2  0
  3  4  1  0
  4  5  1  0
  5  6  1  0
  5  7  1  0
  5  8  1  0
  8  9  1  0
  8 10  1  0
  8 11  1  0
  2 12  1  0
 12 13  2  0
 13 14  1  0
 13 15  1  0
 15 16  1  0
 15 17  2  0
 17 18  1  0
 18 19  1  0
 19 20  1  0
 19 21  1  0
 19 22  1  0
 22 23  1  0
 22 24  1  0
 22 25  1  0
 25 26  1  0
 25 27  1  0
 25 28  1  0
 17 29  1  0
 29 30  1  0
 29 31  2  0
 31 32  1  0
 31 12  1  0
M  END
>  <UniqueID>  (5) 
5

>  <SMILES>  (5) 
CCO/N=C/c1ccc(OCCCF)cc1

>  <Energy>  (5) 
18.528700052781403

>  <Genealogy>  (5) 
CCO/N=C/c1ccc(OCCCF)cc1 (cis-trans isomerization)
CCO/N=C/c1ccc(OCCCF)cc1 (3D coordinates assigned)
CCO/N=C/c1ccc(OCCCF)cc1 (optimized conformer: 18.528700052781403 kcal/mol)

>  <smiles>  (5) 
CCON=Cc1ccc(OCCCF)cc1

>  <score_type>  (5) 
oracle

>  <origin>  (5) 
adg

>  <m_score__min__energy>  (5) 
-5.3200000000000003

>  <m_primary>  (5) 
energy

$$$$
5:0
     RDKit          3D

 55 59  0  0  0  0  0  0  0  0999 V2000
   62.1680   33.8700   46.4450 C   0  0  0  0  0  0  0  0  0  0  0  0
   63.6570   33.5760   46.6110 C   0  0  0  0  0  0  0  0  0  0  0  0
   63.8650   32.3470   47.3940 N   0  0  0  0  0  0  0  0  0  0  0  0
   62.6460   31.9310   48.1110 C   0  0  0  0  0  0  0  0  0  0  0  0
   61.7910   30.9210   47.3100 C   0  0  0  0  0  0  0  0  0  0  0  0
   60.4480   30.6310   47.9980 C   0  0  0  0  0  0  0  0  0  0  0  0
   59.3690   31.4330   47.4150 N   0  0  0  0  0  0  0  0  0  0  0  0
   58.7250   31.0800   46.1800 C   0  0  0  0  0  0  0  0  0  0  0  0
   58.3760   32.0800   45.2530 C   0  0  0  0  0  0  0  0  0  0  0  0
   58.8400   33.9190   45.5250 Br  0  0  0  0  0  0  0  0  0  0  0  0
   57.7260   31.7370   44.0650 C   0  0  0  0  0  0  0  0  0  0  0  0
   57.4270   30.4060   43.7790 C   0  0  0  0  0  0  0  0  0  0  0  0
   57.7880   29.3930   44.6790 C   0  0  0  0  0  0  0  0  0  0  0  0
   57.4970   28.0570   44.3910 C   0  0  0  0  0  0  0  0  0  0  0  0
   57.8530   27.0450   45.3020 C   0  0  0  0  0  0  0  0  0  0  0  0
   58.4500   27.3870   46.4930 N   0  0  0  0  0  0  0  0  0  0  0  0
   58.7670   28.6870   46.7750 C   0  0  0  0  0  0  0  0  0  0  0  0
   58.4400   29.7240   45.8850 C   0  0  0  0  0  0  0  0  0  0  0  0
   58.8420   26.3430   47.4560 C   0  0  0  0  0  0  0  0  0  0  0  0
   57.8020   25.2200   47.5080 C   0  0  0  0  0  0  0  0  0  0  0  0
   57.5370   24.7030   46.1220 C   0  0  0  0  0  0  0  0  0  0  0  0
   57.2360   23.3400   45.9210 C   0  0  0  0  0  0  0  0  0  0  0  0
   56.9880   22.9130   44.6220 C   0  0  0  0  0  0  0  0  0  0  0  0
   57.0180   23.7640   43.5690 C   0  0  0  0  0  0  0  0  0  0  0  0
   57.2930   25.1190   43.7200 C   0  0  0  0  0  0  0  0  0  0  0  0
   57.5430   25.6100   45.0260 C   0  0  0  0  0  0  0  0  0  0  0  0
   56.7450   23.0670   42.4070 O   0  0  0  0  0  0  0  0  0  0  0  0
   56.5260   21.6940   42.7530 C   0  0  0  0  0  0  0  0  0  0  0  0
   56.6900   21.6390   44.1780 O   0  0  0  0  0  0  0  0  0  0  0  0
   61.6998   33.9624   47.4361 H   0  0  0  0  0  0  0  0  0  0  0  0
   62.0397   34.8108   45.8897 H   0  0  0  0  0  0  0  0  0  0  0  0
   61.6917   33.0485   45.8897 H   0  0  0  0  0  0  0  0  0  0  0  0
   64.1126   33.4517   45.6175 H   0  0  0  0  0  0  0  0  0  0  0  0
   64.1241   34.4166   47.1451 H   0  0  0  0  0  0  0  0  0  0  0  0
   64.6130   32.5200   48.1050 H   0  0  0  0  0  0  0  0  0  0  0  0
   64.1860   31.5730   46.7660 H   0  0  0  0  0  0  0  0  0  0  0  0
   62.9406   31.4644   49.0626 H   0  0  0  0  0  0  0  0  0  0  0  0
   62.0327   32.8305   48.2685 H   0  0  0  0  0  0  0  0  0  0  0  0
   61.5956   31.3355   46.3100 H   0  0  0  0  0  0  0  0  0  0  0  0
   62.3513   29.9765   47.2466 H   0  0  0  0  0  0  0  0  0  0  0  0
   60.2068   29.5644   47.8787 H   0  0  0  0  0  0  0  0  0  0  0  0
   60.5390   30.8917   49.0628 H   0  0  0  0  0  0  0  0  0  0  0  0
   59.1790   32.3770   47.8210 H   0  0  0  0  0  0  0  0  0  0  0  0
   57.4477   32.5243   43.3489 H   0  0  0  0  0  0  0  0  0  0  0  0
   56.9063   30.1495   42.8446 H   0  0  0  0  0  0  0  0  0  0  0  0
   56.9890   27.7959   43.4509 H   0  0  0  0  0  0  0  0  0  0  0  0
   59.2869   28.9250   47.7147 H   0  0  0  0  0  0  0  0  0  0  0  0
   59.8114   25.9207   47.1528 H   0  0  0  0  0  0  0  0  0  0  0  0
   58.9132   26.7988   48.4546 H   0  0  0  0  0  0  0  0  0  0  0  0
   58.1811   24.4007   48.1365 H   0  0  0  0  0  0  0  0  0  0  0  0
   56.8664   25.6126   47.9329 H   0  0  0  0  0  0  0  0  0  0  0  0
   57.1987   22.6368   46.7660 H   0  0  0  0  0  0  0  0  0  0  0  0
   57.3159   25.7913   42.8497 H   0  0  0  0  0  0  0  0  0  0  0  0
   55.5107   21.3808   42.4683 H   0  0  0  0  0  0  0  0  0  0  0  0
   57.2215   21.0204   42.2309 H   0  0  0  0  0  0  0  0  0  0  0  0
  1  2  1  0
  2  3  1  0
  3  4  1  0
  4  5  1  0
  5  6  1  0
  6  7  1  0
  7  8  1  0
  8  9  2  0
  9 10  1  0
  9 11  1  0
 11 12  2  0
 12 13  1  0
 13 14  2  0
 14 15  1  0
 15 16  2  0
 16 17  1  0
 17 18  2  0
 16 19  1  0
 19 20  1  0
 20 21  1  0
 21 22  2  0
 22 23  1  0
 23 24  2  0
 24 25  1  0
 25 26  2  0
 24 27  1  0
 27 28  1  0
 28 29  1  0
 18  8  1  0
 26 21  1  0
 18 13  1  0
 29 23  1  0
 26 15  1  0
  1 30  1  0
  1 31  1  0
  1 32  1  0
  2 33  1  0
  2 34  1  0
  3 35  1  0
  3 36  1  0
  4 37  1  0
  4 38  1  0
  5 39  1  0
  5 40  1  0
  6 41  1  0
  6 42  1  0
  7 43  1  0
 11 44  1  0
 12 45  1  0
 14 46  1  0
 17 47  1  0
 19 48  1  0
 19 49  1  0
 20 50  1  0
 20 51  1  0
 22 52  1  0
 25 53  1  0
 28 54  1  0
 28 55  1  0
M  CHG  2   3   1  16   1
M  END
>  <UniqueID>  (6) 
6

>  <SMILES>  (6) 
CC[NH2+]CCCNc1c(Br)ccc2cc3[n+](cc12)CCc1cc2c(cc1-3)OCO2

>  <Energy>  (6) 
100.02268029851774

>  <Genealogy>  (6) 
CC[NH2+]CCCNc1c(Br)ccc2cc3[n+](cc12)CCc1cc2c(cc1-3)OCO2 (protonated)
CC[NH2+]CCCNc1c(Br)ccc2cc3[n+](cc12)CCc1cc2c(cc1-3)OCO2 (3D coordinates assigned)
CC[NH2+]CCCNc1c(Br)ccc2cc3[n+](cc12)CCc1cc2c(cc1-3)OCO2 (nonaromatic ring conformer: 100.02268029851774 kcal/mol)

>  <smiles>  (6) 
CCNCCCNc1c(Br)ccc2cc3[n+](cc12)CCc1cc2c(cc1-3)OCO2

>  <score_type>  (6) 
oracle

>  <origin>  (6) 
adg

>  <m_score__min__energy>  (6) 
-5.6200000000000001

>  <m_primary>  (6) 
energy

$$$$
6:0
     RDKit          3D

 65 66  0  0  0  0  0  0  0  0999 V2000
   58.1520   27.1970   43.2180 C   0  0  0  0  0  0  0  0  0  0  0  0
   57.5100   28.3260   44.0410 C   0  0  0  0  0  0  0  0  0  0  0  0
   58.3290   29.5590   44.1900 N   0  0  0  0  0  0  0  0  0  0  0  0
   59.2940   29.5060   45.3150 C   0  0  0  0  0  0  0  0  0  0  0  0
   60.6380   28.8940   44.8990 C   0  0  0  0  0  0  0  0  0  0  0  0
   57.5160   30.7670   44.1990 C   0  0  0  0  0  0  0  0  0  0  0  0
   56.4190   30.7370   44.7440 O   0  0  0  0  0  0  0  0  0  0  0  0
   57.9930   32.0670   43.5720 C   0  0  0  0  0  0  0  0  0  0  0  0
   57.3900   33.3260   44.2250 C   0  0  0  0  0  0  0  0  0  0  0  0
   57.7860   33.4630   45.7090 C   0  0  0  0  0  0  0  0  0  0  0  0
   59.2820   33.1640   45.9540 C   0  0  0  0  0  0  0  0  0  0  0  0
   59.4940   32.2160   47.1510 C   0  0  0  0  0  0  0  0  0  0  0  0
   60.9860   31.9450   47.3750 C   0  0  0  0  0  0  0  0  0  0  0  0
   61.7370   33.2050   47.4700 N   0  0  0  0  0  0  0  0  0  0  0  0
   62.9350   33.2550   48.2650 C   0  0  0  0  0  0  0  0  0  0  0  0
   63.9990   33.7130   47.7620 O   0  0  0  0  0  0  0  0  0  0  0  0
   62.9490   32.7270   49.6760 C   0  0  0  0  0  0  0  0  0  0  0  0
   62.6820   31.2170   49.7490 C   0  0  0  0  0  0  0  0  0  0  0  0
   61.2660   30.9180   50.1710 C   0  0  0  0  0  0  0  0  0  0  0  0
   60.7110   29.6500   49.9360 C   0  0  0  0  0  0  0  0  0  0  0  0
   59.3900   29.3750   50.3060 C   0  0  0  0  0  0  0  0  0  0  0  0
   58.6010   30.3720   50.9120 C   0  0  0  0  0  0  0  0  0  0  0  0
   57.2710   30.1490   51.2990 O   0  0  0  0  0  0  0  0  0  0  0  0
   56.8210   30.1280   52.6490 C   0  0  0  0  0  0  0  0  0  0  0  0
   59.1560   31.6380   51.1370 C   0  0  0  0  0  0  0  0  0  0  0  0
   60.4750   31.9120   50.7680 C   0  0  0  0  0  0  0  0  0  0  0  0
   61.5430   34.2040   46.4130 C   0  0  0  0  0  0  0  0  0  0  0  0
   60.0520   34.4750   46.1960 C   0  0  0  0  0  0  0  0  0  0  0  0
   58.5795   26.4452   43.8978 H   0  0  0  0  0  0  0  0  0  0  0  0
   57.3872   26.7251   42.5837 H   0  0  0  0  0  0  0  0  0  0  0  0
   58.9486   27.6130   42.5837 H   0  0  0  0  0  0  0  0  0  0  0  0
   56.5644   28.6048   43.5530 H   0  0  0  0  0  0  0  0  0  0  0  0
   57.3846   27.9236   45.0571 H   0  0  0  0  0  0  0  0  0  0  0  0
   58.9110   29.5960   43.3170 H   0  0  0  0  0  0  0  0  0  0  0  0
   59.4686   30.5288   45.6801 H   0  0  0  0  0  0  0  0  0  0  0  0
   58.8618   28.8683   46.1002 H   0  0  0  0  0  0  0  0  0  0  0  0
   61.2151   28.6312   45.7978 H   0  0  0  0  0  0  0  0  0  0  0  0
   60.4590   27.9886   44.3005 H   0  0  0  0  0  0  0  0  0  0  0  0
   61.2034   29.6234   44.3005 H   0  0  0  0  0  0  0  0  0  0  0  0
   59.0878   32.1171   43.6662 H   0  0  0  0  0  0  0  0  0  0  0  0
   57.6627   32.0587   42.5228 H   0  0  0  0  0  0  0  0  0  0  0  0
   57.7472   34.2124   43.6804 H   0  0  0  0  0  0  0  0  0  0  0  0
   56.2946   33.2384   44.1760 H   0  0  0  0  0  0  0  0  0  0  0  0
   57.5738   34.4913   46.0369 H   0  0  0  0  0  0  0  0  0  0  0  0
   57.2009   32.7267   46.2796 H   0  0  0  0  0  0  0  0  0  0  0  0
   59.6663   32.6639   45.0528 H   0  0  0  0  0  0  0  0  0  0  0  0
   59.0718   32.6779   48.0557 H   0  0  0  0  0  0  0  0  0  0  0  0
   58.9911   31.2613   46.9373 H   0  0  0  0  0  0  0  0  0  0  0  0
   61.1133   31.3780   48.3090 H   0  0  0  0  0  0  0  0  0  0  0  0
   61.3716   31.3683   46.5213 H   0  0  0  0  0  0  0  0  0  0  0  0
   63.9354   32.9312   50.1179 H   0  0  0  0  0  0  0  0  0  0  0  0
   62.1424   33.2329   50.2269 H   0  0  0  0  0  0  0  0  0  0  0  0
   62.8584   30.7760   48.7568 H   0  0  0  0  0  0  0  0  0  0  0  0
   63.3605   30.7860   50.4999 H   0  0  0  0  0  0  0  0  0  0  0  0
   61.3187   28.8676   49.4579 H   0  0  0  0  0  0  0  0  0  0  0  0
   58.9661   28.3766   50.1230 H   0  0  0  0  0  0  0  0  0  0  0  0
   57.6878   30.1684   53.3251 H   0  0  0  0  0  0  0  0  0  0  0  0
   56.1718   30.9968   52.8327 H   0  0  0  0  0  0  0  0  0  0  0  0
   56.2556   29.2025   52.8327 H   0  0  0  0  0  0  0  0  0  0  0  0
   58.5476   32.4238   51.6086 H   0  0  0  0  0  0  0  0  0  0  0  0
   60.8962   32.9124   50.9463 H   0  0  0  0  0  0  0  0  0  0  0  0
   62.0421   35.1400   46.7040 H   0  0  0  0  0  0  0  0  0  0  0  0
   61.9737   33.8187   45.4770 H   0  0  0  0  0  0  0  0  0  0  0  0
   59.6434   34.9727   47.0878 H   0  0  0  0  0  0  0  0  0  0  0  0
   59.9380   35.1168   45.3100 H   0  0  0  0  0  0  0  0  0  0  0  0
  1  2  1  0
  2  3  1  0
  3  4  1  0
  4  5  1  0
  3  6  1  0
  6  7  2  0
  6  8  1  0
  8  9  1  0
  9 10  1  0
 10 11  1  0
 11 12  1  0
 12 13  1  0
 13 14  1  0
 14 15  1  0
 15 16  2  0
 15 17  1  0
 17 18  1  0
 18 19  1  0
 19 20  2  0
 20 21  1  0
 21 22  2  0
 22 23  1  0
 23 24  1  0
 22 25  1  0
 25 26  2  0
 14 27  1  0
 27 28  1  0
 28 11  1  0
 26 19  1  0
  1 29  1  0
  1 30  1  0
  1 31  1  0
  2 32  1  0
  2 33  1  0
  3 34  1  0
  4 35  1  0
  4 36  1  0
  5 37  1  0
  5 38  1  0
  5 39  1  0
  8 40  1  0
  8 41  1  0
  9 42  1  0
  9 43  1  0
 10 44  1  0
 10 45  1  0
 11 46  1  0
 12 47  1  0
 12 48  1  0
 13 49  1  0
 13 50  1  0
 17 51  1  0
 17 52  1  0
 18 53  1  0
 18 54  1  0
 20 55  1  0
 21 56  1  0
 24 57  1  0
 24 58  1  0
 24 59  1  0
 25 60  1  0
 26 61  1  0
 27 62  1  0
 27 63  1  0
 28 64  1  0
 28 65  1  0
M  CHG  1   3   1
M  END
>  <UniqueID>  (7) 
7

>  <SMILES>  (7) 
CC[NH+](CC)C(=O)CCCC1CCN(C(=O)CCc2ccc(OC)cc2)CC1

>  <Energy>  (7) 
60.70959275000511

>  <Genealogy>  (7) 
CC[NH+](CC)C(=O)CCCC1CCN(C(=O)CCc2ccc(OC)cc2)CC1 (protonated)
CC[NH+](CC)C(=O)CCCC1CCN(C(=O)CCc2ccc(OC)cc2)CC1 (3D coordinates assigned)
CC[NH+](CC)C(=O)CCCC1CCN(C(=O)CCc2ccc(OC)cc2)CC1 (nonaromatic ring conformer: 60.70959275000511 kcal/mol)

>  <smiles>  (7) 
CCN(CC)C(=O)CCCC1CCN(C(=O)CCc2ccc(OC)cc2)CC1

>  <score_type>  (7) 
oracle

>  <origin>  (7) 
adg

>  <m_score__min__energy>  (7) 
-6.79

>  <m_primary>  (7) 
energy

$$$$
7:0
     RDKit          3D

 49 52  0  0  0  0  0  0  0  0999 V2000
   56.6230   29.7100   43.4860 C   0  0  0  0  0  0  0  0  0  0  0  0
   57.2450   29.3770   44.7610 N   0  0  0  0  0  0  0  0  0  0  0  0
   57.5920   30.2750   45.6780 N   0  0  0  0  0  0  0  0  0  0  0  0
   58.1420   29.6010   46.7180 C   0  0  0  0  0  0  0  0  0  0  0  0
   58.6330   30.1930   47.8830 O   0  0  0  0  0  0  0  0  0  0  0  0
   59.4840   31.3340   47.8540 C   0  0  0  0  0  0  0  0  0  0  0  0
   58.7170   32.5520   48.3650 C   0  0  0  0  0  0  0  0  0  0  0  0
   59.3610   33.8600   47.8550 C   0  0  0  0  0  0  0  0  0  0  0  0
   58.5640   34.5800   46.8340 N   0  0  0  0  0  0  0  0  0  0  0  0
   57.3930   33.8340   46.3590 C   0  0  0  0  0  0  0  0  0  0  0  0
   57.6960   33.3140   44.9600 C   0  0  0  0  0  0  0  0  0  0  0  0
   58.9360   34.0570   44.4970 C   0  0  0  0  0  0  0  0  0  0  0  0
   59.3360   34.9710   45.6470 C   0  0  0  0  0  0  0  0  0  0  0  0
   58.1390   28.2530   46.4430 C   0  0  0  0  0  0  0  0  0  0  0  0
   58.5780   27.1450   47.1580 C   0  0  0  0  0  0  0  0  0  0  0  0
   58.4170   25.8820   46.5620 C   0  0  0  0  0  0  0  0  0  0  0  0
   57.8270   25.7500   45.2730 C   0  0  0  0  0  0  0  0  0  0  0  0
   57.6640   24.4090   44.6560 C   0  0  0  0  0  0  0  0  0  0  0  0
   58.4640   23.3290   45.0670 C   0  0  0  0  0  0  0  0  0  0  0  0
   58.2930   22.0760   44.4740 C   0  0  0  0  0  0  0  0  0  0  0  0
   57.3580   21.9020   43.5030 N   0  0  0  0  0  0  0  0  0  0  0  0
   56.5690   22.9250   43.0840 C   0  0  0  0  0  0  0  0  0  0  0  0
   56.7050   24.1940   43.6500 C   0  0  0  0  0  0  0  0  0  0  0  0
   57.3970   26.9110   44.5830 C   0  0  0  0  0  0  0  0  0  0  0  0
   57.5720   28.1470   45.2060 C   0  0  0  0  0  0  0  0  0  0  0  0
   55.6665   30.2221   43.6673 H   0  0  0  0  0  0  0  0  0  0  0  0
   57.2904   30.3715   42.9141 H   0  0  0  0  0  0  0  0  0  0  0  0
   56.4426   28.7878   42.9141 H   0  0  0  0  0  0  0  0  0  0  0  0
   60.3592   31.1555   48.4960 H   0  0  0  0  0  0  0  0  0  0  0  0
   59.8185   31.5168   46.8222 H   0  0  0  0  0  0  0  0  0  0  0  0
   57.6776   32.4991   48.0087 H   0  0  0  0  0  0  0  0  0  0  0  0
   58.7457   32.5506   49.4646 H   0  0  0  0  0  0  0  0  0  0  0  0
   59.5039   34.5307   48.7151 H   0  0  0  0  0  0  0  0  0  0  0  0
   60.3063   33.5749   47.3701 H   0  0  0  0  0  0  0  0  0  0  0  0
   57.1902   32.9897   47.0343 H   0  0  0  0  0  0  0  0  0  0  0  0
   56.5086   34.4877   46.3383 H   0  0  0  0  0  0  0  0  0  0  0  0
   57.8874   32.2311   44.9879 H   0  0  0  0  0  0  0  0  0  0  0  0
   56.8495   33.4781   44.2770 H   0  0  0  0  0  0  0  0  0  0  0  0
   59.7459   33.3465   44.2749 H   0  0  0  0  0  0  0  0  0  0  0  0
   58.7412   34.6296   43.5782 H   0  0  0  0  0  0  0  0  0  0  0  0
   60.4117   34.8642   45.8506 H   0  0  0  0  0  0  0  0  0  0  0  0
   59.1296   36.0200   45.3881 H   0  0  0  0  0  0  0  0  0  0  0  0
   59.0344   27.2523   48.1531 H   0  0  0  0  0  0  0  0  0  0  0  0
   58.7518   24.9825   47.0994 H   0  0  0  0  0  0  0  0  0  0  0  0
   59.2214   23.4699   45.8522 H   0  0  0  0  0  0  0  0  0  0  0  0
   58.9165   21.2280   44.7936 H   0  0  0  0  0  0  0  0  0  0  0  0
   55.8206   22.7532   42.2964 H   0  0  0  0  0  0  0  0  0  0  0  0
   56.0650   25.0218   43.3107 H   0  0  0  0  0  0  0  0  0  0  0  0
   56.9387   26.8396   43.5856 H   0  0  0  0  0  0  0  0  0  0  0  0
  1  2  1  0
  2  3  1  0
  3  4  2  0
  4  5  1  0
  5  6  1  0
  6  7  1  0
  7  8  1  0
  8  9  1  0
  9 10  1  0
 10 11  1  0
 11 12  1  0
 12 13  1  0
  4 14  1  0
 14 15  2  0
 15 16  1  0
 16 17  2  0
 17 18  1  0
 18 19  2  0
 19 20  1  0
 20 21  2  0
 21 22  1  0
 22 23  2  0
 17 24  1  0
 24 25  2  0
 25  2  1  0
 13  9  1  0
 25 14  1  0
 23 18  1  0
  1 26  1  0
  1 27  1  0
  1 28  1  0
  6 29  1  0
  6 30  1  0
  7 31  1  0
  7 32  1  0
  8 33  1  0
  8 34  1  0
 10 35  1  0
 10 36  1  0
 11 37  1  0
 11 38  1  0
 12 39  1  0
 12 40  1  0
 13 41  1  0
 13 42  1  0
 15 43  1  0
 16 44  1  0
 19 45  1  0
 20 46  1  0
 22 47  1  0
 23 48  1  0
 24 49  1  0
M  END
>  <UniqueID>  (8) 
8

>  <SMILES>  (8) 
Cn1nc(OCCCN2CCCC2)c2ccc(-c3ccncc3)cc21

>  <Energy>  (8) 
96.57651532041682

>  <Genealogy>  (8) 
Cn1nc(OCCCN2CCCC2)c2ccc(-c3ccncc3)cc21 (3D coordinates assigned)
Cn1nc(OCCCN2CCCC2)c2ccc(-c3ccncc3)cc21 (nonaromatic ring conformer: 96.57651532041682 kcal/mol)

>  <smiles>  (8) 
Cn1nc(OCCCN2CCCC2)c2ccc(-c3ccncc3)cc21

>  <score_type>  (8) 
oracle

>  <origin>  (8) 
adg

>  <m_score__min__energy>  (8) 
-7.7699999999999996

>  <m_primary>  (8) 
energy

$$$$
8:0
     RDKit          3D

 56 58  0  0  0  0  0  0  0  0999 V2000
   57.7700   33.0810   52.2910 C   0  0  0  0  0  0  0  0  0  0  0  0
   59.1040   33.7520   51.9800 C   0  0  0  0  0  0  0  0  0  0  0  0
   60.1640   33.0540   52.6070 O   0  0  0  0  0  0  0  0  0  0  0  0
   61.3540   33.1250   51.8420 C   0  0  0  0  0  0  0  0  0  0  0  0
   62.0570   31.7560   51.7690 C   0  0  0  0  0  0  0  0  0  0  0  0
   61.2110   30.6380   52.2260 N   0  0  0  0  0  0  0  0  0  0  0  0
   61.0620   29.5890   51.2040 C   0  0  0  0  0  0  0  0  0  0  0  0
   60.4960   30.1710   49.9340 C   0  0  0  0  0  0  0  0  0  0  0  0
   61.1570   29.9800   48.7110 C   0  0  0  0  0  0  0  0  0  0  0  0
   60.6530   30.5560   47.5400 C   0  0  0  0  0  0  0  0  0  0  0  0
   59.4950   31.3460   47.5830 C   0  0  0  0  0  0  0  0  0  0  0  0
   58.9590   31.9520   46.3480 C   0  0  0  0  0  0  0  0  0  0  0  0
   58.3060   31.1100   45.4340 C   0  0  0  0  0  0  0  0  0  0  0  0
   57.8280   31.6110   44.2240 C   0  0  0  0  0  0  0  0  0  0  0  0
   58.0020   32.9560   43.9110 C   0  0  0  0  0  0  0  0  0  0  0  0
   58.6370   33.8100   44.8140 C   0  0  0  0  0  0  0  0  0  0  0  0
   59.1050   33.3350   46.0520 C   0  0  0  0  0  0  0  0  0  0  0  0
   59.8730   34.4570   47.2120 S   0  0  0  0  0  0  0  0  0  0  0  0
   59.6470   35.8680   46.7460 O   0  0  0  0  0  0  0  0  0  0  0  0
   59.2080   34.2850   48.5500 O   0  0  0  0  0  0  0  0  0  0  0  0
   61.6020   34.2720   47.4160 N   0  0  0  0  0  0  0  0  0  0  0  0
   62.2090   33.4040   46.4080 C   0  0  0  0  0  0  0  0  0  0  0  0
   63.3940   32.7310   47.0720 C   0  0  0  0  0  0  0  0  0  0  0  0
   63.0460   32.6980   48.5460 C   0  0  0  0  0  0  0  0  0  0  0  0
   61.9900   33.7800   48.7420 C   0  0  0  0  0  0  0  0  0  0  0  0
   58.8320   31.5360   48.8040 C   0  0  0  0  0  0  0  0  0  0  0  0
   59.3360   30.9610   49.9750 C   0  0  0  0  0  0  0  0  0  0  0  0
   57.6382   33.0147   53.3811 H   0  0  0  0  0  0  0  0  0  0  0  0
   56.9513   33.6745   51.8581 H   0  0  0  0  0  0  0  0  0  0  0  0
   57.7584   32.0698   51.8581 H   0  0  0  0  0  0  0  0  0  0  0  0
   59.2643   33.7534   50.8917 H   0  0  0  0  0  0  0  0  0  0  0  0
   59.0819   34.7842   52.3595 H   0  0  0  0  0  0  0  0  0  0  0  0
   61.1051   33.4545   50.8224 H   0  0  0  0  0  0  0  0  0  0  0  0
   62.0357   33.8391   52.3271 H   0  0  0  0  0  0  0  0  0  0  0  0
   62.3481   31.5688   50.7249 H   0  0  0  0  0  0  0  0  0  0  0  0
   62.9264   31.8012   52.4414 H   0  0  0  0  0  0  0  0  0  0  0  0
   61.6000   30.2270   53.1070 H   0  0  0  0  0  0  0  0  0  0  0  0
   60.2640   31.0290   52.4470 H   0  0  0  0  0  0  0  0  0  0  0  0
   62.0465   29.1461   50.9927 H   0  0  0  0  0  0  0  0  0  0  0  0
   60.3743   28.8178   51.5812 H   0  0  0  0  0  0  0  0  0  0  0  0
   62.0749   29.3751   48.6729 H   0  0  0  0  0  0  0  0  0  0  0  0
   61.1669   30.3887   46.5819 H   0  0  0  0  0  0  0  0  0  0  0  0
   58.1703   30.0453   45.6747 H   0  0  0  0  0  0  0  0  0  0  0  0
   57.3135   30.9436   43.5169 H   0  0  0  0  0  0  0  0  0  0  0  0
   57.6381   33.3469   42.9494 H   0  0  0  0  0  0  0  0  0  0  0  0
   58.7733   34.8700   44.5535 H   0  0  0  0  0  0  0  0  0  0  0  0
   61.4836   32.6489   46.0710 H   0  0  0  0  0  0  0  0  0  0  0  0
   62.5237   33.9808   45.5258 H   0  0  0  0  0  0  0  0  0  0  0  0
   63.5282   31.7109   46.6828 H   0  0  0  0  0  0  0  0  0  0  0  0
   64.3358   33.2659   46.8801 H   0  0  0  0  0  0  0  0  0  0  0  0
   62.6426   31.7130   48.8234 H   0  0  0  0  0  0  0  0  0  0  0  0
   63.9299   32.8727   49.1770 H   0  0  0  0  0  0  0  0  0  0  0  0
   61.1135   33.3589   49.2563 H   0  0  0  0  0  0  0  0  0  0  0  0
   62.3899   34.6011   49.3550 H   0  0  0  0  0  0  0  0  0  0  0  0
   57.9128   32.1391   48.8408 H   0  0  0  0  0  0  0  0  0  0  0  0
   58.8212   31.1284   50.9326 H   0  0  0  0  0  0  0  0  0  0  0  0
  1  2  1  0
  2  3  1  0
  3  4  1  0
  4  5  1  0
  5  6  1  0
  6  7  1  0
  7  8  1  0
  8  9  2  0
  9 10  1  0
 10 11  2  0
 11 12  1  0
 12 13  2  0
 13 14  1  0
 14 15  2  0
 15 16  1  0
 16 17  2  0
 17 18  1  0
 18 19  2  0
 18 20  2  0
 18 21  1  0
 21 22  1  0
 22 23  1  0
 23 24  1  0
 24 25  1  0
 11 26  1  0
 26 27  2  0
 27  8  1  0
 17 12  1  0
 25 21  1  0
  1 28  1  0
  1 29  1  0
  1 30  1  0
  2 31  1  0
  2 32  1  0
  4 33  1  0
  4 34  1  0
  5 35  1  0
  5 36  1  0
  6 37  1  0
  6 38  1  0
  7 39  1  0
  7 40  1  0
  9 41  1  0
 10 42  1  0
 13 43  1  0
 14 44  1  0
 15 45  1  0
 16 46  1  0
 22 47  1  0
 22 48  1  0
 23 49  1  0
 23 50  1  0
 24 51  1  0
 24 52  1  0
 25 53  1  0
 25 54  1  0
 26 55  1  0
 27 56  1  0
M  CHG  1   6   1
M  END
>  <UniqueID>  (9) 
9

>  <SMILES>  (9) 
CCOCC[NH2+]Cc1ccc(-c2ccccc2S(=O)(=O)N2CCCC2)cc1

>  <Energy>  (9) 
68.9483623307613

>  <Genealogy>  (9) 
CCOCC[NH2+]Cc1ccc(-c2ccccc2S(=O)(=O)N2CCCC2)cc1 (protonated)
CCOCC[NH2+]Cc1ccc(-c2ccccc2S(=O)(=O)N2CCCC2)cc1 (3D coordinates assigned)
CCOCC[NH2+]Cc1ccc(-c2ccccc2S(=O)(=O)N2CCCC2)cc1 (nonaromatic ring conformer: 68.9483623307613 kcal/mol)

>  <smiles>  (9) 
CCOCCNCc1ccc(-c2ccccc2S(=O)(=O)N2CCCC2)cc1

>  <score_type>  (9) 
oracle

>  <origin>  (9) 
adg

>  <m_score__min__energy>  (9) 
-6.96

>  <m_primary>  (9) 
energy

$$$$
9:0
     RDKit          3D

 52 55  0  0  0  0  0  0  0  0999 V2000
   57.7540   25.7760   44.4260 C   0  0  0  0  0  0  0  0  0  0  0  0
   57.8320   26.8680   45.5160 C   0  0  1  0  0  0  0  0  0  0  0  0
   58.9720   26.5690   46.4850 C   0  0  0  0  0  0  0  0  0  0  0  0
   60.1630   27.3460   45.9420 C   0  0  0  0  0  0  0  0  0  0  0  0
   59.5890   28.3130   44.9090 C   0  0  0  0  0  0  0  0  0  0  0  0
   58.1280   28.2190   45.0000 N   0  0  0  0  0  0  0  0  0  0  0  0
   57.4520   28.6360   43.7540 C   0  0  0  0  0  0  0  0  0  0  0  0
   56.5870   29.8850   43.9770 C   0  0  0  0  0  0  0  0  0  0  0  0
   57.4210   31.0540   44.4360 C   0  0  0  0  0  0  0  0  0  0  0  0
   57.5790   32.1830   43.6170 C   0  0  0  0  0  0  0  0  0  0  0  0
   58.3070   33.2860   44.0690 C   0  0  0  0  0  0  0  0  0  0  0  0
   58.8750   33.2860   45.3540 C   0  0  0  0  0  0  0  0  0  0  0  0
   59.6460   34.4870   45.8460 C   0  0  0  0  0  0  0  0  0  0  0  0
   60.1710   34.2670   47.2520 C   0  0  0  0  0  0  0  0  0  0  0  0
   59.2770   34.4310   48.3260 C   0  0  0  0  0  0  0  0  0  0  0  0
   59.6850   34.2080   49.6390 C   0  0  0  0  0  0  0  0  0  0  0  0
   60.9910   33.8100   49.9110 C   0  0  0  0  0  0  0  0  0  0  0  0
   61.9070   33.6300   48.8660 C   0  0  0  0  0  0  0  0  0  0  0  0
   63.2200   33.2220   49.1510 C   0  0  0  0  0  0  0  0  0  0  0  0
   64.1390   33.0380   48.1190 C   0  0  0  0  0  0  0  0  0  0  0  0
   63.7600   33.2630   46.7960 C   0  0  0  0  0  0  0  0  0  0  0  0
   62.4590   33.6720   46.4950 C   0  0  0  0  0  0  0  0  0  0  0  0
   61.5080   33.8600   47.5200 C   0  0  0  0  0  0  0  0  0  0  0  0
   58.7380   32.1460   46.1620 C   0  0  0  0  0  0  0  0  0  0  0  0
   58.0110   31.0420   45.7090 C   0  0  0  0  0  0  0  0  0  0  0  0
   57.6834   24.7870   44.9022 H   0  0  0  0  0  0  0  0  0  0  0  0
   56.8657   25.9457   43.7998 H   0  0  0  0  0  0  0  0  0  0  0  0
   58.6574   25.8178   43.7998 H   0  0  0  0  0  0  0  0  0  0  0  0
   56.8358   26.8542   45.9823 H   0  0  0  0  0  0  0  0  0  0  0  0
   58.7172   26.9104   47.4992 H   0  0  0  0  0  0  0  0  0  0  0  0
   59.1801   25.4914   46.5590 H   0  0  0  0  0  0  0  0  0  0  0  0
   60.6606   27.9003   46.7514 H   0  0  0  0  0  0  0  0  0  0  0  0
   60.9157   26.6777   45.4984 H   0  0  0  0  0  0  0  0  0  0  0  0
   59.9161   29.3398   45.1298 H   0  0  0  0  0  0  0  0  0  0  0  0
   59.9368   28.0586   43.8969 H   0  0  0  0  0  0  0  0  0  0  0  0
   58.2128   28.8590   42.9914 H   0  0  0  0  0  0  0  0  0  0  0  0
   56.7974   27.8159   43.4241 H   0  0  0  0  0  0  0  0  0  0  0  0
   56.0888   30.1491   43.0325 H   0  0  0  0  0  0  0  0  0  0  0  0
   55.8460   29.6592   44.7580 H   0  0  0  0  0  0  0  0  0  0  0  0
   57.1272   32.1992   42.6142 H   0  0  0  0  0  0  0  0  0  0  0  0
   58.4365   34.1605   43.4145 H   0  0  0  0  0  0  0  0  0  0  0  0
   60.4952   34.6688   45.1708 H   0  0  0  0  0  0  0  0  0  0  0  0
   58.9677   35.3529   45.8603 H   0  0  0  0  0  0  0  0  0  0  0  0
   58.2404   34.7399   48.1258 H   0  0  0  0  0  0  0  0  0  0  0  0
   58.9719   34.3470   50.4649 H   0  0  0  0  0  0  0  0  0  0  0  0
   61.3052   33.6361   50.9507 H   0  0  0  0  0  0  0  0  0  0  0  0
   63.5248   33.0468   50.1933 H   0  0  0  0  0  0  0  0  0  0  0  0
   65.1650   32.7147   48.3487 H   0  0  0  0  0  0  0  0  0  0  0  0
   64.4893   33.1176   45.9855 H   0  0  0  0  0  0  0  0  0  0  0  0
   62.1728   33.8494   45.4478 H   0  0  0  0  0  0  0  0  0  0  0  0
   59.2056   32.1218   47.1574 H   0  0  0  0  0  0  0  0  0  0  0  0
   57.9006   30.1581   46.3543 H   0  0  0  0  0  0  0  0  0  0  0  0
  1  2  1  0
  2  3  1  0
  3  4  1  0
  4  5  1  0
  5  6  1  0
  6  7  1  0
  7  8  1  0
  8  9  1  0
  9 10  2  0
 10 11  1  0
 11 12  2  0
 12 13  1  0
 13 14  1  0
 14 15  2  0
 15 16  1  0
 16 17  2  0
 17 18  1  0
 18 19  2  0
 19 20  1  0
 20 21  2  0
 21 22  1  0
 22 23  2  0
 12 24  1  0
 24 25  2  0
  6  2  1  0
 25  9  1  0
 23 14  1  0
 23 18  1  0
  1 26  1  0
  1 27  1  0
  1 28  1  0
  2 29  1  1
  3 30  1  0
  3 31  1  0
  4 32  1  0
  4 33  1  0
  5 34  1  0
  5 35  1  0
  7 36  1  0
  7 37  1  0
  8 38  1  0
  8 39  1  0
 10 40  1  0
 11 41  1  0
 13 42  1  0
 13 43  1  0
 15 44  1  0
 16 45  1  0
 17 46  1  0
 19 47  1  0
 20 48  1  0
 21 49  1  0
 22 50  1  0
 24 51  1  0
 25 52  1  0
M  END
>  <UniqueID>  (10) 
10

>  <SMILES>  (10) 
C[C@H]1CCCN1CCc1ccc(Cc2cccc3ccccc23)cc1

>  <Energy>  (10) 
62.9587436415188

>  <Genealogy>  (10) 
C[C@H]1CCCN1CCc1ccc(Cc2cccc3ccccc23)cc1 (chirality)
C[C@H]1CCCN1CCc1ccc(Cc2cccc3ccccc23)cc1 (3D coordinates assigned)
C[C@H]1CCCN1CCc1ccc(Cc2cccc3ccccc23)cc1 (nonaromatic ring conformer: 62.9587436415188 kcal/mol)

>  <smiles>  (10) 
CC1CCCN1CCc1ccc(Cc2cccc3ccccc23)cc1

>  <score_type>  (10) 
oracle

>  <origin>  (10) 
adg

>  <m_score__min__energy>  (10) 
-9.1600000000000001

>  <m_primary>  (10) 
energy

$$$$
10:0
     RDKit          3D

 43 44  0  0  0  0  0  0  0  0999 V2000
   57.3930   32.3540   40.9480 C   0  0  0  0  0  0  0  0  0  0  0  0
   57.5930   31.6200   42.2730 C   0  0  0  0  0  0  0  0  0  0  0  0
   58.0460   32.5530   43.4070 C   0  0  0  0  0  0  0  0  0  0  0  0
   57.3810   32.0740   45.0000 S   0  0  0  0  0  0  0  0  0  0  0  0
   56.8650   33.2900   45.7170 O   0  0  0  0  0  0  0  0  0  0  0  0
   56.2180   31.1430   44.8020 O   0  0  0  0  0  0  0  0  0  0  0  0
   58.6170   31.2690   45.9900 C   0  0  0  0  0  0  0  0  0  0  0  0
   59.3600   30.2400   45.3840 C   0  0  0  0  0  0  0  0  0  0  0  0
   60.2380   29.4570   46.1290 C   0  0  0  0  0  0  0  0  0  0  0  0
   60.3620   29.6630   47.4980 C   0  0  0  0  0  0  0  0  0  0  0  0
   59.6490   30.6880   48.1190 C   0  0  0  0  0  0  0  0  0  0  0  0
   58.8320   31.5650   47.3700 C   0  0  0  0  0  0  0  0  0  0  0  0
   58.1580   32.6690   48.0320 N   0  0  0  0  0  0  0  0  0  0  0  0
   58.8210   33.9820   47.8750 C   0  0  0  0  0  0  0  0  0  0  0  0
   59.9790   34.2160   48.8690 C   0  0  0  0  0  0  0  0  0  0  0  0
   61.3150   33.7670   48.3320 C   0  0  0  0  0  0  0  0  0  0  0  0
   62.2650   33.1840   49.1880 C   0  0  0  0  0  0  0  0  0  0  0  0
   63.4870   32.7310   48.6800 C   0  0  0  0  0  0  0  0  0  0  0  0
   63.7740   32.8660   47.3190 C   0  0  0  0  0  0  0  0  0  0  0  0
   62.8430   33.4630   46.4650 C   0  0  0  0  0  0  0  0  0  0  0  0
   61.6230   33.9190   46.9690 C   0  0  0  0  0  0  0  0  0  0  0  0
   57.1086   33.3979   41.1464 H   0  0  0  0  0  0  0  0  0  0  0  0
   58.3298   32.3324   40.3718 H   0  0  0  0  0  0  0  0  0  0  0  0
   56.5967   31.8602   40.3718 H   0  0  0  0  0  0  0  0  0  0  0  0
   56.6409   31.1512   42.5625 H   0  0  0  0  0  0  0  0  0  0  0  0
   58.3859   30.8727   42.1217 H   0  0  0  0  0  0  0  0  0  0  0  0
   59.1444   32.5320   43.4630 H   0  0  0  0  0  0  0  0  0  0  0  0
   57.6707   33.5615   43.1788 H   0  0  0  0  0  0  0  0  0  0  0  0
   59.2459   30.0511   44.3064 H   0  0  0  0  0  0  0  0  0  0  0  0
   60.8334   28.6755   45.6342 H   0  0  0  0  0  0  0  0  0  0  0  0
   61.0238   29.0162   48.0927 H   0  0  0  0  0  0  0  0  0  0  0  0
   59.7236   30.8160   49.2090 H   0  0  0  0  0  0  0  0  0  0  0  0
   58.1050   32.4450   49.0530 H   0  0  0  0  0  0  0  0  0  0  0  0
   57.1820   32.7880   47.6870 H   0  0  0  0  0  0  0  0  0  0  0  0
   59.2221   34.0484   46.8529 H   0  0  0  0  0  0  0  0  0  0  0  0
   58.0620   34.7516   48.0792 H   0  0  0  0  0  0  0  0  0  0  0  0
   60.0352   35.2910   49.0952 H   0  0  0  0  0  0  0  0  0  0  0  0
   59.7675   33.6184   49.7679 H   0  0  0  0  0  0  0  0  0  0  0  0
   62.0468   33.0836   50.2614 H   0  0  0  0  0  0  0  0  0  0  0  0
   64.2234   32.2676   49.3530 H   0  0  0  0  0  0  0  0  0  0  0  0
   64.7325   32.5024   46.9201 H   0  0  0  0  0  0  0  0  0  0  0  0
   63.0713   33.5739   45.3947 H   0  0  0  0  0  0  0  0  0  0  0  0
   60.8987   34.4000   46.2952 H   0  0  0  0  0  0  0  0  0  0  0  0
  1  2  1  0
  2  3  1  0
  3  4  1  0
  4  5  2  0
  4  6  2  0
  4  7  1  0
  7  8  2  0
  8  9  1  0
  9 10  2  0
 10 11  1  0
 11 12  2  0
 12 13  1  0
 13 14  1  0
 14 15  1  0
 15 16  1  0
 16 17  2  0
 17 18  1  0
 18 19  2  0
 19 20  1  0
 20 21  2  0
 12  7  1  0
 21 16  1  0
  1 22  1  0
  1 23  1  0
  1 24  1  0
  2 25  1  0
  2 26  1  0
  3 27  1  0
  3 28  1  0
  8 29  1  0
  9 30  1  0
 10 31  1  0
 11 32  1  0
 13 33  1  0
 13 34  1  0
 14 35  1  0
 14 36  1  0
 15 37  1  0
 15 38  1  0
 17 39  1  0
 18 40  1  0
 19 41  1  0
 20 42  1  0
 21 43  1  0
M  CHG  1  13   1
M  END
>  <UniqueID>  (11) 
11

>  <SMILES>  (11) 
CCCS(=O)(=O)c1ccccc1[NH2+]CCc1ccccc1

>  <Energy>  (11) 
40.8368286319558

>  <Genealogy>  (11) 
CCCS(=O)(=O)c1ccccc1[NH2+]CCc1ccccc1 (protonated)
CCCS(=O)(=O)c1ccccc1[NH2+]CCc1ccccc1 (3D coordinates assigned)
CCCS(=O)(=O)c1ccccc1[NH2+]CCc1ccccc1 (optimized conformer: 40.8368286319558 kcal/mol)

>  <smiles>  (11) 
CCCS(=O)(=O)c1ccccc1NCCc1ccccc1

>  <score_type>  (11) 
oracle

>  <origin>  (11) 
adg

>  <m_score__min__energy>  (11) 
-6.46

>  <m_primary>  (11) 
energy

$$$$
11:0
     RDKit          3D

 51 53  0  0  0  0  0  0  0  0999 V2000
   59.8220   28.8740   49.0040 C   0  0  0  0  0  0  0  0  0  0  0  0
   59.2740   30.2710   48.7440 C   0  0  0  0  0  0  0  0  0  0  0  0
   59.8290   30.8140   47.5500 O   0  0  0  0  0  0  0  0  0  0  0  0
   60.9540   31.6550   47.4730 C   0  0  0  0  0  0  0  0  0  0  0  0
   62.2700   31.1510   47.5040 C   0  0  0  0  0  0  0  0  0  0  0  0
   63.3630   32.0170   47.4280 C   0  0  0  0  0  0  0  0  0  0  0  0
   63.1590   33.3910   47.3170 C   0  0  0  0  0  0  0  0  0  0  0  0
   61.8630   33.9050   47.2840 C   0  0  0  0  0  0  0  0  0  0  0  0
   60.7530   33.0460   47.3560 C   0  0  0  0  0  0  0  0  0  0  0  0
   59.3580   33.6330   47.3690 C   0  0  0  0  0  0  0  0  0  0  0  0
   58.3480   32.7130   46.8060 N   0  0  0  0  0  0  0  0  0  0  0  0
   57.1810   33.3860   46.2020 C   0  0  0  0  0  0  0  0  0  0  0  0
   57.5810   34.4140   45.1240 C   0  0  0  0  0  0  0  0  0  0  0  0
   58.6080   33.8380   44.1420 C   0  0  0  0  0  0  0  0  0  0  0  0
   58.0390   32.7090   43.4040 N   0  0  0  0  0  0  0  0  0  0  0  0
   57.8010   31.4140   43.9760 C   0  0  0  0  0  0  0  0  0  0  0  0
   56.5020   30.8880   44.1000 C   0  0  0  0  0  0  0  0  0  0  0  0
   56.3180   29.6210   44.6640 C   0  0  0  0  0  0  0  0  0  0  0  0
   55.1500   29.1600   44.7730 O   0  0  0  0  0  0  0  0  0  0  0  0
   57.4320   28.8830   45.1050 C   0  0  0  0  0  0  0  0  0  0  0  0
   57.3010   27.6010   45.6710 C   0  0  0  0  0  0  0  0  0  0  0  0
   58.4350   26.9020   46.0960 C   0  0  0  0  0  0  0  0  0  0  0  0
   59.7040   27.4750   45.9680 C   0  0  0  0  0  0  0  0  0  0  0  0
   59.8470   28.7500   45.4150 C   0  0  0  0  0  0  0  0  0  0  0  0
   58.7180   29.4540   44.9760 C   0  0  0  0  0  0  0  0  0  0  0  0
   58.8600   30.6890   44.4250 N   0  0  0  0  0  0  0  0  0  0  0  0
   59.8893   28.7025   50.0885 H   0  0  0  0  0  0  0  0  0  0  0  0
   59.1501   28.1273   48.5557 H   0  0  0  0  0  0  0  0  0  0  0  0
   60.8224   28.7832   48.5557 H   0  0  0  0  0  0  0  0  0  0  0  0
   58.1801   30.2168   48.6419 H   0  0  0  0  0  0  0  0  0  0  0  0
   59.5461   30.9211   49.5886 H   0  0  0  0  0  0  0  0  0  0  0  0
   62.4374   30.0671   47.5887 H   0  0  0  0  0  0  0  0  0  0  0  0
   64.3861   31.6140   47.4558 H   0  0  0  0  0  0  0  0  0  0  0  0
   64.0214   34.0711   47.2553 H   0  0  0  0  0  0  0  0  0  0  0  0
   61.7084   34.9909   47.2010 H   0  0  0  0  0  0  0  0  0  0  0  0
   59.0830   33.8642   48.4087 H   0  0  0  0  0  0  0  0  0  0  0  0
   59.3714   34.5365   46.7417 H   0  0  0  0  0  0  0  0  0  0  0  0
   58.0050   32.0780   47.5640 H   0  0  0  0  0  0  0  0  0  0  0  0
   58.8100   32.1100   46.0840 H   0  0  0  0  0  0  0  0  0  0  0  0
   56.5353   32.6246   45.7402 H   0  0  0  0  0  0  0  0  0  0  0  0
   56.6586   33.9296   47.0030 H   0  0  0  0  0  0  0  0  0  0  0  0
   56.6818   34.7120   44.5649 H   0  0  0  0  0  0  0  0  0  0  0  0
   58.0372   35.2786   45.6282 H   0  0  0  0  0  0  0  0  0  0  0  0
   58.9064   34.6217   43.4301 H   0  0  0  0  0  0  0  0  0  0  0  0
   59.4823   33.4861   44.7093 H   0  0  0  0  0  0  0  0  0  0  0  0
   57.5420   32.9340   42.5120 H   0  0  0  0  0  0  0  0  0  0  0  0
   55.6349   31.4704   43.7550 H   0  0  0  0  0  0  0  0  0  0  0  0
   56.3045   27.1480   45.7792 H   0  0  0  0  0  0  0  0  0  0  0  0
   58.3284   25.8980   46.5325 H   0  0  0  0  0  0  0  0  0  0  0  0
   60.5925   26.9202   46.3037 H   0  0  0  0  0  0  0  0  0  0  0  0
   60.8461   29.2012   45.3243 H   0  0  0  0  0  0  0  0  0  0  0  0
  1  2  1  0
  2  3  1  0
  3  4  1  0
  4  5  2  0
  5  6  1  0
  6  7  2  0
  7  8  1  0
  8  9  2  0
  9 10  1  0
 10 11  1  0
 11 12  1  0
 12 13  1  0
 13 14  1  0
 14 15  1  0
 15 16  1  0
 16 17  2  0
 17 18  1  0
 18 19  2  0
 18 20  1  0
 20 21  2  0
 21 22  1  0
 22 23  2  0
 23 24  1  0
 24 25  2  0
 25 26  1  0
  9  4  1  0
 26 16  1  0
 25 20  1  0
  1 27  1  0
  1 28  1  0
  1 29  1  0
  2 30  1  0
  2 31  1  0
  5 32  1  0
  6 33  1  0
  7 34  1  0
  8 35  1  0
 10 36  1  0
 10 37  1  0
 11 38  1  0
 11 39  1  0
 12 40  1  0
 12 41  1  0
 13 42  1  0
 13 43  1  0
 14 44  1  0
 14 45  1  0
 15 46  1  0
 17 47  1  0
 21 48  1  0
 22 49  1  0
 23 50  1  0
 24 51  1  0
M  CHG  2  11   1  26  -1
M  END
>  <UniqueID>  (12) 
12

>  <SMILES>  (12) 
CCOc1ccccc1C[NH2+]CCCNc1cc(=O)c2ccccc2[n-]1

>  <Energy>  (12) 
51.85616558591973

>  <Genealogy>  (12) 
CCOc1ccccc1C[NH2+]CCCNc1cc(=O)c2ccccc2[n-]1 (protonated)
CCOc1ccccc1C[NH2+]CCCNc1cc(=O)c2ccccc2[n-]1 (3D coordinates assigned)
CCOc1ccccc1C[NH2+]CCCNc1cc(=O)c2ccccc2[n-]1 (optimized conformer: 51.85616558591973 kcal/mol)

>  <smiles>  (12) 
CCOc1ccccc1CNCCCNc1cc(=O)c2ccccc2[nH]1

>  <score_type>  (12) 
oracle

>  <origin>  (12) 
adg

>  <m_score__min__energy>  (12) 
-7.5300000000000002

>  <m_primary>  (12) 
energy

$$$$
12:0
     RDKit          3D

 33 34  0  0  0  0  0  0  0  0999 V2000
   56.0110   24.2670   46.7200 C   0  0  0  0  0  0  0  0  0  0  0  0
   55.4150   25.1590   45.6330 C   0  0  0  0  0  0  0  0  0  0  0  0
   55.4760   26.5150   46.0060 O   0  0  0  0  0  0  0  0  0  0  0  0
   56.5760   27.0420   45.4000 N   0  0  0  0  0  0  0  0  0  0  0  0
   57.4950   27.5210   46.4340 C   0  0  0  0  0  0  0  0  0  0  0  0
   58.0890   28.8940   46.0870 C   0  0  0  0  0  0  0  0  0  0  0  0
   57.1060   29.7230   45.4700 O   0  0  0  0  0  0  0  0  0  0  0  0
   57.3670   30.8310   44.6410 C   0  0  0  0  0  0  0  0  0  0  0  0
   57.1380   30.8000   43.2550 C   0  0  0  0  0  0  0  0  0  0  0  0
   57.4200   31.9350   42.4890 C   0  0  0  0  0  0  0  0  0  0  0  0
   57.2210   31.9180   41.2450 O   0  0  0  0  0  0  0  0  0  0  0  0
   57.8990   33.0340   43.0600 O   0  0  0  0  0  0  0  0  0  0  0  0
   58.1340   33.1170   44.3650 C   0  0  0  0  0  0  0  0  0  0  0  0
   58.6340   34.3080   44.9040 C   0  0  0  0  0  0  0  0  0  0  0  0
   58.8810   34.4070   46.2750 C   0  0  0  0  0  0  0  0  0  0  0  0
   58.6320   33.3170   47.1150 C   0  0  0  0  0  0  0  0  0  0  0  0
   58.1320   32.1230   46.5900 C   0  0  0  0  0  0  0  0  0  0  0  0
   57.8790   32.0100   45.2100 C   0  0  0  0  0  0  0  0  0  0  0  0
   55.7440   24.6666   47.7095 H   0  0  0  0  0  0  0  0  0  0  0  0
   55.6123   23.2470   46.6167 H   0  0  0  0  0  0  0  0  0  0  0  0
   57.1059   24.2449   46.6167 H   0  0  0  0  0  0  0  0  0  0  0  0
   55.9802   25.0164   44.7002 H   0  0  0  0  0  0  0  0  0  0  0  0
   54.3603   24.8812   45.4898 H   0  0  0  0  0  0  0  0  0  0  0  0
   56.2590   27.8510   44.8170 H   0  0  0  0  0  0  0  0  0  0  0  0
   56.9483   27.6011   47.3852 H   0  0  0  0  0  0  0  0  0  0  0  0
   58.3242   26.8023   46.5099 H   0  0  0  0  0  0  0  0  0  0  0  0
   58.4437   29.3782   47.0088 H   0  0  0  0  0  0  0  0  0  0  0  0
   58.9252   28.7527   45.3864 H   0  0  0  0  0  0  0  0  0  0  0  0
   56.7409   29.8920   42.7776 H   0  0  0  0  0  0  0  0  0  0  0  0
   58.8327   35.1674   44.2467 H   0  0  0  0  0  0  0  0  0  0  0  0
   59.2725   35.3451   46.6953 H   0  0  0  0  0  0  0  0  0  0  0  0
   58.8307   33.4002   48.1937 H   0  0  0  0  0  0  0  0  0  0  0  0
   57.9357   31.2698   47.2560 H   0  0  0  0  0  0  0  0  0  0  0  0
  1  2  1  0
  2  3  1  0
  3  4  1  0
  4  5  1  0
  5  6  1  0
  6  7  1  0
  7  8  1  0
  8  9  2  0
  9 10  1  0
 10 11  2  0
 10 12  1  0
 12 13  1  0
 13 14  2  0
 14 15  1  0
 15 16  2  0
 16 17  1  0
 17 18  2  0
 18  8  1  0
 18 13  1  0
  1 19  1  0
  1 20  1  0
  1 21  1  0
  2 22  1  0
  2 23  1  0
  4 24  1  0
  5 25  1  0
  5 26  1  0
  6 27  1  0
  6 28  1  0
  9 29  1  0
 14 30  1  0
 15 31  1  0
 16 32  1  0
 17 33  1  0
M  END
>  <UniqueID>  (13) 
13

>  <SMILES>  (13) 
CCONCCOc1cc(=O)oc2ccccc12

>  <Energy>  (13) 
32.68024209688647

>  <Genealogy>  (13) 
CCONCCOc1cc(=O)oc2ccccc12 (3D coordinates assigned)
CCONCCOc1cc(=O)oc2ccccc12 (optimized conformer: 32.68024209688647 kcal/mol)

>  <smiles>  (13) 
CCONCCOc1cc(=O)oc2ccccc12

>  <score_type>  (13) 
oracle

>  <origin>  (13) 
adg

>  <m_score__min__energy>  (13) 
-6.4299999999999997

>  <m_primary>  (13) 
energy

$$$$
13:0
     RDKit          3D

 57 59  0  0  0  0  0  0  0  0999 V2000
   68.1970   33.9210   50.4930 C   0  0  0  0  0  0  0  0  0  0  0  0
   67.3210   32.6850   50.3300 C   0  0  0  0  0  0  0  0  0  0  0  0
   66.0200   33.0720   49.7650 N   0  0  0  0  0  0  0  0  0  0  0  0
   64.9220   32.2230   50.2550 C   0  0  0  0  0  0  0  0  0  0  0  0
   63.7060   32.2250   49.3150 C   0  0  0  0  0  0  0  0  0  0  0  0
   63.9400   33.1610   48.2070 N   0  0  0  0  0  0  0  0  0  0  0  0
   63.0250   32.9130   47.0840 C   0  0  0  0  0  0  0  0  0  0  0  0
   62.4320   31.5020   47.1550 C   0  0  0  0  0  0  0  0  0  0  0  0
   61.1050   31.5200   47.7700 N   0  0  0  0  0  0  0  0  0  0  0  0
   59.9260   31.3270   46.9730 C   0  0  0  0  0  0  0  0  0  0  0  0
   59.3950   32.4150   46.2590 C   0  0  0  0  0  0  0  0  0  0  0  0
   59.8070   33.7390   46.5330 C   0  0  0  0  0  0  0  0  0  0  0  0
   59.2550   34.8160   45.8430 C   0  0  0  0  0  0  0  0  0  0  0  0
   58.2800   34.5960   44.8790 C   0  0  0  0  0  0  0  0  0  0  0  0
   57.8680   33.2970   44.5800 C   0  0  0  0  0  0  0  0  0  0  0  0
   58.4410   32.1790   45.2400 C   0  0  0  0  0  0  0  0  0  0  0  0
   58.0970   30.8860   44.9070 N   0  0  0  0  0  0  0  0  0  0  0  0
   57.3990   30.6170   43.6280 C   0  0  0  0  0  0  0  0  0  0  0  0
   58.4170   29.8430   45.7570 C   0  0  0  0  0  0  0  0  0  0  0  0
   57.8290   28.5650   45.5950 C   0  0  0  0  0  0  0  0  0  0  0  0
   58.1780   27.4920   46.4140 C   0  0  0  0  0  0  0  0  0  0  0  0
   57.5490   26.1400   46.2220 C   0  0  0  0  0  0  0  0  0  0  0  0
   59.0580   27.6940   47.4720 C   0  0  0  0  0  0  0  0  0  0  0  0
   59.6050   28.9590   47.7290 C   0  0  0  0  0  0  0  0  0  0  0  0
   60.3870   29.1060   49.0130 C   0  0  0  0  0  0  0  0  0  0  0  0
   59.3380   30.0430   46.8310 C   0  0  0  0  0  0  0  0  0  0  0  0
   68.3436   34.1279   51.5634 H   0  0  0  0  0  0  0  0  0  0  0  0
   69.1726   33.7444   50.0167 H   0  0  0  0  0  0  0  0  0  0  0  0
   67.7071   34.7830   50.0167 H   0  0  0  0  0  0  0  0  0  0  0  0
   67.8160   31.9723   49.6540 H   0  0  0  0  0  0  0  0  0  0  0  0
   67.1667   32.2151   51.3126 H   0  0  0  0  0  0  0  0  0  0  0  0
   66.0650   33.0120   48.7200 H   0  0  0  0  0  0  0  0  0  0  0  0
   65.2909   31.1912   50.3510 H   0  0  0  0  0  0  0  0  0  0  0  0
   64.5943   32.6295   51.2232 H   0  0  0  0  0  0  0  0  0  0  0  0
   63.5528   31.2127   48.9127 H   0  0  0  0  0  0  0  0  0  0  0  0
   62.8125   32.5383   49.8749 H   0  0  0  0  0  0  0  0  0  0  0  0
   64.9170   33.0020   47.8610 H   0  0  0  0  0  0  0  0  0  0  0  0
   62.2074   33.6481   47.1180 H   0  0  0  0  0  0  0  0  0  0  0  0
   63.5912   33.0065   46.1456 H   0  0  0  0  0  0  0  0  0  0  0  0
   62.3507   31.0946   46.1365 H   0  0  0  0  0  0  0  0  0  0  0  0
   63.0941   30.8748   47.7699 H   0  0  0  0  0  0  0  0  0  0  0  0
   61.0070   31.9200   48.7300 H   0  0  0  0  0  0  0  0  0  0  0  0
   60.5733   33.9213   47.3009 H   0  0  0  0  0  0  0  0  0  0  0  0
   59.5913   35.8402   46.0617 H   0  0  0  0  0  0  0  0  0  0  0  0
   57.8309   35.4490   44.3492 H   0  0  0  0  0  0  0  0  0  0  0  0
   57.0875   33.1371   43.8215 H   0  0  0  0  0  0  0  0  0  0  0  0
   56.3909   30.2285   43.8351 H   0  0  0  0  0  0  0  0  0  0  0  0
   57.3210   31.5495   43.0497 H   0  0  0  0  0  0  0  0  0  0  0  0
   57.9669   29.8733   43.0497 H   0  0  0  0  0  0  0  0  0  0  0  0
   57.0791   28.4153   44.8043 H   0  0  0  0  0  0  0  0  0  0  0  0
   57.3397   25.6902   47.2038 H   0  0  0  0  0  0  0  0  0  0  0  0
   56.6092   26.2492   45.6609 H   0  0  0  0  0  0  0  0  0  0  0  0
   58.2379   25.4915   45.6609 H   0  0  0  0  0  0  0  0  0  0  0  0
   59.3295   26.8464   48.1184 H   0  0  0  0  0  0  0  0  0  0  0  0
   59.7104   28.9788   49.8710 H   0  0  0  0  0  0  0  0  0  0  0  0
   61.1759   28.3404   49.0515 H   0  0  0  0  0  0  0  0  0  0  0  0
   60.8441   30.1058   49.0515 H   0  0  0  0  0  0  0  0  0  0  0  0
  1  2  1  0
  2  3  1  0
  3  4  1  0
  4  5  1  0
  5  6  1  0
  6  7  1  0
  7  8  1  0
  8  9  1  0
  9 10  1  0
 10 11  2  0
 11 12  1  0
 12 13  2  0
 13 14  1  0
 14 15  2  0
 15 16  1  0
 16 17  2  0
 17 18  1  0
 17 19  1  0
 19 20  2  0
 20 21  1  0
 21 22  1  0
 21 23  2  0
 23 24  1  0
 24 25  1  0
 24 26  2  0
 26 10  1  0
 16 11  1  0
 26 19  1  0
  1 27  1  0
  1 28  1  0
  1 29  1  0
  2 30  1  0
  2 31  1  0
  3 32  1  0
  4 33  1  0
  4 34  1  0
  5 35  1  0
  5 36  1  0
  6 37  1  0
  7 38  1  0
  7 39  1  0
  8 40  1  0
  8 41  1  0
  9 42  1  0
 12 43  1  0
 13 44  1  0
 14 45  1  0
 15 46  1  0
 18 47  1  0
 18 48  1  0
 18 49  1  0
 20 50  1  0
 22 51  1  0
 22 52  1  0
 22 53  1  0
 23 54  1  0
 25 55  1  0
 25 56  1  0
 25 57  1  0
M  CHG  1  17   1
M  END
>  <UniqueID>  (14) 
14

>  <SMILES>  (14) 
CCNCCNCCNc1c2ccccc2[n+](C)c2cc(C)cc(C)c12

>  <Energy>  (14) 
84.61766671804848

>  <Genealogy>  (14) 
CCNCCNCCNc1c2ccccc2[n+](C)c2cc(C)cc(C)c12 (3D coordinates assigned)
CCNCCNCCNc1c2ccccc2[n+](C)c2cc(C)cc(C)c12 (optimized conformer: 84.61766671804848 kcal/mol)

>  <smiles>  (14) 
CCNCCNCCNc1c2ccccc2[n+](C)c2cc(C)cc(C)c12

>  <score_type>  (14) 
oracle

>  <origin>  (14) 
adg

>  <m_score__min__energy>  (14) 
-6.1200000000000001

>  <m_primary>  (14) 
energy

$$$$
14:0
     RDKit          3D

 59 62  0  0  0  0  0  0  0  0999 V2000
   62.7170   33.2640   53.4990 C   0  0  0  0  0  0  0  0  0  0  0  0
   61.7870   33.4670   52.3920 N   0  0  0  0  0  0  0  0  0  0  0  0
   60.4420   33.5200   52.4620 C   0  0  0  0  0  0  0  0  0  0  0  0
   59.8980   33.7660   51.2510 N   0  0  0  0  0  0  0  0  0  0  0  0
   60.9100   33.8750   50.4020 N   0  0  0  0  0  0  0  0  0  0  0  0
   62.0500   33.7050   51.0920 C   0  0  0  0  0  0  0  0  0  0  0  0
   63.6900   33.8240   50.3620 S   0  0  0  0  0  0  0  0  0  0  0  0
   63.7640   32.0690   49.8590 C   0  0  0  0  0  0  0  0  0  0  0  0
   63.8510   31.9520   48.3380 C   0  0  0  0  0  0  0  0  0  0  0  0
   62.5060   31.6420   47.6410 C   0  0  0  0  0  0  0  0  0  0  0  0
   61.4130   32.6060   47.8930 N   0  0  0  0  0  0  0  0  0  0  0  0
   60.0980   32.0320   48.3570 C   0  0  0  0  0  0  0  0  0  0  0  0
   59.0160   32.9350   47.8160 C   0  0  2  0  0  0  0  0  0  0  0  0
   57.6660   33.0660   47.1460 C   0  0  0  0  0  0  0  0  0  0  0  0
   57.7550   34.2060   46.1560 N   0  0  0  0  0  0  0  0  0  0  0  0
   57.0190   33.8640   44.9220 C   0  0  0  0  0  0  0  0  0  0  0  0
   57.5740   32.5990   44.2600 C   0  0  0  0  0  0  0  0  0  0  0  0
   56.9770   31.4380   44.8360 O   0  0  0  0  0  0  0  0  0  0  0  0
   57.6550   30.2510   45.1620 C   0  0  0  0  0  0  0  0  0  0  0  0
   59.0420   30.2110   45.4200 C   0  0  0  0  0  0  0  0  0  0  0  0
   59.6670   29.0000   45.7310 C   0  0  0  0  0  0  0  0  0  0  0  0
   58.9220   27.8180   45.7820 C   0  0  0  0  0  0  0  0  0  0  0  0
   59.5700   26.5690   46.0970 C   0  0  0  0  0  0  0  0  0  0  0  0
   60.0900   25.5670   46.3480 N   0  0  0  0  0  0  0  0  0  0  0  0
   57.5450   27.8500   45.5300 C   0  0  0  0  0  0  0  0  0  0  0  0
   56.9160   29.0610   45.2240 C   0  0  0  0  0  0  0  0  0  0  0  0
   55.5800   29.0790   44.9970 F   0  0  0  0  0  0  0  0  0  0  0  0
   59.1530   34.7200   45.8400 C   0  0  0  0  0  0  0  0  0  0  0  0
   60.1180   34.7190   47.1020 C   0  0  2  0  0  0  0  0  0  0  0  0
   61.4360   33.8410   47.0120 C   0  0  0  0  0  0  0  0  0  0  0  0
   59.3870   34.2410   48.1830 O   0  0  0  0  0  0  0  0  0  0  0  0
   62.1823   33.3807   54.4532 H   0  0  0  0  0  0  0  0  0  0  0  0
   63.1432   32.2517   53.4389 H   0  0  0  0  0  0  0  0  0  0  0  0
   63.5262   34.0067   53.4389 H   0  0  0  0  0  0  0  0  0  0  0  0
   59.8623   33.3808   53.3865 H   0  0  0  0  0  0  0  0  0  0  0  0
   60.8140   34.0810   49.3830 H   0  0  0  0  0  0  0  0  0  0  0  0
   64.6513   31.6003   50.3096 H   0  0  0  0  0  0  0  0  0  0  0  0
   62.8511   31.5612   50.2035 H   0  0  0  0  0  0  0  0  0  0  0  0
   64.2320   32.9046   47.9413 H   0  0  0  0  0  0  0  0  0  0  0  0
   64.5161   31.1016   48.1271 H   0  0  0  0  0  0  0  0  0  0  0  0
   62.6868   31.6129   46.5564 H   0  0  0  0  0  0  0  0  0  0  0  0
   62.1641   30.6857   48.0636 H   0  0  0  0  0  0  0  0  0  0  0  0
   59.9707   31.0116   47.9664 H   0  0  0  0  0  0  0  0  0  0  0  0
   60.0554   31.9770   49.4548 H   0  0  0  0  0  0  0  0  0  0  0  0
   58.5274   32.9399   48.8015 H   0  0  0  0  0  0  0  0  0  0  0  0
   57.4156   32.1323   46.6212 H   0  0  0  0  0  0  0  0  0  0  0  0
   56.8821   33.2629   47.8921 H   0  0  0  0  0  0  0  0  0  0  0  0
   55.9607   33.6995   45.1728 H   0  0  0  0  0  0  0  0  0  0  0  0
   57.1328   34.6982   44.2140 H   0  0  0  0  0  0  0  0  0  0  0  0
   57.3518   32.6253   43.1830 H   0  0  0  0  0  0  0  0  0  0  0  0
   58.6618   32.5590   44.4186 H   0  0  0  0  0  0  0  0  0  0  0  0
   59.6339   31.1371   45.3761 H   0  0  0  0  0  0  0  0  0  0  0  0
   60.7475   28.9769   45.9361 H   0  0  0  0  0  0  0  0  0  0  0  0
   56.9571   26.9212   45.5728 H   0  0  0  0  0  0  0  0  0  0  0  0
   59.5938   34.0795   45.0619 H   0  0  0  0  0  0  0  0  0  0  0  0
   59.0510   35.7632   45.5062 H   0  0  0  0  0  0  0  0  0  0  0  0
   60.4685   35.7582   47.1869 H   0  0  0  0  0  0  0  0  0  0  0  0
   61.5675   33.5195   45.9683 H   0  0  0  0  0  0  0  0  0  0  0  0
   62.2646   34.4713   47.3672 H   0  0  0  0  0  0  0  0  0  0  0  0
  1  2  1  0
  2  3  1  0
  3  4  2  0
  4  5  1  0
  5  6  2  0
  6  7  1  0
  7  8  1  0
  8  9  1  0
  9 10  1  0
 10 11  1  0
 11 12  1  0
 12 13  1  0
 13 14  1  0
 14 15  1  0
 15 16  1  0
 16 17  1  0
 17 18  1  0
 18 19  1  0
 19 20  2  0
 20 21  1  0
 21 22  2  0
 22 23  1  0
 23 24  3  0
 22 25  1  0
 25 26  2  0
 26 27  1  0
 15 28  1  0
 28 29  1  0
 29 30  1  0
 29 31  1  0
  6  2  1  0
 30 11  1  0
 31 13  1  0
 26 19  1  0
  1 32  1  0
  1 33  1  0
  1 34  1  0
  3 35  1  0
  5 36  1  0
  8 37  1  0
  8 38  1  0
  9 39  1  0
  9 40  1  0
 10 41  1  0
 10 42  1  0
 12 43  1  0
 12 44  1  0
 13 45  1  6
 14 46  1  0
 14 47  1  0
 16 48  1  0
 16 49  1  0
 17 50  1  0
 17 51  1  0
 20 52  1  0
 21 53  1  0
 25 54  1  0
 28 55  1  0
 28 56  1  0
 29 57  1  1
 30 58  1  0
 30 59  1  0
M  CHG  1   5   1
M  END
>  <UniqueID>  (15) 
15

>  <SMILES>  (15) 
Cn1cn[nH+]c1SCCCN1C[C@H]2CN(CCOc3ccc(C#N)cc3F)C[C@H](C1)O2

>  <Energy>  (15) 
204.99115133542512

>  <Genealogy>  (15) 
Cn1cn[nH+]c1SCCCN1CC2CN(CCOc3ccc(C#N)cc3F)CC(C1)O2 (protonated)
Cn1cn[nH+]c1SCCCN1C[C@H]2CN(CCOc3ccc(C#N)cc3F)C[C@H](C1)O2 (chirality)
Cn1cn[nH+]c1SCCCN1C[C@H]2CN(CCOc3ccc(C#N)cc3F)C[C@H](C1)O2 (3D coordinates assigned)
Cn1cn[nH+]c1SCCCN1C[C@H]2CN(CCOc3ccc(C#N)cc3F)C[C@H](C1)O2 (nonaromatic ring conformer: 204.99115133542512 kcal/mol)

>  <smiles>  (15) 
Cn1cnnc1SCCCN1CC2CN(CCOc3ccc(C#N)cc3F)CC(C1)O2

>  <score_type>  (15) 
oracle

>  <origin>  (15) 
adg

>  <m_score__min__energy>  (15) 
-7.7300000000000004

>  <m_primary>  (15) 
energy

$$$$
15:0
     RDKit          3D

 61 64  0  0  0  0  0  0  0  0999 V2000
   55.9870   30.2960   44.0220 C   0  0  0  0  0  0  0  0  0  0  0  0
   57.3790   30.8140   43.6550 C   0  0  0  0  0  0  0  0  0  0  0  0
   58.1950   31.0420   44.8640 N   0  0  0  0  0  0  0  0  0  0  0  0
   58.5880   29.9790   45.6490 C   0  0  0  0  0  0  0  0  0  0  0  0
   59.1530   30.1700   46.8980 C   0  0  0  0  0  0  0  0  0  0  0  0
   59.4210   31.4430   47.3800 C   0  0  0  0  0  0  0  0  0  0  0  0
   59.9630   31.5970   48.6980 N   0  0  0  0  0  0  0  0  0  0  0  0
   59.2210   32.3390   49.7180 C   0  0  0  0  0  0  0  0  0  0  0  0
   60.0830   33.4320   50.3750 C   0  0  0  0  0  0  0  0  0  0  0  0
   61.2790   33.8880   49.5160 C   0  0  0  0  0  0  0  0  0  0  0  0
   62.6790   33.5750   50.0940 C   0  0  0  0  0  0  0  0  0  0  0  0
   63.4070   32.4970   49.3700 N   0  0  2  0  0  0  0  0  0  0  0  0
   64.8660   32.7350   49.4140 C   0  0  0  0  0  0  0  0  0  0  0  0
   62.9290   32.4330   47.9650 C   0  0  0  0  0  0  0  0  0  0  0  0
   63.5780   33.4910   47.0640 C   0  0  0  0  0  0  0  0  0  0  0  0
   59.1610   32.5430   46.5410 C   0  0  0  0  0  0  0  0  0  0  0  0
   59.5270   33.8470   46.9300 C   0  0  0  0  0  0  0  0  0  0  0  0
   59.2740   34.9350   46.1000 C   0  0  0  0  0  0  0  0  0  0  0  0
   58.6680   34.7430   44.8640 C   0  0  0  0  0  0  0  0  0  0  0  0
   58.3090   33.4620   44.4450 C   0  0  0  0  0  0  0  0  0  0  0  0
   58.5400   32.3280   45.2660 C   0  0  0  0  0  0  0  0  0  0  0  0
   59.3610   28.8850   47.6360 C   0  0  0  0  0  0  0  0  0  0  0  0
   58.8850   27.9020   46.6220 C   0  0  0  0  0  0  0  0  0  0  0  0
   58.9130   26.5130   46.7490 C   0  0  0  0  0  0  0  0  0  0  0  0
   58.5070   25.7280   45.6630 C   0  0  0  0  0  0  0  0  0  0  0  0
   58.1080   26.3370   44.4630 C   0  0  0  0  0  0  0  0  0  0  0  0
   58.0940   27.7350   44.3430 C   0  0  0  0  0  0  0  0  0  0  0  0
   58.4510   28.5190   45.4560 C   0  0  0  0  0  0  0  0  0  0  0  0
   55.8866   30.2586   45.1168 H   0  0  0  0  0  0  0  0  0  0  0  0
   55.2236   30.9702   43.6066 H   0  0  0  0  0  0  0  0  0  0  0  0
   55.8500   29.2867   43.6066 H   0  0  0  0  0  0  0  0  0  0  0  0
   57.8817   30.0728   43.0164 H   0  0  0  0  0  0  0  0  0  0  0  0
   57.2677   31.7699   43.1222 H   0  0  0  0  0  0  0  0  0  0  0  0
   60.7090   30.9270   48.9890 H   0  0  0  0  0  0  0  0  0  0  0  0
   58.3459   32.8113   49.2478 H   0  0  0  0  0  0  0  0  0  0  0  0
   58.9163   31.6292   50.5011 H   0  0  0  0  0  0  0  0  0  0  0  0
   59.4440   34.3059   50.5700 H   0  0  0  0  0  0  0  0  0  0  0  0
   60.4997   32.9981   51.2959 H   0  0  0  0  0  0  0  0  0  0  0  0
   61.1996   33.3934   48.5367 H   0  0  0  0  0  0  0  0  0  0  0  0
   61.2129   34.9850   49.4689 H   0  0  0  0  0  0  0  0  0  0  0  0
   63.2847   34.4921   50.0484 H   0  0  0  0  0  0  0  0  0  0  0  0
   62.5254   33.2188   51.1233 H   0  0  0  0  0  0  0  0  0  0  0  0
   63.2130   31.5750   49.8200 H   0  0  0  0  0  0  0  0  0  0  0  0
   65.1973   32.7890   50.4615 H   0  0  0  0  0  0  0  0  0  0  0  0
   65.3875   31.9101   48.9066 H   0  0  0  0  0  0  0  0  0  0  0  0
   65.0984   33.6829   48.9066 H   0  0  0  0  0  0  0  0  0  0  0  0
   63.1618   31.4370   47.5603 H   0  0  0  0  0  0  0  0  0  0  0  0
   61.8465   32.6283   47.9758 H   0  0  0  0  0  0  0  0  0  0  0  0
   64.0517   34.2633   47.6879 H   0  0  0  0  0  0  0  0  0  0  0  0
   64.3395   33.0147   46.4290 H   0  0  0  0  0  0  0  0  0  0  0  0
   62.8083   33.9539   46.4290 H   0  0  0  0  0  0  0  0  0  0  0  0
   60.0184   34.0068   47.9011 H   0  0  0  0  0  0  0  0  0  0  0  0
   59.5541   35.9486   46.4227 H   0  0  0  0  0  0  0  0  0  0  0  0
   58.4703   35.6067   44.2122 H   0  0  0  0  0  0  0  0  0  0  0  0
   57.8381   33.3284   43.4599 H   0  0  0  0  0  0  0  0  0  0  0  0
   60.4207   28.7283   47.8858 H   0  0  0  0  0  0  0  0  0  0  0  0
   58.8439   28.8269   48.6052 H   0  0  0  0  0  0  0  0  0  0  0  0
   59.2480   26.0430   47.6854 H   0  0  0  0  0  0  0  0  0  0  0  0
   58.5007   24.6315   45.7505 H   0  0  0  0  0  0  0  0  0  0  0  0
   57.8038   25.7132   43.6096 H   0  0  0  0  0  0  0  0  0  0  0  0
   57.8083   28.2110   43.3934 H   0  0  0  0  0  0  0  0  0  0  0  0
  1  2  1  0
  2  3  1  0
  3  4  2  0
  4  5  1  0
  5  6  2  0
  6  7  1  0
  7  8  1  0
  8  9  1  0
  9 10  1  0
 10 11  1  0
 11 12  1  0
 12 13  1  0
 12 14  1  0
 14 15  1  0
  6 16  1  0
 16 17  2  0
 17 18  1  0
 18 19  2  0
 19 20  1  0
 20 21  2  0
  5 22  1  0
 22 23  1  0
 23 24  2  0
 24 25  1  0
 25 26  2  0
 26 27  1  0
 27 28  2  0
 21  3  1  0
 28 23  1  0
 28  4  1  0
 21 16  1  0
  1 29  1  0
  1 30  1  0
  1 31  1  0
  2 32  1  0
  2 33  1  0
  7 34  1  0
  8 35  1  0
  8 36  1  0
  9 37  1  0
  9 38  1  0
 10 39  1  0
 10 40  1  0
 11 41  1  0
 11 42  1  0
 12 43  1  1
 13 44  1  0
 13 45  1  0
 13 46  1  0
 14 47  1  0
 14 48  1  0
 15 49  1  0
 15 50  1  0
 15 51  1  0
 17 52  1  0
 18 53  1  0
 19 54  1  0
 20 55  1  0
 22 56  1  0
 22 57  1  0
 24 58  1  0
 25 59  1  0
 26 60  1  0
 27 61  1  0
M  CHG  2   3   1  12   1
M  END
>  <UniqueID>  (16) 
16

>  <SMILES>  (16) 
CC[n+]1c2c(c(NCCCC[N@H+](C)CC)c3ccccc31)Cc1ccccc1-2

>  <Energy>  (16) 
104.34754020327901

>  <Genealogy>  (16) 
CC[n+]1c2c(c(NCCCC[NH+](C)CC)c3ccccc31)Cc1ccccc1-2 (protonated)
CC[n+]1c2c(c(NCCCC[N@H+](C)CC)c3ccccc31)Cc1ccccc1-2 (chirality)
CC[n+]1c2c(c(NCCCC[N@H+](C)CC)c3ccccc31)Cc1ccccc1-2 (3D coordinates assigned)
CC[n+]1c2c(c(NCCCC[N@H+](C)CC)c3ccccc31)Cc1ccccc1-2 (nonaromatic ring conformer: 104.34754020327901 kcal/mol)

>  <smiles>  (16) 
CCN(C)CCCCNc1c2c([n+](CC)c3ccccc13)-c1ccccc1C2

>  <score_type>  (16) 
oracle

>  <origin>  (16) 
adg

>  <m_score__min__energy>  (16) 
-5.6299999999999999

>  <m_primary>  (16) 
energy

$$$$
16:0
     RDKit          3D

 49 51  0  0  0  0  0  0  0  0999 V2000
   57.0740   32.4510   40.7030 C   0  0  0  0  0  0  0  0  0  0  0  0
   58.2220   32.3480   41.7010 C   0  0  0  0  0  0  0  0  0  0  0  0
   57.8760   31.4060   42.7720 N   0  0  0  0  0  0  0  0  0  0  0  0
   56.6210   30.7160   42.4540 C   0  0  0  0  0  0  0  0  0  0  0  0
   56.3510   29.6180   43.4860 C   0  0  0  0  0  0  0  0  0  0  0  0
   56.3240   30.1740   44.8380 N   0  0  0  0  0  0  0  0  0  0  0  0
   57.5280   30.3710   45.5990 C   0  0  0  0  0  0  0  0  0  0  0  0
   58.0260   31.6680   45.8040 C   0  0  0  0  0  0  0  0  0  0  0  0
   57.3140   32.7960   45.3450 C   0  0  0  0  0  0  0  0  0  0  0  0
   57.7910   34.0830   45.5810 C   0  0  0  0  0  0  0  0  0  0  0  0
   58.9740   34.2670   46.2870 C   0  0  0  0  0  0  0  0  0  0  0  0
   59.7010   33.1660   46.7390 C   0  0  0  0  0  0  0  0  0  0  0  0
   59.2630   31.8420   46.4790 C   0  0  0  0  0  0  0  0  0  0  0  0
   59.9990   30.7400   46.8730 N   0  0  0  0  0  0  0  0  0  0  0  0
   61.4070   30.9030   47.3000 C   0  0  0  0  0  0  0  0  0  0  0  0
   59.4230   29.4830   46.8530 C   0  0  0  0  0  0  0  0  0  0  0  0
   60.0280   28.3740   47.4960 C   0  0  0  0  0  0  0  0  0  0  0  0
   59.4480   27.1070   47.4490 C   0  0  0  0  0  0  0  0  0  0  0  0
   58.2290   26.9080   46.7890 C   0  0  0  0  0  0  0  0  0  0  0  0
   57.6140   25.6500   46.7120 O   0  0  0  0  0  0  0  0  0  0  0  0
   56.5300   25.3260   45.8860 C   0  0  0  0  0  0  0  0  0  0  0  0
   56.7510   24.4380   44.7100 C   0  0  0  0  0  0  0  0  0  0  0  0
   55.3980   25.8510   46.0620 O   0  0  0  0  0  0  0  0  0  0  0  0
   57.6110   27.9890   46.1600 C   0  0  0  0  0  0  0  0  0  0  0  0
   58.1850   29.2780   46.1900 C   0  0  0  0  0  0  0  0  0  0  0  0
   56.1218   32.5364   41.2470 H   0  0  0  0  0  0  0  0  0  0  0  0
   57.2162   33.3400   40.0710 H   0  0  0  0  0  0  0  0  0  0  0  0
   57.0557   31.5509   40.0710 H   0  0  0  0  0  0  0  0  0  0  0  0
   59.1246   31.9932   41.1820 H   0  0  0  0  0  0  0  0  0  0  0  0
   58.4079   33.3395   42.1396 H   0  0  0  0  0  0  0  0  0  0  0  0
   58.6350   30.6840   42.8190 H   0  0  0  0  0  0  0  0  0  0  0  0
   55.7934   31.4405   42.4679 H   0  0  0  0  0  0  0  0  0  0  0  0
   56.7020   30.2612   41.4557 H   0  0  0  0  0  0  0  0  0  0  0  0
   55.3797   29.1495   43.2689 H   0  0  0  0  0  0  0  0  0  0  0  0
   57.1568   28.8716   43.4269 H   0  0  0  0  0  0  0  0  0  0  0  0
   55.4120   30.4840   45.2450 H   0  0  0  0  0  0  0  0  0  0  0  0
   56.3717   32.6575   44.7946 H   0  0  0  0  0  0  0  0  0  0  0  0
   57.2315   34.9538   45.2087 H   0  0  0  0  0  0  0  0  0  0  0  0
   59.3382   35.2849   46.4900 H   0  0  0  0  0  0  0  0  0  0  0  0
   60.6294   33.3269   47.3065 H   0  0  0  0  0  0  0  0  0  0  0  0
   61.4586   30.9090   48.3988 H   0  0  0  0  0  0  0  0  0  0  0  0
   62.0076   30.0684   46.9093 H   0  0  0  0  0  0  0  0  0  0  0  0
   61.8011   31.8528   46.9093 H   0  0  0  0  0  0  0  0  0  0  0  0
   60.9723   28.5156   48.0420 H   0  0  0  0  0  0  0  0  0  0  0  0
   59.9515   26.2576   47.9338 H   0  0  0  0  0  0  0  0  0  0  0  0
   57.0031   23.4252   45.0575 H   0  0  0  0  0  0  0  0  0  0  0  0
   55.8350   24.3997   44.1022 H   0  0  0  0  0  0  0  0  0  0  0  0
   57.5781   24.8335   44.1022 H   0  0  0  0  0  0  0  0  0  0  0  0
   56.6591   27.8339   45.6311 H   0  0  0  0  0  0  0  0  0  0  0  0
  1  2  1  0
  2  3  1  0
  3  4  1  0
  4  5  1  0
  5  6  1  0
  6  7  1  0
  7  8  2  0
  8  9  1  0
  9 10  2  0
 10 11  1  0
 11 12  2  0
 12 13  1  0
 13 14  2  0
 14 15  1  0
 14 16  1  0
 16 17  2  0
 17 18  1  0
 18 19  2  0
 19 20  1  0
 20 21  1  0
 21 22  1  0
 21 23  2  0
 19 24  1  0
 24 25  2  0
 25  7  1  0
 13  8  1  0
 25 16  1  0
  1 26  1  0
  1 27  1  0
  1 28  1  0
  2 29  1  0
  2 30  1  0
  3 31  1  0
  4 32  1  0
  4 33  1  0
  5 34  1  0
  5 35  1  0
  6 36  1  0
  9 37  1  0
 10 38  1  0
 11 39  1  0
 12 40  1  0
 15 41  1  0
 15 42  1  0
 15 43  1  0
 17 44  1  0
 18 45  1  0
 22 46  1  0
 22 47  1  0
 22 48  1  0
 24 49  1  0
M  CHG  1  14   1
M  END
>  <UniqueID>  (17) 
17

>  <SMILES>  (17) 
CCNCCNc1c2ccccc2[n+](C)c2ccc(OC(C)=O)cc12

>  <Energy>  (17) 
72.50662890808626

>  <Genealogy>  (17) 
CCNCCNc1c2ccccc2[n+](C)c2ccc(OC(C)=O)cc12 (3D coordinates assigned)
CCNCCNc1c2ccccc2[n+](C)c2ccc(OC(C)=O)cc12 (optimized conformer: 72.50662890808626 kcal/mol)

>  <smiles>  (17) 
CCNCCNc1c2ccccc2[n+](C)c2ccc(OC(C)=O)cc12

>  <score_type>  (17) 
oracle

>  <origin>  (17) 
adg

>  <m_score__min__energy>  (17) 
-6.8600000000000003

>  <m_primary>  (17) 
energy

$$$$
17:0
     RDKit          3D

 73 76  0  0  0  0  0  0  0  0999 V2000
   61.2510   28.9050   51.4250 C   0  0  0  0  0  0  0  0  0  0  0  0
   60.3440   29.4670   50.3290 C   0  0  0  0  0  0  0  0  0  0  0  0
   60.3720   28.6150   49.0510 C   0  0  0  0  0  0  0  0  0  0  0  0
   60.5420   29.4700   47.7850 C   0  0  0  0  0  0  0  0  0  0  0  0
   59.7100   30.6740   47.8360 N   0  0  0  0  0  0  0  0  0  0  0  0
   59.1460   31.2670   46.6560 C   0  0  0  0  0  0  0  0  0  0  0  0
   58.3500   30.4820   45.8010 C   0  0  0  0  0  0  0  0  0  0  0  0
   57.9460   29.1840   46.1780 C   0  0  0  0  0  0  0  0  0  0  0  0
   57.1350   28.4200   45.3430 C   0  0  0  0  0  0  0  0  0  0  0  0
   56.7010   28.9380   44.1290 C   0  0  0  0  0  0  0  0  0  0  0  0
   57.0840   30.2200   43.7360 C   0  0  0  0  0  0  0  0  0  0  0  0
   57.9260   31.0120   44.5560 C   0  0  0  0  0  0  0  0  0  0  0  0
   58.3180   32.2810   44.1810 N   0  0  0  0  0  0  0  0  0  0  0  0
   58.1560   32.7160   42.7760 C   0  0  0  0  0  0  0  0  0  0  0  0
   58.8760   33.1380   45.1110 C   0  0  0  0  0  0  0  0  0  0  0  0
   58.9840   34.5240   44.8530 C   0  0  0  0  0  0  0  0  0  0  0  0
   59.5980   35.3800   45.7580 C   0  0  0  0  0  0  0  0  0  0  0  0
   60.1190   34.8880   46.9430 C   0  0  0  0  0  0  0  0  0  0  0  0
   60.0010   33.5250   47.2710 C   0  0  0  0  0  0  0  0  0  0  0  0
   60.5260   33.0300   48.4780 O   0  0  0  0  0  0  0  0  0  0  0  0
   61.1420   33.7940   49.5160 C   0  0  0  0  0  0  0  0  0  0  0  0
   62.6510   33.9660   49.2230 C   0  0  0  0  0  0  0  0  0  0  0  0
   63.4440   32.6940   49.1800 N   0  0  0  0  0  0  0  0  0  0  0  0
   63.2490   32.0340   47.8620 C   0  0  0  0  0  0  0  0  0  0  0  0
   63.0070   31.7670   50.2780 C   0  0  0  0  0  0  0  0  0  0  0  0
   64.1570   30.8860   50.8010 C   0  0  0  0  0  0  0  0  0  0  0  0
   65.2520   31.7000   51.4200 N   0  0  0  0  0  0  0  0  0  0  0  0
   64.9850   31.8760   52.8710 C   0  0  0  0  0  0  0  0  0  0  0  0
   66.5340   30.9640   51.2810 C   0  0  0  0  0  0  0  0  0  0  0  0
   65.3730   33.0490   50.7780 C   0  0  0  0  0  0  0  0  0  0  0  0
   64.9010   33.0400   49.3110 C   0  0  0  0  0  0  0  0  0  0  0  0
   59.3490   32.6390   46.3610 C   0  0  0  0  0  0  0  0  0  0  0  0
   60.8367   29.1617   52.4112 H   0  0  0  0  0  0  0  0  0  0  0  0
   61.3112   27.8111   51.3260 H   0  0  0  0  0  0  0  0  0  0  0  0
   62.2573   29.3380   51.3260 H   0  0  0  0  0  0  0  0  0  0  0  0
   59.3119   29.5015   50.7079 H   0  0  0  0  0  0  0  0  0  0  0  0
   60.7126   30.4707   50.0708 H   0  0  0  0  0  0  0  0  0  0  0  0
   61.2117   27.9074   49.1156 H   0  0  0  0  0  0  0  0  0  0  0  0
   59.4090   28.0888   48.9755 H   0  0  0  0  0  0  0  0  0  0  0  0
   61.5969   29.7679   47.6936 H   0  0  0  0  0  0  0  0  0  0  0  0
   60.2286   28.8699   46.9180 H   0  0  0  0  0  0  0  0  0  0  0  0
   59.5250   31.1220   48.7640 H   0  0  0  0  0  0  0  0  0  0  0  0
   58.2755   28.7707   47.1427 H   0  0  0  0  0  0  0  0  0  0  0  0
   56.8375   27.4049   45.6449 H   0  0  0  0  0  0  0  0  0  0  0  0
   56.0532   28.3349   43.4758 H   0  0  0  0  0  0  0  0  0  0  0  0
   56.7276   30.6222   42.7762 H   0  0  0  0  0  0  0  0  0  0  0  0
   57.7722   33.7466   42.7532 H   0  0  0  0  0  0  0  0  0  0  0  0
   59.1294   32.6758   42.2652 H   0  0  0  0  0  0  0  0  0  0  0  0
   57.4460   32.0489   42.2652 H   0  0  0  0  0  0  0  0  0  0  0  0
   58.5738   34.9321   43.9175 H   0  0  0  0  0  0  0  0  0  0  0  0
   59.6708   36.4542   45.5324 H   0  0  0  0  0  0  0  0  0  0  0  0
   60.6314   35.5712   47.6363 H   0  0  0  0  0  0  0  0  0  0  0  0
   60.6664   34.7844   49.5704 H   0  0  0  0  0  0  0  0  0  0  0  0
   61.0182   33.2672   50.4737 H   0  0  0  0  0  0  0  0  0  0  0  0
   62.7533   34.4635   48.2473 H   0  0  0  0  0  0  0  0  0  0  0  0
   63.0590   34.5509   50.0605 H   0  0  0  0  0  0  0  0  0  0  0  0
   62.9404   30.9896   48.0170 H   0  0  0  0  0  0  0  0  0  0  0  0
   62.4698   32.5665   47.2970 H   0  0  0  0  0  0  0  0  0  0  0  0
   64.1925   32.0576   47.2970 H   0  0  0  0  0  0  0  0  0  0  0  0
   62.6162   32.3682   51.1122 H   0  0  0  0  0  0  0  0  0  0  0  0
   62.2371   31.0993   49.8640 H   0  0  0  0  0  0  0  0  0  0  0  0
   63.7582   30.1939   51.5573 H   0  0  0  0  0  0  0  0  0  0  0  0
   64.5820   30.3399   49.9459 H   0  0  0  0  0  0  0  0  0  0  0  0
   65.7647   31.3620   53.4523 H   0  0  0  0  0  0  0  0  0  0  0  0
   64.9906   32.9480   53.1175 H   0  0  0  0  0  0  0  0  0  0  0  0
   64.0020   31.4482   53.1175 H   0  0  0  0  0  0  0  0  0  0  0  0
   66.9348   30.7339   52.2792 H   0  0  0  0  0  0  0  0  0  0  0  0
   66.3613   30.0275   50.7304 H   0  0  0  0  0  0  0  0  0  0  0  0
   67.2557   31.5853   50.7304 H   0  0  0  0  0  0  0  0  0  0  0  0
   64.7598   33.7665   51.3430 H   0  0  0  0  0  0  0  0  0  0  0  0
   66.4353   33.3342   50.7892 H   0  0  0  0  0  0  0  0  0  0  0  0
   65.0671   34.0385   48.8803 H   0  0  0  0  0  0  0  0  0  0  0  0
   65.4779   32.2700   48.7778 H   0  0  0  0  0  0  0  0  0  0  0  0
  1  2  1  0
  2  3  1  0
  3  4  1  0
  4  5  1  0
  5  6  1  0
  6  7  2  0
  7  8  1  0
  8  9  2  0
  9 10  1  0
 10 11  2  0
 11 12  1  0
 12 13  2  0
 13 14  1  0
 13 15  1  0
 15 16  2  0
 16 17  1  0
 17 18  2  0
 18 19  1  0
 19 20  1  0
 20 21  1  0
 21 22  1  0
 22 23  1  0
 23 24  1  0
 23 25  1  0
 25 26  1  0
 26 27  1  0
 27 28  1  0
 27 29  1  0
 27 30  1  0
 30 31  1  0
 19 32  2  0
 32  6  1  0
 12  7  1  0
 32 15  1  0
 31 23  1  0
  1 33  1  0
  1 34  1  0
  1 35  1  0
  2 36  1  0
  2 37  1  0
  3 38  1  0
  3 39  1  0
  4 40  1  0
  4 41  1  0
  5 42  1  0
  8 43  1  0
  9 44  1  0
 10 45  1  0
 11 46  1  0
 14 47  1  0
 14 48  1  0
 14 49  1  0
 16 50  1  0
 17 51  1  0
 18 52  1  0
 21 53  1  0
 21 54  1  0
 22 55  1  0
 22 56  1  0
 24 57  1  0
 24 58  1  0
 24 59  1  0
 25 60  1  0
 25 61  1  0
 26 62  1  0
 26 63  1  0
 28 64  1  0
 28 65  1  0
 28 66  1  0
 29 67  1  0
 29 68  1  0
 29 69  1  0
 30 70  1  0
 30 71  1  0
 31 72  1  0
 31 73  1  0
M  CHG  3  13   1  23   1  27   1
M  END
>  <UniqueID>  (18) 
18

>  <SMILES>  (18) 
CCCCNc1c2ccccc2[n+](C)c2cccc(OCC[N+]3(C)CC[N+](C)(C)CC3)c12

>  <Energy>  (18) 
124.01550308525539

>  <Genealogy>  (18) 
CCCCNc1c2ccccc2[n+](C)c2cccc(OCC[N+]3(C)CC[N+](C)(C)CC3)c12 (3D coordinates assigned)
CCCCNc1c2ccccc2[n+](C)c2cccc(OCC[N+]3(C)CC[N+](C)(C)CC3)c12 (nonaromatic ring conformer: 124.01550308525539 kcal/mol)

>  <smiles>  (18) 
CCCCNc1c2ccccc2[n+](C)c2cccc(OCC[N+]3(C)CC[N+](C)(C)CC3)c12

>  <score_type>  (18) 
oracle

>  <origin>  (18) 
adg

>  <m_score__min__energy>  (18) 
-3.8399999999999999

>  <m_primary>  (18) 
energy

$$$$
18:0
     RDKit          3D

 66 68  0  0  0  0  0  0  0  0999 V2000
   55.1150   23.6150   44.4420 C   0  0  0  0  0  0  0  0  0  0  0  0
   54.5850   24.4400   45.6170 C   0  0  0  0  0  0  0  0  0  0  0  0
   55.5020   25.5290   45.9960 N   0  0  0  0  0  0  0  0  0  0  0  0
   56.8930   25.0750   46.1440 C   0  0  0  0  0  0  0  0  0  0  0  0
   57.8500   26.2630   46.0340 C   0  0  0  0  0  0  0  0  0  0  0  0
   57.1350   27.5170   46.2640 N   0  0  0  0  0  0  0  0  0  0  0  0
   57.7940   28.7920   46.1600 C   0  0  0  0  0  0  0  0  0  0  0  0
   57.5290   29.6390   45.0680 C   0  0  0  0  0  0  0  0  0  0  0  0
   56.6040   29.2680   44.0680 C   0  0  0  0  0  0  0  0  0  0  0  0
   56.3930   30.0790   42.9560 C   0  0  0  0  0  0  0  0  0  0  0  0
   57.0990   31.2670   42.8180 C   0  0  0  0  0  0  0  0  0  0  0  0
   57.9900   31.6730   43.8120 C   0  0  0  0  0  0  0  0  0  0  0  0
   58.1910   30.8930   44.9790 C   0  0  0  0  0  0  0  0  0  0  0  0
   59.0090   31.3200   46.0080 N   0  0  0  0  0  0  0  0  0  0  0  0
   59.4440   32.7350   46.0640 C   0  0  0  0  0  0  0  0  0  0  0  0
   59.3850   30.4390   47.0060 C   0  0  0  0  0  0  0  0  0  0  0  0
   60.4220   30.7480   47.9200 C   0  0  0  0  0  0  0  0  0  0  0  0
   60.7740   29.8750   48.9640 C   0  0  0  0  0  0  0  0  0  0  0  0
   61.8300   30.2080   49.8880 N   0  0  0  0  0  0  0  0  0  0  0  0
   62.3140   31.5750   50.1000 C   0  0  0  0  0  0  0  0  0  0  0  0
   63.7230   31.7800   49.5260 C   0  0  0  0  0  0  0  0  0  0  0  0
   63.9140   33.0440   48.6480 C   0  0  0  0  0  0  0  0  0  0  0  0
   62.8420   33.3380   47.6650 N   0  0  0  0  0  0  0  0  0  0  0  0
   61.7210   34.1250   48.2050 C   0  0  0  0  0  0  0  0  0  0  0  0
   63.3180   33.8540   46.3740 C   0  0  0  0  0  0  0  0  0  0  0  0
   60.0850   28.6620   49.1080 C   0  0  0  0  0  0  0  0  0  0  0  0
   60.4420   27.8020   50.1610 O   0  0  0  0  0  0  0  0  0  0  0  0
   60.3860   28.1420   51.5430 C   0  0  0  0  0  0  0  0  0  0  0  0
   59.0780   28.3260   48.1910 C   0  0  0  0  0  0  0  0  0  0  0  0
   58.7420   29.1820   47.1250 C   0  0  0  0  0  0  0  0  0  0  0  0
   55.6724   22.7474   44.8250 H   0  0  0  0  0  0  0  0  0  0  0  0
   54.2712   23.2668   43.8282 H   0  0  0  0  0  0  0  0  0  0  0  0
   55.7824   24.2377   43.8282 H   0  0  0  0  0  0  0  0  0  0  0  0
   53.6158   24.8765   45.3338 H   0  0  0  0  0  0  0  0  0  0  0  0
   54.4862   23.7677   46.4820 H   0  0  0  0  0  0  0  0  0  0  0  0
   55.4610   26.2900   45.2770 H   0  0  0  0  0  0  0  0  0  0  0  0
   57.0171   24.5981   47.1275 H   0  0  0  0  0  0  0  0  0  0  0  0
   57.1224   24.3537   45.3458 H   0  0  0  0  0  0  0  0  0  0  0  0
   58.6468   26.1572   46.7850 H   0  0  0  0  0  0  0  0  0  0  0  0
   58.2830   26.2797   45.0229 H   0  0  0  0  0  0  0  0  0  0  0  0
   56.2010   27.4760   46.7350 H   0  0  0  0  0  0  0  0  0  0  0  0
   56.0433   28.3270   44.1686 H   0  0  0  0  0  0  0  0  0  0  0  0
   55.6667   29.7786   42.1864 H   0  0  0  0  0  0  0  0  0  0  0  0
   56.9553   31.8896   41.9226 H   0  0  0  0  0  0  0  0  0  0  0  0
   58.5459   32.6141   43.6883 H   0  0  0  0  0  0  0  0  0  0  0  0
   59.5401   33.0478   47.1142 H   0  0  0  0  0  0  0  0  0  0  0  0
   60.4159   32.8400   45.5597 H   0  0  0  0  0  0  0  0  0  0  0  0
   58.6989   33.3679   45.5597 H   0  0  0  0  0  0  0  0  0  0  0  0
   60.9669   31.6972   47.8098 H   0  0  0  0  0  0  0  0  0  0  0  0
   62.2720   29.4360   50.4370 H   0  0  0  0  0  0  0  0  0  0  0  0
   61.6242   32.2766   49.6080 H   0  0  0  0  0  0  0  0  0  0  0  0
   62.3583   31.7562   51.1841 H   0  0  0  0  0  0  0  0  0  0  0  0
   64.4255   31.8454   50.3699 H   0  0  0  0  0  0  0  0  0  0  0  0
   63.9035   30.9227   48.8608 H   0  0  0  0  0  0  0  0  0  0  0  0
   63.9953   33.9095   49.3221 H   0  0  0  0  0  0  0  0  0  0  0  0
   64.8132   32.8461   48.0462 H   0  0  0  0  0  0  0  0  0  0  0  0
   61.7531   34.1024   49.3043 H   0  0  0  0  0  0  0  0  0  0  0  0
   61.8022   35.1654   47.8571 H   0  0  0  0  0  0  0  0  0  0  0  0
   60.7701   33.6952   47.8571 H   0  0  0  0  0  0  0  0  0  0  0  0
   64.0545   34.6524   46.5473 H   0  0  0  0  0  0  0  0  0  0  0  0
   63.7880   33.0389   45.8042 H   0  0  0  0  0  0  0  0  0  0  0  0
   62.4677   34.2569   45.8042 H   0  0  0  0  0  0  0  0  0  0  0  0
   60.5351   27.2366   52.1497 H   0  0  0  0  0  0  0  0  0  0  0  0
   61.1760   28.8719   51.7733 H   0  0  0  0  0  0  0  0  0  0  0  0
   59.4036   28.5800   51.7733 H   0  0  0  0  0  0  0  0  0  0  0  0
   58.5397   27.3738   48.3073 H   0  0  0  0  0  0  0  0  0  0  0  0
  1  2  1  0
  2  3  1  0
  3  4  1  0
  4  5  1  0
  5  6  1  0
  6  7  1  0
  7  8  2  0
  8  9  1  0
  9 10  2  0
 10 11  1  0
 11 12  2  0
 12 13  1  0
 13 14  2  0
 14 15  1  0
 14 16  1  0
 16 17  2  0
 17 18  1  0
 18 19  1  0
 19 20  1  0
 20 21  1  0
 21 22  1  0
 22 23  1  0
 23 24  1  0
 23 25  1  0
 18 26  2  0
 26 27  1  0
 27 28  1  0
 26 29  1  0
 29 30  2  0
 30  7  1  0
 13  8  1  0
 30 16  1  0
  1 31  1  0
  1 32  1  0
  1 33  1  0
  2 34  1  0
  2 35  1  0
  3 36  1  0
  4 37  1  0
  4 38  1  0
  5 39  1  0
  5 40  1  0
  6 41  1  0
  9 42  1  0
 10 43  1  0
 11 44  1  0
 12 45  1  0
 15 46  1  0
 15 47  1  0
 15 48  1  0
 17 49  1  0
 19 50  1  0
 20 51  1  0
 20 52  1  0
 21 53  1  0
 21 54  1  0
 22 55  1  0
 22 56  1  0
 24 57  1  0
 24 58  1  0
 24 59  1  0
 25 60  1  0
 25 61  1  0
 25 62  1  0
 28 63  1  0
 28 64  1  0
 28 65  1  0
 29 66  1  0
M  CHG  1  14   1
M  END
>  <UniqueID>  (19) 
19

>  <SMILES>  (19) 
CCNCCNc1c2ccccc2[n+](C)c2cc(NCCCN(C)C)c(OC)cc12

>  <Energy>  (19) 
94.0101760019898

>  <Genealogy>  (19) 
CCNCCNc1c2ccccc2[n+](C)c2cc(NCCCN(C)C)c(OC)cc12 (3D coordinates assigned)
CCNCCNc1c2ccccc2[n+](C)c2cc(NCCCN(C)C)c(OC)cc12 (optimized conformer: 94.0101760019898 kcal/mol)

>  <smiles>  (19) 
CCNCCNc1c2ccccc2[n+](C)c2cc(NCCCN(C)C)c(OC)cc12

>  <score_type>  (19) 
oracle

>  <origin>  (19) 
adg

>  <m_score__min__energy>  (19) 
-6.0099999999999998

>  <m_primary>  (19) 
energy

$$$$
19:0
     RDKit          3D

 59 63  0  0  0  0  0  0  0  0999 V2000
   58.1450   26.6810   47.4830 C   0  0  0  0  0  0  0  0  0  0  0  0
   58.2000   28.2070   47.4210 C   0  0  0  0  0  0  0  0  0  0  0  0
   59.2560   28.6680   46.5080 N   0  0  0  0  0  0  0  0  0  0  0  0
   59.2580   28.6240   45.1570 C   0  0  0  0  0  0  0  0  0  0  0  0
   57.9990   27.8480   44.1310 S   0  0  0  0  0  0  0  0  0  0  0  0
   56.6240   28.9610   44.6090 C   0  0  0  0  0  0  0  0  0  0  0  0
   56.3940   30.0870   43.5920 C   0  0  0  0  0  0  0  0  0  0  0  0
   57.3770   31.2690   43.6960 C   0  0  0  0  0  0  0  0  0  0  0  0
   57.2980   31.9430   45.0130 N   0  0  0  0  0  0  0  0  0  0  0  0
   57.0240   33.3850   44.8680 C   0  0  0  0  0  0  0  0  0  0  0  0
   57.8460   34.1400   45.8990 C   0  0  2  0  0  0  0  0  0  0  0  0
   59.3340   34.2720   45.5990 C   0  0  0  0  0  0  0  0  0  0  0  0
   58.8140   33.1380   46.4740 C   0  0  1  0  0  0  0  0  0  0  0  0
   59.0610   33.2200   47.9570 C   0  0  0  0  0  0  0  0  0  0  0  0
   58.4570   32.3050   48.8320 C   0  0  0  0  0  0  0  0  0  0  0  0
   58.7290   32.3560   50.2030 C   0  0  0  0  0  0  0  0  0  0  0  0
   59.6070   33.3260   50.7190 C   0  0  0  0  0  0  0  0  0  0  0  0
   59.9420   33.3510   52.1890 C   0  0  0  0  0  0  0  0  0  0  0  0
   59.7700   32.1010   52.7560 F   0  0  0  0  0  0  0  0  0  0  0  0
   59.1220   34.2450   52.8570 F   0  0  0  0  0  0  0  0  0  0  0  0
   61.2580   33.7420   52.3490 F   0  0  0  0  0  0  0  0  0  0  0  0
   60.2470   34.2070   49.8310 C   0  0  0  0  0  0  0  0  0  0  0  0
   59.9730   34.1550   48.4610 C   0  0  0  0  0  0  0  0  0  0  0  0
   58.5250   31.8030   45.8150 C   0  0  0  0  0  0  0  0  0  0  0  0
   60.3440   29.2310   44.6440 N   0  0  0  0  0  0  0  0  0  0  0  0
   61.0490   29.6930   45.6640 N   0  0  0  0  0  0  0  0  0  0  0  0
   60.3970   29.3420   46.7890 C   0  0  0  0  0  0  0  0  0  0  0  0
   60.8640   29.7400   48.1250 C   0  0  0  0  0  0  0  0  0  0  0  0
   61.6560   30.8820   48.3160 C   0  0  0  0  0  0  0  0  0  0  0  0
   62.0690   31.2220   49.6060 C   0  0  0  0  0  0  0  0  0  0  0  0
   61.6810   30.4330   50.6910 C   0  0  0  0  0  0  0  0  0  0  0  0
   60.8720   29.3170   50.4680 C   0  0  0  0  0  0  0  0  0  0  0  0
   60.4810   29.0020   49.2040 N   0  0  0  0  0  0  0  0  0  0  0  0
   58.1333   26.3569   48.5341 H   0  0  0  0  0  0  0  0  0  0  0  0
   57.2335   26.3262   46.9798 H   0  0  0  0  0  0  0  0  0  0  0  0
   59.0286   26.2615   46.9798 H   0  0  0  0  0  0  0  0  0  0  0  0
   57.2300   28.5862   47.0671 H   0  0  0  0  0  0  0  0  0  0  0  0
   58.4229   28.5871   48.4289 H   0  0  0  0  0  0  0  0  0  0  0  0
   55.7020   28.3666   44.6907 H   0  0  0  0  0  0  0  0  0  0  0  0
   56.8923   29.4285   45.5679 H   0  0  0  0  0  0  0  0  0  0  0  0
   56.4813   29.6584   42.5827 H   0  0  0  0  0  0  0  0  0  0  0  0
   55.3963   30.4970   43.8075 H   0  0  0  0  0  0  0  0  0  0  0  0
   58.4006   30.8934   43.5502 H   0  0  0  0  0  0  0  0  0  0  0  0
   57.1083   32.0032   42.9222 H   0  0  0  0  0  0  0  0  0  0  0  0
   57.3035   33.7156   43.8568 H   0  0  0  0  0  0  0  0  0  0  0  0
   55.9530   33.5818   45.0236 H   0  0  0  0  0  0  0  0  0  0  0  0
   57.1052   34.8789   46.2385 H   0  0  0  0  0  0  0  0  0  0  0  0
   59.7144   34.0599   44.5889 H   0  0  0  0  0  0  0  0  0  0  0  0
   60.0874   35.0654   45.7131 H   0  0  0  0  0  0  0  0  0  0  0  0
   57.7667   31.5444   48.4384 H   0  0  0  0  0  0  0  0  0  0  0  0
   58.2533   31.6330   50.8819 H   0  0  0  0  0  0  0  0  0  0  0  0
   60.9685   34.9426   50.2163 H   0  0  0  0  0  0  0  0  0  0  0  0
   60.4767   34.8524   47.7755 H   0  0  0  0  0  0  0  0  0  0  0  0
   59.3651   31.5192   45.1641 H   0  0  0  0  0  0  0  0  0  0  0  0
   58.3933   31.0224   46.5787 H   0  0  0  0  0  0  0  0  0  0  0  0
   61.9491   31.5041   47.4574 H   0  0  0  0  0  0  0  0  0  0  0  0
   62.6986   32.1095   49.7671 H   0  0  0  0  0  0  0  0  0  0  0  0
   62.0089   30.6878   51.7096 H   0  0  0  0  0  0  0  0  0  0  0  0
   60.5509   28.6925   51.3147 H   0  0  0  0  0  0  0  0  0  0  0  0
  1  2  1  0
  2  3  1  0
  3  4  1  0
  4  5  1  0
  5  6  1  0
  6  7  1  0
  7  8  1  0
  8  9  1  0
  9 10  1  0
 10 11  1  0
 11 12  1  0
 12 13  1  0
 13 14  1  1
 14 15  2  0
 15 16  1  0
 16 17  2  0
 17 18  1  0
 18 19  1  0
 18 20  1  0
 18 21  1  0
 17 22  1  0
 22 23  2  0
 13 24  1  0
  4 25  2  0
 25 26  1  0
 26 27  2  0
 27 28  1  0
 28 29  2  0
 29 30  1  0
 30 31  2  0
 31 32  1  0
 32 33  2  0
 27  3  1  0
 33 28  1  0
 24  9  1  0
 13 11  1  0
 23 14  1  0
  1 34  1  0
  1 35  1  0
  1 36  1  0
  2 37  1  0
  2 38  1  0
  6 39  1  0
  6 40  1  0
  7 41  1  0
  7 42  1  0
  8 43  1  0
  8 44  1  0
 10 45  1  0
 10 46  1  0
 11 47  1  1
 12 48  1  0
 12 49  1  0
 15 50  1  0
 16 51  1  0
 22 52  1  0
 23 53  1  0
 24 54  1  0
 24 55  1  0
 29 56  1  0
 30 57  1  0
 31 58  1  0
 32 59  1  0
M  END
>  <UniqueID>  (20) 
20

>  <SMILES>  (20) 
CCn1c(SCCCN2C[C@@H]3C[C@]3(c3ccc(C(F)(F)F)cc3)C2)nnc1-c1ccccn1

>  <Energy>  (20) 
367.55831672689

>  <Genealogy>  (20) 
CCn1c(SCCCN2C[C@@H]3C[C@]3(c3ccc(C(F)(F)F)cc3)C2)nnc1-c1ccccn1 (chirality)
CCn1c(SCCCN2C[C@@H]3C[C@]3(c3ccc(C(F)(F)F)cc3)C2)nnc1-c1ccccn1 (3D coordinates assigned)
CCn1c(SCCCN2C[C@@H]3C[C@]3(c3ccc(C(F)(F)F)cc3)C2)nnc1-c1ccccn1 (nonaromatic ring conformer: 367.55831672689 kcal/mol)

>  <smiles>  (20) 
CCn1c(SCCCN2CC3CC3(c3ccc(C(F)(F)F)cc3)C2)nnc1-c1ccccn1

>  <score_type>  (20) 
oracle

>  <origin>  (20) 
adg

>  <m_score__min__energy>  (20) 
-9.5700000000000003

>  <m_primary>  (20) 
energy

$$$$
20:0
     RDKit          3D

 33 33  0  0  0  0  0  0  0  0999 V2000
   58.2264   33.4781   43.4406 H   0  0  0  0  0  0  0  0  0  0  0  0
   58.3840   33.4990   44.5290 C   0  0  0  0  0  0  0  0  0  0  0  0
   57.6290   32.5240   45.3370 C   0  0  0  0  0  0  0  0  0  0  0  0
   56.3780   32.4210   45.2240 O   0  0  0  0  0  0  0  0  0  0  0  0
   58.3410   31.6510   46.1680 O   0  0  0  0  0  0  0  0  0  0  0  0
   59.2350   30.6450   45.6880 C   0  0  0  0  0  0  0  0  0  0  0  0
   60.2072   30.7604   46.1894 H   0  0  0  0  0  0  0  0  0  0  0  0
   59.3425   30.7656   44.5999 H   0  0  0  0  0  0  0  0  0  0  0  0
   58.6910   29.2380   45.9690 C   0  0  0  0  0  0  0  0  0  0  0  0
   58.2742   29.2230   46.9869 H   0  0  0  0  0  0  0  0  0  0  0  0
   59.5308   28.5374   45.8510 H   0  0  0  0  0  0  0  0  0  0  0  0
   57.5950   28.7970   44.9890 C   0  0  0  0  0  0  0  0  0  0  0  0
   57.4036   27.7220   45.1226 H   0  0  0  0  0  0  0  0  0  0  0  0
   57.9369   29.0016   43.9637 H   0  0  0  0  0  0  0  0  0  0  0  0
   56.3510   29.5400   45.2260 N   0  0  0  0  0  0  0  0  0  0  0  0
   56.6030   30.4730   45.6300 H   0  0  0  0  0  0  0  0  0  0  0  0
   55.6480   29.7780   43.9600 C   0  0  0  0  0  0  0  0  0  0  0  0
   54.8918   30.5636   44.1050 H   0  0  0  0  0  0  0  0  0  0  0  0
   55.1600   28.8467   43.6365 H   0  0  0  0  0  0  0  0  0  0  0  0
   56.6390   30.2220   42.8910 C   0  0  0  0  0  0  0  0  0  0  0  0
   57.5414   30.6263   43.3728 H   0  0  0  0  0  0  0  0  0  0  0  0
   56.9127   29.3605   42.2642 H   0  0  0  0  0  0  0  0  0  0  0  0
   56.1783   30.9997   42.2642 H   0  0  0  0  0  0  0  0  0  0  0  0
   59.2460   34.4090   45.0050 C   0  0  0  0  0  0  0  0  0  0  0  0
   59.4382   35.2956   44.3828 H   0  0  0  0  0  0  0  0  0  0  0  0
   59.9570   34.3200   46.2920 C   0  0  0  0  0  0  0  0  0  0  0  0
   59.2890   34.5580   47.8210 S   0  0  0  0  0  0  0  0  0  0  0  0
   60.6460   34.0930   48.6950 C   0  0  0  0  0  0  0  0  0  0  0  0
   60.7380   34.0915   49.7911 H   0  0  0  0  0  0  0  0  0  0  0  0
   61.6310   33.7110   47.7950 C   0  0  0  0  0  0  0  0  0  0  0  0
   62.6251   33.3572   48.1058 H   0  0  0  0  0  0  0  0  0  0  0  0
   61.2410   33.8180   46.4540 C   0  0  0  0  0  0  0  0  0  0  0  0
   61.8886   33.5323   45.6120 H   0  0  0  0  0  0  0  0  0  0  0  0
  1  2  1  0
  2  3  1  0
  3  4  2  0
  3  5  1  0
  5  6  1  0
  6  7  1  0
  6  8  1  0
  6  9  1  0
  9 10  1  0
  9 11  1  0
  9 12  1  0
 12 13  1  0
 12 14  1  0
 12 15  1  0
 15 16  1  0
 15 17  1  0
 17 18  1  0
 17 19  1  0
 17 20  1  0
 20 21  1  0
 20 22  1  0
 20 23  1  0
  2 24  2  0
 24 25  1  0
 24 26  1  0
 26 27  1  0
 27 28  1  0
 28 29  1  0
 28 30  2  0
 30 31  1  0
 30 32  1  0
 32 33  1  0
 32 26  2  0
M  END
>  <UniqueID>  (21) 
21

>  <SMILES>  (21) 
CCNCCCOC(=O)/C=C\c1cccs1

>  <Energy>  (21) 
53.41285541181821

>  <Genealogy>  (21) 
CCNCCCOC(=O)/C=C\c1cccs1 (cis-trans isomerization)
CCNCCCOC(=O)/C=C\c1cccs1 (3D coordinates assigned)
CCNCCCOC(=O)/C=C\c1cccs1 (optimized conformer: 53.41285541181821 kcal/mol)

>  <smiles>  (21) 
CCNCCCOC(=O)C=Cc1cccs1

>  <score_type>  (21) 
oracle

>  <origin>  (21) 
adg

>  <m_score__min__energy>  (21) 
-5.7000000000000002

>  <m_primary>  (21) 
energy

$$$$
