0:0
     RDKit          3D

 53 55  0  0  0  0  0  0  0  0999 V2000
   63.3640   33.7070   46.8540 C   0  0  0  0  0  0  0  0  0  0  0  0
   63.6660   33.5870   48.3470 C   0  0  0  0  0  0  0  0  0  0  0  0
   64.2600   32.2750   48.6580 N   0  0  0  0  0  0  0  0  0  0  0  0
   64.2030   31.9610   50.0990 C   0  0  0  0  0  0  0  0  0  0  0  0
   63.0110   31.0640   50.4810 C   0  0  0  0  0  0  0  0  0  0  0  0
   62.0510   31.0090   49.4430 O   0  0  0  0  0  0  0  0  0  0  0  0
   61.2000   29.8950   49.6130 C   0  0  0  0  0  0  0  0  0  0  0  0
   60.0730   29.9680   48.5870 C   0  0  0  0  0  0  0  0  0  0  0  0
   60.5320   30.5950   47.3490 N   0  0  0  0  0  0  0  0  0  0  0  0
   59.5910   31.1370   46.4090 C   0  0  0  0  0  0  0  0  0  0  0  0
   58.8510   30.2610   45.5990 C   0  0  0  0  0  0  0  0  0  0  0  0
   58.8230   28.8750   45.8690 C   0  0  0  0  0  0  0  0  0  0  0  0
   58.0440   28.0160   45.0990 C   0  0  0  0  0  0  0  0  0  0  0  0
   57.2750   28.5210   44.0560 C   0  0  0  0  0  0  0  0  0  0  0  0
   57.3060   29.8830   43.7580 C   0  0  0  0  0  0  0  0  0  0  0  0
   58.1240   30.7750   44.4970 C   0  0  0  0  0  0  0  0  0  0  0  0
   58.2370   32.1080   44.1610 N   0  0  0  0  0  0  0  0  0  0  0  0
   57.7870   32.5710   42.8280 C   0  0  0  0  0  0  0  0  0  0  0  0
   58.7910   33.0040   45.0590 C   0  0  0  0  0  0  0  0  0  0  0  0
   58.7100   34.4030   44.8440 C   0  0  0  0  0  0  0  0  0  0  0  0
   59.3160   35.3030   45.7120 C   0  0  0  0  0  0  0  0  0  0  0  0
   59.9530   34.8470   46.8560 C   0  0  0  0  0  0  0  0  0  0  0  0
   59.9850   33.4830   47.1600 C   0  0  0  0  0  0  0  0  0  0  0  0
   60.4530   33.1110   48.4620 N   0  0  0  0  0  0  0  0  0  0  0  0
   59.4560   32.5350   46.2310 C   0  0  0  0  0  0  0  0  0  0  0  0
   62.3498   34.1100   46.7163 H   0  0  0  0  0  0  0  0  0  0  0  0
   64.0940   34.3834   46.3854 H   0  0  0  0  0  0  0  0  0  0  0  0
   63.4307   32.7140   46.3854 H   0  0  0  0  0  0  0  0  0  0  0  0
   64.3713   34.3798   48.6369 H   0  0  0  0  0  0  0  0  0  0  0  0
   62.7241   33.6885   48.9060 H   0  0  0  0  0  0  0  0  0  0  0  0
   63.7220   31.5320   48.1520 H   0  0  0  0  0  0  0  0  0  0  0  0
   65.2500   32.2420   48.3200 H   0  0  0  0  0  0  0  0  0  0  0  0
   65.1326   31.4448   50.3808 H   0  0  0  0  0  0  0  0  0  0  0  0
   64.0785   32.9135   50.6350 H   0  0  0  0  0  0  0  0  0  0  0  0
   63.3788   30.0470   50.6822 H   0  0  0  0  0  0  0  0  0  0  0  0
   62.5303   31.4899   51.3741 H   0  0  0  0  0  0  0  0  0  0  0  0
   61.7730   28.9676   49.4657 H   0  0  0  0  0  0  0  0  0  0  0  0
   60.7781   29.9019   50.6288 H   0  0  0  0  0  0  0  0  0  0  0  0
   59.7215   28.9495   48.3656 H   0  0  0  0  0  0  0  0  0  0  0  0
   59.2565   30.5748   49.0056 H   0  0  0  0  0  0  0  0  0  0  0  0
   61.5200   30.9330   47.3090 H   0  0  0  0  0  0  0  0  0  0  0  0
   59.4234   28.4699   46.6969 H   0  0  0  0  0  0  0  0  0  0  0  0
   58.0366   26.9375   45.3155 H   0  0  0  0  0  0  0  0  0  0  0  0
   56.6407   27.8443   43.4646 H   0  0  0  0  0  0  0  0  0  0  0  0
   56.6861   30.2716   42.9366 H   0  0  0  0  0  0  0  0  0  0  0  0
   57.0251   33.3549   42.9501 H   0  0  0  0  0  0  0  0  0  0  0  0
   58.6449   32.9769   42.2720 H   0  0  0  0  0  0  0  0  0  0  0  0
   57.3568   31.7250   42.2720 H   0  0  0  0  0  0  0  0  0  0  0  0
   58.1565   34.7835   43.9729 H   0  0  0  0  0  0  0  0  0  0  0  0
   59.2903   36.3803   45.4910 H   0  0  0  0  0  0  0  0  0  0  0  0
   60.4385   35.5665   47.5318 H   0  0  0  0  0  0  0  0  0  0  0  0
   61.0840   32.2860   48.5790 H   0  0  0  0  0  0  0  0  0  0  0  0
   60.4080   33.7810   49.2580 H   0  0  0  0  0  0  0  0  0  0  0  0
  1  2  1  0
  2  3  1  0
  3  4  1  0
  4  5  1  0
  5  6  1  0
  6  7  1  0
  7  8  1  0
  8  9  1  0
  9 10  1  0
 10 11  2  0
 11 12  1  0
 12 13  2  0
 13 14  1  0
 14 15  2  0
 15 16  1  0
 16 17  2  0
 17 18  1  0
 17 19  1  0
 19 20  2  0
 20 21  1  0
 21 22  2  0
 22 23  1  0
 23 24  1  0
 23 25  2  0
 25 10  1  0
 16 11  1  0
 25 19  1  0
  1 26  1  0
  1 27  1  0
  1 28  1  0
  2 29  1  0
  2 30  1  0
  3 31  1  0
  3 32  1  0
  4 33  1  0
  4 34  1  0
  5 35  1  0
  5 36  1  0
  7 37  1  0
  7 38  1  0
  8 39  1  0
  8 40  1  0
  9 41  1  0
 12 42  1  0
 13 43  1  0
 14 44  1  0
 15 45  1  0
 18 46  1  0
 18 47  1  0
 18 48  1  0
 20 49  1  0
 21 50  1  0
 22 51  1  0
 24 52  1  0
 24 53  1  0
M  CHG  2   3   1  17   1
M  END
>  <UniqueID>  (1) 
1

>  <SMILES>  (1) 
CC[NH2+]CCOCCNc1c2ccccc2[n+](C)c2cccc(N)c12

>  <Energy>  (1) 
84.92407836184775

>  <Genealogy>  (1) 
CC[NH2+]CCOCCNc1c2ccccc2[n+](C)c2cccc(N)c12 (protonated)
CC[NH2+]CCOCCNc1c2ccccc2[n+](C)c2cccc(N)c12 (3D coordinates assigned)
CC[NH2+]CCOCCNc1c2ccccc2[n+](C)c2cccc(N)c12 (optimized conformer: 84.92407836184775 kcal/mol)

>  <smiles>  (1) 
CCNCCOCCNc1c2ccccc2[n+](C)c2cccc(N)c12

>  <score_type>  (1) 
oracle

>  <origin>  (1) 
adg

>  <m_score__min__energy>  (1) 
-4.1500000000000004

>  <m_primary>  (1) 
energy

$$$$
1:0
     RDKit          3D

 71 73  0  0  0  0  0  0  0  0999 V2000
   57.3640   21.1820   45.1440 C   0  0  0  0  0  0  0  0  0  0  0  0
   58.3630   22.2390   45.6060 C   0  0  0  0  0  0  0  0  0  0  0  0
   57.7720   23.0940   46.5680 O   0  0  0  0  0  0  0  0  0  0  0  0
   56.5910   22.5130   47.0860 C   0  0  0  0  0  0  0  0  0  0  0  0
   55.5420   23.6040   47.3480 C   0  0  0  0  0  0  0  0  0  0  0  0
   55.5100   24.6110   46.3500 O   0  0  0  0  0  0  0  0  0  0  0  0
   54.7720   24.2230   45.2040 C   0  0  0  0  0  0  0  0  0  0  0  0
   55.6690   23.9360   43.9880 C   0  0  0  0  0  0  0  0  0  0  0  0
   57.0470   24.3990   44.2310 N   0  0  0  0  0  0  0  0  0  0  0  0
   57.4210   25.5640   43.4100 C   0  0  0  0  0  0  0  0  0  0  0  0
   58.2330   26.5790   44.2260 C   0  0  0  0  0  0  0  0  0  0  0  0
   57.4840   27.0190   45.4980 C   0  0  0  0  0  0  0  0  0  0  0  0
   57.7450   26.1420   46.6550 N   0  0  0  0  0  0  0  0  0  0  0  0
   59.1150   26.2230   47.1910 C   0  0  0  0  0  0  0  0  0  0  0  0
   59.3170   27.4800   48.0520 C   0  0  0  0  0  0  0  0  0  0  0  0
   59.6390   28.7070   47.1900 C   0  0  0  0  0  0  0  0  0  0  0  0
   58.6070   29.7340   47.3220 N   0  0  0  0  0  0  0  0  0  0  0  0
   58.7550   30.9990   46.6640 C   0  0  0  0  0  0  0  0  0  0  0  0
   59.4570   32.0410   47.2890 C   0  0  0  0  0  0  0  0  0  0  0  0
   60.0600   31.8480   48.5500 C   0  0  0  0  0  0  0  0  0  0  0  0
   60.7970   32.8670   49.1480 C   0  0  0  0  0  0  0  0  0  0  0  0
   60.9610   34.0820   48.4950 C   0  0  0  0  0  0  0  0  0  0  0  0
   60.3680   34.2980   47.2510 C   0  0  0  0  0  0  0  0  0  0  0  0
   59.5750   33.2960   46.6340 C   0  0  0  0  0  0  0  0  0  0  0  0
   58.9410   33.5090   45.4220 N   0  0  0  0  0  0  0  0  0  0  0  0
   58.8240   34.8810   44.8800 C   0  0  0  0  0  0  0  0  0  0  0  0
   58.3970   32.4420   44.7310 C   0  0  0  0  0  0  0  0  0  0  0  0
   57.9710   32.5630   43.3820 C   0  0  0  0  0  0  0  0  0  0  0  0
   57.3760   31.4910   42.7170 C   0  0  0  0  0  0  0  0  0  0  0  0
   57.2060   30.2730   43.3630 C   0  0  0  0  0  0  0  0  0  0  0  0
   57.6510   30.1100   44.6720 C   0  0  0  0  0  0  0  0  0  0  0  0
   58.2640   31.1770   45.3610 C   0  0  0  0  0  0  0  0  0  0  0  0
   56.9083   20.6998   46.0214 H   0  0  0  0  0  0  0  0  0  0  0  0
   56.5791   21.6590   44.5388 H   0  0  0  0  0  0  0  0  0  0  0  0
   57.8845   20.4252   44.5388 H   0  0  0  0  0  0  0  0  0  0  0  0
   59.2363   21.7409   46.0524 H   0  0  0  0  0  0  0  0  0  0  0  0
   58.6715   22.8401   44.7379 H   0  0  0  0  0  0  0  0  0  0  0  0
   56.1915   21.7900   46.3596 H   0  0  0  0  0  0  0  0  0  0  0  0
   56.8242   22.0009   48.0312 H   0  0  0  0  0  0  0  0  0  0  0  0
   54.5508   23.1294   47.3953 H   0  0  0  0  0  0  0  0  0  0  0  0
   55.8158   24.0949   48.2935 H   0  0  0  0  0  0  0  0  0  0  0  0
   54.2028   23.3128   45.4438 H   0  0  0  0  0  0  0  0  0  0  0  0
   54.1093   25.0595   44.9373 H   0  0  0  0  0  0  0  0  0  0  0  0
   55.6813   22.8528   43.7970 H   0  0  0  0  0  0  0  0  0  0  0  0
   55.2652   24.4746   43.1180 H   0  0  0  0  0  0  0  0  0  0  0  0
   57.1160   24.6950   45.2340 H   0  0  0  0  0  0  0  0  0  0  0  0
   58.0261   25.2228   42.5571 H   0  0  0  0  0  0  0  0  0  0  0  0
   56.5005   26.0542   43.0603 H   0  0  0  0  0  0  0  0  0  0  0  0
   59.1891   26.1191   44.5167 H   0  0  0  0  0  0  0  0  0  0  0  0
   58.3969   27.4687   43.6002 H   0  0  0  0  0  0  0  0  0  0  0  0
   57.8001   28.0408   45.7548 H   0  0  0  0  0  0  0  0  0  0  0  0
   56.4071   26.9638   45.2805 H   0  0  0  0  0  0  0  0  0  0  0  0
   57.5700   25.1520   46.3630 H   0  0  0  0  0  0  0  0  0  0  0  0
   59.3091   25.3335   47.8083 H   0  0  0  0  0  0  0  0  0  0  0  0
   59.8122   26.2743   46.3417 H   0  0  0  0  0  0  0  0  0  0  0  0
   58.3961   27.6750   48.6212 H   0  0  0  0  0  0  0  0  0  0  0  0
   60.1658   27.3017   48.7286 H   0  0  0  0  0  0  0  0  0  0  0  0
   60.6046   29.1260   47.5095 H   0  0  0  0  0  0  0  0  0  0  0  0
   59.6815   28.3905   46.1374 H   0  0  0  0  0  0  0  0  0  0  0  0
   57.7780   29.5920   47.9420 H   0  0  0  0  0  0  0  0  0  0  0  0
   59.9468   30.8830   49.0658 H   0  0  0  0  0  0  0  0  0  0  0  0
   61.2496   32.7097   50.1381 H   0  0  0  0  0  0  0  0  0  0  0  0
   61.5612   34.8774   48.9610 H   0  0  0  0  0  0  0  0  0  0  0  0
   60.5175   35.2606   46.7401 H   0  0  0  0  0  0  0  0  0  0  0  0
   58.7627   35.5994   45.7107 H   0  0  0  0  0  0  0  0  0  0  0  0
   59.7060   35.1080   44.2632 H   0  0  0  0  0  0  0  0  0  0  0  0
   57.9163   34.9554   44.2632 H   0  0  0  0  0  0  0  0  0  0  0  0
   58.1124   33.5171   42.8531 H   0  0  0  0  0  0  0  0  0  0  0  0
   57.0399   31.6106   41.6765 H   0  0  0  0  0  0  0  0  0  0  0  0
   56.7194   29.4367   42.8398 H   0  0  0  0  0  0  0  0  0  0  0  0
   57.5232   29.1395   45.1738 H   0  0  0  0  0  0  0  0  0  0  0  0
  1  2  1  0
  2  3  1  0
  3  4  1  0
  4  5  1  0
  5  6  1  0
  6  7  1  0
  7  8  1  0
  8  9  1  0
  9 10  1  0
 10 11  1  0
 11 12  1  0
 12 13  1  0
 13 14  1  0
 14 15  1  0
 15 16  1  0
 16 17  1  0
 17 18  1  0
 18 19  2  0
 19 20  1  0
 20 21  2  0
 21 22  1  0
 22 23  2  0
 23 24  1  0
 24 25  2  0
 25 26  1  0
 25 27  1  0
 27 28  2  0
 28 29  1  0
 29 30  2  0
 30 31  1  0
 31 32  2  0
 32 18  1  0
 24 19  1  0
 32 27  1  0
  1 33  1  0
  1 34  1  0
  1 35  1  0
  2 36  1  0
  2 37  1  0
  4 38  1  0
  4 39  1  0
  5 40  1  0
  5 41  1  0
  7 42  1  0
  7 43  1  0
  8 44  1  0
  8 45  1  0
  9 46  1  0
 10 47  1  0
 10 48  1  0
 11 49  1  0
 11 50  1  0
 12 51  1  0
 12 52  1  0
 13 53  1  0
 14 54  1  0
 14 55  1  0
 15 56  1  0
 15 57  1  0
 16 58  1  0
 16 59  1  0
 17 60  1  0
 20 61  1  0
 21 62  1  0
 22 63  1  0
 23 64  1  0
 26 65  1  0
 26 66  1  0
 26 67  1  0
 28 68  1  0
 29 69  1  0
 30 70  1  0
 31 71  1  0
M  CHG  1  25   1
M  END
>  <UniqueID>  (2) 
2

>  <SMILES>  (2) 
CCOCCOCCNCCCNCCCNc1c2ccccc2[n+](C)c2ccccc12

>  <Energy>  (2) 
93.47972339392616

>  <Genealogy>  (2) 
CCOCCOCCNCCCNCCCNc1c2ccccc2[n+](C)c2ccccc12 (3D coordinates assigned)
CCOCCOCCNCCCNCCCNc1c2ccccc2[n+](C)c2ccccc12 (optimized conformer: 93.47972339392616 kcal/mol)

>  <smiles>  (2) 
CCOCCOCCNCCCNCCCNc1c2ccccc2[n+](C)c2ccccc12

>  <score_type>  (2) 
oracle

>  <origin>  (2) 
adg

>  <m_score__min__energy>  (2) 
-6.6699999999999999

>  <m_primary>  (2) 
energy

$$$$
2:0
     RDKit          3D

 61 65  0  0  0  0  0  0  0  0999 V2000
   59.8510   29.7910   46.2670 C   0  0  0  0  0  0  0  0  0  0  0  0
   59.4020   29.8270   44.8090 C   0  0  0  0  0  0  0  0  0  0  0  0
   57.9390   29.7770   44.7150 N   0  0  0  0  0  0  0  0  0  0  0  0
   57.0950   28.7360   44.9350 C   0  0  0  0  0  0  0  0  0  0  0  0
   57.4800   27.3780   45.3740 C   0  0  0  0  0  0  0  0  0  0  0  0
   57.7610   26.3600   44.4460 C   0  0  0  0  0  0  0  0  0  0  0  0
   58.1030   25.0780   44.8860 C   0  0  0  0  0  0  0  0  0  0  0  0
   58.1530   24.7970   46.2550 C   0  0  0  0  0  0  0  0  0  0  0  0
   57.8530   25.7950   47.1830 C   0  0  0  0  0  0  0  0  0  0  0  0
   57.5100   27.0790   46.7470 C   0  0  0  0  0  0  0  0  0  0  0  0
   55.8060   29.1070   44.7790 N   0  0  0  0  0  0  0  0  0  0  0  0
   55.8230   30.3860   44.4420 N   0  0  0  0  0  0  0  0  0  0  0  0
   57.1030   30.7920   44.4170 C   0  0  0  0  0  0  0  0  0  0  0  0
   57.6030   32.4850   44.0770 S   0  0  0  0  0  0  0  0  0  0  0  0
   57.8420   32.9480   45.8300 C   0  0  0  0  0  0  0  0  0  0  0  0
   58.5570   34.2960   45.9660 C   0  0  0  0  0  0  0  0  0  0  0  0
   58.9280   34.6020   47.4230 C   0  0  0  0  0  0  0  0  0  0  0  0
   60.3910   34.5930   47.6230 N   0  0  0  0  0  0  0  0  0  0  0  0
   61.1310   34.2010   46.4130 C   0  0  0  0  0  0  0  0  0  0  0  0
   62.3610   33.4230   46.8500 C   0  0  2  0  0  0  0  0  0  0  0  0
   62.1460   31.9680   47.2430 C   0  0  0  0  0  0  0  0  0  0  0  0
   62.1260   33.0640   48.3010 C   0  0  1  0  0  0  0  0  0  0  0  0
   63.3240   33.2270   49.2000 C   0  0  0  0  0  0  0  0  0  0  0  0
   63.2710   34.0810   50.3120 C   0  0  0  0  0  0  0  0  0  0  0  0
   64.3740   34.2020   51.1610 C   0  0  0  0  0  0  0  0  0  0  0  0
   65.5510   33.4750   50.9100 C   0  0  0  0  0  0  0  0  0  0  0  0
   66.7240   33.5710   51.8530 C   0  0  0  0  0  0  0  0  0  0  0  0
   66.4170   34.3820   52.9330 F   0  0  0  0  0  0  0  0  0  0  0  0
   67.0660   32.3200   52.3350 F   0  0  0  0  0  0  0  0  0  0  0  0
   68.1220   34.2610   50.9930 Cl  0  0  0  0  0  0  0  0  0  0  0  0
   65.5830   32.5870   49.8200 C   0  0  0  0  0  0  0  0  0  0  0  0
   64.4800   32.4670   48.9700 C   0  0  0  0  0  0  0  0  0  0  0  0
   60.7850   33.6650   48.6920 C   0  0  0  0  0  0  0  0  0  0  0  0
   58.9712   29.8615   46.9235 H   0  0  0  0  0  0  0  0  0  0  0  0
   60.3810   28.8475   46.4643 H   0  0  0  0  0  0  0  0  0  0  0  0
   60.5245   30.6380   46.4643 H   0  0  0  0  0  0  0  0  0  0  0  0
   59.7621   30.7562   44.3432 H   0  0  0  0  0  0  0  0  0  0  0  0
   59.8196   28.9523   44.2889 H   0  0  0  0  0  0  0  0  0  0  0  0
   57.7115   26.5734   43.3680 H   0  0  0  0  0  0  0  0  0  0  0  0
   58.3331   24.2893   44.1545 H   0  0  0  0  0  0  0  0  0  0  0  0
   58.4287   23.7896   46.6002 H   0  0  0  0  0  0  0  0  0  0  0  0
   57.8863   25.5715   48.2595 H   0  0  0  0  0  0  0  0  0  0  0  0
   57.2625   27.8587   47.4824 H   0  0  0  0  0  0  0  0  0  0  0  0
   54.9750   30.9660   44.2610 H   0  0  0  0  0  0  0  0  0  0  0  0
   56.8587   33.0148   46.3186 H   0  0  0  0  0  0  0  0  0  0  0  0
   58.4667   32.1782   46.3066 H   0  0  0  0  0  0  0  0  0  0  0  0
   59.4761   34.2736   45.3621 H   0  0  0  0  0  0  0  0  0  0  0  0
   57.8719   35.0823   45.6162 H   0  0  0  0  0  0  0  0  0  0  0  0
   58.5369   35.5948   47.6903 H   0  0  0  0  0  0  0  0  0  0  0  0
   58.4878   33.8223   48.0619 H   0  0  0  0  0  0  0  0  0  0  0  0
   60.4961   33.5689   45.7748 H   0  0  0  0  0  0  0  0  0  0  0  0
   61.4249   35.0915   45.8379 H   0  0  0  0  0  0  0  0  0  0  0  0
   63.1227   33.8920   46.2098 H   0  0  0  0  0  0  0  0  0  0  0  0
   61.2144   31.4537   46.9645 H   0  0  0  0  0  0  0  0  0  0  0  0
   62.7039   31.0307   47.1009 H   0  0  0  0  0  0  0  0  0  0  0  0
   62.3569   34.6579   50.5163 H   0  0  0  0  0  0  0  0  0  0  0  0
   64.3212   34.8712   52.0325 H   0  0  0  0  0  0  0  0  0  0  0  0
   66.4830   31.9822   49.6350 H   0  0  0  0  0  0  0  0  0  0  0  0
   64.5188   31.7735   48.1170 H   0  0  0  0  0  0  0  0  0  0  0  0
   60.0324   32.8695   48.7957 H   0  0  0  0  0  0  0  0  0  0  0  0
   60.8612   34.1915   49.6548 H   0  0  0  0  0  0  0  0  0  0  0  0
  1  2  1  0
  2  3  1  0
  3  4  1  0
  4  5  1  0
  5  6  2  0
  6  7  1  0
  7  8  2  0
  8  9  1  0
  9 10  2  0
  4 11  2  0
 11 12  1  0
 12 13  2  0
 13 14  1  0
 14 15  1  0
 15 16  1  0
 16 17  1  0
 17 18  1  0
 18 19  1  0
 19 20  1  0
 20 21  1  0
 21 22  1  0
 22 23  1  1
 23 24  2  0
 24 25  1  0
 25 26  2  0
 26 27  1  0
 27 28  1  0
 27 29  1  0
 27 30  1  0
 26 31  1  0
 31 32  2  0
 22 33  1  0
 13  3  1  0
 33 18  1  0
 10  5  1  0
 22 20  1  0
 32 23  1  0
  1 34  1  0
  1 35  1  0
  1 36  1  0
  2 37  1  0
  2 38  1  0
  6 39  1  0
  7 40  1  0
  8 41  1  0
  9 42  1  0
 10 43  1  0
 12 44  1  0
 15 45  1  0
 15 46  1  0
 16 47  1  0
 16 48  1  0
 17 49  1  0
 17 50  1  0
 19 51  1  0
 19 52  1  0
 20 53  1  1
 21 54  1  0
 21 55  1  0
 24 56  1  0
 25 57  1  0
 31 58  1  0
 32 59  1  0
 33 60  1  0
 33 61  1  0
M  CHG  1  12   1
M  END
>  <UniqueID>  (3) 
3

>  <SMILES>  (3) 
CCn1c(-c2ccccc2)n[nH+]c1SCCCN1C[C@@H]2C[C@]2(c2ccc(C(F)(F)Cl)cc2)C1

>  <Energy>  (3) 
367.60724149472054

>  <Genealogy>  (3) 
CCn1c(-c2ccccc2)n[nH+]c1SCCCN1CC2CC2(c2ccc(C(F)(F)Cl)cc2)C1 (protonated)
CCn1c(-c2ccccc2)n[nH+]c1SCCCN1C[C@@H]2C[C@]2(c2ccc(C(F)(F)Cl)cc2)C1 (chirality)
CCn1c(-c2ccccc2)n[nH+]c1SCCCN1C[C@@H]2C[C@]2(c2ccc(C(F)(F)Cl)cc2)C1 (3D coordinates assigned)
CCn1c(-c2ccccc2)n[nH+]c1SCCCN1C[C@@H]2C[C@]2(c2ccc(C(F)(F)Cl)cc2)C1 (nonaromatic ring conformer: 367.60724149472054 kcal/mol)

>  <smiles>  (3) 
CCn1c(SCCCN2CC3CC3(c3ccc(C(F)(F)Cl)cc3)C2)nnc1-c1ccccc1

>  <score_type>  (3) 
oracle

>  <origin>  (3) 
adg

>  <m_score__min__energy>  (3) 
-7.4699999999999998

>  <m_primary>  (3) 
energy

$$$$
3:0
     RDKit          3D

 37 38  0  0  0  0  0  0  0  0999 V2000
   60.5285   34.2724   49.7768 H   0  0  0  0  0  0  0  0  0  0  0  0
   60.8930   34.1810   48.7430 C   0  0  0  0  0  0  0  0  0  0  0  0
   60.0160   34.6590   47.6510 C   0  0  0  0  0  0  0  0  0  0  0  0
   59.9103   35.7443   47.5063 H   0  0  0  0  0  0  0  0  0  0  0  0
   59.3420   33.8400   46.8270 C   0  0  0  0  0  0  0  0  0  0  0  0
   59.0010   34.1710   45.4420 C   0  0  0  0  0  0  0  0  0  0  0  0
   59.2080   35.2630   44.8490 O   0  0  0  0  0  0  0  0  0  0  0  0
   58.4070   32.9810   44.8710 C   0  0  0  0  0  0  0  0  0  0  0  0
   57.9300   32.7370   43.5840 C   0  0  0  0  0  0  0  0  0  0  0  0
   57.9652   33.5175   42.8097 H   0  0  0  0  0  0  0  0  0  0  0  0
   57.4030   31.4650   43.3050 C   0  0  0  0  0  0  0  0  0  0  0  0
   57.0169   31.2417   42.2995 H   0  0  0  0  0  0  0  0  0  0  0  0
   57.3660   30.4730   44.3060 C   0  0  0  0  0  0  0  0  0  0  0  0
   56.9530   29.4798   44.0756 H   0  0  0  0  0  0  0  0  0  0  0  0
   57.8530   30.7440   45.5960 C   0  0  0  0  0  0  0  0  0  0  0  0
   57.8283   29.9730   46.3802 H   0  0  0  0  0  0  0  0  0  0  0  0
   58.3700   32.0170   45.8600 C   0  0  0  0  0  0  0  0  0  0  0  0
   58.9060   32.4920   47.1030 N   0  0  0  0  0  0  0  0  0  0  0  0
   58.5300   31.9490   48.4090 C   0  0  0  0  0  0  0  0  0  0  0  0
   58.9627   32.5738   49.2042 H   0  0  0  0  0  0  0  0  0  0  0  0
   57.4340   31.9438   48.5022 H   0  0  0  0  0  0  0  0  0  0  0  0
   58.9108   30.9212   48.5022 H   0  0  0  0  0  0  0  0  0  0  0  0
   62.0810   33.6540   48.5510 N   0  0  0  0  0  0  0  0  0  0  0  0
   63.0940   33.7990   49.6100 C   0  0  0  0  0  0  0  0  0  0  0  0
   62.6192   33.6363   50.5888 H   0  0  0  0  0  0  0  0  0  0  0  0
   63.5197   34.8119   49.5565 H   0  0  0  0  0  0  0  0  0  0  0  0
   64.2170   32.7840   49.4230 C   0  0  0  0  0  0  0  0  0  0  0  0
   64.5813   32.4547   50.4073 H   0  0  0  0  0  0  0  0  0  0  0  0
   63.8376   31.9163   48.8634 H   0  0  0  0  0  0  0  0  0  0  0  0
   65.0420   33.2489   48.8634 H   0  0  0  0  0  0  0  0  0  0  0  0
   62.4580   32.9460   47.3120 C   0  0  0  0  0  0  0  0  0  0  0  0
   63.0523   32.0575   47.5718 H   0  0  0  0  0  0  0  0  0  0  0  0
   61.5397   32.6532   46.7818 H   0  0  0  0  0  0  0  0  0  0  0  0
   63.2820   33.8480   46.3970 C   0  0  0  0  0  0  0  0  0  0  0  0
   63.8993   34.5237   47.0073 H   0  0  0  0  0  0  0  0  0  0  0  0
   63.9334   33.2294   45.7621 H   0  0  0  0  0  0  0  0  0  0  0  0
   62.6072   34.4409   45.7621 H   0  0  0  0  0  0  0  0  0  0  0  0
  1  2  1  0
  2  3  1  0
  3  4  1  0
  3  5  2  0
  5  6  1  0
  6  7  2  0
  6  8  1  0
  8  9  2  0
  9 10  1  0
  9 11  1  0
 11 12  1  0
 11 13  2  0
 13 14  1  0
 13 15  1  0
 15 16  1  0
 15 17  2  0
 17 18  1  0
 18 19  1  0
 19 20  1  0
 19 21  1  0
 19 22  1  0
  2 23  2  0
 23 24  1  0
 24 25  1  0
 24 26  1  0
 24 27  1  0
 27 28  1  0
 27 29  1  0
 27 30  1  0
 23 31  1  0
 31 32  1  0
 31 33  1  0
 31 34  1  0
 34 35  1  0
 34 36  1  0
 34 37  1  0
 18  5  1  0
 17  8  1  0
M  CHG  1  23   1
M  END
>  <UniqueID>  (4) 
4

>  <SMILES>  (4) 
CC[N+](=C/C=C1/C(=O)c2ccccc2N1C)CC

>  <Energy>  (4) 
68.94216549314545

>  <Genealogy>  (4) 
CC[N+](=C/C=C1/C(=O)c2ccccc2N1C)CC (cis-trans isomerization)
CC[N+](=C/C=C1/C(=O)c2ccccc2N1C)CC (3D coordinates assigned)
CC[N+](=C/C=C1/C(=O)c2ccccc2N1C)CC (nonaromatic ring conformer: 68.94216549314545 kcal/mol)

>  <smiles>  (4) 
CC[N+](=CC=C1C(=O)c2ccccc2N1C)CC

>  <score_type>  (4) 
oracle

>  <origin>  (4) 
adg

>  <m_score__min__energy>  (4) 
-4.6399999999999997

>  <m_primary>  (4) 
energy

$$$$
4:0
     RDKit          3D

 59 61  0  0  0  0  0  0  0  0999 V2000
   67.8740   34.6600   51.3100 C   0  0  0  0  0  0  0  0  0  0  0  0
   68.0240   33.4670   50.3630 C   0  0  0  0  0  0  0  0  0  0  0  0
   66.7300   32.8720   49.9780 N   0  0  0  0  0  0  0  0  0  0  0  0
   66.4250   31.5810   50.6240 C   0  0  0  0  0  0  0  0  0  0  0  0
   64.9710   31.4970   51.1290 C   0  0  0  0  0  0  0  0  0  0  0  0
   63.9590   31.6650   49.9890 C   0  0  0  0  0  0  0  0  0  0  0  0
   64.4890   32.5510   48.9420 N   0  0  0  0  0  0  0  0  0  0  0  0
   63.4570   33.4690   48.4210 C   0  0  0  0  0  0  0  0  0  0  0  0
   62.8030   32.9650   47.1220 C   0  0  0  0  0  0  0  0  0  0  0  0
   62.5010   31.4640   47.1590 C   0  0  0  0  0  0  0  0  0  0  0  0
   61.1040   31.2390   47.5290 N   0  0  0  0  0  0  0  0  0  0  0  0
   60.0780   31.1160   46.5300 C   0  0  0  0  0  0  0  0  0  0  0  0
   59.7730   29.8620   46.0040 C   0  0  0  0  0  0  0  0  0  0  0  0
   58.8460   29.7220   45.0030 C   0  0  0  0  0  0  0  0  0  0  0  0
   58.1680   30.7950   44.4820 N   0  0  0  0  0  0  0  0  0  0  0  0
   57.1940   30.5990   43.3920 C   0  0  0  0  0  0  0  0  0  0  0  0
   58.3950   32.0560   45.0120 C   0  0  0  0  0  0  0  0  0  0  0  0
   57.6890   33.1930   44.5510 C   0  0  0  0  0  0  0  0  0  0  0  0
   57.9050   34.4510   45.1170 C   0  0  0  0  0  0  0  0  0  0  0  0
   58.8150   34.6060   46.1570 C   0  0  0  0  0  0  0  0  0  0  0  0
   59.5290   33.5080   46.6330 C   0  0  0  0  0  0  0  0  0  0  0  0
   59.3530   32.2320   46.0600 C   0  0  0  0  0  0  0  0  0  0  0  0
   58.7150   28.2960   44.5860 C   0  0  0  0  0  0  0  0  0  0  0  0
   59.6780   27.5300   45.5070 C   0  0  0  0  0  0  0  0  0  0  0  0
   60.3850   28.5670   46.3920 C   0  0  0  0  0  0  0  0  0  0  0  0
   67.9181   34.3091   52.3516 H   0  0  0  0  0  0  0  0  0  0  0  0
   68.6892   35.3762   51.1295 H   0  0  0  0  0  0  0  0  0  0  0  0
   66.9069   35.1521   51.1295 H   0  0  0  0  0  0  0  0  0  0  0  0
   68.5396   33.8050   49.4520 H   0  0  0  0  0  0  0  0  0  0  0  0
   68.5971   32.6936   50.8954 H   0  0  0  0  0  0  0  0  0  0  0  0
   65.9650   33.5490   50.2110 H   0  0  0  0  0  0  0  0  0  0  0  0
   66.7190   32.7440   48.9390 H   0  0  0  0  0  0  0  0  0  0  0  0
   66.5913   30.7746   49.8946 H   0  0  0  0  0  0  0  0  0  0  0  0
   67.0862   31.4823   51.4975 H   0  0  0  0  0  0  0  0  0  0  0  0
   64.8148   30.5160   51.6015 H   0  0  0  0  0  0  0  0  0  0  0  0
   64.8124   32.3136   51.8487 H   0  0  0  0  0  0  0  0  0  0  0  0
   63.7431   30.6793   49.5511 H   0  0  0  0  0  0  0  0  0  0  0  0
   63.0415   32.1138   50.3974 H   0  0  0  0  0  0  0  0  0  0  0  0
   64.9000   31.9710   48.1720 H   0  0  0  0  0  0  0  0  0  0  0  0
   62.6742   33.5860   49.1849 H   0  0  0  0  0  0  0  0  0  0  0  0
   63.9524   34.4237   48.1906 H   0  0  0  0  0  0  0  0  0  0  0  0
   61.8603   33.5104   46.9675 H   0  0  0  0  0  0  0  0  0  0  0  0
   63.5132   33.1420   46.3008 H   0  0  0  0  0  0  0  0  0  0  0  0
   62.6879   31.0311   46.1652 H   0  0  0  0  0  0  0  0  0  0  0  0
   63.1517   30.9852   47.9055 H   0  0  0  0  0  0  0  0  0  0  0  0
   60.9250   30.8180   48.4680 H   0  0  0  0  0  0  0  0  0  0  0  0
   56.2004   30.3991   43.8196 H   0  0  0  0  0  0  0  0  0  0  0  0
   57.1504   31.5064   42.7717 H   0  0  0  0  0  0  0  0  0  0  0  0
   57.5047   29.7454   42.7717 H   0  0  0  0  0  0  0  0  0  0  0  0
   56.9595   33.0839   43.7349 H   0  0  0  0  0  0  0  0  0  0  0  0
   57.3527   35.3237   44.7384 H   0  0  0  0  0  0  0  0  0  0  0  0
   58.9717   35.5982   46.6053 H   0  0  0  0  0  0  0  0  0  0  0  0
   60.2373   33.6383   47.4645 H   0  0  0  0  0  0  0  0  0  0  0  0
   57.6822   27.9442   44.7260 H   0  0  0  0  0  0  0  0  0  0  0  0
   58.9525   28.1501   43.5219 H   0  0  0  0  0  0  0  0  0  0  0  0
   59.1162   26.8212   46.1331 H   0  0  0  0  0  0  0  0  0  0  0  0
   60.4093   26.9582   44.9169 H   0  0  0  0  0  0  0  0  0  0  0  0
   60.2071   28.3559   47.4568 H   0  0  0  0  0  0  0  0  0  0  0  0
   61.4764   28.5611   46.2546 H   0  0  0  0  0  0  0  0  0  0  0  0
  1  2  1  0
  2  3  1  0
  3  4  1  0
  4  5  1  0
  5  6  1  0
  6  7  1  0
  7  8  1  0
  8  9  1  0
  9 10  1  0
 10 11  1  0
 11 12  1  0
 12 13  2  0
 13 14  1  0
 14 15  2  0
 15 16  1  0
 15 17  1  0
 17 18  2  0
 18 19  1  0
 19 20  2  0
 20 21  1  0
 21 22  2  0
 14 23  1  0
 23 24  1  0
 24 25  1  0
 22 12  1  0
 25 13  1  0
 22 17  1  0
  1 26  1  0
  1 27  1  0
  1 28  1  0
  2 29  1  0
  2 30  1  0
  3 31  1  0
  3 32  1  0
  4 33  1  0
  4 34  1  0
  5 35  1  0
  5 36  1  0
  6 37  1  0
  6 38  1  0
  7 39  1  0
  8 40  1  0
  8 41  1  0
  9 42  1  0
  9 43  1  0
 10 44  1  0
 10 45  1  0
 11 46  1  0
 16 47  1  0
 16 48  1  0
 16 49  1  0
 18 50  1  0
 19 51  1  0
 20 52  1  0
 21 53  1  0
 23 54  1  0
 23 55  1  0
 24 56  1  0
 24 57  1  0
 25 58  1  0
 25 59  1  0
M  CHG  2   3   1  15   1
M  END
>  <UniqueID>  (5) 
5

>  <SMILES>  (5) 
CC[NH2+]CCCNCCCNc1c2c([n+](C)c3ccccc13)CCC2

>  <Energy>  (5) 
75.3432604562705

>  <Genealogy>  (5) 
CC[NH2+]CCCNCCCNc1c2c([n+](C)c3ccccc13)CCC2 (protonated)
CC[NH2+]CCCNCCCNc1c2c([n+](C)c3ccccc13)CCC2 (3D coordinates assigned)
CC[NH2+]CCCNCCCNc1c2c([n+](C)c3ccccc13)CCC2 (nonaromatic ring conformer: 75.3432604562705 kcal/mol)

>  <smiles>  (5) 
CCNCCCNCCCNc1c2c([n+](C)c3ccccc13)CCC2

>  <score_type>  (5) 
oracle

>  <origin>  (5) 
adg

>  <m_score__min__energy>  (5) 
-5.2199999999999998

>  <m_primary>  (5) 
energy

$$$$
5:0
     RDKit          3D

 53 54  0  0  0  0  0  0  0  0999 V2000
   60.3210   33.4430   50.3080 C   0  0  0  0  0  0  0  0  0  0  0  0
   59.7210   33.6410   48.9470 C   0  0  0  0  0  0  0  0  0  0  0  0
   60.2380   34.6080   48.0700 C   0  0  0  0  0  0  0  0  0  0  0  0
   59.6460   34.8150   46.8210 C   0  0  0  0  0  0  0  0  0  0  0  0
   58.5260   34.0650   46.4410 C   0  0  0  0  0  0  0  0  0  0  0  0
   57.7130   34.3970   44.8740 S   0  0  0  0  0  0  0  0  0  0  0  0
   57.3920   32.6470   44.4540 C   0  0  0  0  0  0  0  0  0  0  0  0
   57.9120   32.3020   43.0550 C   0  0  0  0  0  0  0  0  0  0  0  0
   57.4740   30.9560   42.6520 N   0  0  0  0  0  0  0  0  0  0  0  0
   56.2600   30.5030   43.3540 C   0  0  0  0  0  0  0  0  0  0  0  0
   56.5070   29.2460   44.2010 C   0  0  0  0  0  0  0  0  0  0  0  0
   57.4840   28.3830   43.5190 N   0  0  0  0  0  0  0  0  0  0  0  0
   58.2610   27.5760   44.4740 C   0  0  0  0  0  0  0  0  0  0  0  0
   59.6670   28.1560   44.6490 C   0  0  0  0  0  0  0  0  0  0  0  0
   59.6610   29.6070   44.4170 N   0  0  0  0  0  0  0  0  0  0  0  0
   59.0300   30.3310   45.5270 C   0  0  0  0  0  0  0  0  0  0  0  0
   59.9130   30.3080   46.7480 C   0  0  0  0  0  0  0  0  0  0  0  0
   61.0830   31.0870   46.7950 C   0  0  0  0  0  0  0  0  0  0  0  0
   61.8740   31.1020   47.9470 C   0  0  0  0  0  0  0  0  0  0  0  0
   61.4990   30.3510   49.0640 C   0  0  0  0  0  0  0  0  0  0  0  0
   60.3320   29.5840   49.0300 C   0  0  0  0  0  0  0  0  0  0  0  0
   59.5380   29.5650   47.8790 C   0  0  0  0  0  0  0  0  0  0  0  0
   58.0000   33.1080   47.3160 C   0  0  0  0  0  0  0  0  0  0  0  0
   58.5940   32.8970   48.5630 C   0  0  0  0  0  0  0  0  0  0  0  0
   59.5743   33.6894   51.0773 H   0  0  0  0  0  0  0  0  0  0  0  0
   60.6328   32.3943   50.4222 H   0  0  0  0  0  0  0  0  0  0  0  0
   61.1957   34.1001   50.4222 H   0  0  0  0  0  0  0  0  0  0  0  0
   61.1127   35.2052   48.3672 H   0  0  0  0  0  0  0  0  0  0  0  0
   60.0606   35.5685   46.1351 H   0  0  0  0  0  0  0  0  0  0  0  0
   57.8953   32.0042   45.1912 H   0  0  0  0  0  0  0  0  0  0  0  0
   56.3046   32.4819   44.4689 H   0  0  0  0  0  0  0  0  0  0  0  0
   57.5250   33.0379   42.3348 H   0  0  0  0  0  0  0  0  0  0  0  0
   59.0116   32.3246   43.0720 H   0  0  0  0  0  0  0  0  0  0  0  0
   58.2530   30.2790   42.8270 H   0  0  0  0  0  0  0  0  0  0  0  0
   55.9118   31.3109   44.0143 H   0  0  0  0  0  0  0  0  0  0  0  0
   55.5070   30.2513   42.5926 H   0  0  0  0  0  0  0  0  0  0  0  0
   56.8998   29.5383   45.1860 H   0  0  0  0  0  0  0  0  0  0  0  0
   55.5616   28.6992   44.3324 H   0  0  0  0  0  0  0  0  0  0  0  0
   58.1430   29.0010   42.9890 H   0  0  0  0  0  0  0  0  0  0  0  0
   57.7474   27.5728   45.4467 H   0  0  0  0  0  0  0  0  0  0  0  0
   58.3458   26.5503   44.0857 H   0  0  0  0  0  0  0  0  0  0  0  0
   60.0160   27.9551   45.6726 H   0  0  0  0  0  0  0  0  0  0  0  0
   60.3391   27.6830   43.9179 H   0  0  0  0  0  0  0  0  0  0  0  0
   59.0960   29.7930   43.5550 H   0  0  0  0  0  0  0  0  0  0  0  0
   58.8575   31.3748   45.2257 H   0  0  0  0  0  0  0  0  0  0  0  0
   58.0756   29.8417   45.7714 H   0  0  0  0  0  0  0  0  0  0  0  0
   61.3768   31.6871   45.9212 H   0  0  0  0  0  0  0  0  0  0  0  0
   62.7930   31.7058   47.9744 H   0  0  0  0  0  0  0  0  0  0  0  0
   62.1227   30.3637   49.9700 H   0  0  0  0  0  0  0  0  0  0  0  0
   60.0371   28.9939   49.9102 H   0  0  0  0  0  0  0  0  0  0  0  0
   58.6159   28.9656   47.8595 H   0  0  0  0  0  0  0  0  0  0  0  0
   57.1175   32.5209   47.0217 H   0  0  0  0  0  0  0  0  0  0  0  0
   58.1764   32.1439   49.2475 H   0  0  0  0  0  0  0  0  0  0  0  0
  1  2  1  0
  2  3  2  0
  3  4  1  0
  4  5  2  0
  5  6  1  0
  6  7  1  0
  7  8  1  0
  8  9  1  0
  9 10  1  0
 10 11  1  0
 11 12  1  0
 12 13  1  0
 13 14  1  0
 14 15  1  0
 15 16  1  0
 16 17  1  0
 17 18  2  0
 18 19  1  0
 19 20  2  0
 20 21  1  0
 21 22  2  0
  5 23  1  0
 23 24  2  0
 24  2  1  0
 22 17  1  0
  1 25  1  0
  1 26  1  0
  1 27  1  0
  3 28  1  0
  4 29  1  0
  7 30  1  0
  7 31  1  0
  8 32  1  0
  8 33  1  0
  9 34  1  0
 10 35  1  0
 10 36  1  0
 11 37  1  0
 11 38  1  0
 12 39  1  0
 13 40  1  0
 13 41  1  0
 14 42  1  0
 14 43  1  0
 15 44  1  0
 16 45  1  0
 16 46  1  0
 18 47  1  0
 19 48  1  0
 20 49  1  0
 21 50  1  0
 22 51  1  0
 23 52  1  0
 24 53  1  0
M  END
>  <UniqueID>  (6) 
6

>  <SMILES>  (6) 
Cc1ccc(SCCNCCNCCNCc2ccccc2)cc1

>  <Energy>  (6) 
38.9310931267123

>  <Genealogy>  (6) 
Cc1ccc(SCCNCCNCCNCc2ccccc2)cc1 (3D coordinates assigned)
Cc1ccc(SCCNCCNCCNCc2ccccc2)cc1 (optimized conformer: 38.9310931267123 kcal/mol)

>  <smiles>  (6) 
Cc1ccc(SCCNCCNCCNCc2ccccc2)cc1

>  <score_type>  (6) 
oracle

>  <origin>  (6) 
adg

>  <m_score__min__energy>  (6) 
-7.0199999999999996

>  <m_primary>  (6) 
energy

$$$$
6:0
     RDKit          3D

 45 47  0  0  0  0  0  0  0  0999 V2000
   63.3340   33.8190   46.5400 C   0  0  0  0  0  0  0  0  0  0  0  0
   63.5590   32.6510   47.4980 C   0  0  0  0  0  0  0  0  0  0  0  0
   62.2950   32.2390   48.1320 N   0  0  0  0  0  0  0  0  0  0  0  0
   62.5160   31.6700   49.4820 C   0  0  0  0  0  0  0  0  0  0  0  0
   61.6450   30.4300   49.7560 C   0  0  0  0  0  0  0  0  0  0  0  0
   60.1480   30.7100   49.5800 C   0  0  0  0  0  0  0  0  0  0  0  0
   59.9480   31.8190   48.7030 O   0  0  0  0  0  0  0  0  0  0  0  0
   59.2770   31.7840   47.4650 C   0  0  0  0  0  0  0  0  0  0  0  0
   58.5840   30.6420   47.0320 C   0  0  0  0  0  0  0  0  0  0  0  0
   57.9320   30.6220   45.8010 C   0  0  0  0  0  0  0  0  0  0  0  0
   57.9810   31.7400   44.9430 C   0  0  0  0  0  0  0  0  0  0  0  0
   58.6250   32.9250   45.3870 C   0  0  0  0  0  0  0  0  0  0  0  0
   58.6220   34.1080   44.6150 C   0  0  0  0  0  0  0  0  0  0  0  0
   59.2780   35.2550   45.0640 C   0  0  0  0  0  0  0  0  0  0  0  0
   59.9410   35.2510   46.2870 C   0  0  0  0  0  0  0  0  0  0  0  0
   59.9460   34.1030   47.0780 C   0  0  0  0  0  0  0  0  0  0  0  0
   59.2870   32.9330   46.6480 C   0  0  0  0  0  0  0  0  0  0  0  0
   57.2930   31.6580   43.5890 C   0  0  0  0  0  0  0  0  0  0  0  0
   57.0150   30.2150   43.1470 C   0  0  0  0  0  0  0  0  0  0  0  0
   56.3860   29.4260   44.2900 C   0  0  0  0  0  0  0  0  0  0  0  0
   57.2420   29.4630   45.4260 O   0  0  0  0  0  0  0  0  0  0  0  0
   63.1569   34.7382   47.1177 H   0  0  0  0  0  0  0  0  0  0  0  0
   64.2234   33.9499   45.9062 H   0  0  0  0  0  0  0  0  0  0  0  0
   62.4596   33.6101   45.9062 H   0  0  0  0  0  0  0  0  0  0  0  0
   63.9745   31.8006   46.9375 H   0  0  0  0  0  0  0  0  0  0  0  0
   64.2580   32.9717   48.2845 H   0  0  0  0  0  0  0  0  0  0  0  0
   61.7950   31.5580   47.5130 H   0  0  0  0  0  0  0  0  0  0  0  0
   61.6850   33.0850   48.2230 H   0  0  0  0  0  0  0  0  0  0  0  0
   63.5741   31.3837   49.5740 H   0  0  0  0  0  0  0  0  0  0  0  0
   62.2367   32.4401   50.2161 H   0  0  0  0  0  0  0  0  0  0  0  0
   61.9386   29.6321   49.0580 H   0  0  0  0  0  0  0  0  0  0  0  0
   61.8075   30.1336   50.8028 H   0  0  0  0  0  0  0  0  0  0  0  0
   59.6604   29.8200   49.1556 H   0  0  0  0  0  0  0  0  0  0  0  0
   59.7121   30.9485   50.5614 H   0  0  0  0  0  0  0  0  0  0  0  0
   58.5555   29.7496   47.6746 H   0  0  0  0  0  0  0  0  0  0  0  0
   58.0965   34.1253   43.6488 H   0  0  0  0  0  0  0  0  0  0  0  0
   59.2708   36.1664   44.4481 H   0  0  0  0  0  0  0  0  0  0  0  0
   60.4628   36.1562   46.6309 H   0  0  0  0  0  0  0  0  0  0  0  0
   60.4686   34.1100   48.0459 H   0  0  0  0  0  0  0  0  0  0  0  0
   56.3362   32.1975   43.6482 H   0  0  0  0  0  0  0  0  0  0  0  0
   57.9702   32.1060   42.8469 H   0  0  0  0  0  0  0  0  0  0  0  0
   56.3261   30.2240   42.2895 H   0  0  0  0  0  0  0  0  0  0  0  0
   57.9641   29.7380   42.8613 H   0  0  0  0  0  0  0  0  0  0  0  0
   55.4140   29.8707   44.5499 H   0  0  0  0  0  0  0  0  0  0  0  0
   56.2422   28.3816   43.9760 H   0  0  0  0  0  0  0  0  0  0  0  0
  1  2  1  0
  2  3  1  0
  3  4  1  0
  4  5  1  0
  5  6  1  0
  6  7  1  0
  7  8  1  0
  8  9  2  0
  9 10  1  0
 10 11  2  0
 11 12  1  0
 12 13  2  0
 13 14  1  0
 14 15  2  0
 15 16  1  0
 16 17  2  0
 11 18  1  0
 18 19  1  0
 19 20  1  0
 20 21  1  0
 17  8  1  0
 21 10  1  0
 17 12  1  0
  1 22  1  0
  1 23  1  0
  1 24  1  0
  2 25  1  0
  2 26  1  0
  3 27  1  0
  3 28  1  0
  4 29  1  0
  4 30  1  0
  5 31  1  0
  5 32  1  0
  6 33  1  0
  6 34  1  0
  9 35  1  0
 13 36  1  0
 14 37  1  0
 15 38  1  0
 16 39  1  0
 18 40  1  0
 18 41  1  0
 19 42  1  0
 19 43  1  0
 20 44  1  0
 20 45  1  0
M  CHG  1   3   1
M  END
>  <UniqueID>  (7) 
7

>  <SMILES>  (7) 
CC[NH2+]CCCOc1cc2c(c3ccccc13)CCCO2

>  <Energy>  (7) 
48.75929863643652

>  <Genealogy>  (7) 
CC[NH2+]CCCOc1cc2c(c3ccccc13)CCCO2 (protonated)
CC[NH2+]CCCOc1cc2c(c3ccccc13)CCCO2 (3D coordinates assigned)
CC[NH2+]CCCOc1cc2c(c3ccccc13)CCCO2 (nonaromatic ring conformer: 48.75929863643652 kcal/mol)

>  <smiles>  (7) 
CCNCCCOc1cc2c(c3ccccc13)CCCO2

>  <score_type>  (7) 
oracle

>  <origin>  (7) 
adg

>  <m_score__min__energy>  (7) 
-5.6399999999999997

>  <m_primary>  (7) 
energy

$$$$
7:0
     RDKit          3D

 60 62  0  0  0  0  0  0  0  0999 V2000
   59.5390   35.2460   46.7500 C   0  0  0  0  0  0  0  0  0  0  0  0
   59.1540   34.7520   45.3580 C   0  0  0  0  0  0  0  0  0  0  0  0
   58.4300   33.4650   45.4510 N   0  0  0  0  0  0  0  0  0  0  0  0
   57.4500   33.5140   46.5520 C   0  0  0  0  0  0  0  0  0  0  0  0
   57.7620   33.1300   44.1710 C   0  0  0  0  0  0  0  0  0  0  0  0
   58.0940   31.7000   43.7190 C   0  0  0  0  0  0  0  0  0  0  0  0
   58.4340   30.8700   44.8150 O   0  0  0  0  0  0  0  0  0  0  0  0
   59.1170   29.6990   44.4030 C   0  0  0  0  0  0  0  0  0  0  0  0
   58.1530   28.4950   44.4130 C   0  0  0  0  0  0  0  0  0  0  0  0
   58.9340   27.1520   44.4970 C   0  0  0  0  0  0  0  0  0  0  0  0
   58.8970   26.5000   45.8910 C   0  0  0  0  0  0  0  0  0  0  0  0
   58.8620   27.5230   46.9470 N   0  0  0  0  0  0  0  0  0  0  0  0
   59.8600   27.5420   47.9940 C   0  0  0  0  0  0  0  0  0  0  0  0
   60.8640   26.7810   47.9150 O   0  0  0  0  0  0  0  0  0  0  0  0
   59.7590   28.5110   49.1490 C   0  0  0  0  0  0  0  0  0  0  0  0
   61.0120   29.3810   49.3070 C   0  0  0  0  0  0  0  0  0  0  0  0
   61.0280   30.4700   48.2780 C   0  0  0  0  0  0  0  0  0  0  0  0
   60.0510   30.7200   47.3180 C   0  0  0  0  0  0  0  0  0  0  0  0
   60.3560   31.8320   46.6130 N   0  0  0  0  0  0  0  0  0  0  0  0
   61.5100   32.2940   47.1260 C   0  0  0  0  0  0  0  0  0  0  0  0
   62.2090   33.4360   46.7390 C   0  0  0  0  0  0  0  0  0  0  0  0
   63.3930   33.7490   47.4340 C   0  0  0  0  0  0  0  0  0  0  0  0
   63.8400   32.9260   48.4910 C   0  0  0  0  0  0  0  0  0  0  0  0
   63.1120   31.7810   48.8610 C   0  0  0  0  0  0  0  0  0  0  0  0
   61.9470   31.4930   48.1490 C   0  0  0  0  0  0  0  0  0  0  0  0
   57.7680   28.5100   46.9310 C   0  0  0  0  0  0  0  0  0  0  0  0
   57.1090   28.6060   45.5450 C   0  0  0  0  0  0  0  0  0  0  0  0
   59.0501   34.6187   47.5099 H   0  0  0  0  0  0  0  0  0  0  0  0
   60.6306   35.1855   46.8716 H   0  0  0  0  0  0  0  0  0  0  0  0
   59.2138   36.2898   46.8716 H   0  0  0  0  0  0  0  0  0  0  0  0
   58.5065   35.4983   44.8745 H   0  0  0  0  0  0  0  0  0  0  0  0
   60.0688   34.6055   44.7650 H   0  0  0  0  0  0  0  0  0  0  0  0
   57.9796   33.4875   47.5157 H   0  0  0  0  0  0  0  0  0  0  0  0
   56.8646   34.4425   46.4807 H   0  0  0  0  0  0  0  0  0  0  0  0
   56.7749   32.6485   46.4807 H   0  0  0  0  0  0  0  0  0  0  0  0
   56.6735   33.2197   44.3019 H   0  0  0  0  0  0  0  0  0  0  0  0
   58.1231   33.8275   43.4009 H   0  0  0  0  0  0  0  0  0  0  0  0
   57.2173   31.2749   43.2084 H   0  0  0  0  0  0  0  0  0  0  0  0
   58.9601   31.7465   43.0424 H   0  0  0  0  0  0  0  0  0  0  0  0
   59.5078   29.8443   43.3851 H   0  0  0  0  0  0  0  0  0  0  0  0
   59.9475   29.5024   45.0969 H   0  0  0  0  0  0  0  0  0  0  0  0
   57.6030   28.5081   43.4605 H   0  0  0  0  0  0  0  0  0  0  0  0
   58.4951   26.4493   43.7734 H   0  0  0  0  0  0  0  0  0  0  0  0
   59.9875   27.3788   44.2764 H   0  0  0  0  0  0  0  0  0  0  0  0
   57.9991   25.8695   45.9702 H   0  0  0  0  0  0  0  0  0  0  0  0
   59.8050   25.8925   46.0195 H   0  0  0  0  0  0  0  0  0  0  0  0
   58.8935   29.1688   48.9811 H   0  0  0  0  0  0  0  0  0  0  0  0
   59.6493   27.9186   50.0693 H   0  0  0  0  0  0  0  0  0  0  0  0
   61.0159   29.8312   50.3106 H   0  0  0  0  0  0  0  0  0  0  0  0
   61.9027   28.7500   49.1710 H   0  0  0  0  0  0  0  0  0  0  0  0
   59.1570   30.0999   47.1562 H   0  0  0  0  0  0  0  0  0  0  0  0
   59.7970   32.2530   45.8370 H   0  0  0  0  0  0  0  0  0  0  0  0
   61.8476   34.0720   45.9175 H   0  0  0  0  0  0  0  0  0  0  0  0
   63.9732   34.6399   47.1519 H   0  0  0  0  0  0  0  0  0  0  0  0
   64.7646   33.1825   49.0290 H   0  0  0  0  0  0  0  0  0  0  0  0
   63.4497   31.1341   49.6841 H   0  0  0  0  0  0  0  0  0  0  0  0
   57.0075   28.2112   47.6674 H   0  0  0  0  0  0  0  0  0  0  0  0
   58.1909   29.4948   47.1786 H   0  0  0  0  0  0  0  0  0  0  0  0
   56.3789   27.7901   45.4391 H   0  0  0  0  0  0  0  0  0  0  0  0
   56.6157   29.5859   45.4646 H   0  0  0  0  0  0  0  0  0  0  0  0
  1  2  1  0
  2  3  1  0
  3  4  1  0
  3  5  1  0
  5  6  1  0
  6  7  1  0
  7  8  1  0
  8  9  1  0
  9 10  1  0
 10 11  1  0
 11 12  1  0
 12 13  1  0
 13 14  2  0
 13 15  1  0
 15 16  1  0
 16 17  1  0
 17 18  2  0
 18 19  1  0
 19 20  1  0
 20 21  2  0
 21 22  1  0
 22 23  2  0
 23 24  1  0
 24 25  2  0
 12 26  1  0
 26 27  1  0
 27  9  1  0
 25 17  1  0
 25 20  1  0
  1 28  1  0
  1 29  1  0
  1 30  1  0
  2 31  1  0
  2 32  1  0
  4 33  1  0
  4 34  1  0
  4 35  1  0
  5 36  1  0
  5 37  1  0
  6 38  1  0
  6 39  1  0
  8 40  1  0
  8 41  1  0
  9 42  1  0
 10 43  1  0
 10 44  1  0
 11 45  1  0
 11 46  1  0
 15 47  1  0
 15 48  1  0
 16 49  1  0
 16 50  1  0
 18 51  1  0
 19 52  1  0
 21 53  1  0
 22 54  1  0
 23 55  1  0
 24 56  1  0
 26 57  1  0
 26 58  1  0
 27 59  1  0
 27 60  1  0
M  END
>  <UniqueID>  (8) 
8

>  <SMILES>  (8) 
CCN(C)CCOCC1CCN(C(=O)CCc2c[nH]c3ccccc23)CC1

>  <Energy>  (8) 
93.8916153286199

>  <Genealogy>  (8) 
CCN(C)CCOCC1CCN(C(=O)CCc2c[nH]c3ccccc23)CC1 (3D coordinates assigned)
CCN(C)CCOCC1CCN(C(=O)CCc2c[nH]c3ccccc23)CC1 (nonaromatic ring conformer: 93.8916153286199 kcal/mol)

>  <smiles>  (8) 
CCN(C)CCOCC1CCN(C(=O)CCc2c[nH]c3ccccc23)CC1

>  <score_type>  (8) 
oracle

>  <origin>  (8) 
adg

>  <m_score__min__energy>  (8) 
-8.1600000000000001

>  <m_primary>  (8) 
energy

$$$$
8:0
     RDKit          3D

 41 43  0  0  0  0  0  0  0  0999 V2000
   52.7930   24.3580   45.3790 C   0  0  0  0  0  0  0  0  0  0  0  0
   54.2060   24.7390   45.6610 C   0  0  0  0  0  0  0  0  0  0  0  0
   55.2210   23.8680   46.0100 C   0  0  0  0  0  0  0  0  0  0  0  0
   56.3420   24.6510   46.1850 C   0  0  0  0  0  0  0  0  0  0  0  0
   55.9350   25.9470   45.9310 C   0  0  0  0  0  0  0  0  0  0  0  0
   56.8080   27.1630   45.9840 C   0  0  0  0  0  0  0  0  0  0  0  0
   56.1740   28.2760   45.2810 N   0  0  0  0  0  0  0  0  0  0  0  0
   56.8480   29.5070   44.9630 C   0  0  0  0  0  0  0  0  0  0  0  0
   56.9100   30.1250   43.7220 C   0  0  0  0  0  0  0  0  0  0  0  0
   56.2610   29.6410   42.4570 C   0  0  0  0  0  0  0  0  0  0  0  0
   57.5730   31.3020   43.8580 N   0  0  0  0  0  0  0  0  0  0  0  0
   57.7900   32.2930   42.8000 C   0  0  0  0  0  0  0  0  0  0  0  0
   57.9760   31.4240   45.1220 N   0  0  0  0  0  0  0  0  0  0  0  0
   58.7550   32.5080   45.6610 C   0  0  0  0  0  0  0  0  0  0  0  0
   59.9420   32.2490   46.3660 C   0  0  0  0  0  0  0  0  0  0  0  0
   60.6890   33.3040   46.8990 C   0  0  0  0  0  0  0  0  0  0  0  0
   60.2530   34.6220   46.7370 C   0  0  0  0  0  0  0  0  0  0  0  0
   59.0690   34.8880   46.0450 C   0  0  0  0  0  0  0  0  0  0  0  0
   58.3190   33.8350   45.5110 C   0  0  0  0  0  0  0  0  0  0  0  0
   57.5410   30.3510   45.8110 C   0  0  0  0  0  0  0  0  0  0  0  0
   57.7700   30.1550   47.0350 O   0  0  0  0  0  0  0  0  0  0  0  0
   54.6580   25.9710   45.6260 O   0  0  0  0  0  0  0  0  0  0  0  0
   52.2559   24.2132   46.3280 H   0  0  0  0  0  0  0  0  0  0  0  0
   52.3063   25.1570   44.8004 H   0  0  0  0  0  0  0  0  0  0  0  0
   52.7739   23.4226   44.8004 H   0  0  0  0  0  0  0  0  0  0  0  0
   55.1491   22.7763   46.1244 H   0  0  0  0  0  0  0  0  0  0  0  0
   57.3503   24.3144   46.4679 H   0  0  0  0  0  0  0  0  0  0  0  0
   56.9736   27.4449   47.0343 H   0  0  0  0  0  0  0  0  0  0  0  0
   57.7681   26.9345   45.4982 H   0  0  0  0  0  0  0  0  0  0  0  0
   55.1610   28.1800   45.0470 H   0  0  0  0  0  0  0  0  0  0  0  0
   55.4023   29.0006   42.7072 H   0  0  0  0  0  0  0  0  0  0  0  0
   55.9157   30.5039   41.8686 H   0  0  0  0  0  0  0  0  0  0  0  0
   56.9896   29.0640   41.8686 H   0  0  0  0  0  0  0  0  0  0  0  0
   58.0044   33.2721   43.2531 H   0  0  0  0  0  0  0  0  0  0  0  0
   58.6416   31.9832   42.1765 H   0  0  0  0  0  0  0  0  0  0  0  0
   56.8869   32.3674   42.1765 H   0  0  0  0  0  0  0  0  0  0  0  0
   60.2851   31.2124   46.4993 H   0  0  0  0  0  0  0  0  0  0  0  0
   61.6204   33.0965   47.4462 H   0  0  0  0  0  0  0  0  0  0  0  0
   60.8430   35.4510   47.1550 H   0  0  0  0  0  0  0  0  0  0  0  0
   58.7264   35.9258   45.9200 H   0  0  0  0  0  0  0  0  0  0  0  0
   57.3841   34.0468   44.9715 H   0  0  0  0  0  0  0  0  0  0  0  0
  1  2  1  0
  2  3  2  0
  3  4  1  0
  4  5  2  0
  5  6  1  0
  6  7  1  0
  7  8  1  0
  8  9  2  0
  9 10  1  0
  9 11  1  0
 11 12  1  0
 11 13  1  0
 13 14  1  0
 14 15  2  0
 15 16  1  0
 16 17  2  0
 17 18  1  0
 18 19  2  0
 13 20  1  0
 20 21  2  0
  5 22  1  0
 22  2  1  0
 20  8  1  0
 19 14  1  0
  1 23  1  0
  1 24  1  0
  1 25  1  0
  3 26  1  0
  4 27  1  0
  6 28  1  0
  6 29  1  0
  7 30  1  0
 10 31  1  0
 10 32  1  0
 10 33  1  0
 12 34  1  0
 12 35  1  0
 12 36  1  0
 15 37  1  0
 16 38  1  0
 17 39  1  0
 18 40  1  0
 19 41  1  0
M  END
>  <UniqueID>  (9) 
9

>  <SMILES>  (9) 
Cc1ccc(CNc2c(C)n(C)n(-c3ccccc3)c2=O)o1

>  <Energy>  (9) 
106.14986484833564

>  <Genealogy>  (9) 
Cc1ccc(CNc2c(C)n(C)n(-c3ccccc3)c2=O)o1 (3D coordinates assigned)
Cc1ccc(CNc2c(C)n(C)n(-c3ccccc3)c2=O)o1 (optimized conformer: 106.14986484833564 kcal/mol)

>  <smiles>  (9) 
Cc1ccc(CNc2c(C)n(C)n(-c3ccccc3)c2=O)o1

>  <score_type>  (9) 
oracle

>  <origin>  (9) 
adg

>  <m_score__min__energy>  (9) 
-7.9800000000000004

>  <m_primary>  (9) 
energy

$$$$
9:0
     RDKit          3D

 53 55  0  0  0  0  0  0  0  0999 V2000
   60.8130   26.9470   50.5000 C   0  0  0  0  0  0  0  0  0  0  0  0
   61.1400   28.4320   50.6900 C   0  0  0  0  0  0  0  0  0  0  0  0
   60.1030   29.3100   50.1210 N   0  0  0  0  0  0  0  0  0  0  0  0
   59.1860   29.8420   51.1400 C   0  0  0  0  0  0  0  0  0  0  0  0
   58.1590   30.7750   50.4890 C   0  0  0  0  0  0  0  0  0  0  0  0
   58.8100   31.6600   49.4190 C   0  0  0  0  0  0  0  0  0  0  0  0
   59.4370   30.8800   48.3280 N   0  0  0  0  0  0  0  0  0  0  0  0
   59.0150   31.3300   47.0050 C   0  0  0  0  0  0  0  0  0  0  0  0
   59.2480   32.6940   46.6380 C   0  0  0  0  0  0  0  0  0  0  0  0
   59.8770   33.6150   47.5230 C   0  0  0  0  0  0  0  0  0  0  0  0
   60.0740   34.9450   47.1680 C   0  0  0  0  0  0  0  0  0  0  0  0
   59.6430   35.4080   45.9370 C   0  0  0  0  0  0  0  0  0  0  0  0
   59.0290   34.5360   45.0450 C   0  0  0  0  0  0  0  0  0  0  0  0
   58.8440   33.1640   45.3610 C   0  0  0  0  0  0  0  0  0  0  0  0
   58.2540   32.3080   44.4640 N   0  0  0  0  0  0  0  0  0  0  0  0
   58.1300   32.7030   43.0410 C   0  0  0  0  0  0  0  0  0  0  0  0
   57.8000   31.0750   44.8750 C   0  0  0  0  0  0  0  0  0  0  0  0
   56.8510   30.3780   44.0920 C   0  0  0  0  0  0  0  0  0  0  0  0
   56.4560   29.0930   44.4100 C   0  0  0  0  0  0  0  0  0  0  0  0
   57.0120   28.4540   45.4980 C   0  0  0  0  0  0  0  0  0  0  0  0
   57.9120   29.1150   46.3480 C   0  0  0  0  0  0  0  0  0  0  0  0
   58.5680   28.3230   47.3450 N   0  0  0  0  0  0  0  0  0  0  0  0
   59.9540   27.9580   47.3640 C   0  0  0  0  0  0  0  0  0  0  0  0
   60.3570   26.5940   46.9170 C   0  0  0  0  0  0  0  0  0  0  0  0
   60.8380   28.8050   47.6660 O   0  0  0  0  0  0  0  0  0  0  0  0
   58.2640   30.4910   46.0990 C   0  0  0  0  0  0  0  0  0  0  0  0
   60.7071   26.4661   51.4836 H   0  0  0  0  0  0  0  0  0  0  0  0
   59.8715   26.8476   49.9400 H   0  0  0  0  0  0  0  0  0  0  0  0
   61.6257   26.4613   49.9400 H   0  0  0  0  0  0  0  0  0  0  0  0
   61.2279   28.6400   51.7666 H   0  0  0  0  0  0  0  0  0  0  0  0
   62.0828   28.6391   50.1626 H   0  0  0  0  0  0  0  0  0  0  0  0
   59.5510   28.7840   49.4020 H   0  0  0  0  0  0  0  0  0  0  0  0
   58.6613   29.0076   51.6284 H   0  0  0  0  0  0  0  0  0  0  0  0
   59.7648   30.4077   51.8850 H   0  0  0  0  0  0  0  0  0  0  0  0
   57.3699   30.1683   50.0207 H   0  0  0  0  0  0  0  0  0  0  0  0
   57.7378   31.4262   51.2691 H   0  0  0  0  0  0  0  0  0  0  0  0
   58.0373   32.3116   48.9850 H   0  0  0  0  0  0  0  0  0  0  0  0
   59.6061   32.2390   49.9099 H   0  0  0  0  0  0  0  0  0  0  0  0
   60.4610   30.8070   48.4580 H   0  0  0  0  0  0  0  0  0  0  0  0
   59.1730   29.8760   48.4410 H   0  0  0  0  0  0  0  0  0  0  0  0
   60.2148   33.2665   48.5101 H   0  0  0  0  0  0  0  0  0  0  0  0
   60.5738   35.6311   47.8676 H   0  0  0  0  0  0  0  0  0  0  0  0
   59.7860   36.4642   45.6648 H   0  0  0  0  0  0  0  0  0  0  0  0
   58.6792   34.9169   44.0741 H   0  0  0  0  0  0  0  0  0  0  0  0
   57.8011   33.7508   42.9787 H   0  0  0  0  0  0  0  0  0  0  0  0
   59.1054   32.5947   42.5441 H   0  0  0  0  0  0  0  0  0  0  0  0
   57.3915   32.0567   42.5441 H   0  0  0  0  0  0  0  0  0  0  0  0
   56.4172   30.8704   43.2092 H   0  0  0  0  0  0  0  0  0  0  0  0
   55.6999   28.5809   43.7968 H   0  0  0  0  0  0  0  0  0  0  0  0
   56.7452   27.4068   45.7035 H   0  0  0  0  0  0  0  0  0  0  0  0
   60.5442   25.9603   47.7964 H   0  0  0  0  0  0  0  0  0  0  0  0
   59.5507   26.1531   46.3124 H   0  0  0  0  0  0  0  0  0  0  0  0
   61.2734   26.6621   46.3124 H   0  0  0  0  0  0  0  0  0  0  0  0
  1  2  1  0
  2  3  1  0
  3  4  1  0
  4  5  1  0
  5  6  1  0
  6  7  1  0
  7  8  1  0
  8  9  2  0
  9 10  1  0
 10 11  2  0
 11 12  1  0
 12 13  2  0
 13 14  1  0
 14 15  2  0
 15 16  1  0
 15 17  1  0
 17 18  2  0
 18 19  1  0
 19 20  2  0
 20 21  1  0
 21 22  1  0
 22 23  1  0
 23 24  1  0
 23 25  2  0
 21 26  2  0
 26  8  1  0
 14  9  1  0
 26 17  1  0
  1 27  1  0
  1 28  1  0
  1 29  1  0
  2 30  1  0
  2 31  1  0
  3 32  1  0
  4 33  1  0
  4 34  1  0
  5 35  1  0
  5 36  1  0
  6 37  1  0
  6 38  1  0
  7 39  1  0
  7 40  1  0
 10 41  1  0
 11 42  1  0
 12 43  1  0
 13 44  1  0
 16 45  1  0
 16 46  1  0
 16 47  1  0
 18 48  1  0
 19 49  1  0
 20 50  1  0
 24 51  1  0
 24 52  1  0
 24 53  1  0
M  CHG  3   7   1  15   1  22  -1
M  END
>  <UniqueID>  (10) 
10

>  <SMILES>  (10) 
CCNCCC[NH2+]c1c2ccccc2[n+](C)c2cccc([N-]C(C)=O)c12

>  <Energy>  (10) 
92.82188617122512

>  <Genealogy>  (10) 
CCNCCC[NH2+]c1c2ccccc2[n+](C)c2cccc([N-]C(C)=O)c12 (protonated)
CCNCCC[NH2+]c1c2ccccc2[n+](C)c2cccc([N-]C(C)=O)c12 (3D coordinates assigned)
CCNCCC[NH2+]c1c2ccccc2[n+](C)c2cccc([N-]C(C)=O)c12 (optimized conformer: 92.82188617122512 kcal/mol)

>  <smiles>  (10) 
CCNCCCNc1c2ccccc2[n+](C)c2cccc(NC(C)=O)c12

>  <score_type>  (10) 
oracle

>  <origin>  (10) 
adg

>  <m_score__min__energy>  (10) 
-5.7699999999999996

>  <m_primary>  (10) 
energy

$$$$
10:0
     RDKit          3D

 43 44  0  0  0  0  0  0  0  0999 V2000
   56.6360   29.7260   43.0090 C   0  0  0  0  0  0  0  0  0  0  0  0
   57.4660   29.2530   44.1700 C   0  0  0  0  0  0  0  0  0  0  0  0
   57.3910   27.9080   44.5640 C   0  0  0  0  0  0  0  0  0  0  0  0
   58.1460   27.4420   45.6440 C   0  0  0  0  0  0  0  0  0  0  0  0
   58.0250   25.6120   46.1760 Br  0  0  0  0  0  0  0  0  0  0  0  0
   58.9870   28.3160   46.3350 C   0  0  0  0  0  0  0  0  0  0  0  0
   59.0880   29.6530   45.9420 C   0  0  0  0  0  0  0  0  0  0  0  0
   60.2600   30.8250   46.9020 Br  0  0  0  0  0  0  0  0  0  0  0  0
   58.3470   30.1240   44.8470 C   0  0  0  0  0  0  0  0  0  0  0  0
   58.4830   31.4600   44.4600 O   0  0  0  0  0  0  0  0  0  0  0  0
   57.3840   32.3640   44.4910 C   0  0  0  0  0  0  0  0  0  0  0  0
   57.7870   33.5980   45.2290 C   0  0  0  0  0  0  0  0  0  0  0  0
   56.9180   34.4640   45.5190 O   0  0  0  0  0  0  0  0  0  0  0  0
   59.1480   33.7710   45.6440 N   0  0  0  0  0  0  0  0  0  0  0  0
   59.5760   34.9590   46.3820 C   0  0  0  0  0  0  0  0  0  0  0  0
   60.0120   34.5920   47.8040 C   0  0  0  0  0  0  0  0  0  0  0  0
   61.4620   34.1710   47.8360 C   0  0  0  0  0  0  0  0  0  0  0  0
   62.1070   33.8430   46.7020 C   0  0  0  0  0  0  0  0  0  0  0  0
   63.5320   33.3670   46.7730 C   0  0  0  0  0  0  0  0  0  0  0  0
   63.7000   32.3230   47.8960 C   0  0  0  0  0  0  0  0  0  0  0  0
   62.9400   32.6770   49.2030 C   0  0  0  0  0  0  0  0  0  0  0  0
   62.2030   34.0290   49.1480 C   0  0  0  0  0  0  0  0  0  0  0  0
   55.7378   30.2379   43.3848 H   0  0  0  0  0  0  0  0  0  0  0  0
   57.2262   30.4234   42.3964 H   0  0  0  0  0  0  0  0  0  0  0  0
   56.3368   28.8628   42.3964 H   0  0  0  0  0  0  0  0  0  0  0  0
   56.7330   27.2154   44.0187 H   0  0  0  0  0  0  0  0  0  0  0  0
   59.5722   27.9509   47.1919 H   0  0  0  0  0  0  0  0  0  0  0  0
   57.0947   32.6276   43.4630 H   0  0  0  0  0  0  0  0  0  0  0  0
   56.5297   31.8915   44.9978 H   0  0  0  0  0  0  0  0  0  0  0  0
   59.8430   33.0300   45.3980 H   0  0  0  0  0  0  0  0  0  0  0  0
   60.4217   35.4250   45.8550 H   0  0  0  0  0  0  0  0  0  0  0  0
   58.7291   35.6583   46.4437 H   0  0  0  0  0  0  0  0  0  0  0  0
   59.8771   35.4661   48.4581 H   0  0  0  0  0  0  0  0  0  0  0  0
   59.3958   33.7500   48.1522 H   0  0  0  0  0  0  0  0  0  0  0  0
   61.5965   33.9222   45.7309 H   0  0  0  0  0  0  0  0  0  0  0  0
   63.8093   32.9111   45.8111 H   0  0  0  0  0  0  0  0  0  0  0  0
   64.1831   34.2272   46.9880 H   0  0  0  0  0  0  0  0  0  0  0  0
   63.3257   31.3560   47.5288 H   0  0  0  0  0  0  0  0  0  0  0  0
   64.7706   32.2937   48.1471 H   0  0  0  0  0  0  0  0  0  0  0  0
   62.2003   31.8867   49.3988 H   0  0  0  0  0  0  0  0  0  0  0  0
   63.6938   32.7556   50.0002 H   0  0  0  0  0  0  0  0  0  0  0  0
   61.4839   34.0842   49.9786 H   0  0  0  0  0  0  0  0  0  0  0  0
   62.9397   34.8415   49.2323 H   0  0  0  0  0  0  0  0  0  0  0  0
  1  2  1  0
  2  3  2  0
  3  4  1  0
  4  5  1  0
  4  6  2  0
  6  7  1  0
  7  8  1  0
  7  9  2  0
  9 10  1  0
 10 11  1  0
 11 12  1  0
 12 13  2  0
 12 14  1  0
 14 15  1  0
 15 16  1  0
 16 17  1  0
 17 18  2  0
 18 19  1  0
 19 20  1  0
 20 21  1  0
 21 22  1  0
  9  2  1  0
 22 17  1  0
  1 23  1  0
  1 24  1  0
  1 25  1  0
  3 26  1  0
  6 27  1  0
 11 28  1  0
 11 29  1  0
 14 30  1  0
 15 31  1  0
 15 32  1  0
 16 33  1  0
 16 34  1  0
 18 35  1  0
 19 36  1  0
 19 37  1  0
 20 38  1  0
 20 39  1  0
 21 40  1  0
 21 41  1  0
 22 42  1  0
 22 43  1  0
M  END
>  <UniqueID>  (11) 
11

>  <SMILES>  (11) 
Cc1cc(Br)cc(Br)c1OCC(=O)NCCC1=CCCCC1

>  <Energy>  (11) 
41.36536379004909

>  <Genealogy>  (11) 
Cc1cc(Br)cc(Br)c1OCC(=O)NCCC1=CCCCC1 (3D coordinates assigned)
Cc1cc(Br)cc(Br)c1OCC(=O)NCCC1=CCCCC1 (nonaromatic ring conformer: 41.36536379004909 kcal/mol)

>  <smiles>  (11) 
Cc1cc(Br)cc(Br)c1OCC(=O)NCCC1=CCCCC1

>  <score_type>  (11) 
oracle

>  <origin>  (11) 
adg

>  <m_score__min__energy>  (11) 
-8.3399999999999999

>  <m_primary>  (11) 
energy

$$$$
11:0
     RDKit          3D

 59 62  0  0  0  0  0  0  0  0999 V2000
   60.0290   22.2670   44.7700 C   0  0  0  0  0  0  0  0  0  0  0  0
   58.6080   22.2170   45.3430 C   0  0  0  0  0  0  0  0  0  0  0  0
   57.8000   21.0700   44.8420 N   0  0  0  0  0  0  0  0  0  0  0  0
   56.8770   20.5100   45.8650 C   0  0  0  0  0  0  0  0  0  0  0  0
   57.5040   19.3840   46.6980 C   0  0  0  0  0  0  0  0  0  0  0  0
   57.0000   21.5360   43.7180 C   0  0  0  0  0  0  0  0  0  0  0  0
   56.2910   20.7470   43.1030 O   0  0  0  0  0  0  0  0  0  0  0  0
   56.9960   22.9940   43.3130 C   0  0  0  0  0  0  0  0  0  0  0  0
   55.7320   23.7070   43.8190 C   0  0  0  0  0  0  0  0  0  0  0  0
   55.5610   23.5540   45.3340 C   0  0  0  0  0  0  0  0  0  0  0  0
   55.3770   24.8200   45.9700 O   0  0  0  0  0  0  0  0  0  0  0  0
   56.3990   25.7450   46.2440 C   0  0  0  0  0  0  0  0  0  0  0  0
   57.5460   25.4170   46.9930 C   0  0  0  0  0  0  0  0  0  0  0  0
   58.5460   26.3680   47.2070 C   0  0  0  0  0  0  0  0  0  0  0  0
   58.4230   27.6570   46.6700 C   0  0  0  0  0  0  0  0  0  0  0  0
   59.4410   28.6040   46.8490 C   0  0  0  0  0  0  0  0  0  0  0  0
   59.3240   29.8860   46.2930 C   0  0  0  0  0  0  0  0  0  0  0  0
   58.1840   30.2220   45.5460 C   0  0  0  0  0  0  0  0  0  0  0  0
   57.1620   29.2760   45.3630 C   0  0  0  0  0  0  0  0  0  0  0  0
   57.2730   27.9960   45.9230 C   0  0  0  0  0  0  0  0  0  0  0  0
   56.2670   27.0400   45.7280 C   0  0  0  0  0  0  0  0  0  0  0  0
   58.0970   31.5570   44.8660 C   0  0  0  0  0  0  0  0  0  0  0  0
   58.8940   32.6080   45.6000 C   0  0  0  0  0  0  0  0  0  0  0  0
   58.5230   33.9520   45.4510 C   0  0  0  0  0  0  0  0  0  0  0  0
   59.2790   34.9470   46.0590 C   0  0  0  0  0  0  0  0  0  0  0  0
   60.4060   34.6030   46.7950 C   0  0  0  0  0  0  0  0  0  0  0  0
   60.7690   33.2590   46.9220 C   0  0  0  0  0  0  0  0  0  0  0  0
   61.8110   32.9730   47.5760 O   0  0  0  0  0  0  0  0  0  0  0  0
   60.0080   32.2740   46.3380 N   0  0  0  0  0  0  0  0  0  0  0  0
   60.4610   30.8680   46.4200 C   0  0  0  0  0  0  0  0  0  0  0  0
   60.7563   22.2926   45.5949 H   0  0  0  0  0  0  0  0  0  0  0  0
   60.2068   21.3746   44.1520 H   0  0  0  0  0  0  0  0  0  0  0  0
   60.1436   23.1697   44.1520 H   0  0  0  0  0  0  0  0  0  0  0  0
   58.6777   22.1406   46.4381 H   0  0  0  0  0  0  0  0  0  0  0  0
   58.0979   23.1357   45.0179 H   0  0  0  0  0  0  0  0  0  0  0  0
   58.4400   20.3130   44.5040 H   0  0  0  0  0  0  0  0  0  0  0  0
   56.5760   21.3208   46.5447 H   0  0  0  0  0  0  0  0  0  0  0  0
   56.0192   20.0787   45.3281 H   0  0  0  0  0  0  0  0  0  0  0  0
   57.3799   19.6068   47.7680 H   0  0  0  0  0  0  0  0  0  0  0  0
   57.0061   18.4321   46.4615 H   0  0  0  0  0  0  0  0  0  0  0  0
   58.5754   19.3060   46.4615 H   0  0  0  0  0  0  0  0  0  0  0  0
   57.8817   23.4875   43.7397 H   0  0  0  0  0  0  0  0  0  0  0  0
   57.0123   23.0508   42.2146 H   0  0  0  0  0  0  0  0  0  0  0  0
   55.8049   24.7771   43.5751 H   0  0  0  0  0  0  0  0  0  0  0  0
   54.8608   23.2484   43.3283 H   0  0  0  0  0  0  0  0  0  0  0  0
   54.6822   22.9229   45.5327 H   0  0  0  0  0  0  0  0  0  0  0  0
   56.4736   23.0930   45.7398 H   0  0  0  0  0  0  0  0  0  0  0  0
   57.6547   24.4057   47.4119 H   0  0  0  0  0  0  0  0  0  0  0  0
   59.4344   26.1044   47.7997 H   0  0  0  0  0  0  0  0  0  0  0  0
   60.3373   28.3397   47.4293 H   0  0  0  0  0  0  0  0  0  0  0  0
   56.2697   29.5412   44.7770 H   0  0  0  0  0  0  0  0  0  0  0  0
   55.3628   27.3102   45.1628 H   0  0  0  0  0  0  0  0  0  0  0  0
   58.4886   31.4623   43.8424 H   0  0  0  0  0  0  0  0  0  0  0  0
   57.0424   31.8698   44.8561 H   0  0  0  0  0  0  0  0  0  0  0  0
   57.6372   34.2176   44.8553 H   0  0  0  0  0  0  0  0  0  0  0  0
   58.9863   36.0025   45.9579 H   0  0  0  0  0  0  0  0  0  0  0  0
   61.0108   35.3857   47.2763 H   0  0  0  0  0  0  0  0  0  0  0  0
   61.1803   30.6814   45.6090 H   0  0  0  0  0  0  0  0  0  0  0  0
   60.9194   30.7220   47.4092 H   0  0  0  0  0  0  0  0  0  0  0  0
  1  2  1  0
  2  3  1  0
  3  4  1  0
  4  5  1  0
  3  6  1  0
  6  7  2  0
  6  8  1  0
  8  9  1  0
  9 10  1  0
 10 11  1  0
 11 12  1  0
 12 13  2  0
 13 14  1  0
 14 15  2  0
 15 16  1  0
 16 17  2  0
 17 18  1  0
 18 19  2  0
 19 20  1  0
 20 21  2  0
 18 22  1  0
 22 23  1  0
 23 24  2  0
 24 25  1  0
 25 26  2  0
 26 27  1  0
 27 28  2  0
 27 29  1  0
 29 30  1  0
 21 12  1  0
 29 23  1  0
 20 15  1  0
 30 17  1  0
  1 31  1  0
  1 32  1  0
  1 33  1  0
  2 34  1  0
  2 35  1  0
  3 36  1  0
  4 37  1  0
  4 38  1  0
  5 39  1  0
  5 40  1  0
  5 41  1  0
  8 42  1  0
  8 43  1  0
  9 44  1  0
  9 45  1  0
 10 46  1  0
 10 47  1  0
 13 48  1  0
 14 49  1  0
 16 50  1  0
 19 51  1  0
 21 52  1  0
 22 53  1  0
 22 54  1  0
 24 55  1  0
 25 56  1  0
 26 57  1  0
 30 58  1  0
 30 59  1  0
M  CHG  1   3   1
M  END
>  <UniqueID>  (12) 
12

>  <SMILES>  (12) 
CC[NH+](CC)C(=O)CCCOc1ccc2cc3c(cc2c1)Cc1cccc(=O)n1C3

>  <Energy>  (12) 
73.71789676321796

>  <Genealogy>  (12) 
CC[NH+](CC)C(=O)CCCOc1ccc2cc3c(cc2c1)Cc1cccc(=O)n1C3 (protonated)
CC[NH+](CC)C(=O)CCCOc1ccc2cc3c(cc2c1)Cc1cccc(=O)n1C3 (3D coordinates assigned)
CC[NH+](CC)C(=O)CCCOc1ccc2cc3c(cc2c1)Cc1cccc(=O)n1C3 (nonaromatic ring conformer: 73.71789676321796 kcal/mol)

>  <smiles>  (12) 
CCN(CC)C(=O)CCCOc1ccc2cc3c(cc2c1)Cc1cccc(=O)n1C3

>  <score_type>  (12) 
oracle

>  <origin>  (12) 
adg

>  <m_score__min__energy>  (12) 
-7.5499999999999998

>  <m_primary>  (12) 
energy

$$$$
12:0
     RDKit          3D

 56 56  0  0  0  0  0  0  0  0999 V2000
   58.9939   34.0171   44.4453 H   0  0  0  0  0  0  0  0  0  0  0  0
   58.6110   33.4790   45.3250 C   0  0  0  0  0  0  0  0  0  0  0  0
   58.5730   34.1260   46.4970 C   0  0  0  0  0  0  0  0  0  0  0  0
   57.5997   34.2486   46.9947 H   0  0  0  0  0  0  0  0  0  0  0  0
   59.8000   34.6960   47.1700 C   0  0  0  0  0  0  0  0  0  0  0  0
   59.5034   35.1414   48.1311 H   0  0  0  0  0  0  0  0  0  0  0  0
   60.2357   35.4512   46.4993 H   0  0  0  0  0  0  0  0  0  0  0  0
   60.8220   33.6640   47.4190 N   0  0  0  0  0  0  0  0  0  0  0  0
   60.3660   32.7230   47.4860 H   0  0  0  0  0  0  0  0  0  0  0  0
   61.2770   33.8740   48.3380 H   0  0  0  0  0  0  0  0  0  0  0  0
   61.8560   33.6560   46.3710 C   0  0  0  0  0  0  0  0  0  0  0  0
   61.6609   34.4766   45.6649 H   0  0  0  0  0  0  0  0  0  0  0  0
   61.8235   32.6881   45.8494 H   0  0  0  0  0  0  0  0  0  0  0  0
   63.2530   33.8400   46.9850 C   0  0  0  0  0  0  0  0  0  0  0  0
   63.3847   34.8971   47.2593 H   0  0  0  0  0  0  0  0  0  0  0  0
   63.9979   33.5289   46.2378 H   0  0  0  0  0  0  0  0  0  0  0  0
   63.4450   32.9750   48.2370 C   0  0  0  0  0  0  0  0  0  0  0  0
   64.5020   33.0087   48.5395 H   0  0  0  0  0  0  0  0  0  0  0  0
   63.1460   31.9431   48.0008 H   0  0  0  0  0  0  0  0  0  0  0  0
   62.6420   33.4460   49.3040 O   0  0  0  0  0  0  0  0  0  0  0  0
   62.5010   32.4520   50.2990 C   0  0  0  0  0  0  0  0  0  0  0  0
   62.4849   32.9266   51.2912 H   0  0  0  0  0  0  0  0  0  0  0  0
   63.3478   31.7524   50.2399 H   0  0  0  0  0  0  0  0  0  0  0  0
   61.1930   31.6880   50.0780 C   0  0  0  0  0  0  0  0  0  0  0  0
   60.9087   31.1928   51.0182 H   0  0  0  0  0  0  0  0  0  0  0  0
   61.3612   30.9554   49.2748 H   0  0  0  0  0  0  0  0  0  0  0  0
   60.0890   32.5800   49.6560 N   0  0  0  0  0  0  0  0  0  0  0  0
   59.9050   33.7900   50.4950 C   0  0  0  0  0  0  0  0  0  0  0  0
   59.5419   34.6030   49.8491 H   0  0  0  0  0  0  0  0  0  0  0  0
   60.8829   34.0038   50.9510 H   0  0  0  0  0  0  0  0  0  0  0  0
   58.9120   33.6210   51.6560 C   0  0  0  0  0  0  0  0  0  0  0  0
   59.4474   33.7121   52.6126 H   0  0  0  0  0  0  0  0  0  0  0  0
   58.1383   34.4004   51.5931 H   0  0  0  0  0  0  0  0  0  0  0  0
   58.4397   32.6296   51.5931 H   0  0  0  0  0  0  0  0  0  0  0  0
   58.8300   31.9110   49.2530 C   0  0  0  0  0  0  0  0  0  0  0  0
   58.0155   32.3054   49.8783 H   0  0  0  0  0  0  0  0  0  0  0  0
   58.6906   32.1233   48.1827 H   0  0  0  0  0  0  0  0  0  0  0  0
   58.8490   30.3870   49.3970 C   0  0  0  0  0  0  0  0  0  0  0  0
   58.8523   30.1195   50.4640 H   0  0  0  0  0  0  0  0  0  0  0  0
   57.9561   29.9620   48.9152 H   0  0  0  0  0  0  0  0  0  0  0  0
   59.7522   29.9844   48.9152 H   0  0  0  0  0  0  0  0  0  0  0  0
   58.1670   32.0840   45.1510 C   0  0  0  0  0  0  0  0  0  0  0  0
   57.0630   31.8220   44.3260 C   0  0  0  0  0  0  0  0  0  0  0  0
   56.5462   32.6527   43.8232 H   0  0  0  0  0  0  0  0  0  0  0  0
   56.6170   30.5120   44.1400 C   0  0  0  0  0  0  0  0  0  0  0  0
   55.7454   30.3142   43.4987 H   0  0  0  0  0  0  0  0  0  0  0  0
   57.2760   29.4530   44.7670 C   0  0  0  0  0  0  0  0  0  0  0  0
   56.9167   28.4228   44.6275 H   0  0  0  0  0  0  0  0  0  0  0  0
   58.3920   29.7000   45.5720 C   0  0  0  0  0  0  0  0  0  0  0  0
   58.9113   28.8612   46.0586 H   0  0  0  0  0  0  0  0  0  0  0  0
   58.8560   31.0170   45.7640 C   0  0  0  0  0  0  0  0  0  0  0  0
   59.9980   31.2950   46.5330 O   0  0  0  0  0  0  0  0  0  0  0  0
   61.0710   30.3850   46.7430 C   0  0  0  0  0  0  0  0  0  0  0  0
   61.2308   30.2495   47.8229 H   0  0  0  0  0  0  0  0  0  0  0  0
   60.8250   29.4159   46.2843 H   0  0  0  0  0  0  0  0  0  0  0  0
   61.9869   30.7859   46.2843 H   0  0  0  0  0  0  0  0  0  0  0  0
  1  2  1  0
  2  3  2  0
  3  4  1  0
  3  5  1  0
  5  6  1  0
  5  7  1  0
  5  8  1  0
  8  9  1  0
  8 10  1  0
  8 11  1  0
 11 12  1  0
 11 13  1  0
 11 14  1  0
 14 15  1  0
 14 16  1  0
 14 17  1  0
 17 18  1  0
 17 19  1  0
 17 20  1  0
 20 21  1  0
 21 22  1  0
 21 23  1  0
 21 24  1  0
 24 25  1  0
 24 26  1  0
 24 27  1  0
 27 28  1  0
 28 29  1  0
 28 30  1  0
 28 31  1  0
 31 32  1  0
 31 33  1  0
 31 34  1  0
 27 35  1  0
 35 36  1  0
 35 37  1  0
 35 38  1  0
 38 39  1  0
 38 40  1  0
 38 41  1  0
  2 42  1  0
 42 43  2  0
 43 44  1  0
 43 45  1  0
 45 46  1  0
 45 47  2  0
 47 48  1  0
 47 49  1  0
 49 50  1  0
 49 51  2  0
 51 52  1  0
 52 53  1  0
 53 54  1  0
 53 55  1  0
 53 56  1  0
 51 42  1  0
M  CHG  1   8   1
M  END
>  <UniqueID>  (13) 
13

>  <SMILES>  (13) 
CCN(CC)CCOCCC[NH2+]C/C=C\c1ccccc1OC

>  <Energy>  (13) 
61.22311144202636

>  <Genealogy>  (13) 
CCN(CC)CCOCCC[NH2+]CC=Cc1ccccc1OC (protonated)
CCN(CC)CCOCCC[NH2+]C/C=C\c1ccccc1OC (cis-trans isomerization)
CCN(CC)CCOCCC[NH2+]C/C=C\c1ccccc1OC (3D coordinates assigned)
CCN(CC)CCOCCC[NH2+]C/C=C\c1ccccc1OC (optimized conformer: 61.22311144202636 kcal/mol)

>  <smiles>  (13) 
CCN(CC)CCOCCCNCC=Cc1ccccc1OC

>  <score_type>  (13) 
oracle

>  <origin>  (13) 
adg

>  <m_score__min__energy>  (13) 
-3.9300000000000002

>  <m_primary>  (13) 
energy

$$$$
13:0
     RDKit          3D

 55 57  0  0  0  0  0  0  0  0999 V2000
   58.6620   32.0880   50.4270 C   0  0  0  0  0  0  0  0  0  0  0  0
   58.8670   31.2780   49.3830 C   0  0  0  0  0  0  0  0  0  0  0  0
   60.2500   30.7800   49.0540 C   0  0  0  0  0  0  0  0  0  0  0  0
   60.6680   31.2250   47.7250 N   0  0  0  0  0  0  0  0  0  0  0  0
   59.7850   31.0710   46.6060 C   0  0  0  0  0  0  0  0  0  0  0  0
   59.5870   29.7870   46.0680 C   0  0  0  0  0  0  0  0  0  0  0  0
   60.3500   28.6850   46.5190 C   0  0  0  0  0  0  0  0  0  0  0  0
   60.1850   27.4240   45.9510 C   0  0  0  0  0  0  0  0  0  0  0  0
   59.2710   27.2390   44.9220 C   0  0  0  0  0  0  0  0  0  0  0  0
   58.4900   28.3060   44.4780 C   0  0  0  0  0  0  0  0  0  0  0  0
   58.6030   29.5920   45.0680 C   0  0  0  0  0  0  0  0  0  0  0  0
   57.7810   30.6350   44.6970 N   0  0  0  0  0  0  0  0  0  0  0  0
   56.5460   30.3550   43.9280 C   0  0  0  0  0  0  0  0  0  0  0  0
   58.0920   31.9320   45.0690 C   0  0  0  0  0  0  0  0  0  0  0  0
   57.4260   33.0380   44.4840 C   0  0  0  0  0  0  0  0  0  0  0  0
   57.7020   34.3390   44.8780 C   0  0  0  0  0  0  0  0  0  0  0  0
   58.6700   34.5860   45.8360 C   0  0  0  0  0  0  0  0  0  0  0  0
   59.3980   33.5380   46.4110 C   0  0  0  0  0  0  0  0  0  0  0  0
   60.4990   33.8840   47.2670 N   0  0  0  0  0  0  0  0  0  0  0  0
   60.3090   34.5810   48.5410 C   0  0  0  0  0  0  0  0  0  0  0  0
   61.4140   34.2180   49.5460 C   0  0  0  0  0  0  0  0  0  0  0  0
   62.8260   34.1850   48.9260 C   0  0  0  0  0  0  0  0  0  0  0  0
   63.0840   32.9120   48.2110 N   0  0  0  0  0  0  0  0  0  0  0  0
   63.8950   31.9940   49.0290 C   0  0  0  0  0  0  0  0  0  0  0  0
   63.7670   33.1700   46.9340 C   0  0  0  0  0  0  0  0  0  0  0  0
   59.1080   32.1840   46.0430 C   0  0  0  0  0  0  0  0  0  0  0  0
   57.6467   32.4442   50.6558 H   0  0  0  0  0  0  0  0  0  0  0  0
   59.5087   32.3982   51.0571 H   0  0  0  0  0  0  0  0  0  0  0  0
   58.0158   30.9718   48.7572 H   0  0  0  0  0  0  0  0  0  0  0  0
   60.9583   31.1667   49.8015 H   0  0  0  0  0  0  0  0  0  0  0  0
   60.2371   29.6801   49.0660 H   0  0  0  0  0  0  0  0  0  0  0  0
   61.6800   31.4090   47.5290 H   0  0  0  0  0  0  0  0  0  0  0  0
   61.0823   28.8254   47.3278 H   0  0  0  0  0  0  0  0  0  0  0  0
   60.7791   26.5740   46.3178 H   0  0  0  0  0  0  0  0  0  0  0  0
   59.1626   26.2485   44.4559 H   0  0  0  0  0  0  0  0  0  0  0  0
   57.7749   28.1483   43.6572 H   0  0  0  0  0  0  0  0  0  0  0  0
   55.7154   30.1667   44.6241 H   0  0  0  0  0  0  0  0  0  0  0  0
   56.3043   31.2211   43.2945 H   0  0  0  0  0  0  0  0  0  0  0  0
   56.7014   29.4693   43.2945 H   0  0  0  0  0  0  0  0  0  0  0  0
   56.6742   32.8608   43.7008 H   0  0  0  0  0  0  0  0  0  0  0  0
   57.1498   35.1771   44.4277 H   0  0  0  0  0  0  0  0  0  0  0  0
   58.8701   35.6211   46.1500 H   0  0  0  0  0  0  0  0  0  0  0  0
   61.4630   33.6100   46.9810 H   0  0  0  0  0  0  0  0  0  0  0  0
   60.3294   35.6662   48.3623 H   0  0  0  0  0  0  0  0  0  0  0  0
   59.3408   34.2745   48.9636 H   0  0  0  0  0  0  0  0  0  0  0  0
   61.4068   34.9633   50.3550 H   0  0  0  0  0  0  0  0  0  0  0  0
   61.1979   33.2029   49.9104 H   0  0  0  0  0  0  0  0  0  0  0  0
   62.9221   35.0186   48.2148 H   0  0  0  0  0  0  0  0  0  0  0  0
   63.5594   34.2740   49.7410 H   0  0  0  0  0  0  0  0  0  0  0  0
   63.7156   32.1971   50.0951 H   0  0  0  0  0  0  0  0  0  0  0  0
   63.6145   30.9550   48.8014 H   0  0  0  0  0  0  0  0  0  0  0  0
   64.9606   32.1443   48.8014 H   0  0  0  0  0  0  0  0  0  0  0  0
   64.7795   33.5525   47.1304 H   0  0  0  0  0  0  0  0  0  0  0  0
   63.8335   32.2350   46.3583 H   0  0  0  0  0  0  0  0  0  0  0  0
   63.1987   33.9154   46.3583 H   0  0  0  0  0  0  0  0  0  0  0  0
  1  2  2  0
  2  3  1  0
  3  4  1  0
  4  5  1  0
  5  6  2  0
  6  7  1  0
  7  8  2  0
  8  9  1  0
  9 10  2  0
 10 11  1  0
 11 12  2  0
 12 13  1  0
 12 14  1  0
 14 15  2  0
 15 16  1  0
 16 17  2  0
 17 18  1  0
 18 19  1  0
 19 20  1  0
 20 21  1  0
 21 22  1  0
 22 23  1  0
 23 24  1  0
 23 25  1  0
 18 26  2  0
 26  5  1  0
 11  6  1  0
 26 14  1  0
  1 27  1  0
  1 28  1  0
  2 29  1  0
  3 30  1  0
  3 31  1  0
  4 32  1  0
  7 33  1  0
  8 34  1  0
  9 35  1  0
 10 36  1  0
 13 37  1  0
 13 38  1  0
 13 39  1  0
 15 40  1  0
 16 41  1  0
 17 42  1  0
 19 43  1  0
 20 44  1  0
 20 45  1  0
 21 46  1  0
 21 47  1  0
 22 48  1  0
 22 49  1  0
 24 50  1  0
 24 51  1  0
 24 52  1  0
 25 53  1  0
 25 54  1  0
 25 55  1  0
M  CHG  1  12   1
M  END
>  <UniqueID>  (14) 
14

>  <SMILES>  (14) 
C=CCNc1c2ccccc2[n+](C)c2cccc(NCCCN(C)C)c12

>  <Energy>  (14) 
84.58199536854615

>  <Genealogy>  (14) 
C=CCNc1c2ccccc2[n+](C)c2cccc(NCCCN(C)C)c12 (3D coordinates assigned)
C=CCNc1c2ccccc2[n+](C)c2cccc(NCCCN(C)C)c12 (optimized conformer: 84.58199536854615 kcal/mol)

>  <smiles>  (14) 
C=CCNc1c2ccccc2[n+](C)c2cccc(NCCCN(C)C)c12

>  <score_type>  (14) 
oracle

>  <origin>  (14) 
adg

>  <m_score__min__energy>  (14) 
-5.4800000000000004

>  <m_primary>  (14) 
energy

$$$$
14:0
     RDKit          3D

 38 40  0  0  0  0  0  0  0  0999 V2000
   57.7460   33.5580   45.3850 C   0  0  0  0  0  0  0  0  0  0  0  0
   58.5290   32.2720   45.6450 C   0  0  0  0  0  0  0  0  0  0  0  0
   57.8010   31.0970   45.1370 N   0  0  0  0  0  0  0  0  0  0  0  0
   56.6810   31.3290   44.2080 C   0  0  0  0  0  0  0  0  0  0  0  0
   56.8280   30.4790   42.9470 C   0  0  0  0  0  0  0  0  0  0  0  0
   58.1710   29.7480   45.5430 C   0  0  0  0  0  0  0  0  0  0  0  0
   59.4910   29.4440   45.9130 C   0  0  0  0  0  0  0  0  0  0  0  0
   59.8450   28.1530   46.3000 C   0  0  0  0  0  0  0  0  0  0  0  0
   58.8950   27.1210   46.3300 C   0  0  0  0  0  0  0  0  0  0  0  0
   57.5560   27.3980   45.9620 C   0  0  0  0  0  0  0  0  0  0  0  0
   57.2170   28.7120   45.5780 C   0  0  0  0  0  0  0  0  0  0  0  0
   56.4690   26.3770   45.9790 C   0  0  0  0  0  0  0  0  0  0  0  0
   55.1630   26.7110   46.0060 N   0  0  0  0  0  0  0  0  0  0  0  0
   54.4640   25.5880   45.9890 N   0  0  0  0  0  0  0  0  0  0  0  0
   55.2580   24.5310   45.9470 N   0  0  0  0  0  0  0  0  0  0  0  0
   56.5230   24.9850   45.9310 C   0  0  0  0  0  0  0  0  0  0  0  0
   57.6940   24.0430   45.9080 C   0  0  0  0  0  0  0  0  0  0  0  0
   59.0480   24.7080   45.6940 C   0  0  0  0  0  0  0  0  0  0  0  0
   59.3370   25.7530   46.7750 C   0  0  0  0  0  0  0  0  0  0  0  0
   57.4663   34.0173   46.3446 H   0  0  0  0  0  0  0  0  0  0  0  0
   58.3711   34.2583   44.8116 H   0  0  0  0  0  0  0  0  0  0  0  0
   56.8368   33.3242   44.8116 H   0  0  0  0  0  0  0  0  0  0  0  0
   59.5041   32.3366   45.1400 H   0  0  0  0  0  0  0  0  0  0  0  0
   58.6632   32.1577   46.7308 H   0  0  0  0  0  0  0  0  0  0  0  0
   55.7378   31.0673   44.7098 H   0  0  0  0  0  0  0  0  0  0  0  0
   56.6823   32.3897   43.9167 H   0  0  0  0  0  0  0  0  0  0  0  0
   57.0091   29.4316   43.2299 H   0  0  0  0  0  0  0  0  0  0  0  0
   55.9053   30.5437   42.3516 H   0  0  0  0  0  0  0  0  0  0  0  0
   57.6754   30.8498   42.3516 H   0  0  0  0  0  0  0  0  0  0  0  0
   60.2553   30.2350   45.8971 H   0  0  0  0  0  0  0  0  0  0  0  0
   60.8854   27.9397   46.5864 H   0  0  0  0  0  0  0  0  0  0  0  0
   56.1769   28.9345   45.2975 H   0  0  0  0  0  0  0  0  0  0  0  0
   57.7231   23.5104   46.8700 H   0  0  0  0  0  0  0  0  0  0  0  0
   57.5376   23.3773   45.0464 H   0  0  0  0  0  0  0  0  0  0  0  0
   59.8329   23.9379   45.7224 H   0  0  0  0  0  0  0  0  0  0  0  0
   59.0327   25.2158   44.7184 H   0  0  0  0  0  0  0  0  0  0  0  0
   58.7961   25.4806   47.6933 H   0  0  0  0  0  0  0  0  0  0  0  0
   60.4209   25.7766   46.9608 H   0  0  0  0  0  0  0  0  0  0  0  0
  1  2  1  0
  2  3  1  0
  3  4  1  0
  4  5  1  0
  3  6  1  0
  6  7  2  0
  7  8  1  0
  8  9  2  0
  9 10  1  0
 10 11  2  0
 10 12  1  0
 12 13  1  0
 13 14  2  0
 14 15  1  0
 15 16  1  0
 16 17  1  0
 17 18  1  0
 18 19  1  0
 11  6  1  0
 16 12  2  0
 19  9  1  0
  1 20  1  0
  1 21  1  0
  1 22  1  0
  2 23  1  0
  2 24  1  0
  4 25  1  0
  4 26  1  0
  5 27  1  0
  5 28  1  0
  5 29  1  0
  7 30  1  0
  8 31  1  0
 11 32  1  0
 17 33  1  0
 17 34  1  0
 18 35  1  0
 18 36  1  0
 19 37  1  0
 19 38  1  0
M  CHG  1  15  -1
M  END
>  <UniqueID>  (15) 
15

>  <SMILES>  (15) 
CCN(CC)c1ccc2c(c1)-c1nn[n-]c1CCC2

>  <Energy>  (15) 
80.31706943953454

>  <Genealogy>  (15) 
CCN(CC)c1ccc2c(c1)-c1nn[n-]c1CCC2 (protonated)
CCN(CC)c1ccc2c(c1)-c1nn[n-]c1CCC2 (3D coordinates assigned)
CCN(CC)c1ccc2c(c1)-c1nn[n-]c1CCC2 (nonaromatic ring conformer: 80.31706943953454 kcal/mol)

>  <smiles>  (15) 
CCN(CC)c1ccc2c(c1)-c1nn[nH]c1CCC2

>  <score_type>  (15) 
oracle

>  <origin>  (15) 
adg

>  <m_score__min__energy>  (15) 
-8.1500000000000004

>  <m_primary>  (15) 
energy

$$$$
15:0
     RDKit          3D

 46 48  0  0  0  0  0  0  0  0999 V2000
   63.2710   33.8390   46.3690 C   0  0  0  0  0  0  0  0  0  0  0  0
   63.2470   32.5320   47.1760 C   0  0  0  0  0  0  0  0  0  0  0  0
   62.1560   32.4560   48.1760 N   0  0  0  0  0  0  0  0  0  0  0  0
   62.0960   33.6300   49.0600 C   0  0  0  0  0  0  0  0  0  0  0  0
   62.1320   31.1800   48.9240 C   0  0  0  0  0  0  0  0  0  0  0  0
   61.0030   30.2920   48.4000 C   0  0  0  0  0  0  0  0  0  0  0  0
   60.6490   30.6690   47.0330 N   0  0  0  0  0  0  0  0  0  0  0  0
   59.3090   30.5270   46.5440 C   0  0  0  0  0  0  0  0  0  0  0  0
   58.4970   31.5440   46.0600 C   0  0  0  0  0  0  0  0  0  0  0  0
   58.7920   32.9490   46.0840 N   0  0  0  0  0  0  0  0  0  0  0  0
   58.3980   33.7810   44.9450 C   0  0  0  0  0  0  0  0  0  0  0  0
   59.2870   35.0280   44.8870 C   0  0  0  0  0  0  0  0  0  0  0  0
   59.2940   35.7020   46.1320 O   0  0  0  0  0  0  0  0  0  0  0  0
   59.8840   34.8790   47.1210 C   0  0  0  0  0  0  0  0  0  0  0  0
   59.0360   33.6270   47.3610 C   0  0  0  0  0  0  0  0  0  0  0  0
   57.3770   31.0240   45.5010 N   0  0  0  0  0  0  0  0  0  0  0  0
   57.5480   29.6960   45.6640 C   0  0  0  0  0  0  0  0  0  0  0  0
   56.6910   28.7470   45.2120 N   0  0  0  0  0  0  0  0  0  0  0  0
   57.0130   27.4310   45.3750 C   0  0  0  0  0  0  0  0  0  0  0  0
   58.2290   27.0640   45.9790 C   0  0  0  0  0  0  0  0  0  0  0  0
   59.0940   28.0710   46.4230 C   0  0  0  0  0  0  0  0  0  0  0  0
   58.7000   29.3620   46.2700 N   0  0  0  0  0  0  0  0  0  0  0  0
   63.2867   34.6956   47.0589 H   0  0  0  0  0  0  0  0  0  0  0  0
   64.1697   33.8621   45.7351 H   0  0  0  0  0  0  0  0  0  0  0  0
   62.3737   33.8951   45.7351 H   0  0  0  0  0  0  0  0  0  0  0  0
   63.1295   31.6944   46.4728 H   0  0  0  0  0  0  0  0  0  0  0  0
   64.1928   32.4886   47.7359 H   0  0  0  0  0  0  0  0  0  0  0  0
   62.1129   33.3002   50.1093 H   0  0  0  0  0  0  0  0  0  0  0  0
   62.9621   34.2798   48.8659 H   0  0  0  0  0  0  0  0  0  0  0  0
   61.1682   34.1881   48.8659 H   0  0  0  0  0  0  0  0  0  0  0  0
   63.0938   30.6624   48.7936 H   0  0  0  0  0  0  0  0  0  0  0  0
   61.9640   31.3883   49.9910 H   0  0  0  0  0  0  0  0  0  0  0  0
   61.3322   29.2425   48.4125 H   0  0  0  0  0  0  0  0  0  0  0  0
   60.1208   30.4200   49.0445 H   0  0  0  0  0  0  0  0  0  0  0  0
   61.2600   31.3700   46.5570 H   0  0  0  0  0  0  0  0  0  0  0  0
   58.5131   33.2058   44.0144 H   0  0  0  0  0  0  0  0  0  0  0  0
   57.3477   34.0864   45.0618 H   0  0  0  0  0  0  0  0  0  0  0  0
   60.3144   34.7264   44.6350 H   0  0  0  0  0  0  0  0  0  0  0  0
   58.8876   35.7090   44.1210 H   0  0  0  0  0  0  0  0  0  0  0  0
   60.8876   34.5766   46.7872 H   0  0  0  0  0  0  0  0  0  0  0  0
   59.9488   35.4472   48.0607 H   0  0  0  0  0  0  0  0  0  0  0  0
   59.5704   32.9471   48.0408 H   0  0  0  0  0  0  0  0  0  0  0  0
   58.0752   33.9161   47.8118 H   0  0  0  0  0  0  0  0  0  0  0  0
   56.3167   26.6518   45.0316 H   0  0  0  0  0  0  0  0  0  0  0  0
   58.4957   26.0038   46.1004 H   0  0  0  0  0  0  0  0  0  0  0  0
   60.0630   27.8245   46.8817 H   0  0  0  0  0  0  0  0  0  0  0  0
  1  2  1  0
  2  3  1  0
  3  4  1  0
  3  5  1  0
  5  6  1  0
  6  7  1  0
  7  8  1  0
  8  9  2  0
  9 10  1  0
 10 11  1  0
 11 12  1  0
 12 13  1  0
 13 14  1  0
 14 15  1  0
  9 16  1  0
 16 17  2  0
 17 18  1  0
 18 19  2  0
 19 20  1  0
 20 21  2  0
 21 22  1  0
 22  8  1  0
 15 10  1  0
 22 17  1  0
  1 23  1  0
  1 24  1  0
  1 25  1  0
  2 26  1  0
  2 27  1  0
  4 28  1  0
  4 29  1  0
  4 30  1  0
  5 31  1  0
  5 32  1  0
  6 33  1  0
  6 34  1  0
  7 35  1  0
 11 36  1  0
 11 37  1  0
 12 38  1  0
 12 39  1  0
 14 40  1  0
 14 41  1  0
 15 42  1  0
 15 43  1  0
 19 44  1  0
 20 45  1  0
 21 46  1  0
M  END
>  <UniqueID>  (16) 
16

>  <SMILES>  (16) 
CCN(C)CCNc1c(N2CCOCC2)nc2ncccn12

>  <Energy>  (16) 
91.9711926562245

>  <Genealogy>  (16) 
CCN(C)CCNc1c(N2CCOCC2)nc2ncccn12 (3D coordinates assigned)
CCN(C)CCNc1c(N2CCOCC2)nc2ncccn12 (nonaromatic ring conformer: 91.9711926562245 kcal/mol)

>  <smiles>  (16) 
CCN(C)CCNc1c(N2CCOCC2)nc2ncccn12

>  <score_type>  (16) 
oracle

>  <origin>  (16) 
adg

>  <m_score__min__energy>  (16) 
-5.4299999999999997

>  <m_primary>  (16) 
energy

$$$$
16:0
     RDKit          3D

 46 48  0  0  1  0  0  0  0  0999 V2000
   65.5640   32.9450   50.0900 C   0  0  0  0  0  0  0  0  0  0  0  0
   64.5850   33.7110   49.4030 O   0  0  0  0  0  0  0  0  0  0  0  0
   63.5780   32.9850   48.7750 C   0  0  0  0  0  0  0  0  0  0  0  0
   63.1040   31.8160   49.3310 C   0  0  0  0  0  0  0  0  0  0  0  0
   62.0900   31.1010   48.6850 C   0  0  0  0  0  0  0  0  0  0  0  0
   61.5370   31.5250   47.5000 C   0  0  0  0  0  0  0  0  0  0  0  0
   60.4780   30.8020   46.8100 C   0  0  0  0  0  0  0  0  0  0  0  0
   60.5830   29.4730   46.6440 N   0  0  0  0  0  0  0  0  0  0  0  0
   59.6680   28.7090   46.0270 C   0  0  0  0  0  0  0  0  0  0  0  0
   59.8380   27.3300   45.8880 C   0  0  0  0  0  0  0  0  0  0  0  0
   58.8780   26.5650   45.2480 C   0  0  0  0  0  0  0  0  0  0  0  0
   57.7570   27.2170   44.7580 C   0  0  0  0  0  0  0  0  0  0  0  0
   57.5910   28.5950   44.8970 C   0  0  0  0  0  0  0  0  0  0  0  0
   58.5520   29.3350   45.5340 C   0  0  0  0  0  0  0  0  0  0  0  0
   58.4090   30.7030   45.6860 C   0  0  0  0  0  0  0  0  0  0  0  0
   57.4040   31.3400   45.2490 N   0  0  0  0  0  0  0  0  0  0  0  0
   57.3840   32.6140   44.6160 C   0  0  0  0  0  0  0  0  0  0  0  0
   57.4330   33.7540   45.6190 C   0  0  0  0  0  0  0  0  0  0  0  0
   58.8040   34.0680   45.9800 N   0  0  0  0  0  0  0  0  0  0  0  0
   58.8980   34.5670   47.3390 C   0  0  0  0  0  0  0  0  0  0  0  0
   59.2810   35.0760   45.0530 C   0  0  0  0  0  0  0  0  0  0  0  0
   59.3730   31.3880   46.3180 N   0  0  0  0  0  0  0  0  0  0  0  0
   62.0290   32.6970   46.9650 C   0  0  0  0  0  0  0  0  0  0  0  0
   63.0310   33.4140   47.5920 C   0  0  0  0  0  0  0  0  0  0  0  0
   65.4217   33.0564   51.1751 H   0  0  0  0  0  0  0  0  0  0  0  0
   65.4608   31.8853   49.8135 H   0  0  0  0  0  0  0  0  0  0  0  0
   66.5677   33.3000   49.8135 H   0  0  0  0  0  0  0  0  0  0  0  0
   63.5217   31.4468   50.2793 H   0  0  0  0  0  0  0  0  0  0  0  0
   61.7232   30.1691   49.1400 H   0  0  0  0  0  0  0  0  0  0  0  0
   60.7414   26.8480   46.2900 H   0  0  0  0  0  0  0  0  0  0  0  0
   59.0004   25.4780   45.1323 H   0  0  0  0  0  0  0  0  0  0  0  0
   56.9782   26.6325   44.2463 H   0  0  0  0  0  0  0  0  0  0  0  0
   56.6917   29.0858   44.4966 H   0  0  0  0  0  0  0  0  0  0  0  0
   58.2550   32.6917   43.9486 H   0  0  0  0  0  0  0  0  0  0  0  0
   56.4413   32.6978   44.0554 H   0  0  0  0  0  0  0  0  0  0  0  0
   56.9645   34.6447   45.1750 H   0  0  0  0  0  0  0  0  0  0  0  0
   56.8921   33.4473   46.5264 H   0  0  0  0  0  0  0  0  0  0  0  0
   58.7419   33.7384   48.0455 H   0  0  0  0  0  0  0  0  0  0  0  0
   59.8943   35.0042   47.5010 H   0  0  0  0  0  0  0  0  0  0  0  0
   58.1291   35.3367   47.5010 H   0  0  0  0  0  0  0  0  0  0  0  0
   59.6852   35.9301   45.6161 H   0  0  0  0  0  0  0  0  0  0  0  0
   60.0717   34.6471   44.4198 H   0  0  0  0  0  0  0  0  0  0  0  0
   58.4480   35.4154   44.4198 H   0  0  0  0  0  0  0  0  0  0  0  0
   59.2730   32.3970   46.4360 H   0  0  0  0  0  0  0  0  0  0  0  0
   61.6144   33.0702   46.0169 H   0  0  0  0  0  0  0  0  0  0  0  0
   63.3963   34.3452   47.1343 H   0  0  0  0  0  0  0  0  0  0  0  0
  1  2  1  0
  2  3  1  0
  3  4  2  0
  4  5  1  0
  5  6  2  0
  6  7  1  0
  7  8  2  0
  8  9  1  0
  9 10  2  0
 10 11  1  0
 11 12  2  0
 12 13  1  0
 13 14  2  0
 14 15  1  0
 15 16  2  0
 16 17  1  0
 17 18  1  0
 18 19  1  0
 19 20  1  0
 19 21  1  0
 15 22  1  0
  6 23  1  0
 23 24  2  0
 24  3  1  0
 22  7  1  0
 14  9  1  0
  1 25  1  0
  1 26  1  0
  1 27  1  0
  4 28  1  0
  5 29  1  0
 10 30  1  0
 11 31  1  0
 12 32  1  0
 13 33  1  0
 17 34  1  0
 17 35  1  0
 18 36  1  0
 18 37  1  0
 20 38  1  0
 20 39  1  0
 20 40  1  0
 21 41  1  0
 21 42  1  0
 21 43  1  0
 22 44  1  0
 23 45  1  0
 24 46  1  0
M  END
>  <smiles>  (17) 
COc1ccc(-c2nc3ccccc3c(=NCCN(C)C)[nH]2)cc1

>  <score_type>  (17) 
oracle

>  <origin>  (17) 
adg

>  <m_score__min__energy>  (17) 
-7.5899999999999999

>  <m_primary>  (17) 
energy

$$$$
17:0
     RDKit          3D

 63 65  0  0  0  0  0  0  0  0999 V2000
   60.8300   32.0570   52.0910 C   0  0  0  0  0  0  0  0  0  0  0  0
   62.2180   31.6060   51.6220 C   0  0  0  0  0  0  0  0  0  0  0  0
   62.9560   32.6690   50.8960 N   0  0  1  0  0  0  0  0  0  0  0  0
   63.1040   33.8580   51.7560 C   0  0  0  0  0  0  0  0  0  0  0  0
   64.2620   32.2420   50.3260 C   0  0  0  0  0  0  0  0  0  0  0  0
   64.7340   33.0500   49.1040 C   0  0  0  0  0  0  0  0  0  0  0  0
   63.6690   33.8710   48.6660 O   0  0  0  0  0  0  0  0  0  0  0  0
   63.3830   33.6340   47.2990 C   0  0  0  0  0  0  0  0  0  0  0  0
   62.8270   32.2170   47.1210 C   0  0  0  0  0  0  0  0  0  0  0  0
   62.0900   31.8110   48.2590 O   0  0  0  0  0  0  0  0  0  0  0  0
   61.5170   30.5350   48.0590 C   0  0  0  0  0  0  0  0  0  0  0  0
   60.4080   30.3150   49.0840 C   0  0  0  0  0  0  0  0  0  0  0  0
   59.1770   30.9910   48.6690 N   0  0  0  0  0  0  0  0  0  0  0  0
   58.9440   31.3180   47.2930 C   0  0  0  0  0  0  0  0  0  0  0  0
   58.6260   30.2880   46.3890 C   0  0  0  0  0  0  0  0  0  0  0  0
   58.6260   28.9360   46.8030 C   0  0  0  0  0  0  0  0  0  0  0  0
   58.3560   27.9150   45.8970 C   0  0  0  0  0  0  0  0  0  0  0  0
   58.0920   28.2160   44.5650 C   0  0  0  0  0  0  0  0  0  0  0  0
   58.0880   29.5430   44.1350 C   0  0  0  0  0  0  0  0  0  0  0  0
   58.3280   30.6080   45.0410 C   0  0  0  0  0  0  0  0  0  0  0  0
   58.3000   31.9240   44.6330 N   0  0  0  0  0  0  0  0  0  0  0  0
   57.6830   32.2790   43.3350 C   0  0  0  0  0  0  0  0  0  0  0  0
   58.8350   32.9090   45.4420 C   0  0  0  0  0  0  0  0  0  0  0  0
   59.1300   34.1970   44.9270 C   0  0  0  0  0  0  0  0  0  0  0  0
   59.6280   35.2060   45.7440 C   0  0  0  0  0  0  0  0  0  0  0  0
   59.8470   34.9660   47.0920 C   0  0  0  0  0  0  0  0  0  0  0  0
   59.6020   33.7040   47.6410 C   0  0  0  0  0  0  0  0  0  0  0  0
   59.8630   33.5360   49.0370 N   0  0  0  0  0  0  0  0  0  0  0  0
   58.9150   33.2890   49.8100 O   0  0  0  0  0  0  0  0  0  0  0  0
   61.0510   33.9940   49.5570 O   0  0  0  0  0  0  0  0  0  0  0  0
   59.1260   32.6400   46.8140 C   0  0  0  0  0  0  0  0  0  0  0  0
   60.7998   32.0668   53.1905 H   0  0  0  0  0  0  0  0  0  0  0  0
   60.6247   33.0681   51.7095 H   0  0  0  0  0  0  0  0  0  0  0  0
   60.0696   31.3597   51.7095 H   0  0  0  0  0  0  0  0  0  0  0  0
   62.8066   31.3089   52.5025 H   0  0  0  0  0  0  0  0  0  0  0  0
   62.0743   30.7682   50.9238 H   0  0  0  0  0  0  0  0  0  0  0  0
   62.3580   32.9670   50.0870 H   0  0  0  0  0  0  0  0  0  0  0  0
   63.0661   33.5535   52.8123 H   0  0  0  0  0  0  0  0  0  0  0  0
   64.0694   34.3427   51.5485 H   0  0  0  0  0  0  0  0  0  0  0  0
   62.2869   34.5646   51.5485 H   0  0  0  0  0  0  0  0  0  0  0  0
   65.0249   32.3364   51.1128 H   0  0  0  0  0  0  0  0  0  0  0  0
   64.1213   31.2088   49.9756 H   0  0  0  0  0  0  0  0  0  0  0  0
   65.5938   33.6765   49.3838 H   0  0  0  0  0  0  0  0  0  0  0  0
   65.0379   32.3670   48.2970 H   0  0  0  0  0  0  0  0  0  0  0  0
   62.6384   34.3646   46.9501 H   0  0  0  0  0  0  0  0  0  0  0  0
   64.3077   33.7368   46.7122 H   0  0  0  0  0  0  0  0  0  0  0  0
   62.1677   32.1980   46.2407 H   0  0  0  0  0  0  0  0  0  0  0  0
   63.6716   31.5251   46.9872 H   0  0  0  0  0  0  0  0  0  0  0  0
   61.0967   30.4757   47.0442 H   0  0  0  0  0  0  0  0  0  0  0  0
   62.2892   29.7609   48.1791 H   0  0  0  0  0  0  0  0  0  0  0  0
   60.2131   29.2366   49.1791 H   0  0  0  0  0  0  0  0  0  0  0  0
   60.7315   30.7314   50.0494 H   0  0  0  0  0  0  0  0  0  0  0  0
   58.4680   31.2930   49.3760 H   0  0  0  0  0  0  0  0  0  0  0  0
   58.8418   28.6886   47.8529 H   0  0  0  0  0  0  0  0  0  0  0  0
   58.3513   26.8681   46.2348 H   0  0  0  0  0  0  0  0  0  0  0  0
   57.8860   27.4063   43.8495 H   0  0  0  0  0  0  0  0  0  0  0  0
   57.8955   29.7675   43.0755 H   0  0  0  0  0  0  0  0  0  0  0  0
   56.7420   32.8204   43.5122 H   0  0  0  0  0  0  0  0  0  0  0  0
   58.3722   32.9187   42.7642 H   0  0  0  0  0  0  0  0  0  0  0  0
   57.4764   31.3617   42.7642 H   0  0  0  0  0  0  0  0  0  0  0  0
   58.9614   34.4020   43.8595 H   0  0  0  0  0  0  0  0  0  0  0  0
   59.8487   36.1967   45.3200 H   0  0  0  0  0  0  0  0  0  0  0  0
   60.2174   35.7771   47.7361 H   0  0  0  0  0  0  0  0  0  0  0  0
  1  2  1  0
  2  3  1  0
  3  4  1  0
  3  5  1  0
  5  6  1  0
  6  7  1  0
  7  8  1  0
  8  9  1  0
  9 10  1  0
 10 11  1  0
 11 12  1  0
 12 13  1  0
 13 14  1  0
 14 15  2  0
 15 16  1  0
 16 17  2  0
 17 18  1  0
 18 19  2  0
 19 20  1  0
 20 21  2  0
 21 22  1  0
 21 23  1  0
 23 24  2  0
 24 25  1  0
 25 26  2  0
 26 27  1  0
 27 28  1  0
 28 29  2  0
 28 30  1  0
 27 31  2  0
 31 14  1  0
 20 15  1  0
 31 23  1  0
  1 32  1  0
  1 33  1  0
  1 34  1  0
  2 35  1  0
  2 36  1  0
  3 37  1  6
  4 38  1  0
  4 39  1  0
  4 40  1  0
  5 41  1  0
  5 42  1  0
  6 43  1  0
  6 44  1  0
  8 45  1  0
  8 46  1  0
  9 47  1  0
  9 48  1  0
 11 49  1  0
 11 50  1  0
 12 51  1  0
 12 52  1  0
 13 53  1  0
 16 54  1  0
 17 55  1  0
 18 56  1  0
 19 57  1  0
 22 58  1  0
 22 59  1  0
 22 60  1  0
 24 61  1  0
 25 62  1  0
 26 63  1  0
M  CHG  4   3   1  21   1  28   1  30  -1
M  END
>  <UniqueID>  (18) 
17

>  <SMILES>  (18) 
CC[N@@H+](C)CCOCCOCCNc1c2ccccc2[n+](C)c2cccc([N+](=O)[O-])c12

>  <Energy>  (18) 
104.96479086653918

>  <Genealogy>  (18) 
CC[NH+](C)CCOCCOCCNc1c2ccccc2[n+](C)c2cccc([N+](=O)[O-])c12 (protonated)
CC[N@@H+](C)CCOCCOCCNc1c2ccccc2[n+](C)c2cccc([N+](=O)[O-])c12 (chirality)
CC[N@@H+](C)CCOCCOCCNc1c2ccccc2[n+](C)c2cccc([N+](=O)[O-])c12 (3D coordinates assigned)
CC[N@@H+](C)CCOCCOCCNc1c2ccccc2[n+](C)c2cccc([N+](=O)[O-])c12 (optimized conformer: 104.96479086653918 kcal/mol)

>  <smiles>  (18) 
CCN(C)CCOCCOCCNc1c2ccccc2[n+](C)c2cccc([N+](=O)[O-])c12

>  <score_type>  (18) 
oracle

>  <origin>  (18) 
adg

>  <m_score__min__energy>  (18) 
-5.0199999999999996

>  <m_primary>  (18) 
energy

$$$$
18:0
     RDKit          3D

 44 45  0  0  0  0  0  0  0  0999 V2000
   56.5460   23.2450   48.2460 C   0  0  0  0  0  0  0  0  0  0  0  0
   56.1520   24.0530   47.1430 O   0  0  0  0  0  0  0  0  0  0  0  0
   56.8600   25.1670   46.6640 C   0  0  0  0  0  0  0  0  0  0  0  0
   58.2640   25.2250   46.7650 C   0  0  0  0  0  0  0  0  0  0  0  0
   58.9700   26.3360   46.2970 C   0  0  0  0  0  0  0  0  0  0  0  0
   60.3650   26.4080   46.4160 C   0  0  0  0  0  0  0  0  0  0  0  0
   61.0450   27.5400   45.9640 C   0  0  0  0  0  0  0  0  0  0  0  0
   60.3220   28.5920   45.3990 C   0  0  0  0  0  0  0  0  0  0  0  0
   58.9700   28.5060   45.2870 N   0  0  0  0  0  0  0  0  0  0  0  0
   58.2770   27.4120   45.7080 C   0  0  0  0  0  0  0  0  0  0  0  0
   56.8780   27.3620   45.5820 C   0  0  0  0  0  0  0  0  0  0  0  0
   56.1650   28.4560   44.9820 N   0  0  0  0  0  0  0  0  0  0  0  0
   56.5920   29.0140   43.6980 C   0  0  0  0  0  0  0  0  0  0  0  0
   56.3000   30.5200   43.6290 C   0  0  0  0  0  0  0  0  0  0  0  0
   57.4990   31.3920   44.0870 C   0  0  0  0  0  0  0  0  0  0  0  0
   57.4250   31.8690   45.4860 N   0  0  0  0  0  0  0  0  0  0  0  0
   58.6200   31.5400   46.2760 C   0  0  0  0  0  0  0  0  0  0  0  0
   57.0860   33.2980   45.5920 C   0  0  0  0  0  0  0  0  0  0  0  0
   56.1600   26.2500   46.0680 C   0  0  0  0  0  0  0  0  0  0  0  0
   54.7600   26.2810   45.9160 O   0  0  0  0  0  0  0  0  0  0  0  0
   53.9120   25.1810   45.6030 C   0  0  0  0  0  0  0  0  0  0  0  0
   56.2952   23.7594   49.1854 H   0  0  0  0  0  0  0  0  0  0  0  0
   56.0164   22.2818   48.2026 H   0  0  0  0  0  0  0  0  0  0  0  0
   57.6310   23.0691   48.2026 H   0  0  0  0  0  0  0  0  0  0  0  0
   58.8111   24.3851   47.2180 H   0  0  0  0  0  0  0  0  0  0  0  0
   60.9231   25.5732   46.8651 H   0  0  0  0  0  0  0  0  0  0  0  0
   62.1397   27.6025   46.0521 H   0  0  0  0  0  0  0  0  0  0  0  0
   60.8467   29.4913   45.0441 H   0  0  0  0  0  0  0  0  0  0  0  0
   55.1560   28.5670   45.2350 H   0  0  0  0  0  0  0  0  0  0  0  0
   57.6731   28.8511   43.5765 H   0  0  0  0  0  0  0  0  0  0  0  0
   56.0342   28.5113   42.8942 H   0  0  0  0  0  0  0  0  0  0  0  0
   56.0531   30.7819   42.5896 H   0  0  0  0  0  0  0  0  0  0  0  0
   55.4639   30.7246   44.3139 H   0  0  0  0  0  0  0  0  0  0  0  0
   58.4167   30.7954   43.9776 H   0  0  0  0  0  0  0  0  0  0  0  0
   57.4857   32.2913   43.4537 H   0  0  0  0  0  0  0  0  0  0  0  0
   58.3807   31.6059   47.3476 H   0  0  0  0  0  0  0  0  0  0  0  0
   58.9484   30.5180   46.0358 H   0  0  0  0  0  0  0  0  0  0  0  0
   59.4252   32.2499   46.0358 H   0  0  0  0  0  0  0  0  0  0  0  0
   57.0188   33.5812   46.6528 H   0  0  0  0  0  0  0  0  0  0  0  0
   57.8669   33.8975   45.1012 H   0  0  0  0  0  0  0  0  0  0  0  0
   56.1191   33.4828   45.1012 H   0  0  0  0  0  0  0  0  0  0  0  0
   53.5544   24.7171   46.5341 H   0  0  0  0  0  0  0  0  0  0  0  0
   53.0519   25.5364   45.0165 H   0  0  0  0  0  0  0  0  0  0  0  0
   54.4745   24.4396   45.0165 H   0  0  0  0  0  0  0  0  0  0  0  0
  1  2  1  0
  2  3  1  0
  3  4  2  0
  4  5  1  0
  5  6  2  0
  6  7  1  0
  7  8  2  0
  8  9  1  0
  9 10  2  0
 10 11  1  0
 11 12  1  0
 12 13  1  0
 13 14  1  0
 14 15  1  0
 15 16  1  0
 16 17  1  0
 16 18  1  0
 11 19  2  0
 19 20  1  0
 20 21  1  0
 19  3  1  0
 10  5  1  0
  1 22  1  0
  1 23  1  0
  1 24  1  0
  4 25  1  0
  6 26  1  0
  7 27  1  0
  8 28  1  0
 12 29  1  0
 13 30  1  0
 13 31  1  0
 14 32  1  0
 14 33  1  0
 15 34  1  0
 15 35  1  0
 17 36  1  0
 17 37  1  0
 17 38  1  0
 18 39  1  0
 18 40  1  0
 18 41  1  0
 21 42  1  0
 21 43  1  0
 21 44  1  0
M  END
>  <UniqueID>  (19) 
18

>  <SMILES>  (19) 
COc1cc2cccnc2c(NCCCN(C)C)c1OC

>  <Energy>  (19) 
55.38617857995473

>  <Genealogy>  (19) 
COc1cc2cccnc2c(NCCCN(C)C)c1OC (3D coordinates assigned)
COc1cc2cccnc2c(NCCCN(C)C)c1OC (optimized conformer: 55.38617857995473 kcal/mol)

>  <smiles>  (19) 
COc1cc2cccnc2c(NCCCN(C)C)c1OC

>  <score_type>  (19) 
oracle

>  <origin>  (19) 
adg

>  <m_score__min__energy>  (19) 
-6.1399999999999997

>  <m_primary>  (19) 
energy

$$$$
19:0
     RDKit          3D

 55 56  0  0  0  0  0  0  0  0999 V2000
   60.7460   30.6380   48.5610 C   0  0  0  0  0  0  0  0  0  0  0  0
   59.4920   30.7280   47.7050 C   0  0  0  0  0  0  0  0  0  0  0  0
   59.8620   30.7400   46.3420 O   0  0  0  0  0  0  0  0  0  0  0  0
   60.7600   29.6870   46.0500 C   0  0  0  0  0  0  0  0  0  0  0  0
   60.2420   28.8460   44.8800 C   0  0  0  0  0  0  0  0  0  0  0  0
   59.0080   28.2400   45.2340 O   0  0  0  0  0  0  0  0  0  0  0  0
   57.9440   28.6820   44.4080 C   0  0  0  0  0  0  0  0  0  0  0  0
   56.6750   29.0210   45.2170 C   0  0  0  0  0  0  0  0  0  0  0  0
   55.8570   30.0300   44.5260 N   0  0  0  0  0  0  0  0  0  0  0  0
   56.6500   30.9180   43.6580 C   0  0  0  0  0  0  0  0  0  0  0  0
   57.6900   31.7680   44.4540 C   0  0  1  0  0  0  0  0  0  0  0  0
   58.4580   32.7440   43.5340 C   0  0  0  0  0  0  0  0  0  0  0  0
   59.2030   33.8520   44.3120 C   0  0  0  0  0  0  0  0  0  0  0  0
   59.3720   33.5160   45.7430 N   0  0  1  0  0  0  0  0  0  0  0  0
   60.2550   34.4880   46.3670 C   0  0  0  0  0  0  0  0  0  0  0  0
   60.0160   35.7180   46.2260 O   0  0  0  0  0  0  0  0  0  0  0  0
   61.4220   34.1130   47.1870 C   0  0  0  0  0  0  0  0  0  0  0  0
   62.6360   33.7540   46.5810 C   0  0  0  0  0  0  0  0  0  0  0  0
   63.7340   33.3920   47.3660 C   0  0  0  0  0  0  0  0  0  0  0  0
   63.6180   33.3550   48.7630 C   0  0  0  0  0  0  0  0  0  0  0  0
   64.9980   32.8310   49.7140 Cl  0  0  0  0  0  0  0  0  0  0  0  0
   62.4110   33.7370   49.3760 C   0  0  0  0  0  0  0  0  0  0  0  0
   62.2280   33.7240   51.1260 Cl  0  0  0  0  0  0  0  0  0  0  0  0
   61.3280   34.1340   48.5850 C   0  0  0  0  0  0  0  0  0  0  0  0
   58.0430   33.4110   46.4000 C   0  0  0  0  0  0  0  0  0  0  0  0
   57.0280   32.5480   45.6040 C   0  0  0  0  0  0  0  0  0  0  0  0
   60.4661   30.6581   49.6246 H   0  0  0  0  0  0  0  0  0  0  0  0
   61.2751   29.6996   48.3387 H   0  0  0  0  0  0  0  0  0  0  0  0
   61.4037   31.4913   48.3387 H   0  0  0  0  0  0  0  0  0  0  0  0
   58.8473   29.8592   47.9039 H   0  0  0  0  0  0  0  0  0  0  0  0
   58.9432   31.6499   47.9479 H   0  0  0  0  0  0  0  0  0  0  0  0
   61.7399   30.1106   45.7848 H   0  0  0  0  0  0  0  0  0  0  0  0
   60.8515   29.0427   46.9368 H   0  0  0  0  0  0  0  0  0  0  0  0
   60.0931   29.4928   44.0028 H   0  0  0  0  0  0  0  0  0  0  0  0
   60.9767   28.0627   44.6418 H   0  0  0  0  0  0  0  0  0  0  0  0
   58.2682   29.5822   43.8653 H   0  0  0  0  0  0  0  0  0  0  0  0
   57.6932   27.8639   43.7167 H   0  0  0  0  0  0  0  0  0  0  0  0
   56.0792   28.1059   45.3500 H   0  0  0  0  0  0  0  0  0  0  0  0
   56.9818   29.4292   46.1913 H   0  0  0  0  0  0  0  0  0  0  0  0
   55.3470   30.6070   45.2350 H   0  0  0  0  0  0  0  0  0  0  0  0
   57.1882   30.3021   42.9225 H   0  0  0  0  0  0  0  0  0  0  0  0
   55.9528   31.6163   43.1719 H   0  0  0  0  0  0  0  0  0  0  0  0
   58.4093   31.0552   44.8836 H   0  0  0  0  0  0  0  0  0  0  0  0
   57.7392   33.2193   42.8503 H   0  0  0  0  0  0  0  0  0  0  0  0
   59.2153   32.1574   42.9933 H   0  0  0  0  0  0  0  0  0  0  0  0
   58.6286   34.7868   44.2335 H   0  0  0  0  0  0  0  0  0  0  0  0
   60.2049   33.9581   43.8704 H   0  0  0  0  0  0  0  0  0  0  0  0
   59.8550   32.5900   45.8180 H   0  0  0  0  0  0  0  0  0  0  0  0
   62.7235   33.7576   45.4845 H   0  0  0  0  0  0  0  0  0  0  0  0
   64.6907   33.1357   46.8874 H   0  0  0  0  0  0  0  0  0  0  0  0
   60.3949   34.4654   49.0641 H   0  0  0  0  0  0  0  0  0  0  0  0
   57.6280   34.4236   46.5110 H   0  0  0  0  0  0  0  0  0  0  0  0
   58.1987   32.9166   47.3702 H   0  0  0  0  0  0  0  0  0  0  0  0
   56.2566   33.2096   45.1831 H   0  0  0  0  0  0  0  0  0  0  0  0
   56.5961   31.8138   46.3000 H   0  0  0  0  0  0  0  0  0  0  0  0
  1  2  1  0
  2  3  1  0
  3  4  1  0
  4  5  1  0
  5  6  1  0
  6  7  1  0
  7  8  1  0
  8  9  1  0
  9 10  1  0
 10 11  1  0
 11 12  1  0
 12 13  1  0
 13 14  1  0
 14 15  1  0
 15 16  2  0
 15 17  1  0
 17 18  2  0
 18 19  1  0
 19 20  2  0
 20 21  1  0
 20 22  1  0
 22 23  1  0
 22 24  2  0
 14 25  1  0
 25 26  1  0
 26 11  1  0
 24 17  1  0
  1 27  1  0
  1 28  1  0
  1 29  1  0
  2 30  1  0
  2 31  1  0
  4 32  1  0
  4 33  1  0
  5 34  1  0
  5 35  1  0
  7 36  1  0
  7 37  1  0
  8 38  1  0
  8 39  1  0
  9 40  1  0
 10 41  1  0
 10 42  1  0
 11 43  1  1
 12 44  1  0
 12 45  1  0
 13 46  1  0
 13 47  1  0
 14 48  1  6
 18 49  1  0
 19 50  1  0
 24 51  1  0
 25 52  1  0
 25 53  1  0
 26 54  1  0
 26 55  1  0
M  CHG  1  14   1
M  END
>  <UniqueID>  (20) 
19

>  <SMILES>  (20) 
CCOCCOCCNCC1CC[NH+](C(=O)c2ccc(Cl)c(Cl)c2)CC1

>  <Energy>  (20) 
78.24244994295238

>  <Genealogy>  (20) 
CCOCCOCCNCC1CC[NH+](C(=O)c2ccc(Cl)c(Cl)c2)CC1 (protonated)
CCOCCOCCNCC1CC[NH+](C(=O)c2ccc(Cl)c(Cl)c2)CC1 (3D coordinates assigned)
CCOCCOCCNCC1CC[NH+](C(=O)c2ccc(Cl)c(Cl)c2)CC1 (nonaromatic ring conformer: 78.24244994295238 kcal/mol)

>  <smiles>  (20) 
CCOCCOCCNCC1CCN(C(=O)c2ccc(Cl)c(Cl)c2)CC1

>  <score_type>  (20) 
oracle

>  <origin>  (20) 
adg

>  <m_score__min__energy>  (20) 
-6.8799999999999999

>  <m_primary>  (20) 
energy

$$$$
20:0
     RDKit          3D

 48 49  0  0  0  0  0  0  0  0999 V2000
   59.5860   28.9640   45.2500 C   0  0  0  0  0  0  0  0  0  0  0  0
   60.3810   29.9750   46.0750 C   0  0  0  0  0  0  0  0  0  0  0  0
   60.3270   29.6750   47.5250 N   0  0  0  0  0  0  0  0  0  0  0  0
   58.9370   29.8270   48.0160 C   0  0  0  0  0  0  0  0  0  0  0  0
   58.8980   30.6660   49.2920 C   0  0  0  0  0  0  0  0  0  0  0  0
   61.2720   30.5200   48.3040 C   0  0  0  0  0  0  0  0  0  0  0  0
   62.1440   31.3660   47.3680 C   0  0  0  0  0  0  0  0  0  0  0  0
   61.8030   32.7370   47.4750 O   0  0  0  0  0  0  0  0  0  0  0  0
   62.4100   33.3140   48.6120 C   0  0  0  0  0  0  0  0  0  0  0  0
   61.5650   34.4910   49.0920 C   0  0  0  0  0  0  0  0  0  0  0  0
   60.0790   34.1160   49.1890 C   0  0  0  0  0  0  0  0  0  0  0  0
   59.3310   34.7410   48.1430 O   0  0  0  0  0  0  0  0  0  0  0  0
   58.9690   34.1220   46.9330 C   0  0  0  0  0  0  0  0  0  0  0  0
   59.4620   34.6640   45.7350 C   0  0  0  0  0  0  0  0  0  0  0  0
   59.1450   34.0810   44.5030 C   0  0  0  0  0  0  0  0  0  0  0  0
   58.3270   32.9430   44.4570 C   0  0  0  0  0  0  0  0  0  0  0  0
   57.9930   32.3270   43.2460 C   0  0  0  0  0  0  0  0  0  0  0  0
   57.1730   31.1960   43.2550 C   0  0  0  0  0  0  0  0  0  0  0  0
   56.7100   30.7040   44.4830 C   0  0  0  0  0  0  0  0  0  0  0  0
   55.9660   29.6860   44.5120 O   0  0  0  0  0  0  0  0  0  0  0  0
   57.0440   31.3090   45.6210 O   0  0  0  0  0  0  0  0  0  0  0  0
   57.8210   32.3910   45.6560 C   0  0  0  0  0  0  0  0  0  0  0  0
   58.1360   32.9830   46.8840 C   0  0  0  0  0  0  0  0  0  0  0  0
   59.0491   28.2812   45.9250 H   0  0  0  0  0  0  0  0  0  0  0  0
   58.8623   29.4966   44.6156 H   0  0  0  0  0  0  0  0  0  0  0  0
   60.2743   28.3863   44.6156 H   0  0  0  0  0  0  0  0  0  0  0  0
   61.4307   29.9536   45.7470 H   0  0  0  0  0  0  0  0  0  0  0  0
   59.9343   30.9677   45.9171 H   0  0  0  0  0  0  0  0  0  0  0  0
   58.3334   30.3220   47.2410 H   0  0  0  0  0  0  0  0  0  0  0  0
   58.5321   28.8289   48.2393 H   0  0  0  0  0  0  0  0  0  0  0  0
   58.9289   30.0020   50.1685 H   0  0  0  0  0  0  0  0  0  0  0  0
   59.7657   31.3418   49.3132 H   0  0  0  0  0  0  0  0  0  0  0  0
   57.9713   31.2583   49.3132 H   0  0  0  0  0  0  0  0  0  0  0  0
   60.6988   31.1874   48.9643 H   0  0  0  0  0  0  0  0  0  0  0  0
   61.9254   29.8634   48.8973 H   0  0  0  0  0  0  0  0  0  0  0  0
   63.2014   31.2338   47.6408 H   0  0  0  0  0  0  0  0  0  0  0  0
   61.9753   31.0377   46.3318 H   0  0  0  0  0  0  0  0  0  0  0  0
   62.4812   32.5623   49.4119 H   0  0  0  0  0  0  0  0  0  0  0  0
   63.4191   33.6664   48.3522 H   0  0  0  0  0  0  0  0  0  0  0  0
   61.9199   34.8041   50.0850 H   0  0  0  0  0  0  0  0  0  0  0  0
   61.6672   35.3085   48.3632 H   0  0  0  0  0  0  0  0  0  0  0  0
   59.9758   33.0242   49.1041 H   0  0  0  0  0  0  0  0  0  0  0  0
   59.6894   34.4618   50.1578 H   0  0  0  0  0  0  0  0  0  0  0  0
   60.1043   35.5565   45.7654 H   0  0  0  0  0  0  0  0  0  0  0  0
   59.5372   34.5151   43.5714 H   0  0  0  0  0  0  0  0  0  0  0  0
   58.3727   32.7296   42.2953 H   0  0  0  0  0  0  0  0  0  0  0  0
   56.8952   30.6996   42.3135 H   0  0  0  0  0  0  0  0  0  0  0  0
   57.7328   32.5591   47.8155 H   0  0  0  0  0  0  0  0  0  0  0  0
  1  2  1  0
  2  3  1  0
  3  4  1  0
  4  5  1  0
  3  6  1  0
  6  7  1  0
  7  8  1  0
  8  9  1  0
  9 10  1  0
 10 11  1  0
 11 12  1  0
 12 13  1  0
 13 14  2  0
 14 15  1  0
 15 16  2  0
 16 17  1  0
 17 18  2  0
 18 19  1  0
 19 20  2  0
 19 21  1  0
 21 22  1  0
 22 23  2  0
 23 13  1  0
 22 16  1  0
  1 24  1  0
  1 25  1  0
  1 26  1  0
  2 27  1  0
  2 28  1  0
  4 29  1  0
  4 30  1  0
  5 31  1  0
  5 32  1  0
  5 33  1  0
  6 34  1  0
  6 35  1  0
  7 36  1  0
  7 37  1  0
  9 38  1  0
  9 39  1  0
 10 40  1  0
 10 41  1  0
 11 42  1  0
 11 43  1  0
 14 44  1  0
 15 45  1  0
 17 46  1  0
 18 47  1  0
 23 48  1  0
M  END
>  <UniqueID>  (21) 
20

>  <SMILES>  (21) 
CCN(CC)CCOCCCOc1ccc2ccc(=O)oc2c1

>  <Energy>  (21) 
47.130332799828736

>  <Genealogy>  (21) 
CCN(CC)CCOCCCOc1ccc2ccc(=O)oc2c1 (3D coordinates assigned)
CCN(CC)CCOCCCOc1ccc2ccc(=O)oc2c1 (optimized conformer: 47.130332799828736 kcal/mol)

>  <smiles>  (21) 
CCN(CC)CCOCCCOc1ccc2ccc(=O)oc2c1

>  <score_type>  (21) 
oracle

>  <origin>  (21) 
adg

>  <m_score__min__energy>  (21) 
-6.5999999999999996

>  <m_primary>  (21) 
energy

$$$$
21:0
     RDKit          3D

 42 42  0  0  0  0  0  0  0  0999 V2000
   56.2670   29.6670   42.6320 C   0  0  0  0  0  0  0  0  0  0  0  0
   55.8260   29.8980   44.0760 C   0  0  0  0  0  0  0  0  0  0  0  0
   56.8350   30.6690   44.8370 N   0  0  0  0  0  0  0  0  0  0  0  0
   57.8020   29.8640   45.6200 C   0  0  0  0  0  0  0  0  0  0  0  0
   59.1760   29.7080   44.9620 C   0  0  0  0  0  0  0  0  0  0  0  0
   57.4300   31.8190   44.1120 C   0  0  0  0  0  0  0  0  0  0  0  0
   57.5420   33.1200   44.9360 C   0  0  0  0  0  0  0  0  0  0  0  0
   58.3430   32.8940   46.0790 O   0  0  0  0  0  0  0  0  0  0  0  0
   58.0280   33.8460   47.0750 C   0  0  0  0  0  0  0  0  0  0  0  0
   59.2680   34.6830   47.4000 C   0  0  0  0  0  0  0  0  0  0  0  0
   60.3840   34.5470   46.3500 C   0  0  0  0  0  0  0  0  0  0  0  0
   61.4320   33.5450   46.7640 C   0  0  0  0  0  0  0  0  0  0  0  0
   61.0560   32.2530   47.1710 C   0  0  0  0  0  0  0  0  0  0  0  0
   62.0290   31.3180   47.5350 C   0  0  0  0  0  0  0  0  0  0  0  0
   63.3830   31.6630   47.4970 C   0  0  0  0  0  0  0  0  0  0  0  0
   63.7650   32.9450   47.0950 C   0  0  0  0  0  0  0  0  0  0  0  0
   62.7950   33.8840   46.7310 C   0  0  0  0  0  0  0  0  0  0  0  0
   57.2414   29.1566   42.6234 H   0  0  0  0  0  0  0  0  0  0  0  0
   55.5219   29.0434   42.1163 H   0  0  0  0  0  0  0  0  0  0  0  0
   56.3554   30.6346   42.1163 H   0  0  0  0  0  0  0  0  0  0  0  0
   54.8774   30.4550   44.0748 H   0  0  0  0  0  0  0  0  0  0  0  0
   55.7052   28.9176   44.5600 H   0  0  0  0  0  0  0  0  0  0  0  0
   57.9418   30.3494   46.5971 H   0  0  0  0  0  0  0  0  0  0  0  0
   57.3761   28.8530   45.6999 H   0  0  0  0  0  0  0  0  0  0  0  0
   59.9477   29.6204   45.7409 H   0  0  0  0  0  0  0  0  0  0  0  0
   59.1823   28.8034   44.3362 H   0  0  0  0  0  0  0  0  0  0  0  0
   59.3849   30.5882   44.3362 H   0  0  0  0  0  0  0  0  0  0  0  0
   58.4411   31.5321   43.7875 H   0  0  0  0  0  0  0  0  0  0  0  0
   56.7507   32.0412   43.2758 H   0  0  0  0  0  0  0  0  0  0  0  0
   58.0008   33.9057   44.3178 H   0  0  0  0  0  0  0  0  0  0  0  0
   56.5376   33.4376   45.2527 H   0  0  0  0  0  0  0  0  0  0  0  0
   57.2271   34.5057   46.7099 H   0  0  0  0  0  0  0  0  0  0  0  0
   57.6921   33.3248   47.9836 H   0  0  0  0  0  0  0  0  0  0  0  0
   58.9704   35.7403   47.4587 H   0  0  0  0  0  0  0  0  0  0  0  0
   59.6707   34.3131   48.3545 H   0  0  0  0  0  0  0  0  0  0  0  0
   59.9382   34.2217   45.3985 H   0  0  0  0  0  0  0  0  0  0  0  0
   60.8735   35.5266   46.2465 H   0  0  0  0  0  0  0  0  0  0  0  0
   59.9917   31.9768   47.2031 H   0  0  0  0  0  0  0  0  0  0  0  0
   61.7286   30.3084   47.8521 H   0  0  0  0  0  0  0  0  0  0  0  0
   64.1472   30.9254   47.7835 H   0  0  0  0  0  0  0  0  0  0  0  0
   64.8306   33.2163   47.0647 H   0  0  0  0  0  0  0  0  0  0  0  0
   63.1006   34.8931   46.4173 H   0  0  0  0  0  0  0  0  0  0  0  0
  1  2  1  0
  2  3  1  0
  3  4  1  0
  4  5  1  0
  3  6  1  0
  6  7  1  0
  7  8  1  0
  8  9  1  0
  9 10  1  0
 10 11  1  0
 11 12  1  0
 12 13  2  0
 13 14  1  0
 14 15  2  0
 15 16  1  0
 16 17  2  0
 17 12  1  0
  1 18  1  0
  1 19  1  0
  1 20  1  0
  2 21  1  0
  2 22  1  0
  4 23  1  0
  4 24  1  0
  5 25  1  0
  5 26  1  0
  5 27  1  0
  6 28  1  0
  6 29  1  0
  7 30  1  0
  7 31  1  0
  9 32  1  0
  9 33  1  0
 10 34  1  0
 10 35  1  0
 11 36  1  0
 11 37  1  0
 13 38  1  0
 14 39  1  0
 15 40  1  0
 16 41  1  0
 17 42  1  0
M  END
>  <UniqueID>  (22) 
21

>  <SMILES>  (22) 
CCN(CC)CCOCCCc1ccccc1

>  <Energy>  (22) 
40.363072346070425

>  <Genealogy>  (22) 
CCN(CC)CCOCCCc1ccccc1 (3D coordinates assigned)
CCN(CC)CCOCCCc1ccccc1 (optimized conformer: 40.363072346070425 kcal/mol)

>  <smiles>  (22) 
CCN(CC)CCOCCCc1ccccc1

>  <score_type>  (22) 
oracle

>  <origin>  (22) 
adg

>  <m_score__min__energy>  (22) 
-5.8600000000000003

>  <m_primary>  (22) 
energy

$$$$
22:0
     RDKit          3D

 48 50  0  0  0  0  0  0  0  0999 V2000
   64.2710   33.8700   51.1570 C   0  0  0  0  0  0  0  0  0  0  0  0
   64.7990   32.4510   50.9280 C   0  0  0  0  0  0  0  0  0  0  0  0
   66.3070   32.4740   50.6610 C   0  0  0  0  0  0  0  0  0  0  0  0
   64.1030   31.8280   49.7980 N   0  0  0  0  0  0  0  0  0  0  0  0
   64.0610   32.4340   48.4990 C   0  0  0  0  0  0  0  0  0  0  0  0
   64.8240   33.3970   48.2190 O   0  0  0  0  0  0  0  0  0  0  0  0
   63.0610   31.9660   47.4870 C   0  0  0  0  0  0  0  0  0  0  0  0
   61.7430   32.6600   47.7270 C   0  0  0  0  0  0  0  0  0  0  0  0
   61.1470   33.3870   46.6920 C   0  0  0  0  0  0  0  0  0  0  0  0
   59.8780   33.9220   46.8790 C   0  0  0  0  0  0  0  0  0  0  0  0
   59.0480   34.7860   45.5500 S   0  0  0  0  0  0  0  0  0  0  0  0
   58.3670   33.2660   44.8840 C   0  0  0  0  0  0  0  0  0  0  0  0
   58.2790   33.0870   43.4970 C   0  0  0  0  0  0  0  0  0  0  0  0
   57.7570   31.8980   42.9760 C   0  0  0  0  0  0  0  0  0  0  0  0
   57.3360   30.8810   43.8400 C   0  0  0  0  0  0  0  0  0  0  0  0
   56.7060   29.3810   43.1840 Cl  0  0  0  0  0  0  0  0  0  0  0  0
   57.4230   31.0590   45.2240 C   0  0  0  0  0  0  0  0  0  0  0  0
   57.9330   32.2520   45.7470 C   0  0  0  0  0  0  0  0  0  0  0  0
   59.2470   33.7500   48.0670 N   0  0  0  0  0  0  0  0  0  0  0  0
   59.8010   33.0760   49.0790 N   0  0  0  0  0  0  0  0  0  0  0  0
   59.0400   32.9410   50.2950 C   0  0  0  0  0  0  0  0  0  0  0  0
   58.1030   31.9020   50.4500 C   0  0  0  0  0  0  0  0  0  0  0  0
   57.3880   31.7700   51.6430 C   0  0  0  0  0  0  0  0  0  0  0  0
   57.6070   32.6650   52.6940 C   0  0  0  0  0  0  0  0  0  0  0  0
   58.5460   33.6900   52.5550 C   0  0  0  0  0  0  0  0  0  0  0  0
   59.2640   33.8250   51.3630 C   0  0  0  0  0  0  0  0  0  0  0  0
   61.0360   32.4970   48.9310 C   0  0  0  0  0  0  0  0  0  0  0  0
   61.5290   31.7940   49.8580 O   0  0  0  0  0  0  0  0  0  0  0  0
   64.1987   34.0644   52.2373 H   0  0  0  0  0  0  0  0  0  0  0  0
   64.9593   34.5957   50.6991 H   0  0  0  0  0  0  0  0  0  0  0  0
   63.2758   33.9693   50.6991 H   0  0  0  0  0  0  0  0  0  0  0  0
   64.6105   31.8607   51.8368 H   0  0  0  0  0  0  0  0  0  0  0  0
   66.8488   32.4823   51.6183 H   0  0  0  0  0  0  0  0  0  0  0  0
   66.5913   31.5801   50.0865 H   0  0  0  0  0  0  0  0  0  0  0  0
   66.5639   33.3762   50.0865 H   0  0  0  0  0  0  0  0  0  0  0  0
   63.5490   30.9550   49.9560 H   0  0  0  0  0  0  0  0  0  0  0  0
   63.4227   32.2047   46.4760 H   0  0  0  0  0  0  0  0  0  0  0  0
   62.9258   30.8783   47.5797 H   0  0  0  0  0  0  0  0  0  0  0  0
   61.6771   33.5340   45.7394 H   0  0  0  0  0  0  0  0  0  0  0  0
   58.6205   33.8817   42.8174 H   0  0  0  0  0  0  0  0  0  0  0  0
   57.6776   31.7627   41.8872 H   0  0  0  0  0  0  0  0  0  0  0  0
   57.0900   30.2599   45.9026 H   0  0  0  0  0  0  0  0  0  0  0  0
   57.9931   32.3937   46.8362 H   0  0  0  0  0  0  0  0  0  0  0  0
   57.9330   31.1909   49.6282 H   0  0  0  0  0  0  0  0  0  0  0  0
   56.6517   30.9606   51.7553 H   0  0  0  0  0  0  0  0  0  0  0  0
   57.0398   32.5623   53.6309 H   0  0  0  0  0  0  0  0  0  0  0  0
   58.7206   34.3915   53.3841 H   0  0  0  0  0  0  0  0  0  0  0  0
   60.0086   34.6282   51.2611 H   0  0  0  0  0  0  0  0  0  0  0  0
  1  2  1  0
  2  3  1  0
  2  4  1  0
  4  5  1  0
  5  6  2  0
  5  7  1  0
  7  8  1  0
  8  9  2  0
  9 10  1  0
 10 11  1  0
 11 12  1  0
 12 13  2  0
 13 14  1  0
 14 15  2  0
 15 16  1  0
 15 17  1  0
 17 18  2  0
 10 19  2  0
 19 20  1  0
 20 21  1  0
 21 22  2  0
 22 23  1  0
 23 24  2  0
 24 25  1  0
 25 26  2  0
 20 27  1  0
 27 28  2  0
 27  8  1  0
 18 12  1  0
 26 21  1  0
  1 29  1  0
  1 30  1  0
  1 31  1  0
  2 32  1  0
  3 33  1  0
  3 34  1  0
  3 35  1  0
  4 36  1  0
  7 37  1  0
  7 38  1  0
  9 39  1  0
 13 40  1  0
 14 41  1  0
 17 42  1  0
 18 43  1  0
 22 44  1  0
 23 45  1  0
 24 46  1  0
 25 47  1  0
 26 48  1  0
M  END
>  <UniqueID>  (23) 
22

>  <SMILES>  (23) 
CC(C)NC(=O)Cc1cc(Sc2ccc(Cl)cc2)nn(-c2ccccc2)c1=O

>  <Energy>  (23) 
42.7040856852377

>  <Genealogy>  (23) 
CC(C)NC(=O)Cc1cc(Sc2ccc(Cl)cc2)nn(-c2ccccc2)c1=O (3D coordinates assigned)
CC(C)NC(=O)Cc1cc(Sc2ccc(Cl)cc2)nn(-c2ccccc2)c1=O (optimized conformer: 42.7040856852377 kcal/mol)

>  <smiles>  (23) 
CC(C)NC(=O)Cc1cc(Sc2ccc(Cl)cc2)nn(-c2ccccc2)c1=O

>  <score_type>  (23) 
oracle

>  <origin>  (23) 
adg

>  <m_score__min__energy>  (23) 
-8.5399999999999991

>  <m_primary>  (23) 
energy

$$$$
23:0
     RDKit          3D

 46 47  0  0  0  0  0  0  0  0999 V2000
   56.2700   29.7360   42.8070 C   0  0  0  0  0  0  0  0  0  0  0  0
   57.2690   29.3450   43.8620 C   0  0  0  0  0  0  0  0  0  0  0  0
   57.8720   28.0790   43.8210 C   0  0  0  0  0  0  0  0  0  0  0  0
   58.8000   27.7050   44.7940 C   0  0  0  0  0  0  0  0  0  0  0  0
   59.1480   28.5920   45.8250 C   0  0  0  0  0  0  0  0  0  0  0  0
   60.1270   28.1500   46.9000 C   0  0  0  0  0  0  0  0  0  0  0  0
   59.6540   28.5760   48.2960 C   0  0  0  0  0  0  0  0  0  0  0  0
   60.3720   26.6380   46.8320 C   0  0  0  0  0  0  0  0  0  0  0  0
   58.5540   29.8690   45.8600 C   0  0  0  0  0  0  0  0  0  0  0  0
   57.6180   30.2580   44.8780 C   0  0  0  0  0  0  0  0  0  0  0  0
   56.9970   31.5210   44.8790 O   0  0  0  0  0  0  0  0  0  0  0  0
   57.5710   32.7660   44.4740 C   0  0  0  0  0  0  0  0  0  0  0  0
   57.0600   33.9230   45.3430 C   0  0  0  0  0  0  0  0  0  0  0  0
   57.9910   34.2230   46.4580 N   0  0  0  0  0  0  0  0  0  0  0  0
   58.1370   33.0420   47.3500 C   0  0  0  0  0  0  0  0  0  0  0  0
   59.3440   33.1760   48.2850 C   0  0  0  0  0  0  0  0  0  0  0  0
   60.6600   33.2840   47.4940 C   0  0  0  0  0  0  0  0  0  0  0  0
   60.4520   33.8020   46.0610 C   0  0  0  0  0  0  0  0  0  0  0  0
   59.2850   34.7990   45.9900 C   0  0  0  0  0  0  0  0  0  0  0  0
   55.3494   30.0963   43.2893 H   0  0  0  0  0  0  0  0  0  0  0  0
   56.6925   30.5351   42.1802 H   0  0  0  0  0  0  0  0  0  0  0  0
   56.0378   28.8624   42.1802 H   0  0  0  0  0  0  0  0  0  0  0  0
   57.6115   27.3760   43.0161 H   0  0  0  0  0  0  0  0  0  0  0  0
   59.2622   26.7077   44.7527 H   0  0  0  0  0  0  0  0  0  0  0  0
   61.0854   28.6549   46.7088 H   0  0  0  0  0  0  0  0  0  0  0  0
   60.2421   28.0463   49.0599 H   0  0  0  0  0  0  0  0  0  0  0  0
   59.7914   29.6609   48.4145 H   0  0  0  0  0  0  0  0  0  0  0  0
   58.5893   28.3262   48.4145 H   0  0  0  0  0  0  0  0  0  0  0  0
   60.4379   26.2310   47.8518 H   0  0  0  0  0  0  0  0  0  0  0  0
   59.5403   26.1555   46.2977 H   0  0  0  0  0  0  0  0  0  0  0  0
   61.3135   26.4428   46.2977 H   0  0  0  0  0  0  0  0  0  0  0  0
   58.8231   30.5715   46.6626 H   0  0  0  0  0  0  0  0  0  0  0  0
   58.6652   32.7036   44.5674 H   0  0  0  0  0  0  0  0  0  0  0  0
   57.2805   32.9599   43.4309 H   0  0  0  0  0  0  0  0  0  0  0  0
   56.9539   34.8204   44.7157 H   0  0  0  0  0  0  0  0  0  0  0  0
   56.0921   33.6272   45.7740 H   0  0  0  0  0  0  0  0  0  0  0  0
   57.2259   32.9411   47.9581 H   0  0  0  0  0  0  0  0  0  0  0  0
   58.2929   32.1553   46.7179 H   0  0  0  0  0  0  0  0  0  0  0  0
   59.2213   34.0797   48.9001 H   0  0  0  0  0  0  0  0  0  0  0  0
   59.3933   32.2767   48.9165 H   0  0  0  0  0  0  0  0  0  0  0  0
   61.3328   33.9747   48.0234 H   0  0  0  0  0  0  0  0  0  0  0  0
   61.0878   32.2731   47.4224 H   0  0  0  0  0  0  0  0  0  0  0  0
   61.3717   34.3027   45.7243 H   0  0  0  0  0  0  0  0  0  0  0  0
   60.2153   32.9448   45.4136 H   0  0  0  0  0  0  0  0  0  0  0  0
   59.5287   35.6679   46.6189 H   0  0  0  0  0  0  0  0  0  0  0  0
   59.1562   35.0769   44.9335 H   0  0  0  0  0  0  0  0  0  0  0  0
  1  2  1  0
  2  3  2  0
  3  4  1  0
  4  5  2  0
  5  6  1  0
  6  7  1  0
  6  8  1  0
  5  9  1  0
  9 10  2  0
 10 11  1  0
 11 12  1  0
 12 13  1  0
 13 14  1  0
 14 15  1  0
 15 16  1  0
 16 17  1  0
 17 18  1  0
 18 19  1  0
 10  2  1  0
 19 14  1  0
  1 20  1  0
  1 21  1  0
  1 22  1  0
  3 23  1  0
  4 24  1  0
  6 25  1  0
  7 26  1  0
  7 27  1  0
  7 28  1  0
  8 29  1  0
  8 30  1  0
  8 31  1  0
  9 32  1  0
 12 33  1  0
 12 34  1  0
 13 35  1  0
 13 36  1  0
 15 37  1  0
 15 38  1  0
 16 39  1  0
 16 40  1  0
 17 41  1  0
 17 42  1  0
 18 43  1  0
 18 44  1  0
 19 45  1  0
 19 46  1  0
M  END
>  <UniqueID>  (24) 
23

>  <SMILES>  (24) 
Cc1ccc(C(C)C)cc1OCCN1CCCCC1

>  <Energy>  (24) 
48.25294710471203

>  <Genealogy>  (24) 
Cc1ccc(C(C)C)cc1OCCN1CCCCC1 (3D coordinates assigned)
Cc1ccc(C(C)C)cc1OCCN1CCCCC1 (nonaromatic ring conformer: 48.25294710471203 kcal/mol)

>  <smiles>  (24) 
Cc1ccc(C(C)C)cc1OCCN1CCCCC1

>  <score_type>  (24) 
oracle

>  <origin>  (24) 
adg

>  <m_score__min__energy>  (24) 
-7.1399999999999997

>  <m_primary>  (24) 
energy

$$$$
