0:0
     RDKit          3D

 54 56  0  0  0  0  0  0  0  0999 V2000
   62.7740   33.4900   46.7510 C   0  0  0  0  0  0  0  0  0  0  0  0
   63.1670   32.6830   47.9930 C   0  0  0  0  0  0  0  0  0  0  0  0
   62.0180   32.4020   48.8710 N   0  0  0  0  0  0  0  0  0  0  0  0
   62.3810   31.5350   50.0040 C   0  0  0  0  0  0  0  0  0  0  0  0
   61.2650   30.5150   50.2830 C   0  0  0  0  0  0  0  0  0  0  0  0
   61.1320   29.4170   49.2110 C   0  0  0  0  0  0  0  0  0  0  0  0
   59.7420   29.2600   48.5700 C   0  0  0  0  0  0  0  0  0  0  0  0
   59.0410   30.5400   48.4020 N   0  0  0  0  0  0  0  0  0  0  0  0
   58.7020   31.0920   47.1150 C   0  0  0  0  0  0  0  0  0  0  0  0
   58.1940   30.2490   46.1080 C   0  0  0  0  0  0  0  0  0  0  0  0
   57.8360   28.9120   46.3910 C   0  0  0  0  0  0  0  0  0  0  0  0
   57.4360   28.0480   45.3750 C   0  0  0  0  0  0  0  0  0  0  0  0
   57.3810   28.5000   44.0630 C   0  0  0  0  0  0  0  0  0  0  0  0
   57.6680   29.8310   43.7690 C   0  0  0  0  0  0  0  0  0  0  0  0
   58.0250   30.7490   44.7920 C   0  0  0  0  0  0  0  0  0  0  0  0
   58.2170   32.0910   44.5300 N   0  0  0  0  0  0  0  0  0  0  0  0
   57.7770   32.6550   43.2320 C   0  0  0  0  0  0  0  0  0  0  0  0
   58.7670   32.9180   45.4920 C   0  0  0  0  0  0  0  0  0  0  0  0
   59.1960   34.2290   45.1700 C   0  0  0  0  0  0  0  0  0  0  0  0
   59.6750   35.0910   46.1460 C   0  0  0  0  0  0  0  0  0  0  0  0
   59.7510   34.6800   47.4670 C   0  0  0  0  0  0  0  0  0  0  0  0
   59.3960   33.3700   47.8310 C   0  0  0  0  0  0  0  0  0  0  0  0
   59.4890   32.9610   49.1720 O   0  0  0  0  0  0  0  0  0  0  0  0
   59.6010   33.8330   50.2930 C   0  0  0  0  0  0  0  0  0  0  0  0
   58.9430   32.4580   46.8300 C   0  0  0  0  0  0  0  0  0  0  0  0
   62.3119   34.4388   47.0613 H   0  0  0  0  0  0  0  0  0  0  0  0
   63.6715   33.6985   46.1501 H   0  0  0  0  0  0  0  0  0  0  0  0
   62.0565   32.9120   46.1501 H   0  0  0  0  0  0  0  0  0  0  0  0
   63.6049   31.7275   47.6686 H   0  0  0  0  0  0  0  0  0  0  0  0
   63.8871   33.2840   48.5676 H   0  0  0  0  0  0  0  0  0  0  0  0
   61.2470   31.9620   48.3150 H   0  0  0  0  0  0  0  0  0  0  0  0
   61.6680   33.3160   49.2470 H   0  0  0  0  0  0  0  0  0  0  0  0
   63.3106   30.9977   49.7649 H   0  0  0  0  0  0  0  0  0  0  0  0
   62.5224   32.1599   50.8981 H   0  0  0  0  0  0  0  0  0  0  0  0
   61.4732   30.0311   51.2487 H   0  0  0  0  0  0  0  0  0  0  0  0
   60.3178   31.0742   50.2825 H   0  0  0  0  0  0  0  0  0  0  0  0
   61.8486   29.6433   48.4077 H   0  0  0  0  0  0  0  0  0  0  0  0
   61.3242   28.4688   49.7345 H   0  0  0  0  0  0  0  0  0  0  0  0
   59.8624   28.7935   47.5811 H   0  0  0  0  0  0  0  0  0  0  0  0
   59.1358   28.6383   49.2454 H   0  0  0  0  0  0  0  0  0  0  0  0
   58.6140   30.9830   49.2470 H   0  0  0  0  0  0  0  0  0  0  0  0
   57.8738   28.5485   47.4285 H   0  0  0  0  0  0  0  0  0  0  0  0
   57.1639   27.0087   45.6113 H   0  0  0  0  0  0  0  0  0  0  0  0
   57.1102   27.8054   43.2542 H   0  0  0  0  0  0  0  0  0  0  0  0
   57.6172   30.1771   42.7261 H   0  0  0  0  0  0  0  0  0  0  0  0
   57.1095   33.5107   43.4114 H   0  0  0  0  0  0  0  0  0  0  0  0
   58.6556   32.9889   42.6606 H   0  0  0  0  0  0  0  0  0  0  0  0
   57.2393   31.8840   42.6606 H   0  0  0  0  0  0  0  0  0  0  0  0
   59.1484   34.5705   44.1254 H   0  0  0  0  0  0  0  0  0  0  0  0
   59.9961   36.1061   45.8696 H   0  0  0  0  0  0  0  0  0  0  0  0
   60.0925   35.3860   48.2383 H   0  0  0  0  0  0  0  0  0  0  0  0
   59.5259   33.2480   51.2215 H   0  0  0  0  0  0  0  0  0  0  0  0
   60.5726   34.3477   50.2615 H   0  0  0  0  0  0  0  0  0  0  0  0
   58.7910   34.5766   50.2615 H   0  0  0  0  0  0  0  0  0  0  0  0
  1  2  1  0
  2  3  1  0
  3  4  1  0
  4  5  1  0
  5  6  1  0
  6  7  1  0
  7  8  1  0
  8  9  1  0
  9 10  2  0
 10 11  1  0
 11 12  2  0
 12 13  1  0
 13 14  2  0
 14 15  1  0
 15 16  2  0
 16 17  1  0
 16 18  1  0
 18 19  2  0
 19 20  1  0
 20 21  2  0
 21 22  1  0
 22 23  1  0
 23 24  1  0
 22 25  2  0
 25  9  1  0
 15 10  1  0
 25 18  1  0
  1 26  1  0
  1 27  1  0
  1 28  1  0
  2 29  1  0
  2 30  1  0
  3 31  1  0
  3 32  1  0
  4 33  1  0
  4 34  1  0
  5 35  1  0
  5 36  1  0
  6 37  1  0
  6 38  1  0
  7 39  1  0
  7 40  1  0
  8 41  1  0
 11 42  1  0
 12 43  1  0
 13 44  1  0
 14 45  1  0
 17 46  1  0
 17 47  1  0
 17 48  1  0
 19 49  1  0
 20 50  1  0
 21 51  1  0
 24 52  1  0
 24 53  1  0
 24 54  1  0
M  CHG  2   3   1  16   1
M  END
>  <UniqueID>  (1) 
1

>  <SMILES>  (1) 
CC[NH2+]CCCCNc1c2ccccc2[n+](C)c2cccc(OC)c12

>  <Energy>  (1) 
76.63269193677064

>  <Genealogy>  (1) 
CC[NH2+]CCCCNc1c2ccccc2[n+](C)c2cccc(OC)c12 (protonated)
CC[NH2+]CCCCNc1c2ccccc2[n+](C)c2cccc(OC)c12 (3D coordinates assigned)
CC[NH2+]CCCCNc1c2ccccc2[n+](C)c2cccc(OC)c12 (optimized conformer: 76.63269193677064 kcal/mol)

>  <smiles>  (1) 
CCNCCCCNc1c2ccccc2[n+](C)c2cccc(OC)c12

>  <score_type>  (1) 
oracle

>  <origin>  (1) 
adg

>  <m_score__min__energy>  (1) 
-4.2800000000000002

>  <m_primary>  (1) 
energy

$$$$
1:0
     RDKit          3D

 48 51  0  0  0  0  0  0  0  0999 V2000
   62.4370   34.2120   49.7130 C   0  0  0  0  0  0  0  0  0  0  0  0
   62.5120   33.5100   48.3460 C   0  0  0  0  0  0  0  0  0  0  0  0
   61.2100   33.3520   47.6280 N   0  0  1  0  0  0  0  0  0  0  0  0
   61.2930   33.8170   46.2170 C   0  0  0  0  0  0  0  0  0  0  0  0
   59.9040   33.7300   45.5320 C   0  0  0  0  0  0  0  0  0  0  0  0
   58.8930   33.1540   46.4650 N   0  0  1  0  0  0  0  0  0  0  0  0
   57.5290   33.1040   45.8400 C   0  0  0  0  0  0  0  0  0  0  0  0
   57.3930   32.4020   44.4630 C   0  0  0  0  0  0  0  0  0  0  0  0
   56.9530   30.9710   44.5360 C   0  0  0  0  0  0  0  0  0  0  0  0
   55.6460   30.5010   44.4340 C   0  0  0  0  0  0  0  0  0  0  0  0
   55.6170   29.1550   44.5470 N   0  0  0  0  0  0  0  0  0  0  0  0
   56.8940   28.7670   44.7070 C   0  0  0  0  0  0  0  0  0  0  0  0
   57.3690   27.4640   44.8560 C   0  0  0  0  0  0  0  0  0  0  0  0
   58.7560   27.2820   44.9980 C   0  0  0  0  0  0  0  0  0  0  0  0
   59.6290   28.3920   44.9800 C   0  0  0  0  0  0  0  0  0  0  0  0
   59.1230   29.6960   44.8270 C   0  0  0  0  0  0  0  0  0  0  0  0
   57.7410   29.8470   44.7000 C   0  0  0  0  0  0  0  0  0  0  0  0
   59.3630   31.8210   46.9310 C   0  0  0  0  0  0  0  0  0  0  0  0
   60.7330   31.9410   47.6480 C   0  0  0  0  0  0  0  0  0  0  0  0
   58.8160   34.0540   47.6510 C   0  0  0  0  0  0  0  0  0  0  0  0
   60.1980   34.1890   48.3290 C   0  0  0  0  0  0  0  0  0  0  0  0
   62.5170   33.4631   50.5147 H   0  0  0  0  0  0  0  0  0  0  0  0
   63.2632   34.9328   49.8008 H   0  0  0  0  0  0  0  0  0  0  0  0
   61.4771   34.7420   49.8008 H   0  0  0  0  0  0  0  0  0  0  0  0
   63.1848   34.0950   47.7017 H   0  0  0  0  0  0  0  0  0  0  0  0
   62.8680   32.4896   48.5511 H   0  0  0  0  0  0  0  0  0  0  0  0
   61.6400   34.8607   46.1999 H   0  0  0  0  0  0  0  0  0  0  0  0
   61.9987   33.1730   45.6718 H   0  0  0  0  0  0  0  0  0  0  0  0
   59.5852   34.7391   45.2319 H   0  0  0  0  0  0  0  0  0  0  0  0
   59.9842   33.0778   44.6498 H   0  0  0  0  0  0  0  0  0  0  0  0
   56.8643   32.5805   46.5429 H   0  0  0  0  0  0  0  0  0  0  0  0
   57.2744   34.1558   45.6427 H   0  0  0  0  0  0  0  0  0  0  0  0
   56.6559   32.9581   43.8651 H   0  0  0  0  0  0  0  0  0  0  0  0
   58.3968   32.3983   44.0131 H   0  0  0  0  0  0  0  0  0  0  0  0
   54.7611   31.1367   44.2826 H   0  0  0  0  0  0  0  0  0  0  0  0
   54.7730   28.5410   44.5100 H   0  0  0  0  0  0  0  0  0  0  0  0
   56.6805   26.6062   44.8622 H   0  0  0  0  0  0  0  0  0  0  0  0
   59.1639   26.2682   45.1240 H   0  0  0  0  0  0  0  0  0  0  0  0
   60.7127   28.2360   45.0864 H   0  0  0  0  0  0  0  0  0  0  0  0
   59.7940   30.5674   44.8081 H   0  0  0  0  0  0  0  0  0  0  0  0
   58.6248   31.4026   47.6310 H   0  0  0  0  0  0  0  0  0  0  0  0
   59.4781   31.1621   46.0577 H   0  0  0  0  0  0  0  0  0  0  0  0
   60.6258   31.6098   48.6915 H   0  0  0  0  0  0  0  0  0  0  0  0
   61.4657   31.3101   47.1235 H   0  0  0  0  0  0  0  0  0  0  0  0
   58.4745   35.0483   47.3274 H   0  0  0  0  0  0  0  0  0  0  0  0
   58.1090   33.6228   48.3751 H   0  0  0  0  0  0  0  0  0  0  0  0
   60.5150   35.2419   48.2970 H   0  0  0  0  0  0  0  0  0  0  0  0
   60.1163   33.8475   49.3714 H   0  0  0  0  0  0  0  0  0  0  0  0
  1  2  1  0
  3  2  1  1
  3  4  1  0
  4  5  1  0
  5  6  1  0
  6  7  1  6
  7  8  1  0
  8  9  1  0
  9 10  2  0
 10 11  1  0
 11 12  1  0
 12 13  2  0
 13 14  1  0
 14 15  2  0
 15 16  1  0
 16 17  2  0
  6 18  1  0
 18 19  1  0
  6 20  1  0
 20 21  1  0
 19  3  1  0
 21  3  1  0
 17  9  1  0
 17 12  1  0
  1 22  1  0
  1 23  1  0
  1 24  1  0
  2 25  1  0
  2 26  1  0
  4 27  1  0
  4 28  1  0
  5 29  1  0
  5 30  1  0
  7 31  1  0
  7 32  1  0
  8 33  1  0
  8 34  1  0
 10 35  1  0
 11 36  1  0
 13 37  1  0
 14 38  1  0
 15 39  1  0
 16 40  1  0
 18 41  1  0
 18 42  1  0
 19 43  1  0
 19 44  1  0
 20 45  1  0
 20 46  1  0
 21 47  1  0
 21 48  1  0
M  CHG  2   3   1   6   1
M  END
>  <UniqueID>  (2) 
2

>  <SMILES>  (2) 
CC[N+]12CC[N+](CCc3c[nH]c4ccccc34)(CC1)CC2

>  <Energy>  (2) 
112.10808518488129

>  <Genealogy>  (2) 
CC[N+]12CC[N+](CCc3c[nH]c4ccccc34)(CC1)CC2 (3D coordinates assigned)
CC[N+]12CC[N+](CCc3c[nH]c4ccccc34)(CC1)CC2 (nonaromatic ring conformer: 112.10808518488129 kcal/mol)

>  <smiles>  (2) 
CC[N+]12CC[N+](CCc3c[nH]c4ccccc34)(CC1)CC2

>  <score_type>  (2) 
oracle

>  <origin>  (2) 
adg

>  <m_score__min__energy>  (2) 
-4.9900000000000002

>  <m_primary>  (2) 
energy

$$$$
2:0
     RDKit          3D

 72 75  0  0  0  0  0  0  0  0999 V2000
   65.2710   32.5600   49.7710 C   0  0  0  0  0  0  0  0  0  0  0  0
   64.3020   31.4850   50.2510 C   0  0  0  0  0  0  0  0  0  0  0  0
   63.2560   31.2600   49.2430 N   0  0  0  0  0  0  0  0  0  0  0  0
   63.5160   31.9840   47.9840 C   0  0  0  0  0  0  0  0  0  0  0  0
   62.2500   32.2480   47.1440 C   0  0  0  0  0  0  0  0  0  0  0  0
   61.0440   31.7170   47.7800 N   0  0  0  0  0  0  0  0  0  0  0  0
   59.9310   31.3090   46.9750 C   0  0  0  0  0  0  0  0  0  0  0  0
   59.1470   32.2900   46.3460 C   0  0  0  0  0  0  0  0  0  0  0  0
   59.2540   33.6470   46.7130 C   0  0  0  0  0  0  0  0  0  0  0  0
   58.4180   34.6060   46.1420 C   0  0  0  0  0  0  0  0  0  0  0  0
   57.4660   34.2270   45.2010 C   0  0  0  0  0  0  0  0  0  0  0  0
   57.3750   32.8990   44.7950 C   0  0  0  0  0  0  0  0  0  0  0  0
   58.2290   31.9050   45.3390 C   0  0  0  0  0  0  0  0  0  0  0  0
   58.1690   30.5860   44.9240 N   0  0  0  0  0  0  0  0  0  0  0  0
   57.4730   30.2430   43.6640 C   0  0  0  0  0  0  0  0  0  0  0  0
   58.7810   29.5960   45.6750 C   0  0  0  0  0  0  0  0  0  0  0  0
   58.5430   28.2240   45.4140 C   0  0  0  0  0  0  0  0  0  0  0  0
   59.1760   27.2270   46.1460 C   0  0  0  0  0  0  0  0  0  0  0  0
   60.0080   27.5580   47.2020 C   0  0  0  0  0  0  0  0  0  0  0  0
   60.2350   28.9000   47.5440 C   0  0  0  0  0  0  0  0  0  0  0  0
   60.9090   29.1960   48.7850 N   0  0  0  0  0  0  0  0  0  0  0  0
   60.2610   29.1460   50.0970 C   0  0  0  0  0  0  0  0  0  0  0  0
   58.8360   29.7030   49.9880 C   0  0  0  0  0  0  0  0  0  0  0  0
   58.5660   30.8650   50.9580 C   0  0  0  0  0  0  0  0  0  0  0  0
   59.0500   32.2270   50.4110 C   0  0  0  0  0  0  0  0  0  0  0  0
   60.5200   32.4000   50.4530 N   0  0  0  0  0  0  0  0  0  0  0  0
   61.2090   31.6930   51.5620 C   0  0  0  0  0  0  0  0  0  0  0  0
   61.7160   32.6420   52.6640 C   0  0  0  0  0  0  0  0  0  0  0  0
   62.5280   33.8390   52.1200 C   0  0  0  0  0  0  0  0  0  0  0  0
   62.4190   34.0020   50.6010 C   0  0  0  0  0  0  0  0  0  0  0  0
   60.9710   33.7790   50.1650 C   0  0  0  0  0  0  0  0  0  0  0  0
   59.6550   29.9390   46.7460 C   0  0  0  0  0  0  0  0  0  0  0  0
   65.7226   33.0610   50.6399 H   0  0  0  0  0  0  0  0  0  0  0  0
   66.0619   32.0959   49.1634 H   0  0  0  0  0  0  0  0  0  0  0  0
   64.7276   33.2986   49.1634 H   0  0  0  0  0  0  0  0  0  0  0  0
   64.8528   30.5478   50.4190 H   0  0  0  0  0  0  0  0  0  0  0  0
   63.8324   31.8169   51.1887 H   0  0  0  0  0  0  0  0  0  0  0  0
   62.3290   31.5460   49.6360 H   0  0  0  0  0  0  0  0  0  0  0  0
   63.9771   32.9520   48.2297 H   0  0  0  0  0  0  0  0  0  0  0  0
   64.1749   31.3451   47.3776 H   0  0  0  0  0  0  0  0  0  0  0  0
   62.1323   33.3337   47.0123 H   0  0  0  0  0  0  0  0  0  0  0  0
   62.3740   31.7385   46.1770 H   0  0  0  0  0  0  0  0  0  0  0  0
   60.9280   31.7560   48.8190 H   0  0  0  0  0  0  0  0  0  0  0  0
   60.0044   33.9523   47.4571 H   0  0  0  0  0  0  0  0  0  0  0  0
   58.5113   35.6620   46.4356 H   0  0  0  0  0  0  0  0  0  0  0  0
   56.7838   34.9786   44.7770 H   0  0  0  0  0  0  0  0  0  0  0  0
   56.6280   32.6150   44.0392 H   0  0  0  0  0  0  0  0  0  0  0  0
   56.5084   29.7676   43.8956 H   0  0  0  0  0  0  0  0  0  0  0  0
   57.2996   31.1588   43.0799 H   0  0  0  0  0  0  0  0  0  0  0  0
   58.0936   29.5476   43.0799 H   0  0  0  0  0  0  0  0  0  0  0  0
   57.8420   27.9420   44.6146 H   0  0  0  0  0  0  0  0  0  0  0  0
   59.0155   26.1704   45.8855 H   0  0  0  0  0  0  0  0  0  0  0  0
   60.4968   26.7597   47.7797 H   0  0  0  0  0  0  0  0  0  0  0  0
   61.8530   29.6400   48.7400 H   0  0  0  0  0  0  0  0  0  0  0  0
   60.2210   28.1037   50.4462 H   0  0  0  0  0  0  0  0  0  0  0  0
   60.8366   29.7519   50.8123 H   0  0  0  0  0  0  0  0  0  0  0  0
   58.6780   30.0613   48.9601 H   0  0  0  0  0  0  0  0  0  0  0  0
   58.1449   28.8888   50.2516 H   0  0  0  0  0  0  0  0  0  0  0  0
   57.4831   30.9249   51.1418 H   0  0  0  0  0  0  0  0  0  0  0  0
   59.1264   30.6615   51.8824 H   0  0  0  0  0  0  0  0  0  0  0  0
   58.7199   32.3179   49.3656 H   0  0  0  0  0  0  0  0  0  0  0  0
   58.6175   33.0041   51.0584 H   0  0  0  0  0  0  0  0  0  0  0  0
   60.5042   30.9788   52.0127 H   0  0  0  0  0  0  0  0  0  0  0  0
   62.0885   31.1906   51.1330 H   0  0  0  0  0  0  0  0  0  0  0  0
   60.8473   33.0319   53.2147 H   0  0  0  0  0  0  0  0  0  0  0  0
   62.3906   32.0591   53.3083 H   0  0  0  0  0  0  0  0  0  0  0  0
   62.1581   34.7583   52.5976 H   0  0  0  0  0  0  0  0  0  0  0  0
   63.5861   33.6490   52.3531 H   0  0  0  0  0  0  0  0  0  0  0  0
   62.7345   35.0170   50.3180 H   0  0  0  0  0  0  0  0  0  0  0  0
   63.0677   33.2640   50.1065 H   0  0  0  0  0  0  0  0  0  0  0  0
   60.3233   34.4860   50.7041 H   0  0  0  0  0  0  0  0  0  0  0  0
   60.9110   33.9399   49.0785 H   0  0  0  0  0  0  0  0  0  0  0  0
  1  2  1  0
  2  3  1  0
  3  4  1  0
  4  5  1  0
  5  6  1  0
  6  7  1  0
  7  8  2  0
  8  9  1  0
  9 10  2  0
 10 11  1  0
 11 12  2  0
 12 13  1  0
 13 14  2  0
 14 15  1  0
 14 16  1  0
 16 17  2  0
 17 18  1  0
 18 19  2  0
 19 20  1  0
 20 21  1  0
 21 22  1  0
 22 23  1  0
 23 24  1  0
 24 25  1  0
 25 26  1  0
 26 27  1  0
 27 28  1  0
 28 29  1  0
 29 30  1  0
 30 31  1  0
 20 32  2  0
 32  7  1  0
 13  8  1  0
 32 16  1  0
 31 26  1  0
  1 33  1  0
  1 34  1  0
  1 35  1  0
  2 36  1  0
  2 37  1  0
  3 38  1  0
  4 39  1  0
  4 40  1  0
  5 41  1  0
  5 42  1  0
  6 43  1  0
  9 44  1  0
 10 45  1  0
 11 46  1  0
 12 47  1  0
 15 48  1  0
 15 49  1  0
 15 50  1  0
 17 51  1  0
 18 52  1  0
 19 53  1  0
 21 54  1  0
 22 55  1  0
 22 56  1  0
 23 57  1  0
 23 58  1  0
 24 59  1  0
 24 60  1  0
 25 61  1  0
 25 62  1  0
 27 63  1  0
 27 64  1  0
 28 65  1  0
 28 66  1  0
 29 67  1  0
 29 68  1  0
 30 69  1  0
 30 70  1  0
 31 71  1  0
 31 72  1  0
M  CHG  1  14   1
M  END
>  <UniqueID>  (3) 
3

>  <SMILES>  (3) 
CCNCCNc1c2ccccc2[n+](C)c2cccc(NCCCCN3CCCCC3)c12

>  <Energy>  (3) 
110.42408326196541

>  <Genealogy>  (3) 
CCNCCNc1c2ccccc2[n+](C)c2cccc(NCCCCN3CCCCC3)c12 (3D coordinates assigned)
CCNCCNc1c2ccccc2[n+](C)c2cccc(NCCCCN3CCCCC3)c12 (nonaromatic ring conformer: 110.42408326196541 kcal/mol)

>  <smiles>  (3) 
CCNCCNc1c2ccccc2[n+](C)c2cccc(NCCCCN3CCCCC3)c12

>  <score_type>  (3) 
oracle

>  <origin>  (3) 
adg

>  <m_score__min__energy>  (3) 
-6.3600000000000003

>  <m_primary>  (3) 
energy

$$$$
3:0
     RDKit          3D

 41 41  0  0  0  0  0  0  0  0999 V2000
   57.3530   28.5170   45.5070 C   0  0  0  0  0  0  0  0  0  0  0  0
   56.5100   29.6930   45.2770 N   0  0  0  0  0  0  0  0  0  0  0  0
   55.9360   29.7250   43.9190 C   0  0  0  0  0  0  0  0  0  0  0  0
   56.6460   30.7170   42.9790 C   0  0  0  0  0  0  0  0  0  0  0  0
   57.4500   31.6890   43.7270 C   0  0  0  0  0  0  0  0  0  0  0  0
   58.1190   32.4760   44.3480 C   0  0  0  0  0  0  0  0  0  0  0  0
   58.9390   33.4190   45.1230 C   0  0  0  0  0  0  0  0  0  0  0  0
   58.4070   33.5980   46.4860 N   0  0  0  0  0  0  0  0  0  0  0  0
   59.0580   34.7060   47.2240 C   0  0  0  0  0  0  0  0  0  0  0  0
   59.8740   34.2230   48.4390 C   0  0  0  0  0  0  0  0  0  0  0  0
   61.0120   33.3140   48.0390 C   0  0  0  0  0  0  0  0  0  0  0  0
   62.3230   33.8210   48.0360 C   0  0  0  0  0  0  0  0  0  0  0  0
   63.3930   33.0180   47.6370 C   0  0  0  0  0  0  0  0  0  0  0  0
   63.1670   31.7030   47.2340 C   0  0  0  0  0  0  0  0  0  0  0  0
   61.8700   31.1850   47.2270 C   0  0  0  0  0  0  0  0  0  0  0  0
   60.7780   31.9830   47.6260 C   0  0  0  0  0  0  0  0  0  0  0  0
   59.4630   31.4880   47.6220 O   0  0  0  0  0  0  0  0  0  0  0  0
   59.1060   30.1350   47.8860 C   0  0  0  0  0  0  0  0  0  0  0  0
   57.4691   28.3550   46.5888 H   0  0  0  0  0  0  0  0  0  0  0  0
   56.8814   27.6333   45.0524 H   0  0  0  0  0  0  0  0  0  0  0  0
   58.3414   28.6798   45.0524 H   0  0  0  0  0  0  0  0  0  0  0  0
   55.7480   29.7140   45.9930 H   0  0  0  0  0  0  0  0  0  0  0  0
   56.0118   28.7173   43.4844 H   0  0  0  0  0  0  0  0  0  0  0  0
   54.8922   30.0584   44.0150 H   0  0  0  0  0  0  0  0  0  0  0  0
   57.3049   30.1560   42.3000 H   0  0  0  0  0  0  0  0  0  0  0  0
   55.8777   31.2670   42.4158 H   0  0  0  0  0  0  0  0  0  0  0  0
   59.9663   33.0311   45.1876 H   0  0  0  0  0  0  0  0  0  0  0  0
   58.9218   34.3936   44.6133 H   0  0  0  0  0  0  0  0  0  0  0  0
   57.3790   33.7870   46.4250 H   0  0  0  0  0  0  0  0  0  0  0  0
   58.5110   32.6970   47.0080 H   0  0  0  0  0  0  0  0  0  0  0  0
   59.7335   35.2359   46.5363 H   0  0  0  0  0  0  0  0  0  0  0  0
   58.2605   35.3620   47.6031 H   0  0  0  0  0  0  0  0  0  0  0  0
   60.2873   35.0998   48.9590 H   0  0  0  0  0  0  0  0  0  0  0  0
   59.1990   33.6506   49.0923 H   0  0  0  0  0  0  0  0  0  0  0  0
   62.5073   34.8588   48.3506 H   0  0  0  0  0  0  0  0  0  0  0  0
   64.4155   33.4235   47.6407 H   0  0  0  0  0  0  0  0  0  0  0  0
   64.0118   31.0719   46.9209 H   0  0  0  0  0  0  0  0  0  0  0  0
   61.6990   30.1463   46.9077 H   0  0  0  0  0  0  0  0  0  0  0  0
   59.0631   29.9725   48.9731 H   0  0  0  0  0  0  0  0  0  0  0  0
   58.1211   29.9228   47.4444 H   0  0  0  0  0  0  0  0  0  0  0  0
   59.8580   29.4645   47.4444 H   0  0  0  0  0  0  0  0  0  0  0  0
  1  2  1  0
  2  3  1  0
  3  4  1  0
  4  5  1  0
  5  6  3  0
  6  7  1  0
  7  8  1  0
  8  9  1  0
  9 10  1  0
 10 11  1  0
 11 12  2  0
 12 13  1  0
 13 14  2  0
 14 15  1  0
 15 16  2  0
 16 17  1  0
 17 18  1  0
 16 11  1  0
  1 19  1  0
  1 20  1  0
  1 21  1  0
  2 22  1  0
  3 23  1  0
  3 24  1  0
  4 25  1  0
  4 26  1  0
  7 27  1  0
  7 28  1  0
  8 29  1  0
  8 30  1  0
  9 31  1  0
  9 32  1  0
 10 33  1  0
 10 34  1  0
 12 35  1  0
 13 36  1  0
 14 37  1  0
 15 38  1  0
 18 39  1  0
 18 40  1  0
 18 41  1  0
M  CHG  1   8   1
M  END
>  <UniqueID>  (4) 
4

>  <SMILES>  (4) 
CNCCC#CC[NH2+]CCc1ccccc1OC

>  <Energy>  (4) 
31.961432947286518

>  <Genealogy>  (4) 
CNCCC#CC[NH2+]CCc1ccccc1OC (protonated)
CNCCC#CC[NH2+]CCc1ccccc1OC (3D coordinates assigned)
CNCCC#CC[NH2+]CCc1ccccc1OC (optimized conformer: 31.961432947286518 kcal/mol)

>  <smiles>  (4) 
CNCCC#CCNCCc1ccccc1OC

>  <score_type>  (4) 
oracle

>  <origin>  (4) 
adg

>  <m_score__min__energy>  (4) 
-3.9900000000000002

>  <m_primary>  (4) 
energy

$$$$
4:0
     RDKit          3D

 59 62  0  0  0  0  0  0  0  0999 V2000
   57.3950   33.8980   45.3240 C   0  0  0  0  0  0  0  0  0  0  0  0
   58.6030   33.1960   45.9390 C   0  0  0  0  0  0  0  0  0  0  0  0
   59.8290   34.1290   45.9900 C   0  0  0  0  0  0  0  0  0  0  0  0
   60.8820   33.6140   46.9090 N   0  0  0  0  0  0  0  0  0  0  0  0
   60.6960   34.0910   48.3120 C   0  0  0  0  0  0  0  0  0  0  0  0
   59.6190   33.3710   49.1570 C   0  0  0  0  0  0  0  0  0  0  0  0
   59.8600   33.4330   50.6640 C   0  0  0  0  0  0  0  0  0  0  0  0
   62.2390   33.8550   46.3470 C   0  0  0  0  0  0  0  0  0  0  0  0
   63.3670   33.8150   47.3970 C   0  0  0  0  0  0  0  0  0  0  0  0
   63.7690   32.4390   47.6980 N   0  0  0  0  0  0  0  0  0  0  0  0
   62.9960   31.5830   48.5550 C   0  0  0  0  0  0  0  0  0  0  0  0
   63.2110   31.4880   49.9520 C   0  0  0  0  0  0  0  0  0  0  0  0
   64.2990   32.1410   50.5640 C   0  0  0  0  0  0  0  0  0  0  0  0
   64.4650   32.1020   51.9460 C   0  0  0  0  0  0  0  0  0  0  0  0
   63.5550   31.4130   52.7410 C   0  0  0  0  0  0  0  0  0  0  0  0
   62.4970   30.7140   52.1600 C   0  0  0  0  0  0  0  0  0  0  0  0
   62.3250   30.6880   50.7550 C   0  0  0  0  0  0  0  0  0  0  0  0
   61.3300   29.9270   50.1550 N   0  0  0  0  0  0  0  0  0  0  0  0
   60.5750   28.9040   50.8990 C   0  0  0  0  0  0  0  0  0  0  0  0
   61.1180   30.0920   48.8100 C   0  0  0  0  0  0  0  0  0  0  0  0
   61.9420   30.8600   48.0210 C   0  0  0  0  0  0  0  0  0  0  0  0
   61.5590   30.8410   46.7620 O   0  0  0  0  0  0  0  0  0  0  0  0
   60.4770   30.0980   46.7040 C   0  0  0  0  0  0  0  0  0  0  0  0
   59.7090   29.8340   45.5730 C   0  0  0  0  0  0  0  0  0  0  0  0
   58.5410   29.0710   45.7320 C   0  0  0  0  0  0  0  0  0  0  0  0
   58.1590   28.6050   47.0070 C   0  0  0  0  0  0  0  0  0  0  0  0
   58.9500   28.8830   48.1380 C   0  0  0  0  0  0  0  0  0  0  0  0
   60.1340   29.6080   47.9520 C   0  0  0  0  0  0  0  0  0  0  0  0
   56.7436   34.2765   46.1255 H   0  0  0  0  0  0  0  0  0  0  0  0
   57.7367   34.7382   44.7017 H   0  0  0  0  0  0  0  0  0  0  0  0
   56.8342   33.1851   44.7017 H   0  0  0  0  0  0  0  0  0  0  0  0
   58.3509   32.8798   46.9620 H   0  0  0  0  0  0  0  0  0  0  0  0
   58.8546   32.3271   45.3131 H   0  0  0  0  0  0  0  0  0  0  0  0
   60.2518   34.2161   44.9782 H   0  0  0  0  0  0  0  0  0  0  0  0
   59.4968   35.1075   46.3670 H   0  0  0  0  0  0  0  0  0  0  0  0
   60.7550   32.5790   46.9660 H   0  0  0  0  0  0  0  0  0  0  0  0
   61.6583   33.9770   48.8325 H   0  0  0  0  0  0  0  0  0  0  0  0
   60.3422   35.1283   48.2185 H   0  0  0  0  0  0  0  0  0  0  0  0
   58.6454   33.8365   48.9440 H   0  0  0  0  0  0  0  0  0  0  0  0
   59.6545   32.3084   48.8749 H   0  0  0  0  0  0  0  0  0  0  0  0
   58.9269   33.1929   51.1947 H   0  0  0  0  0  0  0  0  0  0  0  0
   60.6371   32.7055   50.9413 H   0  0  0  0  0  0  0  0  0  0  0  0
   60.1896   34.4452   50.9413 H   0  0  0  0  0  0  0  0  0  0  0  0
   62.4426   33.0827   45.5906 H   0  0  0  0  0  0  0  0  0  0  0  0
   62.2332   34.8703   45.9237 H   0  0  0  0  0  0  0  0  0  0  0  0
   64.2369   34.3651   47.0088 H   0  0  0  0  0  0  0  0  0  0  0  0
   62.9942   34.2770   48.3231 H   0  0  0  0  0  0  0  0  0  0  0  0
   64.4240   31.9810   47.0240 H   0  0  0  0  0  0  0  0  0  0  0  0
   65.0249   32.6873   49.9438 H   0  0  0  0  0  0  0  0  0  0  0  0
   65.3184   32.6177   52.4105 H   0  0  0  0  0  0  0  0  0  0  0  0
   63.6705   31.4194   53.8349 H   0  0  0  0  0  0  0  0  0  0  0  0
   61.7857   30.1749   52.8030 H   0  0  0  0  0  0  0  0  0  0  0  0
   60.6981   29.0708   51.9793 H   0  0  0  0  0  0  0  0  0  0  0  0
   59.5089   28.9720   50.6366 H   0  0  0  0  0  0  0  0  0  0  0  0
   60.9542   27.9053   50.6366 H   0  0  0  0  0  0  0  0  0  0  0  0
   60.0084   30.2119   44.5843 H   0  0  0  0  0  0  0  0  0  0  0  0
   57.9194   28.8350   44.8556 H   0  0  0  0  0  0  0  0  0  0  0  0
   57.2348   28.0191   47.1189 H   0  0  0  0  0  0  0  0  0  0  0  0
   58.6471   28.5408   49.1386 H   0  0  0  0  0  0  0  0  0  0  0  0
  1  2  1  0
  2  3  1  0
  3  4  1  0
  4  5  1  0
  5  6  1  0
  6  7  1  0
  4  8  1  0
  8  9  1  0
  9 10  1  0
 10 11  1  0
 11 12  2  0
 12 13  1  0
 13 14  2  0
 14 15  1  0
 15 16  2  0
 16 17  1  0
 17 18  2  0
 18 19  1  0
 18 20  1  0
 20 21  2  0
 21 22  1  0
 22 23  1  0
 23 24  2  0
 24 25  1  0
 25 26  2  0
 26 27  1  0
 27 28  2  0
 21 11  1  0
 28 23  1  0
 17 12  1  0
 28 20  1  0
  1 29  1  0
  1 30  1  0
  1 31  1  0
  2 32  1  0
  2 33  1  0
  3 34  1  0
  3 35  1  0
  4 36  1  0
  5 37  1  0
  5 38  1  0
  6 39  1  0
  6 40  1  0
  7 41  1  0
  7 42  1  0
  7 43  1  0
  8 44  1  0
  8 45  1  0
  9 46  1  0
  9 47  1  0
 10 48  1  0
 13 49  1  0
 14 50  1  0
 15 51  1  0
 16 52  1  0
 19 53  1  0
 19 54  1  0
 19 55  1  0
 24 56  1  0
 25 57  1  0
 26 58  1  0
 27 59  1  0
M  CHG  2   4   1  18   1
M  END
>  <UniqueID>  (5) 
5

>  <SMILES>  (5) 
CCC[NH+](CCC)CCNc1c2ccccc2[n+](C)c2c1oc1ccccc12

>  <Energy>  (5) 
123.52538263160129

>  <Genealogy>  (5) 
CCC[NH+](CCC)CCNc1c2ccccc2[n+](C)c2c1oc1ccccc12 (protonated)
CCC[NH+](CCC)CCNc1c2ccccc2[n+](C)c2c1oc1ccccc12 (3D coordinates assigned)
CCC[NH+](CCC)CCNc1c2ccccc2[n+](C)c2c1oc1ccccc12 (optimized conformer: 123.52538263160129 kcal/mol)

>  <smiles>  (5) 
CCCN(CCC)CCNc1c2ccccc2[n+](C)c2c1oc1ccccc12

>  <score_type>  (5) 
oracle

>  <origin>  (5) 
adg

>  <m_score__min__energy>  (5) 
-4.1799999999999997

>  <m_primary>  (5) 
energy

$$$$
5:0
     RDKit          3D

 61 63  0  0  0  0  0  0  0  0999 V2000
   55.9690   29.7560   43.1760 C   0  0  0  0  0  0  0  0  0  0  0  0
   55.8830   29.3330   44.6380 C   0  0  0  0  0  0  0  0  0  0  0  0
   57.2650   29.2140   45.2440 C   0  0  0  0  0  0  0  0  0  0  0  0
   58.0230   30.3710   45.5240 C   0  0  0  0  0  0  0  0  0  0  0  0
   57.4700   31.6310   45.2390 O   0  0  0  0  0  0  0  0  0  0  0  0
   58.0240   32.5720   44.3220 C   0  0  0  0  0  0  0  0  0  0  0  0
   57.7290   33.9900   44.8110 C   0  0  0  0  0  0  0  0  0  0  0  0
   58.1420   34.2620   46.2800 C   0  0  0  0  0  0  0  0  0  0  0  0
   59.2360   33.4170   46.8330 N   0  0  1  0  0  0  0  0  0  0  0  0
   60.5650   33.8120   46.3260 C   0  0  0  0  0  0  0  0  0  0  0  0
   59.2110   33.3310   48.3170 C   0  0  0  0  0  0  0  0  0  0  0  0
   60.2830   34.2110   48.9660 C   0  0  0  0  0  0  0  0  0  0  0  0
   59.3120   30.2390   46.0760 C   0  0  0  0  0  0  0  0  0  0  0  0
   59.8540   28.9780   46.3270 C   0  0  0  0  0  0  0  0  0  0  0  0
   59.1210   27.8210   46.0230 C   0  0  0  0  0  0  0  0  0  0  0  0
   59.6370   26.5320   46.2390 C   0  0  0  0  0  0  0  0  0  0  0  0
   60.7870   26.3650   46.7320 O   0  0  0  0  0  0  0  0  0  0  0  0
   58.8670   25.4200   45.9020 C   0  0  0  0  0  0  0  0  0  0  0  0
   57.5940   25.6140   45.3470 C   0  0  0  0  0  0  0  0  0  0  0  0
   56.7270   24.4400   44.9630 C   0  0  0  0  0  0  0  0  0  0  0  0
   57.1940   23.1470   45.6880 C   0  0  0  0  0  0  0  0  0  0  0  0
   58.1070   22.2870   44.8060 C   0  0  0  0  0  0  0  0  0  0  0  0
   57.3970   21.8460   43.5110 C   0  0  0  0  0  0  0  0  0  0  0  0
   56.3480   22.8590   43.0070 C   0  0  0  0  0  0  0  0  0  0  0  0
   56.7000   24.2910   43.4230 C   0  0  0  0  0  0  0  0  0  0  0  0
   57.1310   26.8470   45.1680 O   0  0  0  0  0  0  0  0  0  0  0  0
   57.8240   27.9410   45.4740 C   0  0  0  0  0  0  0  0  0  0  0  0
   56.1879   30.8324   43.1180 H   0  0  0  0  0  0  0  0  0  0  0  0
   56.7707   29.1914   42.6775 H   0  0  0  0  0  0  0  0  0  0  0  0
   55.0105   29.5493   42.6775 H   0  0  0  0  0  0  0  0  0  0  0  0
   55.3070   30.0845   45.1978 H   0  0  0  0  0  0  0  0  0  0  0  0
   55.3875   28.3525   44.6934 H   0  0  0  0  0  0  0  0  0  0  0  0
   59.1122   32.4248   44.2574 H   0  0  0  0  0  0  0  0  0  0  0  0
   57.5759   32.4249   43.3283 H   0  0  0  0  0  0  0  0  0  0  0  0
   58.2716   34.6960   44.1652 H   0  0  0  0  0  0  0  0  0  0  0  0
   56.6373   34.1164   44.7643 H   0  0  0  0  0  0  0  0  0  0  0  0
   58.4648   35.3114   46.3469 H   0  0  0  0  0  0  0  0  0  0  0  0
   57.2540   34.0160   46.8809 H   0  0  0  0  0  0  0  0  0  0  0  0
   59.0510   32.4550   46.4580 H   0  0  0  0  0  0  0  0  0  0  0  0
   61.2365   34.0116   47.1741 H   0  0  0  0  0  0  0  0  0  0  0  0
   60.9803   32.9984   45.7131 H   0  0  0  0  0  0  0  0  0  0  0  0
   60.4685   34.7203   45.7131 H   0  0  0  0  0  0  0  0  0  0  0  0
   58.2225   33.6557   48.6740 H   0  0  0  0  0  0  0  0  0  0  0  0
   59.4155   32.2874   48.5981 H   0  0  0  0  0  0  0  0  0  0  0  0
   60.2000   34.1428   50.0607 H   0  0  0  0  0  0  0  0  0  0  0  0
   61.2794   33.8670   48.6517 H   0  0  0  0  0  0  0  0  0  0  0  0
   60.1397   35.2554   48.6517 H   0  0  0  0  0  0  0  0  0  0  0  0
   59.8977   31.1397   46.3118 H   0  0  0  0  0  0  0  0  0  0  0  0
   60.8594   28.8907   46.7647 H   0  0  0  0  0  0  0  0  0  0  0  0
   59.2529   24.4036   46.0693 H   0  0  0  0  0  0  0  0  0  0  0  0
   55.6936   24.6211   45.2935 H   0  0  0  0  0  0  0  0  0  0  0  0
   57.7440   23.4297   46.5977 H   0  0  0  0  0  0  0  0  0  0  0  0
   56.3001   22.5532   45.9294 H   0  0  0  0  0  0  0  0  0  0  0  0
   59.0007   22.8713   44.5415 H   0  0  0  0  0  0  0  0  0  0  0  0
   58.3799   21.3843   45.3722 H   0  0  0  0  0  0  0  0  0  0  0  0
   58.1562   21.7119   42.7264 H   0  0  0  0  0  0  0  0  0  0  0  0
   56.8614   20.9125   43.7382 H   0  0  0  0  0  0  0  0  0  0  0  0
   56.3011   22.8077   41.9092 H   0  0  0  0  0  0  0  0  0  0  0  0
   55.3772   22.5999   43.4547 H   0  0  0  0  0  0  0  0  0  0  0  0
   57.6913   24.5472   43.0210 H   0  0  0  0  0  0  0  0  0  0  0  0
   55.9303   24.9673   43.0228 H   0  0  0  0  0  0  0  0  0  0  0  0
  1  2  1  0
  2  3  1  0
  3  4  2  0
  4  5  1  0
  5  6  1  0
  6  7  1  0
  7  8  1  0
  8  9  1  0
  9 10  1  0
  9 11  1  0
 11 12  1  0
  4 13  1  0
 13 14  2  0
 14 15  1  0
 15 16  1  0
 16 17  2  0
 16 18  1  0
 18 19  2  0
 19 20  1  0
 20 21  1  0
 21 22  1  0
 22 23  1  0
 23 24  1  0
 24 25  1  0
 19 26  1  0
 26 27  1  0
 27  3  1  0
 27 15  2  0
 25 20  1  0
  1 28  1  0
  1 29  1  0
  1 30  1  0
  2 31  1  0
  2 32  1  0
  6 33  1  0
  6 34  1  0
  7 35  1  0
  7 36  1  0
  8 37  1  0
  8 38  1  0
  9 39  1  6
 10 40  1  0
 10 41  1  0
 10 42  1  0
 11 43  1  0
 11 44  1  0
 12 45  1  0
 12 46  1  0
 12 47  1  0
 13 48  1  0
 14 49  1  0
 18 50  1  0
 20 51  1  0
 21 52  1  0
 21 53  1  0
 22 54  1  0
 22 55  1  0
 23 56  1  0
 23 57  1  0
 24 58  1  0
 24 59  1  0
 25 60  1  0
 25 61  1  0
M  CHG  1   9   1
M  END
>  <UniqueID>  (6) 
6

>  <SMILES>  (6) 
CCc1c(OCCC[N@@H+](C)CC)ccc2c(=O)cc(C3CCCCC3)oc12

>  <Energy>  (6) 
66.93162096712071

>  <Genealogy>  (6) 
CCc1c(OCCC[NH+](C)CC)ccc2c(=O)cc(C3CCCCC3)oc12 (protonated)
CCc1c(OCCC[N@@H+](C)CC)ccc2c(=O)cc(C3CCCCC3)oc12 (chirality)
CCc1c(OCCC[N@@H+](C)CC)ccc2c(=O)cc(C3CCCCC3)oc12 (3D coordinates assigned)
CCc1c(OCCC[N@@H+](C)CC)ccc2c(=O)cc(C3CCCCC3)oc12 (nonaromatic ring conformer: 66.93162096712071 kcal/mol)

>  <smiles>  (6) 
CCc1c(OCCCN(C)CC)ccc2c(=O)cc(C3CCCCC3)oc12

>  <score_type>  (6) 
oracle

>  <origin>  (6) 
adg

>  <m_score__min__energy>  (6) 
-7.0800000000000001

>  <m_primary>  (6) 
energy

$$$$
6:0
     RDKit          3D

 42 44  0  0  0  0  0  0  0  0999 V2000
   63.0320   33.8500   46.3740 C   0  0  0  0  0  0  0  0  0  0  0  0
   63.7160   33.2830   47.6210 C   0  0  0  0  0  0  0  0  0  0  0  0
   62.7660   33.0660   48.7310 N   0  0  0  0  0  0  0  0  0  0  0  0
   63.1570   33.7620   49.9740 C   0  0  0  0  0  0  0  0  0  0  0  0
   61.9920   33.8450   50.9800 C   0  0  0  0  0  0  0  0  0  0  0  0
   61.2200   32.5220   51.0840 C   0  0  0  0  0  0  0  0  0  0  0  0
   60.7350   32.0990   49.8200 O   0  0  0  0  0  0  0  0  0  0  0  0
   59.4120   32.5430   49.5780 C   0  0  0  0  0  0  0  0  0  0  0  0
   59.2270   32.9110   48.1280 C   0  0  0  0  0  0  0  0  0  0  0  0
   58.5600   32.0120   47.2710 C   0  0  0  0  0  0  0  0  0  0  0  0
   58.4500   32.3740   45.9370 C   0  0  0  0  0  0  0  0  0  0  0  0
   58.9760   33.5560   45.4790 C   0  0  0  0  0  0  0  0  0  0  0  0
   59.6000   34.4040   46.2840 O   0  0  0  0  0  0  0  0  0  0  0  0
   59.7410   34.1250   47.5840 C   0  0  0  0  0  0  0  0  0  0  0  0
   60.3470   34.9480   48.3210 O   0  0  0  0  0  0  0  0  0  0  0  0
   58.7830   33.7020   44.1840 O   0  0  0  0  0  0  0  0  0  0  0  0
   58.1340   32.6250   43.7860 C   0  0  0  0  0  0  0  0  0  0  0  0
   57.7130   32.3160   42.4940 C   0  0  0  0  0  0  0  0  0  0  0  0
   57.0400   31.0960   42.2950 C   0  0  0  0  0  0  0  0  0  0  0  0
   56.8010   30.2200   43.3780 C   0  0  0  0  0  0  0  0  0  0  0  0
   57.2330   30.5520   44.6750 C   0  0  0  0  0  0  0  0  0  0  0  0
   57.8970   31.7650   44.8400 C   0  0  0  0  0  0  0  0  0  0  0  0
   62.2179   34.5248   46.6772 H   0  0  0  0  0  0  0  0  0  0  0  0
   63.7665   34.4077   45.7745 H   0  0  0  0  0  0  0  0  0  0  0  0
   62.6201   33.0248   45.7745 H   0  0  0  0  0  0  0  0  0  0  0  0
   64.1832   32.3214   47.3620 H   0  0  0  0  0  0  0  0  0  0  0  0
   64.4647   34.0155   47.9569 H   0  0  0  0  0  0  0  0  0  0  0  0
   61.8130   33.3920   48.4450 H   0  0  0  0  0  0  0  0  0  0  0  0
   62.6880   32.0380   48.9130 H   0  0  0  0  0  0  0  0  0  0  0  0
   63.9903   33.2157   50.4399 H   0  0  0  0  0  0  0  0  0  0  0  0
   63.4522   34.7883   49.7104 H   0  0  0  0  0  0  0  0  0  0  0  0
   62.3971   34.0976   51.9710 H   0  0  0  0  0  0  0  0  0  0  0  0
   61.2932   34.6166   50.6245 H   0  0  0  0  0  0  0  0  0  0  0  0
   61.8905   31.7482   51.4861 H   0  0  0  0  0  0  0  0  0  0  0  0
   60.3574   32.6787   51.7483 H   0  0  0  0  0  0  0  0  0  0  0  0
   58.7084   31.7385   49.8384 H   0  0  0  0  0  0  0  0  0  0  0  0
   59.2209   33.4336   50.1947 H   0  0  0  0  0  0  0  0  0  0  0  0
   58.1448   31.0643   47.6445 H   0  0  0  0  0  0  0  0  0  0  0  0
   57.9007   33.0038   41.6563 H   0  0  0  0  0  0  0  0  0  0  0  0
   56.6967   30.8216   41.2866 H   0  0  0  0  0  0  0  0  0  0  0  0
   56.2728   29.2707   43.2053 H   0  0  0  0  0  0  0  0  0  0  0  0
   57.0532   29.8791   45.5264 H   0  0  0  0  0  0  0  0  0  0  0  0
  1  2  1  0
  2  3  1  0
  3  4  1  0
  4  5  1  0
  5  6  1  0
  6  7  1  0
  7  8  1  0
  8  9  1  0
  9 10  2  0
 10 11  1  0
 11 12  2  0
 12 13  1  0
 13 14  1  0
 14 15  2  0
 12 16  1  0
 16 17  1  0
 17 18  2  0
 18 19  1  0
 19 20  2  0
 20 21  1  0
 21 22  2  0
 14  9  1  0
 22 17  1  0
 22 11  1  0
  1 23  1  0
  1 24  1  0
  1 25  1  0
  2 26  1  0
  2 27  1  0
  3 28  1  0
  3 29  1  0
  4 30  1  0
  4 31  1  0
  5 32  1  0
  5 33  1  0
  6 34  1  0
  6 35  1  0
  8 36  1  0
  8 37  1  0
 10 38  1  0
 18 39  1  0
 19 40  1  0
 20 41  1  0
 21 42  1  0
M  CHG  1   3   1
M  END
>  <UniqueID>  (7) 
7

>  <SMILES>  (7) 
CC[NH2+]CCCOCc1cc2c(oc1=O)oc1ccccc12

>  <Energy>  (7) 
85.08842594575107

>  <Genealogy>  (7) 
CC[NH2+]CCCOCc1cc2c(oc1=O)oc1ccccc12 (protonated)
CC[NH2+]CCCOCc1cc2c(oc1=O)oc1ccccc12 (3D coordinates assigned)
CC[NH2+]CCCOCc1cc2c(oc1=O)oc1ccccc12 (optimized conformer: 85.08842594575107 kcal/mol)

>  <smiles>  (7) 
CCNCCCOCc1cc2c(oc1=O)oc1ccccc12

>  <score_type>  (7) 
oracle

>  <origin>  (7) 
adg

>  <m_score__min__energy>  (7) 
-5

>  <m_primary>  (7) 
energy

$$$$
7:0
     RDKit          3D

 39 41  0  0  0  0  0  0  0  0999 V2000
   54.4920   23.6930   44.4800 C   0  0  0  0  0  0  0  0  0  0  0  0
   54.8550   23.3290   45.9160 C   0  0  0  0  0  0  0  0  0  0  0  0
   55.2000   24.4950   46.6590 O   0  0  0  0  0  0  0  0  0  0  0  0
   55.9610   25.5440   46.1320 C   0  0  0  0  0  0  0  0  0  0  0  0
   55.4670   26.6970   45.9980 O   0  0  0  0  0  0  0  0  0  0  0  0
   57.3770   25.2930   45.7230 C   0  0  0  0  0  0  0  0  0  0  0  0
   57.7250   26.0460   44.0970 S   0  0  0  0  0  0  0  0  0  0  0  0
   58.6170   27.4510   44.7680 C   0  0  0  0  0  0  0  0  0  0  0  0
   59.9190   27.3240   45.1630 N   0  0  0  0  0  0  0  0  0  0  0  0
   60.6290   28.3960   45.6440 C   0  0  0  0  0  0  0  0  0  0  0  0
   60.0420   29.6290   45.7460 N   0  0  0  0  0  0  0  0  0  0  0  0
   58.7370   29.7380   45.3900 C   0  0  0  0  0  0  0  0  0  0  0  0
   58.0310   28.7010   44.8920 C   0  0  0  0  0  0  0  0  0  0  0  0
   56.8160   29.1370   44.5150 N   0  0  0  0  0  0  0  0  0  0  0  0
   56.8040   30.4410   44.7940 N   0  0  0  0  0  0  0  0  0  0  0  0
   57.9590   30.8330   45.3290 N   0  0  0  0  0  0  0  0  0  0  0  0
   58.2500   32.1780   45.7340 C   0  0  0  0  0  0  0  0  0  0  0  0
   57.9310   33.2640   44.9020 C   0  0  0  0  0  0  0  0  0  0  0  0
   58.2520   34.5660   45.2910 C   0  0  0  0  0  0  0  0  0  0  0  0
   58.8950   34.7980   46.5080 C   0  0  0  0  0  0  0  0  0  0  0  0
   59.2180   33.7250   47.3580 C   0  0  0  0  0  0  0  0  0  0  0  0
   59.9650   33.9680   48.6450 C   0  0  0  0  0  0  0  0  0  0  0  0
   61.2720   34.3430   48.3860 F   0  0  0  0  0  0  0  0  0  0  0  0
   59.9890   32.8230   49.4220 F   0  0  0  0  0  0  0  0  0  0  0  0
   59.3380   34.9780   49.3510 F   0  0  0  0  0  0  0  0  0  0  0  0
   58.9170   32.4140   46.9460 C   0  0  0  0  0  0  0  0  0  0  0  0
   53.7153   24.4719   44.4843 H   0  0  0  0  0  0  0  0  0  0  0  0
   55.3854   24.0690   43.9600 H   0  0  0  0  0  0  0  0  0  0  0  0
   54.1135   22.8006   43.9600 H   0  0  0  0  0  0  0  0  0  0  0  0
   53.9937   22.8385   46.3930 H   0  0  0  0  0  0  0  0  0  0  0  0
   55.7204   22.6501   45.9009 H   0  0  0  0  0  0  0  0  0  0  0  0
   58.0521   25.7289   46.4742 H   0  0  0  0  0  0  0  0  0  0  0  0
   57.5357   24.2070   45.6499 H   0  0  0  0  0  0  0  0  0  0  0  0
   61.6773   28.2635   45.9498 H   0  0  0  0  0  0  0  0  0  0  0  0
   60.6000   30.4510   46.0640 H   0  0  0  0  0  0  0  0  0  0  0  0
   57.4265   33.0880   43.9405 H   0  0  0  0  0  0  0  0  0  0  0  0
   57.9972   35.4121   44.6359 H   0  0  0  0  0  0  0  0  0  0  0  0
   59.1506   35.8261   46.8040 H   0  0  0  0  0  0  0  0  0  0  0  0
   59.2078   31.5642   47.5811 H   0  0  0  0  0  0  0  0  0  0  0  0
  1  2  1  0
  2  3  1  0
  3  4  1  0
  4  5  2  0
  4  6  1  0
  6  7  1  0
  7  8  1  0
  8  9  2  0
  9 10  1  0
 10 11  2  0
 11 12  1  0
 12 13  2  0
 13 14  1  0
 14 15  2  0
 15 16  1  0
 16 17  1  0
 17 18  2  0
 18 19  1  0
 19 20  2  0
 20 21  1  0
 21 22  1  0
 22 23  1  0
 22 24  1  0
 22 25  1  0
 21 26  2  0
 13  8  1  0
 26 17  1  0
 16 12  1  0
  1 27  1  0
  1 28  1  0
  1 29  1  0
  2 30  1  0
  2 31  1  0
  6 32  1  0
  6 33  1  0
 10 34  1  0
 11 35  1  0
 18 36  1  0
 19 37  1  0
 20 38  1  0
 26 39  1  0
M  CHG  1  11   1
M  END
>  <UniqueID>  (8) 
8

>  <SMILES>  (8) 
CCOC(=O)CSc1nc[nH+]c2c1nnn2-c1cccc(C(F)(F)F)c1

>  <Energy>  (8) 
85.0145077224014

>  <Genealogy>  (8) 
CCOC(=O)CSc1nc[nH+]c2c1nnn2-c1cccc(C(F)(F)F)c1 (protonated)
CCOC(=O)CSc1nc[nH+]c2c1nnn2-c1cccc(C(F)(F)F)c1 (3D coordinates assigned)
CCOC(=O)CSc1nc[nH+]c2c1nnn2-c1cccc(C(F)(F)F)c1 (optimized conformer: 85.0145077224014 kcal/mol)

>  <smiles>  (8) 
CCOC(=O)CSc1ncnc2c1nnn2-c1cccc(C(F)(F)F)c1

>  <score_type>  (8) 
oracle

>  <origin>  (8) 
adg

>  <m_score__min__energy>  (8) 
-6.5300000000000002

>  <m_primary>  (8) 
energy

$$$$
8:0
     RDKit          3D

 39 41  0  0  0  0  0  0  0  0999 V2000
   55.9390   29.7370   43.3840 C   0  0  0  0  0  0  0  0  0  0  0  0
   56.6440   29.1920   44.9690 S   0  0  0  0  0  0  0  0  0  0  0  0
   57.4900   30.7490   45.2540 C   0  0  0  0  0  0  0  0  0  0  0  0
   57.0900   31.9020   44.6640 N   0  0  0  0  0  0  0  0  0  0  0  0
   57.9510   32.8090   45.1580 C   0  0  0  0  0  0  0  0  0  0  0  0
   57.9790   34.1720   44.8790 C   0  0  0  0  0  0  0  0  0  0  0  0
   58.9560   34.9530   45.5160 C   0  0  0  0  0  0  0  0  0  0  0  0
   59.8710   34.3620   46.4120 C   0  0  0  0  0  0  0  0  0  0  0  0
   59.8240   32.9780   46.6810 C   0  0  0  0  0  0  0  0  0  0  0  0
   60.7440   32.4050   47.6190 N   0  0  0  0  0  0  0  0  0  0  0  0
   61.8450   31.5670   47.1290 C   0  0  0  0  0  0  0  0  0  0  0  0
   63.0220   31.6010   48.1060 C   0  0  0  0  0  0  0  0  0  0  0  0
   63.2320   32.9920   48.5470 N   0  0  0  0  0  0  0  0  0  0  0  0
   64.5080   33.1190   49.2670 C   0  0  0  0  0  0  0  0  0  0  0  0
   62.1090   33.4950   49.3770 C   0  0  0  0  0  0  0  0  0  0  0  0
   60.7480   32.8680   49.0100 C   0  0  0  0  0  0  0  0  0  0  0  0
   58.8380   32.2200   46.0210 C   0  0  0  0  0  0  0  0  0  0  0  0
   58.5640   30.9000   46.0740 N   0  0  0  0  0  0  0  0  0  0  0  0
   59.1930   29.8640   46.8940 C   0  0  0  0  0  0  0  0  0  0  0  0
   55.0816   30.3998   43.5726 H   0  0  0  0  0  0  0  0  0  0  0  0
   56.7038   30.2810   42.8103 H   0  0  0  0  0  0  0  0  0  0  0  0
   55.6051   28.8599   42.8103 H   0  0  0  0  0  0  0  0  0  0  0  0
   57.2582   34.6232   44.1812 H   0  0  0  0  0  0  0  0  0  0  0  0
   59.0084   36.0332   45.3150 H   0  0  0  0  0  0  0  0  0  0  0  0
   60.6294   34.9869   46.9063 H   0  0  0  0  0  0  0  0  0  0  0  0
   61.4917   30.5306   47.0242 H   0  0  0  0  0  0  0  0  0  0  0  0
   62.1802   31.9544   46.1556 H   0  0  0  0  0  0  0  0  0  0  0  0
   62.7986   30.9667   48.9765 H   0  0  0  0  0  0  0  0  0  0  0  0
   63.9296   31.2241   47.6118 H   0  0  0  0  0  0  0  0  0  0  0  0
   64.3209   33.1004   50.3508 H   0  0  0  0  0  0  0  0  0  0  0  0
   65.1677   32.2821   48.9944 H   0  0  0  0  0  0  0  0  0  0  0  0
   64.9898   34.0695   48.9944 H   0  0  0  0  0  0  0  0  0  0  0  0
   62.3251   33.2671   50.4312 H   0  0  0  0  0  0  0  0  0  0  0  0
   62.0285   34.5766   49.1938 H   0  0  0  0  0  0  0  0  0  0  0  0
   60.5541   32.0133   49.6747 H   0  0  0  0  0  0  0  0  0  0  0  0
   59.9654   33.6319   49.1287 H   0  0  0  0  0  0  0  0  0  0  0  0
   59.0490   30.1012   47.9584 H   0  0  0  0  0  0  0  0  0  0  0  0
   58.7337   28.8899   46.6700 H   0  0  0  0  0  0  0  0  0  0  0  0
   60.2691   29.8221   46.6700 H   0  0  0  0  0  0  0  0  0  0  0  0
  1  2  1  0
  2  3  1  0
  3  4  2  0
  4  5  1  0
  5  6  2  0
  6  7  1  0
  7  8  2  0
  8  9  1  0
  9 10  1  0
 10 11  1  0
 11 12  1  0
 12 13  1  0
 13 14  1  0
 13 15  1  0
 15 16  1  0
  9 17  2  0
 17 18  1  0
 18 19  1  0
 18  3  1  0
 17  5  1  0
 16 10  1  0
  1 20  1  0
  1 21  1  0
  1 22  1  0
  6 23  1  0
  7 24  1  0
  8 25  1  0
 11 26  1  0
 11 27  1  0
 12 28  1  0
 12 29  1  0
 14 30  1  0
 14 31  1  0
 14 32  1  0
 15 33  1  0
 15 34  1  0
 16 35  1  0
 16 36  1  0
 19 37  1  0
 19 38  1  0
 19 39  1  0
M  END
>  <UniqueID>  (9) 
9

>  <SMILES>  (9) 
CSc1nc2cccc(N3CCN(C)CC3)c2n1C

>  <Energy>  (9) 
84.90352486621083

>  <Genealogy>  (9) 
CSc1nc2cccc(N3CCN(C)CC3)c2n1C (3D coordinates assigned)
CSc1nc2cccc(N3CCN(C)CC3)c2n1C (nonaromatic ring conformer: 84.90352486621083 kcal/mol)

>  <smiles>  (9) 
CSc1nc2cccc(N3CCN(C)CC3)c2n1C

>  <score_type>  (9) 
oracle

>  <origin>  (9) 
adg

>  <m_score__min__energy>  (9) 
-6.6399999999999997

>  <m_primary>  (9) 
energy

$$$$
9:0
     RDKit          3D

 24 24  0  0  0  0  0  0  0  0999 V2000
   60.3630   28.9810   45.2570 C   0  0  0  0  0  0  0  0  0  0  0  0
   59.4080   27.8260   45.0020 C   0  0  0  0  0  0  0  0  0  0  0  0
   58.0860   28.2780   45.1520 O   0  0  0  0  0  0  0  0  0  0  0  0
   57.6040   28.4610   43.8960 N   0  0  0  0  0  0  0  0  0  0  0  0
   56.5510   29.8350   43.9510 S   0  0  0  0  0  0  0  0  0  0  0  0
   56.0130   30.1080   42.5740 O   0  0  0  0  0  0  0  0  0  0  0  0
   55.3960   29.5540   44.8710 O   0  0  0  0  0  0  0  0  0  0  0  0
   57.4460   31.2370   44.5300 C   0  0  0  0  0  0  0  0  0  0  0  0
   57.8130   31.3310   45.8800 C   0  0  0  0  0  0  0  0  0  0  0  0
   58.4930   32.4610   46.3460 C   0  0  0  0  0  0  0  0  0  0  0  0
   58.8040   33.5040   45.4670 C   0  0  0  0  0  0  0  0  0  0  0  0
   59.6540   34.9230   46.0520 Cl  0  0  0  0  0  0  0  0  0  0  0  0
   58.4330   33.4160   44.1200 C   0  0  0  0  0  0  0  0  0  0  0  0
   57.7530   32.2870   43.6540 C   0  0  0  0  0  0  0  0  0  0  0  0
   60.4825   29.1255   46.3409 H   0  0  0  0  0  0  0  0  0  0  0  0
   61.3409   28.7543   44.8073 H   0  0  0  0  0  0  0  0  0  0  0  0
   59.9566   29.8989   44.8073 H   0  0  0  0  0  0  0  0  0  0  0  0
   59.5535   27.4471   43.9796 H   0  0  0  0  0  0  0  0  0  0  0  0
   59.6059   27.0172   45.7208 H   0  0  0  0  0  0  0  0  0  0  0  0
   57.0080   27.6310   43.6760 H   0  0  0  0  0  0  0  0  0  0  0  0
   57.5656   30.5143   46.5741 H   0  0  0  0  0  0  0  0  0  0  0  0
   58.7835   32.5296   47.4047 H   0  0  0  0  0  0  0  0  0  0  0  0
   58.6767   34.2356   43.4280 H   0  0  0  0  0  0  0  0  0  0  0  0
   57.4579   32.2225   42.5963 H   0  0  0  0  0  0  0  0  0  0  0  0
  1  2  1  0
  2  3  1  0
  3  4  1  0
  4  5  1  0
  5  6  2  0
  5  7  2  0
  5  8  1  0
  8  9  2  0
  9 10  1  0
 10 11  2  0
 11 12  1  0
 11 13  1  0
 13 14  2  0
 14  8  1  0
  1 15  1  0
  1 16  1  0
  1 17  1  0
  2 18  1  0
  2 19  1  0
  4 20  1  0
  9 21  1  0
 10 22  1  0
 13 23  1  0
 14 24  1  0
M  END
>  <UniqueID>  (10) 
10

>  <SMILES>  (10) 
CCONS(=O)(=O)c1ccc(Cl)cc1

>  <Energy>  (10) 
14.567415267320573

>  <Genealogy>  (10) 
CCONS(=O)(=O)c1ccc(Cl)cc1 (3D coordinates assigned)
CCONS(=O)(=O)c1ccc(Cl)cc1 (optimized conformer: 14.567415267320573 kcal/mol)

>  <smiles>  (10) 
CCONS(=O)(=O)c1ccc(Cl)cc1

>  <score_type>  (10) 
oracle

>  <origin>  (10) 
adg

>  <m_score__min__energy>  (10) 
-6.4400000000000004

>  <m_primary>  (10) 
energy

$$$$
10:0
     RDKit          3D

 50 52  0  0  0  0  0  0  0  0999 V2000
   60.2730   33.8330   49.7900 C   0  0  0  0  0  0  0  0  0  0  0  0
   61.7130   33.4600   50.1370 C   0  0  0  0  0  0  0  0  0  0  0  0
   62.7500   34.2030   49.2760 C   0  0  0  0  0  0  0  0  0  0  0  0
   64.0810   33.4500   49.0550 C   0  0  0  0  0  0  0  0  0  0  0  0
   64.1390   32.6660   47.8070 N   0  0  0  0  0  0  0  0  0  0  0  0
   62.8310   32.5640   47.1400 C   0  0  0  0  0  0  0  0  0  0  0  0
   62.3040   31.1270   47.1880 C   0  0  0  0  0  0  0  0  0  0  0  0
   60.8740   31.1160   47.4970 N   0  0  0  0  0  0  0  0  0  0  0  0
   59.8850   31.0430   46.4530 C   0  0  0  0  0  0  0  0  0  0  0  0
   59.2530   32.2130   45.9940 C   0  0  0  0  0  0  0  0  0  0  0  0
   59.5770   33.4750   46.5400 C   0  0  0  0  0  0  0  0  0  0  0  0
   58.8990   34.6210   46.1380 C   0  0  0  0  0  0  0  0  0  0  0  0
   57.8790   34.5320   45.1980 C   0  0  0  0  0  0  0  0  0  0  0  0
   57.5520   33.3010   44.6320 C   0  0  0  0  0  0  0  0  0  0  0  0
   58.2550   32.1210   44.9860 C   0  0  0  0  0  0  0  0  0  0  0  0
   57.9750   30.9030   44.3940 N   0  0  0  0  0  0  0  0  0  0  0  0
   57.1510   30.8510   43.1650 C   0  0  0  0  0  0  0  0  0  0  0  0
   58.4960   29.7370   44.9250 C   0  0  0  0  0  0  0  0  0  0  0  0
   58.0490   28.4580   44.5030 C   0  0  0  0  0  0  0  0  0  0  0  0
   58.6410   27.2920   44.9850 C   0  0  0  0  0  0  0  0  0  0  0  0
   59.6850   27.3650   45.9000 C   0  0  0  0  0  0  0  0  0  0  0  0
   60.1140   28.6030   46.3700 C   0  0  0  0  0  0  0  0  0  0  0  0
   59.5020   29.7960   45.9260 C   0  0  0  0  0  0  0  0  0  0  0  0
   59.6993   33.9816   50.7167 H   0  0  0  0  0  0  0  0  0  0  0  0
   60.2666   34.7625   49.2017 H   0  0  0  0  0  0  0  0  0  0  0  0
   59.8161   33.0236   49.2017 H   0  0  0  0  0  0  0  0  0  0  0  0
   61.8940   33.7057   51.1938 H   0  0  0  0  0  0  0  0  0  0  0  0
   61.8312   32.3843   49.9399 H   0  0  0  0  0  0  0  0  0  0  0  0
   62.2998   34.3950   48.2909 H   0  0  0  0  0  0  0  0  0  0  0  0
   63.0053   35.1195   49.8281 H   0  0  0  0  0  0  0  0  0  0  0  0
   64.8951   34.1895   49.0346 H   0  0  0  0  0  0  0  0  0  0  0  0
   64.1750   32.7305   49.8817 H   0  0  0  0  0  0  0  0  0  0  0  0
   64.8480   33.0720   47.1540 H   0  0  0  0  0  0  0  0  0  0  0  0
   64.4640   31.7020   48.0620 H   0  0  0  0  0  0  0  0  0  0  0  0
   62.1152   33.2273   47.6475 H   0  0  0  0  0  0  0  0  0  0  0  0
   62.9492   32.8601   46.0872 H   0  0  0  0  0  0  0  0  0  0  0  0
   62.4669   30.6488   46.2109 H   0  0  0  0  0  0  0  0  0  0  0  0
   62.8421   30.5767   47.9738 H   0  0  0  0  0  0  0  0  0  0  0  0
   60.5870   30.8780   48.4730 H   0  0  0  0  0  0  0  0  0  0  0  0
   60.3756   33.5523   47.2926 H   0  0  0  0  0  0  0  0  0  0  0  0
   59.1701   35.5982   46.5642 H   0  0  0  0  0  0  0  0  0  0  0  0
   57.3280   35.4361   44.8998 H   0  0  0  0  0  0  0  0  0  0  0  0
   56.7346   33.2436   43.8981 H   0  0  0  0  0  0  0  0  0  0  0  0
   56.0878   30.7839   43.4390 H   0  0  0  0  0  0  0  0  0  0  0  0
   57.3199   31.7616   42.5715 H   0  0  0  0  0  0  0  0  0  0  0  0
   57.4331   29.9689   42.5715 H   0  0  0  0  0  0  0  0  0  0  0  0
   57.2207   28.3856   43.7828 H   0  0  0  0  0  0  0  0  0  0  0  0
   58.2812   26.3113   44.6405 H   0  0  0  0  0  0  0  0  0  0  0  0
   60.1723   26.4441   46.2528 H   0  0  0  0  0  0  0  0  0  0  0  0
   60.9392   28.6528   47.0956 H   0  0  0  0  0  0  0  0  0  0  0  0
  1  2  1  0
  2  3  1  0
  3  4  1  0
  4  5  1  0
  5  6  1  0
  6  7  1  0
  7  8  1  0
  8  9  1  0
  9 10  2  0
 10 11  1  0
 11 12  2  0
 12 13  1  0
 13 14  2  0
 14 15  1  0
 15 16  2  0
 16 17  1  0
 16 18  1  0
 18 19  2  0
 19 20  1  0
 20 21  2  0
 21 22  1  0
 22 23  2  0
 23  9  1  0
 15 10  1  0
 23 18  1  0
  1 24  1  0
  1 25  1  0
  1 26  1  0
  2 27  1  0
  2 28  1  0
  3 29  1  0
  3 30  1  0
  4 31  1  0
  4 32  1  0
  5 33  1  0
  5 34  1  0
  6 35  1  0
  6 36  1  0
  7 37  1  0
  7 38  1  0
  8 39  1  0
 11 40  1  0
 12 41  1  0
 13 42  1  0
 14 43  1  0
 17 44  1  0
 17 45  1  0
 17 46  1  0
 19 47  1  0
 20 48  1  0
 21 49  1  0
 22 50  1  0
M  CHG  2   5   1  16   1
M  END
>  <UniqueID>  (11) 
11

>  <SMILES>  (11) 
CCCC[NH2+]CCNc1c2ccccc2[n+](C)c2ccccc12

>  <Energy>  (11) 
71.49338130039054

>  <Genealogy>  (11) 
CCCC[NH2+]CCNc1c2ccccc2[n+](C)c2ccccc12 (protonated)
CCCC[NH2+]CCNc1c2ccccc2[n+](C)c2ccccc12 (3D coordinates assigned)
CCCC[NH2+]CCNc1c2ccccc2[n+](C)c2ccccc12 (optimized conformer: 71.49338130039054 kcal/mol)

>  <smiles>  (11) 
CCCCNCCNc1c2ccccc2[n+](C)c2ccccc12

>  <score_type>  (11) 
oracle

>  <origin>  (11) 
adg

>  <m_score__min__energy>  (11) 
-4.3200000000000003

>  <m_primary>  (11) 
energy

$$$$
11:0
     RDKit          3D

 55 57  0  0  0  0  0  0  0  0999 V2000
   53.2370   30.7920   51.2230 C   0  0  0  0  0  0  0  0  0  0  0  0
   53.6160   29.9220   52.4260 C   0  0  0  0  0  0  0  0  0  0  0  0
   54.7140   28.9860   52.1200 N   0  0  0  0  0  0  0  0  0  0  0  0
   55.7180   28.9370   53.1970 C   0  0  0  0  0  0  0  0  0  0  0  0
   56.9910   29.6920   52.8030 C   0  0  0  0  0  0  0  0  0  0  0  0
   56.8520   30.2040   51.4940 O   0  0  0  0  0  0  0  0  0  0  0  0
   57.1320   31.5870   51.4970 C   0  0  0  0  0  0  0  0  0  0  0  0
   58.6010   31.8110   51.1500 C   0  0  0  0  0  0  0  0  0  0  0  0
   58.8900   31.3620   49.7860 N   0  0  0  0  0  0  0  0  0  0  0  0
   59.8720   32.0280   48.9720 C   0  0  0  0  0  0  0  0  0  0  0  0
   59.4720   32.7960   47.8630 C   0  0  0  0  0  0  0  0  0  0  0  0
   58.1120   32.8760   47.4910 C   0  0  0  0  0  0  0  0  0  0  0  0
   57.7100   33.6940   46.4380 C   0  0  0  0  0  0  0  0  0  0  0  0
   58.6490   34.4460   45.7430 C   0  0  0  0  0  0  0  0  0  0  0  0
   60.0020   34.3520   46.0670 C   0  0  0  0  0  0  0  0  0  0  0  0
   60.4500   33.4890   47.1010 C   0  0  0  0  0  0  0  0  0  0  0  0
   61.7940   33.3190   47.3760 N   0  0  0  0  0  0  0  0  0  0  0  0
   62.8100   33.7960   46.4100 C   0  0  0  0  0  0  0  0  0  0  0  0
   62.1900   32.6660   48.5290 C   0  0  0  0  0  0  0  0  0  0  0  0
   63.5370   32.6900   48.9750 C   0  0  0  0  0  0  0  0  0  0  0  0
   63.9450   31.9720   50.1120 C   0  0  0  0  0  0  0  0  0  0  0  0
   65.2720   31.9660   50.5680 O   0  0  0  0  0  0  0  0  0  0  0  0
   65.9060   30.8550   51.1950 C   0  0  0  0  0  0  0  0  0  0  0  0
   63.0030   31.2370   50.8260 C   0  0  0  0  0  0  0  0  0  0  0  0
   61.6670   31.2350   50.4410 C   0  0  0  0  0  0  0  0  0  0  0  0
   61.2360   31.9650   49.3140 C   0  0  0  0  0  0  0  0  0  0  0  0
   52.8211   31.7467   51.5774 H   0  0  0  0  0  0  0  0  0  0  0  0
   54.1323   30.9857   50.6140 H   0  0  0  0  0  0  0  0  0  0  0  0
   52.4855   30.2682   50.6140 H   0  0  0  0  0  0  0  0  0  0  0  0
   53.9307   30.5780   53.2510 H   0  0  0  0  0  0  0  0  0  0  0  0
   52.7333   29.3252   52.6994 H   0  0  0  0  0  0  0  0  0  0  0  0
   55.1780   29.3190   51.2420 H   0  0  0  0  0  0  0  0  0  0  0  0
   54.3280   28.0290   51.9430 H   0  0  0  0  0  0  0  0  0  0  0  0
   55.2949   29.3955   54.1030 H   0  0  0  0  0  0  0  0  0  0  0  0
   55.9802   27.8846   53.3808 H   0  0  0  0  0  0  0  0  0  0  0  0
   57.1564   30.5223   53.5053 H   0  0  0  0  0  0  0  0  0  0  0  0
   57.8490   29.0045   52.8372 H   0  0  0  0  0  0  0  0  0  0  0  0
   56.4986   32.0907   50.7519 H   0  0  0  0  0  0  0  0  0  0  0  0
   56.9246   32.0002   52.4951 H   0  0  0  0  0  0  0  0  0  0  0  0
   58.8311   32.8835   51.2325 H   0  0  0  0  0  0  0  0  0  0  0  0
   59.2200   31.2304   51.8498 H   0  0  0  0  0  0  0  0  0  0  0  0
   58.5800   30.4020   49.5110 H   0  0  0  0  0  0  0  0  0  0  0  0
   57.3623   32.2860   48.0387 H   0  0  0  0  0  0  0  0  0  0  0  0
   56.6479   33.7448   46.1563 H   0  0  0  0  0  0  0  0  0  0  0  0
   58.3241   35.1176   44.9347 H   0  0  0  0  0  0  0  0  0  0  0  0
   60.7343   34.9567   45.5120 H   0  0  0  0  0  0  0  0  0  0  0  0
   63.6740   34.2016   46.9569 H   0  0  0  0  0  0  0  0  0  0  0  0
   63.1371   32.9574   45.7778 H   0  0  0  0  0  0  0  0  0  0  0  0
   62.3737   34.5834   45.7778 H   0  0  0  0  0  0  0  0  0  0  0  0
   64.2776   33.2834   48.4188 H   0  0  0  0  0  0  0  0  0  0  0  0
   65.8429   30.9655   52.2876 H   0  0  0  0  0  0  0  0  0  0  0  0
   65.4022   29.9257   50.8908 H   0  0  0  0  0  0  0  0  0  0  0  0
   66.9624   30.8160   50.8908 H   0  0  0  0  0  0  0  0  0  0  0  0
   63.3184   30.6524   51.7028 H   0  0  0  0  0  0  0  0  0  0  0  0
   60.9357   30.6557   51.0238 H   0  0  0  0  0  0  0  0  0  0  0  0
  1  2  1  0
  2  3  1  0
  3  4  1  0
  4  5  1  0
  5  6  1  0
  6  7  1  0
  7  8  1  0
  8  9  1  0
  9 10  1  0
 10 11  2  0
 11 12  1  0
 12 13  2  0
 13 14  1  0
 14 15  2  0
 15 16  1  0
 16 17  2  0
 17 18  1  0
 17 19  1  0
 19 20  2  0
 20 21  1  0
 21 22  1  0
 22 23  1  0
 21 24  2  0
 24 25  1  0
 25 26  2  0
 26 10  1  0
 16 11  1  0
 26 19  1  0
  1 27  1  0
  1 28  1  0
  1 29  1  0
  2 30  1  0
  2 31  1  0
  3 32  1  0
  3 33  1  0
  4 34  1  0
  4 35  1  0
  5 36  1  0
  5 37  1  0
  7 38  1  0
  7 39  1  0
  8 40  1  0
  8 41  1  0
  9 42  1  0
 12 43  1  0
 13 44  1  0
 14 45  1  0
 15 46  1  0
 18 47  1  0
 18 48  1  0
 18 49  1  0
 20 50  1  0
 23 51  1  0
 23 52  1  0
 23 53  1  0
 24 54  1  0
 25 55  1  0
M  CHG  2   3   1  17   1
M  END
>  <UniqueID>  (12) 
12

>  <SMILES>  (12) 
CC[NH2+]CCOCCNc1c2ccccc2[n+](C)c2cc(OC)ccc12

>  <Energy>  (12) 
75.14528871746728

>  <Genealogy>  (12) 
CC[NH2+]CCOCCNc1c2ccccc2[n+](C)c2cc(OC)ccc12 (protonated)
CC[NH2+]CCOCCNc1c2ccccc2[n+](C)c2cc(OC)ccc12 (3D coordinates assigned)
CC[NH2+]CCOCCNc1c2ccccc2[n+](C)c2cc(OC)ccc12 (optimized conformer: 75.14528871746728 kcal/mol)

>  <smiles>  (12) 
CCNCCOCCNc1c2ccccc2[n+](C)c2cc(OC)ccc12

>  <score_type>  (12) 
oracle

>  <origin>  (12) 
adg

>  <m_score__min__energy>  (12) 
-3.8700000000000001

>  <m_primary>  (12) 
energy

$$$$
12:0
     RDKit          3D

122128  0  0  0  0  0  0  0  0999 V2000
   66.3080   33.6330   50.6250 C   0  0  0  0  0  0  0  0  0  0  0  0
   65.1980   32.6050   50.5700 C   0  0  0  0  0  0  0  0  0  0  0  0
   65.1170   31.6940   51.6260 C   0  0  0  0  0  0  0  0  0  0  0  0
   64.1350   30.7100   51.6380 C   0  0  0  0  0  0  0  0  0  0  0  0
   64.0910   29.7950   52.7050 C   0  0  0  0  0  0  0  0  0  0  0  0
   63.1370   28.7720   52.7350 C   0  0  0  0  0  0  0  0  0  0  0  0
   63.1470   27.8300   53.8270 N   0  0  0  0  0  0  0  0  0  0  0  0
   64.1000   26.7260   53.9500 C   0  0  0  0  0  0  0  0  0  0  0  0
   63.5560   25.4640   53.2720 C   0  0  0  0  0  0  0  0  0  0  0  0
   64.0350   24.1940   53.9880 C   0  0  0  0  0  0  0  0  0  0  0  0
   63.0150   23.1210   53.8970 N   0  0  0  0  0  0  0  0  0  0  0  0
   62.2620   23.1870   52.6170 C   0  0  0  0  0  0  0  0  0  0  0  0
   60.8410   22.6250   52.7550 C   0  0  0  0  0  0  0  0  0  0  0  0
   60.0400   23.3970   53.7380 N   0  0  0  0  0  0  0  0  0  0  0  0
   59.2880   24.5010   53.0920 C   0  0  0  0  0  0  0  0  0  0  0  0
   59.3480   25.8000   53.9230 C   0  0  0  0  0  0  0  0  0  0  0  0
   60.2900   26.8680   53.3590 C   0  0  0  0  0  0  0  0  0  0  0  0
   60.3850   27.9680   54.2570 O   0  0  0  0  0  0  0  0  0  0  0  0
   59.7160   29.1920   54.1070 C   0  0  0  0  0  0  0  0  0  0  0  0
   60.6190   30.5280   53.8470 S   0  0  0  0  0  0  0  0  0  0  0  0
   58.2860   29.3290   54.1970 N   0  0  0  0  0  0  0  0  0  0  0  0
   57.3190   28.3890   53.6230 C   0  0  0  0  0  0  0  0  0  0  0  0
   56.2950   29.1110   52.7460 C   0  0  0  0  0  0  0  0  0  0  0  0
   56.9730   30.0090   51.8930 O   0  0  0  0  0  0  0  0  0  0  0  0
   56.1650   31.1450   51.6660 C   0  0  0  0  0  0  0  0  0  0  0  0
   56.6950   32.3300   52.4820 C   0  0  0  0  0  0  0  0  0  0  0  0
   57.8960   31.9980   53.2660 N   0  0  0  0  0  0  0  0  0  0  0  0
   58.5060   33.1770   53.8970 C   0  0  0  0  0  0  0  0  0  0  0  0
   59.3530   33.9500   52.8730 C   0  0  0  0  0  0  0  0  0  0  0  0
   59.3560   33.3290   51.5380 N   0  0  0  0  0  0  0  0  0  0  0  0
   60.4760   33.7890   50.7060 C   0  0  0  0  0  0  0  0  0  0  0  0
   60.1060   33.6930   49.2250 C   0  0  0  0  0  0  0  0  0  0  0  0
   58.9660   32.7990   49.0240 N   0  0  0  0  0  0  0  0  0  0  0  0
   58.9310   31.9110   47.8990 C   0  0  0  0  0  0  0  0  0  0  0  0
   59.1790   30.5400   48.0740 C   0  0  0  0  0  0  0  0  0  0  0  0
   59.4250   30.0110   49.3580 C   0  0  0  0  0  0  0  0  0  0  0  0
   59.6280   28.6450   49.5370 C   0  0  0  0  0  0  0  0  0  0  0  0
   59.5650   27.7840   48.4470 C   0  0  0  0  0  0  0  0  0  0  0  0
   59.3260   28.2850   47.1680 C   0  0  0  0  0  0  0  0  0  0  0  0
   59.1630   29.6770   46.9450 C   0  0  0  0  0  0  0  0  0  0  0  0
   58.9740   30.1970   45.6770 N   0  0  0  0  0  0  0  0  0  0  0  0
   59.2250   29.3530   44.4860 C   0  0  0  0  0  0  0  0  0  0  0  0
   58.5650   31.5100   45.5210 C   0  0  0  0  0  0  0  0  0  0  0  0
   58.1170   32.0110   44.2720 C   0  0  0  0  0  0  0  0  0  0  0  0
   57.7640   33.3530   44.1190 C   0  0  0  0  0  0  0  0  0  0  0  0
   57.8300   34.2210   45.2010 C   0  0  0  0  0  0  0  0  0  0  0  0
   58.2260   33.7510   46.4510 C   0  0  0  0  0  0  0  0  0  0  0  0
   58.5750   32.3960   46.6310 C   0  0  0  0  0  0  0  0  0  0  0  0
   60.8450   23.8780   54.8930 C   0  0  0  0  0  0  0  0  0  0  0  0
   62.1370   23.0700   55.0910 C   0  0  0  0  0  0  0  0  0  0  0  0
   62.2100   28.6840   51.6870 C   0  0  0  0  0  0  0  0  0  0  0  0
   62.2350   29.5960   50.6300 C   0  0  0  0  0  0  0  0  0  0  0  0
   63.2030   30.6290   50.5790 C   0  0  0  0  0  0  0  0  0  0  0  0
   63.2910   31.5790   49.5140 C   0  0  0  0  0  0  0  0  0  0  0  0
   62.3750   31.5580   48.4330 C   0  0  0  0  0  0  0  0  0  0  0  0
   62.4860   32.4760   47.3980 C   0  0  0  0  0  0  0  0  0  0  0  0
   63.4920   33.4210   47.4240 C   0  0  0  0  0  0  0  0  0  0  0  0
   64.3870   33.4440   48.4870 C   0  0  0  0  0  0  0  0  0  0  0  0
   64.2960   32.5430   49.5260 N   0  0  0  0  0  0  0  0  0  0  0  0
   66.5492   33.8564   51.6747 H   0  0  0  0  0  0  0  0  0  0  0  0
   67.2009   33.2358   50.1201 H   0  0  0  0  0  0  0  0  0  0  0  0
   65.9804   34.5537   50.1201 H   0  0  0  0  0  0  0  0  0  0  0  0
   65.8368   31.7558   52.4555 H   0  0  0  0  0  0  0  0  0  0  0  0
   64.8164   29.8848   53.5271 H   0  0  0  0  0  0  0  0  0  0  0  0
   62.5180   28.0070   54.6430 H   0  0  0  0  0  0  0  0  0  0  0  0
   65.0484   27.0125   53.4721 H   0  0  0  0  0  0  0  0  0  0  0  0
   64.2599   26.5135   55.0174 H   0  0  0  0  0  0  0  0  0  0  0  0
   62.4565   25.4928   53.2913 H   0  0  0  0  0  0  0  0  0  0  0  0
   63.9273   25.4392   52.2369 H   0  0  0  0  0  0  0  0  0  0  0  0
   64.9673   23.8458   53.5195 H   0  0  0  0  0  0  0  0  0  0  0  0
   64.2043   24.4302   55.0489 H   0  0  0  0  0  0  0  0  0  0  0  0
   62.1987   24.2373   52.2962 H   0  0  0  0  0  0  0  0  0  0  0  0
   62.7981   22.5757   51.8761 H   0  0  0  0  0  0  0  0  0  0  0  0
   60.3429   22.6697   51.7752 H   0  0  0  0  0  0  0  0  0  0  0  0
   60.9151   21.5871   53.1116 H   0  0  0  0  0  0  0  0  0  0  0  0
   59.7210   24.6933   52.0993 H   0  0  0  0  0  0  0  0  0  0  0  0
   58.2344   24.1953   53.0119 H   0  0  0  0  0  0  0  0  0  0  0  0
   58.3347   26.2253   53.9706 H   0  0  0  0  0  0  0  0  0  0  0  0
   59.7431   25.5228   54.9115 H   0  0  0  0  0  0  0  0  0  0  0  0
   61.2889   26.4307   53.2142 H   0  0  0  0  0  0  0  0  0  0  0  0
   59.8913   27.2247   52.3978 H   0  0  0  0  0  0  0  0  0  0  0  0
   57.9120   30.2540   54.5100 H   0  0  0  0  0  0  0  0  0  0  0  0
   57.8573   27.6503   53.0110 H   0  0  0  0  0  0  0  0  0  0  0  0
   56.7834   27.8955   54.4474 H   0  0  0  0  0  0  0  0  0  0  0  0
   55.7420   28.3757   52.1430 H   0  0  0  0  0  0  0  0  0  0  0  0
   55.5862   29.6637   53.3801 H   0  0  0  0  0  0  0  0  0  0  0  0
   56.1854   31.3999   50.5961 H   0  0  0  0  0  0  0  0  0  0  0  0
   55.1325   30.9241   51.9744 H   0  0  0  0  0  0  0  0  0  0  0  0
   56.9432   33.1486   51.7904 H   0  0  0  0  0  0  0  0  0  0  0  0
   55.9071   32.6178   53.1936 H   0  0  0  0  0  0  0  0  0  0  0  0
   58.6030   31.5280   52.6540 H   0  0  0  0  0  0  0  0  0  0  0  0
   57.7124   33.8343   54.2820 H   0  0  0  0  0  0  0  0  0  0  0  0
   59.1542   32.8469   54.7222 H   0  0  0  0  0  0  0  0  0  0  0  0
   58.9497   34.9695   52.7837 H   0  0  0  0  0  0  0  0  0  0  0  0
   60.3908   33.9475   53.2377 H   0  0  0  0  0  0  0  0  0  0  0  0
   59.3950   32.2870   51.6270 H   0  0  0  0  0  0  0  0  0  0  0  0
   60.7089   34.8347   50.9556 H   0  0  0  0  0  0  0  0  0  0  0  0
   61.3526   33.1533   50.8996 H   0  0  0  0  0  0  0  0  0  0  0  0
   59.8463   34.6954   48.8539 H   0  0  0  0  0  0  0  0  0  0  0  0
   60.9684   33.2885   48.6749 H   0  0  0  0  0  0  0  0  0  0  0  0
   58.1250   32.8540   49.6440 H   0  0  0  0  0  0  0  0  0  0  0  0
   59.4568   30.6845   50.2272 H   0  0  0  0  0  0  0  0  0  0  0  0
   59.8382   28.2471   50.5407 H   0  0  0  0  0  0  0  0  0  0  0  0
   59.7043   26.7029   48.5944 H   0  0  0  0  0  0  0  0  0  0  0  0
   59.2627   27.5899   46.3178 H   0  0  0  0  0  0  0  0  0  0  0  0
   59.5248   28.3447   44.8077 H   0  0  0  0  0  0  0  0  0  0  0  0
   58.3074   29.2877   43.8829 H   0  0  0  0  0  0  0  0  0  0  0  0
   60.0292   29.7997   43.8829 H   0  0  0  0  0  0  0  0  0  0  0  0
   58.0466   31.3312   43.4101 H   0  0  0  0  0  0  0  0  0  0  0  0
   57.4324   33.7241   43.1380 H   0  0  0  0  0  0  0  0  0  0  0  0
   57.5691   35.2816   45.0707 H   0  0  0  0  0  0  0  0  0  0  0  0
   58.2670   34.4426   47.3054 H   0  0  0  0  0  0  0  0  0  0  0  0
   61.1112   24.9316   54.7224 H   0  0  0  0  0  0  0  0  0  0  0  0
   60.2335   23.7553   55.7991 H   0  0  0  0  0  0  0  0  0  0  0  0
   62.6844   23.4816   55.9517 H   0  0  0  0  0  0  0  0  0  0  0  0
   61.8572   22.0199   55.2613 H   0  0  0  0  0  0  0  0  0  0  0  0
   61.4530   27.8860   51.6975 H   0  0  0  0  0  0  0  0  0  0  0  0
   61.4912   29.5110   49.8241 H   0  0  0  0  0  0  0  0  0  0  0  0
   61.5700   30.8086   48.4140 H   0  0  0  0  0  0  0  0  0  0  0  0
   61.7745   32.4507   46.5595 H   0  0  0  0  0  0  0  0  0  0  0  0
   63.5848   34.1522   46.6074 H   0  0  0  0  0  0  0  0  0  0  0  0
   65.1868   34.1991   48.4994 H   0  0  0  0  0  0  0  0  0  0  0  0
  1  2  1  0
  2  3  2  0
  3  4  1  0
  4  5  2  0
  5  6  1  0
  6  7  1  0
  7  8  1  0
  8  9  1  0
  9 10  1  0
 10 11  1  0
 11 12  1  0
 12 13  1  0
 13 14  1  0
 14 15  1  0
 15 16  1  0
 16 17  1  0
 17 18  1  0
 18 19  1  0
 19 20  2  0
 19 21  1  0
 21 22  1  0
 22 23  1  0
 23 24  1  0
 24 25  1  0
 25 26  1  0
 26 27  1  0
 27 28  1  0
 28 29  1  0
 29 30  1  0
 30 31  1  0
 31 32  1  0
 32 33  1  0
 33 34  1  0
 34 35  1  0
 35 36  2  0
 36 37  1  0
 37 38  2  0
 38 39  1  0
 39 40  2  0
 40 41  1  0
 41 42  1  0
 41 43  2  0
 43 44  1  0
 44 45  2  0
 45 46  1  0
 46 47  2  0
 47 48  1  0
 14 49  1  0
 49 50  1  0
  6 51  2  0
 51 52  1  0
 52 53  2  0
 53 54  1  0
 54 55  2  0
 55 56  1  0
 56 57  2  0
 57 58  1  0
 58 59  2  0
 59  2  1  0
 53  4  1  0
 59 54  1  0
 50 11  1  0
 48 34  2  0
 40 35  1  0
 48 43  1  0
  1 60  1  0
  1 61  1  0
  1 62  1  0
  3 63  1  0
  5 64  1  0
  7 65  1  0
  8 66  1  0
  8 67  1  0
  9 68  1  0
  9 69  1  0
 10 70  1  0
 10 71  1  0
 12 72  1  0
 12 73  1  0
 13 74  1  0
 13 75  1  0
 15 76  1  0
 15 77  1  0
 16 78  1  0
 16 79  1  0
 17 80  1  0
 17 81  1  0
 21 82  1  0
 22 83  1  0
 22 84  1  0
 23 85  1  0
 23 86  1  0
 25 87  1  0
 25 88  1  0
 26 89  1  0
 26 90  1  0
 27 91  1  0
 28 92  1  0
 28 93  1  0
 29 94  1  0
 29 95  1  0
 30 96  1  0
 31 97  1  0
 31 98  1  0
 32 99  1  0
 32100  1  0
 33101  1  0
 36102  1  0
 37103  1  0
 38104  1  0
 39105  1  0
 42106  1  0
 42107  1  0
 42108  1  0
 44109  1  0
 45110  1  0
 46111  1  0
 47112  1  0
 49113  1  0
 49114  1  0
 50115  1  0
 50116  1  0
 51117  1  0
 52118  1  0
 55119  1  0
 56120  1  0
 57121  1  0
 58122  1  0
M  CHG  2  41   1  59   1
M  END
>  <UniqueID>  (13) 
13

>  <SMILES>  (13) 
Cc1cc2cc(NCCCN3CCN(CCCOC(=S)NCCOCCNCCNCCNc4c5ccccc5[n+](C)c5ccccc45)CC3)ccc2c2cccc[n+]12

>  <Energy>  (13) 
178.91329741499035

>  <Genealogy>  (13) 
Cc1cc2cc(NCCCN3CCN(CCCOC(=S)NCCOCCNCCNCCNc4c5ccccc5[n+](C)c5ccccc45)CC3)ccc2c2cccc[n+]12 (3D coordinates assigned)
Cc1cc2cc(NCCCN3CCN(CCCOC(=S)NCCOCCNCCNCCNc4c5ccccc5[n+](C)c5ccccc45)CC3)ccc2c2cccc[n+]12 (nonaromatic ring conformer: 178.91329741499035 kcal/mol)

>  <smiles>  (13) 
Cc1cc2cc(NCCCN3CCN(CCCOC(=S)NCCOCCNCCNCCNc4c5ccccc5[n+](C)c5ccccc45)CC3)ccc2c2cccc[n+]12

>  <score_type>  (13) 
oracle

>  <origin>  (13) 
adg

>  <m_score__min__energy>  (13) 
-7.5499999999999998

>  <m_primary>  (13) 
energy

$$$$
13:0
     RDKit          3D

 82 85  0  0  0  0  0  0  0  0999 V2000
   57.8020   31.9860   51.2590 C   0  0  0  0  0  0  0  0  0  0  0  0
   58.8630   33.0880   51.1960 C   0  0  0  0  0  0  0  0  0  0  0  0
   59.5090   33.1750   49.8770 N   0  0  0  0  0  0  0  0  0  0  0  0
   59.6840   34.5650   49.4340 C   0  0  0  0  0  0  0  0  0  0  0  0
   60.2870   34.5820   48.0250 C   0  0  0  0  0  0  0  0  0  0  0  0
   59.2750   35.0120   46.9500 C   0  0  0  0  0  0  0  0  0  0  0  0
   58.4150   33.8400   46.4460 C   0  0  0  0  0  0  0  0  0  0  0  0
   59.1000   33.0540   45.4010 N   0  0  0  0  0  0  0  0  0  0  0  0
   58.8620   31.6210   45.5410 C   0  0  0  0  0  0  0  0  0  0  0  0
   58.0480   30.9100   44.6110 C   0  0  0  0  0  0  0  0  0  0  0  0
   57.3990   31.5520   43.5230 C   0  0  0  0  0  0  0  0  0  0  0  0
   56.6660   30.8280   42.5870 C   0  0  0  0  0  0  0  0  0  0  0  0
   56.5630   29.4510   42.6960 C   0  0  0  0  0  0  0  0  0  0  0  0
   57.1570   28.7920   43.7650 C   0  0  0  0  0  0  0  0  0  0  0  0
   57.8720   29.5040   44.7650 C   0  0  0  0  0  0  0  0  0  0  0  0
   58.4020   28.8490   45.8590 N   0  0  0  0  0  0  0  0  0  0  0  0
   57.9550   27.4750   46.1840 C   0  0  0  0  0  0  0  0  0  0  0  0
   59.3160   29.4840   46.6720 C   0  0  0  0  0  0  0  0  0  0  0  0
   60.0950   28.7570   47.6060 C   0  0  0  0  0  0  0  0  0  0  0  0
   60.9580   29.4000   48.4880 C   0  0  0  0  0  0  0  0  0  0  0  0
   61.0720   30.7920   48.4710 C   0  0  0  0  0  0  0  0  0  0  0  0
   61.8930   31.4970   49.3670 O   0  0  0  0  0  0  0  0  0  0  0  0
   62.4090   30.9910   50.5980 C   0  0  0  0  0  0  0  0  0  0  0  0
   62.7720   32.1610   51.5420 C   0  0  0  0  0  0  0  0  0  0  0  0
   63.7500   33.1520   50.9870 N   0  0  0  0  0  0  0  0  0  0  0  0
   63.0340   34.1390   50.1370 C   0  0  0  0  0  0  0  0  0  0  0  0
   64.4570   33.8660   52.1040 C   0  0  0  0  0  0  0  0  0  0  0  0
   65.9040   34.2540   51.7410 C   0  0  0  0  0  0  0  0  0  0  0  0
   66.7560   33.0540   51.4610 N   0  0  0  0  0  0  0  0  0  0  0  0
   67.4150   32.6080   52.7150 C   0  0  0  0  0  0  0  0  0  0  0  0
   67.8220   33.4350   50.5000 C   0  0  0  0  0  0  0  0  0  0  0  0
   65.9570   31.9190   50.9000 C   0  0  0  0  0  0  0  0  0  0  0  0
   64.7260   32.4120   50.1150 C   0  0  0  0  0  0  0  0  0  0  0  0
   60.3490   31.5220   47.5270 C   0  0  0  0  0  0  0  0  0  0  0  0
   59.5070   30.8890   46.5780 C   0  0  0  0  0  0  0  0  0  0  0  0
   57.5775   31.7528   52.3103 H   0  0  0  0  0  0  0  0  0  0  0  0
   56.8861   32.3296   50.7560 H   0  0  0  0  0  0  0  0  0  0  0  0
   58.1801   31.0838   50.7560 H   0  0  0  0  0  0  0  0  0  0  0  0
   58.3830   34.0526   51.4178 H   0  0  0  0  0  0  0  0  0  0  0  0
   59.6418   32.8440   51.9336 H   0  0  0  0  0  0  0  0  0  0  0  0
   60.4470   32.7110   49.9190 H   0  0  0  0  0  0  0  0  0  0  0  0
   58.7074   35.0710   49.4206 H   0  0  0  0  0  0  0  0  0  0  0  0
   60.3593   35.0877   50.1273 H   0  0  0  0  0  0  0  0  0  0  0  0
   61.1329   35.2851   48.0130 H   0  0  0  0  0  0  0  0  0  0  0  0
   60.6063   33.5563   47.7885 H   0  0  0  0  0  0  0  0  0  0  0  0
   58.6112   35.7782   47.3771 H   0  0  0  0  0  0  0  0  0  0  0  0
   59.8440   35.4011   46.0928 H   0  0  0  0  0  0  0  0  0  0  0  0
   58.1864   33.1781   47.2943 H   0  0  0  0  0  0  0  0  0  0  0  0
   57.4979   34.2591   46.0063 H   0  0  0  0  0  0  0  0  0  0  0  0
   58.8640   33.4210   44.4570 H   0  0  0  0  0  0  0  0  0  0  0  0
   60.1260   33.2430   45.4460 H   0  0  0  0  0  0  0  0  0  0  0  0
   57.4772   32.6442   43.4178 H   0  0  0  0  0  0  0  0  0  0  0  0
   56.1669   31.3511   41.7580 H   0  0  0  0  0  0  0  0  0  0  0  0
   56.0107   28.8791   41.9358 H   0  0  0  0  0  0  0  0  0  0  0  0
   57.0721   27.6978   43.8386 H   0  0  0  0  0  0  0  0  0  0  0  0
   57.9147   27.3512   47.2763 H   0  0  0  0  0  0  0  0  0  0  0  0
   56.9550   27.3045   45.7586 H   0  0  0  0  0  0  0  0  0  0  0  0
   58.6632   26.7488   45.7586 H   0  0  0  0  0  0  0  0  0  0  0  0
   60.0158   27.6602   47.6344 H   0  0  0  0  0  0  0  0  0  0  0  0
   61.5525   28.8100   49.2011 H   0  0  0  0  0  0  0  0  0  0  0  0
   61.6485   30.3580   51.0786 H   0  0  0  0  0  0  0  0  0  0  0  0
   63.3133   30.3990   50.3935 H   0  0  0  0  0  0  0  0  0  0  0  0
   61.8449   32.6996   51.7877 H   0  0  0  0  0  0  0  0  0  0  0  0
   63.2622   31.7063   52.4154 H   0  0  0  0  0  0  0  0  0  0  0  0
   62.5091   34.8625   50.7781 H   0  0  0  0  0  0  0  0  0  0  0  0
   63.7585   34.6698   49.5019 H   0  0  0  0  0  0  0  0  0  0  0  0
   62.3045   33.6151   49.5019 H   0  0  0  0  0  0  0  0  0  0  0  0
   63.8975   34.7816   52.3461 H   0  0  0  0  0  0  0  0  0  0  0  0
   64.5028   33.1782   52.9612 H   0  0  0  0  0  0  0  0  0  0  0  0
   65.8859   34.8928   50.8457 H   0  0  0  0  0  0  0  0  0  0  0  0
   66.3383   34.7845   52.6012 H   0  0  0  0  0  0  0  0  0  0  0  0
   66.8525   32.9887   53.5803 H   0  0  0  0  0  0  0  0  0  0  0  0
   67.4369   31.5087   52.7468 H   0  0  0  0  0  0  0  0  0  0  0  0
   68.4437   32.9963   52.7468 H   0  0  0  0  0  0  0  0  0  0  0  0
   68.7172   33.7550   51.0533 H   0  0  0  0  0  0  0  0  0  0  0  0
   68.0715   32.5704   49.8674 H   0  0  0  0  0  0  0  0  0  0  0  0
   67.4669   34.2619   49.8674 H   0  0  0  0  0  0  0  0  0  0  0  0
   66.5978   31.3334   50.2244 H   0  0  0  0  0  0  0  0  0  0  0  0
   65.6005   31.3062   51.7410 H   0  0  0  0  0  0  0  0  0  0  0  0
   65.0643   33.0849   49.3132 H   0  0  0  0  0  0  0  0  0  0  0  0
   64.2109   31.5289   49.7089 H   0  0  0  0  0  0  0  0  0  0  0  0
   60.4346   32.6186   47.5188 H   0  0  0  0  0  0  0  0  0  0  0  0
  1  2  1  0
  2  3  1  0
  3  4  1  0
  4  5  1  0
  5  6  1  0
  6  7  1  0
  7  8  1  0
  8  9  1  0
  9 10  2  0
 10 11  1  0
 11 12  2  0
 12 13  1  0
 13 14  2  0
 14 15  1  0
 15 16  2  0
 16 17  1  0
 16 18  1  0
 18 19  2  0
 19 20  1  0
 20 21  2  0
 21 22  1  0
 22 23  1  0
 23 24  1  0
 24 25  1  0
 25 26  1  0
 25 27  1  0
 27 28  1  0
 28 29  1  0
 29 30  1  0
 29 31  1  0
 29 32  1  0
 32 33  1  0
 21 34  1  0
 34 35  2  0
 35  9  1  0
 15 10  1  0
 35 18  1  0
 33 25  1  0
  1 36  1  0
  1 37  1  0
  1 38  1  0
  2 39  1  0
  2 40  1  0
  3 41  1  0
  4 42  1  0
  4 43  1  0
  5 44  1  0
  5 45  1  0
  6 46  1  0
  6 47  1  0
  7 48  1  0
  7 49  1  0
  8 50  1  0
  8 51  1  0
 11 52  1  0
 12 53  1  0
 13 54  1  0
 14 55  1  0
 17 56  1  0
 17 57  1  0
 17 58  1  0
 19 59  1  0
 20 60  1  0
 23 61  1  0
 23 62  1  0
 24 63  1  0
 24 64  1  0
 26 65  1  0
 26 66  1  0
 26 67  1  0
 27 68  1  0
 27 69  1  0
 28 70  1  0
 28 71  1  0
 30 72  1  0
 30 73  1  0
 30 74  1  0
 31 75  1  0
 31 76  1  0
 31 77  1  0
 32 78  1  0
 32 79  1  0
 33 80  1  0
 33 81  1  0
 34 82  1  0
M  CHG  4   8   1  16   1  25   1  29   1
M  END
>  <UniqueID>  (14) 
14

>  <SMILES>  (14) 
CCNCCCC[NH2+]c1c2ccccc2[n+](C)c2ccc(OCC[N+]3(C)CC[N+](C)(C)CC3)cc12

>  <Energy>  (14) 
131.88505603856476

>  <Genealogy>  (14) 
CCNCCCC[NH2+]c1c2ccccc2[n+](C)c2ccc(OCC[N+]3(C)CC[N+](C)(C)CC3)cc12 (protonated)
CCNCCCC[NH2+]c1c2ccccc2[n+](C)c2ccc(OCC[N+]3(C)CC[N+](C)(C)CC3)cc12 (3D coordinates assigned)
CCNCCCC[NH2+]c1c2ccccc2[n+](C)c2ccc(OCC[N+]3(C)CC[N+](C)(C)CC3)cc12 (nonaromatic ring conformer: 131.88505603856476 kcal/mol)

>  <smiles>  (14) 
CCNCCCCNc1c2ccccc2[n+](C)c2ccc(OCC[N+]3(C)CC[N+](C)(C)CC3)cc12

>  <score_type>  (14) 
oracle

>  <origin>  (14) 
adg

>  <m_score__min__energy>  (14) 
-3.1499999999999999

>  <m_primary>  (14) 
energy

$$$$
14:0
     RDKit          3D

 53 52  0  0  0  0  0  0  0  0999 V2000
   57.3800   32.0985   43.4823 H   0  0  0  0  0  0  0  0  0  0  0  0
   57.4040   31.8560   44.5550 C   0  0  0  0  0  0  0  0  0  0  0  0
   57.4490   30.5730   44.9460 C   0  0  0  0  0  0  0  0  0  0  0  0
   56.6111   29.9042   44.6999 H   0  0  0  0  0  0  0  0  0  0  0  0
   58.6200   30.0340   45.7120 C   0  0  0  0  0  0  0  0  0  0  0  0
   58.6329   28.9368   45.6349 H   0  0  0  0  0  0  0  0  0  0  0  0
   59.5494   30.4462   45.2920 H   0  0  0  0  0  0  0  0  0  0  0  0
   58.5120   30.4230   47.1270 N   0  0  0  0  0  0  0  0  0  0  0  0
   58.8160   31.4220   47.2090 H   0  0  0  0  0  0  0  0  0  0  0  0
   59.3840   29.6090   47.9850 C   0  0  0  0  0  0  0  0  0  0  0  0
   59.5419   30.1358   48.9376 H   0  0  0  0  0  0  0  0  0  0  0  0
   58.8961   28.6376   48.1531 H   0  0  0  0  0  0  0  0  0  0  0  0
   60.7470   29.3580   47.3200 C   0  0  0  0  0  0  0  0  0  0  0  0
   61.4238   28.9225   48.0699 H   0  0  0  0  0  0  0  0  0  0  0  0
   60.5693   28.6824   46.4703 H   0  0  0  0  0  0  0  0  0  0  0  0
   61.4030   30.6250   46.7540 C   0  0  0  0  0  0  0  0  0  0  0  0
   62.4941   30.5496   46.8716 H   0  0  0  0  0  0  0  0  0  0  0  0
   61.1381   30.7144   45.6901 H   0  0  0  0  0  0  0  0  0  0  0  0
   60.9230   31.8220   47.4620 N   0  0  0  0  0  0  0  0  0  0  0  0
   59.9540   32.0370   47.1270 H   0  0  0  0  0  0  0  0  0  0  0  0
   61.7710   33.0030   47.2190 C   0  0  0  0  0  0  0  0  0  0  0  0
   62.7165   32.6825   46.7572 H   0  0  0  0  0  0  0  0  0  0  0  0
   61.2401   33.6939   46.5475 H   0  0  0  0  0  0  0  0  0  0  0  0
   62.0710   33.7220   48.5420 C   0  0  0  0  0  0  0  0  0  0  0  0
   63.0940   33.4628   48.8524 H   0  0  0  0  0  0  0  0  0  0  0  0
   61.9453   34.7987   48.3549 H   0  0  0  0  0  0  0  0  0  0  0  0
   61.1110   33.3540   49.6850 C   0  0  0  0  0  0  0  0  0  0  0  0
   61.1140   32.2612   49.8106 H   0  0  0  0  0  0  0  0  0  0  0  0
   61.4606   33.8657   50.5938 H   0  0  0  0  0  0  0  0  0  0  0  0
   59.6650   33.8170   49.4120 C   0  0  0  0  0  0  0  0  0  0  0  0
   59.2507   34.2482   50.3352 H   0  0  0  0  0  0  0  0  0  0  0  0
   59.6953   34.5605   48.6019 H   0  0  0  0  0  0  0  0  0  0  0  0
   58.7990   32.7070   48.9760 N   0  0  0  0  0  0  0  0  0  0  0  0
   59.2610   32.1880   48.1890 H   0  0  0  0  0  0  0  0  0  0  0  0
   58.4940   31.7630   50.0640 C   0  0  0  0  0  0  0  0  0  0  0  0
   57.6085   31.1698   49.7918 H   0  0  0  0  0  0  0  0  0  0  0  0
   59.3595   31.1013   50.2160 H   0  0  0  0  0  0  0  0  0  0  0  0
   58.2150   32.5170   51.3570 C   0  0  0  0  0  0  0  0  0  0  0  0
   58.4535   31.8726   52.2160 H   0  0  0  0  0  0  0  0  0  0  0  0
   58.8373   33.4233   51.3946 H   0  0  0  0  0  0  0  0  0  0  0  0
   57.1527   32.7999   51.3946 H   0  0  0  0  0  0  0  0  0  0  0  0
   57.3860   32.9690   45.5740 C   0  0  0  0  0  0  0  0  0  0  0  0
   56.6811   32.7040   46.3758 H   0  0  0  0  0  0  0  0  0  0  0  0
   57.0793   33.8922   45.0605 H   0  0  0  0  0  0  0  0  0  0  0  0
   58.7130   33.2010   46.1670 N   0  0  0  0  0  0  0  0  0  0  0  0
   58.8070   32.6260   47.0350 H   0  0  0  0  0  0  0  0  0  0  0  0
   58.9480   34.6180   46.4890 C   0  0  0  0  0  0  0  0  0  0  0  0
   59.6049   34.6863   47.3687 H   0  0  0  0  0  0  0  0  0  0  0  0
   57.9833   35.1020   46.7013 H   0  0  0  0  0  0  0  0  0  0  0  0
   59.6100   35.3250   45.3100 C   0  0  0  0  0  0  0  0  0  0  0  0
   60.3168   36.0799   45.6850 H   0  0  0  0  0  0  0  0  0  0  0  0
   60.1508   34.5885   44.6975 H   0  0  0  0  0  0  0  0  0  0  0  0
   58.8396   35.8163   44.6975 H   0  0  0  0  0  0  0  0  0  0  0  0
  1  2  1  0
  2  3  2  0
  3  4  1  0
  3  5  1  0
  5  6  1  0
  5  7  1  0
  5  8  1  0
  8  9  1  0
  8 10  1  0
 10 11  1  0
 10 12  1  0
 10 13  1  0
 13 14  1  0
 13 15  1  0
 13 16  1  0
 16 17  1  0
 16 18  1  0
 16 19  1  0
 19 20  1  0
 19 21  1  0
 21 22  1  0
 21 23  1  0
 21 24  1  0
 24 25  1  0
 24 26  1  0
 24 27  1  0
 27 28  1  0
 27 29  1  0
 27 30  1  0
 30 31  1  0
 30 32  1  0
 30 33  1  0
 33 34  1  0
 33 35  1  0
 35 36  1  0
 35 37  1  0
 35 38  1  0
 38 39  1  0
 38 40  1  0
 38 41  1  0
  2 42  1  0
 42 43  1  0
 42 44  1  0
 42 45  1  0
 45 46  1  0
 45 47  1  0
 47 48  1  0
 47 49  1  0
 47 50  1  0
 50 51  1  0
 50 52  1  0
 50 53  1  0
M  END
>  <UniqueID>  (15) 
15

>  <SMILES>  (15) 
CCNC/C=C/CNCCCNCCCCNCC

>  <Energy>  (15) 
29.374407765321312

>  <Genealogy>  (15) 
CCNC/C=C/CNCCCNCCCCNCC (cis-trans isomerization)
CCNC/C=C/CNCCCNCCCCNCC (3D coordinates assigned)
CCNC/C=C/CNCCCNCCCCNCC (optimized conformer: 29.374407765321312 kcal/mol)

>  <smiles>  (15) 
CCNCC=CCNCCCNCCCCNCC

>  <score_type>  (15) 
oracle

>  <origin>  (15) 
adg

>  <m_score__min__energy>  (15) 
-3.1400000000000001

>  <m_primary>  (15) 
energy

$$$$
15:0
     RDKit          3D

 45 47  0  0  0  0  0  0  0  0999 V2000
   55.6960   30.0100   43.9440 C   0  0  0  0  0  0  0  0  0  0  0  0
   56.6330   30.3490   42.7900 C   0  0  0  0  0  0  0  0  0  0  0  0
   57.4670   31.5120   43.1230 N   0  0  0  0  0  0  0  0  0  0  0  0
   58.1660   32.2400   42.0580 C   0  0  0  0  0  0  0  0  0  0  0  0
   57.2900   32.3480   40.8150 C   0  0  0  0  0  0  0  0  0  0  0  0
   57.8070   31.7630   44.5020 C   0  0  0  0  0  0  0  0  0  0  0  0
   57.2110   32.8590   45.1310 C   0  0  0  0  0  0  0  0  0  0  0  0
   57.5340   33.1750   46.4390 C   0  0  0  0  0  0  0  0  0  0  0  0
   58.4730   32.4090   47.1250 C   0  0  0  0  0  0  0  0  0  0  0  0
   58.8120   32.7410   48.4460 C   0  0  0  0  0  0  0  0  0  0  0  0
   59.7580   31.9880   49.1390 C   0  0  0  0  0  0  0  0  0  0  0  0
   60.3740   30.9020   48.5200 C   0  0  0  0  0  0  0  0  0  0  0  0
   60.0450   30.5590   47.2060 C   0  0  0  0  0  0  0  0  0  0  0  0
   59.0800   31.3000   46.4770 C   0  0  0  0  0  0  0  0  0  0  0  0
   58.7220   30.9760   45.1770 N   0  0  0  0  0  0  0  0  0  0  0  0
   59.3130   29.7940   44.5010 C   0  0  0  0  0  0  0  0  0  0  0  0
   58.5790   28.5120   44.8340 C   0  0  0  0  0  0  0  0  0  0  0  0
   58.4900   27.5020   43.8610 C   0  0  0  0  0  0  0  0  0  0  0  0
   57.7950   26.3190   44.1290 C   0  0  0  0  0  0  0  0  0  0  0  0
   57.1710   26.1380   45.3660 C   0  0  0  0  0  0  0  0  0  0  0  0
   57.2390   27.1400   46.3350 C   0  0  0  0  0  0  0  0  0  0  0  0
   57.9330   28.3260   46.0720 C   0  0  0  0  0  0  0  0  0  0  0  0
   56.2088   30.1955   44.8993 H   0  0  0  0  0  0  0  0  0  0  0  0
   54.7960   30.6395   43.8826 H   0  0  0  0  0  0  0  0  0  0  0  0
   55.4072   28.9504   43.8826 H   0  0  0  0  0  0  0  0  0  0  0  0
   57.2827   29.4850   42.5866 H   0  0  0  0  0  0  0  0  0  0  0  0
   56.0289   30.5893   41.9027 H   0  0  0  0  0  0  0  0  0  0  0  0
   58.4139   33.2508   42.4141 H   0  0  0  0  0  0  0  0  0  0  0  0
   59.0834   31.6916   41.7978 H   0  0  0  0  0  0  0  0  0  0  0  0
   56.2401   32.4774   41.1165 H   0  0  0  0  0  0  0  0  0  0  0  0
   57.6088   33.2136   40.2158 H   0  0  0  0  0  0  0  0  0  0  0  0
   57.3890   31.4308   40.2158 H   0  0  0  0  0  0  0  0  0  0  0  0
   56.4813   33.4738   44.5837 H   0  0  0  0  0  0  0  0  0  0  0  0
   57.0502   34.0291   46.9355 H   0  0  0  0  0  0  0  0  0  0  0  0
   58.3290   33.5991   48.9363 H   0  0  0  0  0  0  0  0  0  0  0  0
   60.0185   32.2509   50.1749 H   0  0  0  0  0  0  0  0  0  0  0  0
   61.1229   30.3119   49.0685 H   0  0  0  0  0  0  0  0  0  0  0  0
   60.5421   29.7011   46.7296 H   0  0  0  0  0  0  0  0  0  0  0  0
   59.2723   29.9521   43.4132 H   0  0  0  0  0  0  0  0  0  0  0  0
   60.3494   29.6887   44.8543 H   0  0  0  0  0  0  0  0  0  0  0  0
   58.9706   27.6432   42.8817 H   0  0  0  0  0  0  0  0  0  0  0  0
   57.7393   25.5296   43.3650 H   0  0  0  0  0  0  0  0  0  0  0  0
   56.6262   25.2058   45.5761 H   0  0  0  0  0  0  0  0  0  0  0  0
   56.7458   26.9970   47.3078 H   0  0  0  0  0  0  0  0  0  0  0  0
   57.9744   29.1169   46.8354 H   0  0  0  0  0  0  0  0  0  0  0  0
  1  2  1  0
  2  3  1  0
  3  4  1  0
  4  5  1  0
  3  6  1  0
  6  7  2  0
  7  8  1  0
  8  9  2  0
  9 10  1  0
 10 11  2  0
 11 12  1  0
 12 13  2  0
 13 14  1  0
 14 15  2  0
 15 16  1  0
 16 17  1  0
 17 18  2  0
 18 19  1  0
 19 20  2  0
 20 21  1  0
 21 22  2  0
 15  6  1  0
 22 17  1  0
 14  9  1  0
  1 23  1  0
  1 24  1  0
  1 25  1  0
  2 26  1  0
  2 27  1  0
  4 28  1  0
  4 29  1  0
  5 30  1  0
  5 31  1  0
  5 32  1  0
  7 33  1  0
  8 34  1  0
 10 35  1  0
 11 36  1  0
 12 37  1  0
 13 38  1  0
 16 39  1  0
 16 40  1  0
 18 41  1  0
 19 42  1  0
 20 43  1  0
 21 44  1  0
 22 45  1  0
M  CHG  1  15   1
M  END
>  <UniqueID>  (16) 
16

>  <SMILES>  (16) 
CCN(CC)c1ccc2ccccc2[n+]1Cc1ccccc1

>  <Energy>  (16) 
55.335719917416014

>  <Genealogy>  (16) 
CCN(CC)c1ccc2ccccc2[n+]1Cc1ccccc1 (3D coordinates assigned)
CCN(CC)c1ccc2ccccc2[n+]1Cc1ccccc1 (optimized conformer: 55.335719917416014 kcal/mol)

>  <smiles>  (16) 
CCN(CC)c1ccc2ccccc2[n+]1Cc1ccccc1

>  <score_type>  (16) 
oracle

>  <origin>  (16) 
adg

>  <m_score__min__energy>  (16) 
-5.4500000000000002

>  <m_primary>  (16) 
energy

$$$$
16:0
     RDKit          3D

 66 68  0  0  0  0  0  0  0  0999 V2000
   61.1910   29.8580   49.2240 C   0  0  0  0  0  0  0  0  0  0  0  0
   59.7560   29.5270   48.7770 C   0  0  0  0  0  0  0  0  0  0  0  0
   59.4410   29.8840   47.3690 N   0  0  0  0  0  0  0  0  0  0  0  0
   60.6410   30.2910   46.6160 C   0  0  0  0  0  0  0  0  0  0  0  0
   58.6450   28.8650   46.6440 C   0  0  0  0  0  0  0  0  0  0  0  0
   59.1710   28.6700   45.2160 C   0  0  0  0  0  0  0  0  0  0  0  0
   58.1600   28.1960   44.3430 O   0  0  0  0  0  0  0  0  0  0  0  0
   57.0420   29.0620   44.3560 C   0  0  0  0  0  0  0  0  0  0  0  0
   57.5060   30.4820   44.0550 C   0  0  0  0  0  0  0  0  0  0  0  0
   57.3870   31.2760   45.2120 O   0  0  0  0  0  0  0  0  0  0  0  0
   57.9800   32.4680   44.9270 N   0  0  0  0  0  0  0  0  0  0  0  0
   57.2060   33.5290   45.5750 C   0  0  0  0  0  0  0  0  0  0  0  0
   57.7610   33.8350   46.9690 C   0  0  0  0  0  0  0  0  0  0  0  0
   58.6120   32.7440   47.4550 N   0  0  0  0  0  0  0  0  0  0  0  0
   59.5640   32.9500   48.5160 C   0  0  0  0  0  0  0  0  0  0  0  0
   60.8500   33.4440   48.2290 C   0  0  0  0  0  0  0  0  0  0  0  0
   61.8040   33.5490   49.2550 C   0  0  0  0  0  0  0  0  0  0  0  0
   61.4430   33.3480   50.5700 N   0  0  0  0  0  0  0  0  0  0  0  0
   62.3690   33.7460   51.6510 C   0  0  0  0  0  0  0  0  0  0  0  0
   60.2090   32.8010   50.8720 C   0  0  0  0  0  0  0  0  0  0  0  0
   59.8820   32.3830   52.1860 C   0  0  0  0  0  0  0  0  0  0  0  0
   58.6180   31.8770   52.4870 C   0  0  0  0  0  0  0  0  0  0  0  0
   57.6570   31.7540   51.4910 C   0  0  0  0  0  0  0  0  0  0  0  0
   57.9620   32.1120   50.1800 C   0  0  0  0  0  0  0  0  0  0  0  0
   59.2360   32.6230   49.8470 C   0  0  0  0  0  0  0  0  0  0  0  0
   63.2190   33.9280   48.8450 C   0  0  0  0  0  0  0  0  0  0  0  0
   63.6020   33.2470   47.5210 C   0  0  0  0  0  0  0  0  0  0  0  0
   62.5740   33.4660   46.3880 C   0  0  0  0  0  0  0  0  0  0  0  0
   61.2180   34.0070   46.8730 C   0  0  0  0  0  0  0  0  0  0  0  0
   61.2394   29.8692   50.3229 H   0  0  0  0  0  0  0  0  0  0  0  0
   61.8815   29.0955   48.8343 H   0  0  0  0  0  0  0  0  0  0  0  0
   61.4778   30.8459   48.8343 H   0  0  0  0  0  0  0  0  0  0  0  0
   59.6016   28.4446   48.8978 H   0  0  0  0  0  0  0  0  0  0  0  0
   59.0890   30.1349   49.4060 H   0  0  0  0  0  0  0  0  0  0  0  0
   61.4412   30.5624   47.3202 H   0  0  0  0  0  0  0  0  0  0  0  0
   60.9771   29.4566   45.9829 H   0  0  0  0  0  0  0  0  0  0  0  0
   60.4002   31.1577   45.9829 H   0  0  0  0  0  0  0  0  0  0  0  0
   58.7074   27.9087   47.1840 H   0  0  0  0  0  0  0  0  0  0  0  0
   57.6017   29.2093   46.5891 H   0  0  0  0  0  0  0  0  0  0  0  0
   59.5438   29.6338   44.8391 H   0  0  0  0  0  0  0  0  0  0  0  0
   59.9751   27.9201   45.2472 H   0  0  0  0  0  0  0  0  0  0  0  0
   56.3190   28.7412   43.5916 H   0  0  0  0  0  0  0  0  0  0  0  0
   56.5618   29.0315   45.3452 H   0  0  0  0  0  0  0  0  0  0  0  0
   58.5572   30.4623   43.7317 H   0  0  0  0  0  0  0  0  0  0  0  0
   56.8814   30.9074   43.2557 H   0  0  0  0  0  0  0  0  0  0  0  0
   57.9050   32.5920   43.8910 H   0  0  0  0  0  0  0  0  0  0  0  0
   57.2563   34.4392   44.9593 H   0  0  0  0  0  0  0  0  0  0  0  0
   56.1638   33.1922   45.6772 H   0  0  0  0  0  0  0  0  0  0  0  0
   58.3551   34.7596   46.9231 H   0  0  0  0  0  0  0  0  0  0  0  0
   56.9146   33.9502   47.6621 H   0  0  0  0  0  0  0  0  0  0  0  0
   58.6920   31.8900   46.8600 H   0  0  0  0  0  0  0  0  0  0  0  0
   61.9018   33.5452   52.6264 H   0  0  0  0  0  0  0  0  0  0  0  0
   63.3018   33.1693   51.5656 H   0  0  0  0  0  0  0  0  0  0  0  0
   62.5925   34.8197   51.5656 H   0  0  0  0  0  0  0  0  0  0  0  0
   60.6378   32.4590   52.9816 H   0  0  0  0  0  0  0  0  0  0  0  0
   58.3806   31.5739   53.5174 H   0  0  0  0  0  0  0  0  0  0  0  0
   56.6548   31.3737   51.7380 H   0  0  0  0  0  0  0  0  0  0  0  0
   57.2012   31.9953   49.3941 H   0  0  0  0  0  0  0  0  0  0  0  0
   63.2787   35.0193   48.7202 H   0  0  0  0  0  0  0  0  0  0  0  0
   63.9155   33.5947   49.6285 H   0  0  0  0  0  0  0  0  0  0  0  0
   64.5718   33.6486   47.1920 H   0  0  0  0  0  0  0  0  0  0  0  0
   63.6392   32.1650   47.7157 H   0  0  0  0  0  0  0  0  0  0  0  0
   62.9970   34.1845   45.6706 H   0  0  0  0  0  0  0  0  0  0  0  0
   62.3820   32.4816   45.9362 H   0  0  0  0  0  0  0  0  0  0  0  0
   61.2752   35.1032   46.9445 H   0  0  0  0  0  0  0  0  0  0  0  0
   60.4461   33.7018   46.1512 H   0  0  0  0  0  0  0  0  0  0  0  0
  1  2  1  0
  2  3  1  0
  3  4  1  0
  3  5  1  0
  5  6  1  0
  6  7  1  0
  7  8  1  0
  8  9  1  0
  9 10  1  0
 10 11  1  0
 11 12  1  0
 12 13  1  0
 13 14  1  0
 14 15  1  0
 15 16  2  0
 16 17  1  0
 17 18  2  0
 18 19  1  0
 18 20  1  0
 20 21  2  0
 21 22  1  0
 22 23  2  0
 23 24  1  0
 24 25  2  0
 17 26  1  0
 26 27  1  0
 27 28  1  0
 28 29  1  0
 25 15  1  0
 29 16  1  0
 25 20  1  0
  1 30  1  0
  1 31  1  0
  1 32  1  0
  2 33  1  0
  2 34  1  0
  4 35  1  0
  4 36  1  0
  4 37  1  0
  5 38  1  0
  5 39  1  0
  6 40  1  0
  6 41  1  0
  8 42  1  0
  8 43  1  0
  9 44  1  0
  9 45  1  0
 11 46  1  0
 12 47  1  0
 12 48  1  0
 13 49  1  0
 13 50  1  0
 14 51  1  0
 19 52  1  0
 19 53  1  0
 19 54  1  0
 21 55  1  0
 22 56  1  0
 23 57  1  0
 24 58  1  0
 26 59  1  0
 26 60  1  0
 27 61  1  0
 27 62  1  0
 28 63  1  0
 28 64  1  0
 29 65  1  0
 29 66  1  0
M  CHG  1  18   1
M  END
>  <UniqueID>  (17) 
17

>  <SMILES>  (17) 
CCN(C)CCOCCONCCNc1c2c([n+](C)c3ccccc13)CCCC2

>  <Energy>  (17) 
86.29345797119561

>  <Genealogy>  (17) 
CCN(C)CCOCCONCCNc1c2c([n+](C)c3ccccc13)CCCC2 (3D coordinates assigned)
CCN(C)CCOCCONCCNc1c2c([n+](C)c3ccccc13)CCCC2 (nonaromatic ring conformer: 86.29345797119561 kcal/mol)

>  <smiles>  (17) 
CCN(C)CCOCCONCCNc1c2c([n+](C)c3ccccc13)CCCC2

>  <score_type>  (17) 
oracle

>  <origin>  (17) 
adg

>  <m_score__min__energy>  (17) 
-7.6200000000000001

>  <m_primary>  (17) 
energy

$$$$
17:0
     RDKit          3D

 71 73  0  0  0  0  0  0  0  0999 V2000
   62.7180   33.4770   46.9020 C   0  0  0  0  0  0  0  0  0  0  0  0
   62.4850   32.1060   47.5200 C   0  0  0  0  0  0  0  0  0  0  0  0
   63.3510   31.9540   48.6230 O   0  0  0  0  0  0  0  0  0  0  0  0
   64.1650   33.1010   48.7860 C   0  0  0  0  0  0  0  0  0  0  0  0
   65.2960   32.8430   49.8010 C   0  0  0  0  0  0  0  0  0  0  0  0
   65.0280   31.7120   50.6110 O   0  0  0  0  0  0  0  0  0  0  0  0
   64.5980   32.0990   51.9010 C   0  0  0  0  0  0  0  0  0  0  0  0
   63.0990   31.7800   52.0460 C   0  0  0  0  0  0  0  0  0  0  0  0
   62.5560   31.0130   50.9030 N   0  0  0  0  0  0  0  0  0  0  0  0
   61.7480   29.8390   51.2890 C   0  0  0  0  0  0  0  0  0  0  0  0
   60.2410   30.1210   51.3550 C   0  0  0  0  0  0  0  0  0  0  0  0
   59.8690   31.0740   50.3600 O   0  0  0  0  0  0  0  0  0  0  0  0
   59.5530   30.7570   49.0320 C   0  0  0  0  0  0  0  0  0  0  0  0
   59.7290   29.4230   48.6100 C   0  0  0  0  0  0  0  0  0  0  0  0
   59.4140   29.0360   47.2980 C   0  0  0  0  0  0  0  0  0  0  0  0
   58.9100   30.0030   46.4210 C   0  0  0  0  0  0  0  0  0  0  0  0
   58.7280   31.3040   46.8260 C   0  0  0  0  0  0  0  0  0  0  0  0
   59.0530   31.7190   48.1230 C   0  0  0  0  0  0  0  0  0  0  0  0
   58.1910   31.9980   45.7510 C   0  0  0  0  0  0  0  0  0  0  0  0
   57.7970   33.4270   45.7090 C   0  0  0  0  0  0  0  0  0  0  0  0
   56.6580   33.7830   46.1120 O   0  0  0  0  0  0  0  0  0  0  0  0
   58.6870   34.3870   45.2190 O   0  0  0  0  0  0  0  0  0  0  0  0
   59.7000   34.9770   46.0230 C   0  0  0  0  0  0  0  0  0  0  0  0
   59.2940   34.9160   47.4870 C   0  0  0  0  0  0  0  0  0  0  0  0
   58.0700   31.0540   44.7210 C   0  0  0  0  0  0  0  0  0  0  0  0
   57.5040   31.3540   43.3560 C   0  0  0  0  0  0  0  0  0  0  0  0
   58.5170   29.8330   45.1380 N   0  0  0  0  0  0  0  0  0  0  0  0
   58.6310   28.5870   44.3630 C   0  0  0  0  0  0  0  0  0  0  0  0
   58.0920   27.4220   45.1520 C   0  0  0  0  0  0  0  0  0  0  0  0
   58.9090   26.3080   45.4190 C   0  0  0  0  0  0  0  0  0  0  0  0
   58.4120   25.2240   46.1490 C   0  0  0  0  0  0  0  0  0  0  0  0
   57.0950   25.2430   46.6200 C   0  0  0  0  0  0  0  0  0  0  0  0
   56.2770   26.3480   46.3650 C   0  0  0  0  0  0  0  0  0  0  0  0
   56.7710   27.4330   45.6350 C   0  0  0  0  0  0  0  0  0  0  0  0
   62.8447   34.2225   47.7008 H   0  0  0  0  0  0  0  0  0  0  0  0
   63.6243   33.4493   46.2792 H   0  0  0  0  0  0  0  0  0  0  0  0
   61.8534   33.7502   46.2792 H   0  0  0  0  0  0  0  0  0  0  0  0
   61.4406   32.0238   47.8553 H   0  0  0  0  0  0  0  0  0  0  0  0
   62.6844   31.3207   46.7760 H   0  0  0  0  0  0  0  0  0  0  0  0
   64.6082   33.3672   47.8151 H   0  0  0  0  0  0  0  0  0  0  0  0
   63.5381   33.9217   49.1646 H   0  0  0  0  0  0  0  0  0  0  0  0
   66.2346   32.6741   49.2529 H   0  0  0  0  0  0  0  0  0  0  0  0
   65.3740   33.7226   50.4569 H   0  0  0  0  0  0  0  0  0  0  0  0
   65.1682   31.5452   52.6614 H   0  0  0  0  0  0  0  0  0  0  0  0
   64.7637   33.1775   52.0401 H   0  0  0  0  0  0  0  0  0  0  0  0
   62.9535   31.1911   52.9636 H   0  0  0  0  0  0  0  0  0  0  0  0
   62.5614   32.7390   52.0827 H   0  0  0  0  0  0  0  0  0  0  0  0
   63.3700   30.6430   50.3600 H   0  0  0  0  0  0  0  0  0  0  0  0
   62.0250   31.6230   50.2390 H   0  0  0  0  0  0  0  0  0  0  0  0
   61.9199   29.0415   50.5511 H   0  0  0  0  0  0  0  0  0  0  0  0
   62.0652   29.5498   52.3018 H   0  0  0  0  0  0  0  0  0  0  0  0
   59.6893   29.1848   51.1844 H   0  0  0  0  0  0  0  0  0  0  0  0
   59.9973   30.5279   52.3475 H   0  0  0  0  0  0  0  0  0  0  0  0
   60.1180   28.6763   49.3179 H   0  0  0  0  0  0  0  0  0  0  0  0
   59.5599   27.9972   46.9671 H   0  0  0  0  0  0  0  0  0  0  0  0
   58.9227   32.7678   48.4280 H   0  0  0  0  0  0  0  0  0  0  0  0
   60.6435   34.4293   45.8823 H   0  0  0  0  0  0  0  0  0  0  0  0
   59.8344   36.0276   45.7261 H   0  0  0  0  0  0  0  0  0  0  0  0
   60.1836   35.0497   48.1201 H   0  0  0  0  0  0  0  0  0  0  0  0
   58.5689   35.7153   47.7000 H   0  0  0  0  0  0  0  0  0  0  0  0
   58.8358   33.9389   47.7000 H   0  0  0  0  0  0  0  0  0  0  0  0
   56.5368   31.8666   43.4647 H   0  0  0  0  0  0  0  0  0  0  0  0
   58.2017   32.0007   42.8038 H   0  0  0  0  0  0  0  0  0  0  0  0
   57.3605   30.4135   42.8038 H   0  0  0  0  0  0  0  0  0  0  0  0
   58.0578   28.6879   43.4296 H   0  0  0  0  0  0  0  0  0  0  0  0
   59.6923   28.4038   44.1392 H   0  0  0  0  0  0  0  0  0  0  0  0
   59.9455   26.2898   45.0510 H   0  0  0  0  0  0  0  0  0  0  0  0
   59.0566   24.3563   46.3529 H   0  0  0  0  0  0  0  0  0  0  0  0
   56.7028   24.3886   47.1911 H   0  0  0  0  0  0  0  0  0  0  0  0
   55.2428   26.3635   46.7395 H   0  0  0  0  0  0  0  0  0  0  0  0
   56.1233   28.2998   45.4373 H   0  0  0  0  0  0  0  0  0  0  0  0
  1  2  1  0
  2  3  1  0
  3  4  1  0
  4  5  1  0
  5  6  1  0
  6  7  1  0
  7  8  1  0
  8  9  1  0
  9 10  1  0
 10 11  1  0
 11 12  1  0
 12 13  1  0
 13 14  2  0
 14 15  1  0
 15 16  2  0
 16 17  1  0
 17 18  2  0
 17 19  1  0
 19 20  1  0
 20 21  2  0
 20 22  1  0
 22 23  1  0
 23 24  1  0
 19 25  2  0
 25 26  1  0
 25 27  1  0
 27 28  1  0
 28 29  1  0
 29 30  2  0
 30 31  1  0
 31 32  2  0
 32 33  1  0
 33 34  2  0
 18 13  1  0
 34 29  1  0
 27 16  1  0
  1 35  1  0
  1 36  1  0
  1 37  1  0
  2 38  1  0
  2 39  1  0
  4 40  1  0
  4 41  1  0
  5 42  1  0
  5 43  1  0
  7 44  1  0
  7 45  1  0
  8 46  1  0
  8 47  1  0
  9 48  1  0
  9 49  1  0
 10 50  1  0
 10 51  1  0
 11 52  1  0
 11 53  1  0
 14 54  1  0
 15 55  1  0
 18 56  1  0
 23 57  1  0
 23 58  1  0
 24 59  1  0
 24 60  1  0
 24 61  1  0
 26 62  1  0
 26 63  1  0
 26 64  1  0
 28 65  1  0
 28 66  1  0
 30 67  1  0
 31 68  1  0
 32 69  1  0
 33 70  1  0
 34 71  1  0
M  CHG  1   9   1
M  END
>  <UniqueID>  (18) 
18

>  <SMILES>  (18) 
CCOCCOCC[NH2+]CCOc1ccc2c(c1)c(C(=O)OCC)c(C)n2Cc1ccccc1

>  <Energy>  (18) 
101.74630630114403

>  <Genealogy>  (18) 
CCOCCOCC[NH2+]CCOc1ccc2c(c1)c(C(=O)OCC)c(C)n2Cc1ccccc1 (protonated)
CCOCCOCC[NH2+]CCOc1ccc2c(c1)c(C(=O)OCC)c(C)n2Cc1ccccc1 (3D coordinates assigned)
CCOCCOCC[NH2+]CCOc1ccc2c(c1)c(C(=O)OCC)c(C)n2Cc1ccccc1 (optimized conformer: 101.74630630114403 kcal/mol)

>  <smiles>  (18) 
CCOCCOCCNCCOc1ccc2c(c1)c(C(=O)OCC)c(C)n2Cc1ccccc1

>  <score_type>  (18) 
oracle

>  <origin>  (18) 
adg

>  <m_score__min__energy>  (18) 
-6.0700000000000003

>  <m_primary>  (18) 
energy

$$$$
18:0
     RDKit          3D

 35 35  0  0  0  0  0  0  0  0999 V2000
   52.7100   24.3760   45.2580 C   0  0  0  0  0  0  0  0  0  0  0  0
   54.1760   24.5480   45.6180 C   0  0  0  0  0  0  0  0  0  0  0  0
   54.4730   25.9270   45.7650 O   0  0  0  0  0  0  0  0  0  0  0  0
   55.6600   26.3210   46.3460 N   0  0  0  0  0  0  0  0  0  0  0  0
   56.8050   26.1300   45.7690 C   0  0  0  0  0  0  0  0  0  0  0  0
   57.8930   27.1720   45.7940 C   0  0  2  0  0  0  0  0  0  0  0  0
   58.9790   26.7640   46.7960 C   0  0  0  0  0  0  0  0  0  0  0  0
   57.2960   28.4570   46.1710 N   0  0  0  0  0  0  0  0  0  0  0  0
   56.6800   29.3400   44.8010 S   0  0  0  0  0  0  0  0  0  0  0  0
   57.0330   28.5850   43.5500 O   0  0  0  0  0  0  0  0  0  0  0  0
   55.1820   29.4340   44.8750 O   0  0  0  0  0  0  0  0  0  0  0  0
   57.3740   30.9580   44.6970 C   0  0  0  0  0  0  0  0  0  0  0  0
   57.5510   31.5730   43.4500 C   0  0  0  0  0  0  0  0  0  0  0  0
   58.1120   32.8490   43.3680 C   0  0  0  0  0  0  0  0  0  0  0  0
   58.5070   33.5170   44.5310 C   0  0  0  0  0  0  0  0  0  0  0  0
   58.3320   32.9150   45.7850 C   0  0  0  0  0  0  0  0  0  0  0  0
   58.7940   33.6250   47.0240 C   0  0  0  0  0  0  0  0  0  0  0  0
   57.7680   31.6310   45.8630 C   0  0  0  0  0  0  0  0  0  0  0  0
   52.1121   24.3059   46.1787 H   0  0  0  0  0  0  0  0  0  0  0  0
   52.3736   25.2408   44.6673 H   0  0  0  0  0  0  0  0  0  0  0  0
   52.5829   23.4568   44.6673 H   0  0  0  0  0  0  0  0  0  0  0  0
   54.3840   24.0262   46.5638 H   0  0  0  0  0  0  0  0  0  0  0  0
   54.8001   24.1240   44.8175 H   0  0  0  0  0  0  0  0  0  0  0  0
   56.9876   25.1797   45.2460 H   0  0  0  0  0  0  0  0  0  0  0  0
   58.3598   27.2622   44.8021 H   0  0  0  0  0  0  0  0  0  0  0  0
   58.6042   26.9048   47.8205 H   0  0  0  0  0  0  0  0  0  0  0  0
   59.2402   25.7064   46.6432 H   0  0  0  0  0  0  0  0  0  0  0  0
   59.8719   27.3880   46.6432 H   0  0  0  0  0  0  0  0  0  0  0  0
   57.2467   31.0483   42.5323 H   0  0  0  0  0  0  0  0  0  0  0  0
   58.2434   33.3293   42.3872 H   0  0  0  0  0  0  0  0  0  0  0  0
   58.9567   34.5185   44.4618 H   0  0  0  0  0  0  0  0  0  0  0  0
   58.4399   33.0809   47.9120 H   0  0  0  0  0  0  0  0  0  0  0  0
   59.8931   33.6674   47.0340 H   0  0  0  0  0  0  0  0  0  0  0  0
   58.3875   34.6471   47.0340 H   0  0  0  0  0  0  0  0  0  0  0  0
   57.6346   31.1507   46.8435 H   0  0  0  0  0  0  0  0  0  0  0  0
  1  2  1  0
  2  3  1  0
  3  4  1  0
  4  5  2  3
  5  6  1  0
  6  7  1  0
  6  8  1  0
  8  9  1  0
  9 10  2  0
  9 11  2  0
  9 12  1  0
 12 13  2  0
 13 14  1  0
 14 15  2  0
 15 16  1  0
 16 17  1  0
 16 18  2  0
 18 12  1  0
  1 19  1  0
  1 20  1  0
  1 21  1  0
  2 22  1  0
  2 23  1  0
  5 24  1  0
  6 25  1  6
  7 26  1  0
  7 27  1  0
  7 28  1  0
 13 29  1  0
 14 30  1  0
 15 31  1  0
 17 32  1  0
 17 33  1  0
 17 34  1  0
 18 35  1  0
M  CHG  1   8  -1
M  END
>  <UniqueID>  (19) 
19

>  <SMILES>  (19) 
CCON=C[C@H](C)[N-]S(=O)(=O)c1cccc(C)c1

>  <Energy>  (19) 
19.958222476112013

>  <Genealogy>  (19) 
CCON=CC(C)[N-]S(=O)(=O)c1cccc(C)c1 (protonated)
CCON=C[C@H](C)[N-]S(=O)(=O)c1cccc(C)c1 (chirality)
CCON=C[C@H](C)[N-]S(=O)(=O)c1cccc(C)c1 (3D coordinates assigned)
CCON=C[C@H](C)[N-]S(=O)(=O)c1cccc(C)c1 (optimized conformer: 19.958222476112013 kcal/mol)

>  <smiles>  (19) 
CCON=CC(C)NS(=O)(=O)c1cccc(C)c1

>  <score_type>  (19) 
oracle

>  <origin>  (19) 
adg

>  <m_score__min__energy>  (19) 
-8.7699999999999996

>  <m_primary>  (19) 
energy

$$$$
19:0
     RDKit          3D

 65 68  0  0  0  0  0  0  0  0999 V2000
   56.2510   30.0230   42.6150 C   0  0  0  0  0  0  0  0  0  0  0  0
   55.6880   30.2790   44.0080 C   0  0  0  0  0  0  0  0  0  0  0  0
   56.6040   29.7550   45.0290 N   0  0  0  0  0  0  0  0  0  0  0  0
   57.9680   29.5990   44.5020 C   0  0  0  0  0  0  0  0  0  0  0  0
   58.5980   28.2630   44.9440 C   0  0  0  0  0  0  0  0  0  0  0  0
   57.6580   27.0740   44.7320 C   0  0  0  0  0  0  0  0  0  0  0  0
   56.6490   27.1070   45.7240 O   0  0  0  0  0  0  0  0  0  0  0  0
   56.8760   26.1380   46.7310 C   0  0  0  0  0  0  0  0  0  0  0  0
   58.3690   25.9320   47.0080 C   0  0  0  0  0  0  0  0  0  0  0  0
   58.8630   27.0170   47.7640 O   0  0  0  0  0  0  0  0  0  0  0  0
   60.2760   27.0150   47.7920 C   0  0  0  0  0  0  0  0  0  0  0  0
   60.8010   27.8110   48.9960 C   0  0  0  0  0  0  0  0  0  0  0  0
   59.9170   28.9280   49.3880 N   0  0  0  0  0  0  0  0  0  0  0  0
   60.5660   30.2180   49.2460 C   0  0  0  0  0  0  0  0  0  0  0  0
   60.0640   31.1550   48.3290 C   0  0  0  0  0  0  0  0  0  0  0  0
   60.6660   32.3890   48.1450 C   0  0  0  0  0  0  0  0  0  0  0  0
   61.7010   32.8110   48.9350 N   0  0  0  0  0  0  0  0  0  0  0  0
   62.0810   34.2330   48.9500 C   0  0  0  0  0  0  0  0  0  0  0  0
   62.3200   31.8900   49.7640 C   0  0  0  0  0  0  0  0  0  0  0  0
   63.5360   32.2020   50.4210 C   0  0  0  0  0  0  0  0  0  0  0  0
   64.1330   31.3030   51.2980 C   0  0  0  0  0  0  0  0  0  0  0  0
   63.5480   30.0690   51.5370 C   0  0  0  0  0  0  0  0  0  0  0  0
   62.3750   29.7060   50.8800 C   0  0  0  0  0  0  0  0  0  0  0  0
   61.7460   30.5860   49.9650 C   0  0  0  0  0  0  0  0  0  0  0  0
   59.9440   33.1050   47.0620 C   0  0  0  0  0  0  0  0  0  0  0  0
   60.2540   34.2700   46.3450 C   0  0  0  0  0  0  0  0  0  0  0  0
   59.4010   34.6670   45.3010 C   0  0  0  0  0  0  0  0  0  0  0  0
   58.2850   33.8850   44.9520 C   0  0  0  0  0  0  0  0  0  0  0  0
   58.0250   32.6840   45.6280 C   0  0  0  0  0  0  0  0  0  0  0  0
   58.8750   32.3160   46.6710 C   0  0  0  0  0  0  0  0  0  0  0  0
   58.9010   31.0840   47.4360 C   0  0  0  0  0  0  0  0  0  0  0  0
   58.0750   30.1390   47.3300 O   0  0  0  0  0  0  0  0  0  0  0  0
   57.2493   29.5691   42.7007 H   0  0  0  0  0  0  0  0  0  0  0  0
   55.5833   29.3400   42.0695 H   0  0  0  0  0  0  0  0  0  0  0  0
   56.3268   30.9752   42.0695 H   0  0  0  0  0  0  0  0  0  0  0  0
   55.5607   31.3616   44.1552 H   0  0  0  0  0  0  0  0  0  0  0  0
   54.7170   29.7707   44.1018 H   0  0  0  0  0  0  0  0  0  0  0  0
   56.6510   30.4580   45.8040 H   0  0  0  0  0  0  0  0  0  0  0  0
   57.9318   29.6303   43.4030 H   0  0  0  0  0  0  0  0  0  0  0  0
   58.5857   30.4184   44.8983 H   0  0  0  0  0  0  0  0  0  0  0  0
   59.5157   28.0956   44.3611 H   0  0  0  0  0  0  0  0  0  0  0  0
   58.8106   28.3335   46.0210 H   0  0  0  0  0  0  0  0  0  0  0  0
   57.1982   27.1396   43.7348 H   0  0  0  0  0  0  0  0  0  0  0  0
   58.2233   26.1332   44.8054 H   0  0  0  0  0  0  0  0  0  0  0  0
   56.3857   26.4689   47.6584 H   0  0  0  0  0  0  0  0  0  0  0  0
   56.4620   25.1814   46.3795 H   0  0  0  0  0  0  0  0  0  0  0  0
   58.5117   24.9979   47.5712 H   0  0  0  0  0  0  0  0  0  0  0  0
   58.9134   25.8727   46.0540 H   0  0  0  0  0  0  0  0  0  0  0  0
   60.6334   25.9771   47.8628 H   0  0  0  0  0  0  0  0  0  0  0  0
   60.6466   27.4867   46.8700 H   0  0  0  0  0  0  0  0  0  0  0  0
   60.8989   27.1264   49.8514 H   0  0  0  0  0  0  0  0  0  0  0  0
   61.7670   28.2475   48.7020 H   0  0  0  0  0  0  0  0  0  0  0  0
   59.0760   28.9120   48.7680 H   0  0  0  0  0  0  0  0  0  0  0  0
   59.5190   28.7690   50.3370 H   0  0  0  0  0  0  0  0  0  0  0  0
   62.1729   34.5770   49.9908 H   0  0  0  0  0  0  0  0  0  0  0  0
   63.0447   34.3605   48.4352 H   0  0  0  0  0  0  0  0  0  0  0  0
   61.3093   34.8242   48.4352 H   0  0  0  0  0  0  0  0  0  0  0  0
   64.0168   33.1735   50.2338 H   0  0  0  0  0  0  0  0  0  0  0  0
   65.0722   31.5717   51.8036 H   0  0  0  0  0  0  0  0  0  0  0  0
   64.0132   29.3724   52.2499 H   0  0  0  0  0  0  0  0  0  0  0  0
   61.9293   28.7194   51.0747 H   0  0  0  0  0  0  0  0  0  0  0  0
   61.1472   34.8613   46.5949 H   0  0  0  0  0  0  0  0  0  0  0  0
   59.6079   35.5974   44.7519 H   0  0  0  0  0  0  0  0  0  0  0  0
   57.6139   34.2166   44.1460 H   0  0  0  0  0  0  0  0  0  0  0  0
   57.1732   32.0489   45.3432 H   0  0  0  0  0  0  0  0  0  0  0  0
  1  2  1  0
  2  3  1  0
  3  4  1  0
  4  5  1  0
  5  6  1  0
  6  7  1  0
  7  8  1  0
  8  9  1  0
  9 10  1  0
 10 11  1  0
 11 12  1  0
 12 13  1  0
 13 14  1  0
 14 15  2  0
 15 16  1  0
 16 17  2  0
 17 18  1  0
 17 19  1  0
 19 20  2  0
 20 21  1  0
 21 22  2  0
 22 23  1  0
 23 24  2  0
 16 25  1  0
 25 26  2  0
 26 27  1  0
 27 28  2  0
 28 29  1  0
 29 30  2  0
 30 31  1  0
 31 32  2  0
 24 14  1  0
 30 25  1  0
 31 15  1  0
 24 19  1  0
  1 33  1  0
  1 34  1  0
  1 35  1  0
  2 36  1  0
  2 37  1  0
  3 38  1  0
  4 39  1  0
  4 40  1  0
  5 41  1  0
  5 42  1  0
  6 43  1  0
  6 44  1  0
  8 45  1  0
  8 46  1  0
  9 47  1  0
  9 48  1  0
 11 49  1  0
 11 50  1  0
 12 51  1  0
 12 52  1  0
 13 53  1  0
 13 54  1  0
 18 55  1  0
 18 56  1  0
 18 57  1  0
 20 58  1  0
 21 59  1  0
 22 60  1  0
 23 61  1  0
 26 62  1  0
 27 63  1  0
 28 64  1  0
 29 65  1  0
M  CHG  2  13   1  17   1
M  END
>  <UniqueID>  (20) 
20

>  <SMILES>  (20) 
CCNCCCOCCOCC[NH2+]c1c2c([n+](C)c3ccccc13)-c1ccccc1C2=O

>  <Energy>  (20) 
119.93189621943704

>  <Genealogy>  (20) 
CCNCCCOCCOCC[NH2+]c1c2c([n+](C)c3ccccc13)-c1ccccc1C2=O (protonated)
CCNCCCOCCOCC[NH2+]c1c2c([n+](C)c3ccccc13)-c1ccccc1C2=O (3D coordinates assigned)
CCNCCCOCCOCC[NH2+]c1c2c([n+](C)c3ccccc13)-c1ccccc1C2=O (nonaromatic ring conformer: 119.93189621943704 kcal/mol)

>  <smiles>  (20) 
CCNCCCOCCOCCNc1c2c([n+](C)c3ccccc13)-c1ccccc1C2=O

>  <score_type>  (20) 
oracle

>  <origin>  (20) 
adg

>  <m_score__min__energy>  (20) 
-5.4000000000000004

>  <m_primary>  (20) 
energy

$$$$
