0:0
     RDKit          3D

 43 45  0  0  0  0  0  0  0  0999 V2000
   61.3620   34.0130   48.6240 C   0  0  0  0  0  0  0  0  0  0  0  0
   59.9600   34.5750   48.4210 C   0  0  0  0  0  0  0  0  0  0  0  0
   59.5340   34.3910   47.0330 N   0  0  0  0  0  0  0  0  0  0  0  0
   59.6480   35.3060   46.0400 C   0  0  0  0  0  0  0  0  0  0  0  0
   59.0840   34.8230   44.8640 C   0  0  0  0  0  0  0  0  0  0  0  0
   58.6030   33.5710   45.1790 C   0  0  0  0  0  0  0  0  0  0  0  0
   57.9330   32.6390   44.3910 C   0  0  0  0  0  0  0  0  0  0  0  0
   57.5360   31.4260   44.9910 C   0  0  0  0  0  0  0  0  0  0  0  0
   56.7100   30.2060   44.0260 S   0  0  0  0  0  0  0  0  0  0  0  0
   55.4910   29.7110   44.7530 O   0  0  0  0  0  0  0  0  0  0  0  0
   56.2690   30.8230   42.7280 O   0  0  0  0  0  0  0  0  0  0  0  0
   57.7730   28.8740   43.6950 N   0  0  0  0  0  0  0  0  0  0  0  0
   58.2300   28.2770   44.9530 C   0  0  0  0  0  0  0  0  0  0  0  0
   59.7540   28.3730   45.0690 C   0  0  0  0  0  0  0  0  0  0  0  0
   60.1660   29.0120   46.3700 C   0  0  0  0  0  0  0  0  0  0  0  0
   61.0470   30.1050   46.3720 C   0  0  0  0  0  0  0  0  0  0  0  0
   61.4050   30.7190   47.5770 C   0  0  0  0  0  0  0  0  0  0  0  0
   60.8800   30.2520   48.7840 C   0  0  0  0  0  0  0  0  0  0  0  0
   59.9940   29.1700   48.7890 C   0  0  0  0  0  0  0  0  0  0  0  0
   59.6340   28.5540   47.5870 C   0  0  0  0  0  0  0  0  0  0  0  0
   57.8270   31.1840   46.3560 C   0  0  0  0  0  0  0  0  0  0  0  0
   58.5040   32.1470   47.1250 C   0  0  0  0  0  0  0  0  0  0  0  0
   58.8840   33.3370   46.5000 C   0  0  0  0  0  0  0  0  0  0  0  0
   61.5711   33.9292   49.7007 H   0  0  0  0  0  0  0  0  0  0  0  0
   61.4292   33.0184   48.1589 H   0  0  0  0  0  0  0  0  0  0  0  0
   62.0976   34.6857   48.1589 H   0  0  0  0  0  0  0  0  0  0  0  0
   59.2593   34.0513   49.0879 H   0  0  0  0  0  0  0  0  0  0  0  0
   59.9691   35.6503   48.6525 H   0  0  0  0  0  0  0  0  0  0  0  0
   60.1208   36.2932   46.1489 H   0  0  0  0  0  0  0  0  0  0  0  0
   59.0329   35.3320   43.8902 H   0  0  0  0  0  0  0  0  0  0  0  0
   57.7195   32.8428   43.3313 H   0  0  0  0  0  0  0  0  0  0  0  0
   58.6070   29.2670   43.1980 H   0  0  0  0  0  0  0  0  0  0  0  0
   57.7683   28.8115   45.7963 H   0  0  0  0  0  0  0  0  0  0  0  0
   57.9377   27.2167   44.9708 H   0  0  0  0  0  0  0  0  0  0  0  0
   60.1817   27.3609   45.0159 H   0  0  0  0  0  0  0  0  0  0  0  0
   60.1260   28.9971   44.2431 H   0  0  0  0  0  0  0  0  0  0  0  0
   61.4573   30.4800   45.4228 H   0  0  0  0  0  0  0  0  0  0  0  0
   62.1010   31.5708   47.5738 H   0  0  0  0  0  0  0  0  0  0  0  0
   61.1634   30.7352   49.7307 H   0  0  0  0  0  0  0  0  0  0  0  0
   59.5800   28.8033   49.7398 H   0  0  0  0  0  0  0  0  0  0  0  0
   58.9316   27.7075   47.5940 H   0  0  0  0  0  0  0  0  0  0  0  0
   57.5206   30.2342   46.8186 H   0  0  0  0  0  0  0  0  0  0  0  0
   58.7277   31.9686   48.1871 H   0  0  0  0  0  0  0  0  0  0  0  0
  1  2  1  0
  2  3  1  0
  3  4  1  0
  4  5  2  0
  5  6  1  0
  6  7  2  0
  7  8  1  0
  8  9  1  0
  9 10  2  0
  9 11  2  0
  9 12  1  0
 12 13  1  0
 13 14  1  0
 14 15  1  0
 15 16  2  0
 16 17  1  0
 17 18  2  0
 18 19  1  0
 19 20  2  0
  8 21  2  0
 21 22  1  0
 22 23  2  0
 23  3  1  0
 23  6  1  0
 20 15  1  0
  1 24  1  0
  1 25  1  0
  1 26  1  0
  2 27  1  0
  2 28  1  0
  4 29  1  0
  5 30  1  0
  7 31  1  0
 12 32  1  0
 13 33  1  0
 13 34  1  0
 14 35  1  0
 14 36  1  0
 16 37  1  0
 17 38  1  0
 18 39  1  0
 19 40  1  0
 20 41  1  0
 21 42  1  0
 22 43  1  0
M  END
>  <UniqueID>  (1) 
1

>  <SMILES>  (1) 
CCn1ccc2cc(S(=O)(=O)NCCc3ccccc3)ccc21

>  <Energy>  (1) 
69.42743912618265

>  <Genealogy>  (1) 
CCn1ccc2cc(S(=O)(=O)NCCc3ccccc3)ccc21 (3D coordinates assigned)
CCn1ccc2cc(S(=O)(=O)NCCc3ccccc3)ccc21 (optimized conformer: 69.42743912618265 kcal/mol)

>  <smiles>  (1) 
CCn1ccc2cc(S(=O)(=O)NCCc3ccccc3)ccc21

>  <score_type>  (1) 
oracle

>  <origin>  (1) 
adg

>  <m_score__min__energy>  (1) 
-8.1799999999999997

>  <m_primary>  (1) 
energy

$$$$
1:0
     RDKit          3D

 58 62  0  0  0  0  0  0  0  0999 V2000
   58.1690   30.3290   46.4940 C   0  0  0  0  0  0  0  0  0  0  0  0
   57.7770   30.7940   45.1240 C   0  0  0  0  0  0  0  0  0  0  0  0
   57.2590   29.8960   44.2380 N   0  0  0  0  0  0  0  0  0  0  0  0
   56.8900   30.2660   42.9850 C   0  0  0  0  0  0  0  0  0  0  0  0
   57.0430   31.5950   42.5890 C   0  0  0  0  0  0  0  0  0  0  0  0
   57.5670   32.5000   43.4610 N   0  0  0  0  0  0  0  0  0  0  0  0
   57.9470   32.1340   44.7170 C   0  0  0  0  0  0  0  0  0  0  0  0
   58.5180   33.1130   45.5980 N   0  0  0  0  0  0  0  0  0  0  0  0
   59.7150   33.8520   45.1720 C   0  0  0  0  0  0  0  0  0  0  0  0
   60.2950   34.6640   46.3310 C   0  0  0  0  0  0  0  0  0  0  0  0
   60.3260   33.8280   47.5380 N   0  0  0  0  0  0  0  0  0  0  0  0
   61.5680   33.5260   48.2090 C   0  0  0  0  0  0  0  0  0  0  0  0
   61.6440   33.5530   49.6110 C   0  0  0  0  0  0  0  0  0  0  0  0
   62.8340   33.2240   50.2670 C   0  0  0  0  0  0  0  0  0  0  0  0
   63.9730   32.8550   49.5340 C   0  0  0  0  0  0  0  0  0  0  0  0
   65.1970   32.4970   50.2020 N   0  0  0  0  0  0  0  0  0  0  0  0
   66.4000   33.1120   50.1160 C   0  0  0  0  0  0  0  0  0  0  0  0
   67.3460   32.4640   50.8330 N   0  0  0  0  0  0  0  0  0  0  0  0
   66.7390   31.4280   51.3910 N   0  0  0  0  0  0  0  0  0  0  0  0
   67.4200   30.4040   52.1800 C   0  0  0  0  0  0  0  0  0  0  0  0
   67.1390   29.0420   51.6040 C   0  0  0  0  0  0  0  0  0  0  0  0
   67.8560   28.5790   50.4900 C   0  0  0  0  0  0  0  0  0  0  0  0
   67.6280   27.2940   49.9900 C   0  0  0  0  0  0  0  0  0  0  0  0
   66.6890   26.4590   50.6040 C   0  0  0  0  0  0  0  0  0  0  0  0
   66.4690   25.2120   50.1180 F   0  0  0  0  0  0  0  0  0  0  0  0
   65.9820   26.9090   51.7250 C   0  0  0  0  0  0  0  0  0  0  0  0
   66.2080   28.1940   52.2270 C   0  0  0  0  0  0  0  0  0  0  0  0
   65.4550   31.4400   50.9990 C   0  0  0  0  0  0  0  0  0  0  0  0
   64.6140   30.5470   51.2990 O   0  0  0  0  0  0  0  0  0  0  0  0
   63.9000   32.8350   48.1310 C   0  0  0  0  0  0  0  0  0  0  0  0
   62.7090   33.1600   47.4760 C   0  0  0  0  0  0  0  0  0  0  0  0
   59.0790   33.1880   47.9960 C   0  0  0  0  0  0  0  0  0  0  0  0
   57.9630   33.3030   46.9450 C   0  0  0  0  0  0  0  0  0  0  0  0
   57.6539   30.9400   47.2499 H   0  0  0  0  0  0  0  0  0  0  0  0
   57.8837   29.2740   46.6187 H   0  0  0  0  0  0  0  0  0  0  0  0
   59.2571   30.4318   46.6187 H   0  0  0  0  0  0  0  0  0  0  0  0
   56.4738   29.5240   42.2877 H   0  0  0  0  0  0  0  0  0  0  0  0
   56.7422   31.9097   41.5788 H   0  0  0  0  0  0  0  0  0  0  0  0
   57.6960   33.4870   43.1450 H   0  0  0  0  0  0  0  0  0  0  0  0
   60.4727   33.1374   44.8180 H   0  0  0  0  0  0  0  0  0  0  0  0
   59.4328   34.5435   44.3644 H   0  0  0  0  0  0  0  0  0  0  0  0
   61.3165   34.9858   46.0799 H   0  0  0  0  0  0  0  0  0  0  0  0
   59.6689   35.5503   46.5112 H   0  0  0  0  0  0  0  0  0  0  0  0
   60.7584   33.8358   50.1989 H   0  0  0  0  0  0  0  0  0  0  0  0
   62.8781   33.2545   51.3657 H   0  0  0  0  0  0  0  0  0  0  0  0
   66.5853   34.0269   49.5341 H   0  0  0  0  0  0  0  0  0  0  0  0
   68.5039   30.5909   52.1624 H   0  0  0  0  0  0  0  0  0  0  0  0
   67.0529   30.4417   53.2162 H   0  0  0  0  0  0  0  0  0  0  0  0
   68.6004   29.2301   50.0084 H   0  0  0  0  0  0  0  0  0  0  0  0
   68.1879   26.9389   49.1123 H   0  0  0  0  0  0  0  0  0  0  0  0
   65.2474   26.2506   52.2117 H   0  0  0  0  0  0  0  0  0  0  0  0
   65.6554   28.5421   53.1121 H   0  0  0  0  0  0  0  0  0  0  0  0
   64.7883   32.5611   47.5428 H   0  0  0  0  0  0  0  0  0  0  0  0
   62.6647   33.1289   46.3773 H   0  0  0  0  0  0  0  0  0  0  0  0
   59.2756   32.1237   48.1925 H   0  0  0  0  0  0  0  0  0  0  0  0
   58.7447   33.7017   48.9094 H   0  0  0  0  0  0  0  0  0  0  0  0
   57.2014   32.5328   47.1369 H   0  0  0  0  0  0  0  0  0  0  0  0
   57.5083   34.3025   47.0099 H   0  0  0  0  0  0  0  0  0  0  0  0
  1  2  1  0
  2  3  2  0
  3  4  1  0
  4  5  2  0
  5  6  1  0
  6  7  2  0
  7  8  1  0
  8  9  1  0
  9 10  1  0
 10 11  1  0
 11 12  1  0
 12 13  2  0
 13 14  1  0
 14 15  2  0
 15 16  1  0
 16 17  1  0
 17 18  2  0
 18 19  1  0
 19 20  1  0
 20 21  1  0
 21 22  2  0
 22 23  1  0
 23 24  2  0
 24 25  1  0
 24 26  1  0
 26 27  2  0
 19 28  1  0
 28 29  2  0
 15 30  1  0
 30 31  2  0
 11 32  1  0
 32 33  1  0
  7  2  1  0
 33  8  1  0
 31 12  1  0
 28 16  1  0
 27 21  1  0
  1 34  1  0
  1 35  1  0
  1 36  1  0
  4 37  1  0
  5 38  1  0
  6 39  1  0
  9 40  1  0
  9 41  1  0
 10 42  1  0
 10 43  1  0
 13 44  1  0
 14 45  1  0
 17 46  1  0
 20 47  1  0
 20 48  1  0
 22 49  1  0
 23 50  1  0
 26 51  1  0
 27 52  1  0
 30 53  1  0
 31 54  1  0
 32 55  1  0
 32 56  1  0
 33 57  1  0
 33 58  1  0
M  CHG  1   6   1
M  END
>  <UniqueID>  (2) 
2

>  <SMILES>  (2) 
Cc1ncc[nH+]c1N1CCN(c2ccc(-n3cnn(Cc4ccc(F)cc4)c3=O)cc2)CC1

>  <Energy>  (2) 
114.12721924792032

>  <Genealogy>  (2) 
Cc1ncc[nH+]c1N1CCN(c2ccc(-n3cnn(Cc4ccc(F)cc4)c3=O)cc2)CC1 (protonated)
Cc1ncc[nH+]c1N1CCN(c2ccc(-n3cnn(Cc4ccc(F)cc4)c3=O)cc2)CC1 (3D coordinates assigned)
Cc1ncc[nH+]c1N1CCN(c2ccc(-n3cnn(Cc4ccc(F)cc4)c3=O)cc2)CC1 (nonaromatic ring conformer: 114.12721924792032 kcal/mol)

>  <smiles>  (2) 
Cc1nccnc1N1CCN(c2ccc(-n3cnn(Cc4ccc(F)cc4)c3=O)cc2)CC1

>  <score_type>  (2) 
oracle

>  <origin>  (2) 
adg

>  <m_score__min__energy>  (2) 
-7.0999999999999996

>  <m_primary>  (2) 
energy

$$$$
2:0
     RDKit          3D

 26 26  0  0  0  0  0  0  0  0999 V2000
   58.7490   30.0190   46.0080 C   0  0  0  0  0  0  0  0  0  0  0  0
   57.8520   29.0250   45.3950 N   0  0  0  0  0  0  0  0  0  0  0  0
   57.4030   29.4620   44.0530 C   0  0  0  0  0  0  0  0  0  0  0  0
   55.8910   29.7230   44.0290 C   0  0  0  0  0  0  0  0  0  0  0  0
   55.2920   29.3600   45.2430 O   0  0  0  0  0  0  0  0  0  0  0  0
   58.4240   27.6560   45.4330 C   0  0  0  0  0  0  0  0  0  0  0  0
   57.3900   26.5480   45.4420 C   0  0  0  0  0  0  0  0  0  0  0  0
   56.2930   26.5950   46.3180 C   0  0  0  0  0  0  0  0  0  0  0  0
   55.3650   25.6000   46.3110 N   0  0  0  0  0  0  0  0  0  0  0  0
   55.4580   24.5410   45.4650 C   0  0  0  0  0  0  0  0  0  0  0  0
   56.5210   24.4580   44.5650 C   0  0  0  0  0  0  0  0  0  0  0  0
   56.6550   22.9800   43.3620 Br  0  0  0  0  0  0  0  0  0  0  0  0
   57.4860   25.4690   44.5490 C   0  0  0  0  0  0  0  0  0  0  0  0
   58.6831   29.9460   47.1036 H   0  0  0  0  0  0  0  0  0  0  0  0
   59.7838   29.8250   45.6892 H   0  0  0  0  0  0  0  0  0  0  0  0
   58.4502   31.0285   45.6892 H   0  0  0  0  0  0  0  0  0  0  0  0
   57.9309   30.3883   43.7825 H   0  0  0  0  0  0  0  0  0  0  0  0
   57.6288   28.6613   43.3334 H   0  0  0  0  0  0  0  0  0  0  0  0
   55.7151   30.7938   43.8487 H   0  0  0  0  0  0  0  0  0  0  0  0
   55.4465   29.1151   43.2272 H   0  0  0  0  0  0  0  0  0  0  0  0
   55.8780   29.7090   45.9640 H   0  0  0  0  0  0  0  0  0  0  0  0
   59.0621   27.5245   44.5467 H   0  0  0  0  0  0  0  0  0  0  0  0
   58.9819   27.5739   46.3775 H   0  0  0  0  0  0  0  0  0  0  0  0
   56.1836   27.4405   47.0132 H   0  0  0  0  0  0  0  0  0  0  0  0
   54.6951   23.7489   45.4896 H   0  0  0  0  0  0  0  0  0  0  0  0
   58.3219   25.4191   43.8357 H   0  0  0  0  0  0  0  0  0  0  0  0
  1  2  1  0
  2  3  1  0
  3  4  1  0
  4  5  1  0
  2  6  1  0
  6  7  1  0
  7  8  2  0
  8  9  1  0
  9 10  2  0
 10 11  1  0
 11 12  1  0
 11 13  2  0
 13  7  1  0
  1 14  1  0
  1 15  1  0
  1 16  1  0
  3 17  1  0
  3 18  1  0
  4 19  1  0
  4 20  1  0
  5 21  1  0
  6 22  1  0
  6 23  1  0
  8 24  1  0
 10 25  1  0
 13 26  1  0
M  END
>  <UniqueID>  (3) 
3

>  <SMILES>  (3) 
CN(CCO)Cc1cncc(Br)c1

>  <Energy>  (3) 
28.051268230146555

>  <Genealogy>  (3) 
CN(CCO)Cc1cncc(Br)c1 (3D coordinates assigned)
CN(CCO)Cc1cncc(Br)c1 (optimized conformer: 28.051268230146555 kcal/mol)

>  <smiles>  (3) 
CN(CCO)Cc1cncc(Br)c1

>  <score_type>  (3) 
oracle

>  <origin>  (3) 
adg

>  <m_score__min__energy>  (3) 
-6.0599999999999996

>  <m_primary>  (3) 
energy

$$$$
3:0
     RDKit          3D

 35 37  0  0  0  0  0  0  0  0999 V2000
   63.7350   31.2650   50.2210 C   0  0  0  0  0  0  0  0  0  0  0  0
   63.1440   32.0540   49.1010 C   0  0  0  0  0  0  0  0  0  0  0  0
   61.8160   32.1940   48.9000 N   0  0  0  0  0  0  0  0  0  0  0  0
   61.7660   32.9160   47.7580 C   0  0  0  0  0  0  0  0  0  0  0  0
   60.4930   33.3200   47.1220 C   0  0  0  0  0  0  0  0  0  0  0  0
   59.9070   34.5660   47.3950 C   0  0  0  0  0  0  0  0  0  0  0  0
   58.6970   34.9220   46.7980 C   0  0  0  0  0  0  0  0  0  0  0  0
   58.0520   34.0350   45.9340 C   0  0  0  0  0  0  0  0  0  0  0  0
   58.6070   32.7720   45.6640 C   0  0  0  0  0  0  0  0  0  0  0  0
   57.9160   31.8230   44.7550 C   0  0  0  0  0  0  0  0  0  0  0  0
   57.7570   32.1260   43.3890 C   0  0  0  0  0  0  0  0  0  0  0  0
   57.1070   31.2300   42.5360 C   0  0  0  0  0  0  0  0  0  0  0  0
   56.6060   30.0260   43.0340 C   0  0  0  0  0  0  0  0  0  0  0  0
   56.7560   29.7130   44.3870 C   0  0  0  0  0  0  0  0  0  0  0  0
   57.4080   30.6050   45.2450 C   0  0  0  0  0  0  0  0  0  0  0  0
   59.8280   32.4220   46.2710 C   0  0  0  0  0  0  0  0  0  0  0  0
   63.0060   33.1650   47.2780 N   0  0  0  0  0  0  0  0  0  0  0  0
   63.3920   33.8430   46.0420 C   0  0  0  0  0  0  0  0  0  0  0  0
   63.8660   32.6290   48.1240 N   0  0  0  0  0  0  0  0  0  0  0  0
   63.4135   31.6942   51.1814 H   0  0  0  0  0  0  0  0  0  0  0  0
   63.3948   30.2211   50.1536 H   0  0  0  0  0  0  0  0  0  0  0  0
   64.8324   31.2980   50.1536 H   0  0  0  0  0  0  0  0  0  0  0  0
   60.4042   35.2654   48.0831 H   0  0  0  0  0  0  0  0  0  0  0  0
   58.2499   35.9047   47.0088 H   0  0  0  0  0  0  0  0  0  0  0  0
   57.1026   34.3266   45.4611 H   0  0  0  0  0  0  0  0  0  0  0  0
   58.1470   33.0743   42.9907 H   0  0  0  0  0  0  0  0  0  0  0  0
   56.9899   31.4740   41.4698 H   0  0  0  0  0  0  0  0  0  0  0  0
   56.0929   29.3235   42.3607 H   0  0  0  0  0  0  0  0  0  0  0  0
   56.3609   28.7639   44.7783 H   0  0  0  0  0  0  0  0  0  0  0  0
   57.5245   30.3530   46.3094 H   0  0  0  0  0  0  0  0  0  0  0  0
   60.2670   31.4324   46.0763 H   0  0  0  0  0  0  0  0  0  0  0  0
   63.9227   34.7752   46.2855 H   0  0  0  0  0  0  0  0  0  0  0  0
   64.0524   33.1877   45.4551 H   0  0  0  0  0  0  0  0  0  0  0  0
   62.4914   34.0764   45.4551 H   0  0  0  0  0  0  0  0  0  0  0  0
   64.9060   32.6360   48.0230 H   0  0  0  0  0  0  0  0  0  0  0  0
  1  2  1  0
  2  3  1  0
  3  4  2  0
  4  5  1  0
  5  6  2  0
  6  7  1  0
  7  8  2  0
  8  9  1  0
  9 10  1  0
 10 11  2  0
 11 12  1  0
 12 13  2  0
 13 14  1  0
 14 15  2  0
  9 16  2  0
  4 17  1  0
 17 18  1  0
 17 19  1  0
 19  2  2  0
 16  5  1  0
 15 10  1  0
  1 20  1  0
  1 21  1  0
  1 22  1  0
  6 23  1  0
  7 24  1  0
  8 25  1  0
 11 26  1  0
 12 27  1  0
 13 28  1  0
 14 29  1  0
 15 30  1  0
 16 31  1  0
 18 32  1  0
 18 33  1  0
 18 34  1  0
 19 35  1  0
M  CHG  1  19   1
M  END
>  <UniqueID>  (4) 
4

>  <SMILES>  (4) 
Cc1nc(-c2cccc(-c3ccccc3)c2)n(C)[nH+]1

>  <Energy>  (4) 
79.19528115373512

>  <Genealogy>  (4) 
Cc1nc(-c2cccc(-c3ccccc3)c2)n(C)[nH+]1 (protonated)
Cc1nc(-c2cccc(-c3ccccc3)c2)n(C)[nH+]1 (3D coordinates assigned)
Cc1nc(-c2cccc(-c3ccccc3)c2)n(C)[nH+]1 (optimized conformer: 79.19528115373512 kcal/mol)

>  <smiles>  (4) 
Cc1nc(-c2cccc(-c3ccccc3)c2)n(C)n1

>  <score_type>  (4) 
oracle

>  <origin>  (4) 
adg

>  <m_score__min__energy>  (4) 
-6.46

>  <m_primary>  (4) 
energy

$$$$
4:0
     RDKit          3D

 31 33  0  0  0  0  0  0  0  0999 V2000
   62.8350   33.2650   47.8220 C   0  0  0  0  0  0  0  0  0  0  0  0
   62.3950   34.2090   48.9350 C   0  0  0  0  0  0  0  0  0  0  0  0
   60.8610   33.6150   49.7280 S   0  0  0  0  0  0  0  0  0  0  0  0
   59.8620   33.7390   48.2410 C   0  0  0  0  0  0  0  0  0  0  0  0
   59.2890   34.8950   47.8460 N   0  0  0  0  0  0  0  0  0  0  0  0
   58.6380   34.5730   46.7110 C   0  0  0  0  0  0  0  0  0  0  0  0
   58.8350   33.2370   46.4300 C   0  0  0  0  0  0  0  0  0  0  0  0
   58.2790   32.5320   45.2580 C   0  0  0  0  0  0  0  0  0  0  0  0
   58.4700   33.0130   43.9390 C   0  0  0  0  0  0  0  0  0  0  0  0
   57.9040   32.3290   42.8540 C   0  0  0  0  0  0  0  0  0  0  0  0
   57.1540   31.1950   43.1370 C   0  0  0  0  0  0  0  0  0  0  0  0
   56.5220   30.4040   42.2490 N   0  0  0  0  0  0  0  0  0  0  0  0
   55.9370   29.4610   43.0350 C   0  0  0  0  0  0  0  0  0  0  0  0
   56.2230   29.7010   44.3710 C   0  0  0  0  0  0  0  0  0  0  0  0
   56.9890   30.7960   44.4010 N   0  0  0  0  0  0  0  0  0  0  0  0
   57.5120   31.4190   45.4540 N   0  0  0  0  0  0  0  0  0  0  0  0
   59.5890   32.7040   47.4160 N   0  0  0  0  0  0  0  0  0  0  0  0
   60.0150   31.3150   47.5850 C   0  0  0  0  0  0  0  0  0  0  0  0
   63.2607   32.3516   48.2629 H   0  0  0  0  0  0  0  0  0  0  0  0
   61.9668   33.0017   47.2000 H   0  0  0  0  0  0  0  0  0  0  0  0
   63.5949   33.7605   47.2000 H   0  0  0  0  0  0  0  0  0  0  0  0
   63.1912   34.2690   49.6916 H   0  0  0  0  0  0  0  0  0  0  0  0
   62.2029   35.2003   48.4985 H   0  0  0  0  0  0  0  0  0  0  0  0
   58.0414   35.2684   46.1023 H   0  0  0  0  0  0  0  0  0  0  0  0
   59.0626   33.9235   43.7663 H   0  0  0  0  0  0  0  0  0  0  0  0
   58.0481   32.6765   41.8203 H   0  0  0  0  0  0  0  0  0  0  0  0
   55.3240   28.6264   42.6640 H   0  0  0  0  0  0  0  0  0  0  0  0
   55.8863   29.1080   45.2342 H   0  0  0  0  0  0  0  0  0  0  0  0
   60.0867   31.0814   48.6575 H   0  0  0  0  0  0  0  0  0  0  0  0
   59.2807   30.6462   47.1123 H   0  0  0  0  0  0  0  0  0  0  0  0
   60.9980   31.1729   47.1123 H   0  0  0  0  0  0  0  0  0  0  0  0
  1  2  1  0
  2  3  1  0
  3  4  1  0
  4  5  2  0
  5  6  1  0
  6  7  2  0
  7  8  1  0
  8  9  1  0
  9 10  2  0
 10 11  1  0
 11 12  2  0
 12 13  1  0
 13 14  2  0
 14 15  1  0
 15 16  1  0
  7 17  1  0
 17 18  1  0
 17  4  1  0
 16  8  2  0
 15 11  1  0
  1 19  1  0
  1 20  1  0
  1 21  1  0
  2 22  1  0
  2 23  1  0
  6 24  1  0
  9 25  1  0
 10 26  1  0
 13 27  1  0
 14 28  1  0
 18 29  1  0
 18 30  1  0
 18 31  1  0
M  END
>  <UniqueID>  (5) 
5

>  <SMILES>  (5) 
CCSc1ncc(-c2ccc3nccn3n2)n1C

>  <Energy>  (5) 
96.84784970670323

>  <Genealogy>  (5) 
CCSc1ncc(-c2ccc3nccn3n2)n1C (3D coordinates assigned)
CCSc1ncc(-c2ccc3nccn3n2)n1C (optimized conformer: 96.84784970670323 kcal/mol)

>  <smiles>  (5) 
CCSc1ncc(-c2ccc3nccn3n2)n1C

>  <score_type>  (5) 
oracle

>  <origin>  (5) 
adg

>  <m_score__min__energy>  (5) 
-6.0700000000000003

>  <m_primary>  (5) 
energy

$$$$
5:0
     RDKit          3D

 31 32  0  0  0  0  0  0  0  0999 V2000
   61.6104   31.4826   48.7165 H   0  0  0  0  0  0  0  0  0  0  0  0
   61.5790   32.0840   47.7960 C   0  0  0  0  0  0  0  0  0  0  0  0
   60.8620   31.6600   46.7950 N   0  0  0  0  0  0  0  0  0  0  0  0
   59.6110   32.2040   46.3390 C   0  0  0  0  0  0  0  0  0  0  0  0
   59.2510   33.5220   46.6830 C   0  0  0  0  0  0  0  0  0  0  0  0
   59.9420   34.1366   47.2787 H   0  0  0  0  0  0  0  0  0  0  0  0
   58.0290   34.0560   46.2770 C   0  0  0  0  0  0  0  0  0  0  0  0
   57.7699   35.0927   46.5379 H   0  0  0  0  0  0  0  0  0  0  0  0
   57.1350   33.2810   45.5420 C   0  0  0  0  0  0  0  0  0  0  0  0
   56.1746   33.7092   45.2189 H   0  0  0  0  0  0  0  0  0  0  0  0
   57.4550   31.9610   45.2140 C   0  0  0  0  0  0  0  0  0  0  0  0
   56.5670   31.2180   44.5100 N   0  0  0  0  0  0  0  0  0  0  0  0
   56.8320   29.9340   44.1700 C   0  0  0  0  0  0  0  0  0  0  0  0
   56.0918   29.3584   43.5949 H   0  0  0  0  0  0  0  0  0  0  0  0
   58.0100   29.3480   44.5350 N   0  0  0  0  0  0  0  0  0  0  0  0
   58.2770   27.9570   44.1460 C   0  0  0  0  0  0  0  0  0  0  0  0
   58.3954   27.3400   45.0490 H   0  0  0  0  0  0  0  0  0  0  0  0
   57.4357   27.5753   43.5489 H   0  0  0  0  0  0  0  0  0  0  0  0
   59.1998   27.9139   43.5489 H   0  0  0  0  0  0  0  0  0  0  0  0
   58.9460   30.0580   45.2430 C   0  0  0  0  0  0  0  0  0  0  0  0
   60.0360   29.5040   45.5590 O   0  0  0  0  0  0  0  0  0  0  0  0
   58.6900   31.4000   45.6140 C   0  0  0  0  0  0  0  0  0  0  0  0
   62.3310   33.3080   47.7440 N   0  0  0  0  0  0  0  0  0  0  0  0
   63.3910   33.4700   46.7480 C   0  0  0  0  0  0  0  0  0  0  0  0
   64.3543   33.6172   47.2583 H   0  0  0  0  0  0  0  0  0  0  0  0
   63.4434   32.5694   46.1185 H   0  0  0  0  0  0  0  0  0  0  0  0
   63.1720   34.3451   46.1185 H   0  0  0  0  0  0  0  0  0  0  0  0
   62.3900   34.1280   48.9520 C   0  0  0  0  0  0  0  0  0  0  0  0
   62.3433   33.4786   49.8386 H   0  0  0  0  0  0  0  0  0  0  0  0
   63.3314   34.6969   48.9634 H   0  0  0  0  0  0  0  0  0  0  0  0
   61.5397   34.8258   48.9634 H   0  0  0  0  0  0  0  0  0  0  0  0
  1  2  1  0
  2  3  2  0
  3  4  1  0
  4  5  2  0
  5  6  1  0
  5  7  1  0
  7  8  1  0
  7  9  2  0
  9 10  1  0
  9 11  1  0
 11 12  1  0
 12 13  2  0
 13 14  1  0
 13 15  1  0
 15 16  1  0
 16 17  1  0
 16 18  1  0
 16 19  1  0
 15 20  1  0
 20 21  2  0
 20 22  1  0
  2 23  1  0
 23 24  1  0
 24 25  1  0
 24 26  1  0
 24 27  1  0
 23 28  1  0
 28 29  1  0
 28 30  1  0
 28 31  1  0
 22  4  1  0
 22 11  2  0
M  END
>  <UniqueID>  (6) 
6

>  <SMILES>  (6) 
CN(C)/C=N\c1cccc2ncn(C)c(=O)c12

>  <Energy>  (6) 
47.200773997901265

>  <Genealogy>  (6) 
CN(C)/C=N\c1cccc2ncn(C)c(=O)c12 (cis-trans isomerization)
CN(C)/C=N\c1cccc2ncn(C)c(=O)c12 (3D coordinates assigned)
CN(C)/C=N\c1cccc2ncn(C)c(=O)c12 (optimized conformer: 47.200773997901265 kcal/mol)

>  <smiles>  (6) 
CN(C)C=Nc1cccc2ncn(C)c(=O)c12

>  <score_type>  (6) 
oracle

>  <origin>  (6) 
adg

>  <m_score__min__energy>  (6) 
-5.6600000000000001

>  <m_primary>  (6) 
energy

$$$$
6:0
     RDKit          3D

 67 69  0  0  0  0  0  0  0  0999 V2000
   56.4760   29.9070   42.8190 C   0  0  0  0  0  0  0  0  0  0  0  0
   55.9660   30.5440   44.1210 C   0  0  0  0  0  0  0  0  0  0  0  0
   56.9830   31.3000   44.8960 N   0  0  0  0  0  0  0  0  0  0  0  0
   57.7970   30.4830   45.8240 C   0  0  0  0  0  0  0  0  0  0  0  0
   59.1440   30.0560   45.2360 C   0  0  0  0  0  0  0  0  0  0  0  0
   57.7300   32.3680   44.1910 C   0  0  0  0  0  0  0  0  0  0  0  0
   57.3800   33.7460   44.7670 C   0  0  0  0  0  0  0  0  0  0  0  0
   57.5200   33.7790   46.2230 N   0  0  0  0  0  0  0  0  0  0  0  0
   58.7720   33.6960   46.9350 C   0  0  0  0  0  0  0  0  0  0  0  0
   59.9570   33.5780   46.2090 C   0  0  0  0  0  0  0  0  0  0  0  0
   61.1840   33.4600   46.8580 C   0  0  0  0  0  0  0  0  0  0  0  0
   61.2720   33.4700   48.2730 C   0  0  0  0  0  0  0  0  0  0  0  0
   60.0730   33.6250   49.0120 C   0  0  0  0  0  0  0  0  0  0  0  0
   58.8380   33.7210   48.3350 C   0  0  0  0  0  0  0  0  0  0  0  0
   60.1190   33.6470   50.4180 C   0  0  0  0  0  0  0  0  0  0  0  0
   58.9230   33.8610   51.1890 N   0  0  0  0  0  0  0  0  0  0  0  0
   58.0890   32.7410   51.6280 C   0  0  0  0  0  0  0  0  0  0  0  0
   58.2090   31.5510   50.6680 C   0  0  0  0  0  0  0  0  0  0  0  0
   58.9630   30.3560   51.2740 C   0  0  0  0  0  0  0  0  0  0  0  0
   60.2580   30.1430   50.6040 N   0  0  0  0  0  0  0  0  0  0  0  0
   61.4790   30.1190   51.4180 C   0  0  0  0  0  0  0  0  0  0  0  0
   60.3770   29.9260   49.1790 C   0  0  0  0  0  0  0  0  0  0  0  0
   59.3990   29.0840   48.4160 C   0  0  0  0  0  0  0  0  0  0  0  0
   61.3270   30.4580   48.5440 O   0  0  0  0  0  0  0  0  0  0  0  0
   61.3370   33.4370   51.0770 C   0  0  0  0  0  0  0  0  0  0  0  0
   61.3100   33.4050   52.8550 Cl  0  0  0  0  0  0  0  0  0  0  0  0
   62.5070   33.2850   50.3680 N   0  0  0  0  0  0  0  0  0  0  0  0
   63.6910   33.1060   51.0480 C   0  0  0  0  0  0  0  0  0  0  0  0
   64.9000   32.9660   50.3780 C   0  0  0  0  0  0  0  0  0  0  0  0
   64.9220   33.0080   48.9970 C   0  0  0  0  0  0  0  0  0  0  0  0
   63.7390   33.1820   48.2930 C   0  0  0  0  0  0  0  0  0  0  0  0
   62.5040   33.3150   48.9790 C   0  0  0  0  0  0  0  0  0  0  0  0
   57.1469   29.0690   43.0591 H   0  0  0  0  0  0  0  0  0  0  0  0
   55.6220   29.5367   42.2329 H   0  0  0  0  0  0  0  0  0  0  0  0
   57.0242   30.6593   42.2329 H   0  0  0  0  0  0  0  0  0  0  0  0
   55.1502   31.2358   43.8645 H   0  0  0  0  0  0  0  0  0  0  0  0
   55.6492   29.7104   44.7650 H   0  0  0  0  0  0  0  0  0  0  0  0
   57.9847   31.0718   46.7340 H   0  0  0  0  0  0  0  0  0  0  0  0
   57.2281   29.5650   46.0328 H   0  0  0  0  0  0  0  0  0  0  0  0
   59.8465   29.8333   46.0526 H   0  0  0  0  0  0  0  0  0  0  0  0
   59.0054   29.1577   44.6164 H   0  0  0  0  0  0  0  0  0  0  0  0
   59.5482   30.8701   44.6164 H   0  0  0  0  0  0  0  0  0  0  0  0
   58.8094   32.1913   44.3082 H   0  0  0  0  0  0  0  0  0  0  0  0
   57.4533   32.3492   43.1265 H   0  0  0  0  0  0  0  0  0  0  0  0
   58.0533   34.4968   44.3277 H   0  0  0  0  0  0  0  0  0  0  0  0
   56.3302   33.9627   44.5199 H   0  0  0  0  0  0  0  0  0  0  0  0
   56.6380   33.8570   46.7790 H   0  0  0  0  0  0  0  0  0  0  0  0
   59.9223   33.5781   45.1095 H   0  0  0  0  0  0  0  0  0  0  0  0
   62.1022   33.3571   46.2611 H   0  0  0  0  0  0  0  0  0  0  0  0
   57.9097   33.8173   48.9172 H   0  0  0  0  0  0  0  0  0  0  0  0
   58.5130   34.8210   51.2020 H   0  0  0  0  0  0  0  0  0  0  0  0
   58.4103   32.4261   52.6318 H   0  0  0  0  0  0  0  0  0  0  0  0
   57.0402   33.0724   51.6429 H   0  0  0  0  0  0  0  0  0  0  0  0
   57.1965   31.2215   50.3917 H   0  0  0  0  0  0  0  0  0  0  0  0
   58.7856   31.8923   49.7956 H   0  0  0  0  0  0  0  0  0  0  0  0
   59.1400   30.5488   52.3424 H   0  0  0  0  0  0  0  0  0  0  0  0
   58.3493   29.4534   51.1372 H   0  0  0  0  0  0  0  0  0  0  0  0
   61.2090   30.1243   52.4843 H   0  0  0  0  0  0  0  0  0  0  0  0
   62.0539   29.2094   51.1899 H   0  0  0  0  0  0  0  0  0  0  0  0
   62.0892   31.0053   51.1899 H   0  0  0  0  0  0  0  0  0  0  0  0
   58.7598   28.5337   49.1221 H   0  0  0  0  0  0  0  0  0  0  0  0
   58.7738   29.7309   47.7830 H   0  0  0  0  0  0  0  0  0  0  0  0
   59.9458   28.3696   47.7830 H   0  0  0  0  0  0  0  0  0  0  0  0
   63.6793   33.0731   52.1474 H   0  0  0  0  0  0  0  0  0  0  0  0
   65.8330   32.8228   50.9428 H   0  0  0  0  0  0  0  0  0  0  0  0
   65.8748   32.9038   48.4572 H   0  0  0  0  0  0  0  0  0  0  0  0
   63.7587   33.2171   47.1937 H   0  0  0  0  0  0  0  0  0  0  0  0
  1  2  1  0
  2  3  1  0
  3  4  1  0
  4  5  1  0
  3  6  1  0
  6  7  1  0
  7  8  1  0
  8  9  1  0
  9 10  2  0
 10 11  1  0
 11 12  2  0
 12 13  1  0
 13 14  2  0
 13 15  1  0
 15 16  1  0
 16 17  1  0
 17 18  1  0
 18 19  1  0
 19 20  1  0
 20 21  1  0
 20 22  1  0
 22 23  1  0
 22 24  2  0
 15 25  2  0
 25 26  1  0
 25 27  1  0
 27 28  2  0
 28 29  1  0
 29 30  2  0
 30 31  1  0
 31 32  2  0
 14  9  1  0
 32 27  1  0
 32 12  1  0
  1 33  1  0
  1 34  1  0
  1 35  1  0
  2 36  1  0
  2 37  1  0
  4 38  1  0
  4 39  1  0
  5 40  1  0
  5 41  1  0
  5 42  1  0
  6 43  1  0
  6 44  1  0
  7 45  1  0
  7 46  1  0
  8 47  1  0
 10 48  1  0
 11 49  1  0
 14 50  1  0
 16 51  1  0
 17 52  1  0
 17 53  1  0
 18 54  1  0
 18 55  1  0
 19 56  1  0
 19 57  1  0
 21 58  1  0
 21 59  1  0
 21 60  1  0
 23 61  1  0
 23 62  1  0
 23 63  1  0
 28 64  1  0
 29 65  1  0
 30 66  1  0
 31 67  1  0
M  CHG  1  27   1
M  END
>  <UniqueID>  (7) 
7

>  <SMILES>  (7) 
CCN(CC)CCNc1ccc2c(c1)c(NCCCN(C)C(C)=O)c(Cl)[n+]1ccccc21

>  <Energy>  (7) 
90.33310392946117

>  <Genealogy>  (7) 
CCN(CC)CCNc1ccc2c(c1)c(NCCCN(C)C(C)=O)c(Cl)[n+]1ccccc21 (3D coordinates assigned)
CCN(CC)CCNc1ccc2c(c1)c(NCCCN(C)C(C)=O)c(Cl)[n+]1ccccc21 (optimized conformer: 90.33310392946117 kcal/mol)

>  <smiles>  (7) 
CCN(CC)CCNc1ccc2c(c1)c(NCCCN(C)C(C)=O)c(Cl)[n+]1ccccc21

>  <score_type>  (7) 
oracle

>  <origin>  (7) 
adg

>  <m_score__min__energy>  (7) 
-7.1799999999999997

>  <m_primary>  (7) 
energy

$$$$
7:0
     RDKit          3D

 44 46  0  0  0  0  0  0  0  0999 V2000
   57.3920   31.9910   41.6100 C   0  0  0  0  0  0  0  0  0  0  0  0
   57.1940   31.1890   42.8690 C   0  0  0  0  0  0  0  0  0  0  0  0
   56.9350   29.8120   42.7730 C   0  0  0  0  0  0  0  0  0  0  0  0
   56.7530   29.0460   43.9240 C   0  0  0  0  0  0  0  0  0  0  0  0
   56.8340   29.6610   45.1710 C   0  0  0  0  0  0  0  0  0  0  0  0
   57.0870   30.9920   45.2580 N   0  0  0  0  0  0  0  0  0  0  0  0
   57.2710   31.7740   44.1580 C   0  0  0  0  0  0  0  0  0  0  0  0
   57.5330   33.2440   44.3790 C   0  0  0  0  0  0  0  0  0  0  0  0
   58.5520   33.4300   45.4310 N   0  0  0  0  0  0  0  0  0  0  0  0
   57.9610   33.3210   46.7780 C   0  0  0  0  0  0  0  0  0  0  0  0
   59.0890   33.2010   47.8060 C   0  0  0  0  0  0  0  0  0  0  0  0
   60.2110   34.0750   47.4460 N   0  0  0  0  0  0  0  0  0  0  0  0
   61.5470   33.7330   47.8510 C   0  0  0  0  0  0  0  0  0  0  0  0
   62.5000   33.5300   46.8950 N   0  0  0  0  0  0  0  0  0  0  0  0
   63.7750   33.1830   47.2160 C   0  0  0  0  0  0  0  0  0  0  0  0
   64.1430   33.0250   48.5510 C   0  0  0  0  0  0  0  0  0  0  0  0
   63.1960   33.2360   49.5510 C   0  0  0  0  0  0  0  0  0  0  0  0
   61.8870   33.6110   49.2160 C   0  0  0  0  0  0  0  0  0  0  0  0
   60.8820   33.8440   50.3090 C   0  0  0  0  0  0  0  0  0  0  0  0
   59.9930   35.1930   46.5240 C   0  0  0  0  0  0  0  0  0  0  0  0
   59.2480   34.7280   45.2550 C   0  0  0  0  0  0  0  0  0  0  0  0
   57.6480   33.0281   41.8724 H   0  0  0  0  0  0  0  0  0  0  0  0
   58.2083   31.5501   41.0190 H   0  0  0  0  0  0  0  0  0  0  0  0
   56.4643   31.9806   41.0190 H   0  0  0  0  0  0  0  0  0  0  0  0
   56.8753   29.3347   41.7837 H   0  0  0  0  0  0  0  0  0  0  0  0
   56.5477   27.9680   43.8479 H   0  0  0  0  0  0  0  0  0  0  0  0
   56.6928   29.0676   46.0864 H   0  0  0  0  0  0  0  0  0  0  0  0
   57.8928   33.6935   43.4417 H   0  0  0  0  0  0  0  0  0  0  0  0
   56.5986   33.7305   44.6957 H   0  0  0  0  0  0  0  0  0  0  0  0
   57.3606   34.2176   46.9915 H   0  0  0  0  0  0  0  0  0  0  0  0
   57.3132   32.4335   46.8301 H   0  0  0  0  0  0  0  0  0  0  0  0
   58.7080   33.4912   48.7963 H   0  0  0  0  0  0  0  0  0  0  0  0
   59.4426   32.1595   47.8245 H   0  0  0  0  0  0  0  0  0  0  0  0
   62.2450   33.6280   45.8870 H   0  0  0  0  0  0  0  0  0  0  0  0
   64.5179   33.0266   46.4200 H   0  0  0  0  0  0  0  0  0  0  0  0
   65.1717   32.7364   48.8127 H   0  0  0  0  0  0  0  0  0  0  0  0
   63.4762   33.1080   50.6070 H   0  0  0  0  0  0  0  0  0  0  0  0
   61.3715   33.7305   51.2875 H   0  0  0  0  0  0  0  0  0  0  0  0
   60.4723   34.8610   50.2197 H   0  0  0  0  0  0  0  0  0  0  0  0
   60.0666   33.1111   50.2197 H   0  0  0  0  0  0  0  0  0  0  0  0
   59.3942   35.9646   47.0299 H   0  0  0  0  0  0  0  0  0  0  0  0
   60.9719   35.5972   46.2267 H   0  0  0  0  0  0  0  0  0  0  0  0
   58.5026   35.4913   44.9873 H   0  0  0  0  0  0  0  0  0  0  0  0
   60.0006   34.5918   44.4645 H   0  0  0  0  0  0  0  0  0  0  0  0
  1  2  1  0
  2  3  2  0
  3  4  1  0
  4  5  2  0
  5  6  1  0
  6  7  2  0
  7  8  1  0
  8  9  1  0
  9 10  1  0
 10 11  1  0
 11 12  1  0
 12 13  1  0
 13 14  2  0
 14 15  1  0
 15 16  2  0
 16 17  1  0
 17 18  2  0
 18 19  1  0
 12 20  1  0
 20 21  1  0
  7  2  1  0
 21  9  1  0
 18 13  1  0
  1 22  1  0
  1 23  1  0
  1 24  1  0
  3 25  1  0
  4 26  1  0
  5 27  1  0
  8 28  1  0
  8 29  1  0
 10 30  1  0
 10 31  1  0
 11 32  1  0
 11 33  1  0
 14 34  1  0
 15 35  1  0
 16 36  1  0
 17 37  1  0
 19 38  1  0
 19 39  1  0
 19 40  1  0
 20 41  1  0
 20 42  1  0
 21 43  1  0
 21 44  1  0
M  CHG  1  14   1
M  END
>  <UniqueID>  (8) 
8

>  <SMILES>  (8) 
Cc1cccnc1CN1CCN(c2[nH+]cccc2C)CC1

>  <Energy>  (8) 
57.76046587987145

>  <Genealogy>  (8) 
Cc1cccnc1CN1CCN(c2[nH+]cccc2C)CC1 (protonated)
Cc1cccnc1CN1CCN(c2[nH+]cccc2C)CC1 (3D coordinates assigned)
Cc1cccnc1CN1CCN(c2[nH+]cccc2C)CC1 (nonaromatic ring conformer: 57.76046587987145 kcal/mol)

>  <smiles>  (8) 
Cc1cccnc1CN1CCN(c2ncccc2C)CC1

>  <score_type>  (8) 
oracle

>  <origin>  (8) 
adg

>  <m_score__min__energy>  (8) 
-6.5599999999999996

>  <m_primary>  (8) 
energy

$$$$
8:0
     RDKit          3D

 27 27  0  0  0  0  0  0  0  0999 V2000
   61.1768   27.3356   46.1470 H   0  0  0  0  0  0  0  0  0  0  0  0
   60.3810   28.0750   45.9740 C   0  0  0  0  0  0  0  0  0  0  0  0
   60.7470   29.3440   45.7430 C   0  0  0  0  0  0  0  0  0  0  0  0
   61.0764   29.6095   44.7276 H   0  0  0  0  0  0  0  0  0  0  0  0
   60.7350   30.4230   46.7830 C   0  0  0  0  0  0  0  0  0  0  0  0
   60.7401   29.9673   47.7842 H   0  0  0  0  0  0  0  0  0  0  0  0
   61.6262   31.0568   46.6641 H   0  0  0  0  0  0  0  0  0  0  0  0
   59.8300   31.0368   46.6641 H   0  0  0  0  0  0  0  0  0  0  0  0
   58.9820   27.6020   46.0120 C   0  0  0  0  0  0  0  0  0  0  0  0
   58.6630   26.3040   46.4350 C   0  0  0  0  0  0  0  0  0  0  0  0
   59.4620   25.6248   46.7670 H   0  0  0  0  0  0  0  0  0  0  0  0
   57.3360   25.8690   46.4370 C   0  0  0  0  0  0  0  0  0  0  0  0
   57.0940   24.8539   46.7848 H   0  0  0  0  0  0  0  0  0  0  0  0
   56.3070   26.7210   45.9970 C   0  0  0  0  0  0  0  0  0  0  0  0
   54.9610   26.3200   45.9880 O   0  0  0  0  0  0  0  0  0  0  0  0
   54.5090   25.0200   45.6210 C   0  0  0  0  0  0  0  0  0  0  0  0
   54.3049   24.4330   46.5286 H   0  0  0  0  0  0  0  0  0  0  0  0
   53.5882   25.1065   45.0255 H   0  0  0  0  0  0  0  0  0  0  0  0
   55.2849   24.5166   45.0255 H   0  0  0  0  0  0  0  0  0  0  0  0
   56.6210   28.0110   45.5440 C   0  0  0  0  0  0  0  0  0  0  0  0
   55.5740   28.8350   45.1000 O   0  0  0  0  0  0  0  0  0  0  0  0
   55.6790   29.7670   44.0280 C   0  0  0  0  0  0  0  0  0  0  0  0
   55.7934   30.7825   44.4349 H   0  0  0  0  0  0  0  0  0  0  0  0
   56.5548   29.5186   43.4106 H   0  0  0  0  0  0  0  0  0  0  0  0
   54.7698   29.7197   43.4106 H   0  0  0  0  0  0  0  0  0  0  0  0
   57.9620   28.4420   45.5450 C   0  0  0  0  0  0  0  0  0  0  0  0
   58.2111   29.4477   45.1756 H   0  0  0  0  0  0  0  0  0  0  0  0
  1  2  1  0
  2  3  2  0
  3  4  1  0
  3  5  1  0
  5  6  1  0
  5  7  1  0
  5  8  1  0
  2  9  1  0
  9 10  2  0
 10 11  1  0
 10 12  1  0
 12 13  1  0
 12 14  2  0
 14 15  1  0
 15 16  1  0
 16 17  1  0
 16 18  1  0
 16 19  1  0
 14 20  1  0
 20 21  1  0
 21 22  1  0
 22 23  1  0
 22 24  1  0
 22 25  1  0
 20 26  2  0
 26 27  1  0
 26  9  1  0
M  END
>  <UniqueID>  (9) 
9

>  <SMILES>  (9) 
C/C=C\c1ccc(OC)c(OC)c1

>  <Energy>  (9) 
27.74592770836508

>  <Genealogy>  (9) 
C/C=C\c1ccc(OC)c(OC)c1 (cis-trans isomerization)
C/C=C\c1ccc(OC)c(OC)c1 (3D coordinates assigned)
C/C=C\c1ccc(OC)c(OC)c1 (optimized conformer: 27.74592770836508 kcal/mol)

>  <smiles>  (9) 
CC=Cc1ccc(OC)c(OC)c1

>  <score_type>  (9) 
oracle

>  <origin>  (9) 
adg

>  <m_score__min__energy>  (9) 
-5.4299999999999997

>  <m_primary>  (9) 
energy

$$$$
9:0
     RDKit          3D

 30 32  0  0  0  0  0  0  0  0999 V2000
   58.3743   24.1402   47.6590 H   0  0  0  0  0  0  0  0  0  0  0  0
   57.4930   24.4420   47.0740 C   0  0  0  0  0  0  0  0  0  0  0  0
   56.5500   23.4850   46.6880 C   0  0  0  0  0  0  0  0  0  0  0  0
   56.6927   22.4299   46.9645 H   0  0  0  0  0  0  0  0  0  0  0  0
   55.4260   23.8680   45.9510 C   0  0  0  0  0  0  0  0  0  0  0  0
   54.5020   22.9420   45.5940 F   0  0  0  0  0  0  0  0  0  0  0  0
   55.2480   25.2090   45.5920 C   0  0  0  0  0  0  0  0  0  0  0  0
   54.3549   25.5107   45.0252 H   0  0  0  0  0  0  0  0  0  0  0  0
   56.2060   26.1710   45.9530 C   0  0  0  0  0  0  0  0  0  0  0  0
   56.0230   27.5570   45.6300 N   0  0  0  0  0  0  0  0  0  0  0  0
   55.1450   28.0070   45.9710 H   0  0  0  0  0  0  0  0  0  0  0  0
   57.0030   28.3800   44.9660 C   0  0  0  0  0  0  0  0  0  0  0  0
   58.4120   27.7560   44.4060 S   0  0  0  0  0  0  0  0  0  0  0  0
   56.7240   29.7570   44.6900 N   0  0  0  0  0  0  0  0  0  0  0  0
   57.4030   30.7740   45.1330 C   0  0  0  0  0  0  0  0  0  0  0  0
   58.5560   30.7330   46.3840 S   0  0  0  0  0  0  0  0  0  0  0  0
   58.9160   32.3630   46.1990 C   0  0  0  0  0  0  0  0  0  0  0  0
   59.8290   33.1380   46.9110 C   0  0  0  0  0  0  0  0  0  0  0  0
   60.4313   32.7015   47.7213 H   0  0  0  0  0  0  0  0  0  0  0  0
   59.9580   34.4930   46.5640 C   0  0  0  0  0  0  0  0  0  0  0  0
   60.6687   35.1313   47.1093 H   0  0  0  0  0  0  0  0  0  0  0  0
   59.1830   35.0400   45.5220 C   0  0  0  0  0  0  0  0  0  0  0  0
   59.2934   36.1022   45.2583 H   0  0  0  0  0  0  0  0  0  0  0  0
   58.2690   34.2360   44.8170 C   0  0  0  0  0  0  0  0  0  0  0  0
   57.6625   34.6584   44.0023 H   0  0  0  0  0  0  0  0  0  0  0  0
   58.1470   32.8910   45.1720 C   0  0  0  0  0  0  0  0  0  0  0  0
   57.3080   32.0040   44.5750 N   0  0  0  0  0  0  0  0  0  0  0  0
   56.6720   32.2400   43.7810 H   0  0  0  0  0  0  0  0  0  0  0  0
   57.3170   25.7830   46.7170 C   0  0  0  0  0  0  0  0  0  0  0  0
   58.0524   26.5361   47.0364 H   0  0  0  0  0  0  0  0  0  0  0  0
  1  2  1  0
  2  3  2  0
  3  4  1  0
  3  5  1  0
  5  6  1  0
  5  7  2  0
  7  8  1  0
  7  9  1  0
  9 10  1  0
 10 11  1  0
 10 12  1  0
 12 13  2  0
 12 14  1  0
 14 15  2  0
 15 16  1  0
 16 17  1  0
 17 18  2  0
 18 19  1  0
 18 20  1  0
 20 21  1  0
 20 22  2  0
 22 23  1  0
 22 24  1  0
 24 25  1  0
 24 26  2  0
 26 27  1  0
 27 28  1  0
  9 29  2  0
 29 30  1  0
 29  2  1  0
 27 15  1  0
 26 17  1  0
M  END
>  <UniqueID>  (10) 
10

>  <SMILES>  (10) 
Fc1cccc(NC(=S)/N=c2/[nH]c3ccccc3s2)c1

>  <Energy>  (10) 
79.87731504605038

>  <Genealogy>  (10) 
Fc1cccc(NC(=S)/N=c2/[nH]c3ccccc3s2)c1 (cis-trans isomerization)
Fc1cccc(NC(=S)/N=c2/[nH]c3ccccc3s2)c1 (3D coordinates assigned)
Fc1cccc(NC(=S)/N=c2/[nH]c3ccccc3s2)c1 (optimized conformer: 79.87731504605038 kcal/mol)

>  <smiles>  (10) 
Fc1cccc(NC(=S)N=c2[nH]c3ccccc3s2)c1

>  <score_type>  (10) 
oracle

>  <origin>  (10) 
adg

>  <m_score__min__energy>  (10) 
-7.2999999999999998

>  <m_primary>  (10) 
energy

$$$$
10:0
     RDKit          3D

 38 41  0  0  0  0  0  0  0  0999 V2000
   54.4810   28.9650   45.3040 H   0  0  0  0  0  0  0  0  0  0  0  0
   55.4530   29.3400   45.2410 N   0  0  0  0  0  0  0  0  0  0  0  0
   56.5240   28.6170   45.3860 C   0  0  0  0  0  0  0  0  0  0  0  0
   57.8170   29.1940   45.3050 C   0  0  0  0  0  0  0  0  0  0  0  0
   58.0210   30.6410   45.0680 C   0  0  0  0  0  0  0  0  0  0  0  0
   58.6940   31.4290   46.0250 C   0  0  0  0  0  0  0  0  0  0  0  0
   59.3210   30.7290   47.5130 Cl  0  0  0  0  0  0  0  0  0  0  0  0
   58.8820   32.7960   45.7950 C   0  0  0  0  0  0  0  0  0  0  0  0
   59.4078   33.4096   46.5413 H   0  0  0  0  0  0  0  0  0  0  0  0
   58.4050   33.3850   44.6220 C   0  0  0  0  0  0  0  0  0  0  0  0
   58.5566   34.4602   44.4464 H   0  0  0  0  0  0  0  0  0  0  0  0
   57.7360   32.6110   43.6720 C   0  0  0  0  0  0  0  0  0  0  0  0
   57.3606   33.0793   42.7502 H   0  0  0  0  0  0  0  0  0  0  0  0
   57.5410   31.2430   43.8870 C   0  0  0  0  0  0  0  0  0  0  0  0
   56.6850   30.3090   42.6630 Cl  0  0  0  0  0  0  0  0  0  0  0  0
   58.9400   28.3740   45.4560 C   0  0  0  0  0  0  0  0  0  0  0  0
   59.9495   28.8062   45.3926 H   0  0  0  0  0  0  0  0  0  0  0  0
   58.7790   27.0080   45.6870 C   0  0  0  0  0  0  0  0  0  0  0  0
   59.8690   26.1500   45.8460 C   0  0  0  0  0  0  0  0  0  0  0  0
   60.8942   26.5447   45.7901 H   0  0  0  0  0  0  0  0  0  0  0  0
   59.6600   24.8260   46.0700 N   0  0  0  0  0  0  0  0  0  0  0  0
   58.4030   24.3100   46.1330 C   0  0  0  0  0  0  0  0  0  0  0  0
   58.2520   23.0400   46.3720 N   0  0  0  0  0  0  0  0  0  0  0  0
   57.5650   22.0830   45.5460 C   0  0  0  0  0  0  0  0  0  0  0  0
   56.8190   21.0730   46.1690 C   0  0  0  0  0  0  0  0  0  0  0  0
   56.7497   21.0421   47.2664 H   0  0  0  0  0  0  0  0  0  0  0  0
   56.1620   20.1040   45.4030 C   0  0  0  0  0  0  0  0  0  0  0  0
   55.5649   19.3243   45.8986 H   0  0  0  0  0  0  0  0  0  0  0  0
   56.2630   20.1250   44.0100 C   0  0  0  0  0  0  0  0  0  0  0  0
   55.7390   19.3676   43.4085 H   0  0  0  0  0  0  0  0  0  0  0  0
   57.0310   21.1100   43.3810 C   0  0  0  0  0  0  0  0  0  0  0  0
   57.1175   21.1216   42.2845 H   0  0  0  0  0  0  0  0  0  0  0  0
   57.6890   22.0800   44.1430 C   0  0  0  0  0  0  0  0  0  0  0  0
   58.3054   22.8431   43.6453 H   0  0  0  0  0  0  0  0  0  0  0  0
   57.3300   25.1370   45.9900 N   0  0  0  0  0  0  0  0  0  0  0  0
   57.4840   26.4690   45.7640 C   0  0  0  0  0  0  0  0  0  0  0  0
   56.3940   27.2750   45.6150 N   0  0  0  0  0  0  0  0  0  0  0  0
   55.1350   26.7190   45.6940 O   0  0  0  0  0  0  0  0  0  0  0  0
  1  2  1  0
  2  3  2  0
  3  4  1  0
  4  5  1  0
  5  6  2  0
  6  7  1  0
  6  8  1  0
  8  9  1  0
  8 10  2  0
 10 11  1  0
 10 12  1  0
 12 13  1  0
 12 14  2  0
 14 15  1  0
  4 16  2  0
 16 17  1  0
 16 18  1  0
 18 19  1  0
 19 20  1  0
 19 21  2  0
 21 22  1  0
 22 23  2  0
 23 24  1  0
 24 25  2  0
 25 26  1  0
 25 27  1  0
 27 28  1  0
 27 29  2  0
 29 30  1  0
 29 31  1  0
 31 32  1  0
 31 33  2  0
 33 34  1  0
 22 35  1  0
 35 36  1  0
 36 37  1  0
 37 38  1  0
 37  3  1  0
 14  5  1  0
 36 18  2  0
 33 24  1  0
M  CHG  2  35  -1  38  -1
M  END
>  <UniqueID>  (11) 
11

>  <SMILES>  (11) 
[H]/N=c1\c(-c2c(Cl)cccc2Cl)cc2cn/c(=N/c3ccccc3)[n-]c2n1[O-]

>  <Energy>  (11) 
65.44753525522461

>  <Genealogy>  (11) 
N=c1c(-c2c(Cl)cccc2Cl)cc2cnc(=Nc3ccccc3)[n-]c2n1[O-] (protonated)
[H]/N=c1\c(-c2c(Cl)cccc2Cl)cc2cn/c(=N/c3ccccc3)[n-]c2n1[O-] (cis-trans isomerization)
[H]/N=c1\c(-c2c(Cl)cccc2Cl)cc2cn/c(=N/c3ccccc3)[n-]c2n1[O-] (3D coordinates assigned)
[H]/N=c1\c(-c2c(Cl)cccc2Cl)cc2cn/c(=N/c3ccccc3)[n-]c2n1[O-] (optimized conformer: 65.44753525522461 kcal/mol)

>  <smiles>  (11) 
N=c1c(-c2c(Cl)cccc2Cl)cc2cnc(=Nc3ccccc3)[nH]c2n1O

>  <score_type>  (11) 
oracle

>  <origin>  (11) 
adg

>  <m_score__min__energy>  (11) 
-13.949999999999999

>  <m_primary>  (11) 
energy

$$$$
11:0
     RDKit          3D

 41 42  0  0  0  0  0  0  0  0999 V2000
   55.5500   28.6540   45.1370 O   0  0  0  0  0  0  0  0  0  0  0  0
   56.4690   29.3250   44.5950 C   0  0  0  0  0  0  0  0  0  0  0  0
   57.0150   28.8860   43.2570 C   0  0  0  0  0  0  0  0  0  0  0  0
   58.1800   27.8920   43.3840 C   0  0  0  0  0  0  0  0  0  0  0  0
   57.7850   26.6530   44.2200 C   0  0  0  0  0  0  0  0  0  0  0  0
   58.6260   26.4370   45.4180 N   0  0  0  0  0  0  0  0  0  0  0  0
   59.7900   27.3450   45.4960 C   0  0  0  0  0  0  0  0  0  0  0  0
   60.4640   27.2390   46.8690 C   0  0  0  0  0  0  0  0  0  0  0  0
   59.5520   27.5920   47.9750 N   0  0  0  0  0  0  0  0  0  0  0  0
   58.1210   27.4490   47.6480 C   0  0  0  0  0  0  0  0  0  0  0  0
   57.8720   26.2800   46.6830 C   0  0  0  0  0  0  0  0  0  0  0  0
   56.9090   30.5240   45.2460 N   0  0  0  0  0  0  0  0  0  0  0  0
   58.4900   30.7770   45.9150 S   0  0  0  0  0  0  0  0  0  0  0  0
   58.5400   30.1580   47.2840 O   0  0  0  0  0  0  0  0  0  0  0  0
   59.4990   30.0990   45.0320 O   0  0  0  0  0  0  0  0  0  0  0  0
   58.8660   32.5040   45.9950 C   0  0  0  0  0  0  0  0  0  0  0  0
   59.2830   33.0590   47.2160 C   0  0  0  0  0  0  0  0  0  0  0  0
   59.6040   34.4140   47.3060 C   0  0  0  0  0  0  0  0  0  0  0  0
   59.4990   35.2350   46.1830 C   0  0  0  0  0  0  0  0  0  0  0  0
   59.0640   34.7020   44.9670 C   0  0  0  0  0  0  0  0  0  0  0  0
   58.7410   33.3420   44.8650 C   0  0  0  0  0  0  0  0  0  0  0  0
   58.1130   32.7010   43.1680 Br  0  0  0  0  0  0  0  0  0  0  0  0
   56.2051   28.4067   42.6875 H   0  0  0  0  0  0  0  0  0  0  0  0
   57.3992   29.7817   42.7471 H   0  0  0  0  0  0  0  0  0  0  0  0
   58.4792   27.5628   42.3780 H   0  0  0  0  0  0  0  0  0  0  0  0
   59.0107   28.4004   43.8953 H   0  0  0  0  0  0  0  0  0  0  0  0
   56.7423   26.7762   44.5480 H   0  0  0  0  0  0  0  0  0  0  0  0
   57.9267   25.7757   43.5717 H   0  0  0  0  0  0  0  0  0  0  0  0
   60.5149   27.0718   44.7150 H   0  0  0  0  0  0  0  0  0  0  0  0
   59.4446   28.3789   45.3486 H   0  0  0  0  0  0  0  0  0  0  0  0
   60.8099   26.2048   47.0133 H   0  0  0  0  0  0  0  0  0  0  0  0
   61.3018   27.9516   46.8861 H   0  0  0  0  0  0  0  0  0  0  0  0
   59.7220   28.5910   48.2430 H   0  0  0  0  0  0  0  0  0  0  0  0
   57.5594   27.2702   48.5768 H   0  0  0  0  0  0  0  0  0  0  0  0
   57.7875   28.3753   47.1573 H   0  0  0  0  0  0  0  0  0  0  0  0
   58.1850   25.3445   47.1696 H   0  0  0  0  0  0  0  0  0  0  0  0
   56.7993   26.2615   46.4401 H   0  0  0  0  0  0  0  0  0  0  0  0
   59.3571   32.4203   48.1085 H   0  0  0  0  0  0  0  0  0  0  0  0
   59.9406   34.8357   48.2646 H   0  0  0  0  0  0  0  0  0  0  0  0
   59.7586   36.3015   46.2549 H   0  0  0  0  0  0  0  0  0  0  0  0
   58.9745   35.3532   44.0850 H   0  0  0  0  0  0  0  0  0  0  0  0
  1  2  2  0
  2  3  1  0
  3  4  1  0
  4  5  1  0
  5  6  1  0
  6  7  1  0
  7  8  1  0
  8  9  1  0
  9 10  1  0
 10 11  1  0
  2 12  1  0
 12 13  1  0
 13 14  2  0
 13 15  2  0
 13 16  1  0
 16 17  2  0
 17 18  1  0
 18 19  2  0
 19 20  1  0
 20 21  2  0
 21 22  1  0
 11  6  1  0
 21 16  1  0
  3 23  1  0
  3 24  1  0
  4 25  1  0
  4 26  1  0
  5 27  1  0
  5 28  1  0
  7 29  1  0
  7 30  1  0
  8 31  1  0
  8 32  1  0
  9 33  1  0
 10 34  1  0
 10 35  1  0
 11 36  1  0
 11 37  1  0
 17 38  1  0
 18 39  1  0
 19 40  1  0
 20 41  1  0
M  CHG  1  12  -1
M  END
>  <UniqueID>  (12) 
12

>  <SMILES>  (12) 
O=C(CCCN1CCNCC1)[N-]S(=O)(=O)c1ccccc1Br

>  <Energy>  (12) 
53.475180174035586

>  <Genealogy>  (12) 
O=C(CCCN1CCNCC1)[N-]S(=O)(=O)c1ccccc1Br (protonated)
O=C(CCCN1CCNCC1)[N-]S(=O)(=O)c1ccccc1Br (3D coordinates assigned)
O=C(CCCN1CCNCC1)[N-]S(=O)(=O)c1ccccc1Br (nonaromatic ring conformer: 53.475180174035586 kcal/mol)

>  <smiles>  (12) 
O=C(CCCN1CCNCC1)NS(=O)(=O)c1ccccc1Br

>  <score_type>  (12) 
oracle

>  <origin>  (12) 
adg

>  <m_score__min__energy>  (12) 
-10.300000000000001

>  <m_primary>  (12) 
energy

$$$$
12:0
     RDKit          3D

 48 50  0  0  0  0  0  0  0  0999 V2000
   56.7315   31.0168   43.3340 H   0  0  0  0  0  0  0  0  0  0  0  0
   57.3970   30.7430   44.1660 C   0  0  0  0  0  0  0  0  0  0  0  0
   57.4650   29.3210   44.5310 C   0  0  0  0  0  0  0  0  0  0  0  0
   58.8780   28.4240   44.5960 S   0  0  0  0  0  0  0  0  0  0  0  0
   58.1260   27.0600   45.2280 C   0  0  0  0  0  0  0  0  0  0  0  0
   58.8020   25.9720   45.4820 N   0  0  0  0  0  0  0  0  0  0  0  0
   58.3960   24.5770   45.3780 C   0  0  0  0  0  0  0  0  0  0  0  0
   58.2731   24.1547   46.3863 H   0  0  0  0  0  0  0  0  0  0  0  0
   57.4418   24.5124   44.8346 H   0  0  0  0  0  0  0  0  0  0  0  0
   59.1665   24.0104   44.8346 H   0  0  0  0  0  0  0  0  0  0  0  0
   56.7870   27.2740   45.4290 N   0  0  0  0  0  0  0  0  0  0  0  0
   55.8130   26.3290   45.9880 C   0  0  0  0  0  0  0  0  0  0  0  0
   55.8532   26.3680   47.0866 H   0  0  0  0  0  0  0  0  0  0  0  0
   54.8025   26.6000   45.6482 H   0  0  0  0  0  0  0  0  0  0  0  0
   56.0533   25.3108   45.6482 H   0  0  0  0  0  0  0  0  0  0  0  0
   56.4350   28.5450   45.0610 C   0  0  0  0  0  0  0  0  0  0  0  0
   55.1450   29.0430   45.2240 O   0  0  0  0  0  0  0  0  0  0  0  0
   58.0790   31.7400   44.7620 C   0  0  0  0  0  0  0  0  0  0  0  0
   58.0780   33.0390   44.2820 C   0  0  0  0  0  0  0  0  0  0  0  0
   57.5035   33.4204   43.4250 H   0  0  0  0  0  0  0  0  0  0  0  0
   58.9350   33.7630   45.0840 C   0  0  0  0  0  0  0  0  0  0  0  0
   59.2430   35.2200   44.9020 C   0  0  0  0  0  0  0  0  0  0  0  0
   59.3443   35.6992   45.8870 H   0  0  0  0  0  0  0  0  0  0  0  0
   60.1840   35.3288   44.3428 H   0  0  0  0  0  0  0  0  0  0  0  0
   58.4265   35.7003   44.3428 H   0  0  0  0  0  0  0  0  0  0  0  0
   59.4330   32.9810   46.0680 N   0  0  0  0  0  0  0  0  0  0  0  0
   60.3380   33.4060   47.1030 C   0  0  0  0  0  0  0  0  0  0  0  0
   59.8440   33.8000   48.3540 C   0  0  0  0  0  0  0  0  0  0  0  0
   58.7603   33.7878   48.5423 H   0  0  0  0  0  0  0  0  0  0  0  0
   60.7190   34.2080   49.3630 C   0  0  0  0  0  0  0  0  0  0  0  0
   60.3216   34.5135   50.3422 H   0  0  0  0  0  0  0  0  0  0  0  0
   62.1090   34.2300   49.1320 C   0  0  0  0  0  0  0  0  0  0  0  0
   63.0380   34.6290   50.1070 O   0  0  0  0  0  0  0  0  0  0  0  0
   63.8370   33.7520   50.9010 C   0  0  0  0  0  0  0  0  0  0  0  0
   64.3304   34.3327   51.6943 H   0  0  0  0  0  0  0  0  0  0  0  0
   63.1857   32.9815   51.3392 H   0  0  0  0  0  0  0  0  0  0  0  0
   64.8990   33.0670   50.0490 C   0  0  0  0  0  0  0  0  0  0  0  0
   65.6417   32.5880   50.7039 H   0  0  0  0  0  0  0  0  0  0  0  0
   64.4241   32.3046   49.4141 H   0  0  0  0  0  0  0  0  0  0  0  0
   65.3977   33.8141   49.4141 H   0  0  0  0  0  0  0  0  0  0  0  0
   62.5970   33.8290   47.8820 C   0  0  0  0  0  0  0  0  0  0  0  0
   63.6806   33.8346   47.6930 H   0  0  0  0  0  0  0  0  0  0  0  0
   61.7210   33.4220   46.8730 C   0  0  0  0  0  0  0  0  0  0  0  0
   62.1175   33.1130   45.8946 H   0  0  0  0  0  0  0  0  0  0  0  0
   58.8990   31.7430   45.9030 C   0  0  0  0  0  0  0  0  0  0  0  0
   59.0400   30.7560   46.8020 C   0  0  0  0  0  0  0  0  0  0  0  0
   59.7193   30.8843   47.6576 H   0  0  0  0  0  0  0  0  0  0  0  0
   58.4763   29.8190   46.6830 H   0  0  0  0  0  0  0  0  0  0  0  0
  1  2  1  0
  2  3  1  0
  3  4  1  0
  4  5  1  0
  5  6  2  0
  6  7  1  0
  7  8  1  0
  7  9  1  0
  7 10  1  0
  5 11  1  0
 11 12  1  0
 12 13  1  0
 12 14  1  0
 12 15  1  0
 11 16  1  0
 16 17  1  0
  2 18  2  3
 18 19  1  0
 19 20  1  0
 19 21  2  0
 21 22  1  0
 22 23  1  0
 22 24  1  0
 22 25  1  0
 21 26  1  0
 26 27  1  0
 27 28  2  0
 28 29  1  0
 28 30  1  0
 30 31  1  0
 30 32  2  0
 32 33  1  0
 33 34  1  0
 34 35  1  0
 34 36  1  0
 34 37  1  0
 37 38  1  0
 37 39  1  0
 37 40  1  0
 32 41  1  0
 41 42  1  0
 41 43  2  0
 43 44  1  0
 26 45  1  0
 45 46  2  0
 46 47  1  0
 46 48  1  0
 16  3  2  0
 45 18  1  0
 43 27  1  0
M  CHG  1  17  -1
M  END
>  <UniqueID>  (13) 
13

>  <SMILES>  (13) 
C=c1c(=Cc2s/c(=N/C)n(C)c2[O-])cc(C)n1-c1ccc(OCC)cc1

>  <Energy>  (13) 
130.3688679312607

>  <Genealogy>  (13) 
C=c1c(=Cc2sc(=NC)n(C)c2[O-])cc(C)n1-c1ccc(OCC)cc1 (protonated)
C=c1c(=Cc2s/c(=N/C)n(C)c2[O-])cc(C)n1-c1ccc(OCC)cc1 (cis-trans isomerization)
C=c1c(=Cc2s/c(=N/C)n(C)c2[O-])cc(C)n1-c1ccc(OCC)cc1 (3D coordinates assigned)
C=c1c(=Cc2s/c(=N/C)n(C)c2[O-])cc(C)n1-c1ccc(OCC)cc1 (optimized conformer: 130.3688679312607 kcal/mol)

>  <smiles>  (13) 
C=c1c(=Cc2sc(=NC)n(C)c2O)cc(C)n1-c1ccc(OCC)cc1

>  <score_type>  (13) 
oracle

>  <origin>  (13) 
adg

>  <m_score__min__energy>  (13) 
-11.31

>  <m_primary>  (13) 
energy

$$$$
13:0
     RDKit          3D

 60 63  0  0  0  0  0  0  0  0999 V2000
   55.8330   22.1940   49.7970 C   0  0  0  0  0  0  0  0  0  0  0  0
   56.9720   22.5700   48.8520 C   0  0  0  0  0  0  0  0  0  0  0  0
   56.4610   23.2750   47.6180 C   0  0  0  0  0  0  0  0  0  0  0  0
   57.1550   24.4140   47.1770 C   0  0  0  0  0  0  0  0  0  0  0  0
   56.6640   25.1980   46.1240 C   0  0  0  0  0  0  0  0  0  0  0  0
   57.4030   26.3980   45.6760 C   0  0  0  0  0  0  0  0  0  0  0  0
   57.8020   26.6020   44.4030 N   0  0  0  0  0  0  0  0  0  0  0  0
   58.4050   27.7510   44.4210 O   0  0  0  0  0  0  0  0  0  0  0  0
   58.3910   28.2360   45.6370 C   0  0  0  0  0  0  0  0  0  0  0  0
   58.9890   29.5190   46.0200 C   0  0  0  0  0  0  0  0  0  0  0  0
   58.4290   30.7720   45.8040 C   0  0  0  0  0  0  0  0  0  0  0  0
   59.2280   31.8220   46.2720 C   0  0  0  0  0  0  0  0  0  0  0  0
   60.4220   31.3920   46.8460 C   0  0  0  0  0  0  0  0  0  0  0  0
   61.4680   32.2540   47.4150 C   0  0  0  0  0  0  0  0  0  0  0  0
   62.7760   32.0160   47.1290 N   0  0  0  0  0  0  0  0  0  0  0  0
   63.7610   32.7960   47.6470 C   0  0  0  0  0  0  0  0  0  0  0  0
   63.4350   33.8540   48.4930 C   0  0  0  0  0  0  0  0  0  0  0  0
   62.0910   34.0870   48.7780 C   0  0  0  0  0  0  0  0  0  0  0  0
   61.1350   33.2870   48.2360 N   0  0  0  0  0  0  0  0  0  0  0  0
   60.4810   29.7090   46.7750 S   0  0  0  0  0  0  0  0  0  0  0  0
   57.7610   27.4110   46.4950 N   0  0  0  0  0  0  0  0  0  0  0  0
   55.4510   24.8450   45.5190 C   0  0  0  0  0  0  0  0  0  0  0  0
   54.7440   23.7090   45.9360 C   0  0  0  0  0  0  0  0  0  0  0  0
   53.4630   23.3520   45.2350 C   0  0  0  0  0  0  0  0  0  0  0  0
   55.2730   22.8810   46.9480 C   0  0  0  0  0  0  0  0  0  0  0  0
   54.5860   21.6980   47.2680 O   0  0  0  0  0  0  0  0  0  0  0  0
   55.1720   20.3990   47.1810 C   0  0  0  0  0  0  0  0  0  0  0  0
   54.5530   19.6020   46.0200 C   0  0  1  0  0  0  0  0  0  0  0  0
   53.3540   20.2070   45.6120 O   0  0  0  0  0  0  0  0  0  0  0  0
   55.5010   19.5070   44.8120 C   0  0  0  0  0  0  0  0  0  0  0  0
   56.7240   20.2860   45.0220 N   0  0  0  0  0  0  0  0  0  0  0  0
   57.0160   21.4500   44.2380 C   0  0  0  0  0  0  0  0  0  0  0  0
   56.2620   21.7780   43.2810 O   0  0  0  0  0  0  0  0  0  0  0  0
   58.2580   22.2450   44.5160 C   0  0  0  0  0  0  0  0  0  0  0  0
   59.0210   21.6460   45.5300 O   0  0  0  0  0  0  0  0  0  0  0  0
   56.1690   22.3049   50.8385 H   0  0  0  0  0  0  0  0  0  0  0  0
   54.9732   22.8560   49.6166 H   0  0  0  0  0  0  0  0  0  0  0  0
   55.5363   21.1502   49.6166 H   0  0  0  0  0  0  0  0  0  0  0  0
   57.6693   23.2364   49.3808 H   0  0  0  0  0  0  0  0  0  0  0  0
   57.4761   21.6449   48.5357 H   0  0  0  0  0  0  0  0  0  0  0  0
   58.0993   24.6952   47.6661 H   0  0  0  0  0  0  0  0  0  0  0  0
   57.4557   30.9238   45.3145 H   0  0  0  0  0  0  0  0  0  0  0  0
   58.9414   32.8811   46.1942 H   0  0  0  0  0  0  0  0  0  0  0  0
   64.8132   32.5925   47.3989 H   0  0  0  0  0  0  0  0  0  0  0  0
   64.2205   34.4907   48.9260 H   0  0  0  0  0  0  0  0  0  0  0  0
   61.8042   34.9170   49.4405 H   0  0  0  0  0  0  0  0  0  0  0  0
   55.0482   25.4673   44.7063 H   0  0  0  0  0  0  0  0  0  0  0  0
   52.6847   23.1351   45.9814 H   0  0  0  0  0  0  0  0  0  0  0  0
   53.1424   24.1950   44.6053 H   0  0  0  0  0  0  0  0  0  0  0  0
   53.6246   22.4647   44.6053 H   0  0  0  0  0  0  0  0  0  0  0  0
   56.2542   20.5012   47.0127 H   0  0  0  0  0  0  0  0  0  0  0  0
   54.9821   19.8608   48.1214 H   0  0  0  0  0  0  0  0  0  0  0  0
   54.3643   18.5830   46.3887 H   0  0  0  0  0  0  0  0  0  0  0  0
   53.1570   20.9270   46.2670 H   0  0  0  0  0  0  0  0  0  0  0  0
   55.7723   18.4528   44.6535 H   0  0  0  0  0  0  0  0  0  0  0  0
   54.9801   19.9156   43.9336 H   0  0  0  0  0  0  0  0  0  0  0  0
   57.4160   19.9910   45.7470 H   0  0  0  0  0  0  0  0  0  0  0  0
   58.8613   22.3027   43.5980 H   0  0  0  0  0  0  0  0  0  0  0  0
   57.9634   23.2518   44.8469 H   0  0  0  0  0  0  0  0  0  0  0  0
   59.2280   20.7250   45.2210 H   0  0  0  0  0  0  0  0  0  0  0  0
  1  2  1  0
  2  3  1  0
  3  4  2  0
  4  5  1  0
  5  6  1  0
  6  7  2  0
  7  8  1  0
  8  9  1  0
  9 10  1  0
 10 11  2  0
 11 12  1  0
 12 13  2  0
 13 14  1  0
 14 15  2  0
 15 16  1  0
 16 17  2  0
 17 18  1  0
 18 19  2  0
 13 20  1  0
  9 21  2  0
  5 22  2  0
 22 23  1  0
 23 24  1  0
 23 25  2  0
 25 26  1  0
 26 27  1  0
 27 28  1  0
 28 29  1  0
 28 30  1  0
 30 31  1  0
 31 32  1  0
 32 33  2  0
 32 34  1  0
 34 35  1  0
 25  3  1  0
 21  6  1  0
 20 10  1  0
 19 14  1  0
  1 36  1  0
  1 37  1  0
  1 38  1  0
  2 39  1  0
  2 40  1  0
  4 41  1  0
 11 42  1  0
 12 43  1  0
 16 44  1  0
 17 45  1  0
 18 46  1  0
 22 47  1  0
 24 48  1  0
 24 49  1  0
 24 50  1  0
 27 51  1  0
 27 52  1  0
 28 53  1  1
 29 54  1  0
 30 55  1  0
 30 56  1  0
 31 57  1  0
 34 58  1  0
 34 59  1  0
 35 60  1  0
M  END
>  <UniqueID>  (14) 
14

>  <SMILES>  (14) 
CCc1cc(-c2noc(-c3ccc(-c4ncccn4)s3)n2)cc(C)c1OC[C@@H](O)CNC(=O)CO

>  <Energy>  (14) 
121.70055241923703

>  <Genealogy>  (14) 
CCc1cc(-c2noc(-c3ccc(-c4ncccn4)s3)n2)cc(C)c1OC[C@@H](O)CNC(=O)CO (chirality)
CCc1cc(-c2noc(-c3ccc(-c4ncccn4)s3)n2)cc(C)c1OC[C@@H](O)CNC(=O)CO (3D coordinates assigned)
CCc1cc(-c2noc(-c3ccc(-c4ncccn4)s3)n2)cc(C)c1OC[C@@H](O)CNC(=O)CO (optimized conformer: 121.70055241923703 kcal/mol)

>  <smiles>  (14) 
CCc1cc(-c2noc(-c3ccc(-c4ncccn4)s3)n2)cc(C)c1OCC(O)CNC(=O)CO

>  <score_type>  (14) 
oracle

>  <origin>  (14) 
adg

>  <m_score__min__energy>  (14) 
-8.4800000000000004

>  <m_primary>  (14) 
energy

$$$$
14:0
     RDKit          3D

 46 48  0  0  1  0  0  0  0  0999 V2000
   59.2860   33.7700   51.5580 C   0  0  0  0  0  0  0  0  0  0  0  0
   58.3280   32.6250   51.5030 C   0  0  0  0  0  0  0  0  0  0  0  0
   58.2260   32.0820   50.1200 C   0  0  0  0  0  0  0  0  0  0  0  0
   59.2790   32.5640   49.1890 C   0  0  0  0  0  0  0  0  0  0  0  0
   59.0140   33.5170   48.3010 N   0  0  0  0  0  0  0  0  0  0  0  0
   59.9720   33.9500   47.4580 C   0  0  0  0  0  0  0  0  0  0  0  0
   59.6820   34.8630   46.6720 N   0  0  0  0  0  0  0  0  0  0  0  0
   59.1120   34.8370   45.4180 C   0  0  0  0  0  0  0  0  0  0  0  0
   57.8970   33.9690   45.1740 C   0  0  0  0  0  0  0  0  0  0  0  0
   58.2150   32.5840   44.9030 N   0  0  0  0  0  0  0  0  0  0  0  0
   57.7940   32.0940   43.6480 C   0  0  0  0  0  0  0  0  0  0  0  0
   57.0090   30.8400   43.6390 C   0  0  0  0  0  0  0  0  0  0  0  0
   56.6690   30.3220   44.8770 O   0  0  0  0  0  0  0  0  0  0  0  0
   57.8490   30.3140   45.6400 C   0  0  0  0  0  0  0  0  0  0  0  0
   58.0190   31.7780   46.0480 C   0  0  0  0  0  0  0  0  0  0  0  0
   61.2320   33.4190   47.4970 C   0  0  0  0  0  0  0  0  0  0  0  0
   62.1970   33.8460   46.6420 C   0  0  0  0  0  0  0  0  0  0  0  0
   63.4750   33.2460   46.7430 C   0  0  0  0  0  0  0  0  0  0  0  0
   63.6490   32.2810   47.6850 C   0  0  0  0  0  0  0  0  0  0  0  0
   62.6800   31.8360   48.5540 C   0  0  0  0  0  0  0  0  0  0  0  0
   61.4430   32.4310   48.4440 C   0  0  0  0  0  0  0  0  0  0  0  0
   60.4900   31.9970   49.2870 N   0  0  0  0  0  0  0  0  0  0  0  0
   59.4966   34.0217   52.6079 H   0  0  0  0  0  0  0  0  0  0  0  0
   60.2222   33.4893   51.0533 H   0  0  0  0  0  0  0  0  0  0  0  0
   58.8445   34.6420   51.0533 H   0  0  0  0  0  0  0  0  0  0  0  0
   58.6787   31.8296   52.1770 H   0  0  0  0  0  0  0  0  0  0  0  0
   57.3353   32.9827   51.8137 H   0  0  0  0  0  0  0  0  0  0  0  0
   58.2926   30.9854   50.1758 H   0  0  0  0  0  0  0  0  0  0  0  0
   57.2658   32.4349   49.7156 H   0  0  0  0  0  0  0  0  0  0  0  0
   58.8220   35.8701   45.1760 H   0  0  0  0  0  0  0  0  0  0  0  0
   59.8893   34.3795   44.7883 H   0  0  0  0  0  0  0  0  0  0  0  0
   57.2565   34.0096   46.0674 H   0  0  0  0  0  0  0  0  0  0  0  0
   57.3951   34.3641   44.2785 H   0  0  0  0  0  0  0  0  0  0  0  0
   57.1765   32.8740   43.1787 H   0  0  0  0  0  0  0  0  0  0  0  0
   58.7237   31.8496   43.1134 H   0  0  0  0  0  0  0  0  0  0  0  0
   56.0765   31.0320   43.0881 H   0  0  0  0  0  0  0  0  0  0  0  0
   57.6629   30.0871   43.1748 H   0  0  0  0  0  0  0  0  0  0  0  0
   57.7411   29.6691   46.5246 H   0  0  0  0  0  0  0  0  0  0  0  0
   58.7144   29.9196   45.0873 H   0  0  0  0  0  0  0  0  0  0  0  0
   57.1164   32.1144   46.5791 H   0  0  0  0  0  0  0  0  0  0  0  0
   58.8966   31.8681   46.7051 H   0  0  0  0  0  0  0  0  0  0  0  0
   61.9927   34.6299   45.8978 H   0  0  0  0  0  0  0  0  0  0  0  0
   64.2997   33.5502   46.0817 H   0  0  0  0  0  0  0  0  0  0  0  0
   64.6446   31.8191   47.7580 H   0  0  0  0  0  0  0  0  0  0  0  0
   62.8819   31.0488   49.2954 H   0  0  0  0  0  0  0  0  0  0  0  0
   60.7000   31.2370   49.9960 H   0  0  0  0  0  0  0  0  0  0  0  0
  1  2  1  0
  2  3  1  0
  3  4  1  0
  4  5  2  0
  5  6  1  0
  6  7  2  0
  7  8  1  0
  8  9  1  0
  9 10  1  0
 10 11  1  0
 11 12  1  0
 12 13  1  0
 13 14  1  0
 14 15  1  0
  6 16  1  0
 16 17  2  0
 17 18  1  0
 18 19  2  0
 19 20  1  0
 20 21  2  0
 21 22  1  0
 22  4  1  0
 15 10  1  0
 21 16  1  0
  1 23  1  0
  1 24  1  0
  1 25  1  0
  2 26  1  0
  2 27  1  0
  3 28  1  0
  3 29  1  0
  8 30  1  0
  8 31  1  0
  9 32  1  0
  9 33  1  0
 11 34  1  0
 11 35  1  0
 12 36  1  0
 12 37  1  0
 14 38  1  0
 14 39  1  0
 15 40  1  0
 15 41  1  0
 17 42  1  0
 18 43  1  0
 19 44  1  0
 20 45  1  0
 22 46  1  0
M  END
>  <smiles>  (15) 
CCCc1nc(=NCCN2CCOCC2)c2ccccc2[nH]1

>  <score_type>  (15) 
oracle

>  <origin>  (15) 
adg

>  <m_score__min__energy>  (15) 
-7.2000000000000002

>  <m_primary>  (15) 
energy

$$$$
15:0
     RDKit          3D

 39 41  0  0  0  0  0  0  0  0999 V2000
   54.2501   24.6208   46.0019 H   0  0  0  0  0  0  0  0  0  0  0  0
   55.3340   24.7820   45.9060 C   0  0  0  0  0  0  0  0  0  0  0  0
   55.8920   25.9360   46.3530 N   0  0  0  0  0  0  0  0  0  0  0  0
   57.2260   26.1670   46.2410 C   0  0  0  0  0  0  0  0  0  0  0  0
   57.7030   27.2930   46.6960 N   0  0  0  0  0  0  0  0  0  0  0  0
   57.7130   28.5640   46.0300 C   0  0  0  0  0  0  0  0  0  0  0  0
   58.4780   29.6340   46.5220 C   0  0  0  0  0  0  0  0  0  0  0  0
   59.0414   29.5158   47.4594 H   0  0  0  0  0  0  0  0  0  0  0  0
   58.5300   30.8530   45.8280 C   0  0  0  0  0  0  0  0  0  0  0  0
   59.3240   31.9890   46.3560 C   0  0  0  0  0  0  0  0  0  0  0  0
   60.6530   31.7710   46.7590 C   0  0  0  0  0  0  0  0  0  0  0  0
   61.0851   30.7618   46.6896 H   0  0  0  0  0  0  0  0  0  0  0  0
   61.4300   32.8250   47.2470 C   0  0  0  0  0  0  0  0  0  0  0  0
   63.2360   32.5140   47.7820 Br  0  0  0  0  0  0  0  0  0  0  0  0
   60.8860   34.1070   47.3380 C   0  0  0  0  0  0  0  0  0  0  0  0
   61.4995   34.9376   47.7171 H   0  0  0  0  0  0  0  0  0  0  0  0
   59.5650   34.3380   46.9490 C   0  0  0  0  0  0  0  0  0  0  0  0
   59.1431   35.3510   47.0249 H   0  0  0  0  0  0  0  0  0  0  0  0
   58.7680   33.2840   46.4600 C   0  0  0  0  0  0  0  0  0  0  0  0
   57.4260   33.4840   46.0940 O   0  0  0  0  0  0  0  0  0  0  0  0
   56.9990   34.2180   44.9530 C   0  0  0  0  0  0  0  0  0  0  0  0
   56.4706   35.1264   45.2780 H   0  0  0  0  0  0  0  0  0  0  0  0
   57.8744   34.4993   44.3493 H   0  0  0  0  0  0  0  0  0  0  0  0
   56.3218   33.5960   44.3493 H   0  0  0  0  0  0  0  0  0  0  0  0
   57.8130   30.9900   44.6270 C   0  0  0  0  0  0  0  0  0  0  0  0
   57.8417   31.9443   44.0806 H   0  0  0  0  0  0  0  0  0  0  0  0
   57.0610   29.9200   44.1190 C   0  0  0  0  0  0  0  0  0  0  0  0
   56.3520   30.0540   42.8050 C   0  0  0  0  0  0  0  0  0  0  0  0
   55.2853   30.2556   42.9828 H   0  0  0  0  0  0  0  0  0  0  0  0
   56.7920   30.8849   42.2340 H   0  0  0  0  0  0  0  0  0  0  0  0
   56.4584   29.1198   42.2340 H   0  0  0  0  0  0  0  0  0  0  0  0
   57.0410   28.7000   44.8110 C   0  0  0  0  0  0  0  0  0  0  0  0
   56.4925   27.8436   44.3917 H   0  0  0  0  0  0  0  0  0  0  0  0
   58.0330   25.2030   45.6950 N   0  0  0  0  0  0  0  0  0  0  0  0
   59.0690   25.3160   45.6470 H   0  0  0  0  0  0  0  0  0  0  0  0
   57.5060   24.0380   45.2330 C   0  0  0  0  0  0  0  0  0  0  0  0
   58.1634   23.2786   44.7844 H   0  0  0  0  0  0  0  0  0  0  0  0
   56.1360   23.8030   45.3260 C   0  0  0  0  0  0  0  0  0  0  0  0
   55.6985   22.8664   44.9502 H   0  0  0  0  0  0  0  0  0  0  0  0
  1  2  1  0
  2  3  2  0
  3  4  1  0
  4  5  2  0
  5  6  1  0
  6  7  2  0
  7  8  1  0
  7  9  1  0
  9 10  1  0
 10 11  2  0
 11 12  1  0
 11 13  1  0
 13 14  1  0
 13 15  2  0
 15 16  1  0
 15 17  1  0
 17 18  1  0
 17 19  2  0
 19 20  1  0
 20 21  1  0
 21 22  1  0
 21 23  1  0
 21 24  1  0
  9 25  2  0
 25 26  1  0
 25 27  1  0
 27 28  1  0
 28 29  1  0
 28 30  1  0
 28 31  1  0
 27 32  2  0
 32 33  1  0
  4 34  1  0
 34 35  1  0
 34 36  1  0
 36 37  1  0
 36 38  2  0
 38 39  1  0
 38  2  1  0
 32  6  1  0
 19 10  1  0
M  END
>  <UniqueID>  (16) 
15

>  <SMILES>  (16) 
COc1ccc(Br)cc1-c1cc(C)cc(/N=c2/nccc[nH]2)c1

>  <Energy>  (16) 
55.61005030647253

>  <Genealogy>  (16) 
COc1ccc(Br)cc1-c1cc(C)cc(/N=c2/nccc[nH]2)c1 (cis-trans isomerization)
COc1ccc(Br)cc1-c1cc(C)cc(/N=c2/nccc[nH]2)c1 (3D coordinates assigned)
COc1ccc(Br)cc1-c1cc(C)cc(/N=c2/nccc[nH]2)c1 (optimized conformer: 55.61005030647253 kcal/mol)

>  <smiles>  (16) 
COc1ccc(Br)cc1-c1cc(C)cc(N=c2nccc[nH]2)c1

>  <score_type>  (16) 
oracle

>  <origin>  (16) 
adg

>  <m_score__min__energy>  (16) 
-7.9800000000000004

>  <m_primary>  (16) 
energy

$$$$
16:0
     RDKit          3D

 39 41  0  0  0  0  0  0  0  0999 V2000
   59.5400   33.8270   50.8180 C   0  0  0  0  0  0  0  0  0  0  0  0
   59.6950   33.1170   49.5520 N   0  0  0  0  0  0  0  0  0  0  0  0
   60.9530   33.0530   48.8590 C   0  0  0  0  0  0  0  0  0  0  0  0
   61.9720   33.9630   49.1920 C   0  0  0  0  0  0  0  0  0  0  0  0
   63.1820   33.9640   48.4970 C   0  0  0  0  0  0  0  0  0  0  0  0
   63.3910   33.0610   47.4580 C   0  0  0  0  0  0  0  0  0  0  0  0
   62.3970   32.1410   47.1210 C   0  0  0  0  0  0  0  0  0  0  0  0
   61.1740   32.1120   47.8170 C   0  0  0  0  0  0  0  0  0  0  0  0
   60.2080   31.0280   47.5060 C   0  0  0  0  0  0  0  0  0  0  0  0
   59.1920   30.6640   48.3150 N   0  0  0  0  0  0  0  0  0  0  0  0
   58.5090   29.7300   47.6710 N   0  0  0  0  0  0  0  0  0  0  0  0
   59.1370   29.5570   46.4950 C   0  0  0  0  0  0  0  0  0  0  0  0
   58.5920   28.4220   45.2230 S   0  0  0  0  0  0  0  0  0  0  0  0
   57.9440   29.7350   44.1330 C   0  0  0  0  0  0  0  0  0  0  0  0
   56.6020   30.2190   44.6100 C   0  0  0  0  0  0  0  0  0  0  0  0
   55.7220   29.3670   44.9020 O   0  0  0  0  0  0  0  0  0  0  0  0
   56.3300   31.6050   44.8650 N   0  0  0  0  0  0  0  0  0  0  0  0
   57.2800   32.6200   45.2150 C   0  0  0  0  0  0  0  0  0  0  0  0
   57.3970   33.0980   46.5330 C   0  0  0  0  0  0  0  0  0  0  0  0
   58.3340   34.0900   46.8400 C   0  0  0  0  0  0  0  0  0  0  0  0
   59.1790   34.5880   45.8440 C   0  0  0  0  0  0  0  0  0  0  0  0
   60.0810   35.5550   46.1410 F   0  0  0  0  0  0  0  0  0  0  0  0
   59.1030   34.0780   44.5450 C   0  0  0  0  0  0  0  0  0  0  0  0
   58.1650   33.0890   44.2360 C   0  0  0  0  0  0  0  0  0  0  0  0
   60.1780   30.3430   46.3870 O   0  0  0  0  0  0  0  0  0  0  0  0
   59.6929   33.1266   51.6523 H   0  0  0  0  0  0  0  0  0  0  0  0
   60.2826   34.6363   50.8779 H   0  0  0  0  0  0  0  0  0  0  0  0
   58.5277   34.2532   50.8779 H   0  0  0  0  0  0  0  0  0  0  0  0
   58.8660   32.6170   49.1640 H   0  0  0  0  0  0  0  0  0  0  0  0
   61.8135   34.6819   50.0093 H   0  0  0  0  0  0  0  0  0  0  0  0
   63.9718   34.6792   48.7704 H   0  0  0  0  0  0  0  0  0  0  0  0
   64.3403   33.0727   46.9023 H   0  0  0  0  0  0  0  0  0  0  0  0
   62.5717   31.4293   46.3007 H   0  0  0  0  0  0  0  0  0  0  0  0
   58.6496   30.5789   44.1278 H   0  0  0  0  0  0  0  0  0  0  0  0
   57.8278   29.3232   43.1196 H   0  0  0  0  0  0  0  0  0  0  0  0
   56.7501   32.6906   47.3239 H   0  0  0  0  0  0  0  0  0  0  0  0
   58.4061   34.4788   47.8665 H   0  0  0  0  0  0  0  0  0  0  0  0
   59.7816   34.4550   43.7656 H   0  0  0  0  0  0  0  0  0  0  0  0
   58.1216   32.6763   43.2173 H   0  0  0  0  0  0  0  0  0  0  0  0
  1  2  1  0
  2  3  1  0
  3  4  2  0
  4  5  1  0
  5  6  2  0
  6  7  1  0
  7  8  2  0
  8  9  1  0
  9 10  2  0
 10 11  1  0
 11 12  2  0
 12 13  1  0
 13 14  1  0
 14 15  1  0
 15 16  2  0
 15 17  1  0
 17 18  1  0
 18 19  2  0
 19 20  1  0
 20 21  2  0
 21 22  1  0
 21 23  1  0
 23 24  2  0
 12 25  1  0
  8  3  1  0
 25  9  1  0
 24 18  1  0
  1 26  1  0
  1 27  1  0
  1 28  1  0
  2 29  1  0
  4 30  1  0
  5 31  1  0
  6 32  1  0
  7 33  1  0
 14 34  1  0
 14 35  1  0
 19 36  1  0
 20 37  1  0
 23 38  1  0
 24 39  1  0
M  CHG  1  17  -1
M  END
>  <UniqueID>  (17) 
16

>  <SMILES>  (17) 
CNc1ccccc1-c1nnc(SCC(=O)[N-]c2ccc(F)cc2)o1

>  <Energy>  (17) 
76.99737997938148

>  <Genealogy>  (17) 
CNc1ccccc1-c1nnc(SCC(=O)[N-]c2ccc(F)cc2)o1 (protonated)
CNc1ccccc1-c1nnc(SCC(=O)[N-]c2ccc(F)cc2)o1 (3D coordinates assigned)
CNc1ccccc1-c1nnc(SCC(=O)[N-]c2ccc(F)cc2)o1 (optimized conformer: 76.99737997938148 kcal/mol)

>  <smiles>  (17) 
CNc1ccccc1-c1nnc(SCC(=O)Nc2ccc(F)cc2)o1

>  <score_type>  (17) 
oracle

>  <origin>  (17) 
adg

>  <m_score__min__energy>  (17) 
-9.7300000000000004

>  <m_primary>  (17) 
energy

$$$$
17:0
     RDKit          3D

 34 35  0  0  0  0  0  0  0  0999 V2000
   55.5898   29.0137   42.5991 H   0  0  0  0  0  0  0  0  0  0  0  0
   56.2650   29.7850   42.9980 C   0  0  0  0  0  0  0  0  0  0  0  0
   56.4058   30.7290   42.4511 H   0  0  0  0  0  0  0  0  0  0  0  0
   56.9120   29.5760   44.1430 C   0  0  0  0  0  0  0  0  0  0  0  0
   57.7830   30.4660   44.7420 C   0  0  0  0  0  0  0  0  0  0  0  0
   58.0641   31.4639   44.3745 H   0  0  0  0  0  0  0  0  0  0  0  0
   58.2300   29.8500   45.8960 C   0  0  0  0  0  0  0  0  0  0  0  0
   58.9420   30.2594   46.6278 H   0  0  0  0  0  0  0  0  0  0  0  0
   57.6020   28.6110   45.9490 C   0  0  0  0  0  0  0  0  0  0  0  0
   57.7660   27.6630   46.8840 C   0  0  0  0  0  0  0  0  0  0  0  0
   58.3121   27.9319   47.8003 H   0  0  0  0  0  0  0  0  0  0  0  0
   57.2610   26.2850   46.7610 C   0  0  0  0  0  0  0  0  0  0  0  0
   58.0320   25.1920   46.9530 N   0  0  0  0  0  0  0  0  0  0  0  0
   57.1970   24.1610   46.7030 C   0  0  0  0  0  0  0  0  0  0  0  0
   57.5510   22.9560   46.8000 O   0  0  0  0  0  0  0  0  0  0  0  0
   55.9550   24.5440   46.3400 N   0  0  0  0  0  0  0  0  0  0  0  0
   54.8000   23.6930   46.0460 C   0  0  0  0  0  0  0  0  0  0  0  0
   53.9659   24.3242   45.7057 H   0  0  0  0  0  0  0  0  0  0  0  0
   55.0851   22.9747   45.2632 H   0  0  0  0  0  0  0  0  0  0  0  0
   54.3610   22.9100   47.2900 C   0  0  0  0  0  0  0  0  0  0  0  0
   55.0259   22.0428   47.4160 H   0  0  0  0  0  0  0  0  0  0  0  0
   54.4199   23.5876   48.1545 H   0  0  0  0  0  0  0  0  0  0  0  0
   52.9180   22.4130   47.1790 C   0  0  0  0  0  0  0  0  0  0  0  0
   52.9144   21.3149   47.1146 H   0  0  0  0  0  0  0  0  0  0  0  0
   52.3546   22.7352   48.0671 H   0  0  0  0  0  0  0  0  0  0  0  0
   52.1350   23.1090   45.6860 S   0  0  0  0  0  0  0  0  0  0  0  0
   50.4420   23.0080   46.3480 C   0  0  0  0  0  0  0  0  0  0  0  0
   50.4775   23.0101   47.4474 H   0  0  0  0  0  0  0  0  0  0  0  0
   49.8593   23.8730   45.9983 H   0  0  0  0  0  0  0  0  0  0  0  0
   49.9663   22.0799   45.9983 H   0  0  0  0  0  0  0  0  0  0  0  0
   55.9980   25.8860   46.3670 C   0  0  0  0  0  0  0  0  0  0  0  0
   54.9410   26.7150   46.0100 O   0  0  0  0  0  0  0  0  0  0  0  0
   56.8070   28.4490   44.8720 N   0  0  0  0  0  0  0  0  0  0  0  0
   56.2220   27.6110   44.6460 H   0  0  0  0  0  0  0  0  0  0  0  0
  1  2  1  0
  2  3  1  0
  2  4  2  0
  4  5  1  0
  5  6  1  0
  5  7  2  0
  7  8  1  0
  7  9  1  0
  9 10  2  0
 10 11  1  0
 10 12  1  0
 12 13  1  0
 13 14  1  0
 14 15  2  0
 14 16  1  0
 16 17  1  0
 17 18  1  0
 17 19  1  0
 17 20  1  0
 20 21  1  0
 20 22  1  0
 20 23  1  0
 23 24  1  0
 23 25  1  0
 23 26  1  0
 26 27  1  0
 27 28  1  0
 27 29  1  0
 27 30  1  0
 16 31  1  0
 31 32  1  0
  9 33  1  0
 33 34  1  0
 33  4  1  0
 31 12  2  0
M  CHG  2  13  -1  32  -1
M  END
>  <UniqueID>  (18) 
17

>  <SMILES>  (18) 
C=c1cc/c(=C\c2[n-]c(=O)n(CCCSC)c2[O-])[nH]1

>  <Energy>  (18) 
87.7087869403449

>  <Genealogy>  (18) 
C=c1ccc(=Cc2[n-]c(=O)n(CCCSC)c2[O-])[nH]1 (protonated)
C=c1cc/c(=C\c2[n-]c(=O)n(CCCSC)c2[O-])[nH]1 (cis-trans isomerization)
C=c1cc/c(=C\c2[n-]c(=O)n(CCCSC)c2[O-])[nH]1 (3D coordinates assigned)
C=c1cc/c(=C\c2[n-]c(=O)n(CCCSC)c2[O-])[nH]1 (optimized conformer: 87.7087869403449 kcal/mol)

>  <smiles>  (18) 
C=c1ccc(=Cc2[nH]c(=O)n(CCCSC)c2O)[nH]1

>  <score_type>  (18) 
oracle

>  <origin>  (18) 
adg

>  <m_score__min__energy>  (18) 
-11.710000000000001

>  <m_primary>  (18) 
energy

$$$$
18:0
     RDKit          3D

 35 37  0  0  0  0  0  0  0  0999 V2000
   58.1000   26.7610   42.8510 C   0  0  0  0  0  0  0  0  0  0  0  0
   57.7750   26.8950   44.3330 C   0  0  0  0  0  0  0  0  0  0  0  0
   57.7180   28.3040   44.7130 N   0  0  0  0  0  0  0  0  0  0  0  0
   56.7400   29.2000   44.4260 C   0  0  0  0  0  0  0  0  0  0  0  0
   57.0200   30.4590   44.8630 N   0  0  0  0  0  0  0  0  0  0  0  0
   58.2340   30.3180   45.4290 C   0  0  0  0  0  0  0  0  0  0  0  0
   59.0380   31.2680   46.0560 C   0  0  0  0  0  0  0  0  0  0  0  0
   58.6390   32.6480   46.1700 N   0  0  0  0  0  0  0  0  0  0  0  0
   58.4510   33.4620   44.9600 C   0  0  0  0  0  0  0  0  0  0  0  0
   58.5180   34.9650   45.2750 C   0  0  0  0  0  0  0  0  0  0  0  0
   59.6530   35.2530   46.2650 C   0  0  0  0  0  0  0  0  0  0  0  0
   59.4970   34.4760   47.5910 C   0  0  0  0  0  0  0  0  0  0  0  0
   58.5310   33.2840   47.4890 C   0  0  0  0  0  0  0  0  0  0  0  0
   60.2450   30.8410   46.5530 N   0  0  0  0  0  0  0  0  0  0  0  0
   60.6410   29.5310   46.4390 C   0  0  0  0  0  0  0  0  0  0  0  0
   59.8390   28.6110   45.8260 N   0  0  0  0  0  0  0  0  0  0  0  0
   58.6500   29.0340   45.3370 C   0  0  0  0  0  0  0  0  0  0  0  0
   59.1111   26.3441   42.7336 H   0  0  0  0  0  0  0  0  0  0  0  0
   57.3694   26.0907   42.3746 H   0  0  0  0  0  0  0  0  0  0  0  0
   58.0541   27.7514   42.3746 H   0  0  0  0  0  0  0  0  0  0  0  0
   56.8013   26.4248   44.5351 H   0  0  0  0  0  0  0  0  0  0  0  0
   58.5620   26.3975   44.9188 H   0  0  0  0  0  0  0  0  0  0  0  0
   55.8142   28.9359   43.8939 H   0  0  0  0  0  0  0  0  0  0  0  0
   59.2407   33.2132   44.2358 H   0  0  0  0  0  0  0  0  0  0  0  0
   57.4560   33.2404   44.5466 H   0  0  0  0  0  0  0  0  0  0  0  0
   58.6985   35.5228   44.3443 H   0  0  0  0  0  0  0  0  0  0  0  0
   57.5642   35.2785   45.7243 H   0  0  0  0  0  0  0  0  0  0  0  0
   60.6076   34.9668   45.7993 H   0  0  0  0  0  0  0  0  0  0  0  0
   59.6229   36.3266   46.5027 H   0  0  0  0  0  0  0  0  0  0  0  0
   60.4854   34.0992   47.8930 H   0  0  0  0  0  0  0  0  0  0  0  0
   59.0754   35.1740   48.3293 H   0  0  0  0  0  0  0  0  0  0  0  0
   58.7803   32.5480   48.2676 H   0  0  0  0  0  0  0  0  0  0  0  0
   57.5016   33.6466   47.6267 H   0  0  0  0  0  0  0  0  0  0  0  0
   60.8940   31.5200   47.0070 H   0  0  0  0  0  0  0  0  0  0  0  0
   61.6144   29.2194   46.8457 H   0  0  0  0  0  0  0  0  0  0  0  0
  1  2  1  0
  2  3  1  0
  3  4  1  0
  4  5  2  0
  5  6  1  0
  6  7  2  0
  7  8  1  0
  8  9  1  0
  9 10  1  0
 10 11  1  0
 11 12  1  0
 12 13  1  0
  7 14  1  0
 14 15  2  0
 15 16  1  0
 16 17  2  0
 17  3  1  0
 17  6  1  0
 13  8  1  0
  1 18  1  0
  1 19  1  0
  1 20  1  0
  2 21  1  0
  2 22  1  0
  4 23  1  0
  9 24  1  0
  9 25  1  0
 10 26  1  0
 10 27  1  0
 11 28  1  0
 11 29  1  0
 12 30  1  0
 12 31  1  0
 13 32  1  0
 13 33  1  0
 14 34  1  0
 15 35  1  0
M  CHG  1  14   1
M  END
>  <UniqueID>  (19) 
18

>  <SMILES>  (19) 
CCn1cnc2c(N3CCCCC3)[nH+]cnc21

>  <Energy>  (19) 
77.41614552314442

>  <Genealogy>  (19) 
CCn1cnc2c(N3CCCCC3)[nH+]cnc21 (protonated)
CCn1cnc2c(N3CCCCC3)[nH+]cnc21 (3D coordinates assigned)
CCn1cnc2c(N3CCCCC3)[nH+]cnc21 (nonaromatic ring conformer: 77.41614552314442 kcal/mol)

>  <smiles>  (19) 
CCn1cnc2c(N3CCCCC3)ncnc21

>  <score_type>  (19) 
oracle

>  <origin>  (19) 
adg

>  <m_score__min__energy>  (19) 
-4.4400000000000004

>  <m_primary>  (19) 
energy

$$$$
19:0
     RDKit          3D

 46 48  0  0  1  0  0  0  0  0999 V2000
   61.2840   28.5460   51.1440 C   0  0  0  0  0  0  0  0  0  0  0  0
   61.4990   29.1930   49.9120 O   0  0  0  0  0  0  0  0  0  0  0  0
   60.6080   29.0200   48.8760 C   0  0  0  0  0  0  0  0  0  0  0  0
   59.9520   27.8230   48.7120 C   0  0  0  0  0  0  0  0  0  0  0  0
   59.0720   27.6880   47.6680 C   0  0  0  0  0  0  0  0  0  0  0  0
   58.4030   26.5420   47.5010 N   0  0  0  0  0  0  0  0  0  0  0  0
   57.5140   26.3720   46.5050 C   0  0  0  0  0  0  0  0  0  0  0  0
   56.8860   25.2280   46.3580 N   0  0  0  0  0  0  0  0  0  0  0  0
   55.5310   25.2540   45.8530 C   0  0  0  0  0  0  0  0  0  0  0  0
   54.9820   24.0230   45.2230 C   0  0  0  0  0  0  0  0  0  0  0  0
   54.8580   26.3140   45.9620 O   0  0  0  0  0  0  0  0  0  0  0  0
   57.2830   27.3690   45.6510 N   0  0  0  0  0  0  0  0  0  0  0  0
   57.9190   28.5870   45.7320 C   0  0  0  0  0  0  0  0  0  0  0  0
   57.5670   29.5310   44.7720 N   0  0  0  0  0  0  0  0  0  0  0  0
   57.3120   28.9920   43.4040 C   0  0  0  0  0  0  0  0  0  0  0  0
   56.3450   29.8660   42.6580 C   0  0  0  0  0  0  0  0  0  0  0  0
   57.0020   31.2020   42.4090 C   0  0  0  0  0  0  0  0  0  0  0  0
   57.9570   31.5820   43.5070 C   0  0  0  0  0  0  0  0  0  0  0  0
   57.4710   30.9620   44.8550 C   0  0  0  0  0  0  0  0  0  0  0  0
   58.8090   28.7110   46.7600 C   0  0  0  0  0  0  0  0  0  0  0  0
   59.4870   29.8880   46.9640 C   0  0  0  0  0  0  0  0  0  0  0  0
   60.3790   30.0860   47.9890 C   0  0  0  0  0  0  0  0  0  0  0  0
   61.0810   31.2350   48.2350 O   0  0  0  0  0  0  0  0  0  0  0  0
   62.2490   31.5670   47.5510 C   0  0  0  0  0  0  0  0  0  0  0  0
   61.5142   29.2386   51.9670 H   0  0  0  0  0  0  0  0  0  0  0  0
   60.2326   28.2302   51.2137 H   0  0  0  0  0  0  0  0  0  0  0  0
   61.9373   27.6637   51.2137 H   0  0  0  0  0  0  0  0  0  0  0  0
   60.1295   26.9880   49.4057 H   0  0  0  0  0  0  0  0  0  0  0  0
   54.6678   23.3186   46.0073 H   0  0  0  0  0  0  0  0  0  0  0  0
   54.1159   24.2860   44.5980 H   0  0  0  0  0  0  0  0  0  0  0  0
   55.7564   23.5543   44.5980 H   0  0  0  0  0  0  0  0  0  0  0  0
   56.5870   27.1930   44.8930 H   0  0  0  0  0  0  0  0  0  0  0  0
   58.2615   28.9501   42.8501 H   0  0  0  0  0  0  0  0  0  0  0  0
   56.8781   27.9855   43.4969 H   0  0  0  0  0  0  0  0  0  0  0  0
   56.0841   29.3960   41.6983 H   0  0  0  0  0  0  0  0  0  0  0  0
   55.4265   30.0014   43.2479 H   0  0  0  0  0  0  0  0  0  0  0  0
   57.5559   31.1524   41.4599 H   0  0  0  0  0  0  0  0  0  0  0  0
   56.2103   31.9648   42.3727 H   0  0  0  0  0  0  0  0  0  0  0  0
   58.9608   31.2006   43.2685 H   0  0  0  0  0  0  0  0  0  0  0  0
   57.9940   32.6775   43.5988 H   0  0  0  0  0  0  0  0  0  0  0  0
   58.1028   31.3271   45.6781 H   0  0  0  0  0  0  0  0  0  0  0  0
   56.4277   31.2546   45.0444 H   0  0  0  0  0  0  0  0  0  0  0  0
   59.3051   30.7191   46.2667 H   0  0  0  0  0  0  0  0  0  0  0  0
   63.0459   31.7935   48.2746 H   0  0  0  0  0  0  0  0  0  0  0  0
   62.5571   30.7208   46.9192 H   0  0  0  0  0  0  0  0  0  0  0  0
   62.0659   32.4487   46.9192 H   0  0  0  0  0  0  0  0  0  0  0  0
  1  2  1  0
  2  3  1  0
  3  4  2  0
  4  5  1  0
  5  6  2  0
  6  7  1  0
  7  8  2  0
  8  9  1  0
  9 10  1  0
  9 11  2  0
  7 12  1  0
 12 13  1  0
 13 14  1  0
 14 15  1  0
 15 16  1  0
 16 17  1  0
 17 18  1  0
 18 19  1  0
 13 20  2  0
 20 21  1  0
 21 22  2  0
 22 23  1  0
 23 24  1  0
 22  3  1  0
 20  5  1  0
 19 14  1  0
  1 25  1  0
  1 26  1  0
  1 27  1  0
  4 28  1  0
 10 29  1  0
 10 30  1  0
 10 31  1  0
 12 32  1  0
 15 33  1  0
 15 34  1  0
 16 35  1  0
 16 36  1  0
 17 37  1  0
 17 38  1  0
 18 39  1  0
 18 40  1  0
 19 41  1  0
 19 42  1  0
 21 43  1  0
 24 44  1  0
 24 45  1  0
 24 46  1  0
M  END
>  <smiles>  (20) 
COc1cc2nc(=NC(C)=O)[nH]c(N3CCCCC3)c2cc1OC

>  <score_type>  (20) 
oracle

>  <origin>  (20) 
adg

>  <m_score__min__energy>  (20) 
-6.7699999999999996

>  <m_primary>  (20) 
energy

$$$$
20:0
     RDKit          3D

 57 61  0  0  1  0  0  0  0  0999 V2000
   60.2100   29.1710   47.2910 C   0  0  0  0  0  0  0  0  0  0  0  0
   59.9450   30.5310   47.6070 O   0  0  0  0  0  0  0  0  0  0  0  0
   59.3350   30.7880   48.8290 C   0  0  0  0  0  0  0  0  0  0  0  0
   59.1500   29.8110   49.7930 C   0  0  0  0  0  0  0  0  0  0  0  0
   58.5430   30.0710   51.0050 C   0  0  0  0  0  0  0  0  0  0  0  0
   58.3940   29.0680   51.9050 F   0  0  0  0  0  0  0  0  0  0  0  0
   58.1070   31.3600   51.2570 C   0  0  0  0  0  0  0  0  0  0  0  0
   58.2650   32.3550   50.3430 C   0  0  0  0  0  0  0  0  0  0  0  0
   58.8810   32.0640   49.1280 C   0  0  0  0  0  0  0  0  0  0  0  0
   59.0680   33.0840   48.1350 N   0  0  0  0  0  0  0  0  0  0  0  0
   59.7360   34.2500   48.2640 C   0  0  0  0  0  0  0  0  0  0  0  0
   59.6770   34.9430   47.0730 C   0  0  0  0  0  0  0  0  0  0  0  0
   58.9390   34.1380   46.2130 C   0  0  0  0  0  0  0  0  0  0  0  0
   58.5430   34.2880   44.8900 C   0  0  0  0  0  0  0  0  0  0  0  0
   57.8100   33.3330   44.2690 N   0  0  0  0  0  0  0  0  0  0  0  0
   57.4690   32.2260   44.9640 C   0  0  0  0  0  0  0  0  0  0  0  0
   56.7620   31.3010   44.3700 N   0  0  0  0  0  0  0  0  0  0  0  0
   57.1290   29.9290   44.6050 C   0  0  0  0  0  0  0  0  0  0  0  0
   56.2220   29.0730   45.2390 C   0  0  0  0  0  0  0  0  0  0  0  0
   56.5890   27.7400   45.4630 C   0  0  0  0  0  0  0  0  0  0  0  0
   57.8180   27.2550   45.0740 C   0  0  0  0  0  0  0  0  0  0  0  0
   58.1290   25.8940   45.3310 N   0  0  0  0  0  0  0  0  0  0  0  0
   57.7240   24.8960   44.3600 C   0  0  0  0  0  0  0  0  0  0  0  0
   57.7820   23.5160   44.9810 C   0  0  0  0  0  0  0  0  0  0  0  0
   59.0180   23.2170   45.6330 N   0  0  0  0  0  0  0  0  0  0  0  0
   59.8500   22.3380   44.8190 C   0  0  0  0  0  0  0  0  0  0  0  0
   59.8020   24.3630   45.9920 C   0  0  0  0  0  0  0  0  0  0  0  0
   58.8330   25.4350   46.5100 C   0  0  0  0  0  0  0  0  0  0  0  0
   58.6780   28.1330   44.4530 C   0  0  0  0  0  0  0  0  0  0  0  0
   58.3630   29.4560   44.2090 C   0  0  0  0  0  0  0  0  0  0  0  0
   57.8290   32.0340   46.2500 N   0  0  0  0  0  0  0  0  0  0  0  0
   58.5610   32.9790   46.8800 C   0  0  0  0  0  0  0  0  0  0  0  0
   60.3225   28.5938   48.2206 H   0  0  0  0  0  0  0  0  0  0  0  0
   59.3748   28.7615   46.7039 H   0  0  0  0  0  0  0  0  0  0  0  0
   61.1379   29.1051   46.7039 H   0  0  0  0  0  0  0  0  0  0  0  0
   59.5001   28.7892   49.5849 H   0  0  0  0  0  0  0  0  0  0  0  0
   57.6217   31.5851   52.2182 H   0  0  0  0  0  0  0  0  0  0  0  0
   57.9117   33.3739   50.5600 H   0  0  0  0  0  0  0  0  0  0  0  0
   60.2470   34.5934   49.1756 H   0  0  0  0  0  0  0  0  0  0  0  0
   60.1202   35.9249   46.8507 H   0  0  0  0  0  0  0  0  0  0  0  0
   58.8289   35.1958   44.3384 H   0  0  0  0  0  0  0  0  0  0  0  0
   57.5200   33.4710   43.2570 H   0  0  0  0  0  0  0  0  0  0  0  0
   55.2354   29.4413   45.5568 H   0  0  0  0  0  0  0  0  0  0  0  0
   55.8786   27.0642   45.9616 H   0  0  0  0  0  0  0  0  0  0  0  0
   56.6953   25.1044   44.0308 H   0  0  0  0  0  0  0  0  0  0  0  0
   58.4062   24.9331   43.4979 H   0  0  0  0  0  0  0  0  0  0  0  0
   56.9733   23.4374   45.7225 H   0  0  0  0  0  0  0  0  0  0  0  0
   57.6774   22.7947   44.1571 H   0  0  0  0  0  0  0  0  0  0  0  0
   60.4570   21.6967   45.4749 H   0  0  0  0  0  0  0  0  0  0  0  0
   59.2079   21.7098   44.1841 H   0  0  0  0  0  0  0  0  0  0  0  0
   60.5125   22.9446   44.1841 H   0  0  0  0  0  0  0  0  0  0  0  0
   60.5223   24.0948   46.7789 H   0  0  0  0  0  0  0  0  0  0  0  0
   60.3672   24.7353   45.1249 H   0  0  0  0  0  0  0  0  0  0  0  0
   58.1303   25.0036   47.2381 H   0  0  0  0  0  0  0  0  0  0  0  0
   59.3552   26.2529   47.0280 H   0  0  0  0  0  0  0  0  0  0  0  0
   59.6641   27.7630   44.1356 H   0  0  0  0  0  0  0  0  0  0  0  0
   59.0829   30.1200   43.7082 H   0  0  0  0  0  0  0  0  0  0  0  0
  1  2  1  0
  2  3  1  0
  3  4  2  0
  4  5  1  0
  5  6  1  0
  5  7  2  0
  7  8  1  0
  8  9  2  0
  9 10  1  0
 10 11  1  0
 11 12  2  0
 12 13  1  0
 13 14  2  0
 14 15  1  0
 15 16  1  0
 16 17  2  0
 17 18  1  0
 18 19  2  0
 19 20  1  0
 20 21  2  0
 21 22  1  0
 22 23  1  0
 23 24  1  0
 24 25  1  0
 25 26  1  0
 25 27  1  0
 27 28  1  0
 21 29  1  0
 29 30  2  0
 16 31  1  0
 31 32  2  0
  9  3  1  0
 32 10  1  0
 32 13  1  0
 30 18  1  0
 28 22  1  0
  1 33  1  0
  1 34  1  0
  1 35  1  0
  4 36  1  0
  7 37  1  0
  8 38  1  0
 11 39  1  0
 12 40  1  0
 14 41  1  0
 15 42  1  0
 19 43  1  0
 20 44  1  0
 23 45  1  0
 23 46  1  0
 24 47  1  0
 24 48  1  0
 26 49  1  0
 26 50  1  0
 26 51  1  0
 27 52  1  0
 27 53  1  0
 28 54  1  0
 28 55  1  0
 29 56  1  0
 30 57  1  0
M  END
>  <smiles>  (21) 
COc1cc(F)ccc1-n1ccc2c[nH]c(=Nc3ccc(N4CCN(C)CC4)cc3)nc21

>  <score_type>  (21) 
oracle

>  <origin>  (21) 
adg

>  <m_score__min__energy>  (21) 
-8.8800000000000008

>  <m_primary>  (21) 
energy

$$$$
21:0
     RDKit          3D

 30 32  0  0  0  0  0  0  0  0999 V2000
   57.2940   30.7430   44.2810 C   0  0  0  0  0  0  0  0  0  0  0  0
   57.3970   31.5160   45.4720 O   0  0  0  0  0  0  0  0  0  0  0  0
   58.2400   32.6260   45.6260 C   0  0  0  0  0  0  0  0  0  0  0  0
   57.9360   33.8870   45.0770 C   0  0  0  0  0  0  0  0  0  0  0  0
   58.8150   34.9590   45.2510 C   0  0  0  0  0  0  0  0  0  0  0  0
   59.9980   34.7900   45.9730 C   0  0  0  0  0  0  0  0  0  0  0  0
   60.3040   33.5450   46.5410 C   0  0  0  0  0  0  0  0  0  0  0  0
   61.5980   33.3570   47.2880 C   0  0  2  0  0  0  0  0  0  0  0  0
   62.9270   33.6360   46.6030 C   0  0  0  0  0  0  0  0  0  0  0  0
   63.9160   32.6910   47.1360 N   0  0  0  0  0  0  0  0  0  0  0  0
   63.1800   31.5930   47.7740 C   0  0  0  0  0  0  0  0  0  0  0  0
   61.7470   32.0420   48.0120 C   0  0  1  0  0  0  0  0  0  0  0  0
   61.5610   33.3250   48.8120 C   0  0  0  0  0  0  0  0  0  0  0  0
   59.4280   32.4640   46.3490 C   0  0  0  0  0  0  0  0  0  0  0  0
   57.1529   29.6839   44.5424 H   0  0  0  0  0  0  0  0  0  0  0  0
   56.4345   31.0926   43.6902 H   0  0  0  0  0  0  0  0  0  0  0  0
   58.2150   30.8553   43.6902 H   0  0  0  0  0  0  0  0  0  0  0  0
   57.0041   34.0282   44.5098 H   0  0  0  0  0  0  0  0  0  0  0  0
   58.5739   35.9407   44.8172 H   0  0  0  0  0  0  0  0  0  0  0  0
   60.6913   35.6351   46.0965 H   0  0  0  0  0  0  0  0  0  0  0  0
   62.8242   33.4965   45.5167 H   0  0  0  0  0  0  0  0  0  0  0  0
   63.2457   34.6717   46.7920 H   0  0  0  0  0  0  0  0  0  0  0  0
   64.5140   33.1740   47.8470 H   0  0  0  0  0  0  0  0  0  0  0  0
   64.5250   32.3260   46.3670 H   0  0  0  0  0  0  0  0  0  0  0  0
   63.1875   30.7110   47.1167 H   0  0  0  0  0  0  0  0  0  0  0  0
   63.6545   31.3291   48.7307 H   0  0  0  0  0  0  0  0  0  0  0  0
   61.2495   31.0639   48.0888 H   0  0  0  0  0  0  0  0  0  0  0  0
   60.6170   33.5110   49.3451 H   0  0  0  0  0  0  0  0  0  0  0  0
   62.1128   33.8305   49.6182 H   0  0  0  0  0  0  0  0  0  0  0  0
   59.6780   31.4795   46.7712 H   0  0  0  0  0  0  0  0  0  0  0  0
  1  2  1  0
  2  3  1  0
  3  4  2  0
  4  5  1  0
  5  6  2  0
  6  7  1  0
  8  7  1  6
  8  9  1  0
  9 10  1  0
 10 11  1  0
 11 12  1  0
 12 13  1  0
  7 14  2  0
 14  3  1  0
 12  8  1  0
 13  8  1  0
  1 15  1  0
  1 16  1  0
  1 17  1  0
  4 18  1  0
  5 19  1  0
  6 20  1  0
  9 21  1  0
  9 22  1  0
 10 23  1  0
 10 24  1  0
 11 25  1  0
 11 26  1  0
 12 27  1  6
 13 28  1  0
 13 29  1  0
 14 30  1  0
M  CHG  1  10   1
M  END
>  <UniqueID>  (22) 
19

>  <SMILES>  (22) 
COc1cccc([C@]23C[NH2+]C[C@H]2C3)c1

>  <Energy>  (22) 
298.7092821838739

>  <Genealogy>  (22) 
COc1cccc(C23C[NH2+]CC2C3)c1 (protonated)
COc1cccc([C@]23C[NH2+]C[C@H]2C3)c1 (chirality)
COc1cccc([C@]23C[NH2+]C[C@H]2C3)c1 (3D coordinates assigned)
COc1cccc([C@]23C[NH2+]C[C@H]2C3)c1 (nonaromatic ring conformer: 298.7092821838739 kcal/mol)

>  <smiles>  (22) 
COc1cccc(C23CNCC2C3)c1

>  <score_type>  (22) 
oracle

>  <origin>  (22) 
adg

>  <m_score__min__energy>  (22) 
-4.8700000000000001

>  <m_primary>  (22) 
energy

$$$$
22:0
     RDKit          3D

 36 36  0  0  0  0  0  0  0  0999 V2000
   60.3120   29.5340   46.1740 C   0  0  0  0  0  0  0  0  0  0  0  0
   59.6710   28.2070   46.5710 C   0  0  0  0  0  0  0  0  0  0  0  0
   59.4110   27.3750   45.3720 N   0  0  0  0  0  0  0  0  0  0  0  0
   58.2820   26.4470   45.6130 C   0  0  0  0  0  0  0  0  0  0  0  0
   57.3980   26.9750   46.7380 C   0  0  0  0  0  0  0  0  0  0  0  0
   59.1690   28.2180   44.1770 C   0  0  0  0  0  0  0  0  0  0  0  0
   57.8570   27.8260   43.4890 C   0  0  0  0  0  0  0  0  0  0  0  0
   56.9210   29.3110   42.9650 S   0  0  0  0  0  0  0  0  0  0  0  0
   56.3130   29.7120   44.6090 C   0  0  0  0  0  0  0  0  0  0  0  0
   55.1510   29.3530   44.9340 O   0  0  0  0  0  0  0  0  0  0  0  0
   57.1380   30.3660   45.5790 N   0  0  0  0  0  0  0  0  0  0  0  0
   57.6340   31.7080   45.4910 C   0  0  0  0  0  0  0  0  0  0  0  0
   57.8280   32.4980   46.6390 C   0  0  0  0  0  0  0  0  0  0  0  0
   58.3470   33.7920   46.5210 C   0  0  0  0  0  0  0  0  0  0  0  0
   58.6880   34.2990   45.2640 C   0  0  0  0  0  0  0  0  0  0  0  0
   58.5240   33.5070   44.1250 C   0  0  0  0  0  0  0  0  0  0  0  0
   58.0070   32.2120   44.2390 C   0  0  0  0  0  0  0  0  0  0  0  0
   60.5833   30.0957   47.0800 H   0  0  0  0  0  0  0  0  0  0  0  0
   61.2161   29.3407   45.5779 H   0  0  0  0  0  0  0  0  0  0  0  0
   59.5986   30.1220   45.5779 H   0  0  0  0  0  0  0  0  0  0  0  0
   60.3493   27.6655   47.2468 H   0  0  0  0  0  0  0  0  0  0  0  0
   58.7151   28.4113   47.0755 H   0  0  0  0  0  0  0  0  0  0  0  0
   57.6846   26.3551   44.6940 H   0  0  0  0  0  0  0  0  0  0  0  0
   58.6809   25.4632   45.9012 H   0  0  0  0  0  0  0  0  0  0  0  0
   57.8423   26.7097   47.7087 H   0  0  0  0  0  0  0  0  0  0  0  0
   57.3176   28.0692   46.6584 H   0  0  0  0  0  0  0  0  0  0  0  0
   56.3965   26.5270   46.6584 H   0  0  0  0  0  0  0  0  0  0  0  0
   59.1132   29.2725   44.4852 H   0  0  0  0  0  0  0  0  0  0  0  0
   59.9965   28.0688   43.4677 H   0  0  0  0  0  0  0  0  0  0  0  0
   58.0840   27.2131   42.6042 H   0  0  0  0  0  0  0  0  0  0  0  0
   57.2426   27.2587   44.2036 H   0  0  0  0  0  0  0  0  0  0  0  0
   57.5712   32.0977   47.6309 H   0  0  0  0  0  0  0  0  0  0  0  0
   58.4869   34.4114   47.4192 H   0  0  0  0  0  0  0  0  0  0  0  0
   59.0851   35.3206   45.1717 H   0  0  0  0  0  0  0  0  0  0  0  0
   58.8018   33.9022   43.1368 H   0  0  0  0  0  0  0  0  0  0  0  0
   57.8930   31.5869   43.3411 H   0  0  0  0  0  0  0  0  0  0  0  0
  1  2  1  0
  2  3  1  0
  3  4  1  0
  4  5  1  0
  3  6  1  0
  6  7  1  0
  7  8  1  0
  8  9  1  0
  9 10  2  0
  9 11  1  0
 11 12  1  0
 12 13  2  0
 13 14  1  0
 14 15  2  0
 15 16  1  0
 16 17  2  0
 17 12  1  0
  1 18  1  0
  1 19  1  0
  1 20  1  0
  2 21  1  0
  2 22  1  0
  4 23  1  0
  4 24  1  0
  5 25  1  0
  5 26  1  0
  5 27  1  0
  6 28  1  0
  6 29  1  0
  7 30  1  0
  7 31  1  0
 13 32  1  0
 14 33  1  0
 15 34  1  0
 16 35  1  0
 17 36  1  0
M  CHG  1  11  -1
M  END
>  <UniqueID>  (23) 
20

>  <SMILES>  (23) 
CCN(CC)CCSC(=O)[N-]c1ccccc1

>  <Energy>  (23) 
30.607051137004436

>  <Genealogy>  (23) 
CCN(CC)CCSC(=O)[N-]c1ccccc1 (protonated)
CCN(CC)CCSC(=O)[N-]c1ccccc1 (3D coordinates assigned)
CCN(CC)CCSC(=O)[N-]c1ccccc1 (optimized conformer: 30.607051137004436 kcal/mol)

>  <smiles>  (23) 
CCN(CC)CCSC(=O)Nc1ccccc1

>  <score_type>  (23) 
oracle

>  <origin>  (23) 
adg

>  <m_score__min__energy>  (23) 
-8.1199999999999992

>  <m_primary>  (23) 
energy

$$$$
23:0
     RDKit          3D

 60 64  0  0  0  0  0  0  0  0999 V2000
   60.7980   31.1720   48.0500 C   0  0  0  0  0  0  0  0  0  0  0  0
   59.9800   30.2140   48.6640 O   0  0  0  0  0  0  0  0  0  0  0  0
   59.5880   29.0270   48.0600 C   0  0  0  0  0  0  0  0  0  0  0  0
   59.0120   29.0230   46.8060 C   0  0  0  0  0  0  0  0  0  0  0  0
   58.6450   27.8090   46.2640 C   0  0  0  0  0  0  0  0  0  0  0  0
   58.0670   27.7700   45.0120 C   0  0  0  0  0  0  0  0  0  0  0  0
   57.8200   28.9320   44.2300 N   0  0  0  0  0  0  0  0  0  0  0  0
   56.6520   29.0750   43.3740 C   0  0  0  0  0  0  0  0  0  0  0  0
   55.8640   30.2340   43.9420 C   0  0  0  0  0  0  0  0  0  0  0  0
   56.6340   31.2150   44.5110 O   0  0  0  0  0  0  0  0  0  0  0  0
   57.9170   31.3250   43.9950 C   0  0  0  0  0  0  0  0  0  0  0  0
   58.7400   30.0790   44.2360 C   0  0  0  0  0  0  0  0  0  0  0  0
   57.7050   26.5710   44.4750 N   0  0  0  0  0  0  0  0  0  0  0  0
   57.8900   25.4150   45.1210 C   0  0  0  0  0  0  0  0  0  0  0  0
   57.5100   24.1170   44.5670 C   0  0  0  0  0  0  0  0  0  0  0  0
   56.3710   24.0240   43.8110 C   0  0  0  0  0  0  0  0  0  0  0  0
   56.0390   22.8060   43.3060 N   0  0  0  0  0  0  0  0  0  0  0  0
   56.7990   21.7030   43.5340 C   0  0  0  0  0  0  0  0  0  0  0  0
   56.4450   20.5600   43.0340 N   0  0  0  0  0  0  0  0  0  0  0  0
   57.9220   21.7730   44.2770 N   0  0  0  0  0  0  0  0  0  0  0  0
   58.2560   22.9880   44.7820 C   0  0  0  0  0  0  0  0  0  0  0  0
   58.4570   25.4370   46.3520 N   0  0  0  0  0  0  0  0  0  0  0  0
   58.8280   26.6040   46.9140 C   0  0  0  0  0  0  0  0  0  0  0  0
   59.4080   26.6390   48.1690 C   0  0  0  0  0  0  0  0  0  0  0  0
   59.7810   27.8480   48.7270 C   0  0  0  0  0  0  0  0  0  0  0  0
   60.3760   27.7890   50.0350 N   0  0  0  0  0  0  0  0  0  0  0  0
   61.2560   26.7160   50.4230 C   0  0  0  0  0  0  0  0  0  0  0  0
   61.4470   26.8300   51.9200 C   0  0  0  0  0  0  0  0  0  0  0  0
   61.9860   28.0930   52.3110 N   0  0  0  0  0  0  0  0  0  0  0  0
   63.3690   28.2730   52.0020 C   0  0  0  0  0  0  0  0  0  0  0  0
   61.1220   29.1700   51.9460 C   0  0  0  0  0  0  0  0  0  0  0  0
   60.0620   28.8420   50.9500 C   0  0  0  0  0  0  0  0  0  0  0  0
   61.3071   31.7682   48.8216 H   0  0  0  0  0  0  0  0  0  0  0  0
   61.5475   30.6667   47.4232 H   0  0  0  0  0  0  0  0  0  0  0  0
   60.1815   31.8331   47.4232 H   0  0  0  0  0  0  0  0  0  0  0  0
   58.8502   29.9610   46.2546 H   0  0  0  0  0  0  0  0  0  0  0  0
   56.9591   29.2908   42.3400 H   0  0  0  0  0  0  0  0  0  0  0  0
   56.0535   28.1524   43.3485 H   0  0  0  0  0  0  0  0  0  0  0  0
   55.2786   30.6848   43.1271 H   0  0  0  0  0  0  0  0  0  0  0  0
   55.2339   29.8231   44.7446 H   0  0  0  0  0  0  0  0  0  0  0  0
   57.8488   31.5001   42.9112 H   0  0  0  0  0  0  0  0  0  0  0  0
   58.4152   32.1621   44.5059 H   0  0  0  0  0  0  0  0  0  0  0  0
   59.4888   29.9637   43.4385 H   0  0  0  0  0  0  0  0  0  0  0  0
   59.2695   30.1452   45.1979 H   0  0  0  0  0  0  0  0  0  0  0  0
   55.7445   24.9075   43.6186 H   0  0  0  0  0  0  0  0  0  0  0  0
   57.0120   19.7440   43.3520 H   0  0  0  0  0  0  0  0  0  0  0  0
   58.5360   20.9790   44.4840 H   0  0  0  0  0  0  0  0  0  0  0  0
   59.1677   23.0699   45.3920 H   0  0  0  0  0  0  0  0  0  0  0  0
   59.5728   25.7038   48.7241 H   0  0  0  0  0  0  0  0  0  0  0  0
   60.8040   25.7452   50.1713 H   0  0  0  0  0  0  0  0  0  0  0  0
   62.2187   26.7832   49.8950 H   0  0  0  0  0  0  0  0  0  0  0  0
   60.4716   26.6963   52.4106 H   0  0  0  0  0  0  0  0  0  0  0  0
   62.1644   26.0535   52.2240 H   0  0  0  0  0  0  0  0  0  0  0  0
   63.9464   28.3482   52.9352 H   0  0  0  0  0  0  0  0  0  0  0  0
   63.7287   27.4141   51.4164 H   0  0  0  0  0  0  0  0  0  0  0  0
   63.4968   29.1954   51.4164 H   0  0  0  0  0  0  0  0  0  0  0  0
   60.6268   29.5301   52.8598 H   0  0  0  0  0  0  0  0  0  0  0  0
   61.7659   29.9188   51.4616 H   0  0  0  0  0  0  0  0  0  0  0  0
   59.1570   28.5505   51.5031 H   0  0  0  0  0  0  0  0  0  0  0  0
   59.9374   29.7460   50.3358 H   0  0  0  0  0  0  0  0  0  0  0  0
  1  2  1  0
  2  3  1  0
  3  4  2  0
  4  5  1  0
  5  6  2  0
  6  7  1  0
  7  8  1  0
  8  9  1  0
  9 10  1  0
 10 11  1  0
 11 12  1  0
  6 13  1  0
 13 14  2  0
 14 15  1  0
 15 16  1  0
 16 17  2  0
 17 18  1  0
 18 19  2  3
 18 20  1  0
 20 21  1  0
 14 22  1  0
 22 23  2  0
 23 24  1  0
 24 25  2  0
 25 26  1  0
 26 27  1  0
 27 28  1  0
 28 29  1  0
 29 30  1  0
 29 31  1  0
 31 32  1  0
 25  3  1  0
 32 26  1  0
 23  5  1  0
 12  7  1  0
 21 15  2  0
  1 33  1  0
  1 34  1  0
  1 35  1  0
  4 36  1  0
  8 37  1  0
  8 38  1  0
  9 39  1  0
  9 40  1  0
 11 41  1  0
 11 42  1  0
 12 43  1  0
 12 44  1  0
 16 45  1  0
 19 46  1  0
 20 47  1  0
 21 48  1  0
 24 49  1  0
 27 50  1  0
 27 51  1  0
 28 52  1  0
 28 53  1  0
 30 54  1  0
 30 55  1  0
 30 56  1  0
 31 57  1  0
 31 58  1  0
 32 59  1  0
 32 60  1  0
M  END
>  <smiles>  (24) 
COc1cc2c(N3CCOCC3)nc(-c3cnc(=N)[nH]c3)nc2cc1N1CCN(C)CC1

>  <score_type>  (24) 
oracle

>  <origin>  (24) 
adg

>  <m_score__min__energy>  (24) 
-8.2400000000000002

>  <m_primary>  (24) 
energy

$$$$
24:0
     RDKit          3D

 45 48  0  0  0  0  0  0  0  0999 V2000
   65.6810   32.9750   49.7600 C   0  0  0  0  0  0  0  0  0  0  0  0
   64.2170   33.0260   49.4360 C   0  0  0  0  0  0  0  0  0  0  0  0
   63.7890   33.4710   48.1800 C   0  0  0  0  0  0  0  0  0  0  0  0
   62.4310   33.4860   47.8590 C   0  0  0  0  0  0  0  0  0  0  0  0
   61.4680   33.0500   48.7920 C   0  0  0  0  0  0  0  0  0  0  0  0
   60.0820   33.0500   48.5080 C   0  0  0  0  0  0  0  0  0  0  0  0
   59.5280   33.5780   47.2400 C   0  0  0  0  0  0  0  0  0  0  0  0
   59.9280   34.8360   46.7580 C   0  0  0  0  0  0  0  0  0  0  0  0
   59.3860   35.3410   45.5720 C   0  0  0  0  0  0  0  0  0  0  0  0
   58.4340   34.5990   44.8660 C   0  0  0  0  0  0  0  0  0  0  0  0
   58.0220   33.3530   45.3460 C   0  0  0  0  0  0  0  0  0  0  0  0
   58.5630   32.8440   46.5320 C   0  0  0  0  0  0  0  0  0  0  0  0
   59.1900   32.5420   49.4600 C   0  0  0  0  0  0  0  0  0  0  0  0
   59.6600   32.0700   50.6910 C   0  0  0  0  0  0  0  0  0  0  0  0
   58.7390   31.5390   51.6630 N   0  0  0  0  0  0  0  0  0  0  0  0
   59.1040   30.3550   52.4490 C   0  0  0  0  0  0  0  0  0  0  0  0
   57.8570   29.7210   53.0810 C   0  0  0  0  0  0  0  0  0  0  0  0
   56.7290   29.7580   52.1410 N   0  0  0  0  0  0  0  0  0  0  0  0
   56.3040   31.1370   51.8210 C   0  0  0  0  0  0  0  0  0  0  0  0
   57.4400   32.1760   51.9090 C   0  0  0  0  0  0  0  0  0  0  0  0
   60.9990   32.0890   50.9540 N   0  0  0  0  0  0  0  0  0  0  0  0
   61.9040   32.5610   50.0490 C   0  0  0  0  0  0  0  0  0  0  0  0
   63.2740   32.5540   50.3590 C   0  0  0  0  0  0  0  0  0  0  0  0
   65.8150   32.9703   50.8518 H   0  0  0  0  0  0  0  0  0  0  0  0
   66.1194   32.0610   49.3329 H   0  0  0  0  0  0  0  0  0  0  0  0
   66.1820   33.8562   49.3329 H   0  0  0  0  0  0  0  0  0  0  0  0
   64.5286   33.8115   47.4403 H   0  0  0  0  0  0  0  0  0  0  0  0
   62.1089   33.8412   46.8690 H   0  0  0  0  0  0  0  0  0  0  0  0
   60.6703   35.4257   47.3158 H   0  0  0  0  0  0  0  0  0  0  0  0
   59.7087   36.3224   45.1942 H   0  0  0  0  0  0  0  0  0  0  0  0
   58.0092   34.9963   43.9323 H   0  0  0  0  0  0  0  0  0  0  0  0
   57.2713   32.7714   44.7908 H   0  0  0  0  0  0  0  0  0  0  0  0
   58.2312   31.8660   46.9107 H   0  0  0  0  0  0  0  0  0  0  0  0
   58.1128   32.5136   49.2391 H   0  0  0  0  0  0  0  0  0  0  0  0
   59.5894   29.6195   51.7906 H   0  0  0  0  0  0  0  0  0  0  0  0
   59.7922   30.6600   53.2511 H   0  0  0  0  0  0  0  0  0  0  0  0
   58.0758   28.6753   53.3431 H   0  0  0  0  0  0  0  0  0  0  0  0
   57.5872   30.2894   53.9833 H   0  0  0  0  0  0  0  0  0  0  0  0
   57.0190   29.2800   51.2560 H   0  0  0  0  0  0  0  0  0  0  0  0
   55.9035   31.1473   50.7965 H   0  0  0  0  0  0  0  0  0  0  0  0
   55.5513   31.4218   52.5709 H   0  0  0  0  0  0  0  0  0  0  0  0
   57.2728   32.9600   51.1557 H   0  0  0  0  0  0  0  0  0  0  0  0
   57.4440   32.6143   52.9179 H   0  0  0  0  0  0  0  0  0  0  0  0
   61.3370   31.7410   51.8790 H   0  0  0  0  0  0  0  0  0  0  0  0
   63.6098   32.1745   51.3353 H   0  0  0  0  0  0  0  0  0  0  0  0
  1  2  1  0
  2  3  2  0
  3  4  1  0
  4  5  2  0
  5  6  1  0
  6  7  1  0
  7  8  2  0
  8  9  1  0
  9 10  2  0
 10 11  1  0
 11 12  2  0
  6 13  2  0
 13 14  1  0
 14 15  1  0
 15 16  1  0
 16 17  1  0
 17 18  1  0
 18 19  1  0
 19 20  1  0
 14 21  2  0
 21 22  1  0
 22 23  2  0
 23  2  1  0
 22  5  1  0
 12  7  1  0
 20 15  1  0
  1 24  1  0
  1 25  1  0
  1 26  1  0
  3 27  1  0
  4 28  1  0
  8 29  1  0
  9 30  1  0
 10 31  1  0
 11 32  1  0
 12 33  1  0
 13 34  1  0
 16 35  1  0
 16 36  1  0
 17 37  1  0
 17 38  1  0
 18 39  1  0
 19 40  1  0
 19 41  1  0
 20 42  1  0
 20 43  1  0
 21 44  1  0
 23 45  1  0
M  CHG  1  21   1
M  END
>  <UniqueID>  (25) 
21

>  <SMILES>  (25) 
Cc1ccc2c(-c3ccccc3)cc(N3CCNCC3)[nH+]c2c1

>  <Energy>  (25) 
67.39541595271561

>  <Genealogy>  (25) 
Cc1ccc2c(-c3ccccc3)cc(N3CCNCC3)[nH+]c2c1 (protonated)
Cc1ccc2c(-c3ccccc3)cc(N3CCNCC3)[nH+]c2c1 (3D coordinates assigned)
Cc1ccc2c(-c3ccccc3)cc(N3CCNCC3)[nH+]c2c1 (nonaromatic ring conformer: 67.39541595271561 kcal/mol)

>  <smiles>  (25) 
Cc1ccc2c(-c3ccccc3)cc(N3CCNCC3)nc2c1

>  <score_type>  (25) 
oracle

>  <origin>  (25) 
adg

>  <m_score__min__energy>  (25) 
-6.5099999999999998

>  <m_primary>  (25) 
energy

$$$$
25:0
     RDKit          3D

 21 21  0  0  0  0  0  0  0  0999 V2000
   59.7010   27.4390   46.4990 C   0  0  0  0  0  0  0  0  0  0  0  0
   60.0720   28.1230   45.2450 N   0  0  2  0  0  0  0  0  0  0  0  0
   60.0250   29.5940   45.3880 C   0  0  0  0  0  0  0  0  0  0  0  0
   58.6220   30.1430   45.3660 C   0  0  0  0  0  0  0  0  0  0  0  0
   57.6000   29.4990   44.7760 C   0  0  0  0  0  0  0  0  0  0  0  0
   56.2940   30.1030   44.7310 N   0  0  0  0  0  0  0  0  0  0  0  0
   56.1770   31.3360   44.5730 O   0  0  0  0  0  0  0  0  0  0  0  0
   55.1550   29.3400   44.8630 O   0  0  0  0  0  0  0  0  0  0  0  0
   57.7760   28.0920   44.2480 C   0  0  0  0  0  0  0  0  0  0  0  0
   59.2500   27.6830   44.1000 C   0  0  0  0  0  0  0  0  0  0  0  0
   60.0290   28.0437   47.3574 H   0  0  0  0  0  0  0  0  0  0  0  0
   58.6093   27.3100   46.5372 H   0  0  0  0  0  0  0  0  0  0  0  0
   60.1882   26.4535   46.5372 H   0  0  0  0  0  0  0  0  0  0  0  0
   61.0650   27.8600   45.0360 H   0  0  0  0  0  0  0  0  0  0  0  0
   60.4938   29.8684   46.3445 H   0  0  0  0  0  0  0  0  0  0  0  0
   60.5607   30.0254   44.5295 H   0  0  0  0  0  0  0  0  0  0  0  0
   58.4260   31.1099   45.8524 H   0  0  0  0  0  0  0  0  0  0  0  0
   57.2871   27.3936   44.9432 H   0  0  0  0  0  0  0  0  0  0  0  0
   57.3245   28.0593   43.2454 H   0  0  0  0  0  0  0  0  0  0  0  0
   59.3070   26.5871   44.0242 H   0  0  0  0  0  0  0  0  0  0  0  0
   59.6448   28.1696   43.1960 H   0  0  0  0  0  0  0  0  0  0  0  0
  1  2  1  0
  2  3  1  0
  3  4  1  0
  4  5  2  0
  5  6  1  0
  6  7  2  0
  6  8  1  0
  5  9  1  0
  9 10  1  0
 10  2  1  0
  1 11  1  0
  1 12  1  0
  1 13  1  0
  2 14  1  6
  3 15  1  0
  3 16  1  0
  4 17  1  0
  9 18  1  0
  9 19  1  0
 10 20  1  0
 10 21  1  0
M  CHG  3   2   1   6   1   8  -1
M  END
>  <UniqueID>  (26) 
22

>  <SMILES>  (26) 
C[N@@H+]1CC=C([N+](=O)[O-])CC1

>  <Energy>  (26) 
22.876477627912973

>  <Genealogy>  (26) 
C[NH+]1CC=C([N+](=O)[O-])CC1 (protonated)
C[N@@H+]1CC=C([N+](=O)[O-])CC1 (chirality)
C[N@@H+]1CC=C([N+](=O)[O-])CC1 (3D coordinates assigned)
C[N@@H+]1CC=C([N+](=O)[O-])CC1 (nonaromatic ring conformer: 22.876477627912973 kcal/mol)

>  <smiles>  (26) 
CN1CC=C([N+](=O)[O-])CC1

>  <score_type>  (26) 
oracle

>  <origin>  (26) 
adg

>  <m_score__min__energy>  (26) 
-3.4199999999999999

>  <m_primary>  (26) 
energy

$$$$
26:0
     RDKit          3D

 31 33  0  0  0  0  0  0  0  0999 V2000
   55.6600   30.4740   44.5010 O   0  0  0  0  0  0  0  0  0  0  0  0
   56.9470   30.8480   43.8220 S   0  0  0  0  0  0  0  0  0  0  0  0
   56.6620   31.1740   42.3830 O   0  0  0  0  0  0  0  0  0  0  0  0
   58.0430   29.5040   43.8990 N   0  0  0  0  0  0  0  0  0  0  0  0
   58.2550   28.7140   45.0850 C   0  0  0  0  0  0  0  0  0  0  0  0
   57.6310   27.4610   45.2460 C   0  0  0  0  0  0  0  0  0  0  0  0
   57.8390   26.7030   46.4000 C   0  0  0  0  0  0  0  0  0  0  0  0
   58.6760   27.1720   47.4110 C   0  0  0  0  0  0  0  0  0  0  0  0
   59.3160   28.4100   47.2730 C   0  0  0  0  0  0  0  0  0  0  0  0
   60.1620   28.9010   48.2760 C   0  0  0  0  0  0  0  0  0  0  0  0
   60.7840   30.1390   48.1150 C   0  0  0  0  0  0  0  0  0  0  0  0
   60.5540   30.8770   46.9530 C   0  0  0  0  0  0  0  0  0  0  0  0
   59.7310   30.3900   45.9860 N   0  0  0  0  0  0  0  0  0  0  0  0
   59.1080   29.1850   46.1060 C   0  0  0  0  0  0  0  0  0  0  0  0
   57.6710   32.2590   44.5870 C   0  0  0  0  0  0  0  0  0  0  0  0
   57.4250   32.5520   45.9340 C   0  0  0  0  0  0  0  0  0  0  0  0
   58.0180   33.6700   46.5220 C   0  0  0  0  0  0  0  0  0  0  0  0
   58.8500   34.4860   45.7530 C   0  0  0  0  0  0  0  0  0  0  0  0
   59.0760   34.1900   44.4460 N   0  0  0  0  0  0  0  0  0  0  0  0
   58.5100   33.1060   43.8510 C   0  0  0  0  0  0  0  0  0  0  0  0
   58.6360   29.3400   43.0550 H   0  0  0  0  0  0  0  0  0  0  0  0
   56.9725   27.0756   44.4536 H   0  0  0  0  0  0  0  0  0  0  0  0
   57.3391   25.7295   46.5120 H   0  0  0  0  0  0  0  0  0  0  0  0
   58.8339   26.5695   48.3177 H   0  0  0  0  0  0  0  0  0  0  0  0
   60.3353   28.3115   49.1884 H   0  0  0  0  0  0  0  0  0  0  0  0
   61.4505   30.5305   48.8976 H   0  0  0  0  0  0  0  0  0  0  0  0
   61.0395   31.8549   46.8190 H   0  0  0  0  0  0  0  0  0  0  0  0
   56.7654   31.9020   46.5276 H   0  0  0  0  0  0  0  0  0  0  0  0
   57.8319   33.9059   47.5802 H   0  0  0  0  0  0  0  0  0  0  0  0
   59.3233   35.3698   46.2057 H   0  0  0  0  0  0  0  0  0  0  0  0
   58.7111   32.8939   42.7905 H   0  0  0  0  0  0  0  0  0  0  0  0
  1  2  2  0
  2  3  2  0
  2  4  1  0
  4  5  1  0
  5  6  2  0
  6  7  1  0
  7  8  2  0
  8  9  1  0
  9 10  2  0
 10 11  1  0
 11 12  2  0
 12 13  1  0
 13 14  2  0
  2 15  1  0
 15 16  2  0
 16 17  1  0
 17 18  2  0
 18 19  1  0
 19 20  2  0
 14  5  1  0
 20 15  1  0
 14  9  1  0
  4 21  1  0
  6 22  1  0
  7 23  1  0
  8 24  1  0
 10 25  1  0
 11 26  1  0
 12 27  1  0
 16 28  1  0
 17 29  1  0
 18 30  1  0
 20 31  1  0
M  END
>  <UniqueID>  (27) 
23

>  <SMILES>  (27) 
O=S(=O)(Nc1cccc2cccnc12)c1cccnc1

>  <Energy>  (27) 
41.78051590864995

>  <Genealogy>  (27) 
O=S(=O)(Nc1cccc2cccnc12)c1cccnc1 (3D coordinates assigned)
O=S(=O)(Nc1cccc2cccnc12)c1cccnc1 (optimized conformer: 41.78051590864995 kcal/mol)

>  <smiles>  (27) 
O=S(=O)(Nc1cccc2cccnc12)c1cccnc1

>  <score_type>  (27) 
oracle

>  <origin>  (27) 
adg

>  <m_score__min__energy>  (27) 
-7.9199999999999999

>  <m_primary>  (27) 
energy

$$$$
27:0
     RDKit          3D

 31 32  0  0  0  0  0  0  0  0999 V2000
   57.0100   30.1210   43.7170 C   0  0  0  0  0  0  0  0  0  0  0  0
   56.7260   30.8400   44.9040 O   0  0  0  0  0  0  0  0  0  0  0  0
   56.6500   32.2160   44.8850 N   0  0  0  0  0  0  0  0  0  0  0  0
   57.4770   32.9560   45.5550 C   0  0  0  0  0  0  0  0  0  0  0  0
   58.1560   34.1110   44.8710 C   0  0  0  0  0  0  0  0  0  0  0  0
   59.6370   34.1860   45.2780 C   0  0  0  0  0  0  0  0  0  0  0  0
   59.8340   33.9500   46.7190 N   0  0  0  0  0  0  0  0  0  0  0  0
   61.1720   33.8230   47.2370 C   0  0  0  0  0  0  0  0  0  0  0  0
   62.2430   33.5340   46.3730 C   0  0  0  0  0  0  0  0  0  0  0  0
   63.5430   33.4220   46.8740 C   0  0  0  0  0  0  0  0  0  0  0  0
   63.7870   33.6010   48.2380 C   0  0  0  0  0  0  0  0  0  0  0  0
   62.7300   33.8940   49.1050 C   0  0  0  0  0  0  0  0  0  0  0  0
   63.0370   34.1160   50.8180 Cl  0  0  0  0  0  0  0  0  0  0  0  0
   61.4270   34.0060   48.6070 C   0  0  0  0  0  0  0  0  0  0  0  0
   58.6740   33.7650   47.6030 C   0  0  0  0  0  0  0  0  0  0  0  0
   57.7370   32.7030   47.0200 C   0  0  0  0  0  0  0  0  0  0  0  0
   57.4028   29.1266   43.9757 H   0  0  0  0  0  0  0  0  0  0  0  0
   56.0885   30.0091   43.1268 H   0  0  0  0  0  0  0  0  0  0  0  0
   57.7592   30.6690   43.1268 H   0  0  0  0  0  0  0  0  0  0  0  0
   58.0868   33.9773   43.7814 H   0  0  0  0  0  0  0  0  0  0  0  0
   57.6577   35.0443   45.1721 H   0  0  0  0  0  0  0  0  0  0  0  0
   60.1974   33.4250   44.7151 H   0  0  0  0  0  0  0  0  0  0  0  0
   59.9972   35.2002   45.0510 H   0  0  0  0  0  0  0  0  0  0  0  0
   62.0569   33.3954   45.2978 H   0  0  0  0  0  0  0  0  0  0  0  0
   64.3758   33.1924   46.1930 H   0  0  0  0  0  0  0  0  0  0  0  0
   64.8109   33.5114   48.6298 H   0  0  0  0  0  0  0  0  0  0  0  0
   60.5979   34.2385   49.2915 H   0  0  0  0  0  0  0  0  0  0  0  0
   59.0201   33.4405   48.5955 H   0  0  0  0  0  0  0  0  0  0  0  0
   58.1308   34.7175   47.6911 H   0  0  0  0  0  0  0  0  0  0  0  0
   58.1995   31.7119   47.1372 H   0  0  0  0  0  0  0  0  0  0  0  0
   56.7789   32.7475   47.5586 H   0  0  0  0  0  0  0  0  0  0  0  0
  1  2  1  0
  2  3  1  0
  3  4  2  3
  4  5  1  0
  5  6  1  0
  6  7  1  0
  7  8  1  0
  8  9  2  0
  9 10  1  0
 10 11  2  0
 11 12  1  0
 12 13  1  0
 12 14  2  0
  7 15  1  0
 15 16  1  0
 16  4  1  0
 14  8  1  0
  1 17  1  0
  1 18  1  0
  1 19  1  0
  5 20  1  0
  5 21  1  0
  6 22  1  0
  6 23  1  0
  9 24  1  0
 10 25  1  0
 11 26  1  0
 14 27  1  0
 15 28  1  0
 15 29  1  0
 16 30  1  0
 16 31  1  0
M  END
>  <UniqueID>  (28) 
24

>  <SMILES>  (28) 
CON=C1CCN(c2cccc(Cl)c2)CC1

>  <Energy>  (28) 
29.734294563061226

>  <Genealogy>  (28) 
CON=C1CCN(c2cccc(Cl)c2)CC1 (3D coordinates assigned)
CON=C1CCN(c2cccc(Cl)c2)CC1 (nonaromatic ring conformer: 29.734294563061226 kcal/mol)

>  <smiles>  (28) 
CON=C1CCN(c2cccc(Cl)c2)CC1

>  <score_type>  (28) 
oracle

>  <origin>  (28) 
adg

>  <m_score__min__energy>  (28) 
-6.8499999999999996

>  <m_primary>  (28) 
energy

$$$$
28:0
     RDKit          3D

 48 51  0  0  0  0  0  0  0  0999 V2000
   55.8750   30.7810   44.4960 O   0  0  0  0  0  0  0  0  0  0  0  0
   57.0510   31.1350   44.7730 C   0  0  0  0  0  0  0  0  0  0  0  0
   57.5310   32.3890   44.2740 N   0  0  0  0  0  0  0  0  0  0  0  0
   57.3590   33.6730   44.9420 C   0  0  0  0  0  0  0  0  0  0  0  0
   58.4220   33.8350   45.9880 C   0  0  0  0  0  0  0  0  0  0  0  0
   58.1500   33.5240   47.3320 C   0  0  0  0  0  0  0  0  0  0  0  0
   59.1310   33.7080   48.3100 C   0  0  0  0  0  0  0  0  0  0  0  0
   60.3870   34.2140   47.9580 C   0  0  0  0  0  0  0  0  0  0  0  0
   61.3360   34.3930   48.9090 F   0  0  0  0  0  0  0  0  0  0  0  0
   60.6590   34.5410   46.6260 C   0  0  0  0  0  0  0  0  0  0  0  0
   59.6790   34.3580   45.6440 C   0  0  0  0  0  0  0  0  0  0  0  0
   57.9030   30.2240   45.5660 C   0  0  0  0  0  0  0  0  0  0  0  0
   57.6630   28.8460   45.5600 C   0  0  0  0  0  0  0  0  0  0  0  0
   58.4830   27.9880   46.3060 C   0  0  0  0  0  0  0  0  0  0  0  0
   58.2270   26.5260   46.3250 C   0  0  0  0  0  0  0  0  0  0  0  0
   56.9630   26.0240   46.6920 C   0  0  0  0  0  0  0  0  0  0  0  0
   56.7250   24.6460   46.7090 C   0  0  0  0  0  0  0  0  0  0  0  0
   57.7420   23.7550   46.3590 C   0  0  0  0  0  0  0  0  0  0  0  0
   59.0000   24.2400   45.9930 C   0  0  0  0  0  0  0  0  0  0  0  0
   59.2440   25.6170   45.9760 C   0  0  0  0  0  0  0  0  0  0  0  0
   59.5500   28.5370   47.0330 C   0  0  0  0  0  0  0  0  0  0  0  0
   59.7870   29.9210   46.9990 C   0  0  0  0  0  0  0  0  0  0  0  0
   60.9150   30.5070   47.7660 C   0  0  0  0  0  0  0  0  0  0  0  0
   60.9980   30.3410   49.1620 C   0  0  0  0  0  0  0  0  0  0  0  0
   62.0640   30.8940   49.8780 C   0  0  0  0  0  0  0  0  0  0  0  0
   63.0560   31.6170   49.2110 C   0  0  0  0  0  0  0  0  0  0  0  0
   62.9830   31.7890   47.8270 C   0  0  0  0  0  0  0  0  0  0  0  0
   61.9190   31.2370   47.1060 C   0  0  0  0  0  0  0  0  0  0  0  0
   58.9630   30.7250   46.2630 N   0  0  0  0  0  0  0  0  0  0  0  0
   57.4427   34.4848   44.2045 H   0  0  0  0  0  0  0  0  0  0  0  0
   56.3672   33.7114   45.4161 H   0  0  0  0  0  0  0  0  0  0  0  0
   57.1610   33.1343   47.6147 H   0  0  0  0  0  0  0  0  0  0  0  0
   58.9154   33.4546   49.3585 H   0  0  0  0  0  0  0  0  0  0  0  0
   61.6450   34.9428   46.3496 H   0  0  0  0  0  0  0  0  0  0  0  0
   59.8941   34.6248   44.5988 H   0  0  0  0  0  0  0  0  0  0  0  0
   56.8305   28.4355   44.9697 H   0  0  0  0  0  0  0  0  0  0  0  0
   56.1575   26.7208   46.9671 H   0  0  0  0  0  0  0  0  0  0  0  0
   55.7352   24.2632   46.9985 H   0  0  0  0  0  0  0  0  0  0  0  0
   57.5525   22.6715   46.3715 H   0  0  0  0  0  0  0  0  0  0  0  0
   59.8003   23.5374   45.7176 H   0  0  0  0  0  0  0  0  0  0  0  0
   60.2371   25.9924   45.6881 H   0  0  0  0  0  0  0  0  0  0  0  0
   60.2018   27.8826   47.6304 H   0  0  0  0  0  0  0  0  0  0  0  0
   60.2195   29.7729   49.6923 H   0  0  0  0  0  0  0  0  0  0  0  0
   62.1217   30.7596   50.9682 H   0  0  0  0  0  0  0  0  0  0  0  0
   63.8944   32.0507   49.7758 H   0  0  0  0  0  0  0  0  0  0  0  0
   63.7638   32.3597   47.3028 H   0  0  0  0  0  0  0  0  0  0  0  0
   61.8675   31.3749   46.0159 H   0  0  0  0  0  0  0  0  0  0  0  0
   59.1500   31.7530   46.2230 H   0  0  0  0  0  0  0  0  0  0  0  0
  1  2  2  0
  2  3  1  0
  3  4  1  0
  4  5  1  0
  5  6  2  0
  6  7  1  0
  7  8  2  0
  8  9  1  0
  8 10  1  0
 10 11  2  0
  2 12  1  0
 12 13  2  0
 13 14  1  0
 14 15  1  0
 15 16  2  0
 16 17  1  0
 17 18  2  0
 18 19  1  0
 19 20  2  0
 14 21  2  0
 21 22  1  0
 22 23  1  0
 23 24  2  0
 24 25  1  0
 25 26  2  0
 26 27  1  0
 27 28  2  0
 22 29  2  0
 11  5  1  0
 29 12  1  0
 20 15  1  0
 28 23  1  0
  4 30  1  0
  4 31  1  0
  6 32  1  0
  7 33  1  0
 10 34  1  0
 11 35  1  0
 13 36  1  0
 16 37  1  0
 17 38  1  0
 18 39  1  0
 19 40  1  0
 20 41  1  0
 21 42  1  0
 24 43  1  0
 25 44  1  0
 26 45  1  0
 27 46  1  0
 28 47  1  0
 29 48  1  0
M  CHG  2   3  -1  29   1
M  END
>  <UniqueID>  (29) 
25

>  <SMILES>  (29) 
O=C([N-]Cc1ccc(F)cc1)c1cc(-c2ccccc2)cc(-c2ccccc2)[nH+]1

>  <Energy>  (29) 
66.05094702402614

>  <Genealogy>  (29) 
O=C([N-]Cc1ccc(F)cc1)c1cc(-c2ccccc2)cc(-c2ccccc2)[nH+]1 (protonated)
O=C([N-]Cc1ccc(F)cc1)c1cc(-c2ccccc2)cc(-c2ccccc2)[nH+]1 (3D coordinates assigned)
O=C([N-]Cc1ccc(F)cc1)c1cc(-c2ccccc2)cc(-c2ccccc2)[nH+]1 (optimized conformer: 66.05094702402614 kcal/mol)

>  <smiles>  (29) 
O=C(NCc1ccc(F)cc1)c1cc(-c2ccccc2)cc(-c2ccccc2)n1

>  <score_type>  (29) 
oracle

>  <origin>  (29) 
adg

>  <m_score__min__energy>  (29) 
-8.8900000000000006

>  <m_primary>  (29) 
energy

$$$$
29:0
     RDKit          3D

 41 44  0  0  0  0  0  0  0  0999 V2000
   62.7030   33.6100   46.8130 C   0  0  0  0  0  0  0  0  0  0  0  0
   62.9870   32.3360   47.3790 O   0  0  0  0  0  0  0  0  0  0  0  0
   62.0100   31.4020   47.7580 C   0  0  0  0  0  0  0  0  0  0  0  0
   61.7330   31.1040   49.1050 C   0  0  0  0  0  0  0  0  0  0  0  0
   60.7560   30.1590   49.4290 C   0  0  0  0  0  0  0  0  0  0  0  0
   60.0420   29.5130   48.4190 C   0  0  0  0  0  0  0  0  0  0  0  0
   60.2870   29.8220   47.0730 C   0  0  0  0  0  0  0  0  0  0  0  0
   59.5400   29.1360   46.0050 C   0  0  0  0  0  0  0  0  0  0  0  0
   59.7910   27.7950   45.6970 C   0  0  0  0  0  0  0  0  0  0  0  0
   58.6420   27.2430   44.5900 S   0  0  0  0  0  0  0  0  0  0  0  0
   57.8370   28.7090   44.4830 C   0  0  0  0  0  0  0  0  0  0  0  0
   56.7350   28.9690   43.7410 N   0  0  0  0  0  0  0  0  0  0  0  0
   56.2020   30.2200   43.7710 C   0  0  0  0  0  0  0  0  0  0  0  0
   56.7950   31.2010   44.5090 N   0  0  0  0  0  0  0  0  0  0  0  0
   57.9100   30.9710   45.2600 C   0  0  0  0  0  0  0  0  0  0  0  0
   58.5580   32.0840   45.8990 N   0  0  0  0  0  0  0  0  0  0  0  0
   59.1840   33.1340   45.0860 C   0  0  0  0  0  0  0  0  0  0  0  0
   58.5460   34.5120   45.3860 C   0  0  0  0  0  0  0  0  0  0  0  0
   57.8470   34.5870   46.6220 O   0  0  0  0  0  0  0  0  0  0  0  0
   58.4970   33.8310   47.6230 C   0  0  0  0  0  0  0  0  0  0  0  0
   58.3140   32.3440   47.3230 C   0  0  0  0  0  0  0  0  0  0  0  0
   58.4430   29.6640   45.2830 C   0  0  0  0  0  0  0  0  0  0  0  0
   61.2890   30.7500   46.7500 C   0  0  0  0  0  0  0  0  0  0  0  0
   62.5400   34.3410   47.6186 H   0  0  0  0  0  0  0  0  0  0  0  0
   63.5513   33.9324   46.1914 H   0  0  0  0  0  0  0  0  0  0  0  0
   61.7981   33.5416   46.1914 H   0  0  0  0  0  0  0  0  0  0  0  0
   62.2871   31.6164   49.9052 H   0  0  0  0  0  0  0  0  0  0  0  0
   60.5491   29.9236   50.4834 H   0  0  0  0  0  0  0  0  0  0  0  0
   59.2846   28.7590   48.6793 H   0  0  0  0  0  0  0  0  0  0  0  0
   60.6118   27.1920   46.1126 H   0  0  0  0  0  0  0  0  0  0  0  0
   56.2950   28.2220   43.1600 H   0  0  0  0  0  0  0  0  0  0  0  0
   55.2895   30.4409   43.1979 H   0  0  0  0  0  0  0  0  0  0  0  0
   60.2589   33.1760   45.3160 H   0  0  0  0  0  0  0  0  0  0  0  0
   59.0300   32.8970   44.0229 H   0  0  0  0  0  0  0  0  0  0  0  0
   59.3477   35.2650   45.3996 H   0  0  0  0  0  0  0  0  0  0  0  0
   57.8005   34.6876   44.5965 H   0  0  0  0  0  0  0  0  0  0  0  0
   59.5693   34.0759   47.6318 H   0  0  0  0  0  0  0  0  0  0  0  0
   58.0640   34.0672   48.6062 H   0  0  0  0  0  0  0  0  0  0  0  0
   59.0249   31.7607   47.9266 H   0  0  0  0  0  0  0  0  0  0  0  0
   57.2835   32.0502   47.5717 H   0  0  0  0  0  0  0  0  0  0  0  0
   61.5102   30.9674   45.6946 H   0  0  0  0  0  0  0  0  0  0  0  0
  1  2  1  0
  2  3  1  0
  3  4  2  0
  4  5  1  0
  5  6  2  0
  6  7  1  0
  7  8  1  0
  8  9  2  0
  9 10  1  0
 10 11  1  0
 11 12  2  0
 12 13  1  0
 13 14  2  0
 14 15  1  0
 15 16  1  0
 16 17  1  0
 17 18  1  0
 18 19  1  0
 19 20  1  0
 20 21  1  0
 15 22  2  0
  7 23  2  0
 23  3  1  0
 22  8  1  0
 22 11  1  0
 21 16  1  0
  1 24  1  0
  1 25  1  0
  1 26  1  0
  4 27  1  0
  5 28  1  0
  6 29  1  0
  9 30  1  0
 12 31  1  0
 13 32  1  0
 17 33  1  0
 17 34  1  0
 18 35  1  0
 18 36  1  0
 20 37  1  0
 20 38  1  0
 21 39  1  0
 21 40  1  0
 23 41  1  0
M  CHG  1  12   1
M  END
>  <UniqueID>  (30) 
26

>  <SMILES>  (30) 
COc1cccc(-c2csc3[nH+]cnc(N4CCOCC4)c23)c1

>  <Energy>  (30) 
95.26386174094537

>  <Genealogy>  (30) 
COc1cccc(-c2csc3[nH+]cnc(N4CCOCC4)c23)c1 (protonated)
COc1cccc(-c2csc3[nH+]cnc(N4CCOCC4)c23)c1 (3D coordinates assigned)
COc1cccc(-c2csc3[nH+]cnc(N4CCOCC4)c23)c1 (nonaromatic ring conformer: 95.26386174094537 kcal/mol)

>  <smiles>  (30) 
COc1cccc(-c2csc3ncnc(N4CCOCC4)c23)c1

>  <score_type>  (30) 
oracle

>  <origin>  (30) 
adg

>  <m_score__min__energy>  (30) 
-5.7599999999999998

>  <m_primary>  (30) 
energy

$$$$
30:0
     RDKit          3D

 47 51  0  0  0  0  0  0  0  0999 V2000
   59.0550   33.3030   51.6250 C   0  0  0  0  0  0  0  0  0  0  0  0
   60.1610   34.1060   51.2260 O   0  0  0  0  0  0  0  0  0  0  0  0
   61.0850   33.7420   50.2360 C   0  0  0  0  0  0  0  0  0  0  0  0
   62.2070   34.5540   49.9080 C   0  0  0  0  0  0  0  0  0  0  0  0
   63.1160   34.1510   48.9130 C   0  0  0  0  0  0  0  0  0  0  0  0
   62.8780   32.9440   48.2610 C   0  0  0  0  0  0  0  0  0  0  0  0
   63.6360   32.3710   47.3110 N   0  0  0  0  0  0  0  0  0  0  0  0
   63.0300   31.2020   47.0050 C   0  0  0  0  0  0  0  0  0  0  0  0
   61.8650   31.0420   47.7560 C   0  0  0  0  0  0  0  0  0  0  0  0
   60.9430   29.8440   47.7950 C   0  0  1  0  0  0  0  0  0  0  0  0
   60.6010   29.4720   49.2190 C   0  0  0  0  0  0  0  0  0  0  0  0
   59.3500   29.8080   49.7580 C   0  0  0  0  0  0  0  0  0  0  0  0
   59.0400   29.4260   51.0660 C   0  0  0  0  0  0  0  0  0  0  0  0
   59.9690   28.7080   51.8190 C   0  0  0  0  0  0  0  0  0  0  0  0
   61.2000   28.3770   51.2480 C   0  0  0  0  0  0  0  0  0  0  0  0
   61.4840   28.7570   49.9740 N   0  0  0  0  0  0  0  0  0  0  0  0
   59.6840   30.0730   46.9700 C   0  0  0  0  0  0  0  0  0  0  0  0
   59.4210   31.3320   46.5180 N   0  0  0  0  0  0  0  0  0  0  0  0
   58.3220   31.6360   45.7860 C   0  0  0  0  0  0  0  0  0  0  0  0
   57.3970   30.6470   45.4690 C   0  0  0  0  0  0  0  0  0  0  0  0
   57.6000   29.3360   45.9220 C   0  0  0  0  0  0  0  0  0  0  0  0
   56.6670   28.3220   45.6260 C   0  0  0  0  0  0  0  0  0  0  0  0
   55.5330   28.5930   44.8670 O   0  0  0  0  0  0  0  0  0  0  0  0
   56.8710   27.0240   46.0970 C   0  0  0  0  0  0  0  0  0  0  0  0
   57.9930   26.7230   46.8660 C   0  0  0  0  0  0  0  0  0  0  0  0
   58.9290   27.7130   47.1660 C   0  0  0  0  0  0  0  0  0  0  0  0
   58.7540   29.0320   46.6940 C   0  0  0  0  0  0  0  0  0  0  0  0
   61.7960   32.1630   48.5640 C   0  0  0  0  0  0  0  0  0  0  0  0
   60.8820   32.5270   49.5520 C   0  0  0  0  0  0  0  0  0  0  0  0
   59.0054   33.2670   52.7233 H   0  0  0  0  0  0  0  0  0  0  0  0
   58.1249   33.7376   51.2300 H   0  0  0  0  0  0  0  0  0  0  0  0
   59.1803   32.2840   51.2300 H   0  0  0  0  0  0  0  0  0  0  0  0
   62.3647   35.5053   50.4374 H   0  0  0  0  0  0  0  0  0  0  0  0
   63.9883   34.7706   48.6578 H   0  0  0  0  0  0  0  0  0  0  0  0
   64.5260   32.7380   46.9070 H   0  0  0  0  0  0  0  0  0  0  0  0
   63.4035   30.4774   46.2664 H   0  0  0  0  0  0  0  0  0  0  0  0
   61.4811   28.9992   47.3403 H   0  0  0  0  0  0  0  0  0  0  0  0
   58.6191   30.3676   49.1559 H   0  0  0  0  0  0  0  0  0  0  0  0
   58.0651   29.6911   51.5010 H   0  0  0  0  0  0  0  0  0  0  0  0
   59.7349   28.4060   52.8505 H   0  0  0  0  0  0  0  0  0  0  0  0
   61.9404   27.8083   51.8297 H   0  0  0  0  0  0  0  0  0  0  0  0
   58.1609   32.6682   45.4414 H   0  0  0  0  0  0  0  0  0  0  0  0
   56.5105   30.8923   44.8658 H   0  0  0  0  0  0  0  0  0  0  0  0
   56.1423   26.2349   45.8598 H   0  0  0  0  0  0  0  0  0  0  0  0
   58.1417   25.6988   47.2388 H   0  0  0  0  0  0  0  0  0  0  0  0
   59.8104   27.4639   47.7752 H   0  0  0  0  0  0  0  0  0  0  0  0
   60.0239   31.8818   49.7915 H   0  0  0  0  0  0  0  0  0  0  0  0
  1  2  1  0
  2  3  1  0
  3  4  2  0
  4  5  1  0
  5  6  2  0
  6  7  1  0
  7  8  1  0
  8  9  2  0
  9 10  1  0
 10 11  1  0
 11 12  2  0
 12 13  1  0
 13 14  2  0
 14 15  1  0
 15 16  2  0
 10 17  1  0
 17 18  2  0
 18 19  1  0
 19 20  2  0
 20 21  1  0
 21 22  2  0
 22 23  1  0
 22 24  1  0
 24 25  2  0
 25 26  1  0
 26 27  2  0
  9 28  1  0
 28 29  2  0
 29  3  1  0
 28  6  1  0
 16 11  1  0
 27 17  1  0
 27 21  1  0
  1 30  1  0
  1 31  1  0
  1 32  1  0
  4 33  1  0
  5 34  1  0
  7 35  1  0
  8 36  1  0
 10 37  1  6
 12 38  1  0
 13 39  1  0
 14 40  1  0
 15 41  1  0
 19 42  1  0
 20 43  1  0
 24 44  1  0
 25 45  1  0
 26 46  1  0
 29 47  1  0
M  CHG  1  23  -1
M  END
>  <UniqueID>  (31) 
27

>  <SMILES>  (31) 
COc1ccc2[nH]cc([C@@H](c3ccccn3)c3nccc4c([O-])cccc34)c2c1

>  <Energy>  (31) 
94.06793663031746

>  <Genealogy>  (31) 
COc1ccc2[nH]cc(C(c3ccccn3)c3nccc4c([O-])cccc34)c2c1 (protonated)
COc1ccc2[nH]cc([C@@H](c3ccccn3)c3nccc4c([O-])cccc34)c2c1 (chirality)
COc1ccc2[nH]cc([C@@H](c3ccccn3)c3nccc4c([O-])cccc34)c2c1 (3D coordinates assigned)
COc1ccc2[nH]cc([C@@H](c3ccccn3)c3nccc4c([O-])cccc34)c2c1 (optimized conformer: 94.06793663031746 kcal/mol)

>  <smiles>  (31) 
COc1ccc2[nH]cc(C(c3ccccn3)c3nccc4c(O)cccc34)c2c1

>  <score_type>  (31) 
oracle

>  <origin>  (31) 
adg

>  <m_score__min__energy>  (31) 
-9.7200000000000006

>  <m_primary>  (31) 
energy

$$$$
31:0
     RDKit          3D

 32 34  0  0  0  0  0  0  0  0999 V2000
   60.3640   29.0880   47.7890 C   0  0  0  0  0  0  0  0  0  0  0  0
   59.4080   29.3310   46.6710 C   0  0  0  0  0  0  0  0  0  0  0  0
   58.9780   30.5870   46.2370 C   0  0  0  0  0  0  0  0  0  0  0  0
   58.1370   30.5010   45.1210 C   0  0  0  0  0  0  0  0  0  0  0  0
   57.5010   31.5410   44.4310 C   0  0  0  0  0  0  0  0  0  0  0  0
   57.6910   32.9180   44.7970 N   0  0  0  0  0  0  0  0  0  0  0  0
   57.0140   33.4670   45.9790 C   0  0  0  0  0  0  0  0  0  0  0  0
   58.0300   33.6580   47.1100 C   0  0  0  0  0  0  0  0  0  0  0  0
   59.2360   34.4800   46.6290 C   0  0  0  0  0  0  0  0  0  0  0  0
   59.8790   33.8500   45.3850 C   0  0  0  0  0  0  0  0  0  0  0  0
   58.8390   33.6640   44.2750 C   0  0  0  0  0  0  0  0  0  0  0  0
   56.6770   31.2190   43.3910 N   0  0  0  0  0  0  0  0  0  0  0  0
   56.4800   29.9230   43.0040 C   0  0  0  0  0  0  0  0  0  0  0  0
   57.1080   28.9060   43.6590 N   0  0  0  0  0  0  0  0  0  0  0  0
   57.9200   29.2040   44.7030 C   0  0  0  0  0  0  0  0  0  0  0  0
   58.7650   28.1240   45.6710 S   0  0  0  0  0  0  0  0  0  0  0  0
   59.8454   29.2198   48.7501 H   0  0  0  0  0  0  0  0  0  0  0  0
   60.7547   28.0620   47.7209 H   0  0  0  0  0  0  0  0  0  0  0  0
   61.1972   29.8029   47.7209 H   0  0  0  0  0  0  0  0  0  0  0  0
   59.2667   31.5340   46.7165 H   0  0  0  0  0  0  0  0  0  0  0  0
   56.5624   34.4372   45.7247 H   0  0  0  0  0  0  0  0  0  0  0  0
   56.2285   32.7703   46.3070 H   0  0  0  0  0  0  0  0  0  0  0  0
   57.5449   34.1846   47.9451 H   0  0  0  0  0  0  0  0  0  0  0  0
   58.3852   32.6689   47.4348 H   0  0  0  0  0  0  0  0  0  0  0  0
   58.9005   35.4982   46.3825 H   0  0  0  0  0  0  0  0  0  0  0  0
   59.9851   34.5019   47.4342 H   0  0  0  0  0  0  0  0  0  0  0  0
   60.6823   34.5075   45.0211 H   0  0  0  0  0  0  0  0  0  0  0  0
   60.2868   32.8653   45.6571 H   0  0  0  0  0  0  0  0  0  0  0  0
   58.5039   34.6492   43.9185 H   0  0  0  0  0  0  0  0  0  0  0  0
   59.2899   33.1047   43.4420 H   0  0  0  0  0  0  0  0  0  0  0  0
   55.8113   29.6996   42.1597 H   0  0  0  0  0  0  0  0  0  0  0  0
   56.9580   27.9150   43.3660 H   0  0  0  0  0  0  0  0  0  0  0  0
  1  2  1  0
  2  3  2  0
  3  4  1  0
  4  5  2  0
  5  6  1  0
  6  7  1  0
  7  8  1  0
  8  9  1  0
  9 10  1  0
 10 11  1  0
  5 12  1  0
 12 13  2  0
 13 14  1  0
 14 15  2  0
 15 16  1  0
 16  2  1  0
 15  4  1  0
 11  6  1  0
  1 17  1  0
  1 18  1  0
  1 19  1  0
  3 20  1  0
  7 21  1  0
  7 22  1  0
  8 23  1  0
  8 24  1  0
  9 25  1  0
  9 26  1  0
 10 27  1  0
 10 28  1  0
 11 29  1  0
 11 30  1  0
 13 31  1  0
 14 32  1  0
M  CHG  1  14   1
M  END
>  <UniqueID>  (32) 
28

>  <SMILES>  (32) 
Cc1cc2c(N3CCCCC3)nc[nH+]c2s1

>  <Energy>  (32) 
64.17654139028872

>  <Genealogy>  (32) 
Cc1cc2c(N3CCCCC3)nc[nH+]c2s1 (protonated)
Cc1cc2c(N3CCCCC3)nc[nH+]c2s1 (3D coordinates assigned)
Cc1cc2c(N3CCCCC3)nc[nH+]c2s1 (nonaromatic ring conformer: 64.17654139028872 kcal/mol)

>  <smiles>  (32) 
Cc1cc2c(N3CCCCC3)ncnc2s1

>  <score_type>  (32) 
oracle

>  <origin>  (32) 
adg

>  <m_score__min__energy>  (32) 
-5.2199999999999998

>  <m_primary>  (32) 
energy

$$$$
32:0
     RDKit          3D

 53 56  0  0  0  0  0  0  0  0999 V2000
   58.4110   22.7000   44.6800 C   0  0  0  0  0  0  0  0  0  0  0  0
   58.3290   24.1370   45.0840 C   0  0  0  0  0  0  0  0  0  0  0  0
   58.4290   24.5010   46.4300 C   0  0  0  0  0  0  0  0  0  0  0  0
   58.3250   25.8450   46.7910 C   0  0  0  0  0  0  0  0  0  0  0  0
   58.1100   26.8340   45.8080 C   0  0  0  0  0  0  0  0  0  0  0  0
   58.0020   28.2160   46.1220 C   0  0  0  0  0  0  0  0  0  0  0  0
   58.2050   28.7120   47.5360 C   0  0  0  0  0  0  0  0  0  0  0  0
   57.7170   29.1340   45.0820 C   0  0  0  0  0  0  0  0  0  0  0  0
   57.5290   30.4970   45.3370 O   0  0  0  0  0  0  0  0  0  0  0  0
   58.5960   31.4470   45.2950 C   0  0  2  0  0  0  0  0  0  0  0  0
   59.1750   31.6740   46.7090 C   0  0  0  0  0  0  0  0  0  0  0  0
   58.4420   32.8160   47.4290 C   0  0  0  0  0  0  0  0  0  0  0  0
   58.5620   34.1220   46.7130 N   0  0  1  0  0  0  0  0  0  0  0  0
   59.6140   34.9660   47.3340 C   0  0  0  0  0  0  0  0  0  0  0  0
   60.8840   34.1880   47.6010 C   0  0  0  0  0  0  0  0  0  0  0  0
   61.7630   33.8750   46.5510 C   0  0  0  0  0  0  0  0  0  0  0  0
   62.9500   33.1780   46.8080 C   0  0  0  0  0  0  0  0  0  0  0  0
   63.2690   32.7990   48.1150 C   0  0  0  0  0  0  0  0  0  0  0  0
   62.4020   33.1130   49.1660 C   0  0  0  0  0  0  0  0  0  0  0  0
   61.2130   33.8050   48.9120 C   0  0  0  0  0  0  0  0  0  0  0  0
   58.7900   33.9770   45.2470 C   0  0  0  0  0  0  0  0  0  0  0  0
   58.0660   32.7550   44.6720 C   0  0  0  0  0  0  0  0  0  0  0  0
   57.6380   28.6940   43.7570 C   0  0  0  0  0  0  0  0  0  0  0  0
   57.7760   27.3440   43.4470 C   0  0  0  0  0  0  0  0  0  0  0  0
   57.9990   26.4110   44.4610 C   0  0  0  0  0  0  0  0  0  0  0  0
   58.1080   25.0920   44.1430 N   0  0  0  0  0  0  0  0  0  0  0  0
   58.4471   22.0677   45.5794 H   0  0  0  0  0  0  0  0  0  0  0  0
   57.5264   22.4363   44.0817 H   0  0  0  0  0  0  0  0  0  0  0  0
   59.3198   22.5386   44.0817 H   0  0  0  0  0  0  0  0  0  0  0  0
   58.5888   23.7322   47.2004 H   0  0  0  0  0  0  0  0  0  0  0  0
   58.4112   26.1351   47.8485 H   0  0  0  0  0  0  0  0  0  0  0  0
   57.8869   27.9348   48.2464 H   0  0  0  0  0  0  0  0  0  0  0  0
   59.2691   28.9408   47.6951 H   0  0  0  0  0  0  0  0  0  0  0  0
   57.6067   29.6212   47.6951 H   0  0  0  0  0  0  0  0  0  0  0  0
   59.4193   31.0670   44.6723 H   0  0  0  0  0  0  0  0  0  0  0  0
   59.0644   30.7499   47.2953 H   0  0  0  0  0  0  0  0  0  0  0  0
   60.2366   31.9456   46.6128 H   0  0  0  0  0  0  0  0  0  0  0  0
   57.3763   32.5551   47.5083 H   0  0  0  0  0  0  0  0  0  0  0  0
   58.9068   32.9365   48.4187 H   0  0  0  0  0  0  0  0  0  0  0  0
   57.6450   34.6180   46.8400 H   0  0  0  0  0  0  0  0  0  0  0  0
   59.8453   35.8006   46.6559 H   0  0  0  0  0  0  0  0  0  0  0  0
   59.2306   35.3300   48.2986 H   0  0  0  0  0  0  0  0  0  0  0  0
   61.5179   34.1787   45.5226 H   0  0  0  0  0  0  0  0  0  0  0  0
   63.6314   32.9287   45.9812 H   0  0  0  0  0  0  0  0  0  0  0  0
   64.2026   32.2534   48.3168 H   0  0  0  0  0  0  0  0  0  0  0  0
   62.6552   32.8154   50.1943 H   0  0  0  0  0  0  0  0  0  0  0  0
   60.5334   34.0500   49.7415 H   0  0  0  0  0  0  0  0  0  0  0  0
   58.4208   34.8802   44.7391 H   0  0  0  0  0  0  0  0  0  0  0  0
   59.8691   33.8413   45.0826 H   0  0  0  0  0  0  0  0  0  0  0  0
   56.9902   32.8430   44.8839 H   0  0  0  0  0  0  0  0  0  0  0  0
   58.2468   32.7220   43.5875 H   0  0  0  0  0  0  0  0  0  0  0  0
   57.4650   29.4224   42.9511 H   0  0  0  0  0  0  0  0  0  0  0  0
   57.7092   27.0117   42.4005 H   0  0  0  0  0  0  0  0  0  0  0  0
  1  2  1  0
  2  3  2  0
  3  4  1  0
  4  5  2  0
  5  6  1  0
  6  7  1  0
  6  8  2  0
  8  9  1  0
  9 10  1  0
 10 11  1  0
 11 12  1  0
 12 13  1  0
 13 14  1  0
 14 15  1  0
 15 16  2  0
 16 17  1  0
 17 18  2  0
 18 19  1  0
 19 20  2  0
 13 21  1  0
 21 22  1  0
  8 23  1  0
 23 24  2  0
 24 25  1  0
 25 26  2  0
 26  2  1  0
 25  5  1  0
 22 10  1  0
 20 15  1  0
  1 27  1  0
  1 28  1  0
  1 29  1  0
  3 30  1  0
  4 31  1  0
  7 32  1  0
  7 33  1  0
  7 34  1  0
 10 35  1  6
 11 36  1  0
 11 37  1  0
 12 38  1  0
 12 39  1  0
 13 40  1  6
 14 41  1  0
 14 42  1  0
 16 43  1  0
 17 44  1  0
 18 45  1  0
 19 46  1  0
 20 47  1  0
 21 48  1  0
 21 49  1  0
 22 50  1  0
 22 51  1  0
 23 52  1  0
 24 53  1  0
M  CHG  1  13   1
M  END
>  <UniqueID>  (33) 
29

>  <SMILES>  (33) 
Cc1ccc2c(C)c(OC3CC[NH+](Cc4ccccc4)CC3)ccc2n1

>  <Energy>  (33) 
75.89159994876651

>  <Genealogy>  (33) 
Cc1ccc2c(C)c(OC3CC[NH+](Cc4ccccc4)CC3)ccc2n1 (protonated)
Cc1ccc2c(C)c(OC3CC[NH+](Cc4ccccc4)CC3)ccc2n1 (3D coordinates assigned)
Cc1ccc2c(C)c(OC3CC[NH+](Cc4ccccc4)CC3)ccc2n1 (nonaromatic ring conformer: 75.89159994876651 kcal/mol)

>  <smiles>  (33) 
Cc1ccc2c(C)c(OC3CCN(Cc4ccccc4)CC3)ccc2n1

>  <score_type>  (33) 
oracle

>  <origin>  (33) 
adg

>  <m_score__min__energy>  (33) 
-6.7000000000000002

>  <m_primary>  (33) 
energy

$$$$
33:0
     RDKit          3D

 39 41  0  0  0  0  0  0  0  0999 V2000
   55.5320   30.3600   44.4950 O   0  0  0  0  0  0  0  0  0  0  0  0
   56.6600   29.9050   44.8220 C   0  0  0  0  0  0  0  0  0  0  0  0
   57.1090   28.5900   44.2490 C   0  0  0  0  0  0  0  0  0  0  0  0
   57.6800   27.7550   45.3070 N   0  0  0  0  0  0  0  0  0  0  0  0
   56.9410   26.8130   46.0720 C   0  0  0  0  0  0  0  0  0  0  0  0
   55.6860   26.7330   46.0000 O   0  0  0  0  0  0  0  0  0  0  0  0
   57.7400   25.9200   46.9600 C   0  0  0  0  0  0  0  0  0  0  0  0
   59.5080   26.3840   46.7790 S   0  0  0  0  0  0  0  0  0  0  0  0
   59.0700   27.6070   45.5550 C   0  0  0  0  0  0  0  0  0  0  0  0
   59.9390   28.2790   44.9390 O   0  0  0  0  0  0  0  0  0  0  0  0
   57.4240   30.6030   45.8130 N   0  0  0  0  0  0  0  0  0  0  0  0
   57.9310   31.9420   45.7080 C   0  0  0  0  0  0  0  0  0  0  0  0
   57.2930   32.8950   44.8950 C   0  0  0  0  0  0  0  0  0  0  0  0
   57.7620   34.2100   44.8500 C   0  0  0  0  0  0  0  0  0  0  0  0
   58.8550   34.5910   45.6300 C   0  0  0  0  0  0  0  0  0  0  0  0
   59.4790   33.6580   46.4620 C   0  0  0  0  0  0  0  0  0  0  0  0
   59.0210   32.3340   46.5080 C   0  0  0  0  0  0  0  0  0  0  0  0
   59.6760   31.3970   47.3720 N   0  0  0  0  0  0  0  0  0  0  0  0
   61.0700   31.0310   47.1220 C   0  0  0  0  0  0  0  0  0  0  0  0
   61.7170   30.5470   48.4230 C   0  0  0  0  0  0  0  0  0  0  0  0
   60.9300   29.5390   49.0300 O   0  0  0  0  0  0  0  0  0  0  0  0
   59.6870   30.0810   49.4370 C   0  0  0  0  0  0  0  0  0  0  0  0
   58.8640   30.5270   48.2240 C   0  0  0  0  0  0  0  0  0  0  0  0
   56.2469   28.0735   43.8019 H   0  0  0  0  0  0  0  0  0  0  0  0
   57.8732   28.7723   43.4791 H   0  0  0  0  0  0  0  0  0  0  0  0
   57.4237   26.0516   48.0053 H   0  0  0  0  0  0  0  0  0  0  0  0
   57.5889   24.8665   46.6819 H   0  0  0  0  0  0  0  0  0  0  0  0
   56.4206   32.6039   44.2916 H   0  0  0  0  0  0  0  0  0  0  0  0
   57.2690   34.9467   44.1986 H   0  0  0  0  0  0  0  0  0  0  0  0
   59.2252   35.6261   45.5897 H   0  0  0  0  0  0  0  0  0  0  0  0
   60.3334   33.9638   47.0837 H   0  0  0  0  0  0  0  0  0  0  0  0
   61.1082   30.2263   46.3730 H   0  0  0  0  0  0  0  0  0  0  0  0
   61.6162   31.9095   46.7480 H   0  0  0  0  0  0  0  0  0  0  0  0
   62.7147   30.1407   48.2004 H   0  0  0  0  0  0  0  0  0  0  0  0
   61.7964   31.3979   49.1156 H   0  0  0  0  0  0  0  0  0  0  0  0
   59.1247   29.3161   49.9926 H   0  0  0  0  0  0  0  0  0  0  0  0
   59.8765   30.9565   50.0755 H   0  0  0  0  0  0  0  0  0  0  0  0
   58.5494   29.6429   47.6501 H   0  0  0  0  0  0  0  0  0  0  0  0
   57.9763   31.0782   48.5678 H   0  0  0  0  0  0  0  0  0  0  0  0
  1  2  2  0
  2  3  1  0
  3  4  1  0
  4  5  1  0
  5  6  2  0
  5  7  1  0
  7  8  1  0
  8  9  1  0
  9 10  2  0
  2 11  1  0
 11 12  1  0
 12 13  2  0
 13 14  1  0
 14 15  2  0
 15 16  1  0
 16 17  2  0
 17 18  1  0
 18 19  1  0
 19 20  1  0
 20 21  1  0
 21 22  1  0
 22 23  1  0
  9  4  1  0
 17 12  1  0
 23 18  1  0
  3 24  1  0
  3 25  1  0
  7 26  1  0
  7 27  1  0
 13 28  1  0
 14 29  1  0
 15 30  1  0
 16 31  1  0
 19 32  1  0
 19 33  1  0
 20 34  1  0
 20 35  1  0
 22 36  1  0
 22 37  1  0
 23 38  1  0
 23 39  1  0
M  CHG  1  11  -1
M  END
>  <UniqueID>  (34) 
30

>  <SMILES>  (34) 
O=C(CN1C(=O)CSC1=O)[N-]c1ccccc1N1CCOCC1

>  <Energy>  (34) 
57.8302729838778

>  <Genealogy>  (34) 
O=C(CN1C(=O)CSC1=O)[N-]c1ccccc1N1CCOCC1 (protonated)
O=C(CN1C(=O)CSC1=O)[N-]c1ccccc1N1CCOCC1 (3D coordinates assigned)
O=C(CN1C(=O)CSC1=O)[N-]c1ccccc1N1CCOCC1 (nonaromatic ring conformer: 57.8302729838778 kcal/mol)

>  <smiles>  (34) 
O=C(CN1C(=O)CSC1=O)Nc1ccccc1N1CCOCC1

>  <score_type>  (34) 
oracle

>  <origin>  (34) 
adg

>  <m_score__min__energy>  (34) 
-8.6500000000000004

>  <m_primary>  (34) 
energy

$$$$
34:0
     RDKit          3D

 33 34  0  0  0  0  0  0  0  0999 V2000
   56.6990   30.4690   42.6110 C   0  0  0  0  0  0  0  0  0  0  0  0
   57.0940   31.3100   43.8200 C   0  0  0  0  0  0  0  0  0  0  0  0
   56.7280   30.6580   45.0340 O   0  0  0  0  0  0  0  0  0  0  0  0
   56.7040   29.2660   45.1880 C   0  0  0  0  0  0  0  0  0  0  0  0
   55.6220   28.6330   45.0410 O   0  0  0  0  0  0  0  0  0  0  0  0
   57.9340   28.5380   45.5800 C   0  0  0  0  0  0  0  0  0  0  0  0
   59.1860   29.0730   45.2190 C   0  0  0  0  0  0  0  0  0  0  0  0
   60.3630   28.3670   45.4740 C   0  0  0  0  0  0  0  0  0  0  0  0
   60.3100   27.1150   46.0840 C   0  0  0  0  0  0  0  0  0  0  0  0
   59.0810   26.5760   46.4650 C   0  0  0  0  0  0  0  0  0  0  0  0
   57.8930   27.2860   46.2470 C   0  0  0  0  0  0  0  0  0  0  0  0
   56.6700   26.7170   46.7310 N   0  0  0  0  0  0  0  0  0  0  0  0
   55.9190   25.7230   46.0220 C   0  0  0  0  0  0  0  0  0  0  0  0
   54.7020   25.9200   45.7590 O   0  0  0  0  0  0  0  0  0  0  0  0
   56.5760   24.4680   45.6170 C   0  0  0  0  0  0  0  0  0  0  0  0
   57.3850   23.7430   46.5070 C   0  0  0  0  0  0  0  0  0  0  0  0
   57.9640   22.5830   46.0960 N   0  0  0  0  0  0  0  0  0  0  0  0
   57.7740   22.1120   44.8350 C   0  0  0  0  0  0  0  0  0  0  0  0
   56.9720   22.8300   43.9480 C   0  0  0  0  0  0  0  0  0  0  0  0
   56.3920   23.9870   44.3580 N   0  0  0  0  0  0  0  0  0  0  0  0
   56.2544   29.5225   42.9522 H   0  0  0  0  0  0  0  0  0  0  0  0
   55.9659   31.0207   42.0043 H   0  0  0  0  0  0  0  0  0  0  0  0
   57.5917   30.2571   42.0043 H   0  0  0  0  0  0  0  0  0  0  0  0
   58.1827   31.4670   43.8094 H   0  0  0  0  0  0  0  0  0  0  0  0
   56.5666   32.2738   43.7655 H   0  0  0  0  0  0  0  0  0  0  0  0
   59.2368   30.0575   44.7310 H   0  0  0  0  0  0  0  0  0  0  0  0
   61.3344   28.7998   45.1929 H   0  0  0  0  0  0  0  0  0  0  0  0
   61.2374   26.5518   46.2650 H   0  0  0  0  0  0  0  0  0  0  0  0
   59.0443   25.5849   46.9407 H   0  0  0  0  0  0  0  0  0  0  0  0
   57.5494   24.1111   47.5305 H   0  0  0  0  0  0  0  0  0  0  0  0
   58.5630   22.0440   46.7610 H   0  0  0  0  0  0  0  0  0  0  0  0
   58.2489   21.1722   44.5167 H   0  0  0  0  0  0  0  0  0  0  0  0
   56.8107   22.4616   42.9241 H   0  0  0  0  0  0  0  0  0  0  0  0
  1  2  1  0
  2  3  1  0
  3  4  1  0
  4  5  2  0
  4  6  1  0
  6  7  2  0
  7  8  1  0
  8  9  2  0
  9 10  1  0
 10 11  2  0
 11 12  1  0
 12 13  1  0
 13 14  2  0
 13 15  1  0
 15 16  2  0
 16 17  1  0
 17 18  2  0
 18 19  1  0
 19 20  2  0
 11  6  1  0
 20 15  1  0
  1 21  1  0
  1 22  1  0
  1 23  1  0
  2 24  1  0
  2 25  1  0
  7 26  1  0
  8 27  1  0
  9 28  1  0
 10 29  1  0
 16 30  1  0
 17 31  1  0
 18 32  1  0
 19 33  1  0
M  CHG  2  12  -1  17   1
M  END
>  <UniqueID>  (35) 
31

>  <SMILES>  (35) 
CCOC(=O)c1ccccc1[N-]C(=O)c1c[nH+]ccn1

>  <Energy>  (35) 
38.587435474560515

>  <Genealogy>  (35) 
CCOC(=O)c1ccccc1[N-]C(=O)c1c[nH+]ccn1 (protonated)
CCOC(=O)c1ccccc1[N-]C(=O)c1c[nH+]ccn1 (3D coordinates assigned)
CCOC(=O)c1ccccc1[N-]C(=O)c1c[nH+]ccn1 (optimized conformer: 38.587435474560515 kcal/mol)

>  <smiles>  (35) 
CCOC(=O)c1ccccc1NC(=O)c1cnccn1

>  <score_type>  (35) 
oracle

>  <origin>  (35) 
adg

>  <m_score__min__energy>  (35) 
-7.4699999999999998

>  <m_primary>  (35) 
energy

$$$$
35:0
     RDKit          3D

 56 58  0  0  0  0  0  0  0  0999 V2000
   67.5330   28.9260   51.2490 C   0  0  0  0  0  0  0  0  0  0  0  0
   67.6970   29.8530   52.4480 C   0  0  0  0  0  0  0  0  0  0  0  0
   67.2980   31.1820   52.1170 O   0  0  0  0  0  0  0  0  0  0  0  0
   66.1840   31.5280   51.3330 C   0  0  0  0  0  0  0  0  0  0  0  0
   66.3220   32.5820   50.4230 C   0  0  0  0  0  0  0  0  0  0  0  0
   65.2450   32.9780   49.6250 C   0  0  0  0  0  0  0  0  0  0  0  0
   64.0020   32.3220   49.7230 C   0  0  0  0  0  0  0  0  0  0  0  0
   62.8850   32.7390   48.9040 N   0  0  0  0  0  0  0  0  0  0  0  0
   63.0200   32.7540   47.4380 C   0  0  0  0  0  0  0  0  0  0  0  0
   61.6570   32.7740   46.7410 C   0  0  0  0  0  0  0  0  0  0  0  0
   60.8130   33.8410   47.2950 N   0  0  0  0  0  0  0  0  0  0  0  0
   59.9110   34.5930   46.4570 C   0  0  0  0  0  0  0  0  0  0  0  0
   59.6500   35.7900   46.7540 O   0  0  0  0  0  0  0  0  0  0  0  0
   59.2550   33.9730   45.2390 C   0  0  0  0  0  0  0  0  0  0  0  0
   57.9490   33.3290   45.5130 N   0  0  0  0  0  0  0  0  0  0  0  0
   56.8030   34.2110   45.2440 C   0  0  0  0  0  0  0  0  0  0  0  0
   57.7410   31.7720   44.7360 S   0  0  0  0  0  0  0  0  0  0  0  0
   58.1550   31.8480   43.2920 O   0  0  0  0  0  0  0  0  0  0  0  0
   56.2860   31.3940   44.7870 O   0  0  0  0  0  0  0  0  0  0  0  0
   58.6630   30.5150   45.5670 C   0  0  0  0  0  0  0  0  0  0  0  0
   59.1480   29.4180   44.8380 C   0  0  0  0  0  0  0  0  0  0  0  0
   59.8610   28.4050   45.4870 C   0  0  0  0  0  0  0  0  0  0  0  0
   60.0940   28.4830   46.8640 C   0  0  0  0  0  0  0  0  0  0  0  0
   60.7820   27.4980   47.4940 F   0  0  0  0  0  0  0  0  0  0  0  0
   59.6180   29.5780   47.5930 C   0  0  0  0  0  0  0  0  0  0  0  0
   58.9040   30.5930   46.9470 C   0  0  0  0  0  0  0  0  0  0  0  0
   60.8590   34.1420   48.7330 C   0  0  0  0  0  0  0  0  0  0  0  0
   61.5880   33.0510   49.5210 C   0  0  0  0  0  0  0  0  0  0  0  0
   63.8700   31.2530   50.6280 C   0  0  0  0  0  0  0  0  0  0  0  0
   64.9480   30.8580   51.4250 C   0  0  0  0  0  0  0  0  0  0  0  0
   67.3514   27.8998   51.6011 H   0  0  0  0  0  0  0  0  0  0  0  0
   66.6802   29.2611   50.6404 H   0  0  0  0  0  0  0  0  0  0  0  0
   68.4490   28.9482   50.6404 H   0  0  0  0  0  0  0  0  0  0  0  0
   67.0742   29.4850   53.2767 H   0  0  0  0  0  0  0  0  0  0  0  0
   68.7567   29.8653   52.7428 H   0  0  0  0  0  0  0  0  0  0  0  0
   67.2865   33.1035   50.3349 H   0  0  0  0  0  0  0  0  0  0  0  0
   65.3689   33.8087   48.9146 H   0  0  0  0  0  0  0  0  0  0  0  0
   63.5845   33.6504   47.1417 H   0  0  0  0  0  0  0  0  0  0  0  0
   63.5457   31.8369   47.1340 H   0  0  0  0  0  0  0  0  0  0  0  0
   61.8029   32.9494   45.6649 H   0  0  0  0  0  0  0  0  0  0  0  0
   61.1598   31.8062   46.9027 H   0  0  0  0  0  0  0  0  0  0  0  0
   59.0990   34.7644   44.4911 H   0  0  0  0  0  0  0  0  0  0  0  0
   59.9303   33.1796   44.8863 H   0  0  0  0  0  0  0  0  0  0  0  0
   56.3670   34.5465   46.1965 H   0  0  0  0  0  0  0  0  0  0  0  0
   57.1403   35.0848   44.6671 H   0  0  0  0  0  0  0  0  0  0  0  0
   56.0447   33.6613   44.6671 H   0  0  0  0  0  0  0  0  0  0  0  0
   58.9670   29.3550   43.7548 H   0  0  0  0  0  0  0  0  0  0  0  0
   60.2391   27.5457   44.9138 H   0  0  0  0  0  0  0  0  0  0  0  0
   59.8053   29.6410   48.6751 H   0  0  0  0  0  0  0  0  0  0  0  0
   58.5310   31.4535   47.5219 H   0  0  0  0  0  0  0  0  0  0  0  0
   61.3837   35.0976   48.8798 H   0  0  0  0  0  0  0  0  0  0  0  0
   59.8246   34.1968   49.1033 H   0  0  0  0  0  0  0  0  0  0  0  0
   61.7534   33.3997   50.5511 H   0  0  0  0  0  0  0  0  0  0  0  0
   60.9690   32.1417   49.5190 H   0  0  0  0  0  0  0  0  0  0  0  0
   62.9094   30.7231   50.7091 H   0  0  0  0  0  0  0  0  0  0  0  0
   64.8309   30.0198   52.1276 H   0  0  0  0  0  0  0  0  0  0  0  0
  1  2  1  0
  2  3  1  0
  3  4  1  0
  4  5  2  0
  5  6  1  0
  6  7  2  0
  7  8  1  0
  8  9  1  0
  9 10  1  0
 10 11  1  0
 11 12  1  0
 12 13  2  0
 12 14  1  0
 14 15  1  0
 15 16  1  0
 15 17  1  0
 17 18  2  0
 17 19  2  0
 17 20  1  0
 20 21  2  0
 21 22  1  0
 22 23  2  0
 23 24  1  0
 23 25  1  0
 25 26  2  0
 11 27  1  0
 27 28  1  0
  7 29  1  0
 29 30  2  0
 30  4  1  0
 28  8  1  0
 26 20  1  0
  1 31  1  0
  1 32  1  0
  1 33  1  0
  2 34  1  0
  2 35  1  0
  5 36  1  0
  6 37  1  0
  9 38  1  0
  9 39  1  0
 10 40  1  0
 10 41  1  0
 14 42  1  0
 14 43  1  0
 16 44  1  0
 16 45  1  0
 16 46  1  0
 21 47  1  0
 22 48  1  0
 25 49  1  0
 26 50  1  0
 27 51  1  0
 27 52  1  0
 28 53  1  0
 28 54  1  0
 29 55  1  0
 30 56  1  0
M  END
>  <UniqueID>  (36) 
32

>  <SMILES>  (36) 
CCOc1ccc(N2CCN(C(=O)CN(C)S(=O)(=O)c3ccc(F)cc3)CC2)cc1

>  <Energy>  (36) 
63.19303085383936

>  <Genealogy>  (36) 
CCOc1ccc(N2CCN(C(=O)CN(C)S(=O)(=O)c3ccc(F)cc3)CC2)cc1 (3D coordinates assigned)
CCOc1ccc(N2CCN(C(=O)CN(C)S(=O)(=O)c3ccc(F)cc3)CC2)cc1 (nonaromatic ring conformer: 63.19303085383936 kcal/mol)

>  <smiles>  (36) 
CCOc1ccc(N2CCN(C(=O)CN(C)S(=O)(=O)c3ccc(F)cc3)CC2)cc1

>  <score_type>  (36) 
oracle

>  <origin>  (36) 
adg

>  <m_score__min__energy>  (36) 
-8.6699999999999999

>  <m_primary>  (36) 
energy

$$$$
36:0
     RDKit          3D

 46 48  0  0  0  0  0  0  0  0999 V2000
   56.2550   30.0110   42.9730 C   0  0  0  0  0  0  0  0  0  0  0  0
   56.2180   30.2060   44.3830 O   0  0  0  0  0  0  0  0  0  0  0  0
   57.3010   30.6520   45.1590 C   0  0  0  0  0  0  0  0  0  0  0  0
   57.6500   32.0090   45.2300 C   0  0  0  0  0  0  0  0  0  0  0  0
   58.7440   32.4330   45.9930 C   0  0  0  0  0  0  0  0  0  0  0  0
   59.5260   31.4790   46.6850 C   0  0  0  0  0  0  0  0  0  0  0  0
   59.1310   30.1170   46.6760 C   0  0  0  0  0  0  0  0  0  0  0  0
   59.8180   29.1840   47.4600 O   0  0  0  0  0  0  0  0  0  0  0  0
   59.5760   29.0380   48.8560 C   0  0  0  0  0  0  0  0  0  0  0  0
   58.0370   29.7000   45.8760 C   0  0  0  0  0  0  0  0  0  0  0  0
   57.6230   28.3590   45.7530 O   0  0  0  0  0  0  0  0  0  0  0  0
   58.4390   27.2460   45.4070 C   0  0  0  0  0  0  0  0  0  0  0  0
   60.7990   31.8830   47.3490 C   0  0  0  0  0  0  0  0  0  0  0  0
   61.9790   31.1800   47.0480 C   0  0  0  0  0  0  0  0  0  0  0  0
   63.1860   31.5230   47.6530 C   0  0  0  0  0  0  0  0  0  0  0  0
   63.2380   32.5800   48.5600 C   0  0  0  0  0  0  0  0  0  0  0  0
   64.7960   33.0210   49.3320 S   0  0  0  0  0  0  0  0  0  0  0  0
   64.0000   33.7390   50.8040 C   0  0  0  0  0  0  0  0  0  0  0  0
   62.0810   33.3060   48.8540 C   0  0  0  0  0  0  0  0  0  0  0  0
   60.8450   32.9650   48.2640 C   0  0  0  0  0  0  0  0  0  0  0  0
   59.5810   33.7710   48.5240 C   0  0  1  0  0  0  0  0  0  0  0  0
   59.6520   34.5670   49.7550 N   0  0  0  0  0  0  0  0  0  0  0  0
   59.2930   34.1300   50.8500 N   0  0  0  0  0  0  0  0  0  0  0  0
   58.9350   33.6930   51.9420 N   0  0  0  0  0  0  0  0  0  0  0  0
   59.2520   34.6520   47.3040 C   0  0  0  0  0  0  0  0  0  0  0  0
   59.0580   33.8820   46.0200 C   0  0  0  0  0  0  0  0  0  0  0  0
   59.0710   34.5220   44.9340 O   0  0  0  0  0  0  0  0  0  0  0  0
   56.4560   28.9518   42.7545 H   0  0  0  0  0  0  0  0  0  0  0  0
   55.2864   30.2978   42.5376 H   0  0  0  0  0  0  0  0  0  0  0  0
   57.0512   30.6327   42.5376 H   0  0  0  0  0  0  0  0  0  0  0  0
   57.0548   32.7510   44.6776 H   0  0  0  0  0  0  0  0  0  0  0  0
   60.3840   29.5255   49.4212 H   0  0  0  0  0  0  0  0  0  0  0  0
   58.6146   29.5069   49.1125 H   0  0  0  0  0  0  0  0  0  0  0  0
   59.5425   27.9688   49.1125 H   0  0  0  0  0  0  0  0  0  0  0  0
   58.7984   26.7558   46.3238 H   0  0  0  0  0  0  0  0  0  0  0  0
   57.8504   26.5298   44.8149 H   0  0  0  0  0  0  0  0  0  0  0  0
   59.2991   27.5919   44.8149 H   0  0  0  0  0  0  0  0  0  0  0  0
   61.9487   30.3500   46.3268 H   0  0  0  0  0  0  0  0  0  0  0  0
   64.0996   30.9587   47.4145 H   0  0  0  0  0  0  0  0  0  0  0  0
   64.4622   33.3221   51.7109 H   0  0  0  0  0  0  0  0  0  0  0  0
   64.1300   34.8313   50.7951 H   0  0  0  0  0  0  0  0  0  0  0  0
   62.9269   33.4974   50.7951 H   0  0  0  0  0  0  0  0  0  0  0  0
   62.1340   34.1533   49.5535 H   0  0  0  0  0  0  0  0  0  0  0  0
   58.7625   33.0521   48.6767 H   0  0  0  0  0  0  0  0  0  0  0  0
   58.3258   35.2056   47.5178 H   0  0  0  0  0  0  0  0  0  0  0  0
   60.1171   35.3134   47.1488 H   0  0  0  0  0  0  0  0  0  0  0  0
  1  2  1  0
  2  3  1  0
  3  4  2  0
  4  5  1  0
  5  6  2  0
  6  7  1  0
  7  8  1  0
  8  9  1  0
  7 10  2  0
 10 11  1  0
 11 12  1  0
  6 13  1  0
 13 14  2  0
 14 15  1  0
 15 16  2  0
 16 17  1  0
 17 18  1  0
 16 19  1  0
 19 20  2  0
 20 21  1  0
 21 22  1  0
 22 23  2  0
 23 24  2  0
 21 25  1  0
 25 26  1  0
 26 27  2  0
 10  3  1  0
 20 13  1  0
 26  5  1  0
  1 28  1  0
  1 29  1  0
  1 30  1  0
  4 31  1  0
  9 32  1  0
  9 33  1  0
  9 34  1  0
 12 35  1  0
 12 36  1  0
 12 37  1  0
 14 38  1  0
 15 39  1  0
 18 40  1  0
 18 41  1  0
 18 42  1  0
 19 43  1  0
 21 44  1  1
 25 45  1  0
 25 46  1  0
M  CHG  2  23   1  24  -1
M  END
>  <UniqueID>  (37) 
33

>  <SMILES>  (37) 
COc1cc2c(c(OC)c1OC)-c1ccc(SC)cc1[C@@H](N=[N+]=[N-])CC2=O

>  <Energy>  (37) 
70.38253800794983

>  <Genealogy>  (37) 
COc1cc2c(c(OC)c1OC)-c1ccc(SC)cc1[C@@H](N=[N+]=[N-])CC2=O (chirality)
COc1cc2c(c(OC)c1OC)-c1ccc(SC)cc1[C@@H](N=[N+]=[N-])CC2=O (3D coordinates assigned)
COc1cc2c(c(OC)c1OC)-c1ccc(SC)cc1[C@@H](N=[N+]=[N-])CC2=O (nonaromatic ring conformer: 70.38253800794983 kcal/mol)

>  <smiles>  (37) 
COc1cc2c(c(OC)c1OC)-c1ccc(SC)cc1C(N=[N+]=[N-])CC2=O

>  <score_type>  (37) 
oracle

>  <origin>  (37) 
adg

>  <m_score__min__energy>  (37) 
-6.3099999999999996

>  <m_primary>  (37) 
energy

$$$$
37:0
     RDKit          3D

 21 21  0  0  0  0  0  0  0  0999 V2000
   57.6920   26.9780   45.6140 C   0  0  0  0  0  0  0  0  0  0  0  0
   56.2570   27.3830   45.6190 C   0  0  0  0  0  0  0  0  0  0  0  0
   55.3770   26.5630   45.9910 O   0  0  0  0  0  0  0  0  0  0  0  0
   55.8890   28.6870   45.1560 N   0  0  0  0  0  0  0  0  0  0  0  0
   56.5390   29.3590   44.0370 C   0  0  0  0  0  0  0  0  0  0  0  0
   57.2420   30.6030   44.5100 C   0  0  0  0  0  0  0  0  0  0  0  0
   57.3380   31.7210   43.6660 C   0  0  0  0  0  0  0  0  0  0  0  0
   57.9720   32.8860   44.1080 C   0  0  0  0  0  0  0  0  0  0  0  0
   58.5100   32.9450   45.3970 C   0  0  0  0  0  0  0  0  0  0  0  0
   59.3740   34.5380   46.0000 Br  0  0  0  0  0  0  0  0  0  0  0  0
   58.4120   31.8380   46.2470 C   0  0  0  0  0  0  0  0  0  0  0  0
   57.7790   30.6710   45.8070 C   0  0  0  0  0  0  0  0  0  0  0  0
   58.0482   26.8775   46.6499 H   0  0  0  0  0  0  0  0  0  0  0  0
   57.7993   26.0145   45.0942 H   0  0  0  0  0  0  0  0  0  0  0  0
   58.2872   27.7433   45.0942 H   0  0  0  0  0  0  0  0  0  0  0  0
   57.2735   28.6781   43.5822 H   0  0  0  0  0  0  0  0  0  0  0  0
   55.7755   29.6398   43.2966 H   0  0  0  0  0  0  0  0  0  0  0  0
   56.9125   31.6801   42.6525 H   0  0  0  0  0  0  0  0  0  0  0  0
   58.0476   33.7572   43.4408 H   0  0  0  0  0  0  0  0  0  0  0  0
   58.8331   31.8855   47.2621 H   0  0  0  0  0  0  0  0  0  0  0  0
   57.7012   29.8032   46.4785 H   0  0  0  0  0  0  0  0  0  0  0  0
  1  2  1  0
  2  3  2  0
  2  4  1  0
  4  5  1  0
  5  6  1  0
  6  7  2  0
  7  8  1  0
  8  9  2  0
  9 10  1  0
  9 11  1  0
 11 12  2  0
 12  6  1  0
  1 13  1  0
  1 14  1  0
  1 15  1  0
  5 16  1  0
  5 17  1  0
  7 18  1  0
  8 19  1  0
 11 20  1  0
 12 21  1  0
M  CHG  1   4  -1
M  END
>  <UniqueID>  (38) 
34

>  <SMILES>  (38) 
CC(=O)[N-]Cc1ccc(Br)cc1

>  <Energy>  (38) 
14.938720339060147

>  <Genealogy>  (38) 
CC(=O)[N-]Cc1ccc(Br)cc1 (protonated)
CC(=O)[N-]Cc1ccc(Br)cc1 (3D coordinates assigned)
CC(=O)[N-]Cc1ccc(Br)cc1 (optimized conformer: 14.938720339060147 kcal/mol)

>  <smiles>  (38) 
CC(=O)NCc1ccc(Br)cc1

>  <score_type>  (38) 
oracle

>  <origin>  (38) 
adg

>  <m_score__min__energy>  (38) 
-7.9199999999999999

>  <m_primary>  (38) 
energy

$$$$
38:0
     RDKit          3D

 29 31  0  0  0  0  0  0  0  0999 V2000
   62.1670   32.5980   47.2430 C   0  0  0  0  0  0  0  0  0  0  0  0
   60.8650   33.1850   46.7640 C   0  0  0  0  0  0  0  0  0  0  0  0
   60.7430   34.5780   46.6860 C   0  0  0  0  0  0  0  0  0  0  0  0
   59.5430   35.1440   46.2790 C   0  0  0  0  0  0  0  0  0  0  0  0
   58.5020   34.3490   45.9340 N   0  0  0  0  0  0  0  0  0  0  0  0
   58.5640   32.9900   45.9670 C   0  0  0  0  0  0  0  0  0  0  0  0
   59.7640   32.3620   46.4120 C   0  0  0  0  0  0  0  0  0  0  0  0
   59.8780   30.9290   46.5490 N   0  0  0  0  0  0  0  0  0  0  0  0
   58.7320   30.0500   46.7180 C   0  0  0  0  0  0  0  0  0  0  0  0
   58.0530   29.8900   45.3930 C   0  0  0  0  0  0  0  0  0  0  0  0
   58.0570   28.6660   44.6810 C   0  0  0  0  0  0  0  0  0  0  0  0
   58.8770   27.2260   45.2780 Cl  0  0  0  0  0  0  0  0  0  0  0  0
   57.3920   28.5750   43.4520 C   0  0  0  0  0  0  0  0  0  0  0  0
   56.7300   29.6830   42.9250 C   0  0  0  0  0  0  0  0  0  0  0  0
   56.7370   30.8960   43.6150 C   0  0  0  0  0  0  0  0  0  0  0  0
   57.4190   31.0140   44.8350 C   0  0  0  0  0  0  0  0  0  0  0  0
   57.3950   32.2710   45.5290 N   0  0  0  0  0  0  0  0  0  0  0  0
   62.1833   32.5907   48.3429 H   0  0  0  0  0  0  0  0  0  0  0  0
   62.2651   31.5686   46.8680 H   0  0  0  0  0  0  0  0  0  0  0  0
   63.0034   33.2061   46.8680 H   0  0  0  0  0  0  0  0  0  0  0  0
   61.5960   35.2218   46.9466 H   0  0  0  0  0  0  0  0  0  0  0  0
   59.4373   36.2381   46.2366 H   0  0  0  0  0  0  0  0  0  0  0  0
   60.8200   30.4800   46.5940 H   0  0  0  0  0  0  0  0  0  0  0  0
   59.0685   29.0684   47.0829 H   0  0  0  0  0  0  0  0  0  0  0  0
   58.0323   30.4812   47.4491 H   0  0  0  0  0  0  0  0  0  0  0  0
   57.3920   27.6239   42.8993 H   0  0  0  0  0  0  0  0  0  0  0  0
   56.2014   29.6010   41.9639 H   0  0  0  0  0  0  0  0  0  0  0  0
   56.2047   31.7645   43.1998 H   0  0  0  0  0  0  0  0  0  0  0  0
   56.5240   32.8390   45.4190 H   0  0  0  0  0  0  0  0  0  0  0  0
  1  2  1  0
  2  3  2  0
  3  4  1  0
  4  5  2  0
  5  6  1  0
  6  7  2  0
  7  8  1  0
  8  9  1  0
  9 10  1  0
 10 11  2  0
 11 12  1  0
 11 13  1  0
 13 14  2  0
 14 15  1  0
 15 16  2  0
 16 17  1  0
  7  2  1  0
 16 10  1  0
 17  6  1  0
  1 18  1  0
  1 19  1  0
  1 20  1  0
  3 21  1  0
  4 22  1  0
  8 23  1  0
  9 24  1  0
  9 25  1  0
 13 26  1  0
 14 27  1  0
 15 28  1  0
 17 29  1  0
M  END
>  <UniqueID>  (39) 
35

>  <SMILES>  (39) 
Cc1ccnc2c1NCc1c(Cl)cccc1N2

>  <Energy>  (39) 
46.84925744791851

>  <Genealogy>  (39) 
Cc1ccnc2c1NCc1c(Cl)cccc1N2 (3D coordinates assigned)
Cc1ccnc2c1NCc1c(Cl)cccc1N2 (nonaromatic ring conformer: 46.84925744791851 kcal/mol)

>  <smiles>  (39) 
Cc1ccnc2c1NCc1c(Cl)cccc1N2

>  <score_type>  (39) 
oracle

>  <origin>  (39) 
adg

>  <m_score__min__energy>  (39) 
-6.0999999999999996

>  <m_primary>  (39) 
energy

$$$$
39:0
     RDKit          3D

 52 55  0  0  0  0  0  0  0  0999 V2000
   57.6030   24.5230   46.0640 C   0  0  0  0  0  0  0  0  0  0  0  0
   57.6560   25.6140   45.0270 C   0  0  0  0  0  0  0  0  0  0  0  0
   57.7370   25.2580   43.6700 C   0  0  0  0  0  0  0  0  0  0  0  0
   57.7900   26.2370   42.6800 C   0  0  0  0  0  0  0  0  0  0  0  0
   57.7680   27.5860   43.0290 C   0  0  0  0  0  0  0  0  0  0  0  0
   57.6800   27.9690   44.3720 C   0  0  0  0  0  0  0  0  0  0  0  0
   57.6830   29.3680   44.6900 N   0  0  0  0  0  0  0  0  0  0  0  0
   56.5590   30.2130   44.2810 C   0  0  0  0  0  0  0  0  0  0  0  0
   56.9860   31.6820   44.2860 C   0  0  0  0  0  0  0  0  0  0  0  0
   57.4940   32.1070   45.6100 N   0  0  0  0  0  0  0  0  0  0  0  0
   58.4220   33.5780   45.4420 S   0  0  0  0  0  0  0  0  0  0  0  0
   57.5200   34.7720   45.5930 O   0  0  0  0  0  0  0  0  0  0  0  0
   59.0540   33.6240   44.0790 O   0  0  0  0  0  0  0  0  0  0  0  0
   59.6950   33.6330   46.6590 C   0  0  0  0  0  0  0  0  0  0  0  0
   59.3810   34.0100   47.9860 C   0  0  0  0  0  0  0  0  0  0  0  0
   60.3860   34.0850   48.9670 C   0  0  0  0  0  0  0  0  0  0  0  0
   61.6940   33.7780   48.5860 C   0  0  0  0  0  0  0  0  0  0  0  0
   62.0000   33.4190   47.3000 C   0  0  0  0  0  0  0  0  0  0  0  0
   63.3610   33.2020   47.2400 C   0  0  0  0  0  0  0  0  0  0  0  0
   63.8290   33.4440   48.5270 C   0  0  0  0  0  0  0  0  0  0  0  0
   62.8070   33.7880   49.3460 N   0  0  0  0  0  0  0  0  0  0  0  0
   62.9120   34.1530   50.7550 C   0  0  0  0  0  0  0  0  0  0  0  0
   61.0280   33.3360   46.3060 C   0  0  0  0  0  0  0  0  0  0  0  0
   58.2670   31.0770   46.3490 C   0  0  0  0  0  0  0  0  0  0  0  0
   58.7900   29.9440   45.4550 C   0  0  0  0  0  0  0  0  0  0  0  0
   57.5920   26.9860   45.3870 C   0  0  0  0  0  0  0  0  0  0  0  0
   57.4810   27.3920   46.8400 C   0  0  0  0  0  0  0  0  0  0  0  0
   57.6247   24.9706   47.0686 H   0  0  0  0  0  0  0  0  0  0  0  0
   56.6757   23.9444   45.9404 H   0  0  0  0  0  0  0  0  0  0  0  0
   58.4699   23.8572   45.9404 H   0  0  0  0  0  0  0  0  0  0  0  0
   57.7588   24.1954   43.3864 H   0  0  0  0  0  0  0  0  0  0  0  0
   57.8493   25.9446   41.6212 H   0  0  0  0  0  0  0  0  0  0  0  0
   57.8201   28.3546   42.2438 H   0  0  0  0  0  0  0  0  0  0  0  0
   56.2387   29.9293   43.2676 H   0  0  0  0  0  0  0  0  0  0  0  0
   55.7256   30.0747   44.9855 H   0  0  0  0  0  0  0  0  0  0  0  0
   57.7805   31.8235   43.5386 H   0  0  0  0  0  0  0  0  0  0  0  0
   56.1030   32.2935   44.0484 H   0  0  0  0  0  0  0  0  0  0  0  0
   58.3405   34.2468   48.2531 H   0  0  0  0  0  0  0  0  0  0  0  0
   60.1494   34.3761   50.0011 H   0  0  0  0  0  0  0  0  0  0  0  0
   63.9505   32.9015   46.3613 H   0  0  0  0  0  0  0  0  0  0  0  0
   64.8818   33.3668   48.8363 H   0  0  0  0  0  0  0  0  0  0  0  0
   62.6616   33.2824   51.3789 H   0  0  0  0  0  0  0  0  0  0  0  0
   63.9399   34.4776   50.9741 H   0  0  0  0  0  0  0  0  0  0  0  0
   62.2137   34.9742   50.9741 H   0  0  0  0  0  0  0  0  0  0  0  0
   61.2916   33.0478   45.2777 H   0  0  0  0  0  0  0  0  0  0  0  0
   59.1270   31.5659   46.8300 H   0  0  0  0  0  0  0  0  0  0  0  0
   57.5825   30.6220   47.0800 H   0  0  0  0  0  0  0  0  0  0  0  0
   59.5445   30.3440   44.7616 H   0  0  0  0  0  0  0  0  0  0  0  0
   59.2431   29.1635   46.0839 H   0  0  0  0  0  0  0  0  0  0  0  0
   57.7168   26.5295   47.4807 H   0  0  0  0  0  0  0  0  0  0  0  0
   58.1891   28.2077   47.0479 H   0  0  0  0  0  0  0  0  0  0  0  0
   56.4564   27.7340   47.0479 H   0  0  0  0  0  0  0  0  0  0  0  0
  1  2  1  0
  2  3  2  0
  3  4  1  0
  4  5  2  0
  5  6  1  0
  6  7  1  0
  7  8  1  0
  8  9  1  0
  9 10  1  0
 10 11  1  0
 11 12  2  0
 11 13  2  0
 11 14  1  0
 14 15  2  0
 15 16  1  0
 16 17  2  0
 17 18  1  0
 18 19  1  0
 19 20  2  0
 20 21  1  0
 21 22  1  0
 18 23  2  0
 10 24  1  0
 24 25  1  0
  6 26  2  0
 26 27  1  0
 26  2  1  0
 25  7  1  0
 23 14  1  0
 21 17  1  0
  1 28  1  0
  1 29  1  0
  1 30  1  0
  3 31  1  0
  4 32  1  0
  5 33  1  0
  8 34  1  0
  8 35  1  0
  9 36  1  0
  9 37  1  0
 15 38  1  0
 16 39  1  0
 19 40  1  0
 20 41  1  0
 22 42  1  0
 22 43  1  0
 22 44  1  0
 23 45  1  0
 24 46  1  0
 24 47  1  0
 25 48  1  0
 25 49  1  0
 27 50  1  0
 27 51  1  0
 27 52  1  0
M  END
>  <UniqueID>  (40) 
36

>  <SMILES>  (40) 
Cc1cccc(N2CCN(S(=O)(=O)c3ccc4c(ccn4C)c3)CC2)c1C

>  <Energy>  (40) 
99.57835019083458

>  <Genealogy>  (40) 
Cc1cccc(N2CCN(S(=O)(=O)c3ccc4c(ccn4C)c3)CC2)c1C (3D coordinates assigned)
Cc1cccc(N2CCN(S(=O)(=O)c3ccc4c(ccn4C)c3)CC2)c1C (nonaromatic ring conformer: 99.57835019083458 kcal/mol)

>  <smiles>  (40) 
Cc1cccc(N2CCN(S(=O)(=O)c3ccc4c(ccn4C)c3)CC2)c1C

>  <score_type>  (40) 
oracle

>  <origin>  (40) 
adg

>  <m_score__min__energy>  (40) 
-8.7300000000000004

>  <m_primary>  (40) 
energy

$$$$
40:0
     RDKit          3D

 56 58  0  0  0  0  0  0  0  0999 V2000
   55.3360   21.5560   48.8850 C   0  0  0  0  0  0  0  0  0  0  0  0
   56.6790   22.1980   48.8180 C   0  0  0  0  0  0  0  0  0  0  0  0
   57.4110   22.2110   49.8450 O   0  0  0  0  0  0  0  0  0  0  0  0
   57.1500   22.6840   47.5920 O   0  0  0  0  0  0  0  0  0  0  0  0
   57.0910   24.0240   47.1780 C   0  0  0  0  0  0  0  0  0  0  0  0
   58.1890   24.8840   47.3330 C   0  0  0  0  0  0  0  0  0  0  0  0
   58.1190   26.2160   46.9240 C   0  0  0  0  0  0  0  0  0  0  0  0
   59.1820   26.9950   47.0830 O   0  0  0  0  0  0  0  0  0  0  0  0
   59.2040   28.2740   46.7290 C   0  0  0  0  0  0  0  0  0  0  0  0
   60.3740   29.0090   46.9200 C   0  0  0  0  0  0  0  0  0  0  0  0
   60.4430   30.3550   46.5610 C   0  0  0  0  0  0  0  0  0  0  0  0
   61.6690   31.0080   46.7260 O   0  0  0  0  0  0  0  0  0  0  0  0
   59.2990   31.0050   46.0390 C   0  0  0  0  0  0  0  0  0  0  0  0
   59.3270   32.4740   45.6680 C   0  0  0  0  0  0  0  0  0  0  0  0
   58.6020   33.2880   46.7140 C   0  0  0  0  0  0  0  0  0  0  0  0
   59.0120   33.4160   47.9930 C   0  0  0  0  0  0  0  0  0  0  0  0
   59.8870   34.5610   48.4430 C   0  0  0  0  0  0  0  0  0  0  0  0
   58.5790   32.4090   49.0280 C   0  0  0  0  0  0  0  0  0  0  0  0
   58.1210   30.2560   45.8140 C   0  0  0  0  0  0  0  0  0  0  0  0
   57.0150   30.8840   45.2450 O   0  0  0  0  0  0  0  0  0  0  0  0
   58.0660   28.8840   46.1590 C   0  0  0  0  0  0  0  0  0  0  0  0
   56.9150   28.0850   45.9630 C   0  0  0  0  0  0  0  0  0  0  0  0
   55.8760   28.5830   45.4490 O   0  0  0  0  0  0  0  0  0  0  0  0
   56.9330   26.7250   46.3510 C   0  0  0  0  0  0  0  0  0  0  0  0
   55.8220   25.8640   46.1950 C   0  0  0  0  0  0  0  0  0  0  0  0
   54.6460   26.3230   45.6060 O   0  0  0  0  0  0  0  0  0  0  0  0
   55.8910   24.5220   46.6320 C   0  0  0  0  0  0  0  0  0  0  0  0
   54.7100   23.6020   46.4310 C   0  0  0  0  0  0  0  0  0  0  0  0
   54.7410   23.0100   45.0420 C   0  0  0  0  0  0  0  0  0  0  0  0
   55.8680   22.7400   44.3590 C   0  0  0  0  0  0  0  0  0  0  0  0
   56.6400   21.4600   44.5740 C   0  0  0  0  0  0  0  0  0  0  0  0
   56.3720   23.7560   43.3660 C   0  0  0  0  0  0  0  0  0  0  0  0
   55.0476   21.4181   49.9375 H   0  0  0  0  0  0  0  0  0  0  0  0
   54.5971   22.1983   48.3835 H   0  0  0  0  0  0  0  0  0  0  0  0
   55.3718   20.5776   48.3835 H   0  0  0  0  0  0  0  0  0  0  0  0
   59.1175   24.5027   47.7831 H   0  0  0  0  0  0  0  0  0  0  0  0
   61.2554   28.5198   47.3603 H   0  0  0  0  0  0  0  0  0  0  0  0
   61.8090   31.7940   47.3490 H   0  0  0  0  0  0  0  0  0  0  0  0
   60.3715   32.8129   45.6029 H   0  0  0  0  0  0  0  0  0  0  0  0
   58.8281   32.6095   44.6971 H   0  0  0  0  0  0  0  0  0  0  0  0
   57.6812   33.8095   46.4137 H   0  0  0  0  0  0  0  0  0  0  0  0
   59.9118   34.5935   49.5422 H   0  0  0  0  0  0  0  0  0  0  0  0
   60.9070   34.4166   48.0573 H   0  0  0  0  0  0  0  0  0  0  0  0
   59.4797   35.5073   48.0573 H   0  0  0  0  0  0  0  0  0  0  0  0
   58.7549   32.8182   50.0338 H   0  0  0  0  0  0  0  0  0  0  0  0
   57.5080   32.1918   48.9027 H   0  0  0  0  0  0  0  0  0  0  0  0
   59.1582   31.4822   48.9027 H   0  0  0  0  0  0  0  0  0  0  0  0
   54.7509   22.7908   47.1728 H   0  0  0  0  0  0  0  0  0  0  0  0
   53.7810   24.1778   46.5553 H   0  0  0  0  0  0  0  0  0  0  0  0
   53.7795   22.7850   44.5573 H   0  0  0  0  0  0  0  0  0  0  0  0
   56.7512   21.2757   45.6527 H   0  0  0  0  0  0  0  0  0  0  0  0
   56.0965   20.6221   44.1129 H   0  0  0  0  0  0  0  0  0  0  0  0
   57.6347   21.5499   44.1129 H   0  0  0  0  0  0  0  0  0  0  0  0
   56.7982   24.6151   43.9047 H   0  0  0  0  0  0  0  0  0  0  0  0
   57.1474   23.2980   42.7343 H   0  0  0  0  0  0  0  0  0  0  0  0
   55.5382   24.0963   42.7343 H   0  0  0  0  0  0  0  0  0  0  0  0
  1  2  1  0
  2  3  2  0
  2  4  1  0
  4  5  1  0
  5  6  2  0
  6  7  1  0
  7  8  1  0
  8  9  1  0
  9 10  2  0
 10 11  1  0
 11 12  1  0
 11 13  2  0
 13 14  1  0
 14 15  1  0
 15 16  2  3
 16 17  1  0
 16 18  1  0
 13 19  1  0
 19 20  1  0
 19 21  2  0
 21 22  1  0
 22 23  2  0
 22 24  1  0
 24 25  1  0
 25 26  1  0
 25 27  2  0
 27 28  1  0
 28 29  1  0
 29 30  2  3
 30 31  1  0
 30 32  1  0
 27  5  1  0
 24  7  2  0
 21  9  1  0
  1 33  1  0
  1 34  1  0
  1 35  1  0
  6 36  1  0
 10 37  1  0
 12 38  1  0
 14 39  1  0
 14 40  1  0
 15 41  1  0
 17 42  1  0
 17 43  1  0
 17 44  1  0
 18 45  1  0
 18 46  1  0
 18 47  1  0
 28 48  1  0
 28 49  1  0
 29 50  1  0
 31 51  1  0
 31 52  1  0
 31 53  1  0
 32 54  1  0
 32 55  1  0
 32 56  1  0
M  CHG  2  20  -1  26  -1
M  END
>  <UniqueID>  (41) 
37

>  <SMILES>  (41) 
CC(=O)Oc1cc2oc3cc(O)c(CC=C(C)C)c([O-])c3c(=O)c2c([O-])c1CC=C(C)C

>  <Energy>  (41) 
70.21382871037348

>  <Genealogy>  (41) 
CC(=O)Oc1cc2oc3cc(O)c(CC=C(C)C)c([O-])c3c(=O)c2c([O-])c1CC=C(C)C (protonated)
CC(=O)Oc1cc2oc3cc(O)c(CC=C(C)C)c([O-])c3c(=O)c2c([O-])c1CC=C(C)C (3D coordinates assigned)
CC(=O)Oc1cc2oc3cc(O)c(CC=C(C)C)c([O-])c3c(=O)c2c([O-])c1CC=C(C)C (optimized conformer: 70.21382871037348 kcal/mol)

>  <smiles>  (41) 
CC(=O)Oc1cc2oc3cc(O)c(CC=C(C)C)c(O)c3c(=O)c2c(O)c1CC=C(C)C

>  <score_type>  (41) 
oracle

>  <origin>  (41) 
adg

>  <m_score__min__energy>  (41) 
-13.4

>  <m_primary>  (41) 
energy

$$$$
41:0
     RDKit          3D

 43 46  0  0  0  0  0  0  0  0999 V2000
   61.7920   31.0780   47.1470 C   0  0  0  0  0  0  0  0  0  0  0  0
   60.6490   30.2660   46.9970 O   0  0  0  0  0  0  0  0  0  0  0  0
   59.9070   30.2760   48.1960 C   0  0  0  0  0  0  0  0  0  0  0  0
   58.8240   31.3550   48.1310 C   0  0  0  0  0  0  0  0  0  0  0  0
   58.8180   32.0260   46.8260 N   0  0  0  0  0  0  0  0  0  0  0  0
   58.3560   31.5690   45.6180 C   0  0  0  0  0  0  0  0  0  0  0  0
   57.8000   30.2260   45.3560 C   0  0  0  0  0  0  0  0  0  0  0  0
   56.6400   30.1290   44.8710 O   0  0  0  0  0  0  0  0  0  0  0  0
   58.5920   29.0470   45.5560 N   0  0  0  0  0  0  0  0  0  0  0  0
   58.0390   27.7360   45.7640 C   0  0  0  0  0  0  0  0  0  0  0  0
   58.8830   26.6910   46.1770 C   0  0  0  0  0  0  0  0  0  0  0  0
   58.3680   25.4130   46.4160 C   0  0  0  0  0  0  0  0  0  0  0  0
   57.0010   25.1740   46.2610 C   0  0  0  0  0  0  0  0  0  0  0  0
   56.1510   26.2060   45.8420 C   0  0  0  0  0  0  0  0  0  0  0  0
   56.6610   27.4870   45.6140 C   0  0  0  0  0  0  0  0  0  0  0  0
   54.7910   25.9340   45.6600 O   0  0  0  0  0  0  0  0  0  0  0  0
   54.3070   24.5900   45.6190 C   0  0  0  0  0  0  0  0  0  0  0  0
   55.0470   23.7250   46.6460 C   0  0  0  0  0  0  0  0  0  0  0  0
   56.4600   23.9120   46.5250 O   0  0  0  0  0  0  0  0  0  0  0  0
   58.3850   32.5860   44.6510 C   0  0  0  0  0  0  0  0  0  0  0  0
   58.8930   33.6620   45.3290 C   0  0  0  0  0  0  0  0  0  0  0  0
   59.1860   35.2880   45.0750 S   0  0  0  0  0  0  0  0  0  0  0  0
   59.6500   35.5450   46.7020 C   0  0  0  0  0  0  0  0  0  0  0  0
   59.5510   34.3480   47.4300 C   0  0  0  0  0  0  0  0  0  0  0  0
   59.1310   33.3150   46.5980 C   0  0  0  0  0  0  0  0  0  0  0  0
   61.9993   31.2253   48.2172 H   0  0  0  0  0  0  0  0  0  0  0  0
   62.6543   30.5889   46.6704 H   0  0  0  0  0  0  0  0  0  0  0  0
   61.6140   32.0533   46.6704 H   0  0  0  0  0  0  0  0  0  0  0  0
   59.4342   29.2933   48.3402 H   0  0  0  0  0  0  0  0  0  0  0  0
   60.5822   30.4917   49.0372 H   0  0  0  0  0  0  0  0  0  0  0  0
   57.8423   30.8879   48.2983 H   0  0  0  0  0  0  0  0  0  0  0  0
   59.0348   32.1059   48.9067 H   0  0  0  0  0  0  0  0  0  0  0  0
   59.6260   29.1350   45.4490 H   0  0  0  0  0  0  0  0  0  0  0  0
   59.9580   26.8799   46.3135 H   0  0  0  0  0  0  0  0  0  0  0  0
   59.0384   24.5977   46.7255 H   0  0  0  0  0  0  0  0  0  0  0  0
   55.9849   28.3022   45.3169 H   0  0  0  0  0  0  0  0  0  0  0  0
   53.2312   24.5848   45.8484 H   0  0  0  0  0  0  0  0  0  0  0  0
   54.4806   24.1783   44.6138 H   0  0  0  0  0  0  0  0  0  0  0  0
   54.7283   24.0116   47.6591 H   0  0  0  0  0  0  0  0  0  0  0  0
   54.8085   22.6671   46.4616 H   0  0  0  0  0  0  0  0  0  0  0  0
   58.0733   32.5316   43.5975 H   0  0  0  0  0  0  0  0  0  0  0  0
   59.9785   36.5089   47.1178 H   0  0  0  0  0  0  0  0  0  0  0  0
   59.7732   34.2426   48.5021 H   0  0  0  0  0  0  0  0  0  0  0  0
  1  2  1  0
  2  3  1  0
  3  4  1  0
  4  5  1  0
  5  6  1  0
  6  7  1  0
  7  8  2  0
  7  9  1  0
  9 10  1  0
 10 11  2  0
 11 12  1  0
 12 13  2  0
 13 14  1  0
 14 15  2  0
 14 16  1  0
 16 17  1  0
 17 18  1  0
 18 19  1  0
  6 20  2  0
 20 21  1  0
 21 22  1  0
 22 23  1  0
 23 24  2  0
 24 25  1  0
 25  5  1  0
 15 10  1  0
 25 21  2  0
 19 13  1  0
  1 26  1  0
  1 27  1  0
  1 28  1  0
  3 29  1  0
  3 30  1  0
  4 31  1  0
  4 32  1  0
  9 33  1  0
 11 34  1  0
 12 35  1  0
 15 36  1  0
 17 37  1  0
 17 38  1  0
 18 39  1  0
 18 40  1  0
 20 41  1  0
 23 42  1  0
 24 43  1  0
M  END
>  <UniqueID>  (42) 
38

>  <SMILES>  (42) 
COCCn1c(C(=O)Nc2ccc3c(c2)OCCO3)cc2sccc21

>  <Energy>  (42) 
126.62836574824796

>  <Genealogy>  (42) 
COCCn1c(C(=O)Nc2ccc3c(c2)OCCO3)cc2sccc21 (3D coordinates assigned)
COCCn1c(C(=O)Nc2ccc3c(c2)OCCO3)cc2sccc21 (nonaromatic ring conformer: 126.62836574824796 kcal/mol)

>  <smiles>  (42) 
COCCn1c(C(=O)Nc2ccc3c(c2)OCCO3)cc2sccc21

>  <score_type>  (42) 
oracle

>  <origin>  (42) 
adg

>  <m_score__min__energy>  (42) 
-7.1799999999999997

>  <m_primary>  (42) 
energy

$$$$
42:0
     RDKit          3D

 49 52  0  0  0  0  0  0  0  0999 V2000
   64.5220   31.0550   50.8610 C   0  0  0  0  0  0  0  0  0  0  0  0
   63.9170   31.7890   49.7560 N   0  0  0  0  0  0  0  0  0  0  0  0
   64.5410   32.6720   48.9560 C   0  0  0  0  0  0  0  0  0  0  0  0
   63.6330   33.2350   48.0820 C   0  0  0  0  0  0  0  0  0  0  0  0
   62.3980   32.6750   48.3800 C   0  0  0  0  0  0  0  0  0  0  0  0
   61.1050   32.9770   47.7160 C   0  0  0  0  0  0  0  0  0  0  0  0
   60.5790   34.2710   47.7330 C   0  0  0  0  0  0  0  0  0  0  0  0
   59.3580   34.5190   47.1100 C   0  0  0  0  0  0  0  0  0  0  0  0
   58.8950   35.6930   47.1210 O   0  0  0  0  0  0  0  0  0  0  0  0
   58.6720   33.5020   46.4980 N   0  0  0  0  0  0  0  0  0  0  0  0
   57.3750   33.7740   45.8560 C   0  0  0  0  0  0  0  0  0  0  0  0
   59.2240   32.2450   46.4540 C   0  0  0  0  0  0  0  0  0  0  0  0
   58.5650   31.1740   45.7600 N   0  0  0  0  0  0  0  0  0  0  0  0
   57.9890   31.4180   44.4390 C   0  0  0  0  0  0  0  0  0  0  0  0
   57.6780   30.0850   43.7500 C   0  0  0  0  0  0  0  0  0  0  0  0
   56.8960   29.2470   44.5800 O   0  0  0  0  0  0  0  0  0  0  0  0
   57.4860   28.9720   45.8540 C   0  0  1  0  0  0  0  0  0  0  0  0
   57.7710   27.4910   45.9980 C   0  0  0  0  0  0  0  0  0  0  0  0
   59.0920   27.0270   46.1350 C   0  0  0  0  0  0  0  0  0  0  0  0
   59.3510   25.6640   46.3060 C   0  0  0  0  0  0  0  0  0  0  0  0
   58.2950   24.7510   46.3570 C   0  0  0  0  0  0  0  0  0  0  0  0
   56.9780   25.2010   46.2430 C   0  0  0  0  0  0  0  0  0  0  0  0
   56.7110   26.5640   46.0710 C   0  0  0  0  0  0  0  0  0  0  0  0
   55.4200   26.9760   45.9830 F   0  0  0  0  0  0  0  0  0  0  0  0
   58.7460   29.7970   46.2110 C   0  0  0  0  0  0  0  0  0  0  0  0
   60.4120   31.9950   47.0720 N   0  0  0  0  0  0  0  0  0  0  0  0
   62.6110   31.7900   49.4270 C   0  0  0  0  0  0  0  0  0  0  0  0
   64.1742   31.4769   51.8155 H   0  0  0  0  0  0  0  0  0  0  0  0
   64.2311   29.9959   50.8006 H   0  0  0  0  0  0  0  0  0  0  0  0
   65.6172   31.1384   50.8006 H   0  0  0  0  0  0  0  0  0  0  0  0
   65.6143   32.9099   48.9927 H   0  0  0  0  0  0  0  0  0  0  0  0
   63.8461   33.9811   47.3023 H   0  0  0  0  0  0  0  0  0  0  0  0
   61.1233   35.0856   48.2331 H   0  0  0  0  0  0  0  0  0  0  0  0
   56.6095   33.9345   46.6295 H   0  0  0  0  0  0  0  0  0  0  0  0
   57.4576   34.6743   45.2295 H   0  0  0  0  0  0  0  0  0  0  0  0
   57.0890   32.9163   45.2295 H   0  0  0  0  0  0  0  0  0  0  0  0
   57.0604   31.9976   44.5476 H   0  0  0  0  0  0  0  0  0  0  0  0
   58.7102   31.9811   43.8284 H   0  0  0  0  0  0  0  0  0  0  0  0
   57.1263   30.2830   42.8192 H   0  0  0  0  0  0  0  0  0  0  0  0
   58.6287   29.5739   43.5379 H   0  0  0  0  0  0  0  0  0  0  0  0
   56.7269   29.2967   46.5809 H   0  0  0  0  0  0  0  0  0  0  0  0
   59.9274   27.7421   46.1073 H   0  0  0  0  0  0  0  0  0  0  0  0
   60.3881   25.3098   46.4006 H   0  0  0  0  0  0  0  0  0  0  0  0
   58.5007   23.6782   46.4869 H   0  0  0  0  0  0  0  0  0  0  0  0
   56.1472   24.4814   46.2886 H   0  0  0  0  0  0  0  0  0  0  0  0
   58.8972   29.7840   47.3005 H   0  0  0  0  0  0  0  0  0  0  0  0
   59.6254   29.3596   45.7157 H   0  0  0  0  0  0  0  0  0  0  0  0
   60.8030   31.0280   47.0160 H   0  0  0  0  0  0  0  0  0  0  0  0
   61.8333   31.1829   49.9133 H   0  0  0  0  0  0  0  0  0  0  0  0
  1  2  1  0
  2  3  1  0
  3  4  2  0
  4  5  1  0
  5  6  1  0
  6  7  2  0
  7  8  1  0
  8  9  2  0
  8 10  1  0
 10 11  1  0
 10 12  1  0
 12 13  1  0
 13 14  1  0
 14 15  1  0
 15 16  1  0
 16 17  1  0
 17 18  1  0
 18 19  2  0
 19 20  1  0
 20 21  2  0
 21 22  1  0
 22 23  2  0
 23 24  1  0
 17 25  1  0
 12 26  2  0
  5 27  2  0
 27  2  1  0
 26  6  1  0
 25 13  1  0
 23 18  1  0
  1 28  1  0
  1 29  1  0
  1 30  1  0
  3 31  1  0
  4 32  1  0
  7 33  1  0
 11 34  1  0
 11 35  1  0
 11 36  1  0
 14 37  1  0
 14 38  1  0
 15 39  1  0
 15 40  1  0
 17 41  1  1
 19 42  1  0
 20 43  1  0
 21 44  1  0
 22 45  1  0
 25 46  1  0
 25 47  1  0
 26 48  1  0
 27 49  1  0
M  CHG  1  26   1
M  END
>  <UniqueID>  (43) 
39

>  <SMILES>  (43) 
Cn1ccc(-c2cc(=O)n(C)c(N3CCO[C@@H](c4ccccc4F)C3)[nH+]2)c1

>  <Energy>  (43) 
96.56428184574187

>  <Genealogy>  (43) 
Cn1ccc(-c2cc(=O)n(C)c(N3CCOC(c4ccccc4F)C3)[nH+]2)c1 (protonated)
Cn1ccc(-c2cc(=O)n(C)c(N3CCO[C@@H](c4ccccc4F)C3)[nH+]2)c1 (chirality)
Cn1ccc(-c2cc(=O)n(C)c(N3CCO[C@@H](c4ccccc4F)C3)[nH+]2)c1 (3D coordinates assigned)
Cn1ccc(-c2cc(=O)n(C)c(N3CCO[C@@H](c4ccccc4F)C3)[nH+]2)c1 (nonaromatic ring conformer: 96.56428184574187 kcal/mol)

>  <smiles>  (43) 
Cn1ccc(-c2cc(=O)n(C)c(N3CCOC(c4ccccc4F)C3)n2)c1

>  <score_type>  (43) 
oracle

>  <origin>  (43) 
adg

>  <m_score__min__energy>  (43) 
-6.4199999999999999

>  <m_primary>  (43) 
energy

$$$$
43:0
     RDKit          3D

 57 59  0  0  0  0  0  0  0  0999 V2000
   61.7700   30.6700   50.2410 C   0  0  0  0  0  0  0  0  0  0  0  0
   60.9230   29.7940   49.4250 N   0  0  0  0  0  0  0  0  0  0  0  0
   60.2370   28.6620   50.0590 C   0  0  0  0  0  0  0  0  0  0  0  0
   60.8930   30.0100   47.9940 C   0  0  0  0  0  0  0  0  0  0  0  0
   61.8670   30.6010   47.4500 O   0  0  0  0  0  0  0  0  0  0  0  0
   59.7140   29.6500   47.1080 C   0  0  2  0  0  0  0  0  0  0  0  0
   60.0740   29.7340   45.6110 C   0  0  0  0  0  0  0  0  0  0  0  0
   58.8700   29.7440   44.7020 C   0  0  0  0  0  0  0  0  0  0  0  0
   58.3530   30.9510   44.2130 C   0  0  0  0  0  0  0  0  0  0  0  0
   57.2250   30.9440   43.3930 C   0  0  0  0  0  0  0  0  0  0  0  0
   56.6240   29.7270   43.0650 C   0  0  0  0  0  0  0  0  0  0  0  0
   57.1380   28.5610   43.5420 N   0  0  0  0  0  0  0  0  0  0  0  0
   58.2380   28.5440   44.3440 C   0  0  0  0  0  0  0  0  0  0  0  0
   58.5370   30.4570   47.4220 N   0  0  0  0  0  0  0  0  0  0  0  0
   58.5500   31.8420   47.7880 C   0  0  0  0  0  0  0  0  0  0  0  0
   58.5830   32.1530   49.0070 O   0  0  0  0  0  0  0  0  0  0  0  0
   58.4810   32.9100   46.7770 C   0  0  0  0  0  0  0  0  0  0  0  0
   57.2500   33.1730   46.1600 C   0  0  0  0  0  0  0  0  0  0  0  0
   57.1380   34.1910   45.2110 C   0  0  0  0  0  0  0  0  0  0  0  0
   58.2570   34.9500   44.8650 C   0  0  0  0  0  0  0  0  0  0  0  0
   59.4940   34.6880   45.4590 C   0  0  0  0  0  0  0  0  0  0  0  0
   59.6260   33.6600   46.4100 C   0  0  0  0  0  0  0  0  0  0  0  0
   60.9840   33.4140   47.0300 C   0  0  0  0  0  0  0  0  0  0  0  0
   61.1480   34.2120   48.3280 C   0  0  0  0  0  0  0  0  0  0  0  0
   62.4290   33.8410   49.0210 C   0  0  0  0  0  0  0  0  0  0  0  0
   63.3970   33.0670   48.3600 C   0  0  0  0  0  0  0  0  0  0  0  0
   64.5740   32.6980   49.0190 C   0  0  0  0  0  0  0  0  0  0  0  0
   64.7880   33.0920   50.3440 C   0  0  0  0  0  0  0  0  0  0  0  0
   63.8240   33.8510   51.0130 C   0  0  0  0  0  0  0  0  0  0  0  0
   62.6450   34.2210   50.3570 C   0  0  0  0  0  0  0  0  0  0  0  0
   61.5806   30.4742   51.3067 H   0  0  0  0  0  0  0  0  0  0  0  0
   62.8280   30.4721   50.0142 H   0  0  0  0  0  0  0  0  0  0  0  0
   61.5367   31.7208   50.0142 H   0  0  0  0  0  0  0  0  0  0  0  0
   60.2978   28.7623   51.1527 H   0  0  0  0  0  0  0  0  0  0  0  0
   59.1814   28.6531   49.7497 H   0  0  0  0  0  0  0  0  0  0  0  0
   60.7176   27.7221   49.7497 H   0  0  0  0  0  0  0  0  0  0  0  0
   59.4598   28.6014   47.3221 H   0  0  0  0  0  0  0  0  0  0  0  0
   60.6457   30.6584   45.4418 H   0  0  0  0  0  0  0  0  0  0  0  0
   60.6559   28.8329   45.3672 H   0  0  0  0  0  0  0  0  0  0  0  0
   58.8365   31.9035   44.4757 H   0  0  0  0  0  0  0  0  0  0  0  0
   56.8126   31.8884   43.0082 H   0  0  0  0  0  0  0  0  0  0  0  0
   55.7333   29.7109   42.4197 H   0  0  0  0  0  0  0  0  0  0  0  0
   56.6770   27.6590   43.2880 H   0  0  0  0  0  0  0  0  0  0  0  0
   58.6326   27.5857   44.7126 H   0  0  0  0  0  0  0  0  0  0  0  0
   56.3667   32.5735   46.4252 H   0  0  0  0  0  0  0  0  0  0  0  0
   56.1672   34.3950   44.7357 H   0  0  0  0  0  0  0  0  0  0  0  0
   58.1647   35.7565   44.1227 H   0  0  0  0  0  0  0  0  0  0  0  0
   60.3715   35.2902   45.1809 H   0  0  0  0  0  0  0  0  0  0  0  0
   61.0895   32.3417   47.2513 H   0  0  0  0  0  0  0  0  0  0  0  0
   61.7579   33.7388   46.3189 H   0  0  0  0  0  0  0  0  0  0  0  0
   61.1631   35.2863   48.0920 H   0  0  0  0  0  0  0  0  0  0  0  0
   60.3047   33.9797   48.9951 H   0  0  0  0  0  0  0  0  0  0  0  0
   63.2287   32.7500   47.3202 H   0  0  0  0  0  0  0  0  0  0  0  0
   65.3321   32.0974   48.4950 H   0  0  0  0  0  0  0  0  0  0  0  0
   65.7159   32.8041   50.8598 H   0  0  0  0  0  0  0  0  0  0  0  0
   63.9923   34.1577   52.0559 H   0  0  0  0  0  0  0  0  0  0  0  0
   61.8842   34.8114   50.8886 H   0  0  0  0  0  0  0  0  0  0  0  0
  1  2  1  0
  2  3  1  0
  2  4  1  0
  4  5  2  0
  4  6  1  0
  6  7  1  0
  7  8  1  0
  8  9  2  0
  9 10  1  0
 10 11  2  0
 11 12  1  0
 12 13  2  0
  6 14  1  0
 14 15  1  0
 15 16  2  0
 15 17  1  0
 17 18  2  0
 18 19  1  0
 19 20  2  0
 20 21  1  0
 21 22  2  0
 22 23  1  0
 23 24  1  0
 24 25  1  0
 25 26  2  0
 26 27  1  0
 27 28  2  0
 28 29  1  0
 29 30  2  0
 13  8  1  0
 22 17  1  0
 30 25  1  0
  1 31  1  0
  1 32  1  0
  1 33  1  0
  3 34  1  0
  3 35  1  0
  3 36  1  0
  6 37  1  1
  7 38  1  0
  7 39  1  0
  9 40  1  0
 10 41  1  0
 11 42  1  0
 12 43  1  0
 13 44  1  0
 18 45  1  0
 19 46  1  0
 20 47  1  0
 21 48  1  0
 23 49  1  0
 23 50  1  0
 24 51  1  0
 24 52  1  0
 26 53  1  0
 27 54  1  0
 28 55  1  0
 29 56  1  0
 30 57  1  0
M  CHG  2  12   1  14  -1
M  END
>  <UniqueID>  (44) 
40

>  <SMILES>  (44) 
CN(C)C(=O)[C@H](Cc1ccc[nH+]c1)[N-]C(=O)c1ccccc1CCc1ccccc1

>  <Energy>  (44) 
59.78947276095321

>  <Genealogy>  (44) 
CN(C)C(=O)C(Cc1ccc[nH+]c1)[N-]C(=O)c1ccccc1CCc1ccccc1 (protonated)
CN(C)C(=O)[C@H](Cc1ccc[nH+]c1)[N-]C(=O)c1ccccc1CCc1ccccc1 (chirality)
CN(C)C(=O)[C@H](Cc1ccc[nH+]c1)[N-]C(=O)c1ccccc1CCc1ccccc1 (3D coordinates assigned)
CN(C)C(=O)[C@H](Cc1ccc[nH+]c1)[N-]C(=O)c1ccccc1CCc1ccccc1 (optimized conformer: 59.78947276095321 kcal/mol)

>  <smiles>  (44) 
CN(C)C(=O)C(Cc1cccnc1)NC(=O)c1ccccc1CCc1ccccc1

>  <score_type>  (44) 
oracle

>  <origin>  (44) 
adg

>  <m_score__min__energy>  (44) 
-10.01

>  <m_primary>  (44) 
energy

$$$$
44:0
     RDKit          3D

 19 20  0  0  0  0  0  0  0  0999 V2000
   60.2550   30.2500   46.3880 C   0  0  0  0  0  0  0  0  0  0  0  0
   58.9300   29.9190   45.8980 N   0  0  0  0  0  0  0  0  0  0  0  0
   58.1870   30.7860   45.1860 C   0  0  0  0  0  0  0  0  0  0  0  0
   57.0210   30.1940   44.8800 N   0  0  0  0  0  0  0  0  0  0  0  0
   57.0110   28.9490   45.3910 C   0  0  0  0  0  0  0  0  0  0  0  0
   56.0740   27.9630   45.3560 N   0  0  0  0  0  0  0  0  0  0  0  0
   56.4050   26.8200   45.9870 C   0  0  0  0  0  0  0  0  0  0  0  0
   55.5410   25.8470   45.9820 N   0  0  0  0  0  0  0  0  0  0  0  0
   57.5740   26.6320   46.6180 N   0  0  0  0  0  0  0  0  0  0  0  0
   58.5220   27.5930   46.6700 C   0  0  0  0  0  0  0  0  0  0  0  0
   59.6210   27.4410   47.2530 O   0  0  0  0  0  0  0  0  0  0  0  0
   58.2240   28.7810   46.0360 C   0  0  0  0  0  0  0  0  0  0  0  0
   60.2500   30.2488   47.4880 H   0  0  0  0  0  0  0  0  0  0  0  0
   60.9774   29.5047   46.0237 H   0  0  0  0  0  0  0  0  0  0  0  0
   60.5421   31.2475   46.0237 H   0  0  0  0  0  0  0  0  0  0  0  0
   58.4842   31.8065   44.9027 H   0  0  0  0  0  0  0  0  0  0  0  0
   55.1690   28.0840   44.8780 H   0  0  0  0  0  0  0  0  0  0  0  0
   54.5870   25.9820   46.3900 H   0  0  0  0  0  0  0  0  0  0  0  0
   57.8000   25.7290   47.1000 H   0  0  0  0  0  0  0  0  0  0  0  0
  1  2  1  0
  2  3  1  0
  3  4  2  0
  4  5  1  0
  5  6  1  0
  6  7  1  0
  7  8  2  3
  7  9  1  0
  9 10  1  0
 10 11  2  0
 10 12  1  0
 12  2  1  0
 12  5  2  0
  1 13  1  0
  1 14  1  0
  1 15  1  0
  3 16  1  0
  6 17  1  0
  8 18  1  0
  9 19  1  0
M  END
>  <smiles>  (45) 
Cn1cnc2[nH]c(=N)[nH]c(=O)c21

>  <score_type>  (45) 
oracle

>  <origin>  (45) 
adg

>  <m_score__min__energy>  (45) 
-4.6399999999999997

>  <m_primary>  (45) 
energy

$$$$
45:0
     RDKit          3D

 31 32  0  0  0  0  0  0  0  0999 V2000
   59.4279   35.0226   49.5436 H   0  0  0  0  0  0  0  0  0  0  0  0
   59.8210   34.5810   48.6160 C   0  0  0  0  0  0  0  0  0  0  0  0
   59.0210   34.5370   47.4690 C   0  0  0  0  0  0  0  0  0  0  0  0
   58.0022   34.9511   47.4952 H   0  0  0  0  0  0  0  0  0  0  0  0
   59.5140   33.9660   46.2840 C   0  0  0  0  0  0  0  0  0  0  0  0
   58.6670   33.9460   45.0370 C   0  0  0  0  0  0  0  0  0  0  0  0
   59.2787   33.5793   44.1995 H   0  0  0  0  0  0  0  0  0  0  0  0
   58.3108   34.9707   44.8551 H   0  0  0  0  0  0  0  0  0  0  0  0
   57.4550   33.0530   45.1820 C   0  0  0  0  0  0  0  0  0  0  0  0
   56.6280   33.2730   46.1060 O   0  0  0  0  0  0  0  0  0  0  0  0
   57.2040   31.9430   44.3010 N   0  0  0  0  0  0  0  0  0  0  0  0
   57.0110   30.6970   44.6170 C   0  0  0  0  0  0  0  0  0  0  0  0
   55.8020   30.1320   44.8320 N   0  0  0  0  0  0  0  0  0  0  0  0
   55.8780   28.8340   45.1220 N   0  0  0  0  0  0  0  0  0  0  0  0
   57.1440   28.3610   45.1240 C   0  0  0  0  0  0  0  0  0  0  0  0
   57.5000   26.9520   45.4770 C   0  0  0  0  0  0  0  0  0  0  0  0
   58.5102   26.9319   45.9118 H   0  0  0  0  0  0  0  0  0  0  0  0
   57.4675   26.3376   44.5652 H   0  0  0  0  0  0  0  0  0  0  0  0
   56.5040   26.3860   46.4910 C   0  0  0  0  0  0  0  0  0  0  0  0
   56.6140   26.9204   47.4462 H   0  0  0  0  0  0  0  0  0  0  0  0
   56.7073   25.3147   46.6358 H   0  0  0  0  0  0  0  0  0  0  0  0
   55.1400   26.5510   46.0000 N   0  0  0  0  0  0  0  0  0  0  0  0
   55.1870   26.6590   44.9610 H   0  0  0  0  0  0  0  0  0  0  0  0
   54.7650   27.4530   46.3750 H   0  0  0  0  0  0  0  0  0  0  0  0
   58.2580   29.5790   44.7750 S   0  0  0  0  0  0  0  0  0  0  0  0
   60.8250   33.4600   46.2570 C   0  0  0  0  0  0  0  0  0  0  0  0
   61.2259   33.0256   45.3294 H   0  0  0  0  0  0  0  0  0  0  0  0
   61.6210   33.5070   47.4050 C   0  0  0  0  0  0  0  0  0  0  0  0
   62.6444   33.1044   47.3800 H   0  0  0  0  0  0  0  0  0  0  0  0
   61.1200   34.0640   48.5840 C   0  0  0  0  0  0  0  0  0  0  0  0
   61.8940   34.1100   49.6970 F   0  0  0  0  0  0  0  0  0  0  0  0
  1  2  1  0
  2  3  2  0
  3  4  1  0
  3  5  1  0
  5  6  1  0
  6  7  1  0
  6  8  1  0
  6  9  1  0
  9 10  2  0
  9 11  1  0
 11 12  2  0
 12 13  1  0
 13 14  1  0
 14 15  2  0
 15 16  1  0
 16 17  1  0
 16 18  1  0
 16 19  1  0
 19 20  1  0
 19 21  1  0
 19 22  1  0
 22 23  1  0
 22 24  1  0
 15 25  1  0
  5 26  2  0
 26 27  1  0
 26 28  1  0
 28 29  1  0
 28 30  2  0
 30 31  1  0
 30  2  1  0
 25 12  1  0
M  CHG  1  13  -1
M  END
>  <UniqueID>  (46) 
41

>  <SMILES>  (46) 
NCCc1n[n-]/c(=N\C(=O)Cc2ccc(F)cc2)s1

>  <Energy>  (46) 
64.19577290336875

>  <Genealogy>  (46) 
NCCc1n[n-]c(=NC(=O)Cc2ccc(F)cc2)s1 (protonated)
NCCc1n[n-]/c(=N\C(=O)Cc2ccc(F)cc2)s1 (cis-trans isomerization)
NCCc1n[n-]/c(=N\C(=O)Cc2ccc(F)cc2)s1 (3D coordinates assigned)
NCCc1n[n-]/c(=N\C(=O)Cc2ccc(F)cc2)s1 (optimized conformer: 64.19577290336875 kcal/mol)

>  <smiles>  (46) 
NCCc1n[nH]c(=NC(=O)Cc2ccc(F)cc2)s1

>  <score_type>  (46) 
oracle

>  <origin>  (46) 
adg

>  <m_score__min__energy>  (46) 
-10.09

>  <m_primary>  (46) 
energy

$$$$
46:0
     RDKit          3D

 37 38  0  0  0  0  0  0  0  0999 V2000
   58.1560   32.6590   42.8430 C   0  0  0  0  0  0  0  0  0  0  0  0
   57.3950   32.6410   44.1730 C   0  0  2  0  0  0  0  0  0  0  0  0
   57.4320   34.0150   44.8710 C   0  0  0  0  0  0  0  0  0  0  0  0
   58.8170   34.3620   45.4410 C   0  0  0  0  0  0  0  0  0  0  0  0
   59.5870   33.1470   45.9950 C   0  0  0  0  0  0  0  0  0  0  0  0
   58.6780   31.9370   46.2740 C   0  0  2  0  0  0  0  0  0  0  0  0
   59.5260   30.7700   46.8100 C   0  0  0  0  0  0  0  0  0  0  0  0
   57.9310   31.5820   45.0470 N   0  0  0  0  0  0  0  0  0  0  0  0
   57.4450   30.2450   44.8450 C   0  0  0  0  0  0  0  0  0  0  0  0
   56.2780   29.9450   45.2160 O   0  0  0  0  0  0  0  0  0  0  0  0
   58.2630   29.2880   44.1580 N   0  0  0  0  0  0  0  0  0  0  0  0
   58.0110   27.8720   44.1470 C   0  0  0  0  0  0  0  0  0  0  0  0
   57.6700   27.2250   45.3450 C   0  0  0  0  0  0  0  0  0  0  0  0
   57.3980   25.8540   45.3560 C   0  0  0  0  0  0  0  0  0  0  0  0
   57.4510   25.1200   44.1690 C   0  0  0  0  0  0  0  0  0  0  0  0
   57.7670   25.7590   42.9670 C   0  0  0  0  0  0  0  0  0  0  0  0
   58.0410   27.1300   42.9520 C   0  0  0  0  0  0  0  0  0  0  0  0
   59.2379   32.6846   43.0399 H   0  0  0  0  0  0  0  0  0  0  0  0
   57.9094   31.7548   42.2672 H   0  0  0  0  0  0  0  0  0  0  0  0
   57.8669   33.5506   42.2672 H   0  0  0  0  0  0  0  0  0  0  0  0
   56.3385   32.4204   43.9605 H   0  0  0  0  0  0  0  0  0  0  0  0
   57.1502   34.7872   44.1400 H   0  0  0  0  0  0  0  0  0  0  0  0
   56.7292   33.9738   45.7162 H   0  0  0  0  0  0  0  0  0  0  0  0
   59.4176   34.8163   44.6392 H   0  0  0  0  0  0  0  0  0  0  0  0
   58.6521   35.0474   46.2854 H   0  0  0  0  0  0  0  0  0  0  0  0
   60.3500   32.8505   45.2602 H   0  0  0  0  0  0  0  0  0  0  0  0
   60.0358   33.4498   46.9525 H   0  0  0  0  0  0  0  0  0  0  0  0
   57.9350   32.1843   47.0465 H   0  0  0  0  0  0  0  0  0  0  0  0
   59.5157   30.7842   47.9099 H   0  0  0  0  0  0  0  0  0  0  0  0
   59.1076   29.8179   46.4516 H   0  0  0  0  0  0  0  0  0  0  0  0
   60.5608   30.8738   46.4516 H   0  0  0  0  0  0  0  0  0  0  0  0
   59.0490   29.6560   43.5760 H   0  0  0  0  0  0  0  0  0  0  0  0
   57.6165   27.8004   46.2810 H   0  0  0  0  0  0  0  0  0  0  0  0
   57.1418   25.3525   46.3009 H   0  0  0  0  0  0  0  0  0  0  0  0
   57.2442   24.0397   44.1802 H   0  0  0  0  0  0  0  0  0  0  0  0
   57.8002   25.1823   42.0309 H   0  0  0  0  0  0  0  0  0  0  0  0
   58.2809   27.6304   42.0023 H   0  0  0  0  0  0  0  0  0  0  0  0
  1  2  1  0
  2  3  1  0
  3  4  1  0
  4  5  1  0
  5  6  1  0
  6  7  1  0
  6  8  1  0
  8  9  1  0
  9 10  2  0
  9 11  1  0
 11 12  1  0
 12 13  2  0
 13 14  1  0
 14 15  2  0
 15 16  1  0
 16 17  2  0
  8  2  1  0
 17 12  1  0
  1 18  1  0
  1 19  1  0
  1 20  1  0
  2 21  1  6
  3 22  1  0
  3 23  1  0
  4 24  1  0
  4 25  1  0
  5 26  1  0
  5 27  1  0
  6 28  1  1
  7 29  1  0
  7 30  1  0
  7 31  1  0
 11 32  1  0
 13 33  1  0
 14 34  1  0
 15 35  1  0
 16 36  1  0
 17 37  1  0
M  END
>  <UniqueID>  (47) 
42

>  <SMILES>  (47) 
C[C@@H]1CCC[C@H](C)N1C(=O)Nc1ccccc1

>  <Energy>  (47) 
44.1121141950256

>  <Genealogy>  (47) 
C[C@@H]1CCC[C@H](C)N1C(=O)Nc1ccccc1 (chirality)
C[C@@H]1CCC[C@H](C)N1C(=O)Nc1ccccc1 (3D coordinates assigned)
C[C@@H]1CCC[C@H](C)N1C(=O)Nc1ccccc1 (nonaromatic ring conformer: 44.1121141950256 kcal/mol)

>  <smiles>  (47) 
CC1CCCC(C)N1C(=O)Nc1ccccc1

>  <score_type>  (47) 
oracle

>  <origin>  (47) 
adg

>  <m_score__min__energy>  (47) 
-6.9000000000000004

>  <m_primary>  (47) 
energy

$$$$
47:0
     RDKit          3D

 53 57  0  0  0  0  0  0  0  0999 V2000
   63.2450   31.6140   47.4290 C   0  0  0  0  0  0  0  0  0  0  0  0
   62.9360   33.0890   47.6690 C   0  0  0  0  0  0  0  0  0  0  0  0
   63.1620   33.8930   46.3850 C   0  0  0  0  0  0  0  0  0  0  0  0
   61.5770   33.2070   48.0940 O   0  0  0  0  0  0  0  0  0  0  0  0
   60.4560   33.2840   47.2500 C   0  0  0  0  0  0  0  0  0  0  0  0
   59.9530   34.5180   46.7490 C   0  0  0  0  0  0  0  0  0  0  0  0
   58.8080   34.5460   45.9300 C   0  0  0  0  0  0  0  0  0  0  0  0
   58.1940   33.3360   45.6290 C   0  0  0  0  0  0  0  0  0  0  0  0
   57.0920   33.1440   44.8850 N   0  0  0  0  0  0  0  0  0  0  0  0
   56.8530   31.8370   44.8640 N   0  0  0  0  0  0  0  0  0  0  0  0
   57.8000   31.1970   45.5910 C   0  0  0  0  0  0  0  0  0  0  0  0
   57.8420   29.7290   45.7740 C   0  0  0  0  0  0  0  0  0  0  0  0
   57.3550   28.8730   44.7740 C   0  0  0  0  0  0  0  0  0  0  0  0
   57.4050   27.4910   44.9660 C   0  0  0  0  0  0  0  0  0  0  0  0
   57.9460   26.9650   46.1440 C   0  0  0  0  0  0  0  0  0  0  0  0
   58.0040   25.5430   46.3470 N   0  0  0  0  0  0  0  0  0  0  0  0
   57.2790   24.9440   47.4870 C   0  0  0  0  0  0  0  0  0  0  0  0
   56.5660   23.6450   47.0700 C   0  0  0  0  0  0  0  0  0  0  0  0
   57.4850   22.8050   46.2360 C   0  0  0  0  0  0  0  0  0  0  0  0
   58.5460   23.3210   45.5350 C   0  0  0  0  0  0  0  0  0  0  0  0
   59.0780   22.2570   44.8340 C   0  0  0  0  0  0  0  0  0  0  0  0
   58.3380   21.1600   45.1060 N   0  0  0  0  0  0  0  0  0  0  0  0
   57.3750   21.4920   45.9560 N   0  0  0  0  0  0  0  0  0  0  0  0
   56.3470   20.5720   46.4370 C   0  0  0  0  0  0  0  0  0  0  0  0
   58.9950   24.7420   45.6070 C   0  0  0  0  0  0  0  0  0  0  0  0
   58.4340   27.8520   47.1150 C   0  0  0  0  0  0  0  0  0  0  0  0
   58.3680   29.1940   46.9090 N   0  0  0  0  0  0  0  0  0  0  0  0
   58.6730   32.1460   46.0940 C   0  0  0  0  0  0  0  0  0  0  0  0
   59.8060   32.0800   46.9090 C   0  0  0  0  0  0  0  0  0  0  0  0
   63.3527   31.1000   48.3955 H   0  0  0  0  0  0  0  0  0  0  0  0
   62.4235   31.1553   46.8592 H   0  0  0  0  0  0  0  0  0  0  0  0
   64.1816   31.5236   46.8592 H   0  0  0  0  0  0  0  0  0  0  0  0
   63.6048   33.4885   48.4456 H   0  0  0  0  0  0  0  0  0  0  0  0
   63.4514   34.9224   46.6431 H   0  0  0  0  0  0  0  0  0  0  0  0
   63.9631   33.4240   45.7949 H   0  0  0  0  0  0  0  0  0  0  0  0
   62.2338   33.9100   45.7949 H   0  0  0  0  0  0  0  0  0  0  0  0
   60.4636   35.4583   47.0041 H   0  0  0  0  0  0  0  0  0  0  0  0
   58.4120   35.4955   45.5407 H   0  0  0  0  0  0  0  0  0  0  0  0
   56.9367   29.2882   43.8452 H   0  0  0  0  0  0  0  0  0  0  0  0
   57.0183   26.8145   44.1896 H   0  0  0  0  0  0  0  0  0  0  0  0
   57.9961   24.7183   48.2900 H   0  0  0  0  0  0  0  0  0  0  0  0
   56.5216   25.6618   47.8351 H   0  0  0  0  0  0  0  0  0  0  0  0
   56.2746   23.0836   47.9700 H   0  0  0  0  0  0  0  0  0  0  0  0
   55.6705   23.8955   46.4824 H   0  0  0  0  0  0  0  0  0  0  0  0
   59.9533   22.2959   44.1689 H   0  0  0  0  0  0  0  0  0  0  0  0
   58.5000   20.1990   44.7290 H   0  0  0  0  0  0  0  0  0  0  0  0
   56.3434   20.5688   47.5370 H   0  0  0  0  0  0  0  0  0  0  0  0
   55.3628   20.8965   46.0681 H   0  0  0  0  0  0  0  0  0  0  0  0
   56.5607   19.5580   46.0681 H   0  0  0  0  0  0  0  0  0  0  0  0
   59.9646   24.7926   46.1240 H   0  0  0  0  0  0  0  0  0  0  0  0
   59.0965   25.1423   44.5875 H   0  0  0  0  0  0  0  0  0  0  0  0
   58.8712   27.4606   48.0454 H   0  0  0  0  0  0  0  0  0  0  0  0
   60.1815   31.1132   47.2754 H   0  0  0  0  0  0  0  0  0  0  0  0
  1  2  1  0
  2  3  1  0
  2  4  1  0
  4  5  1  0
  5  6  2  0
  6  7  1  0
  7  8  2  0
  8  9  1  0
  9 10  1  0
 10 11  2  0
 11 12  1  0
 12 13  2  0
 13 14  1  0
 14 15  2  0
 15 16  1  0
 16 17  1  0
 17 18  1  0
 18 19  1  0
 19 20  2  0
 20 21  1  0
 21 22  2  0
 22 23  1  0
 23 24  1  0
 20 25  1  0
 15 26  1  0
 26 27  2  0
 11 28  1  0
 28 29  2  0
 29  5  1  0
 28  8  1  0
 27 12  1  0
 25 16  1  0
 23 19  1  0
  1 30  1  0
  1 31  1  0
  1 32  1  0
  2 33  1  0
  3 34  1  0
  3 35  1  0
  3 36  1  0
  6 37  1  0
  7 38  1  0
 13 39  1  0
 14 40  1  0
 17 41  1  0
 17 42  1  0
 18 43  1  0
 18 44  1  0
 21 45  1  0
 22 46  1  0
 24 47  1  0
 24 48  1  0
 24 49  1  0
 25 50  1  0
 25 51  1  0
 26 52  1  0
 29 53  1  0
M  CHG  2   9  -1  22   1
M  END
>  <UniqueID>  (48) 
43

>  <SMILES>  (48) 
CC(C)Oc1ccc2[n-]nc(-c3ccc(N4CCc5c(c[nH+]n5C)C4)cn3)c2c1

>  <Energy>  (48) 
131.9582158738471

>  <Genealogy>  (48) 
CC(C)Oc1ccc2[n-]nc(-c3ccc(N4CCc5c(c[nH+]n5C)C4)cn3)c2c1 (protonated)
CC(C)Oc1ccc2[n-]nc(-c3ccc(N4CCc5c(c[nH+]n5C)C4)cn3)c2c1 (3D coordinates assigned)
CC(C)Oc1ccc2[n-]nc(-c3ccc(N4CCc5c(c[nH+]n5C)C4)cn3)c2c1 (nonaromatic ring conformer: 131.9582158738471 kcal/mol)

>  <smiles>  (48) 
CC(C)Oc1ccc2[nH]nc(-c3ccc(N4CCc5c(cnn5C)C4)cn3)c2c1

>  <score_type>  (48) 
oracle

>  <origin>  (48) 
adg

>  <m_score__min__energy>  (48) 
-9.1400000000000006

>  <m_primary>  (48) 
energy

$$$$
