0:0
     RDKit          3D

 55 58  0  0  0  0  0  0  0  0999 V2000
   60.2620   30.2930   52.4730 C   0  0  0  0  0  0  0  0  0  0  0  0
   60.1040   30.1310   51.0220 N   0  0  0  0  0  0  0  0  0  0  0  0
   61.1890   30.2750   50.2050 C   0  0  0  0  0  0  0  0  0  0  0  0
   61.0650   30.1470   48.8210 C   0  0  0  0  0  0  0  0  0  0  0  0
   59.8200   29.8220   48.2560 C   0  0  0  0  0  0  0  0  0  0  0  0
   59.5810   29.8140   46.7540 C   0  0  1  0  0  0  0  0  0  0  0  0
   59.3250   28.3480   46.3130 C   0  0  0  0  0  0  0  0  0  0  0  0
   58.5410   28.2450   44.9970 C   0  0  0  0  0  0  0  0  0  0  0  0
   58.8500   29.3860   44.1380 N   0  0  0  0  0  0  0  0  0  0  0  0
   58.3030   30.6380   44.6900 C   0  0  0  0  0  0  0  0  0  0  0  0
   58.4440   30.7440   46.2420 C   0  0  2  0  0  0  0  0  0  0  0  0
   58.5750   32.1940   46.7160 C   0  0  0  0  0  0  0  0  0  0  0  0
   57.7680   32.6110   47.5370 O   0  0  0  0  0  0  0  0  0  0  0  0
   59.6030   33.0880   46.1920 N   0  0  2  0  0  0  0  0  0  0  0  0
   60.0760   34.0770   47.1940 C   0  0  0  0  0  0  0  0  0  0  0  0
   61.4860   33.8200   47.6860 C   0  0  0  0  0  0  0  0  0  0  0  0
   62.5110   33.6430   46.7390 C   0  0  0  0  0  0  0  0  0  0  0  0
   63.7830   33.2360   47.1390 C   0  0  0  0  0  0  0  0  0  0  0  0
   64.0590   33.0290   48.4900 C   0  0  0  0  0  0  0  0  0  0  0  0
   63.0680   33.2400   49.4520 C   0  0  0  0  0  0  0  0  0  0  0  0
   63.4770   32.9960   51.1450 Cl  0  0  0  0  0  0  0  0  0  0  0  0
   61.7720   33.6270   49.0580 C   0  0  0  0  0  0  0  0  0  0  0  0
   60.5130   33.8030   50.2840 Cl  0  0  0  0  0  0  0  0  0  0  0  0
   59.2290   33.8090   44.9370 C   0  0  0  0  0  0  0  0  0  0  0  0
   57.9110   34.5880   44.8560 C   0  0  0  0  0  0  0  0  0  0  0  0
   59.2210   35.3370   45.0190 C   0  0  0  0  0  0  0  0  0  0  0  0
   58.7140   29.7100   49.1100 C   0  0  0  0  0  0  0  0  0  0  0  0
   58.8660   29.8820   50.4890 C   0  0  0  0  0  0  0  0  0  0  0  0
   57.8500   29.8020   51.2330 O   0  0  0  0  0  0  0  0  0  0  0  0
   59.5860   29.5999   52.9951 H   0  0  0  0  0  0  0  0  0  0  0  0
   61.3022   30.0731   52.7554 H   0  0  0  0  0  0  0  0  0  0  0  0
   60.0162   31.3273   52.7554 H   0  0  0  0  0  0  0  0  0  0  0  0
   62.1735   30.4948   50.6437 H   0  0  0  0  0  0  0  0  0  0  0  0
   61.9406   30.3003   48.1731 H   0  0  0  0  0  0  0  0  0  0  0  0
   60.4882   30.2332   46.2943 H   0  0  0  0  0  0  0  0  0  0  0  0
   60.2954   27.8467   46.1829 H   0  0  0  0  0  0  0  0  0  0  0  0
   58.7175   27.8705   47.0959 H   0  0  0  0  0  0  0  0  0  0  0  0
   58.8186   27.3146   44.4800 H   0  0  0  0  0  0  0  0  0  0  0  0
   57.4636   28.2427   45.2189 H   0  0  0  0  0  0  0  0  0  0  0  0
   58.4070   29.2210   43.2040 H   0  0  0  0  0  0  0  0  0  0  0  0
   58.8373   31.4838   44.2325 H   0  0  0  0  0  0  0  0  0  0  0  0
   57.2276   30.6527   44.4593 H   0  0  0  0  0  0  0  0  0  0  0  0
   57.5106   30.3824   46.6981 H   0  0  0  0  0  0  0  0  0  0  0  0
   60.4240   32.4960   45.9380 H   0  0  0  0  0  0  0  0  0  0  0  0
   60.0448   35.0768   46.7364 H   0  0  0  0  0  0  0  0  0  0  0  0
   59.4112   33.9934   48.0664 H   0  0  0  0  0  0  0  0  0  0  0  0
   62.3072   33.8273   45.6739 H   0  0  0  0  0  0  0  0  0  0  0  0
   64.5704   33.0779   46.3874 H   0  0  0  0  0  0  0  0  0  0  0  0
   65.0613   32.6981   48.7997 H   0  0  0  0  0  0  0  0  0  0  0  0
   59.6920   33.0375   44.3042 H   0  0  0  0  0  0  0  0  0  0  0  0
   57.3621   34.6417   43.9042 H   0  0  0  0  0  0  0  0  0  0  0  0
   56.9581   34.5614   45.4049 H   0  0  0  0  0  0  0  0  0  0  0  0
   59.6196   35.9335   44.1852 H   0  0  0  0  0  0  0  0  0  0  0  0
   59.6072   36.0772   45.7352 H   0  0  0  0  0  0  0  0  0  0  0  0
   57.7212   29.4856   48.6928 H   0  0  0  0  0  0  0  0  0  0  0  0
  1  2  1  0
  2  3  1  0
  3  4  2  0
  4  5  1  0
  5  6  1  0
  6  7  1  0
  7  8  1  0
  8  9  1  0
  9 10  1  0
 10 11  1  0
 11 12  1  0
 12 13  2  0
 12 14  1  0
 14 15  1  0
 15 16  1  0
 16 17  2  0
 17 18  1  0
 18 19  2  0
 19 20  1  0
 20 21  1  0
 20 22  2  0
 22 23  1  0
 14 24  1  0
 24 25  1  0
 25 26  1  0
  5 27  2  0
 27 28  1  0
 28 29  2  0
 28  2  1  0
 11  6  1  0
 22 16  1  0
 26 24  1  0
  1 30  1  0
  1 31  1  0
  1 32  1  0
  3 33  1  0
  4 34  1  0
  6 35  1  6
  7 36  1  0
  7 37  1  0
  8 38  1  0
  8 39  1  0
  9 40  1  0
 10 41  1  0
 10 42  1  0
 11 43  1  1
 14 44  1  6
 15 45  1  0
 15 46  1  0
 17 47  1  0
 18 48  1  0
 19 49  1  0
 24 50  1  0
 25 51  1  0
 25 52  1  0
 26 53  1  0
 26 54  1  0
 27 55  1  0
M  CHG  1  14   1
M  END
>  <UniqueID>  (1) 
1

>  <SMILES>  (1) 
Cn1ccc([C@H]2CCNC[C@@H]2C(=O)[NH+](Cc2cccc(Cl)c2Cl)C2CC2)cc1=O

>  <Energy>  (1) 
343.03276982930106

>  <Genealogy>  (1) 
Cn1ccc(C2CCNCC2C(=O)[NH+](Cc2cccc(Cl)c2Cl)C2CC2)cc1=O (protonated)
Cn1ccc([C@H]2CCNC[C@@H]2C(=O)[NH+](Cc2cccc(Cl)c2Cl)C2CC2)cc1=O (chirality)
Cn1ccc([C@H]2CCNC[C@@H]2C(=O)[NH+](Cc2cccc(Cl)c2Cl)C2CC2)cc1=O (3D coordinates assigned)
Cn1ccc([C@H]2CCNC[C@@H]2C(=O)[NH+](Cc2cccc(Cl)c2Cl)C2CC2)cc1=O (nonaromatic ring conformer: 343.03276982930106 kcal/mol)

>  <smiles>  (1) 
Cn1ccc(C2CCNCC2C(=O)N(Cc2cccc(Cl)c2Cl)C2CC2)cc1=O

>  <score_type>  (1) 
oracle

>  <origin>  (1) 
adg

>  <m_score__min__energy>  (1) 
-7.5599999999999996

>  <m_primary>  (1) 
energy

$$$$
1:0
     RDKit          3D

 62 64  0  0  0  0  0  0  0  0999 V2000
   58.7030   34.6740   44.8560 C   0  0  0  0  0  0  0  0  0  0  0  0
   57.9450   34.1830   46.0840 C   0  0  0  0  0  0  0  0  0  0  0  0
   58.6300   33.0300   46.6830 N   0  0  0  0  0  0  0  0  0  0  0  0
   59.3340   33.1660   47.9680 C   0  0  0  0  0  0  0  0  0  0  0  0
   60.5440   34.0980   47.8120 C   0  0  0  0  0  0  0  0  0  0  0  0
   61.3630   33.8430   46.5340 C   0  0  0  0  0  0  0  0  0  0  0  0
   62.8840   33.6880   46.7400 C   0  0  0  0  0  0  0  0  0  0  0  0
   63.3290   32.5090   47.6290 C   0  0  0  0  0  0  0  0  0  0  0  0
   63.2590   32.7880   49.1430 C   0  0  0  0  0  0  0  0  0  0  0  0
   62.7730   31.6420   49.9190 N   0  0  0  0  0  0  0  0  0  0  0  0
   61.4050   31.1850   50.0190 C   0  0  0  0  0  0  0  0  0  0  0  0
   61.0390   30.0560   49.2720 C   0  0  0  0  0  0  0  0  0  0  0  0
   59.7290   29.5810   49.2620 C   0  0  0  0  0  0  0  0  0  0  0  0
   59.4420   28.4540   48.4780 O   0  0  0  0  0  0  0  0  0  0  0  0
   60.3740   27.4220   48.1740 C   0  0  0  0  0  0  0  0  0  0  0  0
   58.7500   30.2390   50.0230 C   0  0  0  0  0  0  0  0  0  0  0  0
   59.0840   31.3580   50.8100 C   0  0  0  0  0  0  0  0  0  0  0  0
   58.1210   32.0330   51.6040 C   0  0  0  0  0  0  0  0  0  0  0  0
   56.6740   31.6070   51.6430 C   0  0  0  0  0  0  0  0  0  0  0  0
   58.5250   33.1220   52.3880 C   0  0  0  0  0  0  0  0  0  0  0  0
   59.8560   33.5270   52.3810 C   0  0  0  0  0  0  0  0  0  0  0  0
   60.7610   32.8770   51.6100 N   0  0  0  0  0  0  0  0  0  0  0  0
   60.4270   31.8240   50.8170 C   0  0  0  0  0  0  0  0  0  0  0  0
   58.5560   31.7400   46.0430 C   0  0  0  0  0  0  0  0  0  0  0  0
   59.6050   30.8170   46.1840 C   0  0  0  0  0  0  0  0  0  0  0  0
   59.5440   29.5780   45.5430 C   0  0  0  0  0  0  0  0  0  0  0  0
   58.4400   29.2470   44.7510 C   0  0  0  0  0  0  0  0  0  0  0  0
   58.4030   27.6810   43.9530 Cl  0  0  0  0  0  0  0  0  0  0  0  0
   57.3880   30.1670   44.6000 C   0  0  0  0  0  0  0  0  0  0  0  0
   55.9840   29.7930   43.6110 Cl  0  0  0  0  0  0  0  0  0  0  0  0
   57.4520   31.4090   45.2420 C   0  0  0  0  0  0  0  0  0  0  0  0
   59.5865   35.2463   45.1751 H   0  0  0  0  0  0  0  0  0  0  0  0
   59.0230   33.8112   44.2534 H   0  0  0  0  0  0  0  0  0  0  0  0
   58.0464   35.3188   44.2534 H   0  0  0  0  0  0  0  0  0  0  0  0
   57.8887   34.9952   46.8237 H   0  0  0  0  0  0  0  0  0  0  0  0
   56.9331   33.8775   45.7795 H   0  0  0  0  0  0  0  0  0  0  0  0
   58.6461   33.5855   48.7169 H   0  0  0  0  0  0  0  0  0  0  0  0
   59.6832   32.1749   48.2933 H   0  0  0  0  0  0  0  0  0  0  0  0
   60.1816   35.1364   47.7904 H   0  0  0  0  0  0  0  0  0  0  0  0
   61.2111   33.9029   48.6646 H   0  0  0  0  0  0  0  0  0  0  0  0
   60.9879   32.9189   46.0698 H   0  0  0  0  0  0  0  0  0  0  0  0
   61.2326   34.7381   45.9080 H   0  0  0  0  0  0  0  0  0  0  0  0
   63.3460   33.5565   45.7504 H   0  0  0  0  0  0  0  0  0  0  0  0
   63.2057   34.5968   47.2697 H   0  0  0  0  0  0  0  0  0  0  0  0
   62.6807   31.6483   47.4080 H   0  0  0  0  0  0  0  0  0  0  0  0
   64.3872   32.3221   47.3940 H   0  0  0  0  0  0  0  0  0  0  0  0
   64.2672   33.0483   49.4977 H   0  0  0  0  0  0  0  0  0  0  0  0
   62.5440   33.6107   49.2915 H   0  0  0  0  0  0  0  0  0  0  0  0
   63.5120   31.0370   50.3440 H   0  0  0  0  0  0  0  0  0  0  0  0
   61.8043   29.5329   48.6798 H   0  0  0  0  0  0  0  0  0  0  0  0
   60.7625   26.9918   49.1089 H   0  0  0  0  0  0  0  0  0  0  0  0
   59.8733   26.6364   47.5891 H   0  0  0  0  0  0  0  0  0  0  0  0
   61.2064   27.8403   47.5891 H   0  0  0  0  0  0  0  0  0  0  0  0
   57.7115   29.8769   50.0044 H   0  0  0  0  0  0  0  0  0  0  0  0
   56.3481   31.5111   52.6892 H   0  0  0  0  0  0  0  0  0  0  0  0
   56.0559   32.3613   51.1341 H   0  0  0  0  0  0  0  0  0  0  0  0
   56.5632   30.6381   51.1341 H   0  0  0  0  0  0  0  0  0  0  0  0
   57.7904   33.6562   53.0084 H   0  0  0  0  0  0  0  0  0  0  0  0
   60.1743   34.3768   53.0027 H   0  0  0  0  0  0  0  0  0  0  0  0
   60.4786   31.0712   46.8022 H   0  0  0  0  0  0  0  0  0  0  0  0
   60.3681   28.8591   45.6615 H   0  0  0  0  0  0  0  0  0  0  0  0
   56.6313   32.1308   45.1179 H   0  0  0  0  0  0  0  0  0  0  0  0
  1  2  1  0
  2  3  1  0
  3  4  1  0
  4  5  1  0
  5  6  1  0
  6  7  1  0
  7  8  1  0
  8  9  1  0
  9 10  1  0
 10 11  1  0
 11 12  2  0
 12 13  1  0
 13 14  1  0
 14 15  1  0
 13 16  2  0
 16 17  1  0
 17 18  2  0
 18 19  1  0
 18 20  1  0
 20 21  2  0
 21 22  1  0
 22 23  2  0
  3 24  1  0
 24 25  2  0
 25 26  1  0
 26 27  2  0
 27 28  1  0
 27 29  1  0
 29 30  1  0
 29 31  2  0
 23 11  1  0
 31 24  1  0
 23 17  1  0
  1 32  1  0
  1 33  1  0
  1 34  1  0
  2 35  1  0
  2 36  1  0
  4 37  1  0
  4 38  1  0
  5 39  1  0
  5 40  1  0
  6 41  1  0
  6 42  1  0
  7 43  1  0
  7 44  1  0
  8 45  1  0
  8 46  1  0
  9 47  1  0
  9 48  1  0
 10 49  1  0
 12 50  1  0
 15 51  1  0
 15 52  1  0
 15 53  1  0
 16 54  1  0
 19 55  1  0
 19 56  1  0
 19 57  1  0
 20 58  1  0
 21 59  1  0
 25 60  1  0
 26 61  1  0
 31 62  1  0
M  END
>  <UniqueID>  (2) 
2

>  <SMILES>  (2) 
CCN(CCCCCCNc1cc(OC)cc2c(C)ccnc12)c1ccc(Cl)c(Cl)c1

>  <Energy>  (2) 
60.77857452241082

>  <Genealogy>  (2) 
CCN(CCCCCCNc1cc(OC)cc2c(C)ccnc12)c1ccc(Cl)c(Cl)c1 (3D coordinates assigned)
CCN(CCCCCCNc1cc(OC)cc2c(C)ccnc12)c1ccc(Cl)c(Cl)c1 (optimized conformer: 60.77857452241082 kcal/mol)

>  <smiles>  (2) 
CCN(CCCCCCNc1cc(OC)cc2c(C)ccnc12)c1ccc(Cl)c(Cl)c1

>  <score_type>  (2) 
oracle

>  <origin>  (2) 
adg

>  <m_score__min__energy>  (2) 
-8.6699999999999999

>  <m_primary>  (2) 
energy

$$$$
2:0
     RDKit          3D

 38 39  0  0  0  0  0  0  0  0999 V2000
   59.2300   35.7110   49.1550 H   0  0  0  0  0  0  0  0  0  0  0  0
   59.4640   34.7490   49.0980 O   0  0  0  0  0  0  0  0  0  0  0  0
   60.2750   34.5870   47.6340 S   0  0  0  0  0  0  0  0  0  0  0  0
   59.2830   33.7630   46.4450 C   0  0  0  0  0  0  0  0  0  0  0  0
   58.5320   32.6400   46.8090 C   0  0  0  0  0  0  0  0  0  0  0  0
   58.5316   32.2952   47.8536 H   0  0  0  0  0  0  0  0  0  0  0  0
   57.7820   31.9550   45.8480 C   0  0  0  0  0  0  0  0  0  0  0  0
   57.1772   31.0846   46.1422 H   0  0  0  0  0  0  0  0  0  0  0  0
   57.7990   32.3750   44.5100 C   0  0  0  0  0  0  0  0  0  0  0  0
   57.0690   31.5890   43.4950 C   0  0  0  0  0  0  0  0  0  0  0  0
   56.5051   32.1423   42.7296 H   0  0  0  0  0  0  0  0  0  0  0  0
   57.0440   30.2460   43.4390 C   0  0  0  0  0  0  0  0  0  0  0  0
   57.3195   29.7754   42.4837 H   0  0  0  0  0  0  0  0  0  0  0  0
   56.6760   29.3480   44.5580 C   0  0  0  0  0  0  0  0  0  0  0  0
   55.4600   29.2670   44.8790 O   0  0  0  0  0  0  0  0  0  0  0  0
   57.6770   28.5760   45.3330 C   0  0  0  0  0  0  0  0  0  0  0  0
   57.2850   27.5040   46.1540 C   0  0  0  0  0  0  0  0  0  0  0  0
   56.2295   27.1958   46.1839 H   0  0  0  0  0  0  0  0  0  0  0  0
   58.2280   26.8280   46.9320 C   0  0  0  0  0  0  0  0  0  0  0  0
   57.9066   25.9996   47.5804 H   0  0  0  0  0  0  0  0  0  0  0  0
   59.5770   27.1950   46.8940 C   0  0  0  0  0  0  0  0  0  0  0  0
   60.4820   26.4960   47.7060 O   0  0  0  0  0  0  0  0  0  0  0  0
   60.7390   26.8030   49.0720 C   0  0  0  0  0  0  0  0  0  0  0  0
   60.1664   26.1190   49.7156 H   0  0  0  0  0  0  0  0  0  0  0  0
   61.8133   26.6871   49.2780 H   0  0  0  0  0  0  0  0  0  0  0  0
   60.4359   27.8402   49.2780 H   0  0  0  0  0  0  0  0  0  0  0  0
   59.9780   28.2460   46.0480 C   0  0  0  0  0  0  0  0  0  0  0  0
   61.0381   28.5354   45.9993 H   0  0  0  0  0  0  0  0  0  0  0  0
   59.0350   28.9240   45.2690 C   0  0  0  0  0  0  0  0  0  0  0  0
   59.3600   29.7357   44.6015 H   0  0  0  0  0  0  0  0  0  0  0  0
   58.5130   33.5340   44.1590 C   0  0  0  0  0  0  0  0  0  0  0  0
   58.4831   33.9039   43.1235 H   0  0  0  0  0  0  0  0  0  0  0  0
   59.2610   34.2180   45.1220 C   0  0  0  0  0  0  0  0  0  0  0  0
   59.8325   35.1144   44.8394 H   0  0  0  0  0  0  0  0  0  0  0  0
   61.8500   33.7900   47.8330 C   0  0  0  0  0  0  0  0  0  0  0  0
   62.0714   33.6779   48.9046 H   0  0  0  0  0  0  0  0  0  0  0  0
   61.8214   32.7979   47.3588 H   0  0  0  0  0  0  0  0  0  0  0  0
   62.6325   34.4006   47.3588 H   0  0  0  0  0  0  0  0  0  0  0  0
  1  2  1  0
  3  2  1  1
  3  4  1  0
  4  5  2  0
  5  6  1  0
  5  7  1  0
  7  8  1  0
  7  9  2  0
  9 10  1  0
 10 11  1  0
 10 12  2  0
 12 13  1  0
 12 14  1  0
 14 15  2  0
 14 16  1  0
 16 17  2  0
 17 18  1  0
 17 19  1  0
 19 20  1  0
 19 21  2  0
 21 22  1  0
 22 23  1  0
 23 24  1  0
 23 25  1  0
 23 26  1  0
 21 27  1  0
 27 28  1  0
 27 29  2  0
 29 30  1  0
  9 31  1  0
 31 32  1  0
 31 33  2  0
 33 34  1  0
  3 35  1  0
 35 36  1  0
 35 37  1  0
 35 38  1  0
 33  4  1  0
 29 16  1  0
M  CHG  1   3   1
M  END
>  <UniqueID>  (3) 
3

>  <SMILES>  (3) 
COc1ccc(C(=O)/C=C\c2ccc([S@+](C)O)cc2)cc1

>  <Energy>  (3) 
41.98274220985884

>  <Genealogy>  (3) 
COc1ccc(C(=O)C=Cc2ccc([S+](C)O)cc2)cc1 (protonated)
COc1ccc(C(=O)C=Cc2ccc([S@+](C)O)cc2)cc1 (chirality)
COc1ccc(C(=O)/C=C\c2ccc([S@+](C)O)cc2)cc1 (cis-trans isomerization)
COc1ccc(C(=O)/C=C\c2ccc([S@+](C)O)cc2)cc1 (3D coordinates assigned)
COc1ccc(C(=O)/C=C\c2ccc([S@+](C)O)cc2)cc1 (optimized conformer: 41.98274220985884 kcal/mol)

>  <smiles>  (3) 
COc1ccc(C(=O)C=Cc2ccc([S+](C)[O-])cc2)cc1

>  <score_type>  (3) 
oracle

>  <origin>  (3) 
adg

>  <m_score__min__energy>  (3) 
-6.5800000000000001

>  <m_primary>  (3) 
energy

$$$$
3:0
     RDKit          3D

 57 59  0  0  0  0  0  0  0  0999 V2000
   58.5470   29.9450   50.6230 C   0  0  0  0  0  0  0  0  0  0  0  0
   59.0620   29.5780   49.3460 O   0  0  0  0  0  0  0  0  0  0  0  0
   60.1840   30.1680   48.7440 C   0  0  0  0  0  0  0  0  0  0  0  0
   61.0690   31.0000   49.4450 C   0  0  0  0  0  0  0  0  0  0  0  0
   62.1330   31.5820   48.8130 N   0  0  0  0  0  0  0  0  0  0  0  0
   63.0280   32.4700   49.5800 C   0  0  0  0  0  0  0  0  0  0  0  0
   62.3510   33.7580   49.9820 C   0  0  0  0  0  0  0  0  0  0  0  0
   63.0270   34.8230   49.9520 O   0  0  0  0  0  0  0  0  0  0  0  0
   60.9890   33.7940   50.4600 N   0  0  0  0  0  0  0  0  0  0  0  0
   60.6750   33.4460   51.8520 C   0  0  0  0  0  0  0  0  0  0  0  0
   59.9050   34.1750   49.5450 C   0  0  0  0  0  0  0  0  0  0  0  0
   60.4380   34.3650   48.1170 C   0  0  0  0  0  0  0  0  0  0  0  0
   59.3460   34.1770   47.0920 C   0  0  0  0  0  0  0  0  0  0  0  0
   58.1370   33.5520   47.4470 C   0  0  0  0  0  0  0  0  0  0  0  0
   57.0970   33.4400   46.5150 C   0  0  0  0  0  0  0  0  0  0  0  0
   57.2560   33.9480   45.2260 C   0  0  0  0  0  0  0  0  0  0  0  0
   58.4560   34.5670   44.8610 C   0  0  0  0  0  0  0  0  0  0  0  0
   59.4980   34.6820   45.7890 C   0  0  0  0  0  0  0  0  0  0  0  0
   62.3760   31.2970   47.4940 C   0  0  0  0  0  0  0  0  0  0  0  0
   63.3770   31.7840   46.9010 O   0  0  0  0  0  0  0  0  0  0  0  0
   61.5330   30.4860   46.8050 N   0  0  0  0  0  0  0  0  0  0  0  0
   60.4430   29.9300   47.3920 C   0  0  0  0  0  0  0  0  0  0  0  0
   59.5470   29.0690   46.5900 C   0  0  0  0  0  0  0  0  0  0  0  0
   59.4700   27.6800   46.8550 C   0  0  0  0  0  0  0  0  0  0  0  0
   60.3280   27.0400   47.9180 C   0  0  0  0  0  0  0  0  0  0  0  0
   58.5820   26.8850   46.1130 C   0  0  0  0  0  0  0  0  0  0  0  0
   57.7770   27.4530   45.1250 C   0  0  0  0  0  0  0  0  0  0  0  0
   57.8590   28.8170   44.8520 C   0  0  0  0  0  0  0  0  0  0  0  0
   58.7450   29.6370   45.5690 C   0  0  0  0  0  0  0  0  0  0  0  0
   58.8320   31.1040   45.2330 C   0  0  0  0  0  0  0  0  0  0  0  0
   59.1713   29.5001   51.4118 H   0  0  0  0  0  0  0  0  0  0  0  0
   58.5573   31.0405   50.7215 H   0  0  0  0  0  0  0  0  0  0  0  0
   57.5148   29.5777   50.7215 H   0  0  0  0  0  0  0  0  0  0  0  0
   60.9053   31.1868   50.5166 H   0  0  0  0  0  0  0  0  0  0  0  0
   63.3546   31.9435   50.4889 H   0  0  0  0  0  0  0  0  0  0  0  0
   63.8815   32.7258   48.9350 H   0  0  0  0  0  0  0  0  0  0  0  0
   61.2550   34.0889   52.5304 H   0  0  0  0  0  0  0  0  0  0  0  0
   59.6006   33.5959   52.0340 H   0  0  0  0  0  0  0  0  0  0  0  0
   60.9342   32.3926   52.0340 H   0  0  0  0  0  0  0  0  0  0  0  0
   59.1406   33.3840   49.5423 H   0  0  0  0  0  0  0  0  0  0  0  0
   59.4712   35.1256   49.8888 H   0  0  0  0  0  0  0  0  0  0  0  0
   60.8485   35.3810   48.0204 H   0  0  0  0  0  0  0  0  0  0  0  0
   61.2173   33.6103   47.9351 H   0  0  0  0  0  0  0  0  0  0  0  0
   58.0073   33.1488   48.4622 H   0  0  0  0  0  0  0  0  0  0  0  0
   56.1540   32.9508   46.8003 H   0  0  0  0  0  0  0  0  0  0  0  0
   56.4375   33.8619   44.4962 H   0  0  0  0  0  0  0  0  0  0  0  0
   58.5813   34.9642   43.8429 H   0  0  0  0  0  0  0  0  0  0  0  0
   60.4398   35.1697   45.4972 H   0  0  0  0  0  0  0  0  0  0  0  0
   59.9508   27.3214   48.9122 H   0  0  0  0  0  0  0  0  0  0  0  0
   60.2924   25.9460   47.8084 H   0  0  0  0  0  0  0  0  0  0  0  0
   61.3664   27.3859   47.8084 H   0  0  0  0  0  0  0  0  0  0  0  0
   58.5204   25.8050   46.3123 H   0  0  0  0  0  0  0  0  0  0  0  0
   57.0753   26.8220   44.5597 H   0  0  0  0  0  0  0  0  0  0  0  0
   57.2240   29.2552   44.0679 H   0  0  0  0  0  0  0  0  0  0  0  0
   58.8668   31.6916   46.1623 H   0  0  0  0  0  0  0  0  0  0  0  0
   59.7429   31.2923   44.6458 H   0  0  0  0  0  0  0  0  0  0  0  0
   57.9498   31.3986   44.6458 H   0  0  0  0  0  0  0  0  0  0  0  0
  1  2  1  0
  2  3  1  0
  3  4  2  0
  4  5  1  0
  5  6  1  0
  6  7  1  0
  7  8  2  0
  7  9  1  0
  9 10  1  0
  9 11  1  0
 11 12  1  0
 12 13  1  0
 13 14  2  0
 14 15  1  0
 15 16  2  0
 16 17  1  0
 17 18  2  0
  5 19  1  0
 19 20  2  0
 19 21  1  0
 21 22  2  0
 22 23  1  0
 23 24  2  0
 24 25  1  0
 24 26  1  0
 26 27  2  0
 27 28  1  0
 28 29  2  0
 29 30  1  0
 22  3  1  0
 29 23  1  0
 18 13  1  0
  1 31  1  0
  1 32  1  0
  1 33  1  0
  4 34  1  0
  6 35  1  0
  6 36  1  0
 10 37  1  0
 10 38  1  0
 10 39  1  0
 11 40  1  0
 11 41  1  0
 12 42  1  0
 12 43  1  0
 14 44  1  0
 15 45  1  0
 16 46  1  0
 17 47  1  0
 18 48  1  0
 25 49  1  0
 25 50  1  0
 25 51  1  0
 26 52  1  0
 27 53  1  0
 28 54  1  0
 30 55  1  0
 30 56  1  0
 30 57  1  0
M  END
>  <UniqueID>  (4) 
4

>  <SMILES>  (4) 
COc1cn(CC(=O)N(C)CCc2ccccc2)c(=O)nc1-c1c(C)cccc1C

>  <Energy>  (4) 
63.82597961991054

>  <Genealogy>  (4) 
COc1cn(CC(=O)N(C)CCc2ccccc2)c(=O)nc1-c1c(C)cccc1C (3D coordinates assigned)
COc1cn(CC(=O)N(C)CCc2ccccc2)c(=O)nc1-c1c(C)cccc1C (optimized conformer: 63.82597961991054 kcal/mol)

>  <smiles>  (4) 
COc1cn(CC(=O)N(C)CCc2ccccc2)c(=O)nc1-c1c(C)cccc1C

>  <score_type>  (4) 
oracle

>  <origin>  (4) 
adg

>  <m_score__min__energy>  (4) 
-9.0500000000000007

>  <m_primary>  (4) 
energy

$$$$
4:0
     RDKit          3D

 72 76  0  0  0  0  0  0  0  0999 V2000
   55.6380   30.0950   44.1340 C   0  0  0  0  0  0  0  0  0  0  0  0
   56.6710   30.2810   43.0260 C   0  0  0  0  0  0  0  0  0  0  0  0
   57.6230   31.4550   43.3020 C   0  0  0  0  0  0  0  0  0  0  0  0
   57.6750   31.8210   44.7280 N   0  0  0  0  0  0  0  0  0  0  0  0
   56.9660   33.0070   45.2400 C   0  0  0  0  0  0  0  0  0  0  0  0
   57.6940   34.3060   44.8680 C   0  0  0  0  0  0  0  0  0  0  0  0
   58.8150   34.6060   45.8590 C   0  0  0  0  0  0  0  0  0  0  0  0
   58.4500   31.0130   45.6340 C   0  0  0  0  0  0  0  0  0  0  0  0
   58.3030   29.6620   45.6300 N   0  0  0  0  0  0  0  0  0  0  0  0
   59.0160   28.8860   46.4870 C   0  0  0  0  0  0  0  0  0  0  0  0
   58.8290   27.4550   46.5040 N   0  0  0  0  0  0  0  0  0  0  0  0
   57.4950   26.8910   46.7540 C   0  0  0  0  0  0  0  0  0  0  0  0
   57.3850   25.4930   46.1380 C   0  0  0  0  0  0  0  0  0  0  0  0
   58.4590   24.6770   46.5560 O   0  0  0  0  0  0  0  0  0  0  0  0
   59.6680   25.1820   46.0280 C   0  0  0  0  0  0  0  0  0  0  0  0
   59.9890   26.5600   46.6170 C   0  0  0  0  0  0  0  0  0  0  0  0
   59.8920   29.4750   47.3430 N   0  0  0  0  0  0  0  0  0  0  0  0
   60.0490   30.8240   47.3580 C   0  0  0  0  0  0  0  0  0  0  0  0
   61.0490   31.4300   48.2660 C   0  0  0  0  0  0  0  0  0  0  0  0
   62.3370   31.6730   47.7680 C   0  0  0  0  0  0  0  0  0  0  0  0
   63.2560   32.3280   48.5210 N   0  0  0  0  0  0  0  0  0  0  0  0
   62.9930   32.7480   49.7850 C   0  0  0  0  0  0  0  0  0  0  0  0
   64.0290   33.5100   50.5130 C   0  0  0  0  0  0  0  0  0  0  0  0
   63.7540   34.6820   50.8870 O   0  0  0  0  0  0  0  0  0  0  0  0
   65.3710   32.9570   50.8220 C   0  0  0  0  0  0  0  0  0  0  0  0
   65.5840   31.5690   50.9180 C   0  0  0  0  0  0  0  0  0  0  0  0
   66.8580   31.0660   51.1940 C   0  0  0  0  0  0  0  0  0  0  0  0
   67.9360   31.9400   51.3600 C   0  0  0  0  0  0  0  0  0  0  0  0
   67.7420   33.3180   51.2430 C   0  0  0  0  0  0  0  0  0  0  0  0
   66.4690   33.8260   50.9720 C   0  0  0  0  0  0  0  0  0  0  0  0
   61.7240   32.5130   50.3360 C   0  0  0  0  0  0  0  0  0  0  0  0
   60.7450   31.8350   49.5900 C   0  0  0  0  0  0  0  0  0  0  0  0
   59.4410   31.5260   50.2360 C   0  0  0  0  0  0  0  0  0  0  0  0
   59.0050   30.2040   50.4030 C   0  0  0  0  0  0  0  0  0  0  0  0
   57.8100   29.9530   50.9980 N   0  0  0  0  0  0  0  0  0  0  0  0
   57.0300   30.9630   51.4570 C   0  0  0  0  0  0  0  0  0  0  0  0
   57.4380   32.2490   51.3260 N   0  0  0  0  0  0  0  0  0  0  0  0
   58.6220   32.5490   50.7300 C   0  0  0  0  0  0  0  0  0  0  0  0
   59.3270   31.5930   46.4970 N   0  0  0  0  0  0  0  0  0  0  0  0
   56.1308   30.1837   45.1134 H   0  0  0  0  0  0  0  0  0  0  0  0
   54.8602   30.8675   44.0436 H   0  0  0  0  0  0  0  0  0  0  0  0
   55.1785   29.0997   44.0436 H   0  0  0  0  0  0  0  0  0  0  0  0
   57.2641   29.3588   42.9379 H   0  0  0  0  0  0  0  0  0  0  0  0
   56.1277   30.5021   42.0954 H   0  0  0  0  0  0  0  0  0  0  0  0
   58.6343   31.1728   42.9739 H   0  0  0  0  0  0  0  0  0  0  0  0
   57.2446   32.3271   42.7485 H   0  0  0  0  0  0  0  0  0  0  0  0
   55.9533   33.0301   44.8111 H   0  0  0  0  0  0  0  0  0  0  0  0
   56.9270   32.9370   46.3371 H   0  0  0  0  0  0  0  0  0  0  0  0
   58.1226   34.2026   43.8602 H   0  0  0  0  0  0  0  0  0  0  0  0
   56.9705   35.1341   44.8952 H   0  0  0  0  0  0  0  0  0  0  0  0
   58.4337   34.5040   46.8858 H   0  0  0  0  0  0  0  0  0  0  0  0
   59.6418   33.8975   45.7028 H   0  0  0  0  0  0  0  0  0  0  0  0
   59.1775   35.6328   45.7028 H   0  0  0  0  0  0  0  0  0  0  0  0
   57.3270   26.8237   47.8390 H   0  0  0  0  0  0  0  0  0  0  0  0
   56.7384   27.5447   46.2954 H   0  0  0  0  0  0  0  0  0  0  0  0
   56.4374   25.0326   46.4544 H   0  0  0  0  0  0  0  0  0  0  0  0
   57.4173   25.5860   45.0424 H   0  0  0  0  0  0  0  0  0  0  0  0
   60.4853   24.4871   46.2714 H   0  0  0  0  0  0  0  0  0  0  0  0
   59.5605   25.2823   44.9379 H   0  0  0  0  0  0  0  0  0  0  0  0
   60.2555   26.4462   47.6781 H   0  0  0  0  0  0  0  0  0  0  0  0
   60.8294   26.9971   46.0578 H   0  0  0  0  0  0  0  0  0  0  0  0
   62.6047   31.3295   46.7579 H   0  0  0  0  0  0  0  0  0  0  0  0
   64.7420   30.8758   50.7748 H   0  0  0  0  0  0  0  0  0  0  0  0
   67.0128   29.9804   51.2808 H   0  0  0  0  0  0  0  0  0  0  0  0
   68.9372   31.5424   51.5828 H   0  0  0  0  0  0  0  0  0  0  0  0
   68.5928   34.0046   51.3644 H   0  0  0  0  0  0  0  0  0  0  0  0
   66.3234   34.9120   50.8752 H   0  0  0  0  0  0  0  0  0  0  0  0
   61.4951   32.8604   51.3543 H   0  0  0  0  0  0  0  0  0  0  0  0
   59.6307   29.3700   50.0522 H   0  0  0  0  0  0  0  0  0  0  0  0
   56.0655   30.7385   51.9360 H   0  0  0  0  0  0  0  0  0  0  0  0
   58.9379   33.5984   50.6353 H   0  0  0  0  0  0  0  0  0  0  0  0
   59.4780   32.6260   46.4650 H   0  0  0  0  0  0  0  0  0  0  0  0
  1  2  1  0
  2  3  1  0
  3  4  1  0
  4  5  1  0
  5  6  1  0
  6  7  1  0
  4  8  1  0
  8  9  2  0
  9 10  1  0
 10 11  1  0
 11 12  1  0
 12 13  1  0
 13 14  1  0
 14 15  1  0
 15 16  1  0
 10 17  2  0
 17 18  1  0
 18 19  1  0
 19 20  2  0
 20 21  1  0
 21 22  2  0
 22 23  1  0
 23 24  2  0
 23 25  1  0
 25 26  2  0
 26 27  1  0
 27 28  2  0
 28 29  1  0
 29 30  2  0
 22 31  1  0
 31 32  2  0
 32 33  1  0
 33 34  2  0
 34 35  1  0
 35 36  2  0
 36 37  1  0
 37 38  2  0
 18 39  2  0
 39  8  1  0
 16 11  1  0
 32 19  1  0
 38 33  1  0
 30 25  1  0
  1 40  1  0
  1 41  1  0
  1 42  1  0
  2 43  1  0
  2 44  1  0
  3 45  1  0
  3 46  1  0
  5 47  1  0
  5 48  1  0
  6 49  1  0
  6 50  1  0
  7 51  1  0
  7 52  1  0
  7 53  1  0
 12 54  1  0
 12 55  1  0
 13 56  1  0
 13 57  1  0
 15 58  1  0
 15 59  1  0
 16 60  1  0
 16 61  1  0
 20 62  1  0
 26 63  1  0
 27 64  1  0
 28 65  1  0
 29 66  1  0
 30 67  1  0
 31 68  1  0
 34 69  1  0
 36 70  1  0
 38 71  1  0
 39 72  1  0
M  CHG  1  39   1
M  END
>  <UniqueID>  (5) 
5

>  <SMILES>  (5) 
CCCN(CCC)c1nc(N2CCOCC2)nc(-c2cnc(C(=O)c3ccccc3)cc2-c2cncnc2)[nH+]1

>  <Energy>  (5) 
89.6964348424087

>  <Genealogy>  (5) 
CCCN(CCC)c1nc(N2CCOCC2)nc(-c2cnc(C(=O)c3ccccc3)cc2-c2cncnc2)[nH+]1 (protonated)
CCCN(CCC)c1nc(N2CCOCC2)nc(-c2cnc(C(=O)c3ccccc3)cc2-c2cncnc2)[nH+]1 (3D coordinates assigned)
CCCN(CCC)c1nc(N2CCOCC2)nc(-c2cnc(C(=O)c3ccccc3)cc2-c2cncnc2)[nH+]1 (nonaromatic ring conformer: 89.6964348424087 kcal/mol)

>  <smiles>  (5) 
CCCN(CCC)c1nc(-c2cnc(C(=O)c3ccccc3)cc2-c2cncnc2)nc(N2CCOCC2)n1

>  <score_type>  (5) 
oracle

>  <origin>  (5) 
adg

>  <m_score__min__energy>  (5) 
-8.5

>  <m_primary>  (5) 
energy

$$$$
5:0
     RDKit          3D

 35 37  0  0  0  0  0  0  0  0999 V2000
   63.0780   34.1930   48.8890 C   0  0  0  0  0  0  0  0  0  0  0  0
   62.5080   34.1190   47.5860 O   0  0  0  0  0  0  0  0  0  0  0  0
   61.5360   33.1830   47.1960 C   0  0  0  0  0  0  0  0  0  0  0  0
   61.7870   31.7970   47.2010 C   0  0  0  0  0  0  0  0  0  0  0  0
   60.7930   30.8970   46.8080 C   0  0  0  0  0  0  0  0  0  0  0  0
   59.5280   31.3630   46.4190 C   0  0  0  0  0  0  0  0  0  0  0  0
   58.5090   30.4490   45.9900 N   0  0  0  0  0  0  0  0  0  0  0  0
   57.5120   30.7940   45.1840 N   0  0  0  0  0  0  0  0  0  0  0  0
   56.7590   29.6920   44.9590 C   0  0  0  0  0  0  0  0  0  0  0  0
   55.5540   29.6720   44.0770 C   0  0  0  0  0  0  0  0  0  0  0  0
   57.2770   28.6270   45.6760 C   0  0  0  0  0  0  0  0  0  0  0  0
   58.3840   29.1400   46.2890 C   0  0  0  0  0  0  0  0  0  0  0  0
   59.2100   28.3650   47.1590 N   0  0  0  0  0  0  0  0  0  0  0  0
   58.8300   27.0040   47.4100 C   0  0  0  0  0  0  0  0  0  0  0  0
   59.6070   26.2450   48.0470 O   0  0  0  0  0  0  0  0  0  0  0  0
   57.4560   26.5060   47.0040 C   0  0  0  0  0  0  0  0  0  0  0  0
   56.9240   27.1670   45.7050 C   0  0  1  0  0  0  0  0  0  0  0  0
   55.5320   27.0140   45.6250 O   0  0  0  0  0  0  0  0  0  0  0  0
   59.2850   32.7430   46.3920 C   0  0  0  0  0  0  0  0  0  0  0  0
   60.2780   33.6480   46.7850 C   0  0  0  0  0  0  0  0  0  0  0  0
   59.9300   35.3700   46.7540 Cl  0  0  0  0  0  0  0  0  0  0  0  0
   62.2838   34.0899   49.6430 H   0  0  0  0  0  0  0  0  0  0  0  0
   63.8109   33.3825   49.0152 H   0  0  0  0  0  0  0  0  0  0  0  0
   63.5796   35.1638   49.0152 H   0  0  0  0  0  0  0  0  0  0  0  0
   62.7715   31.4208   47.5162 H   0  0  0  0  0  0  0  0  0  0  0  0
   61.0034   29.8173   46.8036 H   0  0  0  0  0  0  0  0  0  0  0  0
   54.6457   29.6569   44.6974 H   0  0  0  0  0  0  0  0  0  0  0  0
   55.5494   30.5702   43.4420 H   0  0  0  0  0  0  0  0  0  0  0  0
   55.5793   28.7742   43.4420 H   0  0  0  0  0  0  0  0  0  0  0  0
   60.0540   28.7680   47.6200 H   0  0  0  0  0  0  0  0  0  0  0  0
   57.5112   25.4189   46.8455 H   0  0  0  0  0  0  0  0  0  0  0  0
   56.7603   26.7714   47.8137 H   0  0  0  0  0  0  0  0  0  0  0  0
   57.3940   26.6719   44.8424 H   0  0  0  0  0  0  0  0  0  0  0  0
   55.1350   27.8930   45.8610 H   0  0  0  0  0  0  0  0  0  0  0  0
   58.3059   33.1181   46.0592 H   0  0  0  0  0  0  0  0  0  0  0  0
  1  2  1  0
  2  3  1  0
  3  4  2  0
  4  5  1  0
  5  6  2  0
  6  7  1  0
  7  8  1  0
  8  9  2  0
  9 10  1  0
  9 11  1  0
 11 12  2  0
 12 13  1  0
 13 14  1  0
 14 15  2  0
 14 16  1  0
 16 17  1  0
 17 18  1  0
  6 19  1  0
 19 20  2  0
 20 21  1  0
 20  3  1  0
 12  7  1  0
 17 11  1  0
  1 22  1  0
  1 23  1  0
  1 24  1  0
  4 25  1  0
  5 26  1  0
 10 27  1  0
 10 28  1  0
 10 29  1  0
 13 30  1  0
 16 31  1  0
 16 32  1  0
 17 33  1  6
 18 34  1  0
 19 35  1  0
M  END
>  <UniqueID>  (6) 
6

>  <SMILES>  (6) 
COc1ccc(-n2nc(C)c3c2NC(=O)C[C@H]3O)cc1Cl

>  <Energy>  (6) 
75.64052283514236

>  <Genealogy>  (6) 
COc1ccc(-n2nc(C)c3c2NC(=O)C[C@H]3O)cc1Cl (chirality)
COc1ccc(-n2nc(C)c3c2NC(=O)C[C@H]3O)cc1Cl (3D coordinates assigned)
COc1ccc(-n2nc(C)c3c2NC(=O)C[C@H]3O)cc1Cl (nonaromatic ring conformer: 75.64052283514236 kcal/mol)

>  <smiles>  (6) 
COc1ccc(-n2nc(C)c3c2NC(=O)CC3O)cc1Cl

>  <score_type>  (6) 
oracle

>  <origin>  (6) 
adg

>  <m_score__min__energy>  (6) 
-7.3300000000000001

>  <m_primary>  (6) 
energy

$$$$
6:0
     RDKit          3D

 40 41  0  0  0  0  0  0  0  0999 V2000
   61.8030   32.7310   47.1850 C   0  0  0  0  0  0  0  0  0  0  0  0
   61.1860   33.8710   46.3830 C   0  0  0  0  0  0  0  0  0  0  0  0
   59.7400   33.6080   46.1700 N   0  0  0  0  0  0  0  0  0  0  0  0
   58.9300   34.0160   47.3420 C   0  0  0  0  0  0  0  0  0  0  0  0
   57.7690   33.0500   47.5740 C   0  0  0  0  0  0  0  0  0  0  0  0
   59.2340   34.2440   44.9300 C   0  0  0  0  0  0  0  0  0  0  0  0
   57.9810   33.5230   44.4050 C   0  0  0  0  0  0  0  0  0  0  0  0
   58.2940   32.1760   43.9230 N   0  0  0  0  0  0  0  0  0  0  0  0
   57.6030   31.0000   44.3920 C   0  0  0  0  0  0  0  0  0  0  0  0
   56.2990   30.7320   43.9510 C   0  0  0  0  0  0  0  0  0  0  0  0
   55.6340   29.5880   44.3830 C   0  0  0  0  0  0  0  0  0  0  0  0
   56.2360   28.7150   45.2310 N   0  0  0  0  0  0  0  0  0  0  0  0
   55.5310   27.5980   45.6230 O   0  0  0  0  0  0  0  0  0  0  0  0
   57.5080   28.9310   45.6900 C   0  0  0  0  0  0  0  0  0  0  0  0
   58.1150   28.0190   46.5750 C   0  0  0  0  0  0  0  0  0  0  0  0
   59.4070   28.2480   47.0540 C   0  0  0  0  0  0  0  0  0  0  0  0
   60.1480   27.1050   48.1600 Cl  0  0  0  0  0  0  0  0  0  0  0  0
   60.1070   29.3860   46.6570 C   0  0  0  0  0  0  0  0  0  0  0  0
   59.5260   30.3010   45.7780 C   0  0  0  0  0  0  0  0  0  0  0  0
   58.2260   30.0870   45.2750 C   0  0  0  0  0  0  0  0  0  0  0  0
   61.6917   32.9367   48.2599 H   0  0  0  0  0  0  0  0  0  0  0  0
   61.2914   31.7893   46.9370 H   0  0  0  0  0  0  0  0  0  0  0  0
   62.8712   32.6443   46.9370 H   0  0  0  0  0  0  0  0  0  0  0  0
   61.3086   34.8145   46.9350 H   0  0  0  0  0  0  0  0  0  0  0  0
   61.6902   33.9451   45.4082 H   0  0  0  0  0  0  0  0  0  0  0  0
   59.5716   34.0271   48.2354 H   0  0  0  0  0  0  0  0  0  0  0  0
   58.5171   35.0171   47.1488 H   0  0  0  0  0  0  0  0  0  0  0  0
   57.6115   32.9189   48.6547 H   0  0  0  0  0  0  0  0  0  0  0  0
   56.8554   33.4583   47.1171 H   0  0  0  0  0  0  0  0  0  0  0  0
   58.0043   32.0774   47.1171 H   0  0  0  0  0  0  0  0  0  0  0  0
   58.9813   35.2933   45.1426 H   0  0  0  0  0  0  0  0  0  0  0  0
   60.0188   34.1814   44.1618 H   0  0  0  0  0  0  0  0  0  0  0  0
   57.2451   33.4484   45.2192 H   0  0  0  0  0  0  0  0  0  0  0  0
   57.5784   34.1041   43.5623 H   0  0  0  0  0  0  0  0  0  0  0  0
   58.8830   32.0940   43.0650 H   0  0  0  0  0  0  0  0  0  0  0  0
   55.7999   31.4284   43.2612 H   0  0  0  0  0  0  0  0  0  0  0  0
   54.6101   29.3891   44.0337 H   0  0  0  0  0  0  0  0  0  0  0  0
   57.5673   27.1191   46.8916 H   0  0  0  0  0  0  0  0  0  0  0  0
   61.1232   29.5639   47.0387 H   0  0  0  0  0  0  0  0  0  0  0  0
   60.0871   31.1972   45.4747 H   0  0  0  0  0  0  0  0  0  0  0  0
  1  2  1  0
  2  3  1  0
  3  4  1  0
  4  5  1  0
  3  6  1  0
  6  7  1  0
  7  8  1  0
  8  9  1  0
  9 10  2  0
 10 11  1  0
 11 12  2  0
 12 13  1  0
 12 14  1  0
 14 15  2  0
 15 16  1  0
 16 17  1  0
 16 18  2  0
 18 19  1  0
 19 20  2  0
 20  9  1  0
 20 14  1  0
  1 21  1  0
  1 22  1  0
  1 23  1  0
  2 24  1  0
  2 25  1  0
  4 26  1  0
  4 27  1  0
  5 28  1  0
  5 29  1  0
  5 30  1  0
  6 31  1  0
  6 32  1  0
  7 33  1  0
  7 34  1  0
  8 35  1  0
 10 36  1  0
 11 37  1  0
 15 38  1  0
 18 39  1  0
 19 40  1  0
M  CHG  2  12   1  13  -1
M  END
>  <UniqueID>  (7) 
7

>  <SMILES>  (7) 
CCN(CC)CCNc1cc[n+]([O-])c2cc(Cl)ccc12

>  <Energy>  (7) 
46.45385573257448

>  <Genealogy>  (7) 
CCN(CC)CCNc1cc[n+]([O-])c2cc(Cl)ccc12 (3D coordinates assigned)
CCN(CC)CCNc1cc[n+]([O-])c2cc(Cl)ccc12 (optimized conformer: 46.45385573257448 kcal/mol)

>  <smiles>  (7) 
CCN(CC)CCNc1cc[n+]([O-])c2cc(Cl)ccc12

>  <score_type>  (7) 
oracle

>  <origin>  (7) 
adg

>  <m_score__min__energy>  (7) 
-7

>  <m_primary>  (7) 
energy

$$$$
7:0
     RDKit          3D

 47 49  0  0  0  0  0  0  0  0999 V2000
   56.2560   25.4300   46.7580 O   0  0  0  0  0  0  0  0  0  0  0  0
   55.5590   26.2390   46.0840 C   0  0  0  0  0  0  0  0  0  0  0  0
   54.1930   25.9380   45.7850 N   0  0  0  0  0  0  0  0  0  0  0  0
   53.6830   24.5820   45.6070 C   0  0  0  0  0  0  0  0  0  0  0  0
   54.3260   23.6300   46.6230 C   0  0  0  0  0  0  0  0  0  0  0  0
   54.7230   22.2570   46.0330 C   0  0  0  0  0  0  0  0  0  0  0  0
   55.7260   22.2700   44.9400 N   0  0  0  0  0  0  0  0  0  0  0  0
   55.3560   23.0530   43.7510 C   0  0  0  0  0  0  0  0  0  0  0  0
   56.5580   23.1240   42.8020 C   0  0  0  0  0  0  0  0  0  0  0  0
   56.9780   21.8230   42.4350 O   0  0  0  0  0  0  0  0  0  0  0  0
   57.4040   21.1120   43.5820 C   0  0  0  0  0  0  0  0  0  0  0  0
   56.2510   20.9430   44.5800 C   0  0  0  0  0  0  0  0  0  0  0  0
   56.1270   27.4680   45.6200 N   0  0  0  0  0  0  0  0  0  0  0  0
   57.5180   27.8210   45.8980 C   0  0  0  0  0  0  0  0  0  0  0  0
   57.7090   29.3020   45.8210 C   0  0  0  0  0  0  0  0  0  0  0  0
   58.7500   29.9400   46.4190 N   0  0  0  0  0  0  0  0  0  0  0  0
   58.5580   31.2140   46.0500 C   0  0  0  0  0  0  0  0  0  0  0  0
   59.3310   32.3230   46.3850 C   0  0  0  0  0  0  0  0  0  0  0  0
   58.9470   33.5830   45.8660 C   0  0  0  0  0  0  0  0  0  0  0  0
   59.7170   34.8240   46.2380 C   0  0  0  0  0  0  0  0  0  0  0  0
   59.2540   35.3420   47.4360 F   0  0  0  0  0  0  0  0  0  0  0  0
   59.5790   35.7970   45.2640 F   0  0  0  0  0  0  0  0  0  0  0  0
   61.0550   34.5070   46.3730 F   0  0  0  0  0  0  0  0  0  0  0  0
   57.7780   33.6800   45.0630 C   0  0  0  0  0  0  0  0  0  0  0  0
   57.0260   32.5340   44.7470 C   0  0  0  0  0  0  0  0  0  0  0  0
   57.4540   31.3150   45.2630 C   0  0  0  0  0  0  0  0  0  0  0  0
   56.8930   30.1090   45.0930 N   0  0  0  0  0  0  0  0  0  0  0  0
   52.5925   24.5833   45.7515 H   0  0  0  0  0  0  0  0  0  0  0  0
   53.9299   24.2389   44.5915 H   0  0  0  0  0  0  0  0  0  0  0  0
   55.2316   24.1101   47.0221 H   0  0  0  0  0  0  0  0  0  0  0  0
   53.5720   23.4369   47.4003 H   0  0  0  0  0  0  0  0  0  0  0  0
   55.1300   21.6464   46.8525 H   0  0  0  0  0  0  0  0  0  0  0  0
   53.8035   21.8590   45.5789 H   0  0  0  0  0  0  0  0  0  0  0  0
   54.5111   22.5687   43.2395 H   0  0  0  0  0  0  0  0  0  0  0  0
   55.0626   24.0691   44.0534 H   0  0  0  0  0  0  0  0  0  0  0  0
   56.2724   23.6808   41.8973 H   0  0  0  0  0  0  0  0  0  0  0  0
   57.3867   23.6336   43.3154 H   0  0  0  0  0  0  0  0  0  0  0  0
   57.7648   20.1187   43.2768 H   0  0  0  0  0  0  0  0  0  0  0  0
   58.2102   21.6803   44.0689 H   0  0  0  0  0  0  0  0  0  0  0  0
   55.4516   20.3430   44.1208 H   0  0  0  0  0  0  0  0  0  0  0  0
   56.6152   20.4315   45.4832 H   0  0  0  0  0  0  0  0  0  0  0  0
   55.5200   28.1150   45.0680 H   0  0  0  0  0  0  0  0  0  0  0  0
   57.7846   27.4738   46.9071 H   0  0  0  0  0  0  0  0  0  0  0  0
   58.1633   27.3401   45.1481 H   0  0  0  0  0  0  0  0  0  0  0  0
   60.2138   32.2229   47.0336 H   0  0  0  0  0  0  0  0  0  0  0  0
   57.4580   34.6620   44.6846 H   0  0  0  0  0  0  0  0  0  0  0  0
   56.1294   32.5995   44.1131 H   0  0  0  0  0  0  0  0  0  0  0  0
  1  2  2  0
  2  3  1  0
  3  4  1  0
  4  5  1  0
  5  6  1  0
  6  7  1  0
  7  8  1  0
  8  9  1  0
  9 10  1  0
 10 11  1  0
 11 12  1  0
  2 13  1  0
 13 14  1  0
 14 15  1  0
 15 16  2  0
 16 17  1  0
 17 18  2  0
 18 19  1  0
 19 20  1  0
 20 21  1  0
 20 22  1  0
 20 23  1  0
 19 24  2  0
 24 25  1  0
 25 26  2  0
 26 27  1  0
 12  7  1  0
 27 15  1  0
 26 17  1  0
  4 28  1  0
  4 29  1  0
  5 30  1  0
  5 31  1  0
  6 32  1  0
  6 33  1  0
  8 34  1  0
  8 35  1  0
  9 36  1  0
  9 37  1  0
 11 38  1  0
 11 39  1  0
 12 40  1  0
 12 41  1  0
 13 42  1  0
 14 43  1  0
 14 44  1  0
 18 45  1  0
 24 46  1  0
 25 47  1  0
M  CHG  2   3  -1  27  -1
M  END
>  <UniqueID>  (8) 
8

>  <SMILES>  (8) 
O=C([N-]CCCN1CCOCC1)NCc1nc2cc(C(F)(F)F)ccc2[n-]1

>  <Energy>  (8) 
84.18502523423783

>  <Genealogy>  (8) 
O=C([N-]CCCN1CCOCC1)NCc1nc2cc(C(F)(F)F)ccc2[n-]1 (protonated)
O=C([N-]CCCN1CCOCC1)NCc1nc2cc(C(F)(F)F)ccc2[n-]1 (3D coordinates assigned)
O=C([N-]CCCN1CCOCC1)NCc1nc2cc(C(F)(F)F)ccc2[n-]1 (nonaromatic ring conformer: 84.18502523423783 kcal/mol)

>  <smiles>  (8) 
O=C(NCCCN1CCOCC1)NCc1nc2cc(C(F)(F)F)ccc2[nH]1

>  <score_type>  (8) 
oracle

>  <origin>  (8) 
adg

>  <m_score__min__energy>  (8) 
-11.19

>  <m_primary>  (8) 
energy

$$$$
8:0
     RDKit          3D

 49 51  0  0  0  0  0  0  0  0999 V2000
   57.4020   32.0340   41.9480 C   0  0  0  0  0  0  0  0  0  0  0  0
   58.4470   31.6200   42.9900 C   0  0  0  0  0  0  0  0  0  0  0  0
   57.8510   31.3350   44.3150 N   0  0  0  0  0  0  0  0  0  0  0  0
   57.0500   32.4500   44.8860 C   0  0  0  0  0  0  0  0  0  0  0  0
   57.7700   33.8030   44.9420 C   0  0  0  0  0  0  0  0  0  0  0  0
   56.9450   29.8370   44.2450 S   0  0  0  0  0  0  0  0  0  0  0  0
   56.9030   29.3600   42.8190 O   0  0  0  0  0  0  0  0  0  0  0  0
   55.5270   30.0590   44.6950 O   0  0  0  0  0  0  0  0  0  0  0  0
   57.7340   28.5770   45.2110 C   0  0  0  0  0  0  0  0  0  0  0  0
   57.4120   27.2390   44.9410 C   0  0  0  0  0  0  0  0  0  0  0  0
   58.0180   26.2020   45.6540 C   0  0  0  0  0  0  0  0  0  0  0  0
   58.9570   26.4850   46.6450 C   0  0  0  0  0  0  0  0  0  0  0  0
   59.2980   27.8150   46.9290 C   0  0  0  0  0  0  0  0  0  0  0  0
   60.2460   28.1190   47.9120 C   0  0  0  0  0  0  0  0  0  0  0  0
   60.5730   29.4490   48.1770 C   0  0  0  0  0  0  0  0  0  0  0  0
   59.9420   30.4780   47.4590 C   0  0  0  0  0  0  0  0  0  0  0  0
   60.2560   31.8670   47.7000 N   0  0  0  0  0  0  0  0  0  0  0  0
   61.5840   32.3610   47.3160 C   0  0  0  0  0  0  0  0  0  0  0  0
   61.7510   33.8340   47.6930 C   0  0  0  0  0  0  0  0  0  0  0  0
   60.5830   34.6010   47.2520 N   0  0  0  0  0  0  0  0  0  0  0  0
   59.3360   34.1810   47.9210 C   0  0  0  0  0  0  0  0  0  0  0  0
   59.3480   32.7330   48.4640 C   0  0  0  0  0  0  0  0  0  0  0  0
   59.0320   30.1550   46.4970 N   0  0  0  0  0  0  0  0  0  0  0  0
   58.6870   28.8700   46.2110 C   0  0  0  0  0  0  0  0  0  0  0  0
   56.4965   32.3927   42.4593 H   0  0  0  0  0  0  0  0  0  0  0  0
   57.8106   32.8382   41.3184 H   0  0  0  0  0  0  0  0  0  0  0  0
   57.1489   31.1682   41.3184 H   0  0  0  0  0  0  0  0  0  0  0  0
   58.9605   30.7150   42.6331 H   0  0  0  0  0  0  0  0  0  0  0  0
   59.1445   32.4616   43.1135 H   0  0  0  0  0  0  0  0  0  0  0  0
   58.6370   31.1550   44.9830 H   0  0  0  0  0  0  0  0  0  0  0  0
   56.1455   32.5700   44.2715 H   0  0  0  0  0  0  0  0  0  0  0  0
   56.8360   32.1723   45.9286 H   0  0  0  0  0  0  0  0  0  0  0  0
   57.9243   34.0930   45.9918 H   0  0  0  0  0  0  0  0  0  0  0  0
   58.7439   33.7213   44.4372 H   0  0  0  0  0  0  0  0  0  0  0  0
   57.1582   34.5651   44.4372 H   0  0  0  0  0  0  0  0  0  0  0  0
   56.6745   27.0037   44.1595 H   0  0  0  0  0  0  0  0  0  0  0  0
   57.7533   25.1575   45.4327 H   0  0  0  0  0  0  0  0  0  0  0  0
   59.4305   25.6646   47.2042 H   0  0  0  0  0  0  0  0  0  0  0  0
   60.7332   27.3097   48.4756 H   0  0  0  0  0  0  0  0  0  0  0  0
   61.3221   29.6909   48.9453 H   0  0  0  0  0  0  0  0  0  0  0  0
   62.3521   31.7678   47.8339 H   0  0  0  0  0  0  0  0  0  0  0  0
   61.6923   32.2638   46.2257 H   0  0  0  0  0  0  0  0  0  0  0  0
   61.8526   33.9211   48.7848 H   0  0  0  0  0  0  0  0  0  0  0  0
   62.6506   34.2323   47.2010 H   0  0  0  0  0  0  0  0  0  0  0  0
   60.4730   34.4740   46.2180 H   0  0  0  0  0  0  0  0  0  0  0  0
   59.1547   34.8619   48.7657 H   0  0  0  0  0  0  0  0  0  0  0  0
   58.5462   34.2187   47.1563 H   0  0  0  0  0  0  0  0  0  0  0  0
   59.6736   32.7502   49.5146 H   0  0  0  0  0  0  0  0  0  0  0  0
   58.3304   32.3260   48.3698 H   0  0  0  0  0  0  0  0  0  0  0  0
  1  2  1  0
  2  3  1  0
  3  4  1  0
  4  5  1  0
  3  6  1  0
  6  7  2  0
  6  8  2  0
  6  9  1  0
  9 10  2  0
 10 11  1  0
 11 12  2  0
 12 13  1  0
 13 14  2  0
 14 15  1  0
 15 16  2  0
 16 17  1  0
 17 18  1  0
 18 19  1  0
 19 20  1  0
 20 21  1  0
 21 22  1  0
 16 23  1  0
 23 24  2  0
 24  9  1  0
 24 13  1  0
 22 17  1  0
  1 25  1  0
  1 26  1  0
  1 27  1  0
  2 28  1  0
  2 29  1  0
  3 30  1  0
  4 31  1  0
  4 32  1  0
  5 33  1  0
  5 34  1  0
  5 35  1  0
 10 36  1  0
 11 37  1  0
 12 38  1  0
 14 39  1  0
 15 40  1  0
 18 41  1  0
 18 42  1  0
 19 43  1  0
 19 44  1  0
 20 45  1  0
 21 46  1  0
 21 47  1  0
 22 48  1  0
 22 49  1  0
M  CHG  1   3   1
M  END
>  <UniqueID>  (9) 
9

>  <SMILES>  (9) 
CC[NH+](CC)S(=O)(=O)c1cccc2ccc(N3CCNCC3)nc12

>  <Energy>  (9) 
59.45214272685855

>  <Genealogy>  (9) 
CC[NH+](CC)S(=O)(=O)c1cccc2ccc(N3CCNCC3)nc12 (protonated)
CC[NH+](CC)S(=O)(=O)c1cccc2ccc(N3CCNCC3)nc12 (3D coordinates assigned)
CC[NH+](CC)S(=O)(=O)c1cccc2ccc(N3CCNCC3)nc12 (nonaromatic ring conformer: 59.45214272685855 kcal/mol)

>  <smiles>  (9) 
CCN(CC)S(=O)(=O)c1cccc2ccc(N3CCNCC3)nc12

>  <score_type>  (9) 
oracle

>  <origin>  (9) 
adg

>  <m_score__min__energy>  (9) 
-6.8300000000000001

>  <m_primary>  (9) 
energy

$$$$
9:0
     RDKit          3D

 56 58  0  0  0  0  0  0  0  0999 V2000
   60.1860   28.0210   46.4930 C   0  0  0  0  0  0  0  0  0  0  0  0
   60.5690   29.2390   45.6480 C   0  0  0  0  0  0  0  0  0  0  0  0
   59.5030   30.2590   45.5610 N   0  0  0  0  0  0  0  0  0  0  0  0
   58.5060   30.0530   44.4790 C   0  0  0  0  0  0  0  0  0  0  0  0
   57.1240   29.7100   44.9640 C   0  0  0  0  0  0  0  0  0  0  0  0
   56.1460   30.4600   44.6770 O   0  0  0  0  0  0  0  0  0  0  0  0
   56.9480   28.5710   45.8220 N   0  0  0  0  0  0  0  0  0  0  0  0
   56.8630   27.1990   45.4120 C   0  0  0  0  0  0  0  0  0  0  0  0
   55.9310   26.3660   46.0330 C   0  0  0  0  0  0  0  0  0  0  0  0
   55.8520   25.0090   45.7050 C   0  0  0  0  0  0  0  0  0  0  0  0
   56.7190   24.4590   44.7370 C   0  0  0  0  0  0  0  0  0  0  0  0
   56.6260   23.0630   44.3750 N   0  0  0  0  0  0  0  0  0  0  0  0
   56.6700   22.6690   42.9580 C   0  0  0  0  0  0  0  0  0  0  0  0
   57.0310   21.1830   42.8240 C   0  0  0  0  0  0  0  0  0  0  0  0
   56.1820   20.3840   43.6300 O   0  0  0  0  0  0  0  0  0  0  0  0
   56.4110   20.6890   44.9990 C   0  0  0  0  0  0  0  0  0  0  0  0
   55.9770   22.1290   45.3160 C   0  0  0  0  0  0  0  0  0  0  0  0
   57.6970   25.2850   44.1630 C   0  0  0  0  0  0  0  0  0  0  0  0
   57.7690   26.6410   44.4930 C   0  0  0  0  0  0  0  0  0  0  0  0
   58.9900   30.7290   46.8660 C   0  0  0  0  0  0  0  0  0  0  0  0
   59.5610   32.0860   47.2090 C   0  0  0  0  0  0  0  0  0  0  0  0
   60.8960   32.1950   47.6510 C   0  0  0  0  0  0  0  0  0  0  0  0
   61.4380   33.4400   47.9640 C   0  0  0  0  0  0  0  0  0  0  0  0
   60.6620   34.5900   47.8310 C   0  0  0  0  0  0  0  0  0  0  0  0
   59.3430   34.5040   47.3770 C   0  0  0  0  0  0  0  0  0  0  0  0
   58.7800   33.2510   47.0530 C   0  0  0  0  0  0  0  0  0  0  0  0
   57.4670   33.1310   46.5660 O   0  0  0  0  0  0  0  0  0  0  0  0
   57.0560   33.4690   45.2440 C   0  0  0  0  0  0  0  0  0  0  0  0
   60.2660   28.2753   47.5602 H   0  0  0  0  0  0  0  0  0  0  0  0
   59.1516   27.7257   46.2629 H   0  0  0  0  0  0  0  0  0  0  0  0
   60.8652   27.1869   46.2629 H   0  0  0  0  0  0  0  0  0  0  0  0
   61.4602   29.7049   46.0937 H   0  0  0  0  0  0  0  0  0  0  0  0
   60.7525   28.8769   44.6256 H   0  0  0  0  0  0  0  0  0  0  0  0
   58.4433   30.9788   43.8882 H   0  0  0  0  0  0  0  0  0  0  0  0
   58.8549   29.1915   43.8907 H   0  0  0  0  0  0  0  0  0  0  0  0
   55.2500   26.7823   46.7900 H   0  0  0  0  0  0  0  0  0  0  0  0
   55.1107   24.3674   46.2038 H   0  0  0  0  0  0  0  0  0  0  0  0
   55.6841   22.8445   42.5027 H   0  0  0  0  0  0  0  0  0  0  0  0
   57.4366   23.2689   42.4456 H   0  0  0  0  0  0  0  0  0  0  0  0
   56.9213   20.8786   41.7726 H   0  0  0  0  0  0  0  0  0  0  0  0
   58.0696   21.0411   43.1574 H   0  0  0  0  0  0  0  0  0  0  0  0
   55.8346   19.9922   45.6253 H   0  0  0  0  0  0  0  0  0  0  0  0
   57.4865   20.5903   45.2077 H   0  0  0  0  0  0  0  0  0  0  0  0
   54.8845   22.2116   45.2180 H   0  0  0  0  0  0  0  0  0  0  0  0
   56.2759   22.3815   46.3441 H   0  0  0  0  0  0  0  0  0  0  0  0
   58.4148   24.8607   43.4455 H   0  0  0  0  0  0  0  0  0  0  0  0
   58.5394   27.2758   44.0309 H   0  0  0  0  0  0  0  0  0  0  0  0
   57.8934   30.8006   46.8180 H   0  0  0  0  0  0  0  0  0  0  0  0
   59.2927   30.0119   47.6433 H   0  0  0  0  0  0  0  0  0  0  0  0
   61.5140   31.2903   47.7494 H   0  0  0  0  0  0  0  0  0  0  0  0
   62.4775   33.5151   48.3158 H   0  0  0  0  0  0  0  0  0  0  0  0
   61.0901   35.5710   48.0848 H   0  0  0  0  0  0  0  0  0  0  0  0
   58.7402   35.4181   47.2716 H   0  0  0  0  0  0  0  0  0  0  0  0
   56.2072   34.1671   45.2911 H   0  0  0  0  0  0  0  0  0  0  0  0
   57.8923   33.9441   44.7102 H   0  0  0  0  0  0  0  0  0  0  0  0
   56.7513   32.5567   44.7102 H   0  0  0  0  0  0  0  0  0  0  0  0
  1  2  1  0
  2  3  1  0
  3  4  1  0
  4  5  1  0
  5  6  2  0
  5  7  1  0
  7  8  1  0
  8  9  2  0
  9 10  1  0
 10 11  2  0
 11 12  1  0
 12 13  1  0
 13 14  1  0
 14 15  1  0
 15 16  1  0
 16 17  1  0
 11 18  1  0
 18 19  2  0
  3 20  1  0
 20 21  1  0
 21 22  2  0
 22 23  1  0
 23 24  2  0
 24 25  1  0
 25 26  2  0
 26 27  1  0
 27 28  1  0
 19  8  1  0
 26 21  1  0
 17 12  1  0
  1 29  1  0
  1 30  1  0
  1 31  1  0
  2 32  1  0
  2 33  1  0
  4 34  1  0
  4 35  1  0
  9 36  1  0
 10 37  1  0
 13 38  1  0
 13 39  1  0
 14 40  1  0
 14 41  1  0
 16 42  1  0
 16 43  1  0
 17 44  1  0
 17 45  1  0
 18 46  1  0
 19 47  1  0
 20 48  1  0
 20 49  1  0
 22 50  1  0
 23 51  1  0
 24 52  1  0
 25 53  1  0
 28 54  1  0
 28 55  1  0
 28 56  1  0
M  CHG  1   7  -1
M  END
>  <UniqueID>  (10) 
10

>  <SMILES>  (10) 
CCN(CC(=O)[N-]c1ccc(N2CCOCC2)cc1)Cc1ccccc1OC

>  <Energy>  (10) 
71.83469189932795

>  <Genealogy>  (10) 
CCN(CC(=O)[N-]c1ccc(N2CCOCC2)cc1)Cc1ccccc1OC (protonated)
CCN(CC(=O)[N-]c1ccc(N2CCOCC2)cc1)Cc1ccccc1OC (3D coordinates assigned)
CCN(CC(=O)[N-]c1ccc(N2CCOCC2)cc1)Cc1ccccc1OC (nonaromatic ring conformer: 71.83469189932795 kcal/mol)

>  <smiles>  (10) 
CCN(CC(=O)Nc1ccc(N2CCOCC2)cc1)Cc1ccccc1OC

>  <score_type>  (10) 
oracle

>  <origin>  (10) 
adg

>  <m_score__min__energy>  (10) 
-9.5999999999999996

>  <m_primary>  (10) 
energy

$$$$
10:0
     RDKit          3D

 61 65  0  0  0  0  0  0  0  0999 V2000
   54.5050   23.9520   45.1020 C   0  0  0  0  0  0  0  0  0  0  0  0
   55.0340   24.8960   46.0270 O   0  0  0  0  0  0  0  0  0  0  0  0
   56.3720   25.3180   46.0530 C   0  0  0  0  0  0  0  0  0  0  0  0
   57.3730   24.3520   45.9140 C   0  0  0  0  0  0  0  0  0  0  0  0
   58.7190   24.7180   45.9460 C   0  0  0  0  0  0  0  0  0  0  0  0
   59.0790   26.0560   46.1120 C   0  0  0  0  0  0  0  0  0  0  0  0
   58.0930   27.0500   46.2390 C   0  0  0  0  0  0  0  0  0  0  0  0
   58.4930   28.4670   46.4290 C   0  0  0  0  0  0  0  0  0  0  0  0
   57.8060   29.5190   45.7970 C   0  0  0  0  0  0  0  0  0  0  0  0
   58.2120   30.8380   46.0070 C   0  0  0  0  0  0  0  0  0  0  0  0
   59.2980   31.1090   46.8500 C   0  0  0  0  0  0  0  0  0  0  0  0
   59.7570   32.4100   47.1210 C   0  0  0  0  0  0  0  0  0  0  0  0
   59.0790   33.5710   46.6100 N   0  0  0  0  0  0  0  0  0  0  0  0
   57.6300   33.6800   46.8170 C   0  0  0  0  0  0  0  0  0  0  0  0
   56.9040   33.6300   45.4610 C   0  0  0  0  0  0  0  0  0  0  0  0
   57.7170   33.0090   44.4820 O   0  0  0  0  0  0  0  0  0  0  0  0
   58.8240   33.8410   44.1700 C   0  0  0  0  0  0  0  0  0  0  0  0
   59.6430   34.2410   45.4290 C   0  0  1  0  0  0  0  0  0  0  0  0
   59.6490   35.7640   45.6210 C   0  0  0  0  0  0  0  0  0  0  0  0
   60.8450   32.5790   47.9170 N   0  0  0  0  0  0  0  0  0  0  0  0
   61.5070   31.5240   48.4680 C   0  0  0  0  0  0  0  0  0  0  0  0
   62.6540   31.7490   49.3160 N   0  0  0  0  0  0  0  0  0  0  0  0
   62.5990   31.2080   50.6850 C   0  0  0  0  0  0  0  0  0  0  0  0
   63.9110   31.3890   51.4450 C   0  0  0  0  0  0  0  0  0  0  0  0
   65.0060   31.2050   50.5790 O   0  0  0  0  0  0  0  0  0  0  0  0
   65.0810   32.3140   49.7130 C   0  0  0  0  0  0  0  0  0  0  0  0
   63.8740   32.3660   48.7470 C   0  0  2  0  0  0  0  0  0  0  0  0
   63.5990   33.8240   48.3460 C   0  0  0  0  0  0  0  0  0  0  0  0
   61.0590   30.2610   48.2300 N   0  0  0  0  0  0  0  0  0  0  0  0
   59.9810   30.0310   47.4410 C   0  0  0  0  0  0  0  0  0  0  0  0
   59.5650   28.7570   47.2180 N   0  0  0  0  0  0  0  0  0  0  0  0
   56.7360   26.6700   46.2170 C   0  0  0  0  0  0  0  0  0  0  0  0
   54.0393   23.1210   45.6521 H   0  0  0  0  0  0  0  0  0  0  0  0
   53.7500   24.4418   44.4696 H   0  0  0  0  0  0  0  0  0  0  0  0
   55.3170   23.5637   44.4696 H   0  0  0  0  0  0  0  0  0  0  0  0
   57.0974   23.2957   45.7784 H   0  0  0  0  0  0  0  0  0  0  0  0
   59.4988   23.9495   45.8400 H   0  0  0  0  0  0  0  0  0  0  0  0
   60.1425   26.3351   46.1437 H   0  0  0  0  0  0  0  0  0  0  0  0
   56.9513   29.3031   45.1391 H   0  0  0  0  0  0  0  0  0  0  0  0
   57.6801   31.6635   45.5114 H   0  0  0  0  0  0  0  0  0  0  0  0
   57.2872   32.8450   47.4457 H   0  0  0  0  0  0  0  0  0  0  0  0
   57.4052   34.6352   47.3141 H   0  0  0  0  0  0  0  0  0  0  0  0
   55.9709   33.0580   45.5716 H   0  0  0  0  0  0  0  0  0  0  0  0
   56.6845   34.6585   45.1386 H   0  0  0  0  0  0  0  0  0  0  0  0
   59.4854   33.3021   43.4757 H   0  0  0  0  0  0  0  0  0  0  0  0
   58.4309   34.7647   43.7202 H   0  0  0  0  0  0  0  0  0  0  0  0
   60.6862   33.9199   45.2929 H   0  0  0  0  0  0  0  0  0  0  0  0
   59.6499   35.9981   46.6958 H   0  0  0  0  0  0  0  0  0  0  0  0
   60.5488   36.1891   45.1524 H   0  0  0  0  0  0  0  0  0  0  0  0
   58.7525   36.1962   45.1524 H   0  0  0  0  0  0  0  0  0  0  0  0
   61.7995   31.7252   51.2356 H   0  0  0  0  0  0  0  0  0  0  0  0
   62.4072   30.1276   50.6071 H   0  0  0  0  0  0  0  0  0  0  0  0
   63.9488   32.4040   51.8674 H   0  0  0  0  0  0  0  0  0  0  0  0
   63.9633   30.6432   52.2519 H   0  0  0  0  0  0  0  0  0  0  0  0
   65.0972   33.2353   50.3137 H   0  0  0  0  0  0  0  0  0  0  0  0
   65.9979   32.2198   49.1126 H   0  0  0  0  0  0  0  0  0  0  0  0
   64.1384   31.7739   47.8585 H   0  0  0  0  0  0  0  0  0  0  0  0
   63.4832   34.4377   49.2515 H   0  0  0  0  0  0  0  0  0  0  0  0
   64.4411   34.2054   47.7497 H   0  0  0  0  0  0  0  0  0  0  0  0
   62.6759   33.8724   47.7497 H   0  0  0  0  0  0  0  0  0  0  0  0
   55.9538   27.4353   46.3288 H   0  0  0  0  0  0  0  0  0  0  0  0
  1  2  1  0
  2  3  1  0
  3  4  2  0
  4  5  1  0
  5  6  2  0
  6  7  1  0
  7  8  1  0
  8  9  2  0
  9 10  1  0
 10 11  2  0
 11 12  1  0
 12 13  1  0
 13 14  1  0
 14 15  1  0
 15 16  1  0
 16 17  1  0
 17 18  1  0
 18 19  1  0
 12 20  2  0
 20 21  1  0
 21 22  1  0
 22 23  1  0
 23 24  1  0
 24 25  1  0
 25 26  1  0
 26 27  1  0
 27 28  1  0
 21 29  2  0
 29 30  1  0
 30 31  2  0
  7 32  2  0
 32  3  1  0
 31  8  1  0
 30 11  1  0
 18 13  1  0
 27 22  1  0
  1 33  1  0
  1 34  1  0
  1 35  1  0
  4 36  1  0
  5 37  1  0
  6 38  1  0
  9 39  1  0
 10 40  1  0
 14 41  1  0
 14 42  1  0
 15 43  1  0
 15 44  1  0
 17 45  1  0
 17 46  1  0
 18 47  1  6
 19 48  1  0
 19 49  1  0
 19 50  1  0
 23 51  1  0
 23 52  1  0
 24 53  1  0
 24 54  1  0
 26 55  1  0
 26 56  1  0
 27 57  1  6
 28 58  1  0
 28 59  1  0
 28 60  1  0
 32 61  1  0
M  END
>  <UniqueID>  (11) 
11

>  <SMILES>  (11) 
COc1cccc(-c2ccc3c(N4CCOC[C@H]4C)nc(N4CCOC[C@@H]4C)nc3n2)c1

>  <Energy>  (11) 
89.55543309126887

>  <Genealogy>  (11) 
COc1cccc(-c2ccc3c(N4CCOC[C@H]4C)nc(N4CCOC[C@@H]4C)nc3n2)c1 (chirality)
COc1cccc(-c2ccc3c(N4CCOC[C@H]4C)nc(N4CCOC[C@@H]4C)nc3n2)c1 (3D coordinates assigned)
COc1cccc(-c2ccc3c(N4CCOC[C@H]4C)nc(N4CCOC[C@@H]4C)nc3n2)c1 (nonaromatic ring conformer: 89.55543309126887 kcal/mol)

>  <smiles>  (11) 
COc1cccc(-c2ccc3c(N4CCOCC4C)nc(N4CCOCC4C)nc3n2)c1

>  <score_type>  (11) 
oracle

>  <origin>  (11) 
adg

>  <m_score__min__energy>  (11) 
-8.4399999999999995

>  <m_primary>  (11) 
energy

$$$$
11:0
     RDKit          3D

 44 47  0  0  0  0  0  0  0  0999 V2000
   66.2130   32.5330   50.1530 C   0  0  0  0  0  0  0  0  0  0  0  0
   65.0460   33.1870   49.6650 O   0  0  0  0  0  0  0  0  0  0  0  0
   63.9710   32.5310   49.0490 C   0  0  0  0  0  0  0  0  0  0  0  0
   63.2000   31.6510   49.8170 C   0  0  0  0  0  0  0  0  0  0  0  0
   62.1150   30.9760   49.2510 C   0  0  0  0  0  0  0  0  0  0  0  0
   61.7740   31.1860   47.9060 C   0  0  0  0  0  0  0  0  0  0  0  0
   60.6310   30.4740   47.2890 C   0  0  0  0  0  0  0  0  0  0  0  0
   60.6960   29.1200   47.2150 N   0  0  0  0  0  0  0  0  0  0  0  0
   59.6930   28.3850   46.6800 C   0  0  0  0  0  0  0  0  0  0  0  0
   59.7970   26.9900   46.6290 C   0  0  0  0  0  0  0  0  0  0  0  0
   58.7590   26.2310   46.0810 C   0  0  0  0  0  0  0  0  0  0  0  0
   57.6150   26.8620   45.5830 C   0  0  0  0  0  0  0  0  0  0  0  0
   57.5040   28.2560   45.6310 C   0  0  0  0  0  0  0  0  0  0  0  0
   58.5450   29.0280   46.1810 C   0  0  0  0  0  0  0  0  0  0  0  0
   58.4900   30.4300   46.2430 C   0  0  0  0  0  0  0  0  0  0  0  0
   57.4820   31.0380   45.7840 O   0  0  0  0  0  0  0  0  0  0  0  0
   59.5340   31.1390   46.7850 N   0  0  0  0  0  0  0  0  0  0  0  0
   59.4800   32.5810   46.7710 C   0  0  0  0  0  0  0  0  0  0  0  0
   59.5980   33.2600   45.5470 C   0  0  0  0  0  0  0  0  0  0  0  0
   59.5240   34.6520   45.5000 C   0  0  0  0  0  0  0  0  0  0  0  0
   59.3370   35.3820   46.6750 C   0  0  0  0  0  0  0  0  0  0  0  0
   59.2400   34.7220   47.9020 C   0  0  0  0  0  0  0  0  0  0  0  0
   59.3320   33.3220   47.9680 C   0  0  0  0  0  0  0  0  0  0  0  0
   59.2290   32.6440   49.3070 C   0  0  0  0  0  0  0  0  0  0  0  0
   62.5620   32.0450   47.1250 C   0  0  0  0  0  0  0  0  0  0  0  0
   63.6470   32.7200   47.6920 C   0  0  0  0  0  0  0  0  0  0  0  0
   66.2034   32.5384   51.2529 H   0  0  0  0  0  0  0  0  0  0  0  0
   66.2294   31.4942   49.7915 H   0  0  0  0  0  0  0  0  0  0  0  0
   67.1076   33.0612   49.7915 H   0  0  0  0  0  0  0  0  0  0  0  0
   63.4503   31.4891   50.8758 H   0  0  0  0  0  0  0  0  0  0  0  0
   61.5256   30.2769   49.8625 H   0  0  0  0  0  0  0  0  0  0  0  0
   60.6958   26.4909   47.0203 H   0  0  0  0  0  0  0  0  0  0  0  0
   58.8423   25.1349   46.0415 H   0  0  0  0  0  0  0  0  0  0  0  0
   56.8004   26.2612   45.1525 H   0  0  0  0  0  0  0  0  0  0  0  0
   56.6025   28.7492   45.2386 H   0  0  0  0  0  0  0  0  0  0  0  0
   59.7499   32.6897   44.6187 H   0  0  0  0  0  0  0  0  0  0  0  0
   59.6131   35.1749   44.5363 H   0  0  0  0  0  0  0  0  0  0  0  0
   59.2659   36.4790   46.6345 H   0  0  0  0  0  0  0  0  0  0  0  0
   59.0904   35.3031   48.8239 H   0  0  0  0  0  0  0  0  0  0  0  0
   59.3425   33.3914   50.1061 H   0  0  0  0  0  0  0  0  0  0  0  0
   58.2466   32.1573   49.3970 H   0  0  0  0  0  0  0  0  0  0  0  0
   60.0225   31.8876   49.3970 H   0  0  0  0  0  0  0  0  0  0  0  0
   62.3247   32.1881   46.0605 H   0  0  0  0  0  0  0  0  0  0  0  0
   64.2504   33.4020   47.0750 H   0  0  0  0  0  0  0  0  0  0  0  0
  1  2  1  0
  2  3  1  0
  3  4  2  0
  4  5  1  0
  5  6  2  0
  6  7  1  0
  7  8  2  0
  8  9  1  0
  9 10  2  0
 10 11  1  0
 11 12  2  0
 12 13  1  0
 13 14  2  0
 14 15  1  0
 15 16  2  0
 15 17  1  0
 17 18  1  0
 18 19  2  0
 19 20  1  0
 20 21  2  0
 21 22  1  0
 22 23  2  0
 23 24  1  0
  6 25  1  0
 25 26  2  0
 26  3  1  0
 17  7  1  0
 23 18  1  0
 14  9  1  0
  1 27  1  0
  1 28  1  0
  1 29  1  0
  4 30  1  0
  5 31  1  0
 10 32  1  0
 11 33  1  0
 12 34  1  0
 13 35  1  0
 19 36  1  0
 20 37  1  0
 21 38  1  0
 22 39  1  0
 24 40  1  0
 24 41  1  0
 24 42  1  0
 25 43  1  0
 26 44  1  0
M  END
>  <UniqueID>  (12) 
12

>  <SMILES>  (12) 
COc1ccc(-c2nc3ccccc3c(=O)n2-c2ccccc2C)cc1

>  <Energy>  (12) 
67.3675687284056

>  <Genealogy>  (12) 
COc1ccc(-c2nc3ccccc3c(=O)n2-c2ccccc2C)cc1 (3D coordinates assigned)
COc1ccc(-c2nc3ccccc3c(=O)n2-c2ccccc2C)cc1 (optimized conformer: 67.3675687284056 kcal/mol)

>  <smiles>  (12) 
COc1ccc(-c2nc3ccccc3c(=O)n2-c2ccccc2C)cc1

>  <score_type>  (12) 
oracle

>  <origin>  (12) 
adg

>  <m_score__min__energy>  (12) 
-7.6500000000000004

>  <m_primary>  (12) 
energy

$$$$
12:0
     RDKit          3D

 41 43  0  0  0  0  0  0  0  0999 V2000
   57.8360   27.6270   47.1240 C   0  0  0  0  0  0  0  0  0  0  0  0
   57.8590   27.1260   45.7010 C   0  0  0  0  0  0  0  0  0  0  0  0
   57.6650   25.7580   45.4590 C   0  0  0  0  0  0  0  0  0  0  0  0
   57.6260   25.2700   44.1450 C   0  0  0  0  0  0  0  0  0  0  0  0
   57.4200   23.8230   43.8850 C   0  0  0  0  0  0  0  0  0  0  0  0
   58.2370   22.8610   44.5010 C   0  0  0  0  0  0  0  0  0  0  0  0
   58.0330   21.5030   44.2500 C   0  0  0  0  0  0  0  0  0  0  0  0
   57.0090   21.1130   43.3860 C   0  0  0  0  0  0  0  0  0  0  0  0
   56.2220   22.0510   42.7970 N   0  0  0  0  0  0  0  0  0  0  0  0
   56.4010   23.3800   43.0220 C   0  0  0  0  0  0  0  0  0  0  0  0
   57.7640   26.1430   43.1050 N   0  0  0  0  0  0  0  0  0  0  0  0
   57.9450   27.4750   43.3050 C   0  0  0  0  0  0  0  0  0  0  0  0
   58.0010   28.0060   44.6020 C   0  0  0  0  0  0  0  0  0  0  0  0
   58.2260   29.4970   44.7790 C   0  0  0  0  0  0  0  0  0  0  0  0
   56.9610   30.2480   44.8720 N   0  0  0  0  0  0  0  0  0  0  0  0
   57.0250   31.5640   44.2180 C   0  0  0  0  0  0  0  0  0  0  0  0
   57.7640   32.5540   45.0780 C   0  0  0  0  0  0  0  0  0  0  0  0
   57.7760   32.4050   46.4730 C   0  0  0  0  0  0  0  0  0  0  0  0
   58.4570   33.3380   47.2590 C   0  0  0  0  0  0  0  0  0  0  0  0
   59.1020   34.3810   46.6730 N   0  0  0  0  0  0  0  0  0  0  0  0
   59.1060   34.5500   45.3240 C   0  0  0  0  0  0  0  0  0  0  0  0
   58.4380   33.6410   44.5010 C   0  0  0  0  0  0  0  0  0  0  0  0
   57.8753   26.7717   47.8145 H   0  0  0  0  0  0  0  0  0  0  0  0
   58.7052   28.2785   47.2975 H   0  0  0  0  0  0  0  0  0  0  0  0
   56.9108   28.1961   47.2975 H   0  0  0  0  0  0  0  0  0  0  0  0
   57.5429   25.0646   46.3042 H   0  0  0  0  0  0  0  0  0  0  0  0
   59.0396   23.1784   45.1829 H   0  0  0  0  0  0  0  0  0  0  0  0
   58.6734   20.7476   44.7288 H   0  0  0  0  0  0  0  0  0  0  0  0
   56.8388   20.0456   43.1817 H   0  0  0  0  0  0  0  0  0  0  0  0
   55.7461   24.1121   42.5270 H   0  0  0  0  0  0  0  0  0  0  0  0
   57.7530   25.7930   42.1210 H   0  0  0  0  0  0  0  0  0  0  0  0
   58.0489   28.1451   42.4389 H   0  0  0  0  0  0  0  0  0  0  0  0
   58.8027   29.6604   45.7014 H   0  0  0  0  0  0  0  0  0  0  0  0
   58.7690   29.8620   43.8948 H   0  0  0  0  0  0  0  0  0  0  0  0
   56.7110   30.3950   45.8770 H   0  0  0  0  0  0  0  0  0  0  0  0
   57.5469   31.4629   43.2550 H   0  0  0  0  0  0  0  0  0  0  0  0
   55.9995   31.9298   44.0617 H   0  0  0  0  0  0  0  0  0  0  0  0
   57.2531   31.5598   46.9444 H   0  0  0  0  0  0  0  0  0  0  0  0
   58.4712   33.2283   48.3534 H   0  0  0  0  0  0  0  0  0  0  0  0
   59.6368   35.4049   44.8798 H   0  0  0  0  0  0  0  0  0  0  0  0
   58.4401   33.7760   43.4093 H   0  0  0  0  0  0  0  0  0  0  0  0
  1  2  1  0
  2  3  2  0
  3  4  1  0
  4  5  1  0
  5  6  2  0
  6  7  1  0
  7  8  2  0
  8  9  1  0
  9 10  2  0
  4 11  2  0
 11 12  1  0
 12 13  2  0
 13 14  1  0
 14 15  1  0
 15 16  1  0
 16 17  1  0
 17 18  2  0
 18 19  1  0
 19 20  2  0
 20 21  1  0
 21 22  2  0
 13  2  1  0
 22 17  1  0
 10  5  1  0
  1 23  1  0
  1 24  1  0
  1 25  1  0
  3 26  1  0
  6 27  1  0
  7 28  1  0
  8 29  1  0
 10 30  1  0
 11 31  1  0
 12 32  1  0
 14 33  1  0
 14 34  1  0
 15 35  1  0
 16 36  1  0
 16 37  1  0
 18 38  1  0
 19 39  1  0
 21 40  1  0
 22 41  1  0
M  CHG  1  11   1
M  END
>  <UniqueID>  (13) 
13

>  <SMILES>  (13) 
Cc1cc(-c2cccnc2)[nH+]cc1CNCc1ccncc1

>  <Energy>  (13) 
51.56673520237361

>  <Genealogy>  (13) 
Cc1cc(-c2cccnc2)[nH+]cc1CNCc1ccncc1 (protonated)
Cc1cc(-c2cccnc2)[nH+]cc1CNCc1ccncc1 (3D coordinates assigned)
Cc1cc(-c2cccnc2)[nH+]cc1CNCc1ccncc1 (optimized conformer: 51.56673520237361 kcal/mol)

>  <smiles>  (13) 
Cc1cc(-c2cccnc2)ncc1CNCc1ccncc1

>  <score_type>  (13) 
oracle

>  <origin>  (13) 
adg

>  <m_score__min__energy>  (13) 
-6.4199999999999999

>  <m_primary>  (13) 
energy

$$$$
13:0
     RDKit          3D

 44 47  0  0  0  0  0  0  0  0999 V2000
   57.9270   25.9580   47.0740 C   0  0  0  0  0  0  0  0  0  0  0  0
   59.2800   26.5060   47.2800 N   0  0  0  0  0  0  0  0  0  0  0  0
   60.0180   26.6690   46.0010 C   0  0  0  0  0  0  0  0  0  0  0  0
   60.1070   28.1250   45.4980 C   0  0  0  0  0  0  0  0  0  0  0  0
   58.9570   28.9110   45.9510 N   0  0  0  0  0  0  0  0  0  0  0  0
   58.3210   29.8400   45.0590 C   0  0  0  0  0  0  0  0  0  0  0  0
   57.5200   29.3830   43.9960 C   0  0  0  0  0  0  0  0  0  0  0  0
   56.9110   30.3060   43.1250 C   0  0  0  0  0  0  0  0  0  0  0  0
   57.0970   31.6460   43.2980 N   0  0  0  0  0  0  0  0  0  0  0  0
   57.8740   32.0860   44.3190 C   0  0  0  0  0  0  0  0  0  0  0  0
   58.2510   33.6790   44.6920 S   0  0  0  0  0  0  0  0  0  0  0  0
   59.2430   33.2770   46.0070 C   0  0  0  0  0  0  0  0  0  0  0  0
   59.9290   34.2590   46.8690 C   0  0  0  0  0  0  0  0  0  0  0  0
   59.3730   35.3710   47.0830 O   0  0  0  0  0  0  0  0  0  0  0  0
   61.2370   33.9770   47.5030 C   0  0  0  0  0  0  0  0  0  0  0  0
   61.4140   34.2020   48.8780 C   0  0  0  0  0  0  0  0  0  0  0  0
   62.6470   33.9390   49.4850 C   0  0  0  0  0  0  0  0  0  0  0  0
   63.7160   33.4620   48.7230 C   0  0  0  0  0  0  0  0  0  0  0  0
   63.5570   33.2550   47.3510 C   0  0  0  0  0  0  0  0  0  0  0  0
   62.3280   33.5180   46.7400 C   0  0  0  0  0  0  0  0  0  0  0  0
   59.2630   31.8880   46.1670 C   0  0  0  0  0  0  0  0  0  0  0  0
   58.4930   31.2230   45.2050 C   0  0  0  0  0  0  0  0  0  0  0  0
   58.5880   28.9030   47.3690 C   0  0  0  0  0  0  0  0  0  0  0  0
   59.2610   27.7330   48.1020 C   0  0  0  0  0  0  0  0  0  0  0  0
   57.4562   25.7673   48.0497 H   0  0  0  0  0  0  0  0  0  0  0  0
   57.3205   26.6814   46.5093 H   0  0  0  0  0  0  0  0  0  0  0  0
   57.9948   25.0164   46.5093 H   0  0  0  0  0  0  0  0  0  0  0  0
   61.0411   26.2910   46.1435 H   0  0  0  0  0  0  0  0  0  0  0  0
   59.4558   26.1077   45.2402 H   0  0  0  0  0  0  0  0  0  0  0  0
   61.0296   28.5828   45.8844 H   0  0  0  0  0  0  0  0  0  0  0  0
   60.1116   28.1148   44.3981 H   0  0  0  0  0  0  0  0  0  0  0  0
   57.3697   28.3037   43.8456 H   0  0  0  0  0  0  0  0  0  0  0  0
   56.2808   29.9441   42.2992 H   0  0  0  0  0  0  0  0  0  0  0  0
   56.6470   32.3280   42.6460 H   0  0  0  0  0  0  0  0  0  0  0  0
   60.5786   34.5872   49.4811 H   0  0  0  0  0  0  0  0  0  0  0  0
   62.7747   34.1082   50.5644 H   0  0  0  0  0  0  0  0  0  0  0  0
   64.6826   33.2495   49.2032 H   0  0  0  0  0  0  0  0  0  0  0  0
   64.4006   32.8843   46.7503 H   0  0  0  0  0  0  0  0  0  0  0  0
   62.2121   33.3656   45.6568 H   0  0  0  0  0  0  0  0  0  0  0  0
   59.8227   31.3737   46.9621 H   0  0  0  0  0  0  0  0  0  0  0  0
   58.9079   29.8491   47.8301 H   0  0  0  0  0  0  0  0  0  0  0  0
   57.4970   28.7875   47.4484 H   0  0  0  0  0  0  0  0  0  0  0  0
   60.2963   28.0141   48.3454 H   0  0  0  0  0  0  0  0  0  0  0  0
   58.6822   27.5237   49.0137 H   0  0  0  0  0  0  0  0  0  0  0  0
  1  2  1  0
  2  3  1  0
  3  4  1  0
  4  5  1  0
  5  6  1  0
  6  7  2  0
  7  8  1  0
  8  9  2  0
  9 10  1  0
 10 11  1  0
 11 12  1  0
 12 13  1  0
 13 14  2  0
 13 15  1  0
 15 16  2  0
 16 17  1  0
 17 18  2  0
 18 19  1  0
 19 20  2  0
 12 21  2  0
 21 22  1  0
  5 23  1  0
 23 24  1  0
 24  2  1  0
 22  6  1  0
 22 10  2  0
 20 15  1  0
  1 25  1  0
  1 26  1  0
  1 27  1  0
  3 28  1  0
  3 29  1  0
  4 30  1  0
  4 31  1  0
  7 32  1  0
  8 33  1  0
  9 34  1  0
 16 35  1  0
 17 36  1  0
 18 37  1  0
 19 38  1  0
 20 39  1  0
 21 40  1  0
 23 41  1  0
 23 42  1  0
 24 43  1  0
 24 44  1  0
M  CHG  1   9   1
M  END
>  <UniqueID>  (14) 
14

>  <SMILES>  (14) 
CN1CCN(c2cc[nH+]c3sc(C(=O)c4ccccc4)cc23)CC1

>  <Energy>  (14) 
93.54428773553401

>  <Genealogy>  (14) 
CN1CCN(c2cc[nH+]c3sc(C(=O)c4ccccc4)cc23)CC1 (protonated)
CN1CCN(c2cc[nH+]c3sc(C(=O)c4ccccc4)cc23)CC1 (3D coordinates assigned)
CN1CCN(c2cc[nH+]c3sc(C(=O)c4ccccc4)cc23)CC1 (nonaromatic ring conformer: 93.54428773553401 kcal/mol)

>  <smiles>  (14) 
CN1CCN(c2ccnc3sc(C(=O)c4ccccc4)cc23)CC1

>  <score_type>  (14) 
oracle

>  <origin>  (14) 
adg

>  <m_score__min__energy>  (14) 
-6.5499999999999998

>  <m_primary>  (14) 
energy

$$$$
14:0
     RDKit          3D

 40 43  0  0  0  0  0  0  0  0999 V2000
   58.8940   35.0100   47.9750 O   0  0  0  0  0  0  0  0  0  0  0  0
   59.7740   34.6620   46.8060 S   0  0  0  0  0  0  0  0  0  0  0  0
   60.0160   35.9100   46.0050 O   0  0  0  0  0  0  0  0  0  0  0  0
   61.2910   34.0310   47.4410 C   0  0  0  0  0  0  0  0  0  0  0  0
   61.5270   34.0520   48.8230 C   0  0  0  0  0  0  0  0  0  0  0  0
   62.7110   33.5190   49.3420 C   0  0  0  0  0  0  0  0  0  0  0  0
   63.6660   32.9660   48.4830 C   0  0  0  0  0  0  0  0  0  0  0  0
   64.8110   32.4440   48.9880 F   0  0  0  0  0  0  0  0  0  0  0  0
   63.4380   32.9500   47.1030 C   0  0  0  0  0  0  0  0  0  0  0  0
   62.2550   33.4820   46.5820 C   0  0  0  0  0  0  0  0  0  0  0  0
   58.9810   33.4590   45.7710 C   0  0  0  0  0  0  0  0  0  0  0  0
   58.5530   33.8500   44.4960 C   0  0  0  0  0  0  0  0  0  0  0  0
   57.9330   32.9700   43.6730 N   0  0  0  0  0  0  0  0  0  0  0  0
   57.7030   31.6820   44.0350 C   0  0  0  0  0  0  0  0  0  0  0  0
   57.0600   30.8170   43.1410 C   0  0  0  0  0  0  0  0  0  0  0  0
   56.6630   31.2620   41.9220 F   0  0  0  0  0  0  0  0  0  0  0  0
   56.8280   29.4870   43.4980 C   0  0  0  0  0  0  0  0  0  0  0  0
   57.2380   29.0140   44.7440 C   0  0  0  0  0  0  0  0  0  0  0  0
   57.8800   29.8680   45.6450 C   0  0  0  0  0  0  0  0  0  0  0  0
   58.1160   31.2180   45.3070 C   0  0  0  0  0  0  0  0  0  0  0  0
   58.7620   32.1220   46.1890 C   0  0  0  0  0  0  0  0  0  0  0  0
   59.1860   31.6790   47.5370 C   0  0  0  0  0  0  0  0  0  0  0  0
   60.2810   30.8110   47.6790 C   0  0  0  0  0  0  0  0  0  0  0  0
   60.6770   30.3830   48.9490 C   0  0  0  0  0  0  0  0  0  0  0  0
   59.9900   30.8250   50.0820 C   0  0  0  0  0  0  0  0  0  0  0  0
   58.9090   31.7020   49.9470 C   0  0  0  0  0  0  0  0  0  0  0  0
   58.5110   32.1330   48.6790 C   0  0  0  0  0  0  0  0  0  0  0  0
   60.7788   34.4889   49.5007 H   0  0  0  0  0  0  0  0  0  0  0  0
   62.8914   33.5347   50.4270 H   0  0  0  0  0  0  0  0  0  0  0  0
   64.1906   32.5182   46.4269 H   0  0  0  0  0  0  0  0  0  0  0  0
   62.0795   33.4702   45.4962 H   0  0  0  0  0  0  0  0  0  0  0  0
   58.7221   34.8833   44.1589 H   0  0  0  0  0  0  0  0  0  0  0  0
   56.3205   28.8107   42.7944 H   0  0  0  0  0  0  0  0  0  0  0  0
   57.0554   27.9647   45.0189 H   0  0  0  0  0  0  0  0  0  0  0  0
   58.2036   29.4855   46.6243 H   0  0  0  0  0  0  0  0  0  0  0  0
   60.8280   30.4674   46.7887 H   0  0  0  0  0  0  0  0  0  0  0  0
   61.5305   29.6974   49.0565 H   0  0  0  0  0  0  0  0  0  0  0  0
   60.2993   30.4832   51.0807 H   0  0  0  0  0  0  0  0  0  0  0  0
   58.3714   32.0529   50.8403 H   0  0  0  0  0  0  0  0  0  0  0  0
   57.6662   32.8300   48.5764 H   0  0  0  0  0  0  0  0  0  0  0  0
  1  2  2  0
  2  3  2  0
  2  4  1  0
  4  5  2  0
  5  6  1  0
  6  7  2  0
  7  8  1  0
  7  9  1  0
  9 10  2  0
  2 11  1  0
 11 12  2  0
 12 13  1  0
 13 14  2  0
 14 15  1  0
 15 16  1  0
 15 17  2  0
 17 18  1  0
 18 19  2  0
 19 20  1  0
 20 21  2  0
 21 22  1  0
 22 23  2  0
 23 24  1  0
 24 25  2  0
 25 26  1  0
 26 27  2  0
 10  4  1  0
 21 11  1  0
 27 22  1  0
 20 14  1  0
  5 28  1  0
  6 29  1  0
  9 30  1  0
 10 31  1  0
 12 32  1  0
 17 33  1  0
 18 34  1  0
 19 35  1  0
 23 36  1  0
 24 37  1  0
 25 38  1  0
 26 39  1  0
 27 40  1  0
M  END
>  <UniqueID>  (15) 
15

>  <SMILES>  (15) 
O=S(=O)(c1ccc(F)cc1)c1cnc2c(F)cccc2c1-c1ccccc1

>  <Energy>  (15) 
58.27705697238951

>  <Genealogy>  (15) 
O=S(=O)(c1ccc(F)cc1)c1cnc2c(F)cccc2c1-c1ccccc1 (3D coordinates assigned)
O=S(=O)(c1ccc(F)cc1)c1cnc2c(F)cccc2c1-c1ccccc1 (optimized conformer: 58.27705697238951 kcal/mol)

>  <smiles>  (15) 
O=S(=O)(c1ccc(F)cc1)c1cnc2c(F)cccc2c1-c1ccccc1

>  <score_type>  (15) 
oracle

>  <origin>  (15) 
adg

>  <m_score__min__energy>  (15) 
-8.8300000000000001

>  <m_primary>  (15) 
energy

$$$$
15:0
     RDKit          3D

 45 49  0  0  0  0  0  0  0  0999 V2000
   55.1830   26.4060   45.9940 N   0  0  0  0  0  0  0  0  0  0  0  0
   56.6090   26.3600   45.9680 C   0  0  0  0  0  0  0  0  0  0  0  0
   57.1840   25.2610   45.7370 O   0  0  0  0  0  0  0  0  0  0  0  0
   57.4070   27.5850   46.2080 C   0  0  0  0  0  0  0  0  0  0  0  0
   58.5550   27.5510   47.0150 C   0  0  0  0  0  0  0  0  0  0  0  0
   59.2960   28.7140   47.2310 C   0  0  0  0  0  0  0  0  0  0  0  0
   58.8900   29.9120   46.6330 C   0  0  0  0  0  0  0  0  0  0  0  0
   59.6240   31.1250   46.8500 N   0  0  0  0  0  0  0  0  0  0  0  0
   59.4910   32.3020   46.1820 C   0  0  0  0  0  0  0  0  0  0  0  0
   60.3000   33.2740   46.7510 C   0  0  0  0  0  0  0  0  0  0  0  0
   60.9810   32.6540   47.7760 C   0  0  0  0  0  0  0  0  0  0  0  0
   61.9320   33.1400   48.6660 C   0  0  0  0  0  0  0  0  0  0  0  0
   62.4480   32.2560   49.6290 C   0  0  0  0  0  0  0  0  0  0  0  0
   62.0090   30.9030   49.6880 C   0  0  0  0  0  0  0  0  0  0  0  0
   62.5370   29.9890   50.6720 N   0  0  0  0  0  0  0  0  0  0  0  0
   63.7170   30.0590   51.3270 C   0  0  0  0  0  0  0  0  0  0  0  0
   63.7800   28.9620   52.1590 C   0  0  0  0  0  0  0  0  0  0  0  0
   62.6430   28.2670   51.9840 N   0  0  0  0  0  0  0  0  0  0  0  0
   61.9070   28.8990   51.0840 N   0  0  0  0  0  0  0  0  0  0  0  0
   61.0370   30.4520   48.7630 C   0  0  0  0  0  0  0  0  0  0  0  0
   60.5380   31.3550   47.8190 C   0  0  0  0  0  0  0  0  0  0  0  0
   60.4010   34.6870   46.2620 C   0  0  0  0  0  0  0  0  0  0  0  0
   59.1530   35.0580   45.4400 C   0  0  0  0  0  0  0  0  0  0  0  0
   58.7890   33.9520   44.4300 C   0  0  0  0  0  0  0  0  0  0  0  0
   58.4600   32.6210   45.1340 C   0  0  0  0  0  0  0  0  0  0  0  0
   57.7680   29.9310   45.8630 N   0  0  0  0  0  0  0  0  0  0  0  0
   57.0290   28.8130   45.6370 C   0  0  0  0  0  0  0  0  0  0  0  0
   54.6790   27.0890   46.6030 H   0  0  0  0  0  0  0  0  0  0  0  0
   58.8716   26.6050   47.4786 H   0  0  0  0  0  0  0  0  0  0  0  0
   60.1931   28.6888   47.8671 H   0  0  0  0  0  0  0  0  0  0  0  0
   62.2706   34.1855   48.6179 H   0  0  0  0  0  0  0  0  0  0  0  0
   63.2009   32.6142   50.3465 H   0  0  0  0  0  0  0  0  0  0  0  0
   64.4815   30.8422   51.2171 H   0  0  0  0  0  0  0  0  0  0  0  0
   64.6056   28.7038   52.8385 H   0  0  0  0  0  0  0  0  0  0  0  0
   62.3710   27.3800   52.4610 H   0  0  0  0  0  0  0  0  0  0  0  0
   60.6811   29.4114   48.7863 H   0  0  0  0  0  0  0  0  0  0  0  0
   60.4821   35.3647   47.1246 H   0  0  0  0  0  0  0  0  0  0  0  0
   61.2916   34.7820   45.6234 H   0  0  0  0  0  0  0  0  0  0  0  0
   58.3059   35.2083   46.1254 H   0  0  0  0  0  0  0  0  0  0  0  0
   59.3721   35.9781   44.8783 H   0  0  0  0  0  0  0  0  0  0  0  0
   57.9120   34.2743   43.8495 H   0  0  0  0  0  0  0  0  0  0  0  0
   59.6573   33.7873   43.7750 H   0  0  0  0  0  0  0  0  0  0  0  0
   57.4725   32.7003   45.6120 H   0  0  0  0  0  0  0  0  0  0  0  0
   58.4588   31.8163   44.3840 H   0  0  0  0  0  0  0  0  0  0  0  0
   56.1309   28.8691   45.0044 H   0  0  0  0  0  0  0  0  0  0  0  0
  1  2  1  0
  2  3  2  0
  2  4  1  0
  4  5  2  0
  5  6  1  0
  6  7  2  0
  7  8  1  0
  8  9  1  0
  9 10  2  0
 10 11  1  0
 11 12  2  0
 12 13  1  0
 13 14  2  0
 14 15  1  0
 15 16  1  0
 16 17  2  0
 17 18  1  0
 18 19  2  0
 14 20  1  0
 20 21  2  0
 10 22  1  0
 22 23  1  0
 23 24  1  0
 24 25  1  0
  7 26  1  0
 26 27  2  0
 27  4  1  0
 21  8  1  0
 25  9  1  0
 21 11  1  0
 19 15  1  0
  1 28  1  0
  5 29  1  0
  6 30  1  0
 12 31  1  0
 13 32  1  0
 16 33  1  0
 17 34  1  0
 18 35  1  0
 20 36  1  0
 22 37  1  0
 22 38  1  0
 23 39  1  0
 23 40  1  0
 24 41  1  0
 24 42  1  0
 25 43  1  0
 25 44  1  0
 27 45  1  0
M  CHG  2   1  -1  18   1
M  END
>  <UniqueID>  (16) 
16

>  <SMILES>  (16) 
[NH-]C(=O)c1ccc(-n2c3c(c4ccc(-n5cc[nH+]n5)cc42)CCCC3)nc1

>  <Energy>  (16) 
128.45192314273805

>  <Genealogy>  (16) 
[NH-]C(=O)c1ccc(-n2c3c(c4ccc(-n5cc[nH+]n5)cc42)CCCC3)nc1 (protonated)
[NH-]C(=O)c1ccc(-n2c3c(c4ccc(-n5cc[nH+]n5)cc42)CCCC3)nc1 (3D coordinates assigned)
[NH-]C(=O)c1ccc(-n2c3c(c4ccc(-n5cc[nH+]n5)cc42)CCCC3)nc1 (nonaromatic ring conformer: 128.45192314273805 kcal/mol)

>  <smiles>  (16) 
NC(=O)c1ccc(-n2c3c(c4ccc(-n5ccnn5)cc42)CCCC3)nc1

>  <score_type>  (16) 
oracle

>  <origin>  (16) 
adg

>  <m_score__min__energy>  (16) 
-10.02

>  <m_primary>  (16) 
energy

$$$$
16:0
     RDKit          3D

 54 55  0  0  0  0  0  0  0  0999 V2000
   57.7680   30.0070   45.7940 C   0  0  0  0  0  0  0  0  0  0  0  0
   58.5900   30.5050   44.6070 C   0  0  0  0  0  0  0  0  0  0  0  0
   57.9790   31.7050   43.9970 N   0  0  0  0  0  0  0  0  0  0  0  0
   57.3970   31.4770   42.6550 C   0  0  0  0  0  0  0  0  0  0  0  0
   58.1200   32.3400   41.6280 C   0  0  0  0  0  0  0  0  0  0  0  0
   57.1020   32.4720   44.9160 C   0  0  0  0  0  0  0  0  0  0  0  0
   57.6860   33.8050   45.4640 C   0  0  0  0  0  0  0  0  0  0  0  0
   59.1230   34.0110   45.1970 N   0  0  0  0  0  0  0  0  0  0  0  0
   59.8260   34.6110   46.3560 C   0  0  0  0  0  0  0  0  0  0  0  0
   60.8590   33.6540   47.0710 C   0  0  1  0  0  0  0  0  0  0  0  0
   62.2520   33.8140   46.3660 C   0  0  0  0  0  0  0  0  0  0  0  0
   63.4940   33.6100   47.2550 C   0  0  0  0  0  0  0  0  0  0  0  0
   63.2110   32.7650   48.4880 C   0  0  0  0  0  0  0  0  0  0  0  0
   62.1420   33.4190   49.3670 C   0  0  0  0  0  0  0  0  0  0  0  0
   60.9820   34.1000   48.5760 C   0  0  2  0  0  0  0  0  0  0  0  0
   59.6430   33.9450   49.3460 C   0  0  0  0  0  0  0  0  0  0  0  0
   58.8380   32.6830   48.9700 C   0  0  0  0  0  0  0  0  0  0  0  0
   59.6770   31.6200   48.2560 C   0  0  0  0  0  0  0  0  0  0  0  0
   60.3620   32.1600   46.9860 C   0  0  0  0  0  0  0  0  0  0  0  0
   58.2600   30.3051   46.7316 H   0  0  0  0  0  0  0  0  0  0  0  0
   56.7606   30.4468   45.7527 H   0  0  0  0  0  0  0  0  0  0  0  0
   57.6914   28.9105   45.7527 H   0  0  0  0  0  0  0  0  0  0  0  0
   59.6037   30.7554   44.9529 H   0  0  0  0  0  0  0  0  0  0  0  0
   58.6234   29.7086   43.8489 H   0  0  0  0  0  0  0  0  0  0  0  0
   57.5072   30.4166   42.3840 H   0  0  0  0  0  0  0  0  0  0  0  0
   56.3304   31.7455   42.6702 H   0  0  0  0  0  0  0  0  0  0  0  0
   58.7428   33.0834   42.1471 H   0  0  0  0  0  0  0  0  0  0  0  0
   58.7580   31.7030   40.9978 H   0  0  0  0  0  0  0  0  0  0  0  0
   57.3811   32.8565   40.9978 H   0  0  0  0  0  0  0  0  0  0  0  0
   56.1736   32.7087   44.3755 H   0  0  0  0  0  0  0  0  0  0  0  0
   56.9597   31.8274   45.7959 H   0  0  0  0  0  0  0  0  0  0  0  0
   57.1306   34.6358   45.0042 H   0  0  0  0  0  0  0  0  0  0  0  0
   57.5789   33.7617   46.5579 H   0  0  0  0  0  0  0  0  0  0  0  0
   59.5530   33.1140   44.8900 H   0  0  0  0  0  0  0  0  0  0  0  0
   59.1760   34.6640   44.3830 H   0  0  0  0  0  0  0  0  0  0  0  0
   60.3699   35.4999   46.0038 H   0  0  0  0  0  0  0  0  0  0  0  0
   59.0516   34.8437   47.1017 H   0  0  0  0  0  0  0  0  0  0  0  0
   62.3017   34.8306   45.9487 H   0  0  0  0  0  0  0  0  0  0  0  0
   62.2943   33.0121   45.6142 H   0  0  0  0  0  0  0  0  0  0  0  0
   63.8569   34.5957   47.5815 H   0  0  0  0  0  0  0  0  0  0  0  0
   64.2438   33.0743   46.6543 H   0  0  0  0  0  0  0  0  0  0  0  0
   64.1380   32.6559   49.0700 H   0  0  0  0  0  0  0  0  0  0  0  0
   62.8430   31.7810   48.1619 H   0  0  0  0  0  0  0  0  0  0  0  0
   62.6295   34.1843   49.9889 H   0  0  0  0  0  0  0  0  0  0  0  0
   61.6857   32.6113   49.9581 H   0  0  0  0  0  0  0  0  0  0  0  0
   61.2391   35.1678   48.5147 H   0  0  0  0  0  0  0  0  0  0  0  0
   59.0201   34.8268   49.1352 H   0  0  0  0  0  0  0  0  0  0  0  0
   59.9007   33.8492   50.4111 H   0  0  0  0  0  0  0  0  0  0  0  0
   58.0127   32.9802   48.3063 H   0  0  0  0  0  0  0  0  0  0  0  0
   58.4756   32.2364   49.9076 H   0  0  0  0  0  0  0  0  0  0  0  0
   59.0202   30.7840   47.9736 H   0  0  0  0  0  0  0  0  0  0  0  0
   60.4677   31.2985   48.9498 H   0  0  0  0  0  0  0  0  0  0  0  0
   59.6440   32.0876   46.1558 H   0  0  0  0  0  0  0  0  0  0  0  0
   61.2643   31.5472   46.8435 H   0  0  0  0  0  0  0  0  0  0  0  0
  1  2  1  0
  2  3  1  0
  3  4  1  0
  4  5  1  0
  3  6  1  0
  6  7  1  0
  7  8  1  0
  8  9  1  0
 10  9  1  6
 10 11  1  0
 11 12  1  0
 12 13  1  0
 13 14  1  0
 14 15  1  0
 15 16  1  0
 16 17  1  0
 17 18  1  0
 18 19  1  0
 15 10  1  0
 19 10  1  0
  1 20  1  0
  1 21  1  0
  1 22  1  0
  2 23  1  0
  2 24  1  0
  4 25  1  0
  4 26  1  0
  5 27  1  0
  5 28  1  0
  5 29  1  0
  6 30  1  0
  6 31  1  0
  7 32  1  0
  7 33  1  0
  8 34  1  0
  8 35  1  0
  9 36  1  0
  9 37  1  0
 11 38  1  0
 11 39  1  0
 12 40  1  0
 12 41  1  0
 13 42  1  0
 13 43  1  0
 14 44  1  0
 14 45  1  0
 15 46  1  6
 16 47  1  0
 16 48  1  0
 17 49  1  0
 17 50  1  0
 18 51  1  0
 18 52  1  0
 19 53  1  0
 19 54  1  0
M  CHG  1   8   1
M  END
>  <UniqueID>  (17) 
17

>  <SMILES>  (17) 
CCN(CC)CC[NH2+]CC12CCCCC1CCCC2

>  <Energy>  (17) 
72.79554699297618

>  <Genealogy>  (17) 
CCN(CC)CC[NH2+]CC12CCCCC1CCCC2 (protonated)
CCN(CC)CC[NH2+]CC12CCCCC1CCCC2 (3D coordinates assigned)
CCN(CC)CC[NH2+]CC12CCCCC1CCCC2 (nonaromatic ring conformer: 72.79554699297618 kcal/mol)

>  <smiles>  (17) 
CCN(CC)CCNCC12CCCCC1CCCC2

>  <score_type>  (17) 
oracle

>  <origin>  (17) 
adg

>  <m_score__min__energy>  (17) 
-5.54

>  <m_primary>  (17) 
energy

$$$$
17:0
     RDKit          3D

 44 45  0  0  0  0  0  0  0  0999 V2000
   58.3450   27.4960   43.7270 C   0  0  0  0  0  0  0  0  0  0  0  0
   58.5200   28.2680   44.8930 O   0  0  0  0  0  0  0  0  0  0  0  0
   59.7930   28.8790   44.8670 C   0  0  0  0  0  0  0  0  0  0  0  0
   60.3560   28.9990   46.2950 C   0  0  0  0  0  0  0  0  0  0  0  0
   60.2330   30.3490   46.8950 N   0  0  0  0  0  0  0  0  0  0  0  0
   60.9650   30.4850   48.1760 C   0  0  0  0  0  0  0  0  0  0  0  0
   61.9160   31.6500   48.1130 C   0  0  0  0  0  0  0  0  0  0  0  0
   62.9180   31.6860   47.1280 C   0  0  0  0  0  0  0  0  0  0  0  0
   63.7700   32.7900   47.0300 C   0  0  0  0  0  0  0  0  0  0  0  0
   63.6380   33.8580   47.9210 C   0  0  0  0  0  0  0  0  0  0  0  0
   62.6570   33.8220   48.9160 C   0  0  0  0  0  0  0  0  0  0  0  0
   62.5280   34.8600   49.7780 F   0  0  0  0  0  0  0  0  0  0  0  0
   61.8010   32.7200   49.0170 C   0  0  0  0  0  0  0  0  0  0  0  0
   58.8290   30.8170   46.9670 C   0  0  0  0  0  0  0  0  0  0  0  0
   58.6610   32.1380   46.2540 C   0  0  0  0  0  0  0  0  0  0  0  0
   59.4690   33.2320   46.6100 C   0  0  0  0  0  0  0  0  0  0  0  0
   59.3550   34.4450   45.9300 C   0  0  0  0  0  0  0  0  0  0  0  0
   58.4310   34.5830   44.8950 C   0  0  0  0  0  0  0  0  0  0  0  0
   57.6090   33.5120   44.5410 C   0  0  0  0  0  0  0  0  0  0  0  0
   57.7120   32.2800   45.2190 C   0  0  0  0  0  0  0  0  0  0  0  0
   56.9040   31.1810   44.8830 O   0  0  0  0  0  0  0  0  0  0  0  0
   56.8370   30.5930   43.5880 C   0  0  0  0  0  0  0  0  0  0  0  0
   58.1098   26.4583   44.0062 H   0  0  0  0  0  0  0  0  0  0  0  0
   57.5184   27.9121   43.1324 H   0  0  0  0  0  0  0  0  0  0  0  0
   59.2702   27.5150   43.1324 H   0  0  0  0  0  0  0  0  0  0  0  0
   60.4761   28.2692   44.2575 H   0  0  0  0  0  0  0  0  0  0  0  0
   59.6986   29.8855   44.4333 H   0  0  0  0  0  0  0  0  0  0  0  0
   59.8166   28.2875   46.9375 H   0  0  0  0  0  0  0  0  0  0  0  0
   61.4329   28.7858   46.2247 H   0  0  0  0  0  0  0  0  0  0  0  0
   60.2439   30.6488   48.9904 H   0  0  0  0  0  0  0  0  0  0  0  0
   61.5384   29.5645   48.3599 H   0  0  0  0  0  0  0  0  0  0  0  0
   63.0322   30.8422   46.4316 H   0  0  0  0  0  0  0  0  0  0  0  0
   64.5454   32.8179   46.2503 H   0  0  0  0  0  0  0  0  0  0  0  0
   64.3065   34.7277   47.8394 H   0  0  0  0  0  0  0  0  0  0  0  0
   61.0355   32.6909   49.8064 H   0  0  0  0  0  0  0  0  0  0  0  0
   58.1757   30.0682   46.4954 H   0  0  0  0  0  0  0  0  0  0  0  0
   58.5589   30.9530   48.0246 H   0  0  0  0  0  0  0  0  0  0  0  0
   60.1956   33.1311   47.4297 H   0  0  0  0  0  0  0  0  0  0  0  0
   59.9954   35.2941   46.2110 H   0  0  0  0  0  0  0  0  0  0  0  0
   58.3496   35.5385   44.3560 H   0  0  0  0  0  0  0  0  0  0  0  0
   56.8768   33.6297   43.7286 H   0  0  0  0  0  0  0  0  0  0  0  0
   56.7130   29.5044   43.6856 H   0  0  0  0  0  0  0  0  0  0  0  0
   55.9808   31.0119   43.0390 H   0  0  0  0  0  0  0  0  0  0  0  0
   57.7655   30.8085   43.0390 H   0  0  0  0  0  0  0  0  0  0  0  0
  1  2  1  0
  2  3  1  0
  3  4  1  0
  4  5  1  0
  5  6  1  0
  6  7  1  0
  7  8  2  0
  8  9  1  0
  9 10  2  0
 10 11  1  0
 11 12  1  0
 11 13  2  0
  5 14  1  0
 14 15  1  0
 15 16  2  0
 16 17  1  0
 17 18  2  0
 18 19  1  0
 19 20  2  0
 20 21  1  0
 21 22  1  0
 13  7  1  0
 20 15  1  0
  1 23  1  0
  1 24  1  0
  1 25  1  0
  3 26  1  0
  3 27  1  0
  4 28  1  0
  4 29  1  0
  6 30  1  0
  6 31  1  0
  8 32  1  0
  9 33  1  0
 10 34  1  0
 13 35  1  0
 14 36  1  0
 14 37  1  0
 16 38  1  0
 17 39  1  0
 18 40  1  0
 19 41  1  0
 22 42  1  0
 22 43  1  0
 22 44  1  0
M  END
>  <UniqueID>  (18) 
18

>  <SMILES>  (18) 
COCCN(Cc1cccc(F)c1)Cc1ccccc1OC

>  <Energy>  (18) 
44.36437892554722

>  <Genealogy>  (18) 
COCCN(Cc1cccc(F)c1)Cc1ccccc1OC (3D coordinates assigned)
COCCN(Cc1cccc(F)c1)Cc1ccccc1OC (optimized conformer: 44.36437892554722 kcal/mol)

>  <smiles>  (18) 
COCCN(Cc1cccc(F)c1)Cc1ccccc1OC

>  <score_type>  (18) 
oracle

>  <origin>  (18) 
adg

>  <m_score__min__energy>  (18) 
-6.6900000000000004

>  <m_primary>  (18) 
energy

$$$$
18:0
     RDKit          3D

 42 44  0  0  0  0  0  0  0  0999 V2000
   55.1640   29.5130   44.6760 O   0  0  0  0  0  0  0  0  0  0  0  0
   56.3430   29.0940   44.8170 C   0  0  0  0  0  0  0  0  0  0  0  0
   57.4100   29.5750   43.8690 C   0  0  0  0  0  0  0  0  0  0  0  0
   57.3500   31.0920   43.6600 C   0  0  0  0  0  0  0  0  0  0  0  0
   57.1220   31.7720   44.8960 O   0  0  0  0  0  0  0  0  0  0  0  0
   58.0690   32.0070   45.9070 C   0  0  0  0  0  0  0  0  0  0  0  0
   58.4930   31.0040   46.8010 C   0  0  0  0  0  0  0  0  0  0  0  0
   59.4340   31.2950   47.7930 C   0  0  0  0  0  0  0  0  0  0  0  0
   59.9710   32.5780   47.8960 C   0  0  0  0  0  0  0  0  0  0  0  0
   59.5700   33.5750   47.0050 C   0  0  0  0  0  0  0  0  0  0  0  0
   58.6250   33.2930   46.0130 C   0  0  0  0  0  0  0  0  0  0  0  0
   58.1340   34.5700   44.9100 Cl  0  0  0  0  0  0  0  0  0  0  0  0
   56.6530   28.2630   45.9440 N   0  0  0  0  0  0  0  0  0  0  0  0
   57.6550   27.2370   45.9690 C   0  0  0  0  0  0  0  0  0  0  0  0
   59.0150   27.5930   45.9630 C   0  0  0  0  0  0  0  0  0  0  0  0
   60.0050   26.6130   46.0090 C   0  0  0  0  0  0  0  0  0  0  0  0
   59.6520   25.2650   46.0500 C   0  0  0  0  0  0  0  0  0  0  0  0
   58.3060   24.8940   46.0260 C   0  0  0  0  0  0  0  0  0  0  0  0
   57.2910   25.8690   45.9650 C   0  0  0  0  0  0  0  0  0  0  0  0
   55.8740   25.4290   45.9200 C   0  0  0  0  0  0  0  0  0  0  0  0
   54.9600   26.2940   45.9860 O   0  0  0  0  0  0  0  0  0  0  0  0
   55.5570   24.0280   45.8350 N   0  0  0  0  0  0  0  0  0  0  0  0
   55.4870   23.1190   44.6820 C   0  0  0  0  0  0  0  0  0  0  0  0
   56.0600   23.6380   43.3750 C   0  0  0  0  0  0  0  0  0  0  0  0
   56.8120   22.5760   44.1750 C   0  0  0  0  0  0  0  0  0  0  0  0
   58.3956   29.3118   44.2804 H   0  0  0  0  0  0  0  0  0  0  0  0
   57.2433   29.0908   42.8955 H   0  0  0  0  0  0  0  0  0  0  0  0
   58.3040   31.4339   43.2323 H   0  0  0  0  0  0  0  0  0  0  0  0
   56.5176   31.3184   42.9774 H   0  0  0  0  0  0  0  0  0  0  0  0
   58.0817   29.9872   46.7180 H   0  0  0  0  0  0  0  0  0  0  0  0
   59.7519   30.5096   48.4945 H   0  0  0  0  0  0  0  0  0  0  0  0
   60.7100   32.8041   48.6788 H   0  0  0  0  0  0  0  0  0  0  0  0
   59.9983   34.5852   47.0832 H   0  0  0  0  0  0  0  0  0  0  0  0
   59.3004   28.6545   45.9216 H   0  0  0  0  0  0  0  0  0  0  0  0
   61.0659   26.9035   46.0130 H   0  0  0  0  0  0  0  0  0  0  0  0
   60.4341   24.4932   46.1013 H   0  0  0  0  0  0  0  0  0  0  0  0
   58.0352   23.8283   46.0551 H   0  0  0  0  0  0  0  0  0  0  0  0
   54.5280   22.6734   44.9851 H   0  0  0  0  0  0  0  0  0  0  0  0
   55.5822   23.3724   42.4205 H   0  0  0  0  0  0  0  0  0  0  0  0
   56.3082   24.6316   42.9735 H   0  0  0  0  0  0  0  0  0  0  0  0
   56.8761   21.5449   43.7972 H   0  0  0  0  0  0  0  0  0  0  0  0
   57.8270   22.4864   44.5894 H   0  0  0  0  0  0  0  0  0  0  0  0
  1  2  2  0
  2  3  1  0
  3  4  1  0
  4  5  1  0
  5  6  1  0
  6  7  2  0
  7  8  1  0
  8  9  2  0
  9 10  1  0
 10 11  2  0
 11 12  1  0
  2 13  1  0
 13 14  1  0
 14 15  2  0
 15 16  1  0
 16 17  2  0
 17 18  1  0
 18 19  2  0
 19 20  1  0
 20 21  2  0
 20 22  1  0
 22 23  1  0
 23 24  1  0
 24 25  1  0
 11  6  1  0
 19 14  1  0
 25 23  1  0
  3 26  1  0
  3 27  1  0
  4 28  1  0
  4 29  1  0
  7 30  1  0
  8 31  1  0
  9 32  1  0
 10 33  1  0
 15 34  1  0
 16 35  1  0
 17 36  1  0
 18 37  1  0
 23 38  1  0
 24 39  1  0
 24 40  1  0
 25 41  1  0
 25 42  1  0
M  CHG  2  13  -1  22  -1
M  END
>  <UniqueID>  (19) 
19

>  <SMILES>  (19) 
O=C(CCOc1ccccc1Cl)[N-]c1ccccc1C(=O)[N-]C1CC1

>  <Energy>  (19) 
320.4381714660157

>  <Genealogy>  (19) 
O=C(CCOc1ccccc1Cl)[N-]c1ccccc1C(=O)[N-]C1CC1 (protonated)
O=C(CCOc1ccccc1Cl)[N-]c1ccccc1C(=O)[N-]C1CC1 (3D coordinates assigned)
O=C(CCOc1ccccc1Cl)[N-]c1ccccc1C(=O)[N-]C1CC1 (nonaromatic ring conformer: 320.4381714660157 kcal/mol)

>  <smiles>  (19) 
O=C(CCOc1ccccc1Cl)Nc1ccccc1C(=O)NC1CC1

>  <score_type>  (19) 
oracle

>  <origin>  (19) 
adg

>  <m_score__min__energy>  (19) 
-12.470000000000001

>  <m_primary>  (19) 
energy

$$$$
19:0
     RDKit          3D

 38 38  0  0  0  0  0  0  0  0999 V2000
   63.3540   33.8920   46.3010 C   0  0  0  0  0  0  0  0  0  0  0  0
   63.6370   33.3600   47.7110 C   0  0  0  0  0  0  0  0  0  0  0  0
   62.4110   32.8800   48.3990 N   0  0  0  0  0  0  0  0  0  0  0  0
   62.3220   31.4030   48.2620 C   0  0  0  0  0  0  0  0  0  0  0  0
   61.3960   30.9760   47.1160 C   0  0  0  0  0  0  0  0  0  0  0  0
   62.3990   33.2880   49.8390 C   0  0  0  0  0  0  0  0  0  0  0  0
   61.0040   33.7290   50.3200 C   0  0  0  0  0  0  0  0  0  0  0  0
   60.2570   34.3650   49.2280 N   0  0  0  0  0  0  0  0  0  0  0  0
   59.1870   33.4790   48.7550 C   0  0  0  0  0  0  0  0  0  0  0  0
   59.0400   33.6150   47.2640 C   0  0  0  0  0  0  0  0  0  0  0  0
   59.4470   34.7930   46.6170 C   0  0  0  0  0  0  0  0  0  0  0  0
   59.2730   34.9360   45.2380 C   0  0  0  0  0  0  0  0  0  0  0  0
   58.6800   33.9090   44.4970 C   0  0  0  0  0  0  0  0  0  0  0  0
   58.2550   32.7400   45.1350 C   0  0  0  0  0  0  0  0  0  0  0  0
   57.4320   31.3450   44.1240 Br  0  0  0  0  0  0  0  0  0  0  0  0
   58.4290   32.5940   46.5160 C   0  0  0  0  0  0  0  0  0  0  0  0
   62.8385   34.8611   46.3714 H   0  0  0  0  0  0  0  0  0  0  0  0
   64.3032   34.0201   45.7601 H   0  0  0  0  0  0  0  0  0  0  0  0
   62.7173   33.1764   45.7601 H   0  0  0  0  0  0  0  0  0  0  0  0
   64.3484   32.5244   47.6357 H   0  0  0  0  0  0  0  0  0  0  0  0
   64.0471   34.1910   48.3037 H   0  0  0  0  0  0  0  0  0  0  0  0
   61.5950   33.2900   47.8850 H   0  0  0  0  0  0  0  0  0  0  0  0
   63.3292   31.0049   48.0692 H   0  0  0  0  0  0  0  0  0  0  0  0
   61.9029   31.0044   49.1977 H   0  0  0  0  0  0  0  0  0  0  0  0
   60.4711   30.5495   47.5315 H   0  0  0  0  0  0  0  0  0  0  0  0
   61.1504   31.8518   46.4974 H   0  0  0  0  0  0  0  0  0  0  0  0
   61.9025   30.2205   46.4974 H   0  0  0  0  0  0  0  0  0  0  0  0
   62.7281   32.4342   50.4495 H   0  0  0  0  0  0  0  0  0  0  0  0
   63.0750   34.1491   49.9461 H   0  0  0  0  0  0  0  0  0  0  0  0
   60.4481   32.8477   50.6727 H   0  0  0  0  0  0  0  0  0  0  0  0
   61.1244   34.4557   51.1370 H   0  0  0  0  0  0  0  0  0  0  0  0
   59.8030   35.2300   49.6020 H   0  0  0  0  0  0  0  0  0  0  0  0
   59.4374   32.4373   49.0045 H   0  0  0  0  0  0  0  0  0  0  0  0
   58.2407   33.7575   49.2419 H   0  0  0  0  0  0  0  0  0  0  0  0
   59.9048   35.6068   47.1984 H   0  0  0  0  0  0  0  0  0  0  0  0
   59.6027   35.8570   44.7350 H   0  0  0  0  0  0  0  0  0  0  0  0
   58.5478   34.0211   43.4107 H   0  0  0  0  0  0  0  0  0  0  0  0
   58.0864   31.6770   47.0177 H   0  0  0  0  0  0  0  0  0  0  0  0
  1  2  1  0
  2  3  1  0
  3  4  1  0
  4  5  1  0
  3  6  1  0
  6  7  1  0
  7  8  1  0
  8  9  1  0
  9 10  1  0
 10 11  2  0
 11 12  1  0
 12 13  2  0
 13 14  1  0
 14 15  1  0
 14 16  2  0
 16 10  1  0
  1 17  1  0
  1 18  1  0
  1 19  1  0
  2 20  1  0
  2 21  1  0
  3 22  1  0
  4 23  1  0
  4 24  1  0
  5 25  1  0
  5 26  1  0
  5 27  1  0
  6 28  1  0
  6 29  1  0
  7 30  1  0
  7 31  1  0
  8 32  1  0
  9 33  1  0
  9 34  1  0
 11 35  1  0
 12 36  1  0
 13 37  1  0
 16 38  1  0
M  CHG  1   3   1
M  END
>  <UniqueID>  (20) 
20

>  <SMILES>  (20) 
CC[NH+](CC)CCNCc1cccc(Br)c1

>  <Energy>  (20) 
34.98803254388735

>  <Genealogy>  (20) 
CC[NH+](CC)CCNCc1cccc(Br)c1 (protonated)
CC[NH+](CC)CCNCc1cccc(Br)c1 (3D coordinates assigned)
CC[NH+](CC)CCNCc1cccc(Br)c1 (optimized conformer: 34.98803254388735 kcal/mol)

>  <smiles>  (20) 
CCN(CC)CCNCc1cccc(Br)c1

>  <score_type>  (20) 
oracle

>  <origin>  (20) 
adg

>  <m_score__min__energy>  (20) 
-4.2000000000000002

>  <m_primary>  (20) 
energy

$$$$
20:0
     RDKit          3D

 49 51  0  0  0  0  0  0  0  0999 V2000
   58.1730   34.4870   45.2130 C   0  0  0  0  0  0  0  0  0  0  0  0
   57.0120   33.5720   45.5780 C   0  0  0  0  0  0  0  0  0  0  0  0
   57.3910   32.1760   45.3890 N   0  0  0  0  0  0  0  0  0  0  0  0
   58.5190   31.5960   45.8430 C   0  0  0  0  0  0  0  0  0  0  0  0
   58.5480   30.2980   45.3770 C   0  0  0  0  0  0  0  0  0  0  0  0
   59.6640   29.3080   45.5410 C   0  0  0  0  0  0  0  0  0  0  0  0
   59.1250   27.9430   45.7020 N   0  0  0  0  0  0  0  0  0  0  0  0
   60.2130   26.9430   45.8290 C   0  0  0  0  0  0  0  0  0  0  0  0
   59.7160   25.6080   46.4250 C   0  0  0  0  0  0  0  0  0  0  0  0
   58.2630   25.4210   46.2470 N   0  0  0  0  0  0  0  0  0  0  0  0
   57.8990   25.2200   44.8280 C   0  0  0  0  0  0  0  0  0  0  0  0
   57.8930   23.7580   44.5020 C   0  0  0  0  0  0  0  0  0  0  0  0
   58.8230   22.8130   44.8930 C   0  0  0  0  0  0  0  0  0  0  0  0
   58.4460   21.6190   44.3980 N   0  0  0  0  0  0  0  0  0  0  0  0
   57.3150   21.7750   43.7290 N   0  0  0  0  0  0  0  0  0  0  0  0
   56.6420   20.7130   42.9910 C   0  0  0  0  0  0  0  0  0  0  0  0
   56.9510   23.0710   43.7590 C   0  0  0  0  0  0  0  0  0  0  0  0
   57.4910   26.5150   46.8880 C   0  0  0  0  0  0  0  0  0  0  0  0
   58.2210   27.8740   46.8620 C   0  0  0  0  0  0  0  0  0  0  0  0
   57.3930   30.1620   44.6260 C   0  0  0  0  0  0  0  0  0  0  0  0
   57.0010   28.9780   43.8040 C   0  0  0  0  0  0  0  0  0  0  0  0
   56.7120   31.3250   44.6330 N   0  0  0  0  0  0  0  0  0  0  0  0
   58.6478   34.8612   46.1320 H   0  0  0  0  0  0  0  0  0  0  0  0
   58.9109   33.9250   44.6217 H   0  0  0  0  0  0  0  0  0  0  0  0
   57.7990   35.3358   44.6217 H   0  0  0  0  0  0  0  0  0  0  0  0
   56.7385   33.7347   46.6309 H   0  0  0  0  0  0  0  0  0  0  0  0
   56.1556   33.8023   44.9272 H   0  0  0  0  0  0  0  0  0  0  0  0
   59.2827   32.0736   46.4744 H   0  0  0  0  0  0  0  0  0  0  0  0
   60.3096   29.3396   44.6509 H   0  0  0  0  0  0  0  0  0  0  0  0
   60.2429   29.5701   46.4389 H   0  0  0  0  0  0  0  0  0  0  0  0
   60.6341   26.7499   44.8313 H   0  0  0  0  0  0  0  0  0  0  0  0
   60.9704   27.3550   46.5121 H   0  0  0  0  0  0  0  0  0  0  0  0
   60.2427   24.7806   45.9270 H   0  0  0  0  0  0  0  0  0  0  0  0
   59.9231   25.6242   47.5052 H   0  0  0  0  0  0  0  0  0  0  0  0
   56.8978   25.6377   44.6462 H   0  0  0  0  0  0  0  0  0  0  0  0
   58.6372   25.7287   44.1906 H   0  0  0  0  0  0  0  0  0  0  0  0
   59.7177   23.0038   45.5038 H   0  0  0  0  0  0  0  0  0  0  0  0
   58.9580   20.7160   44.5110 H   0  0  0  0  0  0  0  0  0  0  0  0
   56.1917   20.0025   43.6998 H   0  0  0  0  0  0  0  0  0  0  0  0
   55.8546   21.1484   42.3582 H   0  0  0  0  0  0  0  0  0  0  0  0
   57.3719   20.1869   42.3582 H   0  0  0  0  0  0  0  0  0  0  0  0
   56.0624   23.5057   43.2780 H   0  0  0  0  0  0  0  0  0  0  0  0
   56.5331   26.6231   46.3582 H   0  0  0  0  0  0  0  0  0  0  0  0
   57.3521   26.2401   47.9440 H   0  0  0  0  0  0  0  0  0  0  0  0
   57.4795   28.6836   46.7935 H   0  0  0  0  0  0  0  0  0  0  0  0
   58.8110   27.9824   47.7840 H   0  0  0  0  0  0  0  0  0  0  0  0
   56.7254   28.1456   44.4682 H   0  0  0  0  0  0  0  0  0  0  0  0
   56.1418   29.2405   43.1693 H   0  0  0  0  0  0  0  0  0  0  0  0
   57.8471   28.6760   43.1693 H   0  0  0  0  0  0  0  0  0  0  0  0
  1  2  1  0
  2  3  1  0
  3  4  1  0
  4  5  2  0
  5  6  1  0
  6  7  1  0
  7  8  1  0
  8  9  1  0
  9 10  1  0
 10 11  1  0
 11 12  1  0
 12 13  1  0
 13 14  2  0
 14 15  1  0
 15 16  1  0
 15 17  1  0
 10 18  1  0
 18 19  1  0
  5 20  1  0
 20 21  1  0
 20 22  2  0
 22  3  1  0
 19  7  1  0
 17 12  2  0
  1 23  1  0
  1 24  1  0
  1 25  1  0
  2 26  1  0
  2 27  1  0
  4 28  1  0
  6 29  1  0
  6 30  1  0
  8 31  1  0
  8 32  1  0
  9 33  1  0
  9 34  1  0
 11 35  1  0
 11 36  1  0
 13 37  1  0
 14 38  1  0
 16 39  1  0
 16 40  1  0
 16 41  1  0
 17 42  1  0
 18 43  1  0
 18 44  1  0
 19 45  1  0
 19 46  1  0
 21 47  1  0
 21 48  1  0
 21 49  1  0
M  CHG  1  14   1
M  END
>  <UniqueID>  (21) 
21

>  <SMILES>  (21) 
CCn1cc(CN2CCN(Cc3c[nH+]n(C)c3)CC2)c(C)n1

>  <Energy>  (21) 
112.2422268182504

>  <Genealogy>  (21) 
CCn1cc(CN2CCN(Cc3c[nH+]n(C)c3)CC2)c(C)n1 (protonated)
CCn1cc(CN2CCN(Cc3c[nH+]n(C)c3)CC2)c(C)n1 (3D coordinates assigned)
CCn1cc(CN2CCN(Cc3c[nH+]n(C)c3)CC2)c(C)n1 (nonaromatic ring conformer: 112.2422268182504 kcal/mol)

>  <smiles>  (21) 
CCn1cc(CN2CCN(Cc3cnn(C)c3)CC2)c(C)n1

>  <score_type>  (21) 
oracle

>  <origin>  (21) 
adg

>  <m_score__min__energy>  (21) 
-6.2800000000000002

>  <m_primary>  (21) 
energy

$$$$
21:0
     RDKit          3D

 37 39  0  0  0  0  0  0  0  0999 V2000
   55.7570   27.4570   45.6240 F   0  0  0  0  0  0  0  0  0  0  0  0
   56.9420   28.0630   45.3610 C   0  0  0  0  0  0  0  0  0  0  0  0
   57.0200   29.4600   45.3640 C   0  0  0  0  0  0  0  0  0  0  0  0
   58.2410   30.1060   45.0940 C   0  0  0  0  0  0  0  0  0  0  0  0
   58.3570   31.5820   45.1150 C   0  0  0  0  0  0  0  0  0  0  0  0
   58.0650   32.4620   44.0830 C   0  0  0  0  0  0  0  0  0  0  0  0
   58.2850   33.7260   44.5890 C   0  0  0  0  0  0  0  0  0  0  0  0
   58.6890   33.5410   45.8950 C   0  0  0  0  0  0  0  0  0  0  0  0
   59.0170   34.6280   46.8730 C   0  0  0  0  0  0  0  0  0  0  0  0
   59.2420   34.0750   48.2180 N   0  0  0  0  0  0  0  0  0  0  0  0
   60.5220   34.5120   48.8050 C   0  0  0  0  0  0  0  0  0  0  0  0
   61.6590   33.6650   48.2970 C   0  0  0  0  0  0  0  0  0  0  0  0
   62.9770   34.1400   48.3720 C   0  0  0  0  0  0  0  0  0  0  0  0
   64.0170   33.3730   47.8390 C   0  0  0  0  0  0  0  0  0  0  0  0
   63.7520   32.1760   47.2510 N   0  0  0  0  0  0  0  0  0  0  0  0
   62.4830   31.6890   47.1720 C   0  0  0  0  0  0  0  0  0  0  0  0
   61.4150   32.4220   47.6960 C   0  0  0  0  0  0  0  0  0  0  0  0
   58.7390   32.2610   46.1750 O   0  0  0  0  0  0  0  0  0  0  0  0
   59.3780   29.3260   44.8220 C   0  0  0  0  0  0  0  0  0  0  0  0
   59.2980   27.9310   44.8220 C   0  0  0  0  0  0  0  0  0  0  0  0
   58.0820   27.2970   45.0910 C   0  0  0  0  0  0  0  0  0  0  0  0
   57.9940   25.5440   45.0890 Cl  0  0  0  0  0  0  0  0  0  0  0  0
   56.1215   30.0571   45.5787 H   0  0  0  0  0  0  0  0  0  0  0  0
   57.7270   32.2043   43.0684 H   0  0  0  0  0  0  0  0  0  0  0  0
   58.1635   34.6832   44.0607 H   0  0  0  0  0  0  0  0  0  0  0  0
   59.9274   35.1484   46.5408 H   0  0  0  0  0  0  0  0  0  0  0  0
   58.1690   35.3272   46.9182 H   0  0  0  0  0  0  0  0  0  0  0  0
   59.2870   33.0330   48.1160 H   0  0  0  0  0  0  0  0  0  0  0  0
   60.7043   35.5619   48.5322 H   0  0  0  0  0  0  0  0  0  0  0  0
   60.4636   34.4056   49.8983 H   0  0  0  0  0  0  0  0  0  0  0  0
   63.1904   35.1090   48.8468 H   0  0  0  0  0  0  0  0  0  0  0  0
   65.0528   33.7389   47.8954 H   0  0  0  0  0  0  0  0  0  0  0  0
   64.5380   31.6190   46.8490 H   0  0  0  0  0  0  0  0  0  0  0  0
   62.2980   30.7156   46.6942 H   0  0  0  0  0  0  0  0  0  0  0  0
   60.3902   32.0267   47.6374 H   0  0  0  0  0  0  0  0  0  0  0  0
   60.3384   29.8175   44.6074 H   0  0  0  0  0  0  0  0  0  0  0  0
   60.1946   27.3302   44.6097 H   0  0  0  0  0  0  0  0  0  0  0  0
  1  2  1  0
  2  3  2  0
  3  4  1  0
  4  5  1  0
  5  6  2  0
  6  7  1  0
  7  8  2  0
  8  9  1  0
  9 10  1  0
 10 11  1  0
 11 12  1  0
 12 13  2  0
 13 14  1  0
 14 15  2  0
 15 16  1  0
 16 17  2  0
  8 18  1  0
  4 19  2  0
 19 20  1  0
 20 21  2  0
 21 22  1  0
 21  2  1  0
 18  5  1  0
 17 12  1  0
  3 23  1  0
  6 24  1  0
  7 25  1  0
  9 26  1  0
  9 27  1  0
 10 28  1  0
 11 29  1  0
 11 30  1  0
 13 31  1  0
 14 32  1  0
 15 33  1  0
 16 34  1  0
 17 35  1  0
 19 36  1  0
 20 37  1  0
M  CHG  1  15   1
M  END
>  <UniqueID>  (22) 
22

>  <SMILES>  (22) 
Fc1cc(-c2ccc(CNCc3cc[nH+]cc3)o2)ccc1Cl

>  <Energy>  (22) 
62.0691153528281

>  <Genealogy>  (22) 
Fc1cc(-c2ccc(CNCc3cc[nH+]cc3)o2)ccc1Cl (protonated)
Fc1cc(-c2ccc(CNCc3cc[nH+]cc3)o2)ccc1Cl (3D coordinates assigned)
Fc1cc(-c2ccc(CNCc3cc[nH+]cc3)o2)ccc1Cl (optimized conformer: 62.0691153528281 kcal/mol)

>  <smiles>  (22) 
Fc1cc(-c2ccc(CNCc3ccncc3)o2)ccc1Cl

>  <score_type>  (22) 
oracle

>  <origin>  (22) 
adg

>  <m_score__min__energy>  (22) 
-6.5800000000000001

>  <m_primary>  (22) 
energy

$$$$
22:0
     RDKit          3D

 35 37  0  0  0  0  0  0  0  0999 V2000
   59.4310   34.5690   47.3580 C   0  0  0  0  0  0  0  0  0  0  0  0
   59.6070   35.3980   46.2580 C   0  0  0  0  0  0  0  0  0  0  0  0
   58.8870   34.6690   44.9240 S   0  0  0  0  0  0  0  0  0  0  0  0
   58.3490   33.2980   45.7360 C   0  0  0  0  0  0  0  0  0  0  0  0
   57.6050   32.1820   45.1380 C   0  0  0  0  0  0  0  0  0  0  0  0
   58.1400   31.1000   44.4710 C   0  0  0  0  0  0  0  0  0  0  0  0
   57.0310   30.3580   44.1230 C   0  0  0  0  0  0  0  0  0  0  0  0
   57.0340   29.0560   43.3620 C   0  0  0  0  0  0  0  0  0  0  0  0
   57.4150   27.8780   44.1830 N   0  0  1  0  0  0  0  0  0  0  0  0
   58.8660   27.5660   44.0340 C   0  0  0  0  0  0  0  0  0  0  0  0
   59.6850   27.6120   45.3410 C   0  0  0  0  0  0  0  0  0  0  0  0
   59.3960   26.4440   46.3070 C   0  0  0  0  0  0  0  0  0  0  0  0
   58.2700   26.6310   47.1460 O   0  0  0  0  0  0  0  0  0  0  0  0
   57.0680   26.7030   46.4030 C   0  0  0  0  0  0  0  0  0  0  0  0
   56.9680   28.0240   45.5950 C   0  0  0  0  0  0  0  0  0  0  0  0
   55.9140   30.9780   44.5550 N   0  0  0  0  0  0  0  0  0  0  0  0
   56.2970   32.0650   45.1590 O   0  0  0  0  0  0  0  0  0  0  0  0
   58.7270   33.3930   47.0690 C   0  0  0  0  0  0  0  0  0  0  0  0
   59.8089   34.8129   48.3619 H   0  0  0  0  0  0  0  0  0  0  0  0
   60.1285   36.3665   46.2588 H   0  0  0  0  0  0  0  0  0  0  0  0
   59.1983   30.8812   44.2657 H   0  0  0  0  0  0  0  0  0  0  0  0
   56.0234   28.8867   42.9619 H   0  0  0  0  0  0  0  0  0  0  0  0
   57.7920   29.1513   42.5706 H   0  0  0  0  0  0  0  0  0  0  0  0
   56.8800   27.0870   43.7550 H   0  0  0  0  0  0  0  0  0  0  0  0
   58.9550   26.5541   43.6120 H   0  0  0  0  0  0  0  0  0  0  0  0
   59.2821   28.3506   43.3850 H   0  0  0  0  0  0  0  0  0  0  0  0
   60.7534   27.5883   45.0802 H   0  0  0  0  0  0  0  0  0  0  0  0
   59.3958   28.5353   45.8642 H   0  0  0  0  0  0  0  0  0  0  0  0
   59.2288   25.5373   45.7071 H   0  0  0  0  0  0  0  0  0  0  0  0
   60.2687   26.3697   46.9724 H   0  0  0  0  0  0  0  0  0  0  0  0
   57.0301   25.8544   45.7041 H   0  0  0  0  0  0  0  0  0  0  0  0
   56.2263   26.6705   47.1105 H   0  0  0  0  0  0  0  0  0  0  0  0
   55.9200   28.3581   45.5980 H   0  0  0  0  0  0  0  0  0  0  0  0
   57.6338   28.7552   46.0767 H   0  0  0  0  0  0  0  0  0  0  0  0
   58.4971   32.6236   47.8208 H   0  0  0  0  0  0  0  0  0  0  0  0
  1  2  2  0
  2  3  1  0
  3  4  1  0
  4  5  1  0
  5  6  2  0
  6  7  1  0
  7  8  1  0
  8  9  1  0
  9 10  1  0
 10 11  1  0
 11 12  1  0
 12 13  1  0
 13 14  1  0
 14 15  1  0
  7 16  2  0
 16 17  1  0
  4 18  2  0
 18  1  1  0
 17  5  1  0
 15  9  1  0
  1 19  1  0
  2 20  1  0
  6 21  1  0
  8 22  1  0
  8 23  1  0
  9 24  1  6
 10 25  1  0
 10 26  1  0
 11 27  1  0
 11 28  1  0
 12 29  1  0
 12 30  1  0
 14 31  1  0
 14 32  1  0
 15 33  1  0
 15 34  1  0
 18 35  1  0
M  CHG  1   9   1
M  END
>  <UniqueID>  (23) 
23

>  <SMILES>  (23) 
c1csc(-c2cc(C[N@H+]3CCCOCC3)no2)c1

>  <Energy>  (23) 
109.81597229693634

>  <Genealogy>  (23) 
c1csc(-c2cc(C[NH+]3CCCOCC3)no2)c1 (protonated)
c1csc(-c2cc(C[N@H+]3CCCOCC3)no2)c1 (chirality)
c1csc(-c2cc(C[N@H+]3CCCOCC3)no2)c1 (3D coordinates assigned)
c1csc(-c2cc(C[N@H+]3CCCOCC3)no2)c1 (nonaromatic ring conformer: 109.81597229693634 kcal/mol)

>  <smiles>  (23) 
c1csc(-c2cc(CN3CCCOCC3)no2)c1

>  <score_type>  (23) 
oracle

>  <origin>  (23) 
adg

>  <m_score__min__energy>  (23) 
-3.8999999999999999

>  <m_primary>  (23) 
energy

$$$$
23:0
     RDKit          3D

 31 33  0  0  0  0  0  0  0  0999 V2000
   55.5200   29.7140   43.4970 C   0  0  0  0  0  0  0  0  0  0  0  0
   56.6400   29.8090   44.4420 N   0  0  0  0  0  0  0  0  0  0  0  0
   57.0590   28.6220   45.1960 C   0  0  0  0  0  0  0  0  0  0  0  0
   57.3100   31.0820   44.6090 C   0  0  0  0  0  0  0  0  0  0  0  0
   57.5340   31.9520   43.5240 C   0  0  0  0  0  0  0  0  0  0  0  0
   58.1830   33.1690   43.7330 C   0  0  0  0  0  0  0  0  0  0  0  0
   58.6110   33.5240   45.0170 C   0  0  0  0  0  0  0  0  0  0  0  0
   59.2650   34.7420   45.2460 C   0  0  0  0  0  0  0  0  0  0  0  0
   59.6860   35.0840   46.5310 C   0  0  0  0  0  0  0  0  0  0  0  0
   59.4590   34.2140   47.6080 C   0  0  0  0  0  0  0  0  0  0  0  0
   59.8850   34.5620   48.9000 C   0  0  0  0  0  0  0  0  0  0  0  0
   59.6600   33.6960   49.9710 C   0  0  0  0  0  0  0  0  0  0  0  0
   59.0110   32.4780   49.7650 C   0  0  0  0  0  0  0  0  0  0  0  0
   58.5810   32.1160   48.4860 C   0  0  0  0  0  0  0  0  0  0  0  0
   58.7980   32.9760   47.3920 C   0  0  0  0  0  0  0  0  0  0  0  0
   58.3750   32.6360   46.0880 C   0  0  0  0  0  0  0  0  0  0  0  0
   57.7380   31.4560   45.8480 N   0  0  0  0  0  0  0  0  0  0  0  0
   54.5753   29.6339   44.0549 H   0  0  0  0  0  0  0  0  0  0  0  0
   55.4969   30.6134   42.8641 H   0  0  0  0  0  0  0  0  0  0  0  0
   55.6488   28.8236   42.8641 H   0  0  0  0  0  0  0  0  0  0  0  0
   56.9863   28.8279   46.2741 H   0  0  0  0  0  0  0  0  0  0  0  0
   56.4055   27.7752   44.9396 H   0  0  0  0  0  0  0  0  0  0  0  0
   58.0993   28.3731   44.9396 H   0  0  0  0  0  0  0  0  0  0  0  0
   57.1980   31.6724   42.5146 H   0  0  0  0  0  0  0  0  0  0  0  0
   58.3585   33.8503   42.8874 H   0  0  0  0  0  0  0  0  0  0  0  0
   59.4472   35.4315   44.4085 H   0  0  0  0  0  0  0  0  0  0  0  0
   60.1993   36.0419   46.7011 H   0  0  0  0  0  0  0  0  0  0  0  0
   60.3978   35.5205   49.0685 H   0  0  0  0  0  0  0  0  0  0  0  0
   59.9954   33.9745   50.9809 H   0  0  0  0  0  0  0  0  0  0  0  0
   58.8372   31.7998   50.6135 H   0  0  0  0  0  0  0  0  0  0  0  0
   58.0701   31.1540   48.3326 H   0  0  0  0  0  0  0  0  0  0  0  0
  1  2  1  0
  2  3  1  0
  2  4  1  0
  4  5  2  0
  5  6  1  0
  6  7  2  0
  7  8  1  0
  8  9  2  0
  9 10  1  0
 10 11  2  0
 11 12  1  0
 12 13  2  0
 13 14  1  0
 14 15  2  0
 15 16  1  0
 16 17  2  0
 17  4  1  0
 16  7  1  0
 15 10  1  0
  1 18  1  0
  1 19  1  0
  1 20  1  0
  3 21  1  0
  3 22  1  0
  3 23  1  0
  5 24  1  0
  6 25  1  0
  8 26  1  0
  9 27  1  0
 11 28  1  0
 12 29  1  0
 13 30  1  0
 14 31  1  0
M  END
>  <UniqueID>  (24) 
24

>  <SMILES>  (24) 
CN(C)c1ccc2ccc3ccccc3c2n1

>  <Energy>  (24) 
39.64017616453978

>  <Genealogy>  (24) 
CN(C)c1ccc2ccc3ccccc3c2n1 (3D coordinates assigned)
CN(C)c1ccc2ccc3ccccc3c2n1 (optimized conformer: 39.64017616453978 kcal/mol)

>  <smiles>  (24) 
CN(C)c1ccc2ccc3ccccc3c2n1

>  <score_type>  (24) 
oracle

>  <origin>  (24) 
adg

>  <m_score__min__energy>  (24) 
-6.9000000000000004

>  <m_primary>  (24) 
energy

$$$$
24:0
     RDKit          3D

 47 50  0  0  0  0  0  0  0  0999 V2000
   58.8750   28.4900   47.0380 C   0  0  0  0  0  0  0  0  0  0  0  0
   58.4920   28.0920   45.6720 N   0  0  0  0  0  0  0  0  0  0  0  0
   59.2470   28.8370   44.6460 C   0  0  0  0  0  0  0  0  0  0  0  0
   58.8290   30.3230   44.5570 C   0  0  0  0  0  0  0  0  0  0  0  0
   57.4940   30.5550   45.1450 N   0  0  0  0  0  0  0  0  0  0  0  0
   56.9620   31.9100   44.8820 C   0  0  0  0  0  0  0  0  0  0  0  0
   57.9120   33.0280   45.2570 C   0  0  0  0  0  0  0  0  0  0  0  0
   57.9440   34.2190   44.5170 C   0  0  0  0  0  0  0  0  0  0  0  0
   58.7980   35.2160   44.8630 N   0  0  0  0  0  0  0  0  0  0  0  0
   59.6390   35.1060   45.9250 C   0  0  0  0  0  0  0  0  0  0  0  0
   59.6440   33.9420   46.7080 C   0  0  0  0  0  0  0  0  0  0  0  0
   60.5620   33.8060   47.8680 C   0  0  0  0  0  0  0  0  0  0  0  0
   60.0800   33.9610   49.1800 C   0  0  0  0  0  0  0  0  0  0  0  0
   60.9400   33.8330   50.2740 C   0  0  0  0  0  0  0  0  0  0  0  0
   62.2980   33.5500   50.0760 C   0  0  0  0  0  0  0  0  0  0  0  0
   63.1700   33.4200   51.1690 C   0  0  0  0  0  0  0  0  0  0  0  0
   64.5230   33.1400   50.9580 C   0  0  0  0  0  0  0  0  0  0  0  0
   65.0140   32.9870   49.6590 C   0  0  0  0  0  0  0  0  0  0  0  0
   64.1570   33.1140   48.5620 C   0  0  0  0  0  0  0  0  0  0  0  0
   62.7960   33.3940   48.7610 C   0  0  0  0  0  0  0  0  0  0  0  0
   61.9260   33.5230   47.6670 C   0  0  0  0  0  0  0  0  0  0  0  0
   58.7620   32.9040   46.3660 C   0  0  0  0  0  0  0  0  0  0  0  0
   56.5580   29.4740   44.8070 C   0  0  0  0  0  0  0  0  0  0  0  0
   57.0250   28.1560   45.4570 C   0  0  0  0  0  0  0  0  0  0  0  0
   58.3036   27.8963   47.7667 H   0  0  0  0  0  0  0  0  0  0  0  0
   59.9508   28.3127   47.1835 H   0  0  0  0  0  0  0  0  0  0  0  0
   58.6565   29.5582   47.1835 H   0  0  0  0  0  0  0  0  0  0  0  0
   60.3180   28.7871   44.8921 H   0  0  0  0  0  0  0  0  0  0  0  0
   59.0304   28.3727   43.6726 H   0  0  0  0  0  0  0  0  0  0  0  0
   59.5671   30.9332   45.0982 H   0  0  0  0  0  0  0  0  0  0  0  0
   58.7869   30.6026   43.4940 H   0  0  0  0  0  0  0  0  0  0  0  0
   56.7386   31.9915   43.8080 H   0  0  0  0  0  0  0  0  0  0  0  0
   56.0672   32.0283   45.5108 H   0  0  0  0  0  0  0  0  0  0  0  0
   57.2748   34.3457   43.6532 H   0  0  0  0  0  0  0  0  0  0  0  0
   60.3195   35.9342   46.1719 H   0  0  0  0  0  0  0  0  0  0  0  0
   59.0160   34.1851   49.3467 H   0  0  0  0  0  0  0  0  0  0  0  0
   60.5492   33.9549   51.2950 H   0  0  0  0  0  0  0  0  0  0  0  0
   62.7874   33.5388   52.1935 H   0  0  0  0  0  0  0  0  0  0  0  0
   65.2030   33.0398   51.8169 H   0  0  0  0  0  0  0  0  0  0  0  0
   66.0795   32.7657   49.4988 H   0  0  0  0  0  0  0  0  0  0  0  0
   64.5497   32.9944   47.5415 H   0  0  0  0  0  0  0  0  0  0  0  0
   62.3133   33.4020   46.6446 H   0  0  0  0  0  0  0  0  0  0  0  0
   58.7375   31.9866   46.9725 H   0  0  0  0  0  0  0  0  0  0  0  0
   55.5551   29.7296   45.1796 H   0  0  0  0  0  0  0  0  0  0  0  0
   56.5269   29.3490   43.7146 H   0  0  0  0  0  0  0  0  0  0  0  0
   56.5250   28.0514   46.4312 H   0  0  0  0  0  0  0  0  0  0  0  0
   56.7625   27.3420   44.7652 H   0  0  0  0  0  0  0  0  0  0  0  0
  1  2  1  0
  2  3  1  0
  3  4  1  0
  4  5  1  0
  5  6  1  0
  6  7  1  0
  7  8  2  0
  8  9  1  0
  9 10  2  0
 10 11  1  0
 11 12  1  0
 12 13  2  0
 13 14  1  0
 14 15  2  0
 15 16  1  0
 16 17  2  0
 17 18  1  0
 18 19  2  0
 19 20  1  0
 20 21  2  0
 11 22  2  0
  5 23  1  0
 23 24  1  0
 24  2  1  0
 22  7  1  0
 21 12  1  0
 20 15  1  0
  1 25  1  0
  1 26  1  0
  1 27  1  0
  3 28  1  0
  3 29  1  0
  4 30  1  0
  4 31  1  0
  6 32  1  0
  6 33  1  0
  8 34  1  0
 10 35  1  0
 13 36  1  0
 14 37  1  0
 16 38  1  0
 17 39  1  0
 18 40  1  0
 19 41  1  0
 21 42  1  0
 22 43  1  0
 23 44  1  0
 23 45  1  0
 24 46  1  0
 24 47  1  0
M  END
>  <UniqueID>  (25) 
25

>  <SMILES>  (25) 
CN1CCN(Cc2cncc(-c3ccc4ccccc4c3)c2)CC1

>  <Energy>  (25) 
72.4559170369637

>  <Genealogy>  (25) 
CN1CCN(Cc2cncc(-c3ccc4ccccc4c3)c2)CC1 (3D coordinates assigned)
CN1CCN(Cc2cncc(-c3ccc4ccccc4c3)c2)CC1 (nonaromatic ring conformer: 72.4559170369637 kcal/mol)

>  <smiles>  (25) 
CN1CCN(Cc2cncc(-c3ccc4ccccc4c3)c2)CC1

>  <score_type>  (25) 
oracle

>  <origin>  (25) 
adg

>  <m_score__min__energy>  (25) 
-8.3599999999999994

>  <m_primary>  (25) 
energy

$$$$
25:0
     RDKit          3D

 56 59  0  0  0  0  0  0  0  0999 V2000
   56.3000   24.8220   47.1910 C   0  0  0  0  0  0  0  0  0  0  0  0
   56.8520   24.4550   45.8180 C   0  0  0  0  0  0  0  0  0  0  0  0
   56.6550   25.5620   44.8700 N   0  0  0  0  0  0  0  0  0  0  0  0
   57.9180   25.9500   44.2290 C   0  0  0  0  0  0  0  0  0  0  0  0
   58.8460   26.5970   45.2600 C   0  0  0  0  0  0  0  0  0  0  0  0
   58.0760   27.2130   46.3430 N   0  0  0  0  0  0  0  0  0  0  0  0
   58.1640   28.4400   46.7800 C   0  0  0  0  0  0  0  0  0  0  0  0
   58.9330   28.7800   47.9990 C   0  0  0  0  0  0  0  0  0  0  0  0
   60.0980   28.0600   48.3140 C   0  0  0  0  0  0  0  0  0  0  0  0
   60.8460   28.3930   49.4470 C   0  0  0  0  0  0  0  0  0  0  0  0
   60.4390   29.4470   50.2690 C   0  0  0  0  0  0  0  0  0  0  0  0
   59.2860   30.1720   49.9570 C   0  0  0  0  0  0  0  0  0  0  0  0
   58.5390   29.8480   48.8220 C   0  0  0  0  0  0  0  0  0  0  0  0
   57.5590   29.5200   45.9650 C   0  0  0  0  0  0  0  0  0  0  0  0
   56.3610   29.4490   45.2590 C   0  0  0  0  0  0  0  0  0  0  0  0
   55.5200   28.3430   45.2310 O   0  0  0  0  0  0  0  0  0  0  0  0
   56.0960   30.5830   44.5720 N   0  0  0  0  0  0  0  0  0  0  0  0
   57.1380   31.3870   44.8510 C   0  0  0  0  0  0  0  0  0  0  0  0
   57.3270   32.6810   44.3720 C   0  0  0  0  0  0  0  0  0  0  0  0
   58.4720   33.3800   44.7860 C   0  0  0  0  0  0  0  0  0  0  0  0
   59.3890   32.7880   45.6830 C   0  0  0  0  0  0  0  0  0  0  0  0
   60.5330   33.5270   46.1060 N   0  0  0  0  0  0  0  0  0  0  0  0
   61.6660   32.8730   47.2390 S   0  0  0  0  0  0  0  0  0  0  0  0
   63.0030   33.5340   47.0440 O   0  0  0  0  0  0  0  0  0  0  0  0
   61.8240   31.4020   46.9750 O   0  0  0  0  0  0  0  0  0  0  0  0
   61.1200   33.1130   48.8960 C   0  0  0  0  0  0  0  0  0  0  0  0
   62.0350   33.0250   49.9560 C   0  0  0  0  0  0  0  0  0  0  0  0
   61.6030   33.2050   51.2730 C   0  0  0  0  0  0  0  0  0  0  0  0
   60.2550   33.4630   51.5400 C   0  0  0  0  0  0  0  0  0  0  0  0
   59.3410   33.5550   50.4870 C   0  0  0  0  0  0  0  0  0  0  0  0
   59.7710   33.3900   49.1670 C   0  0  0  0  0  0  0  0  0  0  0  0
   59.1810   31.4720   46.1400 C   0  0  0  0  0  0  0  0  0  0  0  0
   58.0450   30.7890   45.6940 C   0  0  0  0  0  0  0  0  0  0  0  0
   56.9450   24.3932   47.9721 H   0  0  0  0  0  0  0  0  0  0  0  0
   56.2756   25.9167   47.2958 H   0  0  0  0  0  0  0  0  0  0  0  0
   55.2811   24.4209   47.2958 H   0  0  0  0  0  0  0  0  0  0  0  0
   57.9274   24.2408   45.9058 H   0  0  0  0  0  0  0  0  0  0  0  0
   56.3176   23.5687   45.4454 H   0  0  0  0  0  0  0  0  0  0  0  0
   56.3130   26.3880   45.4160 H   0  0  0  0  0  0  0  0  0  0  0  0
   58.4042   25.0567   43.8099 H   0  0  0  0  0  0  0  0  0  0  0  0
   57.7103   26.6710   43.4247 H   0  0  0  0  0  0  0  0  0  0  0  0
   59.5082   25.8266   45.6820 H   0  0  0  0  0  0  0  0  0  0  0  0
   59.4361   27.3790   44.7597 H   0  0  0  0  0  0  0  0  0  0  0  0
   60.4224   27.2317   47.6669 H   0  0  0  0  0  0  0  0  0  0  0  0
   61.7556   27.8249   49.6916 H   0  0  0  0  0  0  0  0  0  0  0  0
   61.0265   29.7061   51.1621 H   0  0  0  0  0  0  0  0  0  0  0  0
   58.9658   30.9999   50.6067 H   0  0  0  0  0  0  0  0  0  0  0  0
   57.6400   30.4306   48.5721 H   0  0  0  0  0  0  0  0  0  0  0  0
   56.5993   33.1426   43.6883 H   0  0  0  0  0  0  0  0  0  0  0  0
   58.6566   34.3967   44.4090 H   0  0  0  0  0  0  0  0  0  0  0  0
   63.0947   32.8139   49.7501 H   0  0  0  0  0  0  0  0  0  0  0  0
   62.3247   33.1436   52.1008 H   0  0  0  0  0  0  0  0  0  0  0  0
   59.9144   33.5934   52.5778 H   0  0  0  0  0  0  0  0  0  0  0  0
   58.2805   33.7578   50.6972 H   0  0  0  0  0  0  0  0  0  0  0  0
   59.0512   33.4774   48.3398 H   0  0  0  0  0  0  0  0  0  0  0  0
   59.8929   30.9943   46.8292 H   0  0  0  0  0  0  0  0  0  0  0  0
  1  2  1  0
  2  3  1  0
  3  4  1  0
  4  5  1  0
  5  6  1  0
  6  7  2  3
  7  8  1  0
  8  9  2  0
  9 10  1  0
 10 11  2  0
 11 12  1  0
 12 13  2  0
  7 14  1  0
 14 15  2  0
 15 16  1  0
 15 17  1  0
 17 18  1  0
 18 19  2  0
 19 20  1  0
 20 21  2  0
 21 22  1  0
 22 23  1  0
 23 24  2  0
 23 25  2  0
 23 26  1  0
 26 27  2  0
 27 28  1  0
 28 29  2  0
 29 30  1  0
 30 31  2  0
 21 32  1  0
 32 33  2  0
 13  8  1  0
 33 14  1  0
 33 18  1  0
 31 26  1  0
  1 34  1  0
  1 35  1  0
  1 36  1  0
  2 37  1  0
  2 38  1  0
  3 39  1  0
  4 40  1  0
  4 41  1  0
  5 42  1  0
  5 43  1  0
  9 44  1  0
 10 45  1  0
 11 46  1  0
 12 47  1  0
 13 48  1  0
 19 49  1  0
 20 50  1  0
 27 51  1  0
 28 52  1  0
 29 53  1  0
 30 54  1  0
 31 55  1  0
 32 56  1  0
M  CHG  3  16  -1  17  -1  22  -1
M  END
>  <UniqueID>  (26) 
26

>  <SMILES>  (26) 
CCNCCN=C(c1ccccc1)c1c([O-])[n-]c2ccc([N-]S(=O)(=O)c3ccccc3)cc12

>  <Energy>  (26) 
101.74880116207274

>  <Genealogy>  (26) 
CCNCCN=C(c1ccccc1)c1c([O-])[n-]c2ccc([N-]S(=O)(=O)c3ccccc3)cc12 (protonated)
CCNCCN=C(c1ccccc1)c1c([O-])[n-]c2ccc([N-]S(=O)(=O)c3ccccc3)cc12 (3D coordinates assigned)
CCNCCN=C(c1ccccc1)c1c([O-])[n-]c2ccc([N-]S(=O)(=O)c3ccccc3)cc12 (optimized conformer: 101.74880116207274 kcal/mol)

>  <smiles>  (26) 
CCNCCN=C(c1ccccc1)c1c(O)[nH]c2ccc(NS(=O)(=O)c3ccccc3)cc12

>  <score_type>  (26) 
oracle

>  <origin>  (26) 
adg

>  <m_score__min__energy>  (26) 
-13.75

>  <m_primary>  (26) 
energy

$$$$
26:0
     RDKit          3D

 46 48  0  0  0  0  0  0  0  0999 V2000
   55.7325   29.3101   43.9690 H   0  0  0  0  0  0  0  0  0  0  0  0
   56.7440   29.4410   44.3810 C   0  0  0  0  0  0  0  0  0  0  0  0
   57.0050   30.4890   45.2190 N   0  0  0  0  0  0  0  0  0  0  0  0
   58.2620   30.6390   45.7090 C   0  0  0  0  0  0  0  0  0  0  0  0
   59.2630   29.7750   45.4130 C   0  0  0  0  0  0  0  0  0  0  0  0
   60.3820   30.1180   46.0700 N   0  0  0  0  0  0  0  0  0  0  0  0
   60.0090   31.2270   46.7650 C   0  0  0  0  0  0  0  0  0  0  0  0
   60.8740   31.8340   47.5330 N   0  0  0  0  0  0  0  0  0  0  0  0
   62.2310   31.4680   47.9460 C   0  0  0  0  0  0  0  0  0  0  0  0
   62.3972   30.3960   47.7635 H   0  0  0  0  0  0  0  0  0  0  0  0
   62.4270   31.7190   49.4670 C   0  0  0  0  0  0  0  0  0  0  0  0
   61.4428   31.6656   49.9554 H   0  0  0  0  0  0  0  0  0  0  0  0
   63.1234   30.9480   49.8282 H   0  0  0  0  0  0  0  0  0  0  0  0
   63.0610   33.0830   49.8040 C   0  0  0  0  0  0  0  0  0  0  0  0
   62.7358   33.3894   50.8092 H   0  0  0  0  0  0  0  0  0  0  0  0
   64.1548   32.9743   49.7615 H   0  0  0  0  0  0  0  0  0  0  0  0
   62.6470   34.1600   48.7980 C   0  0  0  0  0  0  0  0  0  0  0  0
   61.5513   34.2565   48.8093 H   0  0  0  0  0  0  0  0  0  0  0  0
   63.1281   35.1054   49.0892 H   0  0  0  0  0  0  0  0  0  0  0  0
   63.1030   33.8080   47.3690 C   0  0  0  0  0  0  0  0  0  0  0  0
   62.3671   34.2132   46.6589 H   0  0  0  0  0  0  0  0  0  0  0  0
   64.1019   34.2473   47.2304 H   0  0  0  0  0  0  0  0  0  0  0  0
   63.2360   32.2900   47.1220 C   0  0  0  0  0  0  0  0  0  0  0  0
   63.0635   32.0901   46.0542 H   0  0  0  0  0  0  0  0  0  0  0  0
   64.2475   31.9887   47.4321 H   0  0  0  0  0  0  0  0  0  0  0  0
   58.6960   31.5850   46.5590 N   0  0  0  0  0  0  0  0  0  0  0  0
   57.8230   32.5670   47.2140 C   0  0  0  0  0  0  0  0  0  0  0  0
   58.0603   32.6039   48.2875 H   0  0  0  0  0  0  0  0  0  0  0  0
   56.7751   32.2658   47.0687 H   0  0  0  0  0  0  0  0  0  0  0  0
   58.0310   33.9640   46.6000 C   0  0  0  0  0  0  0  0  0  0  0  0
   57.9365   34.7171   47.3961 H   0  0  0  0  0  0  0  0  0  0  0  0
   57.2685   34.1036   45.8195 H   0  0  0  0  0  0  0  0  0  0  0  0
   59.3600   34.1100   45.9630 N   0  0  0  0  0  0  0  0  0  0  0  0
   59.9760   33.3150   46.2560 H   0  0  0  0  0  0  0  0  0  0  0  0
   59.2610   34.1110   44.4910 C   0  0  0  0  0  0  0  0  0  0  0  0
   58.2017   34.1217   44.1948 H   0  0  0  0  0  0  0  0  0  0  0  0
   59.7628   35.0041   44.0904 H   0  0  0  0  0  0  0  0  0  0  0  0
   59.7447   33.2079   44.0904 H   0  0  0  0  0  0  0  0  0  0  0  0
   59.9980   35.3590   46.4160 C   0  0  0  0  0  0  0  0  0  0  0  0
   60.0117   35.3859   47.5156 H   0  0  0  0  0  0  0  0  0  0  0  0
   61.0291   35.4031   46.0353 H   0  0  0  0  0  0  0  0  0  0  0  0
   59.4294   36.2202   46.0353 H   0  0  0  0  0  0  0  0  0  0  0  0
   59.0560   28.6890   44.5710 C   0  0  0  0  0  0  0  0  0  0  0  0
   59.8685   27.9877   44.3301 H   0  0  0  0  0  0  0  0  0  0  0  0
   57.7650   28.5240   44.0400 C   0  0  0  0  0  0  0  0  0  0  0  0
   57.5498   27.6850   43.3620 H   0  0  0  0  0  0  0  0  0  0  0  0
  1  2  1  0
  2  3  2  0
  3  4  1  0
  4  5  2  0
  5  6  1  0
  6  7  1  0
  7  8  2  0
  8  9  1  0
  9 10  1  0
  9 11  1  0
 11 12  1  0
 11 13  1  0
 11 14  1  0
 14 15  1  0
 14 16  1  0
 14 17  1  0
 17 18  1  0
 17 19  1  0
 17 20  1  0
 20 21  1  0
 20 22  1  0
 20 23  1  0
 23 24  1  0
 23 25  1  0
  7 26  1  0
 26 27  1  0
 27 28  1  0
 27 29  1  0
 27 30  1  0
 30 31  1  0
 30 32  1  0
 30 33  1  0
 33 34  1  0
 33 35  1  0
 35 36  1  0
 35 37  1  0
 35 38  1  0
 33 39  1  0
 39 40  1  0
 39 41  1  0
 39 42  1  0
  5 43  1  0
 43 44  1  0
 43 45  2  0
 45 46  1  0
 45  2  1  0
 26  4  1  0
 23  9  1  0
M  CHG  2   6  -1  33   1
M  END
>  <UniqueID>  (27) 
27

>  <SMILES>  (27) 
C[NH+](C)CCn1/c(=N\C2CCCCC2)[n-]c2cccnc21

>  <Energy>  (27) 
95.08810316072534

>  <Genealogy>  (27) 
C[NH+](C)CCn1c(=NC2CCCCC2)[n-]c2cccnc21 (protonated)
C[NH+](C)CCn1/c(=N\C2CCCCC2)[n-]c2cccnc21 (cis-trans isomerization)
C[NH+](C)CCn1/c(=N\C2CCCCC2)[n-]c2cccnc21 (3D coordinates assigned)
C[NH+](C)CCn1/c(=N\C2CCCCC2)[n-]c2cccnc21 (nonaromatic ring conformer: 95.08810316072534 kcal/mol)

>  <smiles>  (27) 
CN(C)CCn1c(=NC2CCCCC2)[nH]c2cccnc21

>  <score_type>  (27) 
oracle

>  <origin>  (27) 
adg

>  <m_score__min__energy>  (27) 
-6.2199999999999998

>  <m_primary>  (27) 
energy

$$$$
27:0
     RDKit          3D

 27 28  0  0  0  0  0  0  0  0999 V2000
   55.5070   29.0330   44.8620 O   0  0  0  0  0  0  0  0  0  0  0  0
   56.4140   29.7980   44.4410 C   0  0  0  0  0  0  0  0  0  0  0  0
   57.6260   29.2030   43.7690 C   0  0  0  0  0  0  0  0  0  0  0  0
   58.5490   28.5290   44.7530 C   0  0  0  0  0  0  0  0  0  0  0  0
   58.3910   27.1650   45.0570 C   0  0  0  0  0  0  0  0  0  0  0  0
   59.2380   26.5440   45.9800 C   0  0  0  0  0  0  0  0  0  0  0  0
   60.2380   27.2810   46.6190 C   0  0  0  0  0  0  0  0  0  0  0  0
   61.0580   26.6770   47.5150 F   0  0  0  0  0  0  0  0  0  0  0  0
   60.3890   28.6410   46.3400 C   0  0  0  0  0  0  0  0  0  0  0  0
   59.5450   29.2660   45.4160 C   0  0  0  0  0  0  0  0  0  0  0  0
   56.2090   31.2150   44.5120 N   0  0  0  0  0  0  0  0  0  0  0  0
   57.2270   32.1900   44.7720 C   0  0  0  0  0  0  0  0  0  0  0  0
   57.4270   32.6950   46.0630 C   0  0  0  0  0  0  0  0  0  0  0  0
   58.4060   33.6610   46.2920 C   0  0  0  0  0  0  0  0  0  0  0  0
   59.1630   34.1330   45.2180 C   0  0  0  0  0  0  0  0  0  0  0  0
   58.9350   33.6590   43.9650 N   0  0  0  0  0  0  0  0  0  0  0  0
   57.9870   32.7140   43.7150 C   0  0  0  0  0  0  0  0  0  0  0  0
   57.7530   32.1540   42.0680 Cl  0  0  0  0  0  0  0  0  0  0  0  0
   57.2923   28.4598   43.0299 H   0  0  0  0  0  0  0  0  0  0  0  0
   58.1827   30.0218   43.2898 H   0  0  0  0  0  0  0  0  0  0  0  0
   57.5968   26.5835   44.5660 H   0  0  0  0  0  0  0  0  0  0  0  0
   59.1168   25.4737   46.2033 H   0  0  0  0  0  0  0  0  0  0  0  0
   61.1731   29.2218   46.8478 H   0  0  0  0  0  0  0  0  0  0  0  0
   59.6615   30.3397   45.2073 H   0  0  0  0  0  0  0  0  0  0  0  0
   56.8108   32.3290   46.8975 H   0  0  0  0  0  0  0  0  0  0  0  0
   58.5800   34.0469   47.3073 H   0  0  0  0  0  0  0  0  0  0  0  0
   59.9443   34.8889   45.3862 H   0  0  0  0  0  0  0  0  0  0  0  0
  1  2  2  0
  2  3  1  0
  3  4  1  0
  4  5  2  0
  5  6  1  0
  6  7  2  0
  7  8  1  0
  7  9  1  0
  9 10  2  0
  2 11  1  0
 11 12  1  0
 12 13  2  0
 13 14  1  0
 14 15  2  0
 15 16  1  0
 16 17  2  0
 17 18  1  0
 10  4  1  0
 17 12  1  0
  3 19  1  0
  3 20  1  0
  5 21  1  0
  6 22  1  0
  9 23  1  0
 10 24  1  0
 13 25  1  0
 14 26  1  0
 15 27  1  0
M  CHG  1  11  -1
M  END
>  <UniqueID>  (28) 
28

>  <SMILES>  (28) 
O=C(Cc1ccc(F)cc1)[N-]c1cccnc1Cl

>  <Energy>  (28) 
33.46828215262053

>  <Genealogy>  (28) 
O=C(Cc1ccc(F)cc1)[N-]c1cccnc1Cl (protonated)
O=C(Cc1ccc(F)cc1)[N-]c1cccnc1Cl (3D coordinates assigned)
O=C(Cc1ccc(F)cc1)[N-]c1cccnc1Cl (optimized conformer: 33.46828215262053 kcal/mol)

>  <smiles>  (28) 
O=C(Cc1ccc(F)cc1)Nc1cccnc1Cl

>  <score_type>  (28) 
oracle

>  <origin>  (28) 
adg

>  <m_score__min__energy>  (28) 
-8.4700000000000006

>  <m_primary>  (28) 
energy

$$$$
28:0
     RDKit          3D

 45 47  0  0  0  0  0  0  0  0999 V2000
   56.5790   29.8100   43.2470 C   0  0  0  0  0  0  0  0  0  0  0  0
   56.4130   30.4790   44.4930 O   0  0  0  0  0  0  0  0  0  0  0  0
   57.3730   31.3230   45.0710 C   0  0  0  0  0  0  0  0  0  0  0  0
   57.2150   32.7060   44.9280 C   0  0  0  0  0  0  0  0  0  0  0  0
   58.1420   33.5890   45.4870 C   0  0  0  0  0  0  0  0  0  0  0  0
   59.2380   33.0970   46.2090 C   0  0  0  0  0  0  0  0  0  0  0  0
   60.4220   34.2040   46.9090 S   0  0  0  0  0  0  0  0  0  0  0  0
   59.8580   35.5970   46.9610 O   0  0  0  0  0  0  0  0  0  0  0  0
   61.6270   34.2110   46.0110 O   0  0  0  0  0  0  0  0  0  0  0  0
   60.9000   33.7000   48.5180 N   0  0  2  0  0  0  0  0  0  0  0  0
   59.9800   34.2130   49.5700 C   0  0  0  0  0  0  0  0  0  0  0  0
   59.2310   33.1430   50.3430 C   0  0  0  0  0  0  0  0  0  0  0  0
   58.7600   33.3960   51.6440 C   0  0  0  0  0  0  0  0  0  0  0  0
   58.0850   32.4010   52.3580 C   0  0  0  0  0  0  0  0  0  0  0  0
   57.8930   31.1390   51.7900 C   0  0  0  0  0  0  0  0  0  0  0  0
   58.3880   30.8660   50.5140 C   0  0  0  0  0  0  0  0  0  0  0  0
   58.2200   29.6350   49.9700 F   0  0  0  0  0  0  0  0  0  0  0  0
   59.0630   31.8580   49.7970 C   0  0  0  0  0  0  0  0  0  0  0  0
   62.3260   34.0290   48.7410 C   0  0  0  0  0  0  0  0  0  0  0  0
   63.2410   32.8040   48.5310 C   0  0  0  0  0  0  0  0  0  0  0  0
   63.7660   32.6250   47.1140 C   0  0  0  0  0  0  0  0  0  0  0  0
   62.6730   31.7080   47.6420 C   0  0  0  0  0  0  0  0  0  0  0  0
   59.4110   31.7130   46.3410 C   0  0  0  0  0  0  0  0  0  0  0  0
   58.4840   30.8300   45.7820 C   0  0  0  0  0  0  0  0  0  0  0  0
   56.8403   28.7570   43.4282 H   0  0  0  0  0  0  0  0  0  0  0  0
   55.6408   29.8618   42.6751 H   0  0  0  0  0  0  0  0  0  0  0  0
   57.3842   30.2944   42.6751 H   0  0  0  0  0  0  0  0  0  0  0  0
   56.3532   33.1014   44.3704 H   0  0  0  0  0  0  0  0  0  0  0  0
   58.0114   34.6738   45.3601 H   0  0  0  0  0  0  0  0  0  0  0  0
   60.8180   32.6560   48.5240 H   0  0  0  0  0  0  0  0  0  0  0  0
   60.5739   34.7993   50.2866 H   0  0  0  0  0  0  0  0  0  0  0  0
   59.2158   34.8072   49.0476 H   0  0  0  0  0  0  0  0  0  0  0  0
   58.9236   34.3824   52.1025 H   0  0  0  0  0  0  0  0  0  0  0  0
   57.7046   32.6122   53.3683 H   0  0  0  0  0  0  0  0  0  0  0  0
   57.3519   30.3609   52.3483 H   0  0  0  0  0  0  0  0  0  0  0  0
   59.4656   31.6319   48.7986 H   0  0  0  0  0  0  0  0  0  0  0  0
   62.6228   34.8192   48.0356 H   0  0  0  0  0  0  0  0  0  0  0  0
   62.4390   34.3632   49.7829 H   0  0  0  0  0  0  0  0  0  0  0  0
   63.6925   32.8363   49.5336 H   0  0  0  0  0  0  0  0  0  0  0  0
   63.5314   33.3726   46.3420 H   0  0  0  0  0  0  0  0  0  0  0  0
   64.7590   32.4737   46.6657 H   0  0  0  0  0  0  0  0  0  0  0  0
   61.6481   31.7925   47.2516 H   0  0  0  0  0  0  0  0  0  0  0  0
   62.5485   30.6189   47.7335 H   0  0  0  0  0  0  0  0  0  0  0  0
   60.2809   31.3198   46.8874 H   0  0  0  0  0  0  0  0  0  0  0  0
   58.6225   29.7449   45.8977 H   0  0  0  0  0  0  0  0  0  0  0  0
  1  2  1  0
  2  3  1  0
  3  4  2  0
  4  5  1  0
  5  6  2  0
  6  7  1  0
  7  8  2  0
  7  9  2  0
  7 10  1  0
 10 11  1  0
 11 12  1  0
 12 13  2  0
 13 14  1  0
 14 15  2  0
 15 16  1  0
 16 17  1  0
 16 18  2  0
 10 19  1  0
 19 20  1  0
 20 21  1  0
 21 22  1  0
  6 23  1  0
 23 24  2  0
 24  3  1  0
 18 12  1  0
 22 20  1  0
  1 25  1  0
  1 26  1  0
  1 27  1  0
  4 28  1  0
  5 29  1  0
 10 30  1  6
 11 31  1  0
 11 32  1  0
 13 33  1  0
 14 34  1  0
 15 35  1  0
 18 36  1  0
 19 37  1  0
 19 38  1  0
 20 39  1  0
 21 40  1  0
 21 41  1  0
 22 42  1  0
 22 43  1  0
 23 44  1  0
 24 45  1  0
M  CHG  1  10   1
M  END
>  <UniqueID>  (29) 
29

>  <SMILES>  (29) 
COc1ccc(S(=O)(=O)[N@H+](Cc2cccc(F)c2)CC2CC2)cc1

>  <Energy>  (29) 
311.5952939432708

>  <Genealogy>  (29) 
COc1ccc(S(=O)(=O)[NH+](Cc2cccc(F)c2)CC2CC2)cc1 (protonated)
COc1ccc(S(=O)(=O)[N@H+](Cc2cccc(F)c2)CC2CC2)cc1 (chirality)
COc1ccc(S(=O)(=O)[N@H+](Cc2cccc(F)c2)CC2CC2)cc1 (3D coordinates assigned)
COc1ccc(S(=O)(=O)[N@H+](Cc2cccc(F)c2)CC2CC2)cc1 (nonaromatic ring conformer: 311.5952939432708 kcal/mol)

>  <smiles>  (29) 
COc1ccc(S(=O)(=O)N(Cc2cccc(F)c2)CC2CC2)cc1

>  <score_type>  (29) 
oracle

>  <origin>  (29) 
adg

>  <m_score__min__energy>  (29) 
-6.0099999999999998

>  <m_primary>  (29) 
energy

$$$$
29:0
     RDKit          3D

 35 37  0  0  0  0  0  0  0  0999 V2000
   63.1640   35.3840   50.5050 F   0  0  0  0  0  0  0  0  0  0  0  0
   62.7880   34.0550   50.4390 C   0  0  0  0  0  0  0  0  0  0  0  0
   62.0040   33.7530   51.5390 F   0  0  0  0  0  0  0  0  0  0  0  0
   63.9220   33.2620   50.4850 F   0  0  0  0  0  0  0  0  0  0  0  0
   62.0230   33.8190   49.1610 C   0  0  0  0  0  0  0  0  0  0  0  0
   62.6990   33.7730   47.9260 C   0  0  0  0  0  0  0  0  0  0  0  0
   61.9890   33.6000   46.7330 C   0  0  0  0  0  0  0  0  0  0  0  0
   60.5980   33.4890   46.7590 C   0  0  0  0  0  0  0  0  0  0  0  0
   59.8940   33.3180   45.6090 N   0  0  0  0  0  0  0  0  0  0  0  0
   58.5380   33.2080   45.6180 C   0  0  0  0  0  0  0  0  0  0  0  0
   57.8010   32.9900   44.3220 C   0  0  0  0  0  0  0  0  0  0  0  0
   58.0640   31.6670   43.7090 N   0  0  0  0  0  0  0  0  0  0  0  0
   58.5580   30.6360   44.6440 C   0  0  0  0  0  0  0  0  0  0  0  0
   57.4220   29.7960   45.2750 C   0  0  0  0  0  0  0  0  0  0  0  0
   56.1460   30.1150   44.7580 O   0  0  0  0  0  0  0  0  0  0  0  0
   56.1790   30.0460   43.3510 C   0  0  0  0  0  0  0  0  0  0  0  0
   57.0210   31.1940   42.7710 C   0  0  0  0  0  0  0  0  0  0  0  0
   57.8550   33.2870   46.8410 C   0  0  0  0  0  0  0  0  0  0  0  0
   58.5550   33.4600   47.9930 N   0  0  0  0  0  0  0  0  0  0  0  0
   59.9100   33.5580   47.9850 C   0  0  0  0  0  0  0  0  0  0  0  0
   60.6190   33.7330   49.1770 C   0  0  0  0  0  0  0  0  0  0  0  0
   63.7940   33.8739   47.8994 H   0  0  0  0  0  0  0  0  0  0  0  0
   62.5269   33.5515   45.7747 H   0  0  0  0  0  0  0  0  0  0  0  0
   56.7217   33.0755   44.5164 H   0  0  0  0  0  0  0  0  0  0  0  0
   58.1585   33.7520   43.6138 H   0  0  0  0  0  0  0  0  0  0  0  0
   59.2308   29.9598   44.0962 H   0  0  0  0  0  0  0  0  0  0  0  0
   59.0756   31.1565   45.4633 H   0  0  0  0  0  0  0  0  0  0  0  0
   57.6231   28.7322   45.0802 H   0  0  0  0  0  0  0  0  0  0  0  0
   57.4061   30.0208   46.3517 H   0  0  0  0  0  0  0  0  0  0  0  0
   56.6198   29.0852   43.0467 H   0  0  0  0  0  0  0  0  0  0  0  0
   55.1514   30.1323   42.9682 H   0  0  0  0  0  0  0  0  0  0  0  0
   57.5091   30.8422   41.8501 H   0  0  0  0  0  0  0  0  0  0  0  0
   56.3429   32.0376   42.5748 H   0  0  0  0  0  0  0  0  0  0  0  0
   56.7581   33.2093   46.8673 H   0  0  0  0  0  0  0  0  0  0  0  0
   60.0768   33.8038   50.1315 H   0  0  0  0  0  0  0  0  0  0  0  0
  1  2  1  0
  2  3  1  0
  2  4  1  0
  2  5  1  0
  5  6  2  0
  6  7  1  0
  7  8  2  0
  8  9  1  0
  9 10  2  0
 10 11  1  0
 11 12  1  0
 12 13  1  0
 13 14  1  0
 14 15  1  0
 15 16  1  0
 16 17  1  0
 10 18  1  0
 18 19  2  0
 19 20  1  0
 20 21  2  0
 21  5  1  0
 20  8  1  0
 17 12  1  0
  6 22  1  0
  7 23  1  0
 11 24  1  0
 11 25  1  0
 13 26  1  0
 13 27  1  0
 14 28  1  0
 14 29  1  0
 16 30  1  0
 16 31  1  0
 17 32  1  0
 17 33  1  0
 18 34  1  0
 21 35  1  0
M  END
>  <UniqueID>  (30) 
30

>  <SMILES>  (30) 
FC(F)(F)c1ccc2nc(CN3CCOCC3)cnc2c1

>  <Energy>  (30) 
54.85310540794724

>  <Genealogy>  (30) 
FC(F)(F)c1ccc2nc(CN3CCOCC3)cnc2c1 (3D coordinates assigned)
FC(F)(F)c1ccc2nc(CN3CCOCC3)cnc2c1 (nonaromatic ring conformer: 54.85310540794724 kcal/mol)

>  <smiles>  (30) 
FC(F)(F)c1ccc2nc(CN3CCOCC3)cnc2c1

>  <score_type>  (30) 
oracle

>  <origin>  (30) 
adg

>  <m_score__min__energy>  (30) 
-6.5700000000000003

>  <m_primary>  (30) 
energy

$$$$
30:0
     RDKit          3D

 48 51  0  0  0  0  0  0  0  0999 V2000
   59.6360   34.9670   47.3950 C   0  0  0  0  0  0  0  0  0  0  0  0
   58.9090   34.5920   46.1060 C   0  0  0  0  0  0  0  0  0  0  0  0
   58.7450   33.1250   46.0060 N   0  0  0  0  0  0  0  0  0  0  0  0
   58.2950   32.7060   44.6540 C   0  0  0  0  0  0  0  0  0  0  0  0
   56.9360   32.0130   44.7640 C   0  0  0  0  0  0  0  0  0  0  0  0
   57.0960   30.5270   44.6830 C   0  0  0  0  0  0  0  0  0  0  0  0
   57.7140   29.8390   43.6420 C   0  0  0  0  0  0  0  0  0  0  0  0
   57.6470   28.5210   44.0260 C   0  0  0  0  0  0  0  0  0  0  0  0
   58.0980   27.3620   43.3960 C   0  0  0  0  0  0  0  0  0  0  0  0
   57.8830   26.1350   44.0520 C   0  0  0  0  0  0  0  0  0  0  0  0
   57.2320   26.0990   45.3060 C   0  0  0  0  0  0  0  0  0  0  0  0
   56.7890   27.2880   45.9150 C   0  0  0  0  0  0  0  0  0  0  0  0
   57.0150   28.4850   45.2420 C   0  0  0  0  0  0  0  0  0  0  0  0
   56.6930   29.6950   45.6270 O   0  0  0  0  0  0  0  0  0  0  0  0
   59.9870   32.4310   46.4130 C   0  0  0  0  0  0  0  0  0  0  0  0
   59.6760   31.2430   47.3000 C   0  0  0  0  0  0  0  0  0  0  0  0
   59.1440   31.4810   48.5790 C   0  0  0  0  0  0  0  0  0  0  0  0
   58.8730   30.4270   49.4500 C   0  0  0  0  0  0  0  0  0  0  0  0
   59.1280   29.1130   49.0640 C   0  0  0  0  0  0  0  0  0  0  0  0
   59.6580   28.8400   47.7970 C   0  0  0  0  0  0  0  0  0  0  0  0
   59.9190   27.5130   47.4180 C   0  0  0  0  0  0  0  0  0  0  0  0
   60.4530   27.2320   46.1610 C   0  0  0  0  0  0  0  0  0  0  0  0
   60.7320   28.2680   45.2700 C   0  0  0  0  0  0  0  0  0  0  0  0
   60.4790   29.5940   45.6300 C   0  0  0  0  0  0  0  0  0  0  0  0
   59.9380   29.9050   46.8970 C   0  0  0  0  0  0  0  0  0  0  0  0
   59.0324   34.6556   48.2603 H   0  0  0  0  0  0  0  0  0  0  0  0
   60.6115   34.4596   47.4267 H   0  0  0  0  0  0  0  0  0  0  0  0
   59.7880   36.0560   47.4267 H   0  0  0  0  0  0  0  0  0  0  0  0
   57.9171   35.0675   46.0994 H   0  0  0  0  0  0  0  0  0  0  0  0
   59.5050   34.9405   45.2496 H   0  0  0  0  0  0  0  0  0  0  0  0
   58.2047   33.5907   44.0066 H   0  0  0  0  0  0  0  0  0  0  0  0
   59.0288   32.0100   44.2214 H   0  0  0  0  0  0  0  0  0  0  0  0
   56.4731   32.2751   45.7268 H   0  0  0  0  0  0  0  0  0  0  0  0
   56.2983   32.3475   43.9325 H   0  0  0  0  0  0  0  0  0  0  0  0
   58.1544   30.2547   42.7237 H   0  0  0  0  0  0  0  0  0  0  0  0
   58.6042   27.4047   42.4203 H   0  0  0  0  0  0  0  0  0  0  0  0
   58.2237   25.1987   43.5858 H   0  0  0  0  0  0  0  0  0  0  0  0
   57.0704   25.1346   45.8097 H   0  0  0  0  0  0  0  0  0  0  0  0
   56.2810   27.2717   46.8905 H   0  0  0  0  0  0  0  0  0  0  0  0
   60.5152   32.0808   45.5139 H   0  0  0  0  0  0  0  0  0  0  0  0
   60.6152   33.1361   46.9771 H   0  0  0  0  0  0  0  0  0  0  0  0
   58.9386   32.5137   48.8972 H   0  0  0  0  0  0  0  0  0  0  0  0
   58.4559   30.6337   50.4466 H   0  0  0  0  0  0  0  0  0  0  0  0
   58.9122   28.2867   49.7572 H   0  0  0  0  0  0  0  0  0  0  0  0
   59.7011   26.6914   48.1162 H   0  0  0  0  0  0  0  0  0  0  0  0
   60.6548   26.1902   45.8713 H   0  0  0  0  0  0  0  0  0  0  0  0
   61.1530   28.0402   44.2796 H   0  0  0  0  0  0  0  0  0  0  0  0
   60.7033   30.4035   44.9198 H   0  0  0  0  0  0  0  0  0  0  0  0
  1  2  1  0
  2  3  1  0
  3  4  1  0
  4  5  1  0
  5  6  1  0
  6  7  2  0
  7  8  1  0
  8  9  2  0
  9 10  1  0
 10 11  2  0
 11 12  1  0
 12 13  2  0
 13 14  1  0
  3 15  1  0
 15 16  1  0
 16 17  2  0
 17 18  1  0
 18 19  2  0
 19 20  1  0
 20 21  2  0
 21 22  1  0
 22 23  2  0
 23 24  1  0
 24 25  2  0
 14  6  1  0
 25 16  1  0
 13  8  1  0
 25 20  1  0
  1 26  1  0
  1 27  1  0
  1 28  1  0
  2 29  1  0
  2 30  1  0
  4 31  1  0
  4 32  1  0
  5 33  1  0
  5 34  1  0
  7 35  1  0
  9 36  1  0
 10 37  1  0
 11 38  1  0
 12 39  1  0
 15 40  1  0
 15 41  1  0
 17 42  1  0
 18 43  1  0
 19 44  1  0
 21 45  1  0
 22 46  1  0
 23 47  1  0
 24 48  1  0
M  END
>  <UniqueID>  (31) 
31

>  <SMILES>  (31) 
CCN(CCc1cc2ccccc2o1)Cc1cccc2ccccc12

>  <Energy>  (31) 
87.96255641830454

>  <Genealogy>  (31) 
CCN(CCc1cc2ccccc2o1)Cc1cccc2ccccc12 (3D coordinates assigned)
CCN(CCc1cc2ccccc2o1)Cc1cccc2ccccc12 (optimized conformer: 87.96255641830454 kcal/mol)

>  <smiles>  (31) 
CCN(CCc1cc2ccccc2o1)Cc1cccc2ccccc12

>  <score_type>  (31) 
oracle

>  <origin>  (31) 
adg

>  <m_score__min__energy>  (31) 
-8.1899999999999995

>  <m_primary>  (31) 
energy

$$$$
31:0
     RDKit          3D

 41 43  0  0  0  0  0  0  0  0999 V2000
   55.5290   25.8170   45.9720 C   0  0  0  0  0  0  0  0  0  0  0  0
   55.6780   27.2230   45.6220 N   0  0  0  0  0  0  0  0  0  0  0  0
   56.9250   27.9270   45.5700 C   0  0  0  0  0  0  0  0  0  0  0  0
   57.9340   27.4100   46.1170 O   0  0  0  0  0  0  0  0  0  0  0  0
   57.0740   29.2160   44.8650 C   0  0  0  0  0  0  0  0  0  0  0  0
   56.5940   29.3530   43.5540 C   0  0  0  0  0  0  0  0  0  0  0  0
   56.7460   30.5610   42.8720 C   0  0  0  0  0  0  0  0  0  0  0  0
   57.3840   31.6400   43.4870 C   0  0  0  0  0  0  0  0  0  0  0  0
   57.8750   31.5200   44.7980 C   0  0  0  0  0  0  0  0  0  0  0  0
   58.5860   32.6410   45.4500 C   0  0  0  0  0  0  0  0  0  0  0  0
   58.6450   33.8580   44.8300 N   0  0  0  0  0  0  0  0  0  0  0  0
   59.2860   34.9280   45.3960 C   0  0  0  0  0  0  0  0  0  0  0  0
   59.9030   34.8030   46.6070 N   0  0  0  0  0  0  0  0  0  0  0  0
   59.8630   33.6000   47.2300 C   0  0  0  0  0  0  0  0  0  0  0  0
   59.2280   32.5220   46.6870 C   0  0  0  0  0  0  0  0  0  0  0  0
   59.4230   31.4600   47.5530 C   0  0  0  0  0  0  0  0  0  0  0  0
   60.1700   31.9770   48.6090 C   0  0  0  0  0  0  0  0  0  0  0  0
   60.4440   33.2870   48.4000 N   0  0  0  0  0  0  0  0  0  0  0  0
   61.1680   34.1800   49.3050 C   0  0  0  0  0  0  0  0  0  0  0  0
   62.6680   34.1540   49.0010 C   0  0  0  0  0  0  0  0  0  0  0  0
   62.8980   34.1620   47.5510 N   0  0  0  0  0  0  0  0  0  0  0  0
   63.3910   32.8570   47.1090 C   0  0  0  0  0  0  0  0  0  0  0  0
   57.7370   30.2950   45.4720 C   0  0  0  0  0  0  0  0  0  0  0  0
   55.5178   25.7109   47.0668 H   0  0  0  0  0  0  0  0  0  0  0  0
   54.5852   25.4338   45.5568 H   0  0  0  0  0  0  0  0  0  0  0  0
   56.3715   25.2445   45.5568 H   0  0  0  0  0  0  0  0  0  0  0  0
   56.0958   28.5049   43.0616 H   0  0  0  0  0  0  0  0  0  0  0  0
   56.3618   30.6635   41.8464 H   0  0  0  0  0  0  0  0  0  0  0  0
   57.5028   32.5884   42.9426 H   0  0  0  0  0  0  0  0  0  0  0  0
   59.3036   35.8945   44.8710 H   0  0  0  0  0  0  0  0  0  0  0  0
   59.0643   30.4271   47.4329 H   0  0  0  0  0  0  0  0  0  0  0  0
   60.4923   31.4019   49.4895 H   0  0  0  0  0  0  0  0  0  0  0  0
   60.7912   35.2057   49.1788 H   0  0  0  0  0  0  0  0  0  0  0  0
   61.0097   33.8412   50.3395 H   0  0  0  0  0  0  0  0  0  0  0  0
   63.1435   35.0395   49.4480 H   0  0  0  0  0  0  0  0  0  0  0  0
   63.1016   33.2364   49.4254 H   0  0  0  0  0  0  0  0  0  0  0  0
   61.9800   34.3280   47.0760 H   0  0  0  0  0  0  0  0  0  0  0  0
   63.6252   32.2370   47.9869 H   0  0  0  0  0  0  0  0  0  0  0  0
   62.6190   32.3591   46.5039 H   0  0  0  0  0  0  0  0  0  0  0  0
   64.2994   32.9939   46.5039 H   0  0  0  0  0  0  0  0  0  0  0  0
   58.1520   30.1800   46.4842 H   0  0  0  0  0  0  0  0  0  0  0  0
  1  2  1  0
  2  3  1  0
  3  4  2  0
  3  5  1  0
  5  6  2  0
  6  7  1  0
  7  8  2  0
  8  9  1  0
  9 10  1  0
 10 11  2  0
 11 12  1  0
 12 13  2  0
 13 14  1  0
 14 15  2  0
 15 16  1  0
 16 17  2  0
 17 18  1  0
 18 19  1  0
 19 20  1  0
 20 21  1  0
 21 22  1  0
  9 23  2  0
 23  5  1  0
 15 10  1  0
 18 14  1  0
  1 24  1  0
  1 25  1  0
  1 26  1  0
  6 27  1  0
  7 28  1  0
  8 29  1  0
 12 30  1  0
 16 31  1  0
 17 32  1  0
 19 33  1  0
 19 34  1  0
 20 35  1  0
 20 36  1  0
 21 37  1  0
 22 38  1  0
 22 39  1  0
 22 40  1  0
 23 41  1  0
M  CHG  1   2  -1
M  END
>  <UniqueID>  (32) 
32

>  <SMILES>  (32) 
C[N-]C(=O)c1cccc(-c2ncnc3c2ccn3CCNC)c1

>  <Energy>  (32) 
82.82676187257314

>  <Genealogy>  (32) 
C[N-]C(=O)c1cccc(-c2ncnc3c2ccn3CCNC)c1 (protonated)
C[N-]C(=O)c1cccc(-c2ncnc3c2ccn3CCNC)c1 (3D coordinates assigned)
C[N-]C(=O)c1cccc(-c2ncnc3c2ccn3CCNC)c1 (optimized conformer: 82.82676187257314 kcal/mol)

>  <smiles>  (32) 
CNCCn1ccc2c(-c3cccc(C(=O)NC)c3)ncnc21

>  <score_type>  (32) 
oracle

>  <origin>  (32) 
adg

>  <m_score__min__energy>  (32) 
-9.8300000000000001

>  <m_primary>  (32) 
energy

$$$$
32:0
     RDKit          3D

 27 28  0  0  0  0  0  0  0  0999 V2000
   57.4790   33.4930   44.9750 C   0  0  0  0  0  0  0  0  0  0  0  0
   58.1390   32.3380   44.8620 C   0  0  0  0  0  0  0  0  0  0  0  0
   57.7690   31.3120   43.8250 C   0  0  0  0  0  0  0  0  0  0  0  0
   57.3710   30.0350   44.4610 N   0  0  0  0  0  0  0  0  0  0  0  0
   56.0350   29.7310   44.5850 C   0  0  0  0  0  0  0  0  0  0  0  0
   55.1480   30.5240   44.1680 O   0  0  0  0  0  0  0  0  0  0  0  0
   55.6440   28.5940   45.1460 O   0  0  0  0  0  0  0  0  0  0  0  0
   56.4940   27.7010   45.6210 C   0  0  0  0  0  0  0  0  0  0  0  0
   56.0430   26.6430   46.1370 O   0  0  0  0  0  0  0  0  0  0  0  0
   57.8710   27.9360   45.5470 C   0  0  0  0  0  0  0  0  0  0  0  0
   58.8040   27.0110   46.0510 C   0  0  0  0  0  0  0  0  0  0  0  0
   60.1770   27.2700   45.9650 C   0  0  0  0  0  0  0  0  0  0  0  0
   61.1660   26.3000   46.5380 C   0  0  0  0  0  0  0  0  0  0  0  0
   60.6150   28.4740   45.4050 C   0  0  0  0  0  0  0  0  0  0  0  0
   59.6980   29.3990   44.9010 C   0  0  0  0  0  0  0  0  0  0  0  0
   58.3060   29.1450   44.9550 C   0  0  0  0  0  0  0  0  0  0  0  0
   57.7743   34.2223   45.7437 H   0  0  0  0  0  0  0  0  0  0  0  0
   56.6399   33.7154   44.2994 H   0  0  0  0  0  0  0  0  0  0  0  0
   58.9758   32.1307   45.5453 H   0  0  0  0  0  0  0  0  0  0  0  0
   56.9288   31.6928   43.2258 H   0  0  0  0  0  0  0  0  0  0  0  0
   58.6452   31.1274   43.1860 H   0  0  0  0  0  0  0  0  0  0  0  0
   58.4521   26.0781   46.5157 H   0  0  0  0  0  0  0  0  0  0  0  0
   61.1249   26.3403   47.6365 H   0  0  0  0  0  0  0  0  0  0  0  0
   60.9205   25.2827   46.1990 H   0  0  0  0  0  0  0  0  0  0  0  0
   62.1783   26.5652   46.1990 H   0  0  0  0  0  0  0  0  0  0  0  0
   61.6917   28.6947   45.3610 H   0  0  0  0  0  0  0  0  0  0  0  0
   60.0618   30.3370   44.4563 H   0  0  0  0  0  0  0  0  0  0  0  0
  1  2  2  0
  2  3  1  0
  3  4  1  0
  4  5  1  0
  5  6  2  0
  5  7  1  0
  7  8  1  0
  8  9  2  0
  8 10  1  0
 10 11  2  0
 11 12  1  0
 12 13  1  0
 12 14  2  0
 14 15  1  0
 15 16  2  0
 16  4  1  0
 16 10  1  0
  1 17  1  0
  1 18  1  0
  2 19  1  0
  3 20  1  0
  3 21  1  0
 11 22  1  0
 13 23  1  0
 13 24  1  0
 13 25  1  0
 14 26  1  0
 15 27  1  0
M  END
>  <UniqueID>  (33) 
33

>  <SMILES>  (33) 
C=CCn1c(=O)oc(=O)c2cc(C)ccc21

>  <Energy>  (33) 
35.582701166689894

>  <Genealogy>  (33) 
C=CCn1c(=O)oc(=O)c2cc(C)ccc21 (3D coordinates assigned)
C=CCn1c(=O)oc(=O)c2cc(C)ccc21 (optimized conformer: 35.582701166689894 kcal/mol)

>  <smiles>  (33) 
C=CCn1c(=O)oc(=O)c2cc(C)ccc21

>  <score_type>  (33) 
oracle

>  <origin>  (33) 
adg

>  <m_score__min__energy>  (33) 
-5.9000000000000004

>  <m_primary>  (33) 
energy

$$$$
33:0
     RDKit          3D

 58 61  0  0  0  0  0  0  0  0999 V2000
   60.3041   34.2173   45.9827 H   0  0  0  0  0  0  0  0  0  0  0  0
   60.5900   34.0960   47.0380 C   0  0  0  0  0  0  0  0  0  0  0  0
   59.6260   33.8390   47.9310 C   0  0  0  0  0  0  0  0  0  0  0  0
   59.6387   34.4031   48.8753 H   0  0  0  0  0  0  0  0  0  0  0  0
   58.5250   32.8300   47.7310 C   0  0  0  0  0  0  0  0  0  0  0  0
   58.3204   32.3281   48.6882 H   0  0  0  0  0  0  0  0  0  0  0  0
   58.8530   32.1030   46.9735 H   0  0  0  0  0  0  0  0  0  0  0  0
   57.3380   33.4500   47.2720 O   0  0  0  0  0  0  0  0  0  0  0  0
   57.4970   33.8730   45.9350 C   0  0  0  0  0  0  0  0  0  0  0  0
   57.8840   34.9026   45.9197 H   0  0  0  0  0  0  0  0  0  0  0  0
   58.2062   33.2071   45.4216 H   0  0  0  0  0  0  0  0  0  0  0  0
   56.5248   33.8391   45.4216 H   0  0  0  0  0  0  0  0  0  0  0  0
   61.9820   34.2220   47.3870 N   0  0  0  0  0  0  0  0  0  0  0  0
   62.9960   33.8290   46.4010 C   0  0  0  0  0  0  0  0  0  0  0  0
   62.5042   33.6630   45.4312 H   0  0  0  0  0  0  0  0  0  0  0  0
   63.7393   34.6371   46.3338 H   0  0  0  0  0  0  0  0  0  0  0  0
   63.7310   32.5320   46.8190 C   0  0  0  0  0  0  0  0  0  0  0  0
   63.4063   31.7170   46.1554 H   0  0  0  0  0  0  0  0  0  0  0  0
   64.8104   32.7275   46.7367 H   0  0  0  0  0  0  0  0  0  0  0  0
   63.4490   32.1140   48.2880 C   0  0  0  0  0  0  0  0  0  0  0  0
   64.2130   31.3992   48.6278 H   0  0  0  0  0  0  0  0  0  0  0  0
   62.1300   31.3550   48.4380 C   0  0  0  0  0  0  0  0  0  0  0  0
   61.5080   31.3120   49.6570 N   0  0  0  0  0  0  0  0  0  0  0  0
   60.3460   30.6340   49.7910 C   0  0  0  0  0  0  0  0  0  0  0  0
   59.5780   30.4890   50.9200 C   0  0  0  0  0  0  0  0  0  0  0  0
   59.7646   30.8814   51.9305 H   0  0  0  0  0  0  0  0  0  0  0  0
   58.5060   29.7240   50.4720 C   0  0  0  0  0  0  0  0  0  0  0  0
   57.6636   29.3954   51.0984 H   0  0  0  0  0  0  0  0  0  0  0  0
   58.6470   29.4410   49.1540 N   0  0  0  0  0  0  0  0  0  0  0  0
   59.7790   29.9990   48.7640 N   0  0  0  0  0  0  0  0  0  0  0  0
   60.3160   30.0080   47.5160 C   0  0  0  0  0  0  0  0  0  0  0  0
   59.6820   29.3140   46.4230 N   0  0  0  0  0  0  0  0  0  0  0  0
   60.4830   28.4510   45.5450 C   0  0  0  0  0  0  0  0  0  0  0  0
   61.1047   27.7812   46.1572 H   0  0  0  0  0  0  0  0  0  0  0  0
   59.8138   27.8518   44.9101 H   0  0  0  0  0  0  0  0  0  0  0  0
   61.1304   29.0738   44.9101 H   0  0  0  0  0  0  0  0  0  0  0  0
   58.2200   29.3290   46.2820 C   0  0  0  0  0  0  0  0  0  0  0  0
   57.8425   28.2962   46.3109 H   0  0  0  0  0  0  0  0  0  0  0  0
   57.7879   29.9128   47.1081 H   0  0  0  0  0  0  0  0  0  0  0  0
   57.8250   29.9650   44.9760 C   0  0  0  0  0  0  0  0  0  0  0  0
   56.7690   29.4270   44.2240 C   0  0  0  0  0  0  0  0  0  0  0  0
   56.2552   28.5189   44.5726 H   0  0  0  0  0  0  0  0  0  0  0  0
   56.3680   30.0400   43.0350 C   0  0  0  0  0  0  0  0  0  0  0  0
   55.5380   29.6167   42.4503 H   0  0  0  0  0  0  0  0  0  0  0  0
   57.0210   31.1900   42.5890 C   0  0  0  0  0  0  0  0  0  0  0  0
   56.7086   31.6696   41.6496 H   0  0  0  0  0  0  0  0  0  0  0  0
   58.0710   31.7330   43.3340 C   0  0  0  0  0  0  0  0  0  0  0  0
   58.5854   32.6383   42.9791 H   0  0  0  0  0  0  0  0  0  0  0  0
   58.4680   31.1290   44.5270 C   0  0  0  0  0  0  0  0  0  0  0  0
   59.2869   31.5660   45.1173 H   0  0  0  0  0  0  0  0  0  0  0  0
   61.5120   30.7270   47.3270 C   0  0  0  0  0  0  0  0  0  0  0  0
   61.9628   30.8008   46.3263 H   0  0  0  0  0  0  0  0  0  0  0  0
   63.5140   33.3890   49.1590 C   0  0  0  0  0  0  0  0  0  0  0  0
   63.4191   33.1058   50.2177 H   0  0  0  0  0  0  0  0  0  0  0  0
   64.4774   33.8875   48.9762 H   0  0  0  0  0  0  0  0  0  0  0  0
   62.3810   34.3680   48.7970 C   0  0  0  0  0  0  0  0  0  0  0  0
   61.5115   34.1638   49.4390 H   0  0  0  0  0  0  0  0  0  0  0  0
   62.7446   35.3945   48.9518 H   0  0  0  0  0  0  0  0  0  0  0  0
  1  2  1  0
  2  3  2  0
  3  4  1  0
  3  5  1  0
  5  6  1  0
  5  7  1  0
  5  8  1  0
  8  9  1  0
  9 10  1  0
  9 11  1  0
  9 12  1  0
  2 13  1  0
 13 14  1  0
 14 15  1  0
 14 16  1  0
 14 17  1  0
 17 18  1  0
 17 19  1  0
 17 20  1  0
 20 21  1  0
 20 22  1  0
 22 23  2  0
 23 24  1  0
 24 25  2  0
 25 26  1  0
 25 27  1  0
 27 28  1  0
 27 29  2  0
 29 30  1  0
 30 31  1  0
 31 32  1  0
 32 33  1  0
 33 34  1  0
 33 35  1  0
 33 36  1  0
 32 37  1  0
 37 38  1  0
 37 39  1  0
 37 40  1  0
 40 41  2  0
 41 42  1  0
 41 43  1  0
 43 44  1  0
 43 45  2  0
 45 46  1  0
 45 47  1  0
 47 48  1  0
 47 49  2  0
 49 50  1  0
 31 51  2  0
 51 52  1  0
 20 53  1  0
 53 54  1  0
 53 55  1  0
 53 56  1  0
 56 57  1  0
 56 58  1  0
 56 13  1  0
 51 22  1  0
 30 24  1  0
 49 40  1  0
M  END
>  <UniqueID>  (34) 
34

>  <SMILES>  (34) 
COC/C=C\N1CCC(c2cc(N(C)Cc3ccccc3)n3nccc3n2)CC1

>  <Energy>  (34) 
109.76922863363868

>  <Genealogy>  (34) 
COC/C=C\N1CCC(c2cc(N(C)Cc3ccccc3)n3nccc3n2)CC1 (cis-trans isomerization)
COC/C=C\N1CCC(c2cc(N(C)Cc3ccccc3)n3nccc3n2)CC1 (3D coordinates assigned)
COC/C=C\N1CCC(c2cc(N(C)Cc3ccccc3)n3nccc3n2)CC1 (nonaromatic ring conformer: 109.76922863363868 kcal/mol)

>  <smiles>  (34) 
COCC=CN1CCC(c2cc(N(C)Cc3ccccc3)n3nccc3n2)CC1

>  <score_type>  (34) 
oracle

>  <origin>  (34) 
adg

>  <m_score__min__energy>  (34) 
-7.8499999999999996

>  <m_primary>  (34) 
energy

$$$$
34:0
     RDKit          3D

 51 53  0  0  0  0  0  0  0  0999 V2000
   58.6930   22.5400   44.5600 C   0  0  0  0  0  0  0  0  0  0  0  0
   57.6630   22.4030   45.6780 C   0  0  0  0  0  0  0  0  0  0  0  0
   56.6810   23.5880   45.7160 C   0  0  0  0  0  0  0  0  0  0  0  0
   56.9520   24.5760   46.8660 C   0  0  0  0  0  0  0  0  0  0  0  0
   57.3510   25.9140   46.3800 N   0  0  0  0  0  0  0  0  0  0  0  0
   56.3810   26.8000   45.9640 C   0  0  0  0  0  0  0  0  0  0  0  0
   55.1550   26.5070   46.0200 O   0  0  0  0  0  0  0  0  0  0  0  0
   56.7790   28.0250   45.4650 C   0  0  0  0  0  0  0  0  0  0  0  0
   56.0220   29.0200   44.9790 N   0  0  0  0  0  0  0  0  0  0  0  0
   56.9560   29.9380   44.6140 C   0  0  0  0  0  0  0  0  0  0  0  0
   56.6020   31.2280   43.9490 C   0  0  0  0  0  0  0  0  0  0  0  0
   57.3630   32.3580   44.5830 C   0  0  0  0  0  0  0  0  0  0  0  0
   57.0800   32.7500   45.9020 C   0  0  0  0  0  0  0  0  0  0  0  0
   57.8140   33.7760   46.5050 C   0  0  0  0  0  0  0  0  0  0  0  0
   58.8420   34.4110   45.7990 C   0  0  0  0  0  0  0  0  0  0  0  0
   59.5540   35.4040   46.3860 F   0  0  0  0  0  0  0  0  0  0  0  0
   59.1380   34.0160   44.4910 C   0  0  0  0  0  0  0  0  0  0  0  0
   58.4060   32.9900   43.8850 C   0  0  0  0  0  0  0  0  0  0  0  0
   58.2420   29.5530   44.8270 N   0  0  0  0  0  0  0  0  0  0  0  0
   58.0860   28.3390   45.3770 C   0  0  0  0  0  0  0  0  0  0  0  0
   59.0710   27.4940   45.7910 N   0  0  0  0  0  0  0  0  0  0  0  0
   60.4900   27.8740   45.6390 C   0  0  0  0  0  0  0  0  0  0  0  0
   60.7740   29.3050   46.1260 C   0  0  0  0  0  0  0  0  0  0  0  0
   60.2890   29.5780   47.5640 C   0  0  0  0  0  0  0  0  0  0  0  0
   59.3700   30.7960   47.6370 C   0  0  0  0  0  0  0  0  0  0  0  0
   58.6910   26.2680   46.3020 C   0  0  0  0  0  0  0  0  0  0  0  0
   59.5760   25.4580   46.7000 O   0  0  0  0  0  0  0  0  0  0  0  0
   59.6935   22.6731   44.9975 H   0  0  0  0  0  0  0  0  0  0  0  0
   58.6823   21.6325   43.9384 H   0  0  0  0  0  0  0  0  0  0  0  0
   58.4455   23.4131   43.9384 H   0  0  0  0  0  0  0  0  0  0  0  0
   57.0924   21.4756   45.5217 H   0  0  0  0  0  0  0  0  0  0  0  0
   58.2053   22.3845   46.6348 H   0  0  0  0  0  0  0  0  0  0  0  0
   56.7569   24.1333   44.7637 H   0  0  0  0  0  0  0  0  0  0  0  0
   55.6768   23.1699   45.8795 H   0  0  0  0  0  0  0  0  0  0  0  0
   56.0364   24.6775   47.4671 H   0  0  0  0  0  0  0  0  0  0  0  0
   57.7847   24.1748   47.4624 H   0  0  0  0  0  0  0  0  0  0  0  0
   56.8586   31.1698   42.8809 H   0  0  0  0  0  0  0  0  0  0  0  0
   55.5232   31.4096   44.0638 H   0  0  0  0  0  0  0  0  0  0  0  0
   56.2778   32.2478   46.4626 H   0  0  0  0  0  0  0  0  0  0  0  0
   57.5832   34.0844   47.5354 H   0  0  0  0  0  0  0  0  0  0  0  0
   59.9482   34.5132   43.9375 H   0  0  0  0  0  0  0  0  0  0  0  0
   58.6475   32.6767   42.8586 H   0  0  0  0  0  0  0  0  0  0  0  0
   61.1066   27.1744   46.2223 H   0  0  0  0  0  0  0  0  0  0  0  0
   60.7333   27.8322   44.5671 H   0  0  0  0  0  0  0  0  0  0  0  0
   61.8600   29.4759   46.0874 H   0  0  0  0  0  0  0  0  0  0  0  0
   60.2183   29.9859   45.4646 H   0  0  0  0  0  0  0  0  0  0  0  0
   59.7398   28.6966   47.9268 H   0  0  0  0  0  0  0  0  0  0  0  0
   61.1722   29.7812   48.1874 H   0  0  0  0  0  0  0  0  0  0  0  0
   59.1793   31.0488   48.6904 H   0  0  0  0  0  0  0  0  0  0  0  0
   59.8514   31.6491   47.1366 H   0  0  0  0  0  0  0  0  0  0  0  0
   58.4175   30.5672   47.1366 H   0  0  0  0  0  0  0  0  0  0  0  0
  1  2  1  0
  2  3  1  0
  3  4  1  0
  4  5  1  0
  5  6  1  0
  6  7  2  0
  6  8  1  0
  8  9  1  0
  9 10  1  0
 10 11  1  0
 11 12  1  0
 12 13  2  0
 13 14  1  0
 14 15  2  0
 15 16  1  0
 15 17  1  0
 17 18  2  0
 10 19  2  0
 19 20  1  0
 20 21  1  0
 21 22  1  0
 22 23  1  0
 23 24  1  0
 24 25  1  0
 21 26  1  0
 26 27  2  0
 26  5  1  0
 20  8  2  0
 18 12  1  0
  1 28  1  0
  1 29  1  0
  1 30  1  0
  2 31  1  0
  2 32  1  0
  3 33  1  0
  3 34  1  0
  4 35  1  0
  4 36  1  0
 11 37  1  0
 11 38  1  0
 13 39  1  0
 14 40  1  0
 17 41  1  0
 18 42  1  0
 22 43  1  0
 22 44  1  0
 23 45  1  0
 23 46  1  0
 24 47  1  0
 24 48  1  0
 25 49  1  0
 25 50  1  0
 25 51  1  0
M  CHG  1   9  -1
M  END
>  <UniqueID>  (35) 
35

>  <SMILES>  (35) 
CCCCn1c(=O)c2[n-]c(Cc3ccc(F)cc3)nc2n(CCCC)c1=O

>  <Energy>  (35) 
83.85083282147099

>  <Genealogy>  (35) 
CCCCn1c(=O)c2[n-]c(Cc3ccc(F)cc3)nc2n(CCCC)c1=O (protonated)
CCCCn1c(=O)c2[n-]c(Cc3ccc(F)cc3)nc2n(CCCC)c1=O (3D coordinates assigned)
CCCCn1c(=O)c2[n-]c(Cc3ccc(F)cc3)nc2n(CCCC)c1=O (optimized conformer: 83.85083282147099 kcal/mol)

>  <smiles>  (35) 
CCCCn1c(=O)c2[nH]c(Cc3ccc(F)cc3)nc2n(CCCC)c1=O

>  <score_type>  (35) 
oracle

>  <origin>  (35) 
adg

>  <m_score__min__energy>  (35) 
-9.1500000000000004

>  <m_primary>  (35) 
energy

$$$$
35:0
     RDKit          3D

 39 41  0  0  0  0  0  0  0  0999 V2000
   55.1560   29.3350   44.8530 N   0  0  0  0  0  0  0  0  0  0  0  0
   56.3760   29.6940   44.2100 C   0  0  0  0  0  0  0  0  0  0  0  0
   56.3650   29.9900   42.9860 O   0  0  0  0  0  0  0  0  0  0  0  0
   57.6460   29.7140   44.9660 C   0  0  0  0  0  0  0  0  0  0  0  0
   58.4850   28.6000   45.1330 C   0  0  0  0  0  0  0  0  0  0  0  0
   58.2410   27.2500   44.7100 N   0  0  0  0  0  0  0  0  0  0  0  0
   57.1260   26.4720   45.1720 C   0  0  0  0  0  0  0  0  0  0  0  0
   56.2620   26.9920   45.9300 O   0  0  0  0  0  0  0  0  0  0  0  0
   57.0420   25.0210   44.8800 C   0  0  0  0  0  0  0  0  0  0  0  0
   56.9980   24.6380   43.5270 C   0  0  0  0  0  0  0  0  0  0  0  0
   56.8460   23.3000   43.1650 C   0  0  0  0  0  0  0  0  0  0  0  0
   56.7330   22.3220   44.1490 C   0  0  0  0  0  0  0  0  0  0  0  0
   56.7960   22.6740   45.4970 C   0  0  0  0  0  0  0  0  0  0  0  0
   56.9870   24.0150   45.8890 C   0  0  0  0  0  0  0  0  0  0  0  0
   57.1020   24.3200   47.3710 C   0  0  0  0  0  0  0  0  0  0  0  0
   58.1350   25.2010   47.6200 F   0  0  0  0  0  0  0  0  0  0  0  0
   57.3660   23.1670   48.0910 F   0  0  0  0  0  0  0  0  0  0  0  0
   55.9150   24.8560   47.8310 F   0  0  0  0  0  0  0  0  0  0  0  0
   59.8780   29.0590   45.9570 S   0  0  0  0  0  0  0  0  0  0  0  0
   59.4290   30.6620   46.1580 C   0  0  0  0  0  0  0  0  0  0  0  0
   58.2030   30.8840   45.5360 C   0  0  0  0  0  0  0  0  0  0  0  0
   57.5630   32.2520   45.5280 C   0  0  0  0  0  0  0  0  0  0  0  0
   58.5760   33.3650   45.8510 C   0  0  0  0  0  0  0  0  0  0  0  0
   59.4540   32.9920   47.0560 C   0  0  0  0  0  0  0  0  0  0  0  0
   60.2840   31.7330   46.7620 C   0  0  0  0  0  0  0  0  0  0  0  0
   55.1420   28.6300   45.6220 H   0  0  0  0  0  0  0  0  0  0  0  0
   59.0630   26.7290   44.3340 H   0  0  0  0  0  0  0  0  0  0  0  0
   57.0848   25.4051   42.7434 H   0  0  0  0  0  0  0  0  0  0  0  0
   56.8154   23.0175   42.1023 H   0  0  0  0  0  0  0  0  0  0  0  0
   56.5937   21.2691   43.8627 H   0  0  0  0  0  0  0  0  0  0  0  0
   56.6952   21.8939   46.2659 H   0  0  0  0  0  0  0  0  0  0  0  0
   57.1363   32.4385   44.5314 H   0  0  0  0  0  0  0  0  0  0  0  0
   56.7835   32.2667   46.3040 H   0  0  0  0  0  0  0  0  0  0  0  0
   59.2210   33.5271   44.9748 H   0  0  0  0  0  0  0  0  0  0  0  0
   58.0177   34.2797   46.0995 H   0  0  0  0  0  0  0  0  0  0  0  0
   60.1339   33.8276   47.2783 H   0  0  0  0  0  0  0  0  0  0  0  0
   58.8003   32.7884   47.9170 H   0  0  0  0  0  0  0  0  0  0  0  0
   61.0912   31.9889   46.0599 H   0  0  0  0  0  0  0  0  0  0  0  0
   60.7035   31.3583   47.7073 H   0  0  0  0  0  0  0  0  0  0  0  0
  1  2  1  0
  2  3  2  0
  2  4  1  0
  4  5  2  0
  5  6  1  0
  6  7  1  0
  7  8  2  0
  7  9  1  0
  9 10  2  0
 10 11  1  0
 11 12  2  0
 12 13  1  0
 13 14  2  0
 14 15  1  0
 15 16  1  0
 15 17  1  0
 15 18  1  0
  5 19  1  0
 19 20  1  0
 20 21  2  0
 21 22  1  0
 22 23  1  0
 23 24  1  0
 24 25  1  0
 21  4  1  0
 14  9  1  0
 25 20  1  0
  1 26  1  0
  6 27  1  0
 10 28  1  0
 11 29  1  0
 12 30  1  0
 13 31  1  0
 22 32  1  0
 22 33  1  0
 23 34  1  0
 23 35  1  0
 24 36  1  0
 24 37  1  0
 25 38  1  0
 25 39  1  0
M  CHG  1   1  -1
M  END
>  <UniqueID>  (36) 
36

>  <SMILES>  (36) 
[NH-]C(=O)c1c(NC(=O)c2ccccc2C(F)(F)F)sc2c1CCCC2

>  <Energy>  (36) 
82.34505140323054

>  <Genealogy>  (36) 
[NH-]C(=O)c1c(NC(=O)c2ccccc2C(F)(F)F)sc2c1CCCC2 (protonated)
[NH-]C(=O)c1c(NC(=O)c2ccccc2C(F)(F)F)sc2c1CCCC2 (3D coordinates assigned)
[NH-]C(=O)c1c(NC(=O)c2ccccc2C(F)(F)F)sc2c1CCCC2 (nonaromatic ring conformer: 82.34505140323054 kcal/mol)

>  <smiles>  (36) 
NC(=O)c1c(NC(=O)c2ccccc2C(F)(F)F)sc2c1CCCC2

>  <score_type>  (36) 
oracle

>  <origin>  (36) 
adg

>  <m_score__min__energy>  (36) 
-10.69

>  <m_primary>  (36) 
energy

$$$$
36:0
     RDKit          3D

 37 38  0  0  0  0  0  0  0  0999 V2000
   57.0530   22.0040   43.6530 C   0  0  0  0  0  0  0  0  0  0  0  0
   57.9220   21.6870   44.8650 C   0  0  0  0  0  0  0  0  0  0  0  0
   57.4580   22.4620   46.0630 C   0  0  0  0  0  0  0  0  0  0  0  0
   57.3440   21.8780   47.1740 O   0  0  0  0  0  0  0  0  0  0  0  0
   57.2250   23.9210   45.9830 C   0  0  0  0  0  0  0  0  0  0  0  0
   55.9220   24.4650   46.0730 C   0  0  0  0  0  0  0  0  0  0  0  0
   54.7160   23.5830   46.3010 C   0  0  0  0  0  0  0  0  0  0  0  0
   55.7500   25.8150   45.9260 N   0  0  0  0  0  0  0  0  0  0  0  0
   54.4750   26.3380   45.9560 O   0  0  0  0  0  0  0  0  0  0  0  0
   56.8200   26.6480   45.7520 C   0  0  0  0  0  0  0  0  0  0  0  0
   56.6430   28.0370   45.6190 C   0  0  0  0  0  0  0  0  0  0  0  0
   57.7470   28.8910   45.4430 C   0  0  0  0  0  0  0  0  0  0  0  0
   57.6000   30.2820   45.3090 O   0  0  0  0  0  0  0  0  0  0  0  0
   57.6370   30.9840   44.0710 C   0  0  0  0  0  0  0  0  0  0  0  0
   59.0400   28.3550   45.4010 C   0  0  0  0  0  0  0  0  0  0  0  0
   60.1200   29.2360   45.2270 O   0  0  0  0  0  0  0  0  0  0  0  0
   60.6570   30.0710   46.2470 C   0  0  0  0  0  0  0  0  0  0  0  0
   59.2230   26.9670   45.5320 C   0  0  0  0  0  0  0  0  0  0  0  0
   58.1220   26.1080   45.7060 C   0  0  0  0  0  0  0  0  0  0  0  0
   58.2940   24.7560   45.8220 N   0  0  0  0  0  0  0  0  0  0  0  0
   59.5620   24.2170   45.7480 O   0  0  0  0  0  0  0  0  0  0  0  0
   56.0695   22.3628   43.9907 H   0  0  0  0  0  0  0  0  0  0  0  0
   57.5391   22.7827   43.0469 H   0  0  0  0  0  0  0  0  0  0  0  0
   56.9235   21.0952   43.0469 H   0  0  0  0  0  0  0  0  0  0  0  0
   57.8590   20.6108   45.0837 H   0  0  0  0  0  0  0  0  0  0  0  0
   58.9613   21.9688   44.6404 H   0  0  0  0  0  0  0  0  0  0  0  0
   54.5497   23.4614   47.3815 H   0  0  0  0  0  0  0  0  0  0  0  0
   53.8301   24.0478   45.8437 H   0  0  0  0  0  0  0  0  0  0  0  0
   54.8905   22.5979   45.8437 H   0  0  0  0  0  0  0  0  0  0  0  0
   55.6285   28.4609   45.6530 H   0  0  0  0  0  0  0  0  0  0  0  0
   57.6940   32.0654   44.2642 H   0  0  0  0  0  0  0  0  0  0  0  0
   58.5197   30.6672   43.4961 H   0  0  0  0  0  0  0  0  0  0  0  0
   56.7259   30.7618   43.4961 H   0  0  0  0  0  0  0  0  0  0  0  0
   60.3933   29.6610   47.2331 H   0  0  0  0  0  0  0  0  0  0  0  0
   61.7517   30.1128   46.1481 H   0  0  0  0  0  0  0  0  0  0  0  0
   60.2409   31.0845   46.1481 H   0  0  0  0  0  0  0  0  0  0  0  0
   60.2393   26.5475   45.4981 H   0  0  0  0  0  0  0  0  0  0  0  0
  1  2  1  0
  2  3  1  0
  3  4  2  0
  3  5  1  0
  5  6  2  0
  6  7  1  0
  6  8  1  0
  8  9  1  0
  8 10  2  0
 10 11  1  0
 11 12  2  0
 12 13  1  0
 13 14  1  0
 12 15  1  0
 15 16  1  0
 16 17  1  0
 15 18  2  0
 18 19  1  0
 19 20  2  0
 20 21  1  0
 20  5  1  0
 19 10  1  0
  1 22  1  0
  1 23  1  0
  1 24  1  0
  2 25  1  0
  2 26  1  0
  7 27  1  0
  7 28  1  0
  7 29  1  0
 11 30  1  0
 14 31  1  0
 14 32  1  0
 14 33  1  0
 17 34  1  0
 17 35  1  0
 17 36  1  0
 18 37  1  0
M  CHG  4   8   1   9  -1  20   1  21  -1
M  END
>  <UniqueID>  (37) 
37

>  <SMILES>  (37) 
CCC(=O)c1c(C)[n+]([O-])c2cc(OC)c(OC)cc2[n+]1[O-]

>  <Energy>  (37) 
48.0459010332608

>  <Genealogy>  (37) 
CCC(=O)c1c(C)[n+]([O-])c2cc(OC)c(OC)cc2[n+]1[O-] (3D coordinates assigned)
CCC(=O)c1c(C)[n+]([O-])c2cc(OC)c(OC)cc2[n+]1[O-] (optimized conformer: 48.0459010332608 kcal/mol)

>  <smiles>  (37) 
CCC(=O)c1c(C)[n+]([O-])c2cc(OC)c(OC)cc2[n+]1[O-]

>  <score_type>  (37) 
oracle

>  <origin>  (37) 
adg

>  <m_score__min__energy>  (37) 
-6.4699999999999998

>  <m_primary>  (37) 
energy

$$$$
37:0
     RDKit          3D

 45 46  0  0  0  0  0  0  0  0999 V2000
   58.8750   34.2460   44.7690 C   0  0  0  0  0  0  0  0  0  0  0  0
   58.5290   34.2760   46.2440 C   0  0  0  0  0  0  0  0  0  0  0  0
   59.7170   34.0850   47.1200 C   0  0  0  0  0  0  0  0  0  0  0  0
   59.4880   33.4080   48.3930 C   0  0  0  0  0  0  0  0  0  0  0  0
   59.4620   34.1750   49.5170 N   0  0  0  0  0  0  0  0  0  0  0  0
   59.2510   33.6590   50.7400 C   0  0  0  0  0  0  0  0  0  0  0  0
   59.2440   34.4850   51.7580 N   0  0  0  0  0  0  0  0  0  0  0  0
   59.0580   32.3450   50.8740 N   0  0  0  0  0  0  0  0  0  0  0  0
   59.0700   31.5250   49.8090 C   0  0  0  0  0  0  0  0  0  0  0  0
   58.8780   30.2430   49.9720 N   0  0  0  0  0  0  0  0  0  0  0  0
   59.2870   32.0570   48.5580 C   0  0  0  0  0  0  0  0  0  0  0  0
   59.3050   31.1480   47.4270 C   0  0  0  0  0  0  0  0  0  0  0  0
   60.5500   30.6710   47.0260 C   0  0  0  0  0  0  0  0  0  0  0  0
   60.7100   29.7980   45.9730 C   0  0  0  0  0  0  0  0  0  0  0  0
   59.5710   29.4020   45.3090 C   0  0  0  0  0  0  0  0  0  0  0  0
   58.3120   29.8520   45.6720 C   0  0  0  0  0  0  0  0  0  0  0  0
   56.9510   29.2850   44.7500 S   0  0  0  0  0  0  0  0  0  0  0  0
   56.0660   30.4630   44.4650 O   0  0  0  0  0  0  0  0  0  0  0  0
   57.4650   28.8130   43.4130 O   0  0  0  0  0  0  0  0  0  0  0  0
   56.1280   28.0080   45.5110 N   0  0  0  0  0  0  0  0  0  0  0  0
   56.8450   26.7790   45.6150 C   0  0  0  0  0  0  0  0  0  0  0  0
   55.8950   25.6070   45.8040 C   0  0  0  0  0  0  0  0  0  0  0  0
   54.5790   26.0360   45.9160 O   0  0  0  0  0  0  0  0  0  0  0  0
   58.2070   30.7250   46.7340 C   0  0  0  0  0  0  0  0  0  0  0  0
   59.9644   34.1515   44.6498 H   0  0  0  0  0  0  0  0  0  0  0  0
   58.3783   33.3876   44.2932 H   0  0  0  0  0  0  0  0  0  0  0  0
   58.5335   35.1771   44.2932 H   0  0  0  0  0  0  0  0  0  0  0  0
   58.0728   35.2492   46.4781 H   0  0  0  0  0  0  0  0  0  0  0  0
   57.8373   33.4431   46.4385 H   0  0  0  0  0  0  0  0  0  0  0  0
   60.4558   33.4959   46.5568 H   0  0  0  0  0  0  0  0  0  0  0  0
   60.0473   35.0999   47.3864 H   0  0  0  0  0  0  0  0  0  0  0  0
   59.6150   35.2230   49.4280 H   0  0  0  0  0  0  0  0  0  0  0  0
   58.6620   35.3510   51.7460 H   0  0  0  0  0  0  0  0  0  0  0  0
   58.8960   31.9730   51.8330 H   0  0  0  0  0  0  0  0  0  0  0  0
   59.0850   29.8540   50.9230 H   0  0  0  0  0  0  0  0  0  0  0  0
   61.4436   31.0056   47.5734 H   0  0  0  0  0  0  0  0  0  0  0  0
   61.7042   29.4332   45.6756 H   0  0  0  0  0  0  0  0  0  0  0  0
   59.6635   28.7056   44.4626 H   0  0  0  0  0  0  0  0  0  0  0  0
   55.1490   27.9110   45.1780 H   0  0  0  0  0  0  0  0  0  0  0  0
   57.4284   26.6242   44.6954 H   0  0  0  0  0  0  0  0  0  0  0  0
   57.5102   26.8348   46.4893 H   0  0  0  0  0  0  0  0  0  0  0  0
   55.9798   24.9340   44.9381 H   0  0  0  0  0  0  0  0  0  0  0  0
   56.1695   25.0843   46.7321 H   0  0  0  0  0  0  0  0  0  0  0  0
   54.3480   26.7190   45.2290 H   0  0  0  0  0  0  0  0  0  0  0  0
   57.2128   31.0903   47.0308 H   0  0  0  0  0  0  0  0  0  0  0  0
  1  2  1  0
  2  3  1  0
  3  4  1  0
  4  5  1  0
  5  6  1  0
  6  7  2  3
  6  8  1  0
  8  9  1  0
  9 10  2  3
  9 11  1  0
 11 12  1  0
 12 13  2  0
 13 14  1  0
 14 15  2  0
 15 16  1  0
 16 17  1  0
 17 18  2  0
 17 19  2  0
 17 20  1  0
 20 21  1  0
 21 22  1  0
 22 23  1  0
 16 24  2  0
 11  4  2  0
 24 12  1  0
  1 25  1  0
  1 26  1  0
  1 27  1  0
  2 28  1  0
  2 29  1  0
  3 30  1  0
  3 31  1  0
  5 32  1  0
  7 33  1  0
  8 34  1  0
 10 35  1  0
 13 36  1  0
 14 37  1  0
 15 38  1  0
 20 39  1  0
 21 40  1  0
 21 41  1  0
 22 42  1  0
 22 43  1  0
 23 44  1  0
 24 45  1  0
M  END
>  <smiles>  (38) 
CCCc1[nH]c(=N)[nH]c(=N)c1-c1cccc(S(=O)(=O)NCCO)c1

>  <score_type>  (38) 
oracle

>  <origin>  (38) 
adg

>  <m_score__min__energy>  (38) 
-7.9000000000000004

>  <m_primary>  (38) 
energy

$$$$
38:0
     RDKit          3D

 44 45  0  0  0  0  0  0  0  0999 V2000
   62.9570   33.3600   47.0870 C   0  0  0  0  0  0  0  0  0  0  0  0
   62.6890   32.5950   48.3900 C   0  0  0  0  0  0  0  0  0  0  0  0
   62.5260   33.5020   49.5560 N   0  0  0  0  0  0  0  0  0  0  0  0
   63.8330   33.8410   50.1810 C   0  0  0  0  0  0  0  0  0  0  0  0
   64.9930   32.8990   49.8070 C   0  0  0  0  0  0  0  0  0  0  0  0
   61.5560   32.9640   50.5550 C   0  0  0  0  0  0  0  0  0  0  0  0
   60.2970   33.8420   50.6800 C   0  0  0  0  0  0  0  0  0  0  0  0
   60.0150   34.5230   49.4550 O   0  0  0  0  0  0  0  0  0  0  0  0
   59.4950   33.9330   48.2920 C   0  0  0  0  0  0  0  0  0  0  0  0
   58.9110   32.6530   48.2850 C   0  0  0  0  0  0  0  0  0  0  0  0
   58.4250   32.1070   47.0920 C   0  0  0  0  0  0  0  0  0  0  0  0
   58.5050   32.8300   45.8890 C   0  0  0  0  0  0  0  0  0  0  0  0
   57.9920   32.2480   44.6230 C   0  0  0  0  0  0  0  0  0  0  0  0
   58.2510   32.8750   43.3900 C   0  0  0  0  0  0  0  0  0  0  0  0
   57.7680   32.3250   42.1990 C   0  0  0  0  0  0  0  0  0  0  0  0
   57.0230   31.1430   42.2240 C   0  0  0  0  0  0  0  0  0  0  0  0
   56.7590   30.5110   43.4420 C   0  0  0  0  0  0  0  0  0  0  0  0
   57.2390   31.0580   44.6360 C   0  0  0  0  0  0  0  0  0  0  0  0
   59.0780   34.1130   45.9060 C   0  0  0  0  0  0  0  0  0  0  0  0
   59.5640   34.6570   47.0990 C   0  0  0  0  0  0  0  0  0  0  0  0
   63.3122   34.3739   47.3235 H   0  0  0  0  0  0  0  0  0  0  0  0
   63.7231   32.8303   46.5018 H   0  0  0  0  0  0  0  0  0  0  0  0
   62.0278   33.4242   46.5018 H   0  0  0  0  0  0  0  0  0  0  0  0
   61.7686   32.0047   48.2702 H   0  0  0  0  0  0  0  0  0  0  0  0
   63.5586   31.9503   48.5854 H   0  0  0  0  0  0  0  0  0  0  0  0
   62.1590   34.4080   49.1810 H   0  0  0  0  0  0  0  0  0  0  0  0
   64.1064   34.8602   49.8704 H   0  0  0  0  0  0  0  0  0  0  0  0
   63.6914   33.7408   51.2672 H   0  0  0  0  0  0  0  0  0  0  0  0
   65.4646   32.5160   50.7240 H   0  0  0  0  0  0  0  0  0  0  0  0
   64.6052   32.0569   49.2149 H   0  0  0  0  0  0  0  0  0  0  0  0
   65.7376   33.4513   49.2149 H   0  0  0  0  0  0  0  0  0  0  0  0
   61.2528   31.9532   50.2446 H   0  0  0  0  0  0  0  0  0  0  0  0
   62.0553   32.9509   51.5351 H   0  0  0  0  0  0  0  0  0  0  0  0
   59.4397   33.2041   50.9409 H   0  0  0  0  0  0  0  0  0  0  0  0
   60.4746   34.5943   51.4626 H   0  0  0  0  0  0  0  0  0  0  0  0
   58.8362   32.0795   49.2207 H   0  0  0  0  0  0  0  0  0  0  0  0
   57.9762   31.1027   47.0954 H   0  0  0  0  0  0  0  0  0  0  0  0
   58.8380   33.8049   43.3632 H   0  0  0  0  0  0  0  0  0  0  0  0
   57.9747   32.8235   41.2405 H   0  0  0  0  0  0  0  0  0  0  0  0
   56.6448   30.7106   41.2859 H   0  0  0  0  0  0  0  0  0  0  0  0
   56.1721   29.5809   43.4616 H   0  0  0  0  0  0  0  0  0  0  0  0
   57.0271   30.5557   45.5914 H   0  0  0  0  0  0  0  0  0  0  0  0
   59.1447   34.6936   44.9741 H   0  0  0  0  0  0  0  0  0  0  0  0
   60.0049   35.6648   47.0982 H   0  0  0  0  0  0  0  0  0  0  0  0
  1  2  1  0
  2  3  1  0
  3  4  1  0
  4  5  1  0
  3  6  1  0
  6  7  1  0
  7  8  1  0
  8  9  1  0
  9 10  2  0
 10 11  1  0
 11 12  2  0
 12 13  1  0
 13 14  2  0
 14 15  1  0
 15 16  2  0
 16 17  1  0
 17 18  2  0
 12 19  1  0
 19 20  2  0
 20  9  1  0
 18 13  1  0
  1 21  1  0
  1 22  1  0
  1 23  1  0
  2 24  1  0
  2 25  1  0
  3 26  1  0
  4 27  1  0
  4 28  1  0
  5 29  1  0
  5 30  1  0
  5 31  1  0
  6 32  1  0
  6 33  1  0
  7 34  1  0
  7 35  1  0
 10 36  1  0
 11 37  1  0
 14 38  1  0
 15 39  1  0
 16 40  1  0
 17 41  1  0
 18 42  1  0
 19 43  1  0
 20 44  1  0
M  CHG  1   3   1
M  END
>  <UniqueID>  (39) 
38

>  <SMILES>  (39) 
CC[NH+](CC)CCOc1ccc(-c2ccccc2)cc1

>  <Energy>  (39) 
51.848163746516825

>  <Genealogy>  (39) 
CC[NH+](CC)CCOc1ccc(-c2ccccc2)cc1 (protonated)
CC[NH+](CC)CCOc1ccc(-c2ccccc2)cc1 (3D coordinates assigned)
CC[NH+](CC)CCOc1ccc(-c2ccccc2)cc1 (optimized conformer: 51.848163746516825 kcal/mol)

>  <smiles>  (39) 
CCN(CC)CCOc1ccc(-c2ccccc2)cc1

>  <score_type>  (39) 
oracle

>  <origin>  (39) 
adg

>  <m_score__min__energy>  (39) 
-4.6200000000000001

>  <m_primary>  (39) 
energy

$$$$
39:0
     RDKit          3D

 40 42  0  0  0  0  0  0  0  0999 V2000
   56.2470   29.7000   43.4920 C   0  0  0  0  0  0  0  0  0  0  0  0
   56.5400   29.9040   44.8700 O   0  0  0  0  0  0  0  0  0  0  0  0
   57.4980   30.8110   45.3500 C   0  0  0  0  0  0  0  0  0  0  0  0
   58.4850   30.4420   46.2810 C   0  0  0  0  0  0  0  0  0  0  0  0
   59.4190   31.3780   46.7310 C   0  0  0  0  0  0  0  0  0  0  0  0
   59.3900   32.7020   46.2590 C   0  0  0  0  0  0  0  0  0  0  0  0
   60.3250   33.6670   46.7020 C   0  0  0  0  0  0  0  0  0  0  0  0
   61.3650   33.3250   47.6320 N   0  0  0  0  0  0  0  0  0  0  0  0
   62.7110   33.0410   47.1360 C   0  0  0  0  0  0  0  0  0  0  0  0
   63.3800   31.9290   47.9690 C   0  0  0  0  0  0  0  0  0  0  0  0
   63.0390   31.9530   49.4230 N   0  0  0  0  0  0  0  0  0  0  0  0
   62.2150   30.7900   49.8030 C   0  0  0  0  0  0  0  0  0  0  0  0
   62.4150   33.2220   49.8650 C   0  0  0  0  0  0  0  0  0  0  0  0
   61.1480   33.5520   49.0620 C   0  0  0  0  0  0  0  0  0  0  0  0
   60.2490   34.9800   46.2130 C   0  0  0  0  0  0  0  0  0  0  0  0
   59.2620   35.3400   45.2950 C   0  0  0  0  0  0  0  0  0  0  0  0
   58.3380   34.3950   44.8500 C   0  0  0  0  0  0  0  0  0  0  0  0
   58.3910   33.0760   45.3250 C   0  0  0  0  0  0  0  0  0  0  0  0
   57.4580   32.1270   44.8800 C   0  0  0  0  0  0  0  0  0  0  0  0
   55.3476   29.0738   43.3972 H   0  0  0  0  0  0  0  0  0  0  0  0
   56.0703   30.6714   43.0070 H   0  0  0  0  0  0  0  0  0  0  0  0
   57.0967   29.1972   43.0070 H   0  0  0  0  0  0  0  0  0  0  0  0
   58.5218   29.4091   46.6575 H   0  0  0  0  0  0  0  0  0  0  0  0
   60.1843   31.0765   47.4614 H   0  0  0  0  0  0  0  0  0  0  0  0
   62.6474   32.7165   46.0869 H   0  0  0  0  0  0  0  0  0  0  0  0
   63.3168   33.9554   47.2188 H   0  0  0  0  0  0  0  0  0  0  0  0
   63.0672   30.9574   47.5589 H   0  0  0  0  0  0  0  0  0  0  0  0
   64.4650   32.0965   47.8997 H   0  0  0  0  0  0  0  0  0  0  0  0
   63.9360   31.8610   49.9590 H   0  0  0  0  0  0  0  0  0  0  0  0
   62.1646   30.7189   50.8995 H   0  0  0  0  0  0  0  0  0  0  0  0
   61.2001   30.9111   49.3964 H   0  0  0  0  0  0  0  0  0  0  0  0
   62.6658   29.8727   49.3964 H   0  0  0  0  0  0  0  0  0  0  0  0
   62.1484   33.1348   50.9286 H   0  0  0  0  0  0  0  0  0  0  0  0
   63.1410   34.0320   49.7012 H   0  0  0  0  0  0  0  0  0  0  0  0
   60.3243   32.9103   49.4081 H   0  0  0  0  0  0  0  0  0  0  0  0
   60.8985   34.6121   49.2169 H   0  0  0  0  0  0  0  0  0  0  0  0
   60.9742   35.7323   46.5566 H   0  0  0  0  0  0  0  0  0  0  0  0
   59.2125   36.3732   44.9208 H   0  0  0  0  0  0  0  0  0  0  0  0
   57.5645   34.6850   44.1236 H   0  0  0  0  0  0  0  0  0  0  0  0
   56.6866   32.4218   44.1533 H   0  0  0  0  0  0  0  0  0  0  0  0
  1  2  1  0
  2  3  1  0
  3  4  2  0
  4  5  1  0
  5  6  2  0
  6  7  1  0
  7  8  1  0
  8  9  1  0
  9 10  1  0
 10 11  1  0
 11 12  1  0
 11 13  1  0
 13 14  1  0
  7 15  2  0
 15 16  1  0
 16 17  2  0
 17 18  1  0
 18 19  2  0
 19  3  1  0
 18  6  1  0
 14  8  1  0
  1 20  1  0
  1 21  1  0
  1 22  1  0
  4 23  1  0
  5 24  1  0
  9 25  1  0
  9 26  1  0
 10 27  1  0
 10 28  1  0
 11 29  1  0
 12 30  1  0
 12 31  1  0
 12 32  1  0
 13 33  1  0
 13 34  1  0
 14 35  1  0
 14 36  1  0
 15 37  1  0
 16 38  1  0
 17 39  1  0
 19 40  1  0
M  CHG  1  11   1
M  END
>  <UniqueID>  (40) 
39

>  <SMILES>  (40) 
COc1ccc2c(N3CC[NH+](C)CC3)cccc2c1

>  <Energy>  (40) 
56.85099936873557

>  <Genealogy>  (40) 
COc1ccc2c(N3CC[NH+](C)CC3)cccc2c1 (protonated)
COc1ccc2c(N3CC[NH+](C)CC3)cccc2c1 (3D coordinates assigned)
COc1ccc2c(N3CC[NH+](C)CC3)cccc2c1 (nonaromatic ring conformer: 56.85099936873557 kcal/mol)

>  <smiles>  (40) 
COc1ccc2c(N3CCN(C)CC3)cccc2c1

>  <score_type>  (40) 
oracle

>  <origin>  (40) 
adg

>  <m_score__min__energy>  (40) 
-5.5

>  <m_primary>  (40) 
energy

$$$$
40:0
     RDKit          3D

 23 24  0  0  0  0  0  0  0  0999 V2000
   56.4610   29.3440   42.6520 C   0  0  0  0  0  0  0  0  0  0  0  0
   57.0670   30.4550   43.4570 C   0  0  0  0  0  0  0  0  0  0  0  0
   57.4070   31.6690   42.8440 C   0  0  0  0  0  0  0  0  0  0  0  0
   57.9370   32.7180   43.6000 C   0  0  0  0  0  0  0  0  0  0  0  0
   58.1250   32.5760   44.9880 C   0  0  0  0  0  0  0  0  0  0  0  0
   58.6720   33.6590   45.7690 N   0  0  0  0  0  0  0  0  0  0  0  0
   59.2580   34.7790   45.2930 C   0  0  0  0  0  0  0  0  0  0  0  0
   59.6570   35.5830   46.3410 C   0  0  0  0  0  0  0  0  0  0  0  0
   59.3020   34.9250   47.5010 C   0  0  0  0  0  0  0  0  0  0  0  0
   58.6980   33.7460   47.1160 C   0  0  0  0  0  0  0  0  0  0  0  0
   57.7650   31.3620   45.6000 C   0  0  0  0  0  0  0  0  0  0  0  0
   57.2340   30.3140   44.8430 C   0  0  0  0  0  0  0  0  0  0  0  0
   56.0463   28.5837   43.3303 H   0  0  0  0  0  0  0  0  0  0  0  0
   55.6576   29.7468   42.0177 H   0  0  0  0  0  0  0  0  0  0  0  0
   57.2346   28.8866   42.0177 H   0  0  0  0  0  0  0  0  0  0  0  0
   57.2558   31.7966   41.7619 H   0  0  0  0  0  0  0  0  0  0  0  0
   58.2096   33.6625   43.1065 H   0  0  0  0  0  0  0  0  0  0  0  0
   59.3966   35.0152   44.2276 H   0  0  0  0  0  0  0  0  0  0  0  0
   60.1600   36.5584   46.2664 H   0  0  0  0  0  0  0  0  0  0  0  0
   59.4682   35.2727   48.5313 H   0  0  0  0  0  0  0  0  0  0  0  0
   58.2967   32.9883   47.8051 H   0  0  0  0  0  0  0  0  0  0  0  0
   57.9026   31.2362   46.6841 H   0  0  0  0  0  0  0  0  0  0  0  0
   56.9456   29.3740   45.3362 H   0  0  0  0  0  0  0  0  0  0  0  0
  1  2  1  0
  2  3  2  0
  3  4  1  0
  4  5  2  0
  5  6  1  0
  6  7  1  0
  7  8  2  0
  8  9  1  0
  9 10  2  0
  5 11  1  0
 11 12  2  0
 12  2  1  0
 10  6  1  0
  1 13  1  0
  1 14  1  0
  1 15  1  0
  3 16  1  0
  4 17  1  0
  7 18  1  0
  8 19  1  0
  9 20  1  0
 10 21  1  0
 11 22  1  0
 12 23  1  0
M  END
>  <UniqueID>  (41) 
40

>  <SMILES>  (41) 
Cc1ccc(-n2cccc2)cc1

>  <Energy>  (41) 
51.66270848531607

>  <Genealogy>  (41) 
Cc1ccc(-n2cccc2)cc1 (3D coordinates assigned)
Cc1ccc(-n2cccc2)cc1 (optimized conformer: 51.66270848531607 kcal/mol)

>  <smiles>  (41) 
Cc1ccc(-n2cccc2)cc1

>  <score_type>  (41) 
oracle

>  <origin>  (41) 
adg

>  <m_score__min__energy>  (41) 
-5.1399999999999997

>  <m_primary>  (41) 
energy

$$$$
41:0
     RDKit          3D

 60 63  0  0  0  0  0  0  0  0999 V2000
   58.0250   26.7120   42.9510 C   0  0  0  0  0  0  0  0  0  0  0  0
   58.4600   27.4850   44.1620 C   0  0  0  0  0  0  0  0  0  0  0  0
   59.6440   28.2360   44.1330 C   0  0  0  0  0  0  0  0  0  0  0  0
   60.0700   28.9240   45.2720 C   0  0  0  0  0  0  0  0  0  0  0  0
   59.3240   28.8610   46.4620 C   0  0  0  0  0  0  0  0  0  0  0  0
   59.7750   29.5800   47.6700 C   0  0  0  0  0  0  0  0  0  0  0  0
   61.0360   30.0310   47.8440 N   0  0  0  0  0  0  0  0  0  0  0  0
   61.0030   30.6020   49.0620 C   0  0  0  0  0  0  0  0  0  0  0  0
   62.2110   31.1990   49.7160 C   0  0  0  0  0  0  0  0  0  0  0  0
   63.1340   32.2060   48.5630 S   0  0  0  0  0  0  0  0  0  0  0  0
   63.3120   31.4200   47.0880 O   0  0  0  0  0  0  0  0  0  0  0  0
   62.4440   33.8330   48.3150 C   0  0  0  0  0  0  0  0  0  0  0  0
   61.2900   33.7810   47.3520 C   0  0  0  0  0  0  0  0  0  0  0  0
   61.3830   33.0630   46.3670 O   0  0  0  0  0  0  0  0  0  0  0  0
   60.0920   34.5740   47.5860 N   0  0  0  0  0  0  0  0  0  0  0  0
   58.9550   33.7760   48.0640 C   0  0  0  0  0  0  0  0  0  0  0  0
   58.4550   32.7630   47.0290 C   0  0  0  0  0  0  0  0  0  0  0  0
   58.4850   33.2440   45.6320 N   0  0  0  0  0  0  0  0  0  0  0  0
   57.9560   32.3770   44.5790 C   0  0  0  0  0  0  0  0  0  0  0  0
   57.2680   31.1770   44.8890 C   0  0  0  0  0  0  0  0  0  0  0  0
   56.7680   30.3500   43.8800 C   0  0  0  0  0  0  0  0  0  0  0  0
   56.9410   30.6920   42.5410 C   0  0  0  0  0  0  0  0  0  0  0  0
   57.6170   31.8630   42.2060 C   0  0  0  0  0  0  0  0  0  0  0  0
   58.1200   32.6980   43.2080 C   0  0  0  0  0  0  0  0  0  0  0  0
   59.1550   34.5070   45.2450 C   0  0  0  0  0  0  0  0  0  0  0  0
   59.6890   35.3600   46.4110 C   0  0  0  0  0  0  0  0  0  0  0  0
   59.7290   30.4780   49.5820 C   0  0  0  0  0  0  0  0  0  0  0  0
   59.2160   30.9370   50.9090 C   0  0  0  0  0  0  0  0  0  0  0  0
   58.9970   29.8430   48.6980 O   0  0  0  0  0  0  0  0  0  0  0  0
   58.1480   28.0940   46.4920 C   0  0  0  0  0  0  0  0  0  0  0  0
   57.7230   27.4070   45.3520 C   0  0  0  0  0  0  0  0  0  0  0  0
   57.5084   25.7940   43.2680 H   0  0  0  0  0  0  0  0  0  0  0  0
   57.3412   27.3282   42.3488 H   0  0  0  0  0  0  0  0  0  0  0  0
   58.9066   26.4473   42.3488 H   0  0  0  0  0  0  0  0  0  0  0  0
   60.2399   28.2836   43.2096 H   0  0  0  0  0  0  0  0  0  0  0  0
   60.9948   29.5186   45.2374 H   0  0  0  0  0  0  0  0  0  0  0  0
   61.8896   31.8242   50.5621 H   0  0  0  0  0  0  0  0  0  0  0  0
   62.8600   30.3820   50.0643 H   0  0  0  0  0  0  0  0  0  0  0  0
   62.3890   31.2090   46.7990 H   0  0  0  0  0  0  0  0  0  0  0  0
   62.0915   34.2264   49.2798 H   0  0  0  0  0  0  0  0  0  0  0  0
   63.2234   34.4873   47.8973 H   0  0  0  0  0  0  0  0  0  0  0  0
   60.3080   35.2640   48.3450 H   0  0  0  0  0  0  0  0  0  0  0  0
   59.2655   33.2298   48.9669 H   0  0  0  0  0  0  0  0  0  0  0  0
   58.1281   34.4721   48.2680 H   0  0  0  0  0  0  0  0  0  0  0  0
   59.0860   31.8644   47.0960 H   0  0  0  0  0  0  0  0  0  0  0  0
   57.3993   32.5682   47.2687 H   0  0  0  0  0  0  0  0  0  0  0  0
   57.1254   30.8921   45.9418 H   0  0  0  0  0  0  0  0  0  0  0  0
   56.2353   29.4246   44.1443 H   0  0  0  0  0  0  0  0  0  0  0  0
   56.5447   30.0388   41.7497 H   0  0  0  0  0  0  0  0  0  0  0  0
   57.7556   32.1318   41.1484 H   0  0  0  0  0  0  0  0  0  0  0  0
   58.6518   33.6193   42.9280 H   0  0  0  0  0  0  0  0  0  0  0  0
   60.0046   34.2539   44.5937 H   0  0  0  0  0  0  0  0  0  0  0  0
   58.3845   35.1183   44.7524 H   0  0  0  0  0  0  0  0  0  0  0  0
   60.5633   35.9249   46.0553 H   0  0  0  0  0  0  0  0  0  0  0  0
   58.8657   36.0154   46.7314 H   0  0  0  0  0  0  0  0  0  0  0  0
   59.7762   30.4357   51.7120 H   0  0  0  0  0  0  0  0  0  0  0  0
   59.3460   32.0258   50.9957 H   0  0  0  0  0  0  0  0  0  0  0  0
   58.1483   30.6872   50.9957 H   0  0  0  0  0  0  0  0  0  0  0  0
   57.5580   28.0337   47.4184 H   0  0  0  0  0  0  0  0  0  0  0  0
   56.8052   26.8017   45.3884 H   0  0  0  0  0  0  0  0  0  0  0  0
  1  2  1  0
  2  3  2  0
  3  4  1  0
  4  5  2  0
  5  6  1  0
  6  7  2  0
  7  8  1  0
  8  9  1  0
  9 10  1  0
 10 11  1  6
 10 12  1  0
 12 13  1  0
 13 14  2  0
 13 15  1  0
 15 16  1  0
 16 17  1  0
 17 18  1  0
 18 19  1  0
 19 20  2  0
 20 21  1  0
 21 22  2  0
 22 23  1  0
 23 24  2  0
 18 25  1  0
 25 26  1  0
  8 27  2  0
 27 28  1  0
 27 29  1  0
  5 30  1  0
 30 31  2  0
 31  2  1  0
 29  6  1  0
 26 15  1  0
 24 19  1  0
  1 32  1  0
  1 33  1  0
  1 34  1  0
  3 35  1  0
  4 36  1  0
  9 37  1  0
  9 38  1  0
 11 39  1  0
 12 40  1  0
 12 41  1  0
 15 42  1  0
 16 43  1  0
 16 44  1  0
 17 45  1  0
 17 46  1  0
 20 47  1  0
 21 48  1  0
 22 49  1  0
 23 50  1  0
 24 51  1  0
 25 52  1  0
 25 53  1  0
 26 54  1  0
 26 55  1  0
 28 56  1  0
 28 57  1  0
 28 58  1  0
 30 59  1  0
 31 60  1  0
M  CHG  2  10   1  15   1
M  END
>  <UniqueID>  (42) 
41

>  <SMILES>  (42) 
Cc1ccc(-c2nc(C[S@@+](O)CC(=O)[NH+]3CCN(c4ccccc4)CC3)c(C)o2)cc1

>  <Energy>  (42) 
93.20122711651507

>  <Genealogy>  (42) 
Cc1ccc(-c2nc(C[S+](O)CC(=O)[NH+]3CCN(c4ccccc4)CC3)c(C)o2)cc1 (protonated)
Cc1ccc(-c2nc(C[S@@+](O)CC(=O)[NH+]3CCN(c4ccccc4)CC3)c(C)o2)cc1 (chirality)
Cc1ccc(-c2nc(C[S@@+](O)CC(=O)[NH+]3CCN(c4ccccc4)CC3)c(C)o2)cc1 (3D coordinates assigned)
Cc1ccc(-c2nc(C[S@@+](O)CC(=O)[NH+]3CCN(c4ccccc4)CC3)c(C)o2)cc1 (nonaromatic ring conformer: 93.20122711651507 kcal/mol)

>  <smiles>  (42) 
Cc1ccc(-c2nc(C[S+]([O-])CC(=O)N3CCN(c4ccccc4)CC3)c(C)o2)cc1

>  <score_type>  (42) 
oracle

>  <origin>  (42) 
adg

>  <m_score__min__energy>  (42) 
-5.7400000000000002

>  <m_primary>  (42) 
energy

$$$$
42:0
     RDKit          3D

 38 38  0  0  0  0  0  0  0  0999 V2000
   59.3360   34.8210   45.7290 C   0  0  0  0  0  0  0  0  0  0  0  0
   58.1640   34.1630   46.4610 C   0  0  0  0  0  0  0  0  0  0  0  0
   58.1580   32.6800   46.4020 N   0  0  0  0  0  0  0  0  0  0  0  0
   58.6760   32.0130   47.6210 C   0  0  0  0  0  0  0  0  0  0  0  0
   59.8840   31.0920   47.3840 C   0  0  0  0  0  0  0  0  0  0  0  0
   58.6040   32.0800   45.1240 C   0  0  0  0  0  0  0  0  0  0  0  0
   57.4740   32.0420   44.0860 C   0  0  0  0  0  0  0  0  0  0  0  0
   56.3830   31.2670   44.5750 O   0  0  0  0  0  0  0  0  0  0  0  0
   56.2210   29.9050   44.2980 C   0  0  0  0  0  0  0  0  0  0  0  0
   55.1440   29.3120   44.5790 O   0  0  0  0  0  0  0  0  0  0  0  0
   57.3660   29.1350   43.7270 C   0  0  0  0  0  0  0  0  0  0  0  0
   58.2110   28.5890   44.8440 C   0  0  0  0  0  0  0  0  0  0  0  0
   59.6100   28.5670   44.7280 C   0  0  0  0  0  0  0  0  0  0  0  0
   60.3920   28.0100   45.7440 C   0  0  0  0  0  0  0  0  0  0  0  0
   59.7840   27.4610   46.8780 C   0  0  0  0  0  0  0  0  0  0  0  0
   60.7680   26.7590   48.1490 Cl  0  0  0  0  0  0  0  0  0  0  0  0
   58.3900   27.4700   46.9950 C   0  0  0  0  0  0  0  0  0  0  0  0
   57.6060   28.0280   45.9810 C   0  0  0  0  0  0  0  0  0  0  0  0
   60.0493   35.2215   46.4644 H   0  0  0  0  0  0  0  0  0  0  0  0
   59.8402   34.0741   45.0982 H   0  0  0  0  0  0  0  0  0  0  0  0
   58.9608   35.6404   45.0982 H   0  0  0  0  0  0  0  0  0  0  0  0
   58.2056   34.4649   47.5179 H   0  0  0  0  0  0  0  0  0  0  0  0
   57.2482   34.5007   45.9538 H   0  0  0  0  0  0  0  0  0  0  0  0
   58.9744   32.7923   48.3377 H   0  0  0  0  0  0  0  0  0  0  0  0
   57.8639   31.3714   47.9935 H   0  0  0  0  0  0  0  0  0  0  0  0
   60.2992   30.7754   48.3522 H   0  0  0  0  0  0  0  0  0  0  0  0
   59.5640   30.2066   46.8151 H   0  0  0  0  0  0  0  0  0  0  0  0
   60.6531   31.6350   46.8151 H   0  0  0  0  0  0  0  0  0  0  0  0
   59.4364   32.6764   44.7222 H   0  0  0  0  0  0  0  0  0  0  0  0
   58.9189   31.0452   45.3241 H   0  0  0  0  0  0  0  0  0  0  0  0
   57.1302   33.0675   43.8853 H   0  0  0  0  0  0  0  0  0  0  0  0
   57.8525   31.5850   43.1598 H   0  0  0  0  0  0  0  0  0  0  0  0
   56.9812   28.3034   43.1185 H   0  0  0  0  0  0  0  0  0  0  0  0
   57.9762   29.7992   43.0973 H   0  0  0  0  0  0  0  0  0  0  0  0
   60.0925   28.9896   43.8344 H   0  0  0  0  0  0  0  0  0  0  0  0
   61.4881   28.0034   45.6516 H   0  0  0  0  0  0  0  0  0  0  0  0
   57.9104   27.0377   47.8856 H   0  0  0  0  0  0  0  0  0  0  0  0
   56.5099   28.0278   46.0739 H   0  0  0  0  0  0  0  0  0  0  0  0
  1  2  1  0
  2  3  1  0
  3  4  1  0
  4  5  1  0
  3  6  1  0
  6  7  1  0
  7  8  1  0
  8  9  1  0
  9 10  2  0
  9 11  1  0
 11 12  1  0
 12 13  2  0
 13 14  1  0
 14 15  2  0
 15 16  1  0
 15 17  1  0
 17 18  2  0
 18 12  1  0
  1 19  1  0
  1 20  1  0
  1 21  1  0
  2 22  1  0
  2 23  1  0
  4 24  1  0
  4 25  1  0
  5 26  1  0
  5 27  1  0
  5 28  1  0
  6 29  1  0
  6 30  1  0
  7 31  1  0
  7 32  1  0
 11 33  1  0
 11 34  1  0
 13 35  1  0
 14 36  1  0
 17 37  1  0
 18 38  1  0
M  END
>  <UniqueID>  (43) 
42

>  <SMILES>  (43) 
CCN(CC)CCOC(=O)Cc1ccc(Cl)cc1

>  <Energy>  (43) 
37.01604900283825

>  <Genealogy>  (43) 
CCN(CC)CCOC(=O)Cc1ccc(Cl)cc1 (3D coordinates assigned)
CCN(CC)CCOC(=O)Cc1ccc(Cl)cc1 (optimized conformer: 37.01604900283825 kcal/mol)

>  <smiles>  (43) 
CCN(CC)CCOC(=O)Cc1ccc(Cl)cc1

>  <score_type>  (43) 
oracle

>  <origin>  (43) 
adg

>  <m_score__min__energy>  (43) 
-5.9400000000000004

>  <m_primary>  (43) 
energy

$$$$
43:0
     RDKit          3D

 55 58  0  0  0  0  0  0  0  0999 V2000
   58.5050   27.2620   44.7560 C   0  0  0  0  0  0  0  0  0  0  0  0
   57.6690   28.0740   45.7400 C   0  0  0  0  0  0  0  0  0  0  0  0
   58.2770   29.3960   45.9720 N   0  0  0  0  0  0  0  0  0  0  0  0
   59.0790   29.6210   47.1810 C   0  0  0  0  0  0  0  0  0  0  0  0
   58.5980   30.8870   47.8790 C   0  0  0  0  0  0  0  0  0  0  0  0
   58.6600   32.0280   46.9540 N   0  0  0  0  0  0  0  0  0  0  0  0
   59.0550   33.3440   47.4840 C   0  0  0  0  0  0  0  0  0  0  0  0
   60.3920   33.7690   46.9300 C   0  0  0  0  0  0  0  0  0  0  0  0
   60.4130   34.6510   46.0240 O   0  0  0  0  0  0  0  0  0  0  0  0
   61.6380   33.1750   47.3670 N   0  0  0  0  0  0  0  0  0  0  0  0
   61.6990   31.9750   48.2180 C   0  0  0  0  0  0  0  0  0  0  0  0
   62.6030   32.2580   49.4200 C   0  0  0  0  0  0  0  0  0  0  0  0
   63.8840   32.8410   48.9940 N   0  0  0  0  0  0  0  0  0  0  0  0
   64.9170   33.1030   49.9680 C   0  0  0  0  0  0  0  0  0  0  0  0
   64.5760   33.5010   51.2730 C   0  0  0  0  0  0  0  0  0  0  0  0
   65.5840   33.6910   52.2210 C   0  0  0  0  0  0  0  0  0  0  0  0
   66.9170   33.4850   51.8670 C   0  0  0  0  0  0  0  0  0  0  0  0
   67.2250   33.1020   50.5600 C   0  0  0  0  0  0  0  0  0  0  0  0
   66.2340   32.9270   49.6440 N   0  0  0  0  0  0  0  0  0  0  0  0
   64.1250   33.1220   47.5700 C   0  0  0  0  0  0  0  0  0  0  0  0
   62.9020   33.8180   46.9610 C   0  0  0  0  0  0  0  0  0  0  0  0
   58.2890   31.8330   45.5610 C   0  0  0  0  0  0  0  0  0  0  0  0
   58.1430   32.9200   44.6730 C   0  0  0  0  0  0  0  0  0  0  0  0
   57.7620   32.7110   43.3480 C   0  0  0  0  0  0  0  0  0  0  0  0
   57.5260   31.4200   42.8830 C   0  0  0  0  0  0  0  0  0  0  0  0
   57.6800   30.3270   43.7370 C   0  0  0  0  0  0  0  0  0  0  0  0
   58.0690   30.5160   45.0800 C   0  0  0  0  0  0  0  0  0  0  0  0
   59.1859   26.6007   45.3119 H   0  0  0  0  0  0  0  0  0  0  0  0
   57.8402   26.6556   44.1232 H   0  0  0  0  0  0  0  0  0  0  0  0
   59.0918   27.9441   44.1232 H   0  0  0  0  0  0  0  0  0  0  0  0
   56.6575   28.2087   45.3294 H   0  0  0  0  0  0  0  0  0  0  0  0
   57.6233   27.5327   46.6965 H   0  0  0  0  0  0  0  0  0  0  0  0
   58.9680   28.7628   47.8600 H   0  0  0  0  0  0  0  0  0  0  0  0
   60.1376   29.7337   46.9040 H   0  0  0  0  0  0  0  0  0  0  0  0
   57.5597   30.7459   48.2137 H   0  0  0  0  0  0  0  0  0  0  0  0
   59.2459   31.0894   48.7446 H   0  0  0  0  0  0  0  0  0  0  0  0
   58.2956   34.0883   47.2023 H   0  0  0  0  0  0  0  0  0  0  0  0
   59.1354   33.2719   48.5787 H   0  0  0  0  0  0  0  0  0  0  0  0
   60.6880   31.7210   48.5693 H   0  0  0  0  0  0  0  0  0  0  0  0
   62.1046   31.1315   47.6401 H   0  0  0  0  0  0  0  0  0  0  0  0
   62.0941   32.9628   50.0941 H   0  0  0  0  0  0  0  0  0  0  0  0
   62.8061   31.3077   49.9355 H   0  0  0  0  0  0  0  0  0  0  0  0
   63.5224   33.6616   51.5453 H   0  0  0  0  0  0  0  0  0  0  0  0
   65.3270   34.0023   53.2442 H   0  0  0  0  0  0  0  0  0  0  0  0
   67.7171   33.6227   52.6092 H   0  0  0  0  0  0  0  0  0  0  0  0
   68.2736   32.9410   50.2695 H   0  0  0  0  0  0  0  0  0  0  0  0
   66.4990   32.6130   48.6860 H   0  0  0  0  0  0  0  0  0  0  0  0
   65.0038   33.7761   47.4710 H   0  0  0  0  0  0  0  0  0  0  0  0
   64.3044   32.1753   47.0394 H   0  0  0  0  0  0  0  0  0  0  0  0
   62.8890   34.8667   47.2927 H   0  0  0  0  0  0  0  0  0  0  0  0
   62.9819   33.7466   45.8662 H   0  0  0  0  0  0  0  0  0  0  0  0
   58.3318   33.9432   45.0299 H   0  0  0  0  0  0  0  0  0  0  0  0
   57.6476   33.5683   42.6684 H   0  0  0  0  0  0  0  0  0  0  0  0
   57.2172   31.2611   41.8393 H   0  0  0  0  0  0  0  0  0  0  0  0
   57.4966   29.3100   43.3600 H   0  0  0  0  0  0  0  0  0  0  0  0
  1  2  1  0
  2  3  1  0
  3  4  1  0
  4  5  1  0
  5  6  1  0
  6  7  1  0
  7  8  1  0
  8  9  2  0
  8 10  1  0
 10 11  1  0
 11 12  1  0
 12 13  1  0
 13 14  1  0
 14 15  2  0
 15 16  1  0
 16 17  2  0
 17 18  1  0
 18 19  2  0
 13 20  1  0
 20 21  1  0
  6 22  1  0
 22 23  2  0
 23 24  1  0
 24 25  2  0
 25 26  1  0
 26 27  2  0
 27  3  1  0
 21 10  1  0
 27 22  1  0
 19 14  1  0
  1 28  1  0
  1 29  1  0
  1 30  1  0
  2 31  1  0
  2 32  1  0
  4 33  1  0
  4 34  1  0
  5 35  1  0
  5 36  1  0
  7 37  1  0
  7 38  1  0
 11 39  1  0
 11 40  1  0
 12 41  1  0
 12 42  1  0
 15 43  1  0
 16 44  1  0
 17 45  1  0
 18 46  1  0
 19 47  1  0
 20 48  1  0
 20 49  1  0
 21 50  1  0
 21 51  1  0
 23 52  1  0
 24 53  1  0
 25 54  1  0
 26 55  1  0
M  CHG  1  19   1
M  END
>  <UniqueID>  (44) 
43

>  <SMILES>  (44) 
CCN1CCN(CC(=O)N2CCN(c3cccc[nH+]3)CC2)c2ccccc21

>  <Energy>  (44) 
62.99258046200678

>  <Genealogy>  (44) 
CCN1CCN(CC(=O)N2CCN(c3cccc[nH+]3)CC2)c2ccccc21 (protonated)
CCN1CCN(CC(=O)N2CCN(c3cccc[nH+]3)CC2)c2ccccc21 (3D coordinates assigned)
CCN1CCN(CC(=O)N2CCN(c3cccc[nH+]3)CC2)c2ccccc21 (nonaromatic ring conformer: 62.99258046200678 kcal/mol)

>  <smiles>  (44) 
CCN1CCN(CC(=O)N2CCN(c3ccccn3)CC2)c2ccccc21

>  <score_type>  (44) 
oracle

>  <origin>  (44) 
adg

>  <m_score__min__energy>  (44) 
-6.5800000000000001

>  <m_primary>  (44) 
energy

$$$$
44:0
     RDKit          3D

 54 57  0  0  0  0  0  0  0  0999 V2000
   57.8890   31.9560   50.6020 C   0  0  0  0  0  0  0  0  0  0  0  0
   58.8680   31.1250   49.9080 N   0  0  0  0  0  0  0  0  0  0  0  0
   58.9340   29.7730   49.9360 C   0  0  0  0  0  0  0  0  0  0  0  0
   59.9740   29.3250   49.1260 C   0  0  0  0  0  0  0  0  0  0  0  0
   60.3330   27.8870   48.8490 C   0  0  0  0  0  0  0  0  0  0  0  0
   60.2190   27.5450   47.4160 N   0  0  0  0  0  0  0  0  0  0  0  0
   59.3170   28.3900   46.6050 C   0  0  0  0  0  0  0  0  0  0  0  0
   59.9060   28.7160   45.2210 C   0  0  0  0  0  0  0  0  0  0  0  0
   59.0140   29.7270   44.4610 C   0  0  0  0  0  0  0  0  0  0  0  0
   57.6680   29.8620   45.0640 N   0  0  0  0  0  0  0  0  0  0  0  0
   56.7800   30.6650   44.1970 C   0  0  0  0  0  0  0  0  0  0  0  0
   57.5450   31.8360   43.5620 C   0  0  0  0  0  0  0  0  0  0  0  0
   57.9870   32.8300   44.6040 C   0  0  0  0  0  0  0  0  0  0  0  0
   57.3970   32.8340   45.8760 C   0  0  0  0  0  0  0  0  0  0  0  0
   57.7890   33.7930   46.8130 C   0  0  0  0  0  0  0  0  0  0  0  0
   58.7290   34.7200   46.4880 N   0  0  0  0  0  0  0  0  0  0  0  0
   59.3110   34.7450   45.2590 C   0  0  0  0  0  0  0  0  0  0  0  0
   58.9480   33.8030   44.2940 C   0  0  0  0  0  0  0  0  0  0  0  0
   57.0910   28.5330   45.3560 C   0  0  0  0  0  0  0  0  0  0  0  0
   57.8790   27.8350   46.4820 C   0  0  0  0  0  0  0  0  0  0  0  0
   60.5310   30.4630   48.5670 C   0  0  0  0  0  0  0  0  0  0  0  0
   61.5740   30.6280   47.6520 C   0  0  0  0  0  0  0  0  0  0  0  0
   61.9060   31.9370   47.2600 C   0  0  0  0  0  0  0  0  0  0  0  0
   61.1960   33.0400   47.7760 C   0  0  0  0  0  0  0  0  0  0  0  0
   60.1440   32.8480   48.6900 C   0  0  0  0  0  0  0  0  0  0  0  0
   59.8380   31.5380   49.0690 C   0  0  0  0  0  0  0  0  0  0  0  0
   58.0190   31.8457   51.6887 H   0  0  0  0  0  0  0  0  0  0  0  0
   58.0363   33.0090   50.3201 H   0  0  0  0  0  0  0  0  0  0  0  0
   56.8739   31.6396   50.3201 H   0  0  0  0  0  0  0  0  0  0  0  0
   58.2626   29.1222   50.5153 H   0  0  0  0  0  0  0  0  0  0  0  0
   61.3698   27.7129   49.1725 H   0  0  0  0  0  0  0  0  0  0  0  0
   59.6264   27.2517   49.4031 H   0  0  0  0  0  0  0  0  0  0  0  0
   61.1590   27.5100   46.9560 H   0  0  0  0  0  0  0  0  0  0  0  0
   59.2346   29.3312   47.1684 H   0  0  0  0  0  0  0  0  0  0  0  0
   60.9093   29.1480   45.3501 H   0  0  0  0  0  0  0  0  0  0  0  0
   59.9583   27.7864   44.6353 H   0  0  0  0  0  0  0  0  0  0  0  0
   59.5063   30.7106   44.4735 H   0  0  0  0  0  0  0  0  0  0  0  0
   58.8842   29.3524   43.4349 H   0  0  0  0  0  0  0  0  0  0  0  0
   56.3785   30.0226   43.3995 H   0  0  0  0  0  0  0  0  0  0  0  0
   55.9631   31.0713   44.8114 H   0  0  0  0  0  0  0  0  0  0  0  0
   58.4314   31.4447   43.0413 H   0  0  0  0  0  0  0  0  0  0  0  0
   56.8737   32.3476   42.8566 H   0  0  0  0  0  0  0  0  0  0  0  0
   56.6313   32.0876   46.1341 H   0  0  0  0  0  0  0  0  0  0  0  0
   57.3364   33.7982   47.8156 H   0  0  0  0  0  0  0  0  0  0  0  0
   60.0682   35.5078   45.0249 H   0  0  0  0  0  0  0  0  0  0  0  0
   59.4129   33.8242   43.2973 H   0  0  0  0  0  0  0  0  0  0  0  0
   56.0436   28.6545   45.6694 H   0  0  0  0  0  0  0  0  0  0  0  0
   57.1471   27.9147   44.4479 H   0  0  0  0  0  0  0  0  0  0  0  0
   57.3535   27.9931   47.4353 H   0  0  0  0  0  0  0  0  0  0  0  0
   57.9451   26.7639   46.2402 H   0  0  0  0  0  0  0  0  0  0  0  0
   62.1186   29.7606   47.2507 H   0  0  0  0  0  0  0  0  0  0  0  0
   62.7259   32.1015   46.5453 H   0  0  0  0  0  0  0  0  0  0  0  0
   61.4666   34.0588   47.4615 H   0  0  0  0  0  0  0  0  0  0  0  0
   59.5801   33.7019   49.0936 H   0  0  0  0  0  0  0  0  0  0  0  0
  1  2  1  0
  2  3  1  0
  3  4  2  0
  4  5  1  0
  5  6  1  0
  6  7  1  0
  7  8  1  0
  8  9  1  0
  9 10  1  0
 10 11  1  0
 11 12  1  0
 12 13  1  0
 13 14  2  0
 14 15  1  0
 15 16  2  0
 16 17  1  0
 17 18  2  0
 10 19  1  0
 19 20  1  0
  4 21  1  0
 21 22  2  0
 22 23  1  0
 23 24  2  0
 24 25  1  0
 25 26  2  0
 26  2  1  0
 20  7  1  0
 26 21  1  0
 18 13  1  0
  1 27  1  0
  1 28  1  0
  1 29  1  0
  3 30  1  0
  5 31  1  0
  5 32  1  0
  6 33  1  0
  7 34  1  0
  8 35  1  0
  8 36  1  0
  9 37  1  0
  9 38  1  0
 11 39  1  0
 11 40  1  0
 12 41  1  0
 12 42  1  0
 14 43  1  0
 15 44  1  0
 17 45  1  0
 18 46  1  0
 19 47  1  0
 19 48  1  0
 20 49  1  0
 20 50  1  0
 22 51  1  0
 23 52  1  0
 24 53  1  0
 25 54  1  0
M  END
>  <UniqueID>  (45) 
44

>  <SMILES>  (45) 
Cn1cc(CNC2CCN(CCc3ccncc3)CC2)c2ccccc21

>  <Energy>  (45) 
99.85515601253718

>  <Genealogy>  (45) 
Cn1cc(CNC2CCN(CCc3ccncc3)CC2)c2ccccc21 (3D coordinates assigned)
Cn1cc(CNC2CCN(CCc3ccncc3)CC2)c2ccccc21 (nonaromatic ring conformer: 99.85515601253718 kcal/mol)

>  <smiles>  (45) 
Cn1cc(CNC2CCN(CCc3ccncc3)CC2)c2ccccc21

>  <score_type>  (45) 
oracle

>  <origin>  (45) 
adg

>  <m_score__min__energy>  (45) 
-9.0899999999999999

>  <m_primary>  (45) 
energy

$$$$
45:0
     RDKit          3D

 38 40  0  0  0  0  0  0  0  0999 V2000
   53.9646   24.0354   46.0799 H   0  0  0  0  0  0  0  0  0  0  0  0
   54.9480   24.3950   45.7430 C   0  0  0  0  0  0  0  0  0  0  0  0
   55.3380   25.6680   46.0220 N   0  0  0  0  0  0  0  0  0  0  0  0
   56.5470   26.1520   45.6240 C   0  0  0  0  0  0  0  0  0  0  0  0
   56.9330   27.5620   45.9680 C   0  0  0  0  0  0  0  0  0  0  0  0
   57.9873   27.7230   45.6987 H   0  0  0  0  0  0  0  0  0  0  0  0
   56.7856   27.7142   47.0474 H   0  0  0  0  0  0  0  0  0  0  0  0
   56.1000   28.5220   45.2410 N   0  0  0  0  0  0  0  0  0  0  0  0
   56.5500   29.5600   44.6000 C   0  0  0  0  0  0  0  0  0  0  0  0
   57.1240   30.6030   45.2610 N   0  0  0  0  0  0  0  0  0  0  0  0
   57.5970   31.6990   44.6070 C   0  0  0  0  0  0  0  0  0  0  0  0
   58.2220   32.8010   45.3800 C   0  0  0  0  0  0  0  0  0  0  0  0
   58.6670   33.9550   44.7120 C   0  0  0  0  0  0  0  0  0  0  0  0
   58.5441   34.0364   43.6219 H   0  0  0  0  0  0  0  0  0  0  0  0
   59.2640   34.9990   45.4220 C   0  0  0  0  0  0  0  0  0  0  0  0
   59.6045   35.8996   44.8901 H   0  0  0  0  0  0  0  0  0  0  0  0
   59.4300   34.9030   46.8050 C   0  0  0  0  0  0  0  0  0  0  0  0
   59.8971   35.7312   47.3581 H   0  0  0  0  0  0  0  0  0  0  0  0
   59.0060   33.7600   47.4920 C   0  0  0  0  0  0  0  0  0  0  0  0
   59.2030   33.7100   48.8800 O   0  0  0  0  0  0  0  0  0  0  0  0
   60.4700   33.8400   49.5180 C   0  0  0  0  0  0  0  0  0  0  0  0
   60.3341   33.8261   50.6095 H   0  0  0  0  0  0  0  0  0  0  0  0
   61.1188   33.0037   49.2186 H   0  0  0  0  0  0  0  0  0  0  0  0
   60.9355   34.7906   49.2186 H   0  0  0  0  0  0  0  0  0  0  0  0
   58.4040   32.7080   46.7750 C   0  0  0  0  0  0  0  0  0  0  0  0
   58.0725   31.8049   47.3085 H   0  0  0  0  0  0  0  0  0  0  0  0
   57.4950   31.7390   43.2060 C   0  0  0  0  0  0  0  0  0  0  0  0
   57.8783   32.6065   42.6487 H   0  0  0  0  0  0  0  0  0  0  0  0
   56.9200   30.7000   42.5420 N   0  0  0  0  0  0  0  0  0  0  0  0
   56.8510   30.7340   41.5000 H   0  0  0  0  0  0  0  0  0  0  0  0
   56.4450   29.6150   43.2080 C   0  0  0  0  0  0  0  0  0  0  0  0
   55.9808   28.7853   42.6547 H   0  0  0  0  0  0  0  0  0  0  0  0
   57.4210   25.3270   44.9020 C   0  0  0  0  0  0  0  0  0  0  0  0
   58.3985   25.7079   44.5713 H   0  0  0  0  0  0  0  0  0  0  0  0
   57.0380   24.0170   44.6070 C   0  0  0  0  0  0  0  0  0  0  0  0
   57.7147   23.3585   44.0427 H   0  0  0  0  0  0  0  0  0  0  0  0
   55.7940   23.5450   45.0300 C   0  0  0  0  0  0  0  0  0  0  0  0
   55.4842   22.5141   44.8036 H   0  0  0  0  0  0  0  0  0  0  0  0
  1  2  1  0
  2  3  2  0
  3  4  1  0
  4  5  1  0
  5  6  1  0
  5  7  1  0
  5  8  1  0
  8  9  2  0
  9 10  1  0
 10 11  1  0
 11 12  1  0
 12 13  2  0
 13 14  1  0
 13 15  1  0
 15 16  1  0
 15 17  2  0
 17 18  1  0
 17 19  1  0
 19 20  1  0
 20 21  1  0
 21 22  1  0
 21 23  1  0
 21 24  1  0
 19 25  2  0
 25 26  1  0
 11 27  2  0
 27 28  1  0
 27 29  1  0
 29 30  1  0
 29 31  2  0
 31 32  1  0
  4 33  2  0
 33 34  1  0
 33 35  1  0
 35 36  1  0
 35 37  2  0
 37 38  1  0
 37  2  1  0
 31  9  1  0
 25 12  1  0
M  CHG  2  10  -1  29   1
M  END
>  <UniqueID>  (46) 
45

>  <SMILES>  (46) 
COc1cccc(-c2c[nH+]c/c(=N/Cc3ccccn3)[n-]2)c1

>  <Energy>  (46) 
43.44469054638171

>  <Genealogy>  (46) 
COc1cccc(-c2c[nH+]cc(=NCc3ccccn3)[n-]2)c1 (protonated)
COc1cccc(-c2c[nH+]c/c(=N/Cc3ccccn3)[n-]2)c1 (cis-trans isomerization)
COc1cccc(-c2c[nH+]c/c(=N/Cc3ccccn3)[n-]2)c1 (3D coordinates assigned)
COc1cccc(-c2c[nH+]c/c(=N/Cc3ccccn3)[n-]2)c1 (optimized conformer: 43.44469054638171 kcal/mol)

>  <smiles>  (46) 
COc1cccc(-c2cncc(=NCc3ccccn3)[nH]2)c1

>  <score_type>  (46) 
oracle

>  <origin>  (46) 
adg

>  <m_score__min__energy>  (46) 
-8.0700000000000003

>  <m_primary>  (46) 
energy

$$$$
46:0
     RDKit          3D

 52 55  0  0  0  0  0  0  0  0999 V2000
   64.1060   32.4860   48.6470 C   0  0  0  0  0  0  0  0  0  0  0  0
   62.7970   32.6140   47.9400 C   0  0  0  0  0  0  0  0  0  0  0  0
   62.4420   33.7340   47.4810 O   0  0  0  0  0  0  0  0  0  0  0  0
   61.9720   31.4560   47.7510 N   0  0  0  0  0  0  0  0  0  0  0  0
   60.6380   31.5160   47.1570 C   0  0  0  0  0  0  0  0  0  0  0  0
   60.1420   30.1370   46.8250 C   0  0  0  0  0  0  0  0  0  0  0  0
   60.9290   29.0410   46.9800 N   0  0  0  0  0  0  0  0  0  0  0  0
   60.1360   28.0340   46.5790 C   0  0  0  0  0  0  0  0  0  0  0  0
   60.4460   26.6790   46.5500 C   0  0  0  0  0  0  0  0  0  0  0  0
   59.4540   25.7860   46.1080 C   0  0  0  0  0  0  0  0  0  0  0  0
   58.1790   26.2620   45.7060 C   0  0  0  0  0  0  0  0  0  0  0  0
   57.1680   25.3340   45.2650 N   0  0  0  0  0  0  0  0  0  0  0  0
   57.5320   24.3060   44.4380 C   0  0  0  0  0  0  0  0  0  0  0  0
   56.5840   23.3800   43.9830 C   0  0  0  0  0  0  0  0  0  0  0  0
   56.9980   22.2290   43.1140 C   0  0  0  0  0  0  0  0  0  0  0  0
   55.2590   23.5040   44.4110 C   0  0  0  0  0  0  0  0  0  0  0  0
   54.8940   24.5560   45.2470 C   0  0  0  0  0  0  0  0  0  0  0  0
   55.8620   25.4750   45.6650 C   0  0  0  0  0  0  0  0  0  0  0  0
   55.5120   26.4360   46.4030 O   0  0  0  0  0  0  0  0  0  0  0  0
   57.9010   27.6470   45.7590 C   0  0  0  0  0  0  0  0  0  0  0  0
   58.9140   28.5070   46.1970 C   0  0  0  0  0  0  0  0  0  0  0  0
   58.9040   29.8490   46.3270 N   0  0  0  0  0  0  0  0  0  0  0  0
   57.7740   30.7640   46.1060 C   0  0  0  0  0  0  0  0  0  0  0  0
   57.5290   31.0190   44.6350 C   0  0  0  0  0  0  0  0  0  0  0  0
   56.8650   30.0370   43.8760 C   0  0  0  0  0  0  0  0  0  0  0  0
   56.6280   30.2290   42.5140 C   0  0  0  0  0  0  0  0  0  0  0  0
   57.0590   31.3980   41.8860 C   0  0  0  0  0  0  0  0  0  0  0  0
   57.7410   32.3720   42.6160 C   0  0  0  0  0  0  0  0  0  0  0  0
   57.9890   32.1900   43.9840 C   0  0  0  0  0  0  0  0  0  0  0  0
   58.7260   33.2140   44.6860 C   0  0  0  0  0  0  0  0  0  0  0  0
   59.3230   34.0330   45.2420 N   0  0  0  0  0  0  0  0  0  0  0  0
   63.9387   32.5024   49.7341 H   0  0  0  0  0  0  0  0  0  0  0  0
   64.5844   31.5368   48.3639 H   0  0  0  0  0  0  0  0  0  0  0  0
   64.7592   33.3246   48.3639 H   0  0  0  0  0  0  0  0  0  0  0  0
   62.3640   30.5230   48.0060 H   0  0  0  0  0  0  0  0  0  0  0  0
   59.9458   31.9866   47.8707 H   0  0  0  0  0  0  0  0  0  0  0  0
   60.6898   32.1059   46.2300 H   0  0  0  0  0  0  0  0  0  0  0  0
   61.4364   26.3169   46.8631 H   0  0  0  0  0  0  0  0  0  0  0  0
   59.6684   24.7076   46.0735 H   0  0  0  0  0  0  0  0  0  0  0  0
   58.5822   24.2055   44.1266 H   0  0  0  0  0  0  0  0  0  0  0  0
   57.3025   21.3825   43.7471 H   0  0  0  0  0  0  0  0  0  0  0  0
   56.1524   21.9263   42.4789 H   0  0  0  0  0  0  0  0  0  0  0  0
   57.8427   22.5343   42.4789 H   0  0  0  0  0  0  0  0  0  0  0  0
   54.5053   22.7710   44.0876 H   0  0  0  0  0  0  0  0  0  0  0  0
   53.8502   24.6637   45.5769 H   0  0  0  0  0  0  0  0  0  0  0  0
   56.9159   28.0377   45.4642 H   0  0  0  0  0  0  0  0  0  0  0  0
   56.8678   30.3214   46.5452 H   0  0  0  0  0  0  0  0  0  0  0  0
   58.0183   31.7257   46.5809 H   0  0  0  0  0  0  0  0  0  0  0  0
   56.5294   29.1086   44.3613 H   0  0  0  0  0  0  0  0  0  0  0  0
   56.1003   29.4571   41.9345 H   0  0  0  0  0  0  0  0  0  0  0  0
   56.8610   31.5518   40.8149 H   0  0  0  0  0  0  0  0  0  0  0  0
   58.0863   33.2885   42.1152 H   0  0  0  0  0  0  0  0  0  0  0  0
  1  2  1  0
  2  3  2  0
  2  4  1  0
  4  5  1  0
  5  6  1  0
  6  7  2  0
  7  8  1  0
  8  9  2  0
  9 10  1  0
 10 11  2  0
 11 12  1  0
 12 13  1  0
 13 14  2  0
 14 15  1  0
 14 16  1  0
 16 17  2  0
 17 18  1  0
 18 19  2  0
 11 20  1  0
 20 21  2  0
 21 22  1  0
 22 23  1  0
 23 24  1  0
 24 25  2  0
 25 26  1  0
 26 27  2  0
 27 28  1  0
 28 29  2  0
 29 30  1  0
 30 31  3  0
 22  6  1  0
 29 24  1  0
 21  8  1  0
 18 12  1  0
  1 32  1  0
  1 33  1  0
  1 34  1  0
  4 35  1  0
  5 36  1  0
  5 37  1  0
  9 38  1  0
 10 39  1  0
 13 40  1  0
 15 41  1  0
 15 42  1  0
 15 43  1  0
 16 44  1  0
 17 45  1  0
 20 46  1  0
 23 47  1  0
 23 48  1  0
 25 49  1  0
 26 50  1  0
 27 51  1  0
 28 52  1  0
M  END
>  <UniqueID>  (47) 
46

>  <SMILES>  (47) 
CC(=O)NCc1nc2ccc(-n3cc(C)ccc3=O)cc2n1Cc1ccccc1C#N

>  <Energy>  (47) 
95.37193124834265

>  <Genealogy>  (47) 
CC(=O)NCc1nc2ccc(-n3cc(C)ccc3=O)cc2n1Cc1ccccc1C#N (3D coordinates assigned)
CC(=O)NCc1nc2ccc(-n3cc(C)ccc3=O)cc2n1Cc1ccccc1C#N (optimized conformer: 95.37193124834265 kcal/mol)

>  <smiles>  (47) 
CC(=O)NCc1nc2ccc(-n3cc(C)ccc3=O)cc2n1Cc1ccccc1C#N

>  <score_type>  (47) 
oracle

>  <origin>  (47) 
adg

>  <m_score__min__energy>  (47) 
-8.9800000000000004

>  <m_primary>  (47) 
energy

$$$$
47:0
     RDKit          3D

 48 48  0  0  0  0  0  0  0  0999 V2000
   60.7250   28.9070   44.9120 C   0  0  0  0  0  0  0  0  0  0  0  0
   59.2630   29.3090   45.0510 C   0  0  0  0  0  0  0  0  0  0  0  0
   58.7480   29.4720   46.8030 S   0  0  0  0  0  0  0  0  0  0  0  0
   58.8230   31.2780   46.8670 C   0  0  0  0  0  0  0  0  0  0  0  0
   59.6370   31.9360   47.8010 C   0  0  0  0  0  0  0  0  0  0  0  0
   60.2890   31.1800   48.8340 N   0  0  0  0  0  0  0  0  0  0  0  0
   61.7000   30.8070   48.7390 C   0  0  0  0  0  0  0  0  0  0  0  0
   62.3790   31.4540   47.5150 C   0  0  0  0  0  0  0  0  0  0  0  0
   63.6510   32.1540   47.8490 N   0  0  0  0  0  0  0  0  0  0  0  0
   63.7900   32.3360   49.3180 C   0  0  0  0  0  0  0  0  0  0  0  0
   65.2180   32.6960   49.7440 C   0  0  0  0  0  0  0  0  0  0  0  0
   63.7770   33.4240   47.0810 C   0  0  0  0  0  0  0  0  0  0  0  0
   62.5070   33.8390   46.3230 C   0  0  0  0  0  0  0  0  0  0  0  0
   59.6750   33.3060   47.8290 N   0  0  0  0  0  0  0  0  0  0  0  0
   60.5390   33.9780   48.8170 C   0  0  0  0  0  0  0  0  0  0  0  0
   58.8930   34.0380   46.9690 C   0  0  0  0  0  0  0  0  0  0  0  0
   58.9130   35.3010   47.0220 O   0  0  0  0  0  0  0  0  0  0  0  0
   58.0730   33.4120   46.0660 N   0  0  0  0  0  0  0  0  0  0  0  0
   57.2050   34.2110   45.1810 C   0  0  0  0  0  0  0  0  0  0  0  0
   58.0000   32.0460   46.0380 C   0  0  0  0  0  0  0  0  0  0  0  0
   57.1820   31.4670   45.2700 O   0  0  0  0  0  0  0  0  0  0  0  0
   61.1684   28.7851   45.9113 H   0  0  0  0  0  0  0  0  0  0  0  0
   60.7933   27.9567   44.3621 H   0  0  0  0  0  0  0  0  0  0  0  0
   61.2695   29.6887   44.3621 H   0  0  0  0  0  0  0  0  0  0  0  0
   59.1126   30.2751   44.5470 H   0  0  0  0  0  0  0  0  0  0  0  0
   58.6519   28.5170   44.5935 H   0  0  0  0  0  0  0  0  0  0  0  0
   59.7730   31.0550   49.7350 H   0  0  0  0  0  0  0  0  0  0  0  0
   62.2185   31.1380   49.6509 H   0  0  0  0  0  0  0  0  0  0  0  0
   61.7594   29.7144   48.6268 H   0  0  0  0  0  0  0  0  0  0  0  0
   62.5969   30.6658   46.7792 H   0  0  0  0  0  0  0  0  0  0  0  0
   61.6851   32.2100   47.1189 H   0  0  0  0  0  0  0  0  0  0  0  0
   64.4470   31.5540   47.5320 H   0  0  0  0  0  0  0  0  0  0  0  0
   63.1149   33.1439   49.6367 H   0  0  0  0  0  0  0  0  0  0  0  0
   63.5362   31.3774   49.7940 H   0  0  0  0  0  0  0  0  0  0  0  0
   65.2801   32.7117   50.8421 H   0  0  0  0  0  0  0  0  0  0  0  0
   65.9188   31.9464   49.3478 H   0  0  0  0  0  0  0  0  0  0  0  0
   65.4797   33.6882   49.3478 H   0  0  0  0  0  0  0  0  0  0  0  0
   64.0342   34.2279   47.7864 H   0  0  0  0  0  0  0  0  0  0  0  0
   64.5535   33.2540   46.3207 H   0  0  0  0  0  0  0  0  0  0  0  0
   61.7174   34.0970   47.0441 H   0  0  0  0  0  0  0  0  0  0  0  0
   62.7260   34.7123   45.6911 H   0  0  0  0  0  0  0  0  0  0  0  0
   62.1681   33.0049   45.6911 H   0  0  0  0  0  0  0  0  0  0  0  0
   60.2053   33.7185   49.8325 H   0  0  0  0  0  0  0  0  0  0  0  0
   61.5795   33.6495   48.6778 H   0  0  0  0  0  0  0  0  0  0  0  0
   60.4767   35.0674   48.6778 H   0  0  0  0  0  0  0  0  0  0  0  0
   56.5313   34.8311   45.7906 H   0  0  0  0  0  0  0  0  0  0  0  0
   57.8264   34.8597   44.5462 H   0  0  0  0  0  0  0  0  0  0  0  0
   56.6099   33.5381   44.5462 H   0  0  0  0  0  0  0  0  0  0  0  0
  1  2  1  0
  2  3  1  0
  3  4  1  0
  4  5  2  0
  5  6  1  0
  6  7  1  0
  7  8  1  0
  8  9  1  0
  9 10  1  0
 10 11  1  0
  9 12  1  0
 12 13  1  0
  5 14  1  0
 14 15  1  0
 14 16  1  0
 16 17  2  0
 16 18  1  0
 18 19  1  0
 18 20  1  0
 20 21  2  0
 20  4  1  0
  1 22  1  0
  1 23  1  0
  1 24  1  0
  2 25  1  0
  2 26  1  0
  6 27  1  0
  7 28  1  0
  7 29  1  0
  8 30  1  0
  8 31  1  0
  9 32  1  0
 10 33  1  0
 10 34  1  0
 11 35  1  0
 11 36  1  0
 11 37  1  0
 12 38  1  0
 12 39  1  0
 13 40  1  0
 13 41  1  0
 13 42  1  0
 15 43  1  0
 15 44  1  0
 15 45  1  0
 19 46  1  0
 19 47  1  0
 19 48  1  0
M  CHG  1   9   1
M  END
>  <UniqueID>  (48) 
47

>  <SMILES>  (48) 
CCSc1c(NCC[NH+](CC)CC)n(C)c(=O)n(C)c1=O

>  <Energy>  (48) 
56.289518658231984

>  <Genealogy>  (48) 
CCSc1c(NCC[NH+](CC)CC)n(C)c(=O)n(C)c1=O (protonated)
CCSc1c(NCC[NH+](CC)CC)n(C)c(=O)n(C)c1=O (3D coordinates assigned)
CCSc1c(NCC[NH+](CC)CC)n(C)c(=O)n(C)c1=O (optimized conformer: 56.289518658231984 kcal/mol)

>  <smiles>  (48) 
CCSc1c(NCCN(CC)CC)n(C)c(=O)n(C)c1=O

>  <score_type>  (48) 
oracle

>  <origin>  (48) 
adg

>  <m_score__min__energy>  (48) 
-4.4500000000000002

>  <m_primary>  (48) 
energy

$$$$
48:0
     RDKit          3D

 60 63  0  0  0  0  0  0  0  0999 V2000
   58.7380   34.5840   45.1160 C   0  0  0  0  0  0  0  0  0  0  0  0
   57.3890   33.9120   44.9040 C   0  0  0  0  0  0  0  0  0  0  0  0
   57.5460   32.4250   44.8580 C   0  0  0  0  0  0  0  0  0  0  0  0
   57.0690   31.5840   43.8630 C   0  0  0  0  0  0  0  0  0  0  0  0
   57.4880   30.3480   44.1670 N   0  0  0  0  0  0  0  0  0  0  0  0
   57.2710   29.1730   43.5240 C   0  0  0  0  0  0  0  0  0  0  0  0
   57.8160   28.0050   44.0800 C   0  0  0  0  0  0  0  0  0  0  0  0
   58.5680   28.0850   45.2680 C   0  0  0  0  0  0  0  0  0  0  0  0
   58.7860   29.3290   45.8880 C   0  0  0  0  0  0  0  0  0  0  0  0
   59.5550   29.4290   47.0950 N   0  0  0  0  0  0  0  0  0  0  0  0
   60.5980   30.4570   47.2220 C   0  0  0  0  0  0  0  0  0  0  0  0
   60.9070   30.7390   48.6950 C   0  0  0  0  0  0  0  0  0  0  0  0
   59.6610   30.6850   49.4730 N   0  0  0  0  0  0  0  0  0  0  0  0
   59.0470   31.8720   50.0260 C   0  0  0  0  0  0  0  0  0  0  0  0
   57.7930   31.9680   50.0310 O   0  0  0  0  0  0  0  0  0  0  0  0
   59.8370   33.0100   50.6320 C   0  0  1  0  0  0  0  0  0  0  0  0
   60.0210   34.1620   49.6200 C   0  0  0  0  0  0  0  0  0  0  0  0
   61.2100   33.9260   48.7210 C   0  0  0  0  0  0  0  0  0  0  0  0
   62.4900   33.7200   49.2660 C   0  0  0  0  0  0  0  0  0  0  0  0
   63.5850   33.4870   48.4240 C   0  0  0  0  0  0  0  0  0  0  0  0
   63.4130   33.4620   47.0350 C   0  0  0  0  0  0  0  0  0  0  0  0
   62.1430   33.6640   46.4860 C   0  0  0  0  0  0  0  0  0  0  0  0
   61.0440   33.8940   47.3230 C   0  0  0  0  0  0  0  0  0  0  0  0
   59.2200   33.4740   51.8800 N   0  0  0  0  0  0  0  0  0  0  0  0
   59.9900   33.8570   53.0270 C   0  0  0  0  0  0  0  0  0  0  0  0
   59.3010   34.3340   54.2610 C   0  0  0  0  0  0  0  0  0  0  0  0
   61.2480   33.7900   53.0060 O   0  0  0  0  0  0  0  0  0  0  0  0
   58.8920   29.4230   49.4530 C   0  0  0  0  0  0  0  0  0  0  0  0
   59.2540   28.5590   48.2350 C   0  0  0  0  0  0  0  0  0  0  0  0
   58.2040   30.4580   45.2980 C   0  0  0  0  0  0  0  0  0  0  0  0
   58.2670   31.7230   45.7650 N   0  0  0  0  0  0  0  0  0  0  0  0
   58.9337   34.6815   46.1941 H   0  0  0  0  0  0  0  0  0  0  0  0
   59.5281   33.9742   44.6536 H   0  0  0  0  0  0  0  0  0  0  0  0
   58.7272   35.5820   44.6536 H   0  0  0  0  0  0  0  0  0  0  0  0
   56.7170   34.1796   45.7328 H   0  0  0  0  0  0  0  0  0  0  0  0
   56.9670   34.2550   43.9478 H   0  0  0  0  0  0  0  0  0  0  0  0
   56.4635   31.8757   42.9922 H   0  0  0  0  0  0  0  0  0  0  0  0
   56.6849   29.1368   42.5938 H   0  0  0  0  0  0  0  0  0  0  0  0
   57.6566   27.0328   43.5906 H   0  0  0  0  0  0  0  0  0  0  0  0
   58.9869   27.1706   45.7133 H   0  0  0  0  0  0  0  0  0  0  0  0
   61.5130   30.1061   46.7223 H   0  0  0  0  0  0  0  0  0  0  0  0
   60.2376   31.3847   46.7535 H   0  0  0  0  0  0  0  0  0  0  0  0
   61.6098   29.9824   49.0742 H   0  0  0  0  0  0  0  0  0  0  0  0
   61.3582   31.7375   48.7917 H   0  0  0  0  0  0  0  0  0  0  0  0
   60.8397   32.6333   50.8823 H   0  0  0  0  0  0  0  0  0  0  0  0
   59.1153   34.2415   49.0008 H   0  0  0  0  0  0  0  0  0  0  0  0
   60.1941   35.0909   50.1832 H   0  0  0  0  0  0  0  0  0  0  0  0
   62.6317   33.7419   50.3566 H   0  0  0  0  0  0  0  0  0  0  0  0
   64.5834   33.3231   48.8557 H   0  0  0  0  0  0  0  0  0  0  0  0
   64.2758   33.2837   46.3763 H   0  0  0  0  0  0  0  0  0  0  0  0
   62.0069   33.6422   45.3947 H   0  0  0  0  0  0  0  0  0  0  0  0
   60.0465   34.0504   46.8864 H   0  0  0  0  0  0  0  0  0  0  0  0
   58.1820   33.5900   51.9290 H   0  0  0  0  0  0  0  0  0  0  0  0
   59.8370   33.9629   55.1470 H   0  0  0  0  0  0  0  0  0  0  0  0
   59.2902   35.4339   54.2730 H   0  0  0  0  0  0  0  0  0  0  0  0
   58.2677   33.9570   54.2730 H   0  0  0  0  0  0  0  0  0  0  0  0
   59.1114   28.8567   50.3702 H   0  0  0  0  0  0  0  0  0  0  0  0
   57.8225   29.6729   49.3918 H   0  0  0  0  0  0  0  0  0  0  0  0
   60.1350   27.9437   48.4700 H   0  0  0  0  0  0  0  0  0  0  0  0
   58.4071   27.9034   47.9841 H   0  0  0  0  0  0  0  0  0  0  0  0
  1  2  1  0
  2  3  1  0
  3  4  2  0
  4  5  1  0
  5  6  1  0
  6  7  2  0
  7  8  1  0
  8  9  2  0
  9 10  1  0
 10 11  1  0
 11 12  1  0
 12 13  1  0
 13 14  1  0
 14 15  2  0
 14 16  1  0
 16 17  1  0
 17 18  1  0
 18 19  2  0
 19 20  1  0
 20 21  2  0
 21 22  1  0
 22 23  2  0
 16 24  1  0
 24 25  1  0
 25 26  1  0
 25 27  2  0
 13 28  1  0
 28 29  1  0
  9 30  1  0
 30 31  2  0
 31  3  1  0
 30  5  1  0
 29 10  1  0
 23 18  1  0
  1 32  1  0
  1 33  1  0
  1 34  1  0
  2 35  1  0
  2 36  1  0
  4 37  1  0
  6 38  1  0
  7 39  1  0
  8 40  1  0
 11 41  1  0
 11 42  1  0
 12 43  1  0
 12 44  1  0
 16 45  1  1
 17 46  1  0
 17 47  1  0
 19 48  1  0
 20 49  1  0
 21 50  1  0
 22 51  1  0
 23 52  1  0
 24 53  1  0
 26 54  1  0
 26 55  1  0
 26 56  1  0
 28 57  1  0
 28 58  1  0
 29 59  1  0
 29 60  1  0
M  END
>  <UniqueID>  (49) 
48

>  <SMILES>  (49) 
CCc1cn2cccc(N3CCN(C(=O)[C@@H](Cc4ccccc4)NC(C)=O)CC3)c2n1

>  <Energy>  (49) 
97.43661032024771

>  <Genealogy>  (49) 
CCc1cn2cccc(N3CCN(C(=O)[C@@H](Cc4ccccc4)NC(C)=O)CC3)c2n1 (chirality)
CCc1cn2cccc(N3CCN(C(=O)[C@@H](Cc4ccccc4)NC(C)=O)CC3)c2n1 (3D coordinates assigned)
CCc1cn2cccc(N3CCN(C(=O)[C@@H](Cc4ccccc4)NC(C)=O)CC3)c2n1 (nonaromatic ring conformer: 97.43661032024771 kcal/mol)

>  <smiles>  (49) 
CCc1cn2cccc(N3CCN(C(=O)C(Cc4ccccc4)NC(C)=O)CC3)c2n1

>  <score_type>  (49) 
oracle

>  <origin>  (49) 
adg

>  <m_score__min__energy>  (49) 
-8.7599999999999998

>  <m_primary>  (49) 
energy

$$$$
