0:0
     RDKit          3D

 53 56  0  0  0  0  0  0  0  0999 V2000
   55.0530   24.2810   45.0100 C   0  0  0  0  0  0  0  0  0  0  0  0
   55.1280   24.5620   46.3880 O   0  0  0  0  0  0  0  0  0  0  0  0
   55.1920   23.3520   47.1130 C   0  0  0  0  0  0  0  0  0  0  0  0
   56.5130   23.2760   47.8770 C   0  0  0  0  0  0  0  0  0  0  0  0
   57.6220   22.9550   46.9790 N   0  0  0  0  0  0  0  0  0  0  0  0
   58.2310   23.8450   46.0330 C   0  0  0  0  0  0  0  0  0  0  0  0
   58.4610   23.4230   44.8690 O   0  0  0  0  0  0  0  0  0  0  0  0
   58.5920   25.2350   46.3740 C   0  0  0  0  0  0  0  0  0  0  0  0
   59.9320   25.6480   46.3850 C   0  0  0  0  0  0  0  0  0  0  0  0
   60.2620   26.9670   46.7080 C   0  0  0  0  0  0  0  0  0  0  0  0
   59.2520   27.9020   47.0000 C   0  0  0  0  0  0  0  0  0  0  0  0
   59.5660   29.2540   47.3740 N   0  0  0  0  0  0  0  0  0  0  0  0
   59.0230   29.9090   48.5350 C   0  0  0  0  0  0  0  0  0  0  0  0
   58.5540   29.2210   49.4820 O   0  0  0  0  0  0  0  0  0  0  0  0
   59.0070   31.4120   48.6700 C   0  0  0  0  0  0  0  0  0  0  0  0
   59.6390   32.1010   47.5340 N   0  0  0  0  0  0  0  0  0  0  0  0
   58.9060   32.3350   46.3040 C   0  0  0  0  0  0  0  0  0  0  0  0
   57.9430   31.4170   45.8360 C   0  0  0  0  0  0  0  0  0  0  0  0
   57.3770   31.5700   44.5680 C   0  0  0  0  0  0  0  0  0  0  0  0
   57.7620   32.6350   43.7510 C   0  0  0  0  0  0  0  0  0  0  0  0
   58.6900   33.5690   44.2140 C   0  0  0  0  0  0  0  0  0  0  0  0
   59.2430   33.4340   45.4920 C   0  0  0  0  0  0  0  0  0  0  0  0
   60.2690   34.7440   46.1550 S   0  0  0  0  0  0  0  0  0  0  0  0
   61.4710   33.6090   46.8440 C   0  0  0  0  0  0  0  0  0  0  0  0
   62.8360   33.8970   46.7330 C   0  0  0  0  0  0  0  0  0  0  0  0
   63.7740   33.1060   47.3990 C   0  0  0  0  0  0  0  0  0  0  0  0
   63.3500   32.0310   48.1830 C   0  0  0  0  0  0  0  0  0  0  0  0
   61.9890   31.7250   48.2800 C   0  0  0  0  0  0  0  0  0  0  0  0
   61.0330   32.4990   47.5920 C   0  0  0  0  0  0  0  0  0  0  0  0
   57.9130   27.4870   46.9830 C   0  0  0  0  0  0  0  0  0  0  0  0
   57.5830   26.1680   46.6570 C   0  0  0  0  0  0  0  0  0  0  0  0
   54.7718   23.2274   44.8654 H   0  0  0  0  0  0  0  0  0  0  0  0
   54.2965   24.9297   44.5441 H   0  0  0  0  0  0  0  0  0  0  0  0
   56.0321   24.4664   44.5441 H   0  0  0  0  0  0  0  0  0  0  0  0
   54.3550   23.3084   47.8254 H   0  0  0  0  0  0  0  0  0  0  0  0
   55.1276   22.5055   46.4135 H   0  0  0  0  0  0  0  0  0  0  0  0
   56.7077   24.2470   48.3557 H   0  0  0  0  0  0  0  0  0  0  0  0
   56.4343   22.4813   48.6335 H   0  0  0  0  0  0  0  0  0  0  0  0
   60.7278   24.9298   46.1380 H   0  0  0  0  0  0  0  0  0  0  0  0
   61.3174   27.2760   46.7341 H   0  0  0  0  0  0  0  0  0  0  0  0
   60.2650   29.7610   46.7880 H   0  0  0  0  0  0  0  0  0  0  0  0
   57.9614   31.7456   48.7439 H   0  0  0  0  0  0  0  0  0  0  0  0
   59.5855   31.6663   49.5704 H   0  0  0  0  0  0  0  0  0  0  0  0
   57.6356   30.5750   46.4736 H   0  0  0  0  0  0  0  0  0  0  0  0
   56.6259   30.8495   44.2121 H   0  0  0  0  0  0  0  0  0  0  0  0
   57.3340   32.7378   42.7429 H   0  0  0  0  0  0  0  0  0  0  0  0
   58.9870   34.4124   43.5733 H   0  0  0  0  0  0  0  0  0  0  0  0
   63.1701   34.7474   46.1205 H   0  0  0  0  0  0  0  0  0  0  0  0
   64.8470   33.3295   47.3062 H   0  0  0  0  0  0  0  0  0  0  0  0
   64.0888   31.4231   48.7259 H   0  0  0  0  0  0  0  0  0  0  0  0
   61.6625   30.8749   48.8971 H   0  0  0  0  0  0  0  0  0  0  0  0
   57.1160   28.2045   47.2280 H   0  0  0  0  0  0  0  0  0  0  0  0
   56.5275   25.8603   46.6222 H   0  0  0  0  0  0  0  0  0  0  0  0
  1  2  1  0
  2  3  1  0
  3  4  1  0
  4  5  1  0
  5  6  1  0
  6  7  2  0
  6  8  1  0
  8  9  2  0
  9 10  1  0
 10 11  2  0
 11 12  1  0
 12 13  1  0
 13 14  2  0
 13 15  1  0
 15 16  1  0
 16 17  1  0
 17 18  2  0
 18 19  1  0
 19 20  2  0
 20 21  1  0
 21 22  2  0
 22 23  1  0
 23 24  1  0
 24 25  2  0
 25 26  1  0
 26 27  2  0
 27 28  1  0
 28 29  2  0
 11 30  1  0
 30 31  2  0
 31  8  1  0
 29 16  1  0
 22 17  1  0
 29 24  1  0
  1 32  1  0
  1 33  1  0
  1 34  1  0
  3 35  1  0
  3 36  1  0
  4 37  1  0
  4 38  1  0
  9 39  1  0
 10 40  1  0
 12 41  1  0
 15 42  1  0
 15 43  1  0
 18 44  1  0
 19 45  1  0
 20 46  1  0
 21 47  1  0
 25 48  1  0
 26 49  1  0
 27 50  1  0
 28 51  1  0
 30 52  1  0
 31 53  1  0
M  CHG  1   5  -1
M  END
>  <UniqueID>  (1) 
1

>  <SMILES>  (1) 
COCC[N-]C(=O)c1ccc(NC(=O)CN2c3ccccc3Sc3ccccc32)cc1

>  <Energy>  (1) 
80.46937182942646

>  <Genealogy>  (1) 
COCC[N-]C(=O)c1ccc(NC(=O)CN2c3ccccc3Sc3ccccc32)cc1 (protonated)
COCC[N-]C(=O)c1ccc(NC(=O)CN2c3ccccc3Sc3ccccc32)cc1 (3D coordinates assigned)
COCC[N-]C(=O)c1ccc(NC(=O)CN2c3ccccc3Sc3ccccc32)cc1 (nonaromatic ring conformer: 80.46937182942646 kcal/mol)

>  <smiles>  (1) 
COCCNC(=O)c1ccc(NC(=O)CN2c3ccccc3Sc3ccccc32)cc1

>  <score_type>  (1) 
oracle

>  <origin>  (1) 
adg

>  <m_score__min__energy>  (1) 
-10.15

>  <m_primary>  (1) 
energy

$$$$
1:0
     RDKit          3D

 30 31  0  0  0  0  0  0  0  0999 V2000
   54.3510   26.7130   45.0480 H   0  0  0  0  0  0  0  0  0  0  0  0
   54.9720   26.2830   45.7230 O   0  0  0  0  0  0  0  0  0  0  0  0
   56.2310   26.8090   46.0140 C   0  0  0  0  0  0  0  0  0  0  0  0
   57.1460   26.0180   46.7130 C   0  0  0  0  0  0  0  0  0  0  0  0
   56.8634   25.0011   47.0230 H   0  0  0  0  0  0  0  0  0  0  0  0
   58.4160   26.5080   47.0210 C   0  0  0  0  0  0  0  0  0  0  0  0
   59.1245   25.8790   47.5799 H   0  0  0  0  0  0  0  0  0  0  0  0
   58.7940   27.8000   46.6210 C   0  0  0  0  0  0  0  0  0  0  0  0
   60.1330   28.3410   46.9600 C   0  0  0  0  0  0  0  0  0  0  0  0
   61.0080   27.5590   47.4190 O   0  0  0  0  0  0  0  0  0  0  0  0
   60.5010   29.7600   46.7710 C   0  0  0  0  0  0  0  0  0  0  0  0
   60.3570   30.2135   45.7792 H   0  0  0  0  0  0  0  0  0  0  0  0
   61.0020   30.5170   47.7550 C   0  0  0  0  0  0  0  0  0  0  0  0
   60.7954   30.2339   48.7977 H   0  0  0  0  0  0  0  0  0  0  0  0
   61.8190   31.7140   47.4950 C   0  0  0  0  0  0  0  0  0  0  0  0
   63.4300   31.9560   47.9290 S   0  0  0  0  0  0  0  0  0  0  0  0
   63.5700   33.5000   47.2780 C   0  0  0  0  0  0  0  0  0  0  0  0
   64.4722   34.1290   47.2979 H   0  0  0  0  0  0  0  0  0  0  0  0
   62.3500   33.8440   46.7110 C   0  0  0  0  0  0  0  0  0  0  0  0
   62.1690   34.8083   46.2136 H   0  0  0  0  0  0  0  0  0  0  0  0
   61.3720   32.8500   46.8310 C   0  0  0  0  0  0  0  0  0  0  0  0
   60.3501   32.9574   46.4384 H   0  0  0  0  0  0  0  0  0  0  0  0
   57.8670   28.6030   45.9340 C   0  0  0  0  0  0  0  0  0  0  0  0
   58.1464   29.6250   45.6384 H   0  0  0  0  0  0  0  0  0  0  0  0
   56.5840   28.1130   45.6200 C   0  0  0  0  0  0  0  0  0  0  0  0
   55.6420   28.8870   44.9240 O   0  0  0  0  0  0  0  0  0  0  0  0
   55.9650   29.8390   43.9150 C   0  0  0  0  0  0  0  0  0  0  0  0
   56.2842   30.7798   44.3872 H   0  0  0  0  0  0  0  0  0  0  0  0
   56.7807   29.4476   43.2893 H   0  0  0  0  0  0  0  0  0  0  0  0
   55.0796   30.0248   43.2893 H   0  0  0  0  0  0  0  0  0  0  0  0
  1  2  1  0
  2  3  1  0
  3  4  2  0
  4  5  1  0
  4  6  1  0
  6  7  1  0
  6  8  2  0
  8  9  1  0
  9 10  2  0
  9 11  1  0
 11 12  1  0
 11 13  2  0
 13 14  1  0
 13 15  1  0
 15 16  1  0
 16 17  1  0
 17 18  1  0
 17 19  2  0
 19 20  1  0
 19 21  1  0
 21 22  1  0
  8 23  1  0
 23 24  1  0
 23 25  2  0
 25 26  1  0
 26 27  1  0
 27 28  1  0
 27 29  1  0
 27 30  1  0
 25  3  1  0
 21 15  2  0
M  END
>  <UniqueID>  (2) 
2

>  <SMILES>  (2) 
COc1cc(C(=O)/C=C/c2cccs2)ccc1O

>  <Energy>  (2) 
59.99104217945556

>  <Genealogy>  (2) 
COc1cc(C(=O)/C=C/c2cccs2)ccc1O (cis-trans isomerization)
COc1cc(C(=O)/C=C/c2cccs2)ccc1O (3D coordinates assigned)
COc1cc(C(=O)/C=C/c2cccs2)ccc1O (optimized conformer: 59.99104217945556 kcal/mol)

>  <smiles>  (2) 
COc1cc(C(=O)C=Cc2cccs2)ccc1O

>  <score_type>  (2) 
oracle

>  <origin>  (2) 
adg

>  <m_score__min__energy>  (2) 
-7.4900000000000002

>  <m_primary>  (2) 
energy

$$$$
2:0
     RDKit          3D

 58 59  0  0  0  0  0  0  0  0999 V2000
   62.7300   33.8510   46.7420 C   0  0  0  0  0  0  0  0  0  0  0  0
   63.8740   33.2800   47.5750 C   0  0  0  0  0  0  0  0  0  0  0  0
   63.4140   32.2180   48.4110 O   0  0  0  0  0  0  0  0  0  0  0  0
   62.1800   31.5520   48.3000 C   0  0  0  0  0  0  0  0  0  0  0  0
   61.8000   30.8650   47.1340 C   0  0  0  0  0  0  0  0  0  0  0  0
   60.5610   30.2150   47.0530 C   0  0  0  0  0  0  0  0  0  0  0  0
   60.1860   29.4800   45.8170 C   0  0  0  0  0  0  0  0  0  0  0  0
   61.0140   28.6900   45.2870 O   0  0  0  0  0  0  0  0  0  0  0  0
   58.8950   29.6520   45.2160 N   0  0  0  0  0  0  0  0  0  0  0  0
   58.3730   28.6930   44.2400 C   0  0  0  0  0  0  0  0  0  0  0  0
   57.1430   29.2530   43.5110 C   0  0  0  0  0  0  0  0  0  0  0  0
   56.1670   29.9360   44.4320 C   0  0  0  0  0  0  0  0  0  0  0  0
   55.1470   29.3280   44.8600 O   0  0  0  0  0  0  0  0  0  0  0  0
   56.4360   31.2740   44.8600 N   0  0  0  0  0  0  0  0  0  0  0  0
   57.4430   32.1290   44.2390 C   0  0  0  0  0  0  0  0  0  0  0  0
   58.1030   32.9980   45.2740 C   0  0  0  0  0  0  0  0  0  0  0  0
   58.9250   34.0640   44.8860 C   0  0  0  0  0  0  0  0  0  0  0  0
   59.5420   34.8580   45.8520 C   0  0  0  0  0  0  0  0  0  0  0  0
   59.3360   34.5730   47.2040 C   0  0  0  0  0  0  0  0  0  0  0  0
   58.5430   33.5310   47.5680 N   0  0  0  0  0  0  0  0  0  0  0  0
   57.9310   32.7430   46.6450 C   0  0  0  0  0  0  0  0  0  0  0  0
   59.7090   30.2390   48.1670 C   0  0  0  0  0  0  0  0  0  0  0  0
   60.0640   30.9300   49.3390 C   0  0  0  0  0  0  0  0  0  0  0  0
   59.2150   30.9390   50.4530 O   0  0  0  0  0  0  0  0  0  0  0  0
   58.2360   31.9350   50.7350 C   0  0  0  0  0  0  0  0  0  0  0  0
   58.8790   33.0620   51.5280 C   0  0  0  0  0  0  0  0  0  0  0  0
   61.3060   31.6070   49.3960 C   0  0  0  0  0  0  0  0  0  0  0  0
   61.7420   32.3400   50.5160 O   0  0  0  0  0  0  0  0  0  0  0  0
   62.8440   32.0380   51.3750 C   0  0  0  0  0  0  0  0  0  0  0  0
   63.1380   30.5390   51.3840 C   0  0  0  0  0  0  0  0  0  0  0  0
   61.9486   34.2410   47.4108 H   0  0  0  0  0  0  0  0  0  0  0  0
   63.1095   34.6654   46.1074 H   0  0  0  0  0  0  0  0  0  0  0  0
   62.3073   33.0582   46.1074 H   0  0  0  0  0  0  0  0  0  0  0  0
   64.6537   32.8959   46.9008 H   0  0  0  0  0  0  0  0  0  0  0  0
   64.2780   34.0800   48.2129 H   0  0  0  0  0  0  0  0  0  0  0  0
   62.4845   30.8372   46.2733 H   0  0  0  0  0  0  0  0  0  0  0  0
   58.3170   30.4860   45.4670 H   0  0  0  0  0  0  0  0  0  0  0  0
   59.1571   28.4708   43.5012 H   0  0  0  0  0  0  0  0  0  0  0  0
   58.0735   27.7802   44.7759 H   0  0  0  0  0  0  0  0  0  0  0  0
   57.4833   29.9813   42.7601 H   0  0  0  0  0  0  0  0  0  0  0  0
   56.6188   28.4012   43.0531 H   0  0  0  0  0  0  0  0  0  0  0  0
   58.2044   31.4996   43.7551 H   0  0  0  0  0  0  0  0  0  0  0  0
   56.9540   32.7719   43.4923 H   0  0  0  0  0  0  0  0  0  0  0  0
   59.0839   34.2749   43.8182 H   0  0  0  0  0  0  0  0  0  0  0  0
   60.1840   35.6996   45.5527 H   0  0  0  0  0  0  0  0  0  0  0  0
   59.8164   35.1930   47.9752 H   0  0  0  0  0  0  0  0  0  0  0  0
   57.2996   31.9037   46.9721 H   0  0  0  0  0  0  0  0  0  0  0  0
   58.7466   29.7081   48.1230 H   0  0  0  0  0  0  0  0  0  0  0  0
   57.8340   32.3326   49.7914 H   0  0  0  0  0  0  0  0  0  0  0  0
   57.4181   31.4917   51.3219 H   0  0  0  0  0  0  0  0  0  0  0  0
   58.7660   32.8640   52.6041 H   0  0  0  0  0  0  0  0  0  0  0  0
   59.9482   33.1235   51.2768 H   0  0  0  0  0  0  0  0  0  0  0  0
   58.3879   34.0137   51.2768 H   0  0  0  0  0  0  0  0  0  0  0  0
   63.7348   32.5769   51.0199 H   0  0  0  0  0  0  0  0  0  0  0  0
   62.5862   32.3501   52.3978 H   0  0  0  0  0  0  0  0  0  0  0  0
   63.2074   30.1852   52.4232 H   0  0  0  0  0  0  0  0  0  0  0  0
   62.3278   30.0033   50.8676 H   0  0  0  0  0  0  0  0  0  0  0  0
   64.0905   30.3491   50.8676 H   0  0  0  0  0  0  0  0  0  0  0  0
  1  2  1  0
  2  3  1  0
  3  4  1  0
  4  5  2  0
  5  6  1  0
  6  7  1  0
  7  8  2  0
  7  9  1  0
  9 10  1  0
 10 11  1  0
 11 12  1  0
 12 13  2  0
 12 14  1  0
 14 15  1  0
 15 16  1  0
 16 17  2  0
 17 18  1  0
 18 19  2  0
 19 20  1  0
 20 21  2  0
  6 22  2  0
 22 23  1  0
 23 24  1  0
 24 25  1  0
 25 26  1  0
 23 27  2  0
 27 28  1  0
 28 29  1  0
 29 30  1  0
 27  4  1  0
 21 16  1  0
  1 31  1  0
  1 32  1  0
  1 33  1  0
  2 34  1  0
  2 35  1  0
  5 36  1  0
  9 37  1  0
 10 38  1  0
 10 39  1  0
 11 40  1  0
 11 41  1  0
 15 42  1  0
 15 43  1  0
 17 44  1  0
 18 45  1  0
 19 46  1  0
 21 47  1  0
 22 48  1  0
 25 49  1  0
 25 50  1  0
 26 51  1  0
 26 52  1  0
 26 53  1  0
 29 54  1  0
 29 55  1  0
 30 56  1  0
 30 57  1  0
 30 58  1  0
M  CHG  1  14  -1
M  END
>  <UniqueID>  (3) 
3

>  <SMILES>  (3) 
CCOc1cc(C(=O)NCCC(=O)[N-]Cc2cccnc2)cc(OCC)c1OCC

>  <Energy>  (3) 
49.48850618609095

>  <Genealogy>  (3) 
CCOc1cc(C(=O)NCCC(=O)[N-]Cc2cccnc2)cc(OCC)c1OCC (protonated)
CCOc1cc(C(=O)NCCC(=O)[N-]Cc2cccnc2)cc(OCC)c1OCC (3D coordinates assigned)
CCOc1cc(C(=O)NCCC(=O)[N-]Cc2cccnc2)cc(OCC)c1OCC (optimized conformer: 49.48850618609095 kcal/mol)

>  <smiles>  (3) 
CCOc1cc(C(=O)NCCC(=O)NCc2cccnc2)cc(OCC)c1OCC

>  <score_type>  (3) 
oracle

>  <origin>  (3) 
adg

>  <m_score__min__energy>  (3) 
-8.4199999999999999

>  <m_primary>  (3) 
energy

$$$$
3:0
     RDKit          3D

 38 41  0  0  0  0  0  0  0  0999 V2000
   54.5680   24.9180   45.6040 C   0  0  0  0  0  0  0  0  0  0  0  0
   55.1720   26.1140   45.9960 O   0  0  0  0  0  0  0  0  0  0  0  0
   56.5230   26.3560   46.1040 C   0  0  0  0  0  0  0  0  0  0  0  0
   57.3880   25.5960   46.8650 C   0  0  0  0  0  0  0  0  0  0  0  0
   58.7470   25.8880   46.9370 C   0  0  0  0  0  0  0  0  0  0  0  0
   59.2190   26.9680   46.2210 C   0  0  0  0  0  0  0  0  0  0  0  0
   58.3700   27.7570   45.4430 C   0  0  0  0  0  0  0  0  0  0  0  0
   58.9800   28.8830   44.7220 C   0  0  0  0  0  0  0  0  0  0  0  0
   58.4760   30.1750   45.0720 N   0  0  0  0  0  0  0  0  0  0  0  0
   57.2640   30.5290   44.5910 C   0  0  0  0  0  0  0  0  0  0  0  0
   56.7030   31.7320   44.8680 N   0  0  0  0  0  0  0  0  0  0  0  0
   57.3540   32.6360   45.6530 C   0  0  0  0  0  0  0  0  0  0  0  0
   56.8290   33.7950   45.9280 N   0  0  0  0  0  0  0  0  0  0  0  0
   58.6010   32.3070   46.1650 C   0  0  0  0  0  0  0  0  0  0  0  0
   59.4960   32.9930   46.9770 C   0  0  0  0  0  0  0  0  0  0  0  0
   59.4760   34.2440   47.5680 C   0  0  0  0  0  0  0  0  0  0  0  0
   60.5340   34.6100   48.3140 N   0  0  0  0  0  0  0  0  0  0  0  0
   61.5950   33.8060   48.4970 C   0  0  0  0  0  0  0  0  0  0  0  0
   61.6320   32.5550   47.9150 C   0  0  0  0  0  0  0  0  0  0  0  0
   60.5630   32.1350   47.1380 C   0  0  0  0  0  0  0  0  0  0  0  0
   60.3150   30.9950   46.4560 N   0  0  0  0  0  0  0  0  0  0  0  0
   59.1170   31.0670   45.8470 C   0  0  0  0  0  0  0  0  0  0  0  0
   57.0300   27.4340   45.3980 C   0  0  0  0  0  0  0  0  0  0  0  0
   54.2781   24.3439   46.4964 H   0  0  0  0  0  0  0  0  0  0  0  0
   53.6733   25.1387   45.0034 H   0  0  0  0  0  0  0  0  0  0  0  0
   55.2767   24.3290   45.0034 H   0  0  0  0  0  0  0  0  0  0  0  0
   56.9934   24.7379   47.4288 H   0  0  0  0  0  0  0  0  0  0  0  0
   59.4255   25.2745   47.5479 H   0  0  0  0  0  0  0  0  0  0  0  0
   60.2904   27.2136   46.2640 H   0  0  0  0  0  0  0  0  0  0  0  0
   60.0608   28.8725   44.9264 H   0  0  0  0  0  0  0  0  0  0  0  0
   58.7321   28.7360   43.6604 H   0  0  0  0  0  0  0  0  0  0  0  0
   56.7152   29.8191   43.9548 H   0  0  0  0  0  0  0  0  0  0  0  0
   56.2760   33.8760   46.8110 H   0  0  0  0  0  0  0  0  0  0  0  0
   58.6192   34.9202   47.4317 H   0  0  0  0  0  0  0  0  0  0  0  0
   62.4392   34.1469   49.1144 H   0  0  0  0  0  0  0  0  0  0  0  0
   62.5009   31.8976   48.0661 H   0  0  0  0  0  0  0  0  0  0  0  0
   60.9800   30.1930   46.4290 H   0  0  0  0  0  0  0  0  0  0  0  0
   56.3492   28.0459   44.7881 H   0  0  0  0  0  0  0  0  0  0  0  0
  1  2  1  0
  2  3  1  0
  3  4  2  0
  4  5  1  0
  5  6  2  0
  6  7  1  0
  7  8  1  0
  8  9  1  0
  9 10  1  0
 10 11  2  0
 11 12  1  0
 12 13  2  3
 12 14  1  0
 14 15  1  0
 15 16  2  0
 16 17  1  0
 17 18  2  0
 18 19  1  0
 19 20  2  0
 20 21  1  0
 21 22  1  0
  7 23  2  0
 23  3  1  0
 22  9  1  0
 22 14  2  0
 20 15  1  0
  1 24  1  0
  1 25  1  0
  1 26  1  0
  4 27  1  0
  5 28  1  0
  6 29  1  0
  8 30  1  0
  8 31  1  0
 10 32  1  0
 13 33  1  0
 16 34  1  0
 18 35  1  0
 19 36  1  0
 21 37  1  0
 23 38  1  0
M  END
>  <smiles>  (4) 
COc1cccc(Cn2cnc(=N)c3c4cnccc4[nH]c32)c1

>  <score_type>  (4) 
oracle

>  <origin>  (4) 
adg

>  <m_score__min__energy>  (4) 
-7.4500000000000002

>  <m_primary>  (4) 
energy

$$$$
4:0
     RDKit          3D

 58 62  0  0  0  0  0  0  0  0999 V2000
   56.0553   29.0798   42.1340 H   0  0  0  0  0  0  0  0  0  0  0  0
   56.6670   29.3450   43.0090 C   0  0  0  0  0  0  0  0  0  0  0  0
   56.4920   30.5460   43.6140 N   0  0  0  0  0  0  0  0  0  0  0  0
   57.2180   30.9310   44.7000 C   0  0  0  0  0  0  0  0  0  0  0  0
   57.0120   32.0970   45.2440 N   0  0  0  0  0  0  0  0  0  0  0  0
   57.8140   33.2950   44.9950 C   0  0  0  0  0  0  0  0  0  0  0  0
   58.3656   33.1719   44.0513 H   0  0  0  0  0  0  0  0  0  0  0  0
   57.1441   34.1652   44.9314 H   0  0  0  0  0  0  0  0  0  0  0  0
   58.7940   33.5150   46.1170 C   0  0  0  0  0  0  0  0  0  0  0  0
   58.3500   33.7690   47.4220 C   0  0  0  0  0  0  0  0  0  0  0  0
   57.2724   33.7965   47.6412 H   0  0  0  0  0  0  0  0  0  0  0  0
   59.2760   33.9870   48.4430 C   0  0  0  0  0  0  0  0  0  0  0  0
   58.9341   34.1838   49.4698 H   0  0  0  0  0  0  0  0  0  0  0  0
   60.6410   33.9530   48.1490 C   0  0  0  0  0  0  0  0  0  0  0  0
   61.3791   34.1236   48.9465 H   0  0  0  0  0  0  0  0  0  0  0  0
   61.0590   33.7090   46.8770 N   0  0  0  0  0  0  0  0  0  0  0  0
   62.0840   33.6890   46.6720 H   0  0  0  0  0  0  0  0  0  0  0  0
   60.1740   33.4930   45.8660 C   0  0  0  0  0  0  0  0  0  0  0  0
   60.5424   33.3003   44.8476 H   0  0  0  0  0  0  0  0  0  0  0  0
   58.1940   30.0570   45.2290 C   0  0  0  0  0  0  0  0  0  0  0  0
   58.9730   30.4120   46.3500 C   0  0  0  0  0  0  0  0  0  0  0  0
   58.8204   31.3904   46.8289 H   0  0  0  0  0  0  0  0  0  0  0  0
   59.9410   29.5330   46.8630 C   0  0  0  0  0  0  0  0  0  0  0  0
   60.7550   29.9170   48.0450 C   0  0  0  0  0  0  0  0  0  0  0  0
   60.5180   29.3210   49.2970 C   0  0  0  0  0  0  0  0  0  0  0  0
   59.7232   28.5680   49.4027 H   0  0  0  0  0  0  0  0  0  0  0  0
   61.2860   29.6800   50.4060 C   0  0  0  0  0  0  0  0  0  0  0  0
   61.0979   29.2039   51.3796 H   0  0  0  0  0  0  0  0  0  0  0  0
   62.2910   30.6400   50.2850 C   0  0  0  0  0  0  0  0  0  0  0  0
   62.8968   30.9116   51.1621 H   0  0  0  0  0  0  0  0  0  0  0  0
   62.5330   31.2610   49.0500 C   0  0  0  0  0  0  0  0  0  0  0  0
   63.6030   32.2750   48.9120 C   0  0  0  0  0  0  0  0  0  0  0  0
   63.7650   32.8440   47.7970 O   0  0  0  0  0  0  0  0  0  0  0  0
   64.4650   32.6220   50.0140 N   0  0  0  0  0  0  0  0  0  0  0  0
   63.9540   32.6500   51.3930 C   0  0  0  0  0  0  0  0  0  0  0  0
   62.8544   32.6713   51.3739 H   0  0  0  0  0  0  0  0  0  0  0  0
   64.2999   31.7516   51.9252 H   0  0  0  0  0  0  0  0  0  0  0  0
   64.4730   33.8950   52.1170 C   0  0  0  0  0  0  0  0  0  0  0  0
   64.0541   34.7870   51.6284 H   0  0  0  0  0  0  0  0  0  0  0  0
   64.1594   33.8238   53.1689 H   0  0  0  0  0  0  0  0  0  0  0  0
   66.0130   33.9960   52.0940 C   0  0  0  0  0  0  0  0  0  0  0  0
   66.2891   35.0447   51.9096 H   0  0  0  0  0  0  0  0  0  0  0  0
   66.3726   33.6309   53.0674 H   0  0  0  0  0  0  0  0  0  0  0  0
   66.6770   33.1220   51.0140 C   0  0  0  0  0  0  0  0  0  0  0  0
   67.6646   33.5429   50.7739 H   0  0  0  0  0  0  0  0  0  0  0  0
   66.7665   32.1000   51.4109 H   0  0  0  0  0  0  0  0  0  0  0  0
   65.8400   33.0610   49.7320 C   0  0  0  0  0  0  0  0  0  0  0  0
   65.8106   34.0611   49.2750 H   0  0  0  0  0  0  0  0  0  0  0  0
   66.3037   32.3350   49.0479 H   0  0  0  0  0  0  0  0  0  0  0  0
   61.7720   30.8830   47.9310 C   0  0  0  0  0  0  0  0  0  0  0  0
   61.9735   31.3475   46.9545 H   0  0  0  0  0  0  0  0  0  0  0  0
   60.1290   28.2890   46.2430 C   0  0  0  0  0  0  0  0  0  0  0  0
   60.8853   27.5941   46.6367 H   0  0  0  0  0  0  0  0  0  0  0  0
   59.3680   27.9230   45.1330 C   0  0  0  0  0  0  0  0  0  0  0  0
   59.5297   26.9426   44.6612 H   0  0  0  0  0  0  0  0  0  0  0  0
   58.3960   28.7950   44.6110 C   0  0  0  0  0  0  0  0  0  0  0  0
   57.6180   28.4430   43.4890 C   0  0  0  0  0  0  0  0  0  0  0  0
   57.7940   26.9020   42.6540 Cl  0  0  0  0  0  0  0  0  0  0  0  0
  1  2  1  0
  2  3  1  0
  3  4  1  0
  4  5  2  0
  5  6  1  0
  6  7  1  0
  6  8  1  0
  6  9  1  0
  9 10  2  0
 10 11  1  0
 10 12  1  0
 12 13  1  0
 12 14  2  0
 14 15  1  0
 14 16  1  0
 16 17  1  0
 16 18  2  0
 18 19  1  0
  4 20  1  0
 20 21  2  0
 21 22  1  0
 21 23  1  0
 23 24  1  0
 24 25  2  0
 25 26  1  0
 25 27  1  0
 27 28  1  0
 27 29  2  0
 29 30  1  0
 29 31  1  0
 31 32  1  0
 32 33  2  0
 32 34  1  0
 34 35  1  0
 35 36  1  0
 35 37  1  0
 35 38  1  0
 38 39  1  0
 38 40  1  0
 38 41  1  0
 41 42  1  0
 41 43  1  0
 41 44  1  0
 44 45  1  0
 44 46  1  0
 44 47  1  0
 47 48  1  0
 47 49  1  0
 31 50  2  0
 50 51  1  0
 23 52  2  0
 52 53  1  0
 52 54  1  0
 54 55  1  0
 54 56  2  0
 56 57  1  0
 57 58  1  0
 57  2  2  0
 18  9  1  0
 56 20  1  0
 50 24  1  0
 47 34  1  0
M  CHG  2   3  -1  16   1
M  END
>  <UniqueID>  (5) 
4

>  <SMILES>  (5) 
O=C(c1cccc(-c2ccc3c(Cl)c[n-]/c(=N\Cc4ccc[nH+]c4)c3c2)c1)N1CCCCC1

>  <Energy>  (5) 
80.2887835262701

>  <Genealogy>  (5) 
O=C(c1cccc(-c2ccc3c(Cl)c[n-]c(=NCc4ccc[nH+]c4)c3c2)c1)N1CCCCC1 (protonated)
O=C(c1cccc(-c2ccc3c(Cl)c[n-]/c(=N\Cc4ccc[nH+]c4)c3c2)c1)N1CCCCC1 (cis-trans isomerization)
O=C(c1cccc(-c2ccc3c(Cl)c[n-]/c(=N\Cc4ccc[nH+]c4)c3c2)c1)N1CCCCC1 (3D coordinates assigned)
O=C(c1cccc(-c2ccc3c(Cl)c[n-]/c(=N\Cc4ccc[nH+]c4)c3c2)c1)N1CCCCC1 (nonaromatic ring conformer: 80.2887835262701 kcal/mol)

>  <smiles>  (5) 
O=C(c1cccc(-c2ccc3c(Cl)c[nH]c(=NCc4cccnc4)c3c2)c1)N1CCCCC1

>  <score_type>  (5) 
oracle

>  <origin>  (5) 
adg

>  <m_score__min__energy>  (5) 
-9.9100000000000001

>  <m_primary>  (5) 
energy

$$$$
5:0
     RDKit          3D

 46 48  0  0  0  0  0  0  0  0999 V2000
   55.5100   25.2410   47.6400 H   0  0  0  0  0  0  0  0  0  0  0  0
   55.9690   25.4700   46.7300 N   0  0  0  0  0  0  0  0  0  0  0  0
   56.5040   26.6270   46.5150 C   0  0  0  0  0  0  0  0  0  0  0  0
   57.6130   26.9960   47.2030 N   0  0  0  0  0  0  0  0  0  0  0  0
   58.1830   28.2080   46.9800 C   0  0  0  0  0  0  0  0  0  0  0  0
   59.4170   28.6150   47.7350 C   0  0  0  0  0  0  0  0  0  0  0  0
   59.3437   28.2380   48.7658 H   0  0  0  0  0  0  0  0  0  0  0  0
   60.2891   28.1886   47.2177 H   0  0  0  0  0  0  0  0  0  0  0  0
   59.5810   30.0890   47.7740 N   0  0  0  0  0  0  0  0  0  0  0  0
   58.6510   30.5240   47.5600 H   0  0  0  0  0  0  0  0  0  0  0  0
   60.5510   30.5670   46.7450 C   0  0  0  0  0  0  0  0  0  0  0  0
   60.6704   29.7842   45.9815 H   0  0  0  0  0  0  0  0  0  0  0  0
   60.1499   31.4950   46.3116 H   0  0  0  0  0  0  0  0  0  0  0  0
   61.9290   30.8870   47.3430 C   0  0  0  0  0  0  0  0  0  0  0  0
   62.3351   29.9801   47.8148 H   0  0  0  0  0  0  0  0  0  0  0  0
   62.5894   31.2311   46.5334 H   0  0  0  0  0  0  0  0  0  0  0  0
   61.8340   31.9600   48.3600 N   0  0  0  0  0  0  0  0  0  0  0  0
   63.0250   31.9490   49.2240 C   0  0  0  0  0  0  0  0  0  0  0  0
   62.7128   31.9519   50.2788 H   0  0  0  0  0  0  0  0  0  0  0  0
   63.6180   31.0453   49.0196 H   0  0  0  0  0  0  0  0  0  0  0  0
   63.6346   32.8416   49.0196 H   0  0  0  0  0  0  0  0  0  0  0  0
   60.5840   31.9100   49.1580 C   0  0  0  0  0  0  0  0  0  0  0  0
   60.8164   32.1871   50.1969 H   0  0  0  0  0  0  0  0  0  0  0  0
   59.8679   32.6115   48.7052 H   0  0  0  0  0  0  0  0  0  0  0  0
   59.9420   30.5140   49.1510 C   0  0  0  0  0  0  0  0  0  0  0  0
   60.6548   29.7904   49.5734 H   0  0  0  0  0  0  0  0  0  0  0  0
   59.0221   30.5535   49.7529 H   0  0  0  0  0  0  0  0  0  0  0  0
   57.6380   29.0490   46.0640 N   0  0  0  0  0  0  0  0  0  0  0  0
   56.5210   28.6900   45.3770 C   0  0  0  0  0  0  0  0  0  0  0  0
   56.0010   29.4710   44.4760 N   0  0  0  0  0  0  0  0  0  0  0  0
   56.6460   30.5740   43.8140 C   0  0  0  0  0  0  0  0  0  0  0  0
   56.6730   30.6900   42.4110 C   0  0  0  0  0  0  0  0  0  0  0  0
   56.1702   29.9353   41.7885 H   0  0  0  0  0  0  0  0  0  0  0  0
   57.3360   31.7600   41.8080 C   0  0  0  0  0  0  0  0  0  0  0  0
   57.3409   31.8543   40.7121 H   0  0  0  0  0  0  0  0  0  0  0  0
   57.9930   32.7110   42.5910 C   0  0  0  0  0  0  0  0  0  0  0  0
   58.5045   33.5569   42.1086 H   0  0  0  0  0  0  0  0  0  0  0  0
   58.0050   32.5950   43.9860 C   0  0  0  0  0  0  0  0  0  0  0  0
   58.6910   33.5670   44.7290 O   0  0  0  0  0  0  0  0  0  0  0  0
   58.2580   34.0700   45.9890 C   0  0  0  0  0  0  0  0  0  0  0  0
   58.7451   33.5041   46.7967 H   0  0  0  0  0  0  0  0  0  0  0  0
   58.5279   35.1332   46.0717 H   0  0  0  0  0  0  0  0  0  0  0  0
   57.1665   33.9613   46.0717 H   0  0  0  0  0  0  0  0  0  0  0  0
   57.3360   31.5130   44.5920 C   0  0  0  0  0  0  0  0  0  0  0  0
   57.3556   31.4045   45.6865 H   0  0  0  0  0  0  0  0  0  0  0  0
   55.9630   27.4730   45.5990 N   0  0  0  0  0  0  0  0  0  0  0  0
  1  2  1  0
  2  3  2  0
  3  4  1  0
  4  5  2  0
  5  6  1  0
  6  7  1  0
  6  8  1  0
  6  9  1  0
  9 10  1  0
  9 11  1  0
 11 12  1  0
 11 13  1  0
 11 14  1  0
 14 15  1  0
 14 16  1  0
 14 17  1  0
 17 18  1  0
 18 19  1  0
 18 20  1  0
 18 21  1  0
 17 22  1  0
 22 23  1  0
 22 24  1  0
 22 25  1  0
 25 26  1  0
 25 27  1  0
  5 28  1  0
 28 29  1  0
 29 30  2  0
 30 31  1  0
 31 32  2  0
 32 33  1  0
 32 34  1  0
 34 35  1  0
 34 36  2  0
 36 37  1  0
 36 38  1  0
 38 39  1  0
 39 40  1  0
 40 41  1  0
 40 42  1  0
 40 43  1  0
 38 44  2  0
 44 45  1  0
 29 46  1  0
 46  3  1  0
 25  9  1  0
 44 31  1  0
M  CHG  3   9   1  28  -1  46  -1
M  END
>  <UniqueID>  (6) 
5

>  <SMILES>  (6) 
[H]/N=c1/nc(C[NH+]2CCN(C)CC2)[n-]/c(=N\c2cccc(OC)c2)[n-]1

>  <Energy>  (6) 
65.2050810928756

>  <Genealogy>  (6) 
COc1cccc(N=c2[n-]c(C[NH+]3CCN(C)CC3)nc(=N)[n-]2)c1 (protonated)
[H]/N=c1/nc(C[NH+]2CCN(C)CC2)[n-]/c(=N\c2cccc(OC)c2)[n-]1 (cis-trans isomerization)
[H]/N=c1/nc(C[NH+]2CCN(C)CC2)[n-]/c(=N\c2cccc(OC)c2)[n-]1 (3D coordinates assigned)
[H]/N=c1/nc(C[NH+]2CCN(C)CC2)[n-]/c(=N\c2cccc(OC)c2)[n-]1 (nonaromatic ring conformer: 65.2050810928756 kcal/mol)

>  <smiles>  (6) 
COc1cccc(N=c2[nH]c(CN3CCN(C)CC3)nc(=N)[nH]2)c1

>  <score_type>  (6) 
oracle

>  <origin>  (6) 
adg

>  <m_score__min__energy>  (6) 
-8.5199999999999996

>  <m_primary>  (6) 
energy

$$$$
6:0
     RDKit          3D

 33 35  0  0  0  0  0  0  0  0999 V2000
   55.1410   29.4260   44.0240 N   0  0  0  0  0  0  0  0  0  0  0  0
   56.6030   29.3840   44.0600 C   0  0  0  0  0  0  0  0  0  0  0  0
   57.1760   30.4250   44.9910 C   0  0  0  0  0  0  0  0  0  0  0  0
   56.7070   31.5950   44.9730 O   0  0  0  0  0  0  0  0  0  0  0  0
   58.3070   30.1160   45.8270 N   0  0  0  0  0  0  0  0  0  0  0  0
   59.2330   31.0070   46.2620 C   0  0  0  0  0  0  0  0  0  0  0  0
   60.1650   30.3820   47.0840 C   0  0  0  0  0  0  0  0  0  0  0  0
   61.3070   31.0400   47.7560 C   0  0  0  0  0  0  0  0  0  0  0  0
   62.0180   32.0570   47.0970 C   0  0  0  0  0  0  0  0  0  0  0  0
   63.0920   32.6930   47.7290 C   0  0  0  0  0  0  0  0  0  0  0  0
   63.4570   32.3260   49.0280 C   0  0  0  0  0  0  0  0  0  0  0  0
   64.8020   33.1250   49.8210 Cl  0  0  0  0  0  0  0  0  0  0  0  0
   62.7440   31.3280   49.6980 C   0  0  0  0  0  0  0  0  0  0  0  0
   61.6710   30.6890   49.0680 C   0  0  0  0  0  0  0  0  0  0  0  0
   59.7890   29.0500   47.1310 C   0  0  0  0  0  0  0  0  0  0  0  0
   60.3940   27.9460   47.7350 C   0  0  0  0  0  0  0  0  0  0  0  0
   59.7960   26.6860   47.5640 C   0  0  0  0  0  0  0  0  0  0  0  0
   58.6290   26.5500   46.7830 C   0  0  0  0  0  0  0  0  0  0  0  0
   57.9080   24.9670   46.5630 Cl  0  0  0  0  0  0  0  0  0  0  0  0
   58.0520   27.6740   46.1630 C   0  0  0  0  0  0  0  0  0  0  0  0
   58.6550   28.9220   46.3600 C   0  0  0  0  0  0  0  0  0  0  0  0
   54.7650   28.5770   44.5040 H   0  0  0  0  0  0  0  0  0  0  0  0
   54.8100   30.2690   44.5480 H   0  0  0  0  0  0  0  0  0  0  0  0
   56.9213   28.3881   44.4018 H   0  0  0  0  0  0  0  0  0  0  0  0
   56.9740   29.5941   43.0460 H   0  0  0  0  0  0  0  0  0  0  0  0
   59.2451   32.0755   46.0009 H   0  0  0  0  0  0  0  0  0  0  0  0
   61.7286   32.3548   46.0784 H   0  0  0  0  0  0  0  0  0  0  0  0
   63.6497   33.4823   47.2037 H   0  0  0  0  0  0  0  0  0  0  0  0
   63.0271   31.0446   50.7225 H   0  0  0  0  0  0  0  0  0  0  0  0
   61.1092   29.9081   49.6015 H   0  0  0  0  0  0  0  0  0  0  0  0
   61.3133   28.0595   48.3283 H   0  0  0  0  0  0  0  0  0  0  0  0
   60.2404   25.8005   48.0419 H   0  0  0  0  0  0  0  0  0  0  0  0
   57.1509   27.5745   45.5400 H   0  0  0  0  0  0  0  0  0  0  0  0
  1  2  1  0
  2  3  1  0
  3  4  2  0
  3  5  1  0
  5  6  1  0
  6  7  2  0
  7  8  1  0
  8  9  2  0
  9 10  1  0
 10 11  2  0
 11 12  1  0
 11 13  1  0
 13 14  2  0
  7 15  1  0
 15 16  2  0
 16 17  1  0
 17 18  2  0
 18 19  1  0
 18 20  1  0
 20 21  2  0
 21  5  1  0
 14  8  1  0
 21 15  1  0
  1 22  1  0
  1 23  1  0
  2 24  1  0
  2 25  1  0
  6 26  1  0
  9 27  1  0
 10 28  1  0
 13 29  1  0
 14 30  1  0
 16 31  1  0
 17 32  1  0
 20 33  1  0
M  END
>  <UniqueID>  (7) 
6

>  <SMILES>  (7) 
NCC(=O)n1cc(-c2ccc(Cl)cc2)c2ccc(Cl)cc21

>  <Energy>  (7) 
75.79870915082685

>  <Genealogy>  (7) 
NCC(=O)n1cc(-c2ccc(Cl)cc2)c2ccc(Cl)cc21 (3D coordinates assigned)
NCC(=O)n1cc(-c2ccc(Cl)cc2)c2ccc(Cl)cc21 (optimized conformer: 75.79870915082685 kcal/mol)

>  <smiles>  (7) 
NCC(=O)n1cc(-c2ccc(Cl)cc2)c2ccc(Cl)cc21

>  <score_type>  (7) 
oracle

>  <origin>  (7) 
adg

>  <m_score__min__energy>  (7) 
-7.8099999999999996

>  <m_primary>  (7) 
energy

$$$$
7:0
     RDKit          3D

 28 30  0  0  0  0  0  0  0  0999 V2000
   57.4400   32.4760   40.7440 N   0  0  0  0  0  0  0  0  0  0  0  0
   57.6410   32.3350   41.8750 C   0  0  0  0  0  0  0  0  0  0  0  0
   57.8920   32.1590   43.2810 C   0  0  0  0  0  0  0  0  0  0  0  0
   57.9390   33.2720   44.1280 C   0  0  0  0  0  0  0  0  0  0  0  0
   58.1680   33.1010   45.4940 C   0  0  0  0  0  0  0  0  0  0  0  0
   58.3580   31.8210   46.0200 C   0  0  0  0  0  0  0  0  0  0  0  0
   58.3280   30.6910   45.1810 C   0  0  0  0  0  0  0  0  0  0  0  0
   58.5260   29.3370   45.7600 C   0  0  0  0  0  0  0  0  0  0  0  0
   59.7270   28.9700   46.3920 C   0  0  0  0  0  0  0  0  0  0  0  0
   59.8590   27.6870   46.9240 C   0  0  0  0  0  0  0  0  0  0  0  0
   58.8030   26.7800   46.8340 C   0  0  0  0  0  0  0  0  0  0  0  0
   57.6100   27.1730   46.2090 C   0  0  0  0  0  0  0  0  0  0  0  0
   56.4550   26.2600   46.0890 C   0  0  0  0  0  0  0  0  0  0  0  0
   56.4770   24.8780   46.0560 C   0  0  0  0  0  0  0  0  0  0  0  0
   55.1520   24.5230   45.9370 C   0  0  0  0  0  0  0  0  0  0  0  0
   54.3900   25.6320   45.9020 N   0  0  0  0  0  0  0  0  0  0  0  0
   55.1810   26.6900   45.9960 N   0  0  0  0  0  0  0  0  0  0  0  0
   57.5100   28.4310   45.6970 N   0  0  0  0  0  0  0  0  0  0  0  0
   58.0830   30.8730   43.8050 C   0  0  0  0  0  0  0  0  0  0  0  0
   57.7954   34.2821   43.7169 H   0  0  0  0  0  0  0  0  0  0  0  0
   58.1990   33.9770   46.1586 H   0  0  0  0  0  0  0  0  0  0  0  0
   58.5325   31.6949   47.0987 H   0  0  0  0  0  0  0  0  0  0  0  0
   60.5563   29.6889   46.4665 H   0  0  0  0  0  0  0  0  0  0  0  0
   60.7974   27.3902   47.4152 H   0  0  0  0  0  0  0  0  0  0  0  0
   58.9047   25.7664   47.2491 H   0  0  0  0  0  0  0  0  0  0  0  0
   57.3524   24.2142   46.1120 H   0  0  0  0  0  0  0  0  0  0  0  0
   54.7742   23.4915   45.8794 H   0  0  0  0  0  0  0  0  0  0  0  0
   58.0414   29.9996   43.1375 H   0  0  0  0  0  0  0  0  0  0  0  0
  1  2  3  0
  2  3  1  0
  3  4  2  0
  4  5  1  0
  5  6  2  0
  6  7  1  0
  7  8  1  0
  8  9  2  0
  9 10  1  0
 10 11  2  0
 11 12  1  0
 12 13  1  0
 13 14  1  0
 14 15  2  0
 15 16  1  0
 16 17  1  0
 12 18  2  0
  7 19  2  0
 19  3  1  0
 18  8  1  0
 17 13  2  0
  4 20  1  0
  5 21  1  0
  6 22  1  0
  9 23  1  0
 10 24  1  0
 11 25  1  0
 14 26  1  0
 15 27  1  0
 19 28  1  0
M  CHG  1  16  -1
M  END
>  <UniqueID>  (8) 
7

>  <SMILES>  (8) 
N#Cc1cccc(-c2cccc(-c3cc[n-]n3)n2)c1

>  <Energy>  (8) 
64.19396558274413

>  <Genealogy>  (8) 
N#Cc1cccc(-c2cccc(-c3cc[n-]n3)n2)c1 (protonated)
N#Cc1cccc(-c2cccc(-c3cc[n-]n3)n2)c1 (3D coordinates assigned)
N#Cc1cccc(-c2cccc(-c3cc[n-]n3)n2)c1 (optimized conformer: 64.19396558274413 kcal/mol)

>  <smiles>  (8) 
N#Cc1cccc(-c2cccc(-c3cc[nH]n3)n2)c1

>  <score_type>  (8) 
oracle

>  <origin>  (8) 
adg

>  <m_score__min__energy>  (8) 
-9.9600000000000009

>  <m_primary>  (8) 
energy

$$$$
8:0
     RDKit          3D

 36 37  0  0  0  0  0  0  0  0999 V2000
   55.1870   29.2010   44.8620 N   0  0  0  0  0  0  0  0  0  0  0  0
   56.3670   30.0040   44.8750 C   0  0  0  0  0  0  0  0  0  0  0  0
   56.2980   31.1940   44.4660 O   0  0  0  0  0  0  0  0  0  0  0  0
   57.6680   29.4800   45.4670 C   0  0  0  0  0  0  0  0  0  0  0  0
   58.0110   30.2670   46.6760 N   0  0  0  0  0  0  0  0  0  0  0  0
   58.5920   31.5930   46.7090 C   0  0  0  0  0  0  0  0  0  0  0  0
   57.8120   32.7650   46.7480 C   0  0  0  0  0  0  0  0  0  0  0  0
   58.4200   34.0200   46.7970 C   0  0  0  0  0  0  0  0  0  0  0  0
   59.8100   34.1330   46.8060 C   0  0  0  0  0  0  0  0  0  0  0  0
   60.3650   35.3720   46.8360 F   0  0  0  0  0  0  0  0  0  0  0  0
   60.6150   32.9790   46.7610 C   0  0  0  0  0  0  0  0  0  0  0  0
   62.0940   33.0890   46.7770 C   0  0  0  0  0  0  0  0  0  0  0  0
   62.9150   31.9960   47.2010 N   0  0  0  0  0  0  0  0  0  0  0  0
   62.6500   34.1580   46.4080 O   0  0  0  0  0  0  0  0  0  0  0  0
   59.9940   31.7180   46.7210 C   0  0  0  0  0  0  0  0  0  0  0  0
   58.8540   29.5570   44.4440 C   0  0  0  0  0  0  0  0  0  0  0  0
   59.8080   28.3610   44.5780 C   0  0  0  0  0  0  0  0  0  0  0  0
   59.1350   27.0780   44.3040 N   0  0  0  0  0  0  0  0  0  0  0  0
   57.7200   27.0290   44.7240 C   0  0  0  0  0  0  0  0  0  0  0  0
   57.4220   27.9930   45.8810 C   0  0  0  0  0  0  0  0  0  0  0  0
   54.4290   29.3490   45.5650 H   0  0  0  0  0  0  0  0  0  0  0  0
   57.8010   29.8420   47.6080 H   0  0  0  0  0  0  0  0  0  0  0  0
   56.7146   32.6904   46.7398 H   0  0  0  0  0  0  0  0  0  0  0  0
   57.7983   34.9269   46.8288 H   0  0  0  0  0  0  0  0  0  0  0  0
   62.5150   31.0490   47.3790 H   0  0  0  0  0  0  0  0  0  0  0  0
   63.9500   32.1130   47.2580 H   0  0  0  0  0  0  0  0  0  0  0  0
   60.6162   30.8112   46.6986 H   0  0  0  0  0  0  0  0  0  0  0  0
   58.4427   29.5706   43.4239 H   0  0  0  0  0  0  0  0  0  0  0  0
   59.4256   30.4728   44.6549 H   0  0  0  0  0  0  0  0  0  0  0  0
   60.6356   28.4864   43.8643 H   0  0  0  0  0  0  0  0  0  0  0  0
   60.1739   28.3356   45.6150 H   0  0  0  0  0  0  0  0  0  0  0  0
   59.1750   26.8950   43.2740 H   0  0  0  0  0  0  0  0  0  0  0  0
   57.0868   27.2995   43.8662 H   0  0  0  0  0  0  0  0  0  0  0  0
   57.5079   26.0078   45.0737 H   0  0  0  0  0  0  0  0  0  0  0  0
   56.3706   27.8753   46.1822 H   0  0  0  0  0  0  0  0  0  0  0  0
   58.0981   27.7509   46.7142 H   0  0  0  0  0  0  0  0  0  0  0  0
  1  2  1  0
  2  3  2  0
  2  4  1  0
  4  5  1  0
  5  6  1  0
  6  7  2  0
  7  8  1  0
  8  9  2  0
  9 10  1  0
  9 11  1  0
 11 12  1  0
 12 13  1  0
 12 14  2  0
 11 15  2  0
  4 16  1  0
 16 17  1  0
 17 18  1  0
 18 19  1  0
 19 20  1  0
 20  4  1  0
 15  6  1  0
  1 21  1  0
  5 22  1  0
  7 23  1  0
  8 24  1  0
 13 25  1  0
 13 26  1  0
 15 27  1  0
 16 28  1  0
 16 29  1  0
 17 30  1  0
 17 31  1  0
 18 32  1  0
 19 33  1  0
 19 34  1  0
 20 35  1  0
 20 36  1  0
M  CHG  1   1  -1
M  END
>  <UniqueID>  (9) 
8

>  <SMILES>  (9) 
[NH-]C(=O)C1(Nc2ccc(F)c(C(N)=O)c2)CCNCC1

>  <Energy>  (9) 
50.80170049514713

>  <Genealogy>  (9) 
[NH-]C(=O)C1(Nc2ccc(F)c(C(N)=O)c2)CCNCC1 (protonated)
[NH-]C(=O)C1(Nc2ccc(F)c(C(N)=O)c2)CCNCC1 (3D coordinates assigned)
[NH-]C(=O)C1(Nc2ccc(F)c(C(N)=O)c2)CCNCC1 (nonaromatic ring conformer: 50.80170049514713 kcal/mol)

>  <smiles>  (9) 
NC(=O)c1cc(NC2(C(N)=O)CCNCC2)ccc1F

>  <score_type>  (9) 
oracle

>  <origin>  (9) 
adg

>  <m_score__min__energy>  (9) 
-10.300000000000001

>  <m_primary>  (9) 
energy

$$$$
9:0
     RDKit          3D

 51 54  0  0  0  0  0  0  0  0999 V2000
   58.7300   26.4730   48.2390 O   0  0  0  0  0  0  0  0  0  0  0  0
   60.1130   27.0630   48.2700 S   0  0  0  0  0  0  0  0  0  0  0  0
   60.9020   26.3780   49.3510 O   0  0  0  0  0  0  0  0  0  0  0  0
   60.9030   26.7980   46.6940 C   0  0  0  0  0  0  0  0  0  0  0  0
   60.1800   27.5430   45.6100 C   0  0  0  0  0  0  0  0  0  0  0  0
   60.6760   28.6610   45.0430 N   0  0  0  0  0  0  0  0  0  0  0  0
   59.7530   29.0890   44.1970 N   0  0  0  0  0  0  0  0  0  0  0  0
   58.7000   28.2550   44.2630 C   0  0  0  0  0  0  0  0  0  0  0  0
   57.5320   28.3290   43.3210 C   0  0  0  0  0  0  0  0  0  0  0  0
   56.4280   29.6490   43.7960 S   0  0  0  0  0  0  0  0  0  0  0  0
   55.4990   29.1600   44.8710 O   0  0  0  0  0  0  0  0  0  0  0  0
   55.6060   30.0730   42.6110 O   0  0  0  0  0  0  0  0  0  0  0  0
   57.3540   31.0190   44.4030 C   0  0  0  0  0  0  0  0  0  0  0  0
   57.7860   31.0460   45.7370 C   0  0  0  0  0  0  0  0  0  0  0  0
   58.4760   32.1570   46.2310 C   0  0  0  0  0  0  0  0  0  0  0  0
   58.7340   33.2490   45.3950 C   0  0  0  0  0  0  0  0  0  0  0  0
   59.6730   34.7690   46.0720 Br  0  0  0  0  0  0  0  0  0  0  0  0
   58.3000   33.2290   44.0660 C   0  0  0  0  0  0  0  0  0  0  0  0
   57.6080   32.1180   43.5710 C   0  0  0  0  0  0  0  0  0  0  0  0
   58.9370   27.2620   45.1480 N   0  0  0  0  0  0  0  0  0  0  0  0
   58.0880   26.1490   45.4760 C   0  0  0  0  0  0  0  0  0  0  0  0
   56.8120   26.3660   46.0170 C   0  0  0  0  0  0  0  0  0  0  0  0
   55.9910   25.2800   46.3400 C   0  0  0  0  0  0  0  0  0  0  0  0
   56.4430   23.9740   46.1320 C   0  0  0  0  0  0  0  0  0  0  0  0
   57.7180   23.7520   45.6050 C   0  0  0  0  0  0  0  0  0  0  0  0
   58.5390   24.8350   45.2790 C   0  0  0  0  0  0  0  0  0  0  0  0
   59.9960   28.7870   48.6010 C   0  0  0  0  0  0  0  0  0  0  0  0
   60.9590   29.6770   48.1030 C   0  0  0  0  0  0  0  0  0  0  0  0
   60.8540   31.0460   48.3700 C   0  0  0  0  0  0  0  0  0  0  0  0
   59.7850   31.5330   49.1300 C   0  0  0  0  0  0  0  0  0  0  0  0
   59.6440   33.2520   49.4480 Cl  0  0  0  0  0  0  0  0  0  0  0  0
   58.8190   30.6480   49.6230 C   0  0  0  0  0  0  0  0  0  0  0  0
   58.9230   29.2800   49.3570 C   0  0  0  0  0  0  0  0  0  0  0  0
   61.9425   27.1539   46.7461 H   0  0  0  0  0  0  0  0  0  0  0  0
   60.8806   25.7230   46.4618 H   0  0  0  0  0  0  0  0  0  0  0  0
   59.8610   29.9180   43.5730 H   0  0  0  0  0  0  0  0  0  0  0  0
   57.9006   28.5147   42.3013 H   0  0  0  0  0  0  0  0  0  0  0  0
   56.9839   27.3760   43.3586 H   0  0  0  0  0  0  0  0  0  0  0  0
   57.5812   30.1901   46.3969 H   0  0  0  0  0  0  0  0  0  0  0  0
   58.8161   32.1727   47.2770 H   0  0  0  0  0  0  0  0  0  0  0  0
   58.5027   34.0875   43.4089 H   0  0  0  0  0  0  0  0  0  0  0  0
   57.2626   32.1072   42.5267 H   0  0  0  0  0  0  0  0  0  0  0  0
   56.4559   27.3927   46.1877 H   0  0  0  0  0  0  0  0  0  0  0  0
   54.9886   25.4544   46.7581 H   0  0  0  0  0  0  0  0  0  0  0  0
   55.7953   23.1211   46.3831 H   0  0  0  0  0  0  0  0  0  0  0  0
   58.0758   22.7239   45.4466 H   0  0  0  0  0  0  0  0  0  0  0  0
   59.5429   24.6566   44.8663 H   0  0  0  0  0  0  0  0  0  0  0  0
   61.7982   29.2977   47.5015 H   0  0  0  0  0  0  0  0  0  0  0  0
   61.6132   31.7409   47.9818 H   0  0  0  0  0  0  0  0  0  0  0  0
   57.9776   31.0295   50.2201 H   0  0  0  0  0  0  0  0  0  0  0  0
   58.1602   28.5874   49.7422 H   0  0  0  0  0  0  0  0  0  0  0  0
  1  2  2  0
  2  3  2  0
  2  4  1  0
  4  5  1  0
  5  6  2  0
  6  7  1  0
  7  8  2  0
  8  9  1  0
  9 10  1  0
 10 11  2  0
 10 12  2  0
 10 13  1  0
 13 14  2  0
 14 15  1  0
 15 16  2  0
 16 17  1  0
 16 18  1  0
 18 19  2  0
  8 20  1  0
 20 21  1  0
 21 22  2  0
 22 23  1  0
 23 24  2  0
 24 25  1  0
 25 26  2  0
  2 27  1  0
 27 28  2  0
 28 29  1  0
 29 30  2  0
 30 31  1  0
 30 32  1  0
 32 33  2  0
 20  5  1  0
 26 21  1  0
 33 27  1  0
 19 13  1  0
  4 34  1  0
  4 35  1  0
  7 36  1  0
  9 37  1  0
  9 38  1  0
 14 39  1  0
 15 40  1  0
 18 41  1  0
 19 42  1  0
 22 43  1  0
 23 44  1  0
 24 45  1  0
 25 46  1  0
 26 47  1  0
 28 48  1  0
 29 49  1  0
 32 50  1  0
 33 51  1  0
M  CHG  1   7   1
M  END
>  <UniqueID>  (10) 
9

>  <SMILES>  (10) 
O=S(=O)(Cc1n[nH+]c(CS(=O)(=O)c2ccc(Br)cc2)n1-c1ccccc1)c1ccc(Cl)cc1

>  <Energy>  (10) 
82.54200991295708

>  <Genealogy>  (10) 
O=S(=O)(Cc1n[nH+]c(CS(=O)(=O)c2ccc(Br)cc2)n1-c1ccccc1)c1ccc(Cl)cc1 (protonated)
O=S(=O)(Cc1n[nH+]c(CS(=O)(=O)c2ccc(Br)cc2)n1-c1ccccc1)c1ccc(Cl)cc1 (3D coordinates assigned)
O=S(=O)(Cc1n[nH+]c(CS(=O)(=O)c2ccc(Br)cc2)n1-c1ccccc1)c1ccc(Cl)cc1 (optimized conformer: 82.54200991295708 kcal/mol)

>  <smiles>  (10) 
O=S(=O)(Cc1nnc(CS(=O)(=O)c2ccc(Br)cc2)n1-c1ccccc1)c1ccc(Cl)cc1

>  <score_type>  (10) 
oracle

>  <origin>  (10) 
adg

>  <m_score__min__energy>  (10) 
-9.3000000000000007

>  <m_primary>  (10) 
energy

$$$$
10:0
     RDKit          3D

 67 71  0  0  0  0  0  0  0  0999 V2000
   58.5614   27.9727   49.0023 H   0  0  0  0  0  0  0  0  0  0  0  0
   59.2440   28.7740   48.6830 C   0  0  0  0  0  0  0  0  0  0  0  0
   59.4670   28.9640   47.3780 C   0  0  0  0  0  0  0  0  0  0  0  0
   58.5890   27.9790   46.2110 S   0  0  0  0  0  0  0  0  0  0  0  0
   59.5200   27.0160   45.5280 O   0  0  0  0  0  0  0  0  0  0  0  0
   57.5260   27.1870   46.9180 O   0  0  0  0  0  0  0  0  0  0  0  0
   57.8670   29.0450   45.0130 C   0  0  0  0  0  0  0  0  0  0  0  0
   57.7210   30.4110   45.2900 C   0  0  0  0  0  0  0  0  0  0  0  0
   58.0880   30.8197   46.2431 H   0  0  0  0  0  0  0  0  0  0  0  0
   57.1100   31.2560   44.3580 C   0  0  0  0  0  0  0  0  0  0  0  0
   57.0001   32.3283   44.5775 H   0  0  0  0  0  0  0  0  0  0  0  0
   56.6390   30.7390   43.1480 C   0  0  0  0  0  0  0  0  0  0  0  0
   56.1612   31.4049   42.4143 H   0  0  0  0  0  0  0  0  0  0  0  0
   56.7750   29.3760   42.8700 C   0  0  0  0  0  0  0  0  0  0  0  0
   56.4021   28.9695   41.9183 H   0  0  0  0  0  0  0  0  0  0  0  0
   57.3850   28.5280   43.8010 C   0  0  0  0  0  0  0  0  0  0  0  0
   57.4868   27.4548   43.5824 H   0  0  0  0  0  0  0  0  0  0  0  0
   60.2780   30.1340   46.9000 C   0  0  0  0  0  0  0  0  0  0  0  0
   60.7269   29.8825   45.9278 H   0  0  0  0  0  0  0  0  0  0  0  0
   59.6078   31.0019   46.8135 H   0  0  0  0  0  0  0  0  0  0  0  0
   61.4020   30.4940   47.8900 C   0  0  1  0  0  0  0  0  0  0  0  0
   62.1508   29.6887   47.9181 H   0  0  0  0  0  0  0  0  0  0  0  0
   62.1010   31.7600   47.4190 C   0  0  0  0  0  0  0  0  0  0  0  0
   63.4900   31.9220   47.5830 C   0  0  0  0  0  0  0  0  0  0  0  0
   64.0792   31.1312   48.0703 H   0  0  0  0  0  0  0  0  0  0  0  0
   64.1240   33.0820   47.1300 C   0  0  0  0  0  0  0  0  0  0  0  0
   65.2107   33.1975   47.2551 H   0  0  0  0  0  0  0  0  0  0  0  0
   63.3820   34.0950   46.5190 C   0  0  0  0  0  0  0  0  0  0  0  0
   63.8844   35.0057   46.1608 H   0  0  0  0  0  0  0  0  0  0  0  0
   62.0010   33.9510   46.3630 C   0  0  0  0  0  0  0  0  0  0  0  0
   61.4160   34.7505   45.8850 H   0  0  0  0  0  0  0  0  0  0  0  0
   61.3610   32.7910   46.8140 C   0  0  0  0  0  0  0  0  0  0  0  0
   60.2726   32.6853   46.6944 H   0  0  0  0  0  0  0  0  0  0  0  0
   60.8660   30.6140   49.2650 N   0  0  0  0  0  0  0  0  0  0  0  0
   61.4840   31.5140   50.2070 C   0  0  0  0  0  0  0  0  0  0  0  0
   61.0710   32.8540   50.2720 C   0  0  0  0  0  0  0  0  0  0  0  0
   60.2562   33.2087   49.6237 H   0  0  0  0  0  0  0  0  0  0  0  0
   61.6920   33.7390   51.1580 C   0  0  0  0  0  0  0  0  0  0  0  0
   61.3612   34.7868   51.2100 H   0  0  0  0  0  0  0  0  0  0  0  0
   62.7330   33.2940   51.9780 C   0  0  0  0  0  0  0  0  0  0  0  0
   63.2239   33.9924   52.6718 H   0  0  0  0  0  0  0  0  0  0  0  0
   63.1500   31.9610   51.9160 C   0  0  0  0  0  0  0  0  0  0  0  0
   63.9683   31.6111   52.5625 H   0  0  0  0  0  0  0  0  0  0  0  0
   62.5290   31.0720   51.0340 C   0  0  0  0  0  0  0  0  0  0  0  0
   62.8597   30.0239   50.9877 H   0  0  0  0  0  0  0  0  0  0  0  0
   59.9010   29.6250   49.7110 C   0  0  0  0  0  0  0  0  0  0  0  0
   59.6250   29.4810   50.9870 N   0  0  0  0  0  0  0  0  0  0  0  0
   60.2190   28.8800   51.5970 H   0  0  0  0  0  0  0  0  0  0  0  0
   58.5340   30.1260   51.6600 C   0  0  0  0  0  0  0  0  0  0  0  0
   57.4890   29.3570   52.1850 C   0  0  0  0  0  0  0  0  0  0  0  0
   57.5211   28.2611   52.0951 H   0  0  0  0  0  0  0  0  0  0  0  0
   56.4040   29.9680   52.8230 C   0  0  0  0  0  0  0  0  0  0  0  0
   55.3940   29.1470   53.3460 O   0  0  0  0  0  0  0  0  0  0  0  0
   54.0390   29.1590   52.9100 C   0  0  0  0  0  0  0  0  0  0  0  0
   53.3723   29.1649   53.7849 H   0  0  0  0  0  0  0  0  0  0  0  0
   53.8567   30.0588   52.3041 H   0  0  0  0  0  0  0  0  0  0  0  0
   53.8408   28.2626   52.3041 H   0  0  0  0  0  0  0  0  0  0  0  0
   56.3610   31.3730   52.9170 C   0  0  0  0  0  0  0  0  0  0  0  0
   55.5132   31.8613   53.4199 H   0  0  0  0  0  0  0  0  0  0  0  0
   57.3970   32.1570   52.3710 C   0  0  0  0  0  0  0  0  0  0  0  0
   57.3940   33.5580   52.4330 O   0  0  0  0  0  0  0  0  0  0  0  0
   58.5440   34.3560   52.7000 C   0  0  0  0  0  0  0  0  0  0  0  0
   58.6803   34.4505   53.7874 H   0  0  0  0  0  0  0  0  0  0  0  0
   59.4318   33.8788   52.2593 H   0  0  0  0  0  0  0  0  0  0  0  0
   58.4077   35.3546   52.2593 H   0  0  0  0  0  0  0  0  0  0  0  0
   58.4720   31.5250   51.7380 C   0  0  0  0  0  0  0  0  0  0  0  0
   59.2770   32.1312   51.2969 H   0  0  0  0  0  0  0  0  0  0  0  0
  1  2  1  0
  2  3  2  0
  3  4  1  0
  4  5  2  0
  4  6  2  0
  4  7  1  0
  7  8  2  0
  8  9  1  0
  8 10  1  0
 10 11  1  0
 10 12  2  0
 12 13  1  0
 12 14  1  0
 14 15  1  0
 14 16  2  0
 16 17  1  0
  3 18  1  0
 18 19  1  0
 18 20  1  0
 18 21  1  0
 21 22  1  1
 21 23  1  0
 23 24  2  0
 24 25  1  0
 24 26  1  0
 26 27  1  0
 26 28  2  0
 28 29  1  0
 28 30  1  0
 30 31  1  0
 30 32  2  0
 32 33  1  0
 21 34  1  0
 34 35  1  0
 35 36  2  0
 36 37  1  0
 36 38  1  0
 38 39  1  0
 38 40  2  0
 40 41  1  0
 40 42  1  0
 42 43  1  0
 42 44  2  0
 44 45  1  0
 34 46  1  0
 46 47  2  0
 47 48  1  0
 47 49  1  0
 49 50  2  0
 50 51  1  0
 50 52  1  0
 52 53  1  0
 53 54  1  0
 54 55  1  0
 54 56  1  0
 54 57  1  0
 52 58  2  0
 58 59  1  0
 58 60  1  0
 60 61  1  0
 61 62  1  0
 62 63  1  0
 62 64  1  0
 62 65  1  0
 60 66  2  0
 66 67  1  0
 46  2  1  0
 66 49  1  0
 16  7  1  0
 32 23  1  0
 44 35  1  0
M  CHG  1  47   1
M  END
>  <UniqueID>  (11) 
10

>  <SMILES>  (11) 
COc1cc(/[NH+]=C2\C=C(S(=O)(=O)c3ccccc3)C[C@@H](c3ccccc3)N2c2ccccc2)cc(OC)c1

>  <Energy>  (11) 
90.22989174216146

>  <Genealogy>  (11) 
COc1cc([NH+]=C2C=C(S(=O)(=O)c3ccccc3)CC(c3ccccc3)N2c2ccccc2)cc(OC)c1 (protonated)
COc1cc([NH+]=C2C=C(S(=O)(=O)c3ccccc3)C[C@@H](c3ccccc3)N2c2ccccc2)cc(OC)c1 (chirality)
COc1cc(/[NH+]=C2\C=C(S(=O)(=O)c3ccccc3)C[C@@H](c3ccccc3)N2c2ccccc2)cc(OC)c1 (cis-trans isomerization)
COc1cc(/[NH+]=C2\C=C(S(=O)(=O)c3ccccc3)C[C@@H](c3ccccc3)N2c2ccccc2)cc(OC)c1 (3D coordinates assigned)
COc1cc(/[NH+]=C2\C=C(S(=O)(=O)c3ccccc3)C[C@@H](c3ccccc3)N2c2ccccc2)cc(OC)c1 (nonaromatic ring conformer: 90.22989174216146 kcal/mol)

>  <smiles>  (11) 
COc1cc(N=C2C=C(S(=O)(=O)c3ccccc3)CC(c3ccccc3)N2c2ccccc2)cc(OC)c1

>  <score_type>  (11) 
oracle

>  <origin>  (11) 
adg

>  <m_score__min__energy>  (11) 
-7.7300000000000004

>  <m_primary>  (11) 
energy

$$$$
11:0
     RDKit          3D

 38 40  0  0  0  0  0  0  0  0999 V2000
   57.7370   25.6150   44.0840 C   0  0  0  0  0  0  0  0  0  0  0  0
   56.9800   26.1840   45.1300 O   0  0  0  0  0  0  0  0  0  0  0  0
   57.7290   27.1850   45.8000 C   0  0  1  0  0  0  0  0  0  0  0  0
   59.1810   27.1840   45.2770 C   0  0  0  0  0  0  0  0  0  0  0  0
   60.0340   28.3780   45.7750 C   0  0  0  0  0  0  0  0  0  0  0  0
   59.2050   29.5380   46.3770 C   0  0  1  0  0  0  0  0  0  0  0  0
   59.9940   30.8240   46.4490 C   0  0  0  0  0  0  0  0  0  0  0  0
   61.1810   30.7700   46.7520 O   0  0  0  0  0  0  0  0  0  0  0  0
   59.3070   32.1010   46.3420 N   0  0  1  0  0  0  0  0  0  0  0  0
   60.2620   33.2450   46.3900 C   0  0  0  0  0  0  0  0  0  0  0  0
   59.6520   34.5830   45.9200 C   0  0  0  0  0  0  0  0  0  0  0  0
   58.1280   34.5630   45.9750 C   0  0  0  0  0  0  0  0  0  0  0  0
   57.5610   33.4130   45.1290 C   0  0  0  0  0  0  0  0  0  0  0  0
   58.4820   32.1600   45.1100 C   0  0  2  0  0  0  0  0  0  0  0  0
   57.6480   30.9130   44.9140 C   0  0  0  0  0  0  0  0  0  0  0  0
   56.7260   30.9210   44.0510 O   0  0  0  0  0  0  0  0  0  0  0  0
   57.9550   29.6990   45.6250 N   0  0  0  0  0  0  0  0  0  0  0  0
   57.1230   28.5310   45.5160 C   0  0  0  0  0  0  0  0  0  0  0  0
   55.8960   28.6340   45.2430 O   0  0  0  0  0  0  0  0  0  0  0  0
   58.5483   25.0052   44.5082 H   0  0  0  0  0  0  0  0  0  0  0  0
   57.0868   24.9802   43.4642 H   0  0  0  0  0  0  0  0  0  0  0  0
   58.1661   26.4161   43.4642 H   0  0  0  0  0  0  0  0  0  0  0  0
   57.7186   26.9807   46.8808 H   0  0  0  0  0  0  0  0  0  0  0  0
   59.6657   26.2526   45.6052 H   0  0  0  0  0  0  0  0  0  0  0  0
   59.1236   27.2703   44.1819 H   0  0  0  0  0  0  0  0  0  0  0  0
   60.7256   28.0103   46.5473 H   0  0  0  0  0  0  0  0  0  0  0  0
   60.5563   28.7837   44.8960 H   0  0  0  0  0  0  0  0  0  0  0  0
   58.9538   29.2804   47.4165 H   0  0  0  0  0  0  0  0  0  0  0  0
   58.6740   32.1660   47.1760 H   0  0  0  0  0  0  0  0  0  0  0  0
   60.6070   33.3661   47.4275 H   0  0  0  0  0  0  0  0  0  0  0  0
   61.0842   33.0064   45.6993 H   0  0  0  0  0  0  0  0  0  0  0  0
   60.0209   35.3900   46.5702 H   0  0  0  0  0  0  0  0  0  0  0  0
   59.9535   34.7470   44.8749 H   0  0  0  0  0  0  0  0  0  0  0  0
   57.8075   34.4332   47.0192 H   0  0  0  0  0  0  0  0  0  0  0  0
   57.7505   35.5140   45.5711 H   0  0  0  0  0  0  0  0  0  0  0  0
   56.5835   33.1231   45.5420 H   0  0  0  0  0  0  0  0  0  0  0  0
   57.4786   33.7761   44.0939 H   0  0  0  0  0  0  0  0  0  0  0  0
   59.1802   32.2293   44.2628 H   0  0  0  0  0  0  0  0  0  0  0  0
  1  2  1  0
  2  3  1  0
  3  4  1  0
  4  5  1  0
  5  6  1  0
  6  7  1  0
  7  8  2  0
  7  9  1  0
  9 10  1  0
 10 11  1  0
 11 12  1  0
 12 13  1  0
 13 14  1  0
 14 15  1  0
 15 16  2  0
 15 17  1  0
 17 18  1  0
 18 19  2  0
 18  3  1  0
 17  6  1  0
 14  9  1  0
  1 20  1  0
  1 21  1  0
  1 22  1  0
  3 23  1  1
  4 24  1  0
  4 25  1  0
  5 26  1  0
  5 27  1  0
  6 28  1  1
  9 29  1  1
 10 30  1  0
 10 31  1  0
 11 32  1  0
 11 33  1  0
 12 34  1  0
 12 35  1  0
 13 36  1  0
 13 37  1  0
 14 38  1  6
M  CHG  1   9   1
M  END
>  <UniqueID>  (12) 
11

>  <SMILES>  (12) 
CO[C@H]1CC[C@H]2C(=O)[NH+]3CCCCC3C(=O)N2C1=O

>  <Energy>  (12) 
60.372116882376375

>  <Genealogy>  (12) 
COC1CCC2C(=O)[NH+]3CCCCC3C(=O)N2C1=O (protonated)
CO[C@H]1CC[C@H]2C(=O)[NH+]3CCCCC3C(=O)N2C1=O (chirality)
CO[C@H]1CC[C@H]2C(=O)[NH+]3CCCCC3C(=O)N2C1=O (3D coordinates assigned)
CO[C@H]1CC[C@H]2C(=O)[NH+]3CCCCC3C(=O)N2C1=O (nonaromatic ring conformer: 60.372116882376375 kcal/mol)

>  <smiles>  (12) 
COC1CCC2C(=O)N3CCCCC3C(=O)N2C1=O

>  <score_type>  (12) 
oracle

>  <origin>  (12) 
adg

>  <m_score__min__energy>  (12) 
-5.4199999999999999

>  <m_primary>  (12) 
energy

$$$$
12:0
     RDKit          3D

 48 52  0  0  0  0  0  0  0  0999 V2000
   58.1250   32.3420   41.8690 C   0  0  0  0  0  0  0  0  0  0  0  0
   57.8280   31.8840   43.1840 O   0  0  0  0  0  0  0  0  0  0  0  0
   58.2850   32.4930   44.3660 C   0  0  0  0  0  0  0  0  0  0  0  0
   58.7170   33.8310   44.3840 C   0  0  0  0  0  0  0  0  0  0  0  0
   59.1820   34.4090   45.5630 C   0  0  0  0  0  0  0  0  0  0  0  0
   59.2140   33.6700   46.7500 C   0  0  0  0  0  0  0  0  0  0  0  0
   59.6540   34.2630   47.9340 C   0  0  0  0  0  0  0  0  0  0  0  0
   59.6620   33.5280   49.1250 C   0  0  0  0  0  0  0  0  0  0  0  0
   59.2820   32.2060   49.1300 N   0  0  0  0  0  0  0  0  0  0  0  0
   58.8020   31.6270   47.9830 C   0  0  0  0  0  0  0  0  0  0  0  0
   58.7800   32.3270   46.7600 C   0  0  0  0  0  0  0  0  0  0  0  0
   58.3190   31.7330   45.5540 C   0  0  0  0  0  0  0  0  0  0  0  0
   57.8910   30.3150   45.5020 C   0  0  0  0  0  0  0  0  0  0  0  0
   58.6980   29.3130   46.0570 C   0  0  0  0  0  0  0  0  0  0  0  0
   58.2930   27.9760   46.0130 C   0  0  0  0  0  0  0  0  0  0  0  0
   57.0720   27.6190   45.4150 C   0  0  0  0  0  0  0  0  0  0  0  0
   56.6590   26.2410   45.3680 N   0  0  0  0  0  0  0  0  0  0  0  0
   57.3350   25.3950   44.7460 O   0  0  0  0  0  0  0  0  0  0  0  0
   55.5130   25.8330   46.0100 O   0  0  0  0  0  0  0  0  0  0  0  0
   56.2630   28.6320   44.8640 C   0  0  0  0  0  0  0  0  0  0  0  0
   56.6680   29.9670   44.9110 C   0  0  0  0  0  0  0  0  0  0  0  0
   59.3420   31.4570   50.3770 C   0  0  0  0  0  0  0  0  0  0  0  0
   59.4350   30.0480   50.4030 C   0  0  0  0  0  0  0  0  0  0  0  0
   59.4800   29.3610   51.6190 C   0  0  0  0  0  0  0  0  0  0  0  0
   59.4500   30.0620   52.8240 C   0  0  0  0  0  0  0  0  0  0  0  0
   59.4010   31.4570   52.8200 C   0  0  0  0  0  0  0  0  0  0  0  0
   59.3730   32.1580   51.6040 C   0  0  0  0  0  0  0  0  0  0  0  0
   59.3410   33.6600   51.5940 C   0  0  0  0  0  0  0  0  0  0  0  0
   60.1280   34.1930   50.3970 C   0  0  0  0  0  0  0  0  0  0  0  0
   58.7226   33.2636   41.9280 H   0  0  0  0  0  0  0  0  0  0  0  0
   58.6945   31.5694   41.3315 H   0  0  0  0  0  0  0  0  0  0  0  0
   57.1873   32.5468   41.3315 H   0  0  0  0  0  0  0  0  0  0  0  0
   58.6875   34.4262   43.4594 H   0  0  0  0  0  0  0  0  0  0  0  0
   59.5264   35.4537   45.5605 H   0  0  0  0  0  0  0  0  0  0  0  0
   59.9948   35.3089   47.9313 H   0  0  0  0  0  0  0  0  0  0  0  0
   58.4260   30.5938   48.0185 H   0  0  0  0  0  0  0  0  0  0  0  0
   59.6548   29.5799   46.5296 H   0  0  0  0  0  0  0  0  0  0  0  0
   58.9349   27.1968   46.4499 H   0  0  0  0  0  0  0  0  0  0  0  0
   55.3044   28.3689   44.3929 H   0  0  0  0  0  0  0  0  0  0  0  0
   56.0247   30.7496   44.4824 H   0  0  0  0  0  0  0  0  0  0  0  0
   59.4723   29.4865   49.4578 H   0  0  0  0  0  0  0  0  0  0  0  0
   59.5393   28.2626   51.6257 H   0  0  0  0  0  0  0  0  0  0  0  0
   59.4650   29.5153   53.7784 H   0  0  0  0  0  0  0  0  0  0  0  0
   59.3843   32.0083   53.7717 H   0  0  0  0  0  0  0  0  0  0  0  0
   58.2976   34.0014   51.5249 H   0  0  0  0  0  0  0  0  0  0  0  0
   59.7967   34.0365   52.5217 H   0  0  0  0  0  0  0  0  0  0  0  0
   59.9738   35.2791   50.3160 H   0  0  0  0  0  0  0  0  0  0  0  0
   61.1957   33.9736   50.5447 H   0  0  0  0  0  0  0  0  0  0  0  0
  1  2  1  0
  2  3  1  0
  3  4  2  0
  4  5  1  0
  5  6  2  0
  6  7  1  0
  7  8  2  0
  8  9  1  0
  9 10  2  0
 10 11  1  0
 11 12  2  0
 12 13  1  0
 13 14  2  0
 14 15  1  0
 15 16  2  0
 16 17  1  0
 17 18  2  0
 17 19  1  0
 16 20  1  0
 20 21  2  0
  9 22  1  0
 22 23  2  0
 23 24  1  0
 24 25  2  0
 25 26  1  0
 26 27  2  0
 27 28  1  0
 28 29  1  0
 12  3  1  0
 21 13  1  0
 27 22  1  0
 11  6  1  0
 29  8  1  0
  1 30  1  0
  1 31  1  0
  1 32  1  0
  4 33  1  0
  5 34  1  0
  7 35  1  0
 10 36  1  0
 14 37  1  0
 15 38  1  0
 20 39  1  0
 21 40  1  0
 23 41  1  0
 24 42  1  0
 25 43  1  0
 26 44  1  0
 28 45  1  0
 28 46  1  0
 29 47  1  0
 29 48  1  0
M  CHG  3   9   1  17   1  19  -1
M  END
>  <UniqueID>  (13) 
12

>  <SMILES>  (13) 
COc1ccc2cc3[n+](cc2c1-c1ccc([N+](=O)[O-])cc1)-c1ccccc1CC3

>  <Energy>  (13) 
74.9218289851884

>  <Genealogy>  (13) 
COc1ccc2cc3[n+](cc2c1-c1ccc([N+](=O)[O-])cc1)-c1ccccc1CC3 (3D coordinates assigned)
COc1ccc2cc3[n+](cc2c1-c1ccc([N+](=O)[O-])cc1)-c1ccccc1CC3 (nonaromatic ring conformer: 74.9218289851884 kcal/mol)

>  <smiles>  (13) 
COc1ccc2cc3[n+](cc2c1-c1ccc([N+](=O)[O-])cc1)-c1ccccc1CC3

>  <score_type>  (13) 
oracle

>  <origin>  (13) 
adg

>  <m_score__min__energy>  (13) 
-6.8799999999999999

>  <m_primary>  (13) 
energy

$$$$
13:0
     RDKit          3D

 52 55  0  0  0  0  0  0  0  0999 V2000
   56.4470   22.7230   48.3430 C   0  0  0  0  0  0  0  0  0  0  0  0
   57.5100   23.4810   47.7760 O   0  0  0  0  0  0  0  0  0  0  0  0
   57.3470   24.7190   47.1370 C   0  0  0  0  0  0  0  0  0  0  0  0
   56.1060   25.0100   46.5590 C   0  0  0  0  0  0  0  0  0  0  0  0
   55.8910   26.2290   45.9100 C   0  0  0  0  0  0  0  0  0  0  0  0
   56.9200   27.1810   45.8300 C   0  0  0  0  0  0  0  0  0  0  0  0
   56.6900   28.4670   45.1410 C   0  0  0  0  0  0  0  0  0  0  0  0
   57.6830   29.2770   44.7140 N   0  0  0  0  0  0  0  0  0  0  0  0
   57.0210   30.3030   44.1490 C   0  0  0  0  0  0  0  0  0  0  0  0
   57.6870   31.4830   43.4910 C   0  0  0  0  0  0  0  0  0  0  0  0
   58.4900   32.3010   44.4270 N   0  0  0  0  0  0  0  0  0  0  0  0
   57.8790   33.6170   44.7180 C   0  0  0  0  0  0  0  0  0  0  0  0
   58.5100   34.2450   45.9640 C   0  0  0  0  0  0  0  0  0  0  0  0
   58.2520   33.4220   47.1680 N   0  0  0  0  0  0  0  0  0  0  0  0
   59.2120   33.7540   48.2400 C   0  0  0  0  0  0  0  0  0  0  0  0
   60.6000   33.3110   47.8580 C   0  0  0  0  0  0  0  0  0  0  0  0
   61.4020   34.1060   47.0210 C   0  0  0  0  0  0  0  0  0  0  0  0
   62.6850   33.6800   46.6640 C   0  0  0  0  0  0  0  0  0  0  0  0
   63.1760   32.4620   47.1390 C   0  0  0  0  0  0  0  0  0  0  0  0
   62.3850   31.6660   47.9710 C   0  0  0  0  0  0  0  0  0  0  0  0
   61.1010   32.0870   48.3310 C   0  0  0  0  0  0  0  0  0  0  0  0
   58.1950   31.9620   46.8940 C   0  0  0  0  0  0  0  0  0  0  0  0
   58.9670   31.5660   45.6230 C   0  0  0  0  0  0  0  0  0  0  0  0
   55.6640   30.0890   44.2540 C   0  0  0  0  0  0  0  0  0  0  0  0
   55.4950   28.9470   44.8700 O   0  0  0  0  0  0  0  0  0  0  0  0
   58.1660   26.8920   46.4110 C   0  0  0  0  0  0  0  0  0  0  0  0
   58.3790   25.6710   47.0590 C   0  0  0  0  0  0  0  0  0  0  0  0
   56.5095   22.7676   49.4403 H   0  0  0  0  0  0  0  0  0  0  0  0
   55.4835   23.1391   48.0134 H   0  0  0  0  0  0  0  0  0  0  0  0
   56.5264   21.6765   48.0134 H   0  0  0  0  0  0  0  0  0  0  0  0
   55.2921   24.2723   46.6161 H   0  0  0  0  0  0  0  0  0  0  0  0
   54.9107   26.4437   45.4596 H   0  0  0  0  0  0  0  0  0  0  0  0
   58.3499   31.1108   42.6960 H   0  0  0  0  0  0  0  0  0  0  0  0
   56.8885   32.1291   43.0974 H   0  0  0  0  0  0  0  0  0  0  0  0
   58.0355   34.2854   43.8585 H   0  0  0  0  0  0  0  0  0  0  0  0
   56.8037   33.4742   44.9007 H   0  0  0  0  0  0  0  0  0  0  0  0
   59.5963   34.3286   45.8126 H   0  0  0  0  0  0  0  0  0  0  0  0
   58.0622   35.2378   46.1183 H   0  0  0  0  0  0  0  0  0  0  0  0
   59.2109   34.8418   48.4033 H   0  0  0  0  0  0  0  0  0  0  0  0
   58.9122   33.2330   49.1612 H   0  0  0  0  0  0  0  0  0  0  0  0
   61.0190   35.0664   46.6456 H   0  0  0  0  0  0  0  0  0  0  0  0
   63.3085   34.3052   46.0080 H   0  0  0  0  0  0  0  0  0  0  0  0
   64.1861   32.1292   46.8579 H   0  0  0  0  0  0  0  0  0  0  0  0
   62.7728   30.7064   48.3436 H   0  0  0  0  0  0  0  0  0  0  0  0
   60.4814   31.4576   48.9867 H   0  0  0  0  0  0  0  0  0  0  0  0
   58.6291   31.4259   47.7508 H   0  0  0  0  0  0  0  0  0  0  0  0
   57.1395   31.6939   46.7389 H   0  0  0  0  0  0  0  0  0  0  0  0
   60.0340   31.7876   45.7730 H   0  0  0  0  0  0  0  0  0  0  0  0
   58.8022   30.4926   45.4481 H   0  0  0  0  0  0  0  0  0  0  0  0
   54.8692   30.7553   43.8876 H   0  0  0  0  0  0  0  0  0  0  0  0
   58.9792   27.6307   46.3559 H   0  0  0  0  0  0  0  0  0  0  0  0
   59.3587   25.4543   47.5099 H   0  0  0  0  0  0  0  0  0  0  0  0
  1  2  1  0
  2  3  1  0
  3  4  2  0
  4  5  1  0
  5  6  2  0
  6  7  1  0
  7  8  2  0
  8  9  1  0
  9 10  1  0
 10 11  1  0
 11 12  1  0
 12 13  1  0
 13 14  1  0
 14 15  1  0
 15 16  1  0
 16 17  2  0
 17 18  1  0
 18 19  2  0
 19 20  1  0
 20 21  2  0
 14 22  1  0
 22 23  1  0
  9 24  2  0
 24 25  1  0
  6 26  1  0
 26 27  2  0
 27  3  1  0
 25  7  1  0
 23 11  1  0
 21 16  1  0
  1 28  1  0
  1 29  1  0
  1 30  1  0
  4 31  1  0
  5 32  1  0
 10 33  1  0
 10 34  1  0
 12 35  1  0
 12 36  1  0
 13 37  1  0
 13 38  1  0
 15 39  1  0
 15 40  1  0
 17 41  1  0
 18 42  1  0
 19 43  1  0
 20 44  1  0
 21 45  1  0
 22 46  1  0
 22 47  1  0
 23 48  1  0
 23 49  1  0
 24 50  1  0
 26 51  1  0
 27 52  1  0
M  END
>  <UniqueID>  (14) 
13

>  <SMILES>  (14) 
COc1ccc(-c2nc(CN3CCN(Cc4ccccc4)CC3)co2)cc1

>  <Energy>  (14) 
97.7605440632252

>  <Genealogy>  (14) 
COc1ccc(-c2nc(CN3CCN(Cc4ccccc4)CC3)co2)cc1 (3D coordinates assigned)
COc1ccc(-c2nc(CN3CCN(Cc4ccccc4)CC3)co2)cc1 (nonaromatic ring conformer: 97.7605440632252 kcal/mol)

>  <smiles>  (14) 
COc1ccc(-c2nc(CN3CCN(Cc4ccccc4)CC3)co2)cc1

>  <score_type>  (14) 
oracle

>  <origin>  (14) 
adg

>  <m_score__min__energy>  (14) 
-8.5999999999999996

>  <m_primary>  (14) 
energy

$$$$
14:0
     RDKit          3D

 47 49  0  0  0  0  0  0  0  0999 V2000
   60.9330   31.1270   49.3110 C   0  0  0  0  0  0  0  0  0  0  0  0
   62.2560   31.7310   48.8270 C   0  0  0  0  0  0  0  0  0  0  0  0
   62.2620   33.2180   48.8530 N   0  0  0  0  0  0  0  0  0  0  0  0
   60.9470   33.7480   49.3160 C   0  0  0  0  0  0  0  0  0  0  0  0
   59.9870   34.1410   48.1700 C   0  0  0  0  0  0  0  0  0  0  0  0
   60.3150   33.4120   46.9400 N   0  0  0  0  0  0  0  0  0  0  0  0
   59.3180   32.6490   46.2370 C   0  0  0  0  0  0  0  0  0  0  0  0
   58.3600   33.2930   45.4410 C   0  0  0  0  0  0  0  0  0  0  0  0
   57.4020   32.5520   44.7460 C   0  0  0  0  0  0  0  0  0  0  0  0
   57.3830   31.1490   44.8270 C   0  0  0  0  0  0  0  0  0  0  0  0
   56.3470   30.4110   44.1530 N   0  0  0  0  0  0  0  0  0  0  0  0
   56.2300   30.4790   42.9120 O   0  0  0  0  0  0  0  0  0  0  0  0
   55.3810   29.7470   44.8730 O   0  0  0  0  0  0  0  0  0  0  0  0
   58.3680   30.4930   45.6000 C   0  0  0  0  0  0  0  0  0  0  0  0
   58.4610   29.0620   45.6210 N   0  0  0  0  0  0  0  0  0  0  0  0
   58.2880   28.2820   46.8330 C   0  0  0  0  0  0  0  0  0  0  0  0
   58.1040   26.8430   46.3670 C   0  0  0  0  0  0  0  0  0  0  0  0
   58.5580   26.8110   44.9070 C   0  0  0  0  0  0  0  0  0  0  0  0
   58.4860   28.2510   44.4190 C   0  0  0  0  0  0  0  0  0  0  0  0
   59.3200   31.2480   46.3010 C   0  0  0  0  0  0  0  0  0  0  0  0
   61.6890   33.4840   46.4300 C   0  0  0  0  0  0  0  0  0  0  0  0
   62.6670   33.8330   47.5640 C   0  0  0  0  0  0  0  0  0  0  0  0
   60.9144   31.1185   50.4108 H   0  0  0  0  0  0  0  0  0  0  0  0
   60.0946   31.7315   48.9348 H   0  0  0  0  0  0  0  0  0  0  0  0
   60.8406   30.0975   48.9348 H   0  0  0  0  0  0  0  0  0  0  0  0
   63.0657   31.3662   49.4760 H   0  0  0  0  0  0  0  0  0  0  0  0
   62.3954   31.4205   47.7810 H   0  0  0  0  0  0  0  0  0  0  0  0
   62.9740   33.5070   49.5660 H   0  0  0  0  0  0  0  0  0  0  0  0
   60.4581   32.9744   49.9264 H   0  0  0  0  0  0  0  0  0  0  0  0
   61.1569   34.6666   49.8835 H   0  0  0  0  0  0  0  0  0  0  0  0
   58.9551   33.9016   48.4664 H   0  0  0  0  0  0  0  0  0  0  0  0
   60.0910   35.2191   47.9782 H   0  0  0  0  0  0  0  0  0  0  0  0
   58.3631   34.3903   45.3635 H   0  0  0  0  0  0  0  0  0  0  0  0
   56.6545   33.0717   44.1287 H   0  0  0  0  0  0  0  0  0  0  0  0
   59.1767   28.3675   47.4756 H   0  0  0  0  0  0  0  0  0  0  0  0
   57.4299   28.6325   47.4253 H   0  0  0  0  0  0  0  0  0  0  0  0
   58.7201   26.1631   46.9738 H   0  0  0  0  0  0  0  0  0  0  0  0
   57.0587   26.5165   46.4710 H   0  0  0  0  0  0  0  0  0  0  0  0
   59.5884   26.4330   44.8344 H   0  0  0  0  0  0  0  0  0  0  0  0
   57.9256   26.1458   44.3007 H   0  0  0  0  0  0  0  0  0  0  0  0
   59.3674   28.4951   43.8078 H   0  0  0  0  0  0  0  0  0  0  0  0
   57.6023   28.4262   43.7878 H   0  0  0  0  0  0  0  0  0  0  0  0
   60.0787   30.7340   46.9094 H   0  0  0  0  0  0  0  0  0  0  0  0
   61.9667   32.5107   45.9993 H   0  0  0  0  0  0  0  0  0  0  0  0
   61.7421   34.2683   45.6606 H   0  0  0  0  0  0  0  0  0  0  0  0
   63.6689   33.4673   47.2947 H   0  0  0  0  0  0  0  0  0  0  0  0
   62.6648   34.9255   47.6919 H   0  0  0  0  0  0  0  0  0  0  0  0
  1  2  1  0
  2  3  1  0
  3  4  1  0
  4  5  1  0
  5  6  1  0
  6  7  1  0
  7  8  2  0
  8  9  1  0
  9 10  2  0
 10 11  1  0
 11 12  2  0
 11 13  1  0
 10 14  1  0
 14 15  1  0
 15 16  1  0
 16 17  1  0
 17 18  1  0
 18 19  1  0
 14 20  2  0
  6 21  1  0
 21 22  1  0
 22  3  1  0
 20  7  1  0
 19 15  1  0
  1 23  1  0
  1 24  1  0
  1 25  1  0
  2 26  1  0
  2 27  1  0
  3 28  1  0
  4 29  1  0
  4 30  1  0
  5 31  1  0
  5 32  1  0
  8 33  1  0
  9 34  1  0
 16 35  1  0
 16 36  1  0
 17 37  1  0
 17 38  1  0
 18 39  1  0
 18 40  1  0
 19 41  1  0
 19 42  1  0
 20 43  1  0
 21 44  1  0
 21 45  1  0
 22 46  1  0
 22 47  1  0
M  CHG  3   3   1  11   1  13  -1
M  END
>  <UniqueID>  (15) 
14

>  <SMILES>  (15) 
CC[NH+]1CCN(c2ccc([N+](=O)[O-])c(N3CCCC3)c2)CC1

>  <Energy>  (15) 
67.35215880715994

>  <Genealogy>  (15) 
CC[NH+]1CCN(c2ccc([N+](=O)[O-])c(N3CCCC3)c2)CC1 (protonated)
CC[NH+]1CCN(c2ccc([N+](=O)[O-])c(N3CCCC3)c2)CC1 (3D coordinates assigned)
CC[NH+]1CCN(c2ccc([N+](=O)[O-])c(N3CCCC3)c2)CC1 (nonaromatic ring conformer: 67.35215880715994 kcal/mol)

>  <smiles>  (15) 
CCN1CCN(c2ccc([N+](=O)[O-])c(N3CCCC3)c2)CC1

>  <score_type>  (15) 
oracle

>  <origin>  (15) 
adg

>  <m_score__min__energy>  (15) 
-5.79

>  <m_primary>  (15) 
energy

$$$$
15:0
     RDKit          3D

 42 43  0  0  0  0  0  0  0  0999 V2000
   56.9970   34.2090   45.2980 C   0  0  0  0  0  0  0  0  0  0  0  0
   58.3600   33.6550   45.2510 N   0  0  0  0  0  0  0  0  0  0  0  0
   59.3650   34.7420   45.2300 C   0  0  0  0  0  0  0  0  0  0  0  0
   59.5710   35.2900   46.6460 C   0  0  0  0  0  0  0  0  0  0  0  0
   59.9670   34.2480   47.5400 O   0  0  0  0  0  0  0  0  0  0  0  0
   61.2950   33.8780   47.8130 C   0  0  0  0  0  0  0  0  0  0  0  0
   61.8320   33.8630   49.1170 C   0  0  0  0  0  0  0  0  0  0  0  0
   63.1590   33.4790   49.3280 C   0  0  0  0  0  0  0  0  0  0  0  0
   63.9630   33.1110   48.2460 C   0  0  0  0  0  0  0  0  0  0  0  0
   63.4410   33.1280   46.9510 C   0  0  0  0  0  0  0  0  0  0  0  0
   62.1140   33.5110   46.7360 C   0  0  0  0  0  0  0  0  0  0  0  0
   58.5020   32.7490   44.0920 C   0  0  0  0  0  0  0  0  0  0  0  0
   57.8600   31.4070   44.3820 C   0  0  0  0  0  0  0  0  0  0  0  0
   56.8220   30.9590   43.5430 C   0  0  0  0  0  0  0  0  0  0  0  0
   56.2300   29.7120   43.7440 C   0  0  0  0  0  0  0  0  0  0  0  0
   56.6570   28.8970   44.7890 C   0  0  0  0  0  0  0  0  0  0  0  0
   57.6780   29.3240   45.6380 C   0  0  0  0  0  0  0  0  0  0  0  0
   58.2980   30.5720   45.4450 C   0  0  0  0  0  0  0  0  0  0  0  0
   59.3660   30.9980   46.4330 C   0  0  0  0  0  0  0  0  0  0  0  0
   58.8180   31.9050   47.4390 N   0  0  0  0  0  0  0  0  0  0  0  0
   56.6882   34.3345   46.3463 H   0  0  0  0  0  0  0  0  0  0  0  0
   56.9803   35.1853   44.7914 H   0  0  0  0  0  0  0  0  0  0  0  0
   56.3040   33.5212   44.7914 H   0  0  0  0  0  0  0  0  0  0  0  0
   60.3191   34.3492   44.8487 H   0  0  0  0  0  0  0  0  0  0  0  0
   59.0084   35.5520   44.5768 H   0  0  0  0  0  0  0  0  0  0  0  0
   60.3535   36.0628   46.6235 H   0  0  0  0  0  0  0  0  0  0  0  0
   58.6214   35.7173   47.0006 H   0  0  0  0  0  0  0  0  0  0  0  0
   61.2037   34.1548   49.9715 H   0  0  0  0  0  0  0  0  0  0  0  0
   63.5714   33.4664   50.3477 H   0  0  0  0  0  0  0  0  0  0  0  0
   65.0069   32.8080   48.4144 H   0  0  0  0  0  0  0  0  0  0  0  0
   64.0746   32.8397   46.0993 H   0  0  0  0  0  0  0  0  0  0  0  0
   61.7090   33.5246   45.7134 H   0  0  0  0  0  0  0  0  0  0  0  0
   58.0131   33.2021   43.2170 H   0  0  0  0  0  0  0  0  0  0  0  0
   59.5725   32.5941   43.8921 H   0  0  0  0  0  0  0  0  0  0  0  0
   56.4738   31.5997   42.7194 H   0  0  0  0  0  0  0  0  0  0  0  0
   55.4248   29.3721   43.0761 H   0  0  0  0  0  0  0  0  0  0  0  0
   56.1882   27.9143   44.9454 H   0  0  0  0  0  0  0  0  0  0  0  0
   58.0019   28.6780   46.4673 H   0  0  0  0  0  0  0  0  0  0  0  0
   59.7684   30.1055   46.9346 H   0  0  0  0  0  0  0  0  0  0  0  0
   60.1613   31.5235   45.8840 H   0  0  0  0  0  0  0  0  0  0  0  0
   59.5800   32.1830   48.0990 H   0  0  0  0  0  0  0  0  0  0  0  0
   58.4820   32.7740   46.9610 H   0  0  0  0  0  0  0  0  0  0  0  0
  1  2  1  0
  2  3  1  0
  3  4  1  0
  4  5  1  0
  5  6  1  0
  6  7  2  0
  7  8  1  0
  8  9  2  0
  9 10  1  0
 10 11  2  0
  2 12  1  0
 12 13  1  0
 13 14  2  0
 14 15  1  0
 15 16  2  0
 16 17  1  0
 17 18  2  0
 18 19  1  0
 19 20  1  0
 11  6  1  0
 18 13  1  0
  1 21  1  0
  1 22  1  0
  1 23  1  0
  3 24  1  0
  3 25  1  0
  4 26  1  0
  4 27  1  0
  7 28  1  0
  8 29  1  0
  9 30  1  0
 10 31  1  0
 11 32  1  0
 12 33  1  0
 12 34  1  0
 14 35  1  0
 15 36  1  0
 16 37  1  0
 17 38  1  0
 19 39  1  0
 19 40  1  0
 20 41  1  0
 20 42  1  0
M  END
>  <UniqueID>  (16) 
15

>  <SMILES>  (16) 
CN(CCOc1ccccc1)Cc1ccccc1CN

>  <Energy>  (16) 
40.860638306137375

>  <Genealogy>  (16) 
CN(CCOc1ccccc1)Cc1ccccc1CN (3D coordinates assigned)
CN(CCOc1ccccc1)Cc1ccccc1CN (optimized conformer: 40.860638306137375 kcal/mol)

>  <smiles>  (16) 
CN(CCOc1ccccc1)Cc1ccccc1CN

>  <score_type>  (16) 
oracle

>  <origin>  (16) 
adg

>  <m_score__min__energy>  (16) 
-6.79

>  <m_primary>  (16) 
energy

$$$$
16:0
     RDKit          3D

 44 46  0  0  0  0  0  0  0  0999 V2000
   60.3420   34.7420   47.8870 C   0  0  0  0  0  0  0  0  0  0  0  0
   59.4240   34.1540   46.8570 C   0  0  0  0  0  0  0  0  0  0  0  0
   58.9010   34.9610   45.8360 C   0  0  0  0  0  0  0  0  0  0  0  0
   58.0730   34.4080   44.8580 C   0  0  0  0  0  0  0  0  0  0  0  0
   57.7730   33.0430   44.8800 C   0  0  0  0  0  0  0  0  0  0  0  0
   58.3110   32.2120   45.8790 C   0  0  0  0  0  0  0  0  0  0  0  0
   58.0010   30.7610   45.9100 C   0  0  0  0  0  0  0  0  0  0  0  0
   57.0410   30.3180   45.2230 O   0  0  0  0  0  0  0  0  0  0  0  0
   58.7480   29.8650   46.7510 N   0  0  0  0  0  0  0  0  0  0  0  0
   58.8070   28.4430   46.5490 C   0  0  0  0  0  0  0  0  0  0  0  0
   58.4440   27.8600   45.3230 C   0  0  0  0  0  0  0  0  0  0  0  0
   58.5340   26.4780   45.1420 C   0  0  0  0  0  0  0  0  0  0  0  0
   59.0100   25.6530   46.1760 C   0  0  0  0  0  0  0  0  0  0  0  0
   59.1080   24.1840   45.9940 C   0  0  0  0  0  0  0  0  0  0  0  0
   60.2440   23.6460   45.9250 O   0  0  0  0  0  0  0  0  0  0  0  0
   57.9460   23.3450   45.9430 N   0  0  0  0  0  0  0  0  0  0  0  0
   57.0030   23.2620   44.8610 C   0  0  0  0  0  0  0  0  0  0  0  0
   57.2290   22.3730   43.7930 C   0  0  0  0  0  0  0  0  0  0  0  0
   56.3120   22.2680   42.7490 C   0  0  0  0  0  0  0  0  0  0  0  0
   55.1490   23.0330   42.7630 C   0  0  0  0  0  0  0  0  0  0  0  0
   54.8950   23.9030   43.8250 C   0  0  0  0  0  0  0  0  0  0  0  0
   55.8090   24.0290   44.8890 C   0  0  0  0  0  0  0  0  0  0  0  0
   55.4930   24.9740   45.9940 C   0  0  0  0  0  0  0  0  0  0  0  0
   55.8710   24.7480   47.1750 O   0  0  0  0  0  0  0  0  0  0  0  0
   54.7740   26.1360   45.7370 O   0  0  0  0  0  0  0  0  0  0  0  0
   59.3750   26.2370   47.3990 C   0  0  0  0  0  0  0  0  0  0  0  0
   59.2860   27.6200   47.5790 C   0  0  0  0  0  0  0  0  0  0  0  0
   59.1360   32.7800   46.8680 C   0  0  0  0  0  0  0  0  0  0  0  0
   59.9667   34.5016   48.8927 H   0  0  0  0  0  0  0  0  0  0  0  0
   61.3507   34.3215   47.7619 H   0  0  0  0  0  0  0  0  0  0  0  0
   60.3819   35.8341   47.7619 H   0  0  0  0  0  0  0  0  0  0  0  0
   59.1442   36.0333   45.8060 H   0  0  0  0  0  0  0  0  0  0  0  0
   57.6551   35.0485   44.0673 H   0  0  0  0  0  0  0  0  0  0  0  0
   57.1121   32.6161   44.1113 H   0  0  0  0  0  0  0  0  0  0  0  0
   59.1790   30.2540   47.6200 H   0  0  0  0  0  0  0  0  0  0  0  0
   58.0865   28.4965   44.5002 H   0  0  0  0  0  0  0  0  0  0  0  0
   58.2302   26.0319   44.1835 H   0  0  0  0  0  0  0  0  0  0  0  0
   58.1388   21.7549   43.7825 H   0  0  0  0  0  0  0  0  0  0  0  0
   56.5073   21.5801   41.9132 H   0  0  0  0  0  0  0  0  0  0  0  0
   54.4287   22.9519   41.9356 H   0  0  0  0  0  0  0  0  0  0  0  0
   53.9695   24.4974   43.8307 H   0  0  0  0  0  0  0  0  0  0  0  0
   59.7338   25.6014   48.2219 H   0  0  0  0  0  0  0  0  0  0  0  0
   59.5940   28.0667   48.5359 H   0  0  0  0  0  0  0  0  0  0  0  0
   59.5592   32.1411   47.6571 H   0  0  0  0  0  0  0  0  0  0  0  0
  1  2  1  0
  2  3  2  0
  3  4  1  0
  4  5  2  0
  5  6  1  0
  6  7  1  0
  7  8  2  0
  7  9  1  0
  9 10  1  0
 10 11  2  0
 11 12  1  0
 12 13  2  0
 13 14  1  0
 14 15  2  0
 14 16  1  0
 16 17  1  0
 17 18  2  0
 18 19  1  0
 19 20  2  0
 20 21  1  0
 21 22  2  0
 22 23  1  0
 23 24  2  0
 23 25  1  0
 13 26  1  0
 26 27  2  0
  6 28  2  0
 28  2  1  0
 27 10  1  0
 22 17  1  0
  1 29  1  0
  1 30  1  0
  1 31  1  0
  3 32  1  0
  4 33  1  0
  5 34  1  0
  9 35  1  0
 11 36  1  0
 12 37  1  0
 18 38  1  0
 19 39  1  0
 20 40  1  0
 21 41  1  0
 26 42  1  0
 27 43  1  0
 28 44  1  0
M  CHG  2  16  -1  25  -1
M  END
>  <UniqueID>  (17) 
16

>  <SMILES>  (17) 
Cc1cccc(C(=O)Nc2ccc(C(=O)[N-]c3ccccc3C(=O)[O-])cc2)c1

>  <Energy>  (17) 
61.55668812001049

>  <Genealogy>  (17) 
Cc1cccc(C(=O)Nc2ccc(C(=O)[N-]c3ccccc3C(=O)[O-])cc2)c1 (protonated)
Cc1cccc(C(=O)Nc2ccc(C(=O)[N-]c3ccccc3C(=O)[O-])cc2)c1 (3D coordinates assigned)
Cc1cccc(C(=O)Nc2ccc(C(=O)[N-]c3ccccc3C(=O)[O-])cc2)c1 (optimized conformer: 61.55668812001049 kcal/mol)

>  <smiles>  (17) 
Cc1cccc(C(=O)Nc2ccc(C(=O)Nc3ccccc3C(=O)O)cc2)c1

>  <score_type>  (17) 
oracle

>  <origin>  (17) 
adg

>  <m_score__min__energy>  (17) 
-12.67

>  <m_primary>  (17) 
energy

$$$$
17:0
     RDKit          3D

 38 39  0  0  0  0  0  0  0  0999 V2000
   57.8950   25.1600   45.9400 C   0  0  0  0  0  0  0  0  0  0  0  0
   59.0450   26.1240   45.6700 C   0  0  0  0  0  0  0  0  0  0  0  0
   58.8040   27.4090   46.3290 N   0  0  0  0  0  0  0  0  0  0  0  0
   59.4270   27.8800   47.4250 C   0  0  0  0  0  0  0  0  0  0  0  0
   58.9430   29.0860   47.7780 N   0  0  0  0  0  0  0  0  0  0  0  0
   57.9980   29.4010   46.9040 N   0  0  0  0  0  0  0  0  0  0  0  0
   57.9210   28.3840   46.0240 C   0  0  0  0  0  0  0  0  0  0  0  0
   56.9440   28.3630   44.8770 C   0  0  0  0  0  0  0  0  0  0  0  0
   56.0560   29.5340   44.8750 N   0  0  0  0  0  0  0  0  0  0  0  0
   56.2810   30.3940   43.7030 C   0  0  0  0  0  0  0  0  0  0  0  0
   57.3950   31.4150   43.9900 C   0  0  0  0  0  0  0  0  0  0  0  0
   57.8150   31.4280   45.4030 N   0  0  0  0  0  0  0  0  0  0  0  0
   58.3640   32.7100   45.7870 C   0  0  0  0  0  0  0  0  0  0  0  0
   58.6530   33.6750   44.8050 C   0  0  0  0  0  0  0  0  0  0  0  0
   59.1690   34.9220   45.1680 C   0  0  0  0  0  0  0  0  0  0  0  0
   59.4020   35.2190   46.5130 C   0  0  0  0  0  0  0  0  0  0  0  0
   59.1200   34.2700   47.4980 C   0  0  0  0  0  0  0  0  0  0  0  0
   58.6040   33.0190   47.1420 C   0  0  0  0  0  0  0  0  0  0  0  0
   58.3360   32.1140   48.1180 F   0  0  0  0  0  0  0  0  0  0  0  0
   57.7592   25.0462   47.0256 H   0  0  0  0  0  0  0  0  0  0  0  0
   56.9711   25.5575   45.4946 H   0  0  0  0  0  0  0  0  0  0  0  0
   58.1250   24.1809   45.4946 H   0  0  0  0  0  0  0  0  0  0  0  0
   59.9793   25.6895   46.0552 H   0  0  0  0  0  0  0  0  0  0  0  0
   59.1221   26.2900   44.5853 H   0  0  0  0  0  0  0  0  0  0  0  0
   60.2269   27.3493   47.9622 H   0  0  0  0  0  0  0  0  0  0  0  0
   57.5082   28.3461   43.9329 H   0  0  0  0  0  0  0  0  0  0  0  0
   56.3162   27.4666   44.9880 H   0  0  0  0  0  0  0  0  0  0  0  0
   56.2170   30.0930   45.7430 H   0  0  0  0  0  0  0  0  0  0  0  0
   56.5745   29.7692   42.8465 H   0  0  0  0  0  0  0  0  0  0  0  0
   55.3513   30.9363   43.4759 H   0  0  0  0  0  0  0  0  0  0  0  0
   58.2671   31.1664   43.3675 H   0  0  0  0  0  0  0  0  0  0  0  0
   56.9947   32.4127   43.7568 H   0  0  0  0  0  0  0  0  0  0  0  0
   57.0160   31.1580   46.0210 H   0  0  0  0  0  0  0  0  0  0  0  0
   58.5530   30.6970   45.5330 H   0  0  0  0  0  0  0  0  0  0  0  0
   58.4716   33.4465   43.7444 H   0  0  0  0  0  0  0  0  0  0  0  0
   59.3920   35.6707   44.3936 H   0  0  0  0  0  0  0  0  0  0  0  0
   59.8080   36.2013   46.7965 H   0  0  0  0  0  0  0  0  0  0  0  0
   59.3040   34.5065   48.5564 H   0  0  0  0  0  0  0  0  0  0  0  0
  1  2  1  0
  2  3  1  0
  3  4  1  0
  4  5  2  0
  5  6  1  0
  6  7  2  0
  7  8  1  0
  8  9  1  0
  9 10  1  0
 10 11  1  0
 11 12  1  0
 12 13  1  0
 13 14  2  0
 14 15  1  0
 15 16  2  0
 16 17  1  0
 17 18  2  0
 18 19  1  0
  7  3  1  0
 18 13  1  0
  1 20  1  0
  1 21  1  0
  1 22  1  0
  2 23  1  0
  2 24  1  0
  4 25  1  0
  8 26  1  0
  8 27  1  0
  9 28  1  0
 10 29  1  0
 10 30  1  0
 11 31  1  0
 11 32  1  0
 12 33  1  0
 12 34  1  0
 14 35  1  0
 15 36  1  0
 16 37  1  0
 17 38  1  0
M  CHG  1  12   1
M  END
>  <UniqueID>  (18) 
17

>  <SMILES>  (18) 
CCn1cnnc1CNCC[NH2+]c1ccccc1F

>  <Energy>  (18) 
68.27346151597847

>  <Genealogy>  (18) 
CCn1cnnc1CNCC[NH2+]c1ccccc1F (protonated)
CCn1cnnc1CNCC[NH2+]c1ccccc1F (3D coordinates assigned)
CCn1cnnc1CNCC[NH2+]c1ccccc1F (optimized conformer: 68.27346151597847 kcal/mol)

>  <smiles>  (18) 
CCn1cnnc1CNCCNc1ccccc1F

>  <score_type>  (18) 
oracle

>  <origin>  (18) 
adg

>  <m_score__min__energy>  (18) 
-3.96

>  <m_primary>  (18) 
energy

$$$$
18:0
     RDKit          3D

 44 48  0  0  0  0  0  0  0  0999 V2000
   59.7130   31.4760   47.8160 O   0  0  0  0  0  0  0  0  0  0  0  0
   58.8520   31.2560   46.9210 C   0  0  0  0  0  0  0  0  0  0  0  0
   58.5040   29.9390   46.5330 C   0  0  0  0  0  0  0  0  0  0  0  0
   59.0880   28.8090   47.1200 C   0  0  0  0  0  0  0  0  0  0  0  0
   58.7100   27.5310   46.7040 C   0  0  0  0  0  0  0  0  0  0  0  0
   57.7400   27.3790   45.6990 C   0  0  0  0  0  0  0  0  0  0  0  0
   57.3350   26.0320   45.2330 C   0  0  0  0  0  0  0  0  0  0  0  0
   56.7760   25.1220   46.1480 C   0  0  0  0  0  0  0  0  0  0  0  0
   56.4060   23.8380   45.7390 C   0  0  0  0  0  0  0  0  0  0  0  0
   56.5880   23.4470   44.4130 C   0  0  0  0  0  0  0  0  0  0  0  0
   57.1370   24.3380   43.4920 C   0  0  0  0  0  0  0  0  0  0  0  0
   57.5130   25.6280   43.8880 C   0  0  0  0  0  0  0  0  0  0  0  0
   58.1410   26.7190   42.6560 Cl  0  0  0  0  0  0  0  0  0  0  0  0
   57.1830   28.4860   45.1320 N   0  0  0  0  0  0  0  0  0  0  0  0
   57.5240   29.7450   45.5100 C   0  0  0  0  0  0  0  0  0  0  0  0
   56.9250   30.8170   44.9070 N   0  0  0  0  0  0  0  0  0  0  0  0
   57.2800   32.0640   45.2980 C   0  0  0  0  0  0  0  0  0  0  0  0
   56.7910   33.2280   44.8390 N   0  0  0  0  0  0  0  0  0  0  0  0
   57.4240   34.1710   45.5360 N   0  0  0  0  0  0  0  0  0  0  0  0
   58.2860   33.6370   46.3990 N   0  0  0  0  0  0  0  0  0  0  0  0
   59.0700   34.4150   47.3580 C   0  0  0  0  0  0  0  0  0  0  0  0
   60.3880   34.8920   46.7380 C   0  0  0  0  0  0  0  0  0  0  0  0
   61.5630   34.1090   47.2650 C   0  0  0  0  0  0  0  0  0  0  0  0
   62.6360   33.7870   46.4170 C   0  0  0  0  0  0  0  0  0  0  0  0
   63.7440   33.0940   46.9160 C   0  0  0  0  0  0  0  0  0  0  0  0
   63.7910   32.7280   48.2640 C   0  0  0  0  0  0  0  0  0  0  0  0
   62.7340   33.0550   49.1160 C   0  0  0  0  0  0  0  0  0  0  0  0
   61.6230   33.7450   48.6210 C   0  0  0  0  0  0  0  0  0  0  0  0
   58.2020   32.3010   46.2640 C   0  0  0  0  0  0  0  0  0  0  0  0
   59.8449   28.9287   47.9092 H   0  0  0  0  0  0  0  0  0  0  0  0
   59.1712   26.6439   47.1627 H   0  0  0  0  0  0  0  0  0  0  0  0
   56.6286   25.4238   47.1955 H   0  0  0  0  0  0  0  0  0  0  0  0
   55.9706   23.1348   46.4641 H   0  0  0  0  0  0  0  0  0  0  0  0
   56.2983   22.4351   44.0935 H   0  0  0  0  0  0  0  0  0  0  0  0
   57.2760   24.0257   42.4465 H   0  0  0  0  0  0  0  0  0  0  0  0
   58.4842   35.2909   47.6738 H   0  0  0  0  0  0  0  0  0  0  0  0
   59.3027   33.7729   48.2203 H   0  0  0  0  0  0  0  0  0  0  0  0
   60.3355   34.7661   45.6465 H   0  0  0  0  0  0  0  0  0  0  0  0
   60.5313   35.9496   47.0044 H   0  0  0  0  0  0  0  0  0  0  0  0
   62.6047   34.0807   45.3574 H   0  0  0  0  0  0  0  0  0  0  0  0
   64.5786   32.8370   46.2471 H   0  0  0  0  0  0  0  0  0  0  0  0
   64.6621   32.1814   48.6545 H   0  0  0  0  0  0  0  0  0  0  0  0
   62.7754   32.7695   50.1775 H   0  0  0  0  0  0  0  0  0  0  0  0
   60.7933   34.0037   49.2953 H   0  0  0  0  0  0  0  0  0  0  0  0
  1  2  2  0
  2  3  1  0
  3  4  2  0
  4  5  1  0
  5  6  2  0
  6  7  1  0
  7  8  2  0
  8  9  1  0
  9 10  2  0
 10 11  1  0
 11 12  2  0
 12 13  1  0
  6 14  1  0
 14 15  2  0
 15 16  1  0
 16 17  1  0
 17 18  1  0
 18 19  2  0
 19 20  1  0
 20 21  1  0
 21 22  1  0
 22 23  1  0
 23 24  2  0
 24 25  1  0
 25 26  2  0
 26 27  1  0
 27 28  2  0
 20 29  1  0
 29  2  1  0
 15  3  1  0
 29 17  2  0
 12  7  1  0
 28 23  1  0
  4 30  1  0
  5 31  1  0
  8 32  1  0
  9 33  1  0
 10 34  1  0
 11 35  1  0
 21 36  1  0
 21 37  1  0
 22 38  1  0
 22 39  1  0
 24 40  1  0
 25 41  1  0
 26 42  1  0
 27 43  1  0
 28 44  1  0
M  CHG  1  16  -1
M  END
>  <UniqueID>  (19) 
18

>  <SMILES>  (19) 
O=c1c2ccc(-c3ccccc3Cl)nc2[n-]c2nnn(CCc3ccccc3)c12

>  <Energy>  (19) 
105.08734618042486

>  <Genealogy>  (19) 
O=c1c2ccc(-c3ccccc3Cl)nc2[n-]c2nnn(CCc3ccccc3)c12 (protonated)
O=c1c2ccc(-c3ccccc3Cl)nc2[n-]c2nnn(CCc3ccccc3)c12 (3D coordinates assigned)
O=c1c2ccc(-c3ccccc3Cl)nc2[n-]c2nnn(CCc3ccccc3)c12 (optimized conformer: 105.08734618042486 kcal/mol)

>  <smiles>  (19) 
O=c1c2ccc(-c3ccccc3Cl)nc2[nH]c2nnn(CCc3ccccc3)c12

>  <score_type>  (19) 
oracle

>  <origin>  (19) 
adg

>  <m_score__min__energy>  (19) 
-11.050000000000001

>  <m_primary>  (19) 
energy

$$$$
19:0
     RDKit          3D

 32 34  0  0  0  0  0  0  0  0999 V2000
   56.6350   30.7470   42.9000 O   0  0  0  0  0  0  0  0  0  0  0  0
   56.5780   30.8570   44.1410 N   0  0  0  0  0  0  0  0  0  0  0  0
   55.7180   30.0370   44.8340 O   0  0  0  0  0  0  0  0  0  0  0  0
   57.4080   31.8020   44.8480 C   0  0  0  0  0  0  0  0  0  0  0  0
   57.0640   33.1700   44.8700 C   0  0  0  0  0  0  0  0  0  0  0  0
   57.8660   34.1050   45.5440 C   0  0  0  0  0  0  0  0  0  0  0  0
   59.0240   33.6980   46.2190 C   0  0  0  0  0  0  0  0  0  0  0  0
   59.3670   32.3430   46.2210 C   0  0  0  0  0  0  0  0  0  0  0  0
   60.4970   31.7660   46.8330 C   0  0  0  0  0  0  0  0  0  0  0  0
   61.4360   32.4900   47.6430 N   0  0  0  0  0  0  0  0  0  0  0  0
   61.9110   33.8090   47.2140 C   0  0  0  0  0  0  0  0  0  0  0  0
   63.4240   33.7690   46.9100 C   0  0  0  0  0  0  0  0  0  0  0  0
   64.1450   32.7040   47.6400 N   0  0  0  0  0  0  0  0  0  0  0  0
   63.5340   32.3960   48.9420 C   0  0  0  0  0  0  0  0  0  0  0  0
   62.1300   31.8060   48.7420 C   0  0  0  0  0  0  0  0  0  0  0  0
   60.6040   30.3950   46.6120 C   0  0  0  0  0  0  0  0  0  0  0  0
   59.2930   29.9010   45.6760 S   0  0  0  0  0  0  0  0  0  0  0  0
   58.5780   31.4210   45.5360 C   0  0  0  0  0  0  0  0  0  0  0  0
   56.1548   33.5089   44.3519 H   0  0  0  0  0  0  0  0  0  0  0  0
   57.5821   35.1677   45.5419 H   0  0  0  0  0  0  0  0  0  0  0  0
   59.6541   34.4340   46.7398 H   0  0  0  0  0  0  0  0  0  0  0  0
   61.3678   34.1113   46.3065 H   0  0  0  0  0  0  0  0  0  0  0  0
   61.7309   34.5315   48.0237 H   0  0  0  0  0  0  0  0  0  0  0  0
   63.5579   33.6033   45.8308 H   0  0  0  0  0  0  0  0  0  0  0  0
   63.8456   34.7298   47.2403 H   0  0  0  0  0  0  0  0  0  0  0  0
   65.1350   33.0080   47.7960 H   0  0  0  0  0  0  0  0  0  0  0  0
   64.1660   31.8340   47.0560 H   0  0  0  0  0  0  0  0  0  0  0  0
   64.1621   31.6670   49.4749 H   0  0  0  0  0  0  0  0  0  0  0  0
   63.4540   33.3226   49.5294 H   0  0  0  0  0  0  0  0  0  0  0  0
   62.2177   30.7356   48.5041 H   0  0  0  0  0  0  0  0  0  0  0  0
   61.5516   31.9428   49.6676 H   0  0  0  0  0  0  0  0  0  0  0  0
   61.4086   29.7445   46.9855 H   0  0  0  0  0  0  0  0  0  0  0  0
  1  2  2  0
  2  3  1  0
  2  4  1  0
  4  5  2  0
  5  6  1  0
  6  7  2  0
  7  8  1  0
  8  9  1  0
  9 10  1  0
 10 11  1  0
 11 12  1  0
 12 13  1  0
 13 14  1  0
 14 15  1  0
  9 16  2  0
 16 17  1  0
 17 18  1  0
 18  4  1  0
 18  8  2  0
 15 10  1  0
  5 19  1  0
  6 20  1  0
  7 21  1  0
 11 22  1  0
 11 23  1  0
 12 24  1  0
 12 25  1  0
 13 26  1  0
 13 27  1  0
 14 28  1  0
 14 29  1  0
 15 30  1  0
 15 31  1  0
 16 32  1  0
M  CHG  3   2   1   3  -1  13   1
M  END
>  <UniqueID>  (20) 
19

>  <SMILES>  (20) 
O=[N+]([O-])c1cccc2c(N3CC[NH2+]CC3)csc12

>  <Energy>  (20) 
76.60774493676692

>  <Genealogy>  (20) 
O=[N+]([O-])c1cccc2c(N3CC[NH2+]CC3)csc12 (protonated)
O=[N+]([O-])c1cccc2c(N3CC[NH2+]CC3)csc12 (3D coordinates assigned)
O=[N+]([O-])c1cccc2c(N3CC[NH2+]CC3)csc12 (nonaromatic ring conformer: 76.60774493676692 kcal/mol)

>  <smiles>  (20) 
O=[N+]([O-])c1cccc2c(N3CCNCC3)csc12

>  <score_type>  (20) 
oracle

>  <origin>  (20) 
adg

>  <m_score__min__energy>  (20) 
-6.3700000000000001

>  <m_primary>  (20) 
energy

$$$$
20:0
     RDKit          3D

 40 42  0  0  0  0  0  0  0  0999 V2000
   64.3843   32.2328   49.2888 H   0  0  0  0  0  0  0  0  0  0  0  0
   63.5960   32.4430   48.5510 C   0  0  0  0  0  0  0  0  0  0  0  0
   63.5370   33.5130   47.7940 O   0  0  0  0  0  0  0  0  0  0  0  0
   62.4700   33.4420   47.0330 C   0  0  0  0  0  0  0  0  0  0  0  0
   62.1636   34.1998   46.2969 H   0  0  0  0  0  0  0  0  0  0  0  0
   61.7890   32.2650   47.3000 C   0  0  0  0  0  0  0  0  0  0  0  0
   60.5320   31.7890   46.6640 C   0  0  0  0  0  0  0  0  0  0  0  0
   59.5190   32.6970   46.3070 C   0  0  0  0  0  0  0  0  0  0  0  0
   59.6558   33.7704   46.5047 H   0  0  0  0  0  0  0  0  0  0  0  0
   58.3410   32.2500   45.7040 C   0  0  0  0  0  0  0  0  0  0  0  0
   57.5627   32.9750   45.4233 H   0  0  0  0  0  0  0  0  0  0  0  0
   58.1420   30.8820   45.4530 C   0  0  0  0  0  0  0  0  0  0  0  0
   56.8960   30.4210   44.7950 C   0  0  0  0  0  0  0  0  0  0  0  0
   55.9750   31.2540   44.5730 O   0  0  0  0  0  0  0  0  0  0  0  0
   56.7010   29.0060   44.3940 C   0  0  0  0  0  0  0  0  0  0  0  0
   57.1230   28.5890   43.0840 N   0  0  0  0  0  0  0  0  0  0  0  0
   57.6680   29.2400   42.4750 H   0  0  0  0  0  0  0  0  0  0  0  0
   56.9160   27.6450   42.6950 H   0  0  0  0  0  0  0  0  0  0  0  0
   56.1830   28.1570   45.2480 N   0  0  0  0  0  0  0  0  0  0  0  0
   55.1430   28.1550   45.3750 H   0  0  0  0  0  0  0  0  0  0  0  0
   56.9670   27.2010   46.0480 C   0  0  0  0  0  0  0  0  0  0  0  0
   57.2470   27.7324   46.9695 H   0  0  0  0  0  0  0  0  0  0  0  0
   58.1820   26.7070   45.2620 C   0  0  0  0  0  0  0  0  0  0  0  0
   58.4960   27.4669   44.5313 H   0  0  0  0  0  0  0  0  0  0  0  0
   59.0350   26.5146   45.9294 H   0  0  0  0  0  0  0  0  0  0  0  0
   57.7470   25.4330   44.5430 C   0  0  0  0  0  0  0  0  0  0  0  0
   57.6376   25.6257   43.4656 H   0  0  0  0  0  0  0  0  0  0  0  0
   58.4947   24.6361   44.6688 H   0  0  0  0  0  0  0  0  0  0  0  0
   56.4040   25.0200   45.1410 C   0  0  0  0  0  0  0  0  0  0  0  0
   55.6028   25.1431   44.3974 H   0  0  0  0  0  0  0  0  0  0  0  0
   56.4127   23.9635   45.4471 H   0  0  0  0  0  0  0  0  0  0  0  0
   56.1620   25.9350   46.3300 C   0  0  0  0  0  0  0  0  0  0  0  0
   55.0918   26.1730   46.4192 H   0  0  0  0  0  0  0  0  0  0  0  0
   56.4674   25.4619   47.2750 H   0  0  0  0  0  0  0  0  0  0  0  0
   59.1570   29.9740   45.7970 C   0  0  0  0  0  0  0  0  0  0  0  0
   59.0226   28.9018   45.5912 H   0  0  0  0  0  0  0  0  0  0  0  0
   60.3370   30.4220   46.3990 C   0  0  0  0  0  0  0  0  0  0  0  0
   61.1202   29.6979   46.6678 H   0  0  0  0  0  0  0  0  0  0  0  0
   62.5220   31.6220   48.2830 C   0  0  0  0  0  0  0  0  0  0  0  0
   62.2939   30.6543   48.7536 H   0  0  0  0  0  0  0  0  0  0  0  0
  1  2  1  0
  2  3  1  0
  3  4  1  0
  4  5  1  0
  4  6  2  0
  6  7  1  0
  7  8  2  0
  8  9  1  0
  8 10  1  0
 10 11  1  0
 10 12  2  0
 12 13  1  0
 13 14  2  0
 13 15  1  0
 15 16  1  0
 16 17  1  0
 16 18  1  0
 15 19  2  0
 19 20  1  0
 19 21  1  0
 21 22  1  0
 21 23  1  0
 23 24  1  0
 23 25  1  0
 23 26  1  0
 26 27  1  0
 26 28  1  0
 26 29  1  0
 29 30  1  0
 29 31  1  0
 29 32  1  0
 32 33  1  0
 32 34  1  0
 12 35  1  0
 35 36  1  0
 35 37  2  0
 37 38  1  0
  6 39  1  0
 39 40  1  0
 39  2  2  0
 37  7  1  0
 32 21  1  0
M  CHG  1  19   1
M  END
>  <UniqueID>  (21) 
20

>  <SMILES>  (21) 
N/C(=[NH+]\C1CCCC1)C(=O)c1ccc(-c2ccoc2)cc1

>  <Energy>  (21) 
75.80648490202287

>  <Genealogy>  (21) 
NC(=[NH+]C1CCCC1)C(=O)c1ccc(-c2ccoc2)cc1 (protonated)
N/C(=[NH+]\C1CCCC1)C(=O)c1ccc(-c2ccoc2)cc1 (cis-trans isomerization)
N/C(=[NH+]\C1CCCC1)C(=O)c1ccc(-c2ccoc2)cc1 (3D coordinates assigned)
N/C(=[NH+]\C1CCCC1)C(=O)c1ccc(-c2ccoc2)cc1 (nonaromatic ring conformer: 75.80648490202287 kcal/mol)

>  <smiles>  (21) 
NC(=NC1CCCC1)C(=O)c1ccc(-c2ccoc2)cc1

>  <score_type>  (21) 
oracle

>  <origin>  (21) 
adg

>  <m_score__min__energy>  (21) 
-6.1799999999999997

>  <m_primary>  (21) 
energy

$$$$
21:0
     RDKit          3D

 36 37  0  0  0  0  0  0  0  0999 V2000
   64.7330   32.5420   49.8900 C   0  0  0  0  0  0  0  0  0  0  0  0
   64.0380   32.1050   48.5930 C   0  0  0  0  0  0  0  0  0  0  0  0
   64.0410   33.2470   47.5460 C   0  0  0  0  0  0  0  0  0  0  0  0
   62.7540   34.0800   47.5790 C   0  0  0  0  0  0  0  0  0  0  0  0
   61.5680   33.2240   47.4230 N   0  0  0  0  0  0  0  0  0  0  0  0
   60.2980   33.8360   47.1230 C   0  0  0  0  0  0  0  0  0  0  0  0
   60.0680   35.0100   47.5230 O   0  0  0  0  0  0  0  0  0  0  0  0
   59.2540   33.1250   46.3500 C   0  0  0  0  0  0  0  0  0  0  0  0
   58.6670   33.7160   45.2210 C   0  0  0  0  0  0  0  0  0  0  0  0
   57.6750   33.0430   44.5010 C   0  0  0  0  0  0  0  0  0  0  0  0
   57.2450   31.7660   44.9090 C   0  0  0  0  0  0  0  0  0  0  0  0
   56.2560   31.0460   44.2230 O   0  0  0  0  0  0  0  0  0  0  0  0
   56.3040   29.6460   43.9640 C   0  0  0  0  0  0  0  0  0  0  0  0
   55.5090   28.9700   44.8720 F   0  0  0  0  0  0  0  0  0  0  0  0
   57.6070   29.2070   44.0940 F   0  0  0  0  0  0  0  0  0  0  0  0
   57.8210   31.1850   46.0450 C   0  0  0  0  0  0  0  0  0  0  0  0
   58.8120   31.8580   46.7640 C   0  0  0  0  0  0  0  0  0  0  0  0
   61.6560   31.7870   47.7280 C   0  0  0  0  0  0  0  0  0  0  0  0
   62.6180   31.5630   48.8960 C   0  0  0  0  0  0  0  0  0  0  0  0
   64.1572   32.1799   50.7545 H   0  0  0  0  0  0  0  0  0  0  0  0
   65.7480   32.1193   49.9225 H   0  0  0  0  0  0  0  0  0  0  0  0
   64.7919   33.6399   49.9225 H   0  0  0  0  0  0  0  0  0  0  0  0
   64.6064   31.2773   48.1438 H   0  0  0  0  0  0  0  0  0  0  0  0
   64.8950   33.9097   47.7498 H   0  0  0  0  0  0  0  0  0  0  0  0
   64.1142   32.7859   46.5500 H   0  0  0  0  0  0  0  0  0  0  0  0
   62.6921   34.6085   48.5418 H   0  0  0  0  0  0  0  0  0  0  0  0
   62.7799   34.7982   46.7462 H   0  0  0  0  0  0  0  0  0  0  0  0
   58.9898   34.7172   44.8995 H   0  0  0  0  0  0  0  0  0  0  0  0
   57.2288   33.5132   43.6123 H   0  0  0  0  0  0  0  0  0  0  0  0
   55.9378   29.4534   42.9448 H   0  0  0  0  0  0  0  0  0  0  0  0
   57.4902   30.1891   46.3747 H   0  0  0  0  0  0  0  0  0  0  0  0
   59.2487   31.3925   47.6599 H   0  0  0  0  0  0  0  0  0  0  0  0
   60.6589   31.4094   47.9986 H   0  0  0  0  0  0  0  0  0  0  0  0
   62.0281   31.2501   46.8430 H   0  0  0  0  0  0  0  0  0  0  0  0
   62.2236   32.0782   49.7843 H   0  0  0  0  0  0  0  0  0  0  0  0
   62.6980   30.4792   49.0663 H   0  0  0  0  0  0  0  0  0  0  0  0
  1  2  1  0
  2  3  1  0
  3  4  1  0
  4  5  1  0
  5  6  1  0
  6  7  2  0
  6  8  1  0
  8  9  2  0
  9 10  1  0
 10 11  2  0
 11 12  1  0
 12 13  1  0
 13 14  1  0
 13 15  1  0
 11 16  1  0
 16 17  2  0
  5 18  1  0
 18 19  1  0
 19  2  1  0
 17  8  1  0
  1 20  1  0
  1 21  1  0
  1 22  1  0
  2 23  1  0
  3 24  1  0
  3 25  1  0
  4 26  1  0
  4 27  1  0
  9 28  1  0
 10 29  1  0
 13 30  1  0
 16 31  1  0
 17 32  1  0
 18 33  1  0
 18 34  1  0
 19 35  1  0
 19 36  1  0
M  END
>  <UniqueID>  (22) 
21

>  <SMILES>  (22) 
CC1CCN(C(=O)c2ccc(OC(F)F)cc2)CC1

>  <Energy>  (22) 
39.26458309845597

>  <Genealogy>  (22) 
CC1CCN(C(=O)c2ccc(OC(F)F)cc2)CC1 (3D coordinates assigned)
CC1CCN(C(=O)c2ccc(OC(F)F)cc2)CC1 (nonaromatic ring conformer: 39.26458309845597 kcal/mol)

>  <smiles>  (22) 
CC1CCN(C(=O)c2ccc(OC(F)F)cc2)CC1

>  <score_type>  (22) 
oracle

>  <origin>  (22) 
adg

>  <m_score__min__energy>  (22) 
-6.6200000000000001

>  <m_primary>  (22) 
energy

$$$$
22:0
     RDKit          3D

 41 43  0  0  0  0  0  0  0  0999 V2000
   60.0140   34.4090   48.5830 C   0  0  0  0  0  0  0  0  0  0  0  0
   59.5670   32.9840   48.8910 C   0  0  0  0  0  0  0  0  0  0  0  0
   59.6350   32.1510   47.6750 N   0  0  0  0  0  0  0  0  0  0  0  0
   60.7920   31.3190   47.4740 C   0  0  0  0  0  0  0  0  0  0  0  0
   61.7620   31.3500   48.2790 O   0  0  0  0  0  0  0  0  0  0  0  0
   60.8440   30.4480   46.3510 N   0  0  0  0  0  0  0  0  0  0  0  0
   59.6550   30.1730   45.5550 C   0  0  1  0  0  0  0  0  0  0  0  0
   59.0180   28.8780   46.0160 C   0  0  0  0  0  0  0  0  0  0  0  0
   59.6920   28.0490   46.9530 C   0  0  0  0  0  0  0  0  0  0  0  0
   59.1140   26.8430   47.3890 C   0  0  0  0  0  0  0  0  0  0  0  0
   57.8680   26.4970   46.8780 C   0  0  0  0  0  0  0  0  0  0  0  0
   57.2160   27.2810   45.9850 C   0  0  0  0  0  0  0  0  0  0  0  0
   57.7500   28.4810   45.5270 C   0  0  0  0  0  0  0  0  0  0  0  0
   56.0100   26.6950   45.6520 O   0  0  0  0  0  0  0  0  0  0  0  0
   55.9000   25.4640   46.3820 C   0  0  0  0  0  0  0  0  0  0  0  0
   57.1070   25.3770   47.1510 O   0  0  0  0  0  0  0  0  0  0  0  0
   58.6500   31.3130   45.6000 C   0  0  0  0  0  0  0  0  0  0  0  0
   57.7320   31.4330   44.4380 C   0  0  0  0  0  0  0  0  0  0  0  0
   58.0940   32.0830   43.4190 O   0  0  0  0  0  0  0  0  0  0  0  0
   56.4470   30.8820   44.4960 O   0  0  0  0  0  0  0  0  0  0  0  0
   55.9100   30.0760   43.4550 C   0  0  0  0  0  0  0  0  0  0  0  0
   58.5680   32.1370   46.6840 C   0  0  0  0  0  0  0  0  0  0  0  0
   57.3850   33.0760   46.8410 C   0  0  0  0  0  0  0  0  0  0  0  0
   60.1842   34.9515   49.5247 H   0  0  0  0  0  0  0  0  0  0  0  0
   60.9471   34.3829   48.0011 H   0  0  0  0  0  0  0  0  0  0  0  0
   59.2332   34.9205   48.0011 H   0  0  0  0  0  0  0  0  0  0  0  0
   60.2253   32.5558   49.6613 H   0  0  0  0  0  0  0  0  0  0  0  0
   58.5282   33.0054   49.2520 H   0  0  0  0  0  0  0  0  0  0  0  0
   61.7010   29.8670   46.1960 H   0  0  0  0  0  0  0  0  0  0  0  0
   59.9713   30.0732   44.5062 H   0  0  0  0  0  0  0  0  0  0  0  0
   60.6752   28.3534   47.3411 H   0  0  0  0  0  0  0  0  0  0  0  0
   59.6313   26.1943   48.1112 H   0  0  0  0  0  0  0  0  0  0  0  0
   57.2023   29.1043   44.8049 H   0  0  0  0  0  0  0  0  0  0  0  0
   55.0213   25.4844   47.0434 H   0  0  0  0  0  0  0  0  0  0  0  0
   55.7731   24.5988   45.7146 H   0  0  0  0  0  0  0  0  0  0  0  0
   55.3505   29.2363   43.8930 H   0  0  0  0  0  0  0  0  0  0  0  0
   55.2346   30.6821   42.8333 H   0  0  0  0  0  0  0  0  0  0  0  0
   56.7295   29.6861   42.8333 H   0  0  0  0  0  0  0  0  0  0  0  0
   57.1833   33.2361   47.9104 H   0  0  0  0  0  0  0  0  0  0  0  0
   57.6157   34.0395   46.3631 H   0  0  0  0  0  0  0  0  0  0  0  0
   56.4990   32.6326   46.3631 H   0  0  0  0  0  0  0  0  0  0  0  0
  1  2  1  0
  2  3  1  0
  3  4  1  0
  4  5  2  0
  4  6  1  0
  6  7  1  0
  7  8  1  0
  8  9  2  0
  9 10  1  0
 10 11  2  0
 11 12  1  0
 12 13  2  0
 12 14  1  0
 14 15  1  0
 15 16  1  0
  7 17  1  0
 17 18  1  0
 18 19  2  0
 18 20  1  0
 20 21  1  0
 17 22  2  0
 22 23  1  0
 22  3  1  0
 13  8  1  0
 16 11  1  0
  1 24  1  0
  1 25  1  0
  1 26  1  0
  2 27  1  0
  2 28  1  0
  6 29  1  0
  7 30  1  6
  9 31  1  0
 10 32  1  0
 13 33  1  0
 15 34  1  0
 15 35  1  0
 21 36  1  0
 21 37  1  0
 21 38  1  0
 23 39  1  0
 23 40  1  0
 23 41  1  0
M  END
>  <UniqueID>  (23) 
22

>  <SMILES>  (23) 
CCN1C(=O)N[C@@H](c2ccc3c(c2)OCO3)C(C(=O)OC)=C1C

>  <Energy>  (23) 
73.47727105458314

>  <Genealogy>  (23) 
CCN1C(=O)N[C@@H](c2ccc3c(c2)OCO3)C(C(=O)OC)=C1C (chirality)
CCN1C(=O)N[C@@H](c2ccc3c(c2)OCO3)C(C(=O)OC)=C1C (3D coordinates assigned)
CCN1C(=O)N[C@@H](c2ccc3c(c2)OCO3)C(C(=O)OC)=C1C (nonaromatic ring conformer: 73.47727105458314 kcal/mol)

>  <smiles>  (23) 
CCN1C(=O)NC(c2ccc3c(c2)OCO3)C(C(=O)OC)=C1C

>  <score_type>  (23) 
oracle

>  <origin>  (23) 
adg

>  <m_score__min__energy>  (23) 
-6.1299999999999999

>  <m_primary>  (23) 
energy

$$$$
23:0
     RDKit          3D

 46 50  0  0  0  0  0  0  0  0999 V2000
   58.1850   33.2840   43.8100 O   0  0  0  0  0  0  0  0  0  0  0  0
   58.2080   32.4760   44.7780 C   0  0  0  0  0  0  0  0  0  0  0  0
   57.6020   31.1440   44.6150 C   0  0  0  0  0  0  0  0  0  0  0  0
   56.2620   30.8450   44.3770 C   0  0  0  0  0  0  0  0  0  0  0  0
   56.0870   29.5010   44.3270 N   0  0  0  0  0  0  0  0  0  0  0  0
   57.2740   28.9560   44.5360 N   0  0  0  0  0  0  0  0  0  0  0  0
   57.5680   27.6350   44.6020 C   0  0  0  0  0  0  0  0  0  0  0  0
   58.8930   27.2720   44.8750 C   0  0  0  0  0  0  0  0  0  0  0  0
   59.8480   28.2890   45.0780 C   0  0  0  0  0  0  0  0  0  0  0  0
   59.4860   29.6030   45.0030 N   0  0  0  0  0  0  0  0  0  0  0  0
   58.1960   29.9070   44.7170 C   0  0  0  0  0  0  0  0  0  0  0  0
   58.8140   32.8730   46.0190 N   0  0  0  0  0  0  0  0  0  0  0  0
   59.9090   32.0670   46.5850 C   0  0  0  0  0  0  0  0  0  0  0  0
   59.8440   32.0100   48.1240 C   0  0  0  0  0  0  0  0  0  0  0  0
   59.1820   33.2550   48.7560 C   0  0  0  0  0  0  0  0  0  0  0  0
   59.6960   33.5050   50.1120 N   0  0  0  0  0  0  0  0  0  0  0  0
   58.8960   33.6800   51.1500 N   0  0  0  0  0  0  0  0  0  0  0  0
   59.6950   33.8370   52.2220 C   0  0  0  0  0  0  0  0  0  0  0  0
   61.0040   33.7580   51.9060 N   0  0  0  0  0  0  0  0  0  0  0  0
   60.9680   33.5410   50.5770 C   0  0  0  0  0  0  0  0  0  0  0  0
   62.1900   33.4010   49.7730 C   0  0  0  0  0  0  0  0  0  0  0  0
   62.3380   34.1090   48.5750 C   0  0  0  0  0  0  0  0  0  0  0  0
   63.5040   33.9460   47.8230 C   0  0  0  0  0  0  0  0  0  0  0  0
   64.4740   33.0910   48.2460 N   0  0  0  0  0  0  0  0  0  0  0  0
   64.3430   32.3750   49.3930 C   0  0  0  0  0  0  0  0  0  0  0  0
   63.1920   32.5090   50.1740 C   0  0  0  0  0  0  0  0  0  0  0  0
   59.2910   34.4890   47.8460 C   0  0  0  0  0  0  0  0  0  0  0  0
   58.5440   34.2240   46.5330 C   0  0  0  0  0  0  0  0  0  0  0  0
   55.4630   31.5900   44.2485 H   0  0  0  0  0  0  0  0  0  0  0  0
   56.7910   26.8721   44.4462 H   0  0  0  0  0  0  0  0  0  0  0  0
   59.1832   26.2124   44.9300 H   0  0  0  0  0  0  0  0  0  0  0  0
   60.8921   28.0218   45.2983 H   0  0  0  0  0  0  0  0  0  0  0  0
   59.8394   31.0436   46.1879 H   0  0  0  0  0  0  0  0  0  0  0  0
   60.8615   32.5383   46.3010 H   0  0  0  0  0  0  0  0  0  0  0  0
   59.2654   31.1212   48.4160 H   0  0  0  0  0  0  0  0  0  0  0  0
   60.8799   31.9706   48.4919 H   0  0  0  0  0  0  0  0  0  0  0  0
   58.1072   33.0435   48.8567 H   0  0  0  0  0  0  0  0  0  0  0  0
   59.3219   34.0104   53.2422 H   0  0  0  0  0  0  0  0  0  0  0  0
   61.5441   34.7872   48.2289 H   0  0  0  0  0  0  0  0  0  0  0  0
   63.6380   34.5096   46.8879 H   0  0  0  0  0  0  0  0  0  0  0  0
   65.1436   31.6892   49.7072 H   0  0  0  0  0  0  0  0  0  0  0  0
   63.0743   31.9193   51.0951 H   0  0  0  0  0  0  0  0  0  0  0  0
   58.8457   35.3582   48.3521 H   0  0  0  0  0  0  0  0  0  0  0  0
   60.3502   34.6929   47.6303 H   0  0  0  0  0  0  0  0  0  0  0  0
   57.4634   34.3292   46.7097 H   0  0  0  0  0  0  0  0  0  0  0  0
   58.8930   34.9521   45.7860 H   0  0  0  0  0  0  0  0  0  0  0  0
  1  2  2  0
  2  3  1  0
  3  4  1  0
  4  5  2  0
  5  6  1  0
  6  7  1  0
  7  8  2  0
  8  9  1  0
  9 10  2  0
 10 11  1  0
  2 12  1  0
 12 13  1  0
 13 14  1  0
 14 15  1  0
 15 16  1  0
 16 17  1  0
 17 18  2  0
 18 19  1  0
 19 20  2  0
 20 21  1  0
 21 22  2  0
 22 23  1  0
 23 24  2  0
 24 25  1  0
 25 26  2  0
 15 27  1  0
 27 28  1  0
 11  3  2  0
 28 12  1  0
 11  6  1  0
 20 16  1  0
 26 21  1  0
  4 29  1  0
  7 30  1  0
  8 31  1  0
  9 32  1  0
 13 33  1  0
 13 34  1  0
 14 35  1  0
 14 36  1  0
 15 37  1  0
 18 38  1  0
 22 39  1  0
 23 40  1  0
 25 41  1  0
 26 42  1  0
 27 43  1  0
 27 44  1  0
 28 45  1  0
 28 46  1  0
M  END
>  <UniqueID>  (24) 
23

>  <SMILES>  (24) 
O=C(c1cnn2cccnc12)N1CCC(n2ncnc2-c2ccncc2)CC1

>  <Energy>  (24) 
137.1505812079848

>  <Genealogy>  (24) 
O=C(c1cnn2cccnc12)N1CCC(n2ncnc2-c2ccncc2)CC1 (3D coordinates assigned)
O=C(c1cnn2cccnc12)N1CCC(n2ncnc2-c2ccncc2)CC1 (nonaromatic ring conformer: 137.1505812079848 kcal/mol)

>  <smiles>  (24) 
O=C(c1cnn2cccnc12)N1CCC(n2ncnc2-c2ccncc2)CC1

>  <score_type>  (24) 
oracle

>  <origin>  (24) 
adg

>  <m_score__min__energy>  (24) 
-8.3499999999999996

>  <m_primary>  (24) 
energy

$$$$
24:0
     RDKit          3D

 41 43  0  0  0  0  0  0  0  0999 V2000
   58.3680   24.8340   45.7140 C   0  0  0  0  0  0  0  0  0  0  0  0
   59.5550   25.7230   45.9950 C   0  0  0  0  0  0  0  0  0  0  0  0
   59.0970   27.1190   45.7760 C   0  0  0  0  0  0  0  0  0  0  0  0
   57.8750   27.6340   45.4490 C   0  0  0  0  0  0  0  0  0  0  0  0
   57.7660   28.9610   45.3160 C   0  0  0  0  0  0  0  0  0  0  0  0
   56.6040   29.7050   44.9860 C   0  0  0  0  0  0  0  0  0  0  0  0
   55.5080   29.1710   44.7740 O   0  0  0  0  0  0  0  0  0  0  0  0
   56.6960   31.0400   44.8980 N   0  0  0  0  0  0  0  0  0  0  0  0
   57.7950   31.7660   45.0940 C   0  0  0  0  0  0  0  0  0  0  0  0
   57.8040   33.2380   44.9770 C   0  0  0  0  0  0  0  0  0  0  0  0
   59.0810   33.8110   45.3420 N   0  0  0  0  0  0  0  0  0  0  0  0
   59.2570   35.1460   44.8630 C   0  0  0  0  0  0  0  0  0  0  0  0
   59.3640   33.6970   46.7380 C   0  0  0  0  0  0  0  0  0  0  0  0
   60.7520   33.2140   47.0140 C   0  0  0  0  0  0  0  0  0  0  0  0
   61.8720   33.8850   46.5450 C   0  0  0  0  0  0  0  0  0  0  0  0
   63.1420   33.4230   46.8100 C   0  0  0  0  0  0  0  0  0  0  0  0
   63.3560   32.2780   47.5510 C   0  0  0  0  0  0  0  0  0  0  0  0
   62.2410   31.6010   48.0230 C   0  0  0  0  0  0  0  0  0  0  0  0
   60.9720   32.0640   47.7570 C   0  0  0  0  0  0  0  0  0  0  0  0
   58.9240   31.0650   45.4140 N   0  0  0  0  0  0  0  0  0  0  0  0
   58.8740   29.7240   45.5110 C   0  0  0  0  0  0  0  0  0  0  0  0
   60.1920   28.5830   45.9120 S   0  0  0  0  0  0  0  0  0  0  0  0
   57.9251   24.5023   46.6647 H   0  0  0  0  0  0  0  0  0  0  0  0
   57.6185   25.3948   45.1363 H   0  0  0  0  0  0  0  0  0  0  0  0
   58.6953   23.9570   45.1363 H   0  0  0  0  0  0  0  0  0  0  0  0
   59.8906   25.5917   47.0343 H   0  0  0  0  0  0  0  0  0  0  0  0
   60.4024   25.4746   45.3391 H   0  0  0  0  0  0  0  0  0  0  0  0
   57.0056   26.9769   45.2993 H   0  0  0  0  0  0  0  0  0  0  0  0
   57.5786   33.5112   43.9356 H   0  0  0  0  0  0  0  0  0  0  0  0
   57.0473   33.6348   45.6698 H   0  0  0  0  0  0  0  0  0  0  0  0
   59.3476   35.8331   45.7172 H   0  0  0  0  0  0  0  0  0  0  0  0
   60.1699   35.1988   44.2516 H   0  0  0  0  0  0  0  0  0  0  0  0
   58.3890   35.4336   44.2516 H   0  0  0  0  0  0  0  0  0  0  0  0
   59.2376   34.6856   47.2034 H   0  0  0  0  0  0  0  0  0  0  0  0
   58.6677   32.9551   47.1559 H   0  0  0  0  0  0  0  0  0  0  0  0
   61.7434   34.8020   45.9512 H   0  0  0  0  0  0  0  0  0  0  0  0
   64.0073   33.9801   46.4216 H   0  0  0  0  0  0  0  0  0  0  0  0
   64.3735   31.9157   47.7595 H   0  0  0  0  0  0  0  0  0  0  0  0
   62.3722   30.6841   48.6164 H   0  0  0  0  0  0  0  0  0  0  0  0
   60.1075   31.5055   48.1451 H   0  0  0  0  0  0  0  0  0  0  0  0
   59.8260   31.5590   45.5830 H   0  0  0  0  0  0  0  0  0  0  0  0
  1  2  1  0
  2  3  1  0
  3  4  2  0
  4  5  1  0
  5  6  1  0
  6  7  2  0
  6  8  1  0
  8  9  2  0
  9 10  1  0
 10 11  1  0
 11 12  1  0
 11 13  1  0
 13 14  1  0
 14 15  2  0
 15 16  1  0
 16 17  2  0
 17 18  1  0
 18 19  2  0
  9 20  1  0
 20 21  1  0
 21 22  1  0
 22  3  1  0
 21  5  2  0
 19 14  1  0
  1 23  1  0
  1 24  1  0
  1 25  1  0
  2 26  1  0
  2 27  1  0
  4 28  1  0
 10 29  1  0
 10 30  1  0
 12 31  1  0
 12 32  1  0
 12 33  1  0
 13 34  1  0
 13 35  1  0
 15 36  1  0
 16 37  1  0
 17 38  1  0
 18 39  1  0
 19 40  1  0
 20 41  1  0
M  END
>  <smiles>  (25) 
CCc1cc2c(=O)nc(CN(C)Cc3ccccc3)[nH]c2s1

>  <score_type>  (25) 
oracle

>  <origin>  (25) 
adg

>  <m_score__min__energy>  (25) 
-7.9500000000000002

>  <m_primary>  (25) 
energy

$$$$
25:0
     RDKit          3D

 33 34  0  0  0  0  0  0  0  0999 V2000
   55.0120   30.4590   44.0810 O   0  0  0  0  0  0  0  0  0  0  0  0
   56.1940   30.3250   44.5000 C   0  0  0  0  0  0  0  0  0  0  0  0
   56.8050   28.9630   44.5880 C   0  0  0  0  0  0  0  0  0  0  0  0
   55.9050   28.0580   45.2930 N   0  0  0  0  0  0  0  0  0  0  0  0
   56.3420   26.8730   45.9710 C   0  0  0  0  0  0  0  0  0  0  0  0
   55.4900   26.0310   46.3670 O   0  0  0  0  0  0  0  0  0  0  0  0
   57.7860   26.6580   46.2290 C   0  0  0  0  0  0  0  0  0  0  0  0
   58.4970   27.6260   46.9640 C   0  0  0  0  0  0  0  0  0  0  0  0
   59.8560   27.4570   47.2400 C   0  0  0  0  0  0  0  0  0  0  0  0
   60.5270   26.3240   46.7830 C   0  0  0  0  0  0  0  0  0  0  0  0
   59.8430   25.3590   46.0430 C   0  0  0  0  0  0  0  0  0  0  0  0
   58.4800   25.5150   45.7580 C   0  0  0  0  0  0  0  0  0  0  0  0
   57.7160   24.2820   44.7560 Cl  0  0  0  0  0  0  0  0  0  0  0  0
   56.9360   31.4620   44.9460 N   0  0  0  0  0  0  0  0  0  0  0  0
   58.2450   31.3610   45.5730 C   0  0  0  0  0  0  0  0  0  0  0  0
   58.7550   32.7400   45.8750 C   0  0  0  0  0  0  0  0  0  0  0  0
   59.1810   33.0810   47.1670 C   0  0  0  0  0  0  0  0  0  0  0  0
   59.6120   34.3810   47.4380 C   0  0  0  0  0  0  0  0  0  0  0  0
   59.6010   35.3320   46.4170 C   0  0  0  0  0  0  0  0  0  0  0  0
   59.1700   34.9930   45.1730 N   0  0  0  0  0  0  0  0  0  0  0  0
   58.7470   33.7320   44.8830 C   0  0  0  0  0  0  0  0  0  0  0  0
   56.9868   28.5789   43.5734 H   0  0  0  0  0  0  0  0  0  0  0  0
   57.7555   29.0282   45.1378 H   0  0  0  0  0  0  0  0  0  0  0  0
   57.9765   28.5254   47.3249 H   0  0  0  0  0  0  0  0  0  0  0  0
   60.3975   28.2195   47.8191 H   0  0  0  0  0  0  0  0  0  0  0  0
   61.5959   26.1906   47.0058 H   0  0  0  0  0  0  0  0  0  0  0  0
   60.3779   24.4688   45.6805 H   0  0  0  0  0  0  0  0  0  0  0  0
   58.1621   30.7865   46.5074 H   0  0  0  0  0  0  0  0  0  0  0  0
   58.9422   30.8497   44.8929 H   0  0  0  0  0  0  0  0  0  0  0  0
   59.1755   32.3250   47.9660 H   0  0  0  0  0  0  0  0  0  0  0  0
   59.9569   34.6529   48.4465 H   0  0  0  0  0  0  0  0  0  0  0  0
   59.9418   36.3582   46.6191 H   0  0  0  0  0  0  0  0  0  0  0  0
   58.3980   33.4902   43.8682 H   0  0  0  0  0  0  0  0  0  0  0  0
  1  2  2  0
  2  3  1  0
  3  4  1  0
  4  5  1  0
  5  6  2  0
  5  7  1  0
  7  8  2  0
  8  9  1  0
  9 10  2  0
 10 11  1  0
 11 12  2  0
 12 13  1  0
  2 14  1  0
 14 15  1  0
 15 16  1  0
 16 17  2  0
 17 18  1  0
 18 19  2  0
 19 20  1  0
 20 21  2  0
 12  7  1  0
 21 16  1  0
  3 22  1  0
  3 23  1  0
  8 24  1  0
  9 25  1  0
 10 26  1  0
 11 27  1  0
 15 28  1  0
 15 29  1  0
 17 30  1  0
 18 31  1  0
 19 32  1  0
 21 33  1  0
M  CHG  2   4  -1  14  -1
M  END
>  <UniqueID>  (26) 
24

>  <SMILES>  (26) 
O=C(C[N-]C(=O)c1ccccc1Cl)[N-]Cc1cccnc1

>  <Energy>  (26) 
32.388616466526074

>  <Genealogy>  (26) 
O=C(C[N-]C(=O)c1ccccc1Cl)[N-]Cc1cccnc1 (protonated)
O=C(C[N-]C(=O)c1ccccc1Cl)[N-]Cc1cccnc1 (3D coordinates assigned)
O=C(C[N-]C(=O)c1ccccc1Cl)[N-]Cc1cccnc1 (optimized conformer: 32.388616466526074 kcal/mol)

>  <smiles>  (26) 
O=C(CNC(=O)c1ccccc1Cl)NCc1cccnc1

>  <score_type>  (26) 
oracle

>  <origin>  (26) 
adg

>  <m_score__min__energy>  (26) 
-11.279999999999999

>  <m_primary>  (26) 
energy

$$$$
26:0
     RDKit          3D

 47 51  0  0  0  0  0  0  0  0999 V2000
   57.2180   29.0800   45.9020 O   0  0  0  0  0  0  0  0  0  0  0  0
   58.4560   28.8700   45.7680 C   0  0  0  0  0  0  0  0  0  0  0  0
   59.4220   30.0190   45.8010 C   0  0  0  0  0  0  0  0  0  0  0  0
   58.7450   31.2990   45.5370 N   0  0  0  0  0  0  0  0  0  0  0  0
   57.7410   31.3710   44.4650 C   0  0  0  0  0  0  0  0  0  0  0  0
   57.9490   32.6400   43.6440 C   0  0  0  0  0  0  0  0  0  0  0  0
   57.8090   33.8760   44.5400 C   0  0  0  0  0  0  0  0  0  0  0  0
   58.6330   33.7640   45.8010 C   0  0  0  0  0  0  0  0  0  0  0  0
   58.9220   34.9290   46.5310 C   0  0  0  0  0  0  0  0  0  0  0  0
   59.6320   34.8560   47.7300 C   0  0  0  0  0  0  0  0  0  0  0  0
   60.0490   33.6180   48.2210 C   0  0  0  0  0  0  0  0  0  0  0  0
   59.7590   32.4470   47.5140 C   0  0  0  0  0  0  0  0  0  0  0  0
   59.0460   32.5000   46.2960 C   0  0  0  0  0  0  0  0  0  0  0  0
   58.9450   27.5470   45.4930 N   0  0  0  0  0  0  0  0  0  0  0  0
   58.1460   26.3590   45.6040 C   0  0  0  0  0  0  0  0  0  0  0  0
   58.7880   25.0920   45.6510 C   0  0  0  0  0  0  0  0  0  0  0  0
   58.0390   23.9060   45.7780 C   0  0  0  0  0  0  0  0  0  0  0  0
   56.6560   24.0250   45.8710 C   0  0  0  0  0  0  0  0  0  0  0  0
   55.7520   23.0410   46.0110 N   0  0  0  0  0  0  0  0  0  0  0  0
   54.5850   23.7400   46.0630 C   0  0  0  0  0  0  0  0  0  0  0  0
   53.2720   23.1080   46.2190 C   0  0  0  0  0  0  0  0  0  0  0  0
   52.7600   22.5770   47.3860 C   0  0  0  0  0  0  0  0  0  0  0  0
   51.5060   22.1060   47.0590 C   0  0  0  0  0  0  0  0  0  0  0  0
   51.3340   22.3750   45.7150 C   0  0  0  0  0  0  0  0  0  0  0  0
   52.4030   22.9740   45.2430 O   0  0  0  0  0  0  0  0  0  0  0  0
   54.7470   25.0500   45.9640 O   0  0  0  0  0  0  0  0  0  0  0  0
   56.0340   25.2360   45.8450 C   0  0  0  0  0  0  0  0  0  0  0  0
   56.7340   26.4320   45.7190 C   0  0  0  0  0  0  0  0  0  0  0  0
   59.8932   30.0617   46.7940 H   0  0  0  0  0  0  0  0  0  0  0  0
   60.1766   29.8589   45.0168 H   0  0  0  0  0  0  0  0  0  0  0  0
   57.8422   30.4925   43.8108 H   0  0  0  0  0  0  0  0  0  0  0  0
   56.7355   31.3885   44.9107 H   0  0  0  0  0  0  0  0  0  0  0  0
   58.9551   32.6249   43.1995 H   0  0  0  0  0  0  0  0  0  0  0  0
   57.1894   32.6833   42.8495 H   0  0  0  0  0  0  0  0  0  0  0  0
   58.1414   34.7608   43.9772 H   0  0  0  0  0  0  0  0  0  0  0  0
   56.7525   33.9616   44.8340 H   0  0  0  0  0  0  0  0  0  0  0  0
   58.5859   35.9064   46.1544 H   0  0  0  0  0  0  0  0  0  0  0  0
   59.8632   35.7750   48.2886 H   0  0  0  0  0  0  0  0  0  0  0  0
   60.6075   33.5632   49.1671 H   0  0  0  0  0  0  0  0  0  0  0  0
   60.0893   31.4754   47.9102 H   0  0  0  0  0  0  0  0  0  0  0  0
   59.9080   27.4570   45.0970 H   0  0  0  0  0  0  0  0  0  0  0  0
   59.8848   25.0368   45.5873 H   0  0  0  0  0  0  0  0  0  0  0  0
   58.5295   22.9217   45.8027 H   0  0  0  0  0  0  0  0  0  0  0  0
   53.2497   22.5379   48.3702 H   0  0  0  0  0  0  0  0  0  0  0  0
   50.7878   21.6152   47.7323 H   0  0  0  0  0  0  0  0  0  0  0  0
   50.4373   22.1252   45.1289 H   0  0  0  0  0  0  0  0  0  0  0  0
   56.2110   27.3997   45.7089 H   0  0  0  0  0  0  0  0  0  0  0  0
  1  2  2  0
  2  3  1  0
  3  4  1  0
  4  5  1  0
  5  6  1  0
  6  7  1  0
  7  8  1  0
  8  9  2  0
  9 10  1  0
 10 11  2  0
 11 12  1  0
 12 13  2  0
  2 14  1  0
 14 15  1  0
 15 16  2  0
 16 17  1  0
 17 18  2  0
 18 19  1  0
 19 20  2  0
 20 21  1  0
 21 22  2  0
 22 23  1  0
 23 24  2  0
 24 25  1  0
 20 26  1  0
 26 27  1  0
 27 28  2  0
 13  4  1  0
 28 15  1  0
 13  8  1  0
 27 18  1  0
 25 21  1  0
  3 29  1  0
  3 30  1  0
  5 31  1  0
  5 32  1  0
  6 33  1  0
  6 34  1  0
  7 35  1  0
  7 36  1  0
  9 37  1  0
 10 38  1  0
 11 39  1  0
 12 40  1  0
 14 41  1  0
 16 42  1  0
 17 43  1  0
 22 44  1  0
 23 45  1  0
 24 46  1  0
 28 47  1  0
M  END
>  <UniqueID>  (27) 
25

>  <SMILES>  (27) 
O=C(CN1CCCc2ccccc21)Nc1ccc2nc(-c3ccco3)oc2c1

>  <Energy>  (27) 
118.43983050543326

>  <Genealogy>  (27) 
O=C(CN1CCCc2ccccc21)Nc1ccc2nc(-c3ccco3)oc2c1 (3D coordinates assigned)
O=C(CN1CCCc2ccccc21)Nc1ccc2nc(-c3ccco3)oc2c1 (nonaromatic ring conformer: 118.43983050543326 kcal/mol)

>  <smiles>  (27) 
O=C(CN1CCCc2ccccc21)Nc1ccc2nc(-c3ccco3)oc2c1

>  <score_type>  (27) 
oracle

>  <origin>  (27) 
adg

>  <m_score__min__energy>  (27) 
-8.9700000000000006

>  <m_primary>  (27) 
energy

$$$$
27:0
     RDKit          3D

 49 52  0  0  0  0  0  0  0  0999 V2000
   65.5260   33.0450   50.4830 C   0  0  0  0  0  0  0  0  0  0  0  0
   64.3070   32.3350   50.0670 N   0  0  0  0  0  0  0  0  0  0  0  0
   64.1280   32.4360   48.6010 C   0  0  0  0  0  0  0  0  0  0  0  0
   62.6670   32.1830   48.2010 C   0  0  0  0  0  0  0  0  0  0  0  0
   61.7420   33.1840   48.7940 N   0  0  0  0  0  0  0  0  0  0  0  0
   61.3620   34.2270   47.8140 C   0  0  0  0  0  0  0  0  0  0  0  0
   59.8480   34.2390   47.5610 C   0  0  0  0  0  0  0  0  0  0  0  0
   59.4240   32.9920   46.9230 N   0  0  0  0  0  0  0  0  0  0  0  0
   59.7550   31.7810   47.3380 N   0  0  0  0  0  0  0  0  0  0  0  0
   59.1410   30.8930   46.5260 C   0  0  0  0  0  0  0  0  0  0  0  0
   59.3560   29.4360   46.6200 C   0  0  0  0  0  0  0  0  0  0  0  0
   59.0910   28.7470   47.8150 C   0  0  0  0  0  0  0  0  0  0  0  0
   59.2710   27.3620   47.8850 C   0  0  0  0  0  0  0  0  0  0  0  0
   59.7010   26.6540   46.7600 C   0  0  0  0  0  0  0  0  0  0  0  0
   59.9470   27.3300   45.5610 C   0  0  0  0  0  0  0  0  0  0  0  0
   59.7680   28.7140   45.4870 C   0  0  0  0  0  0  0  0  0  0  0  0
   58.3980   31.5330   45.5850 N   0  0  0  0  0  0  0  0  0  0  0  0
   57.4890   30.9980   44.6090 C   0  0  0  0  0  0  0  0  0  0  0  0
   56.5210   30.1070   44.9140 N   0  0  0  0  0  0  0  0  0  0  0  0
   55.8500   29.6920   43.8070 C   0  0  0  0  0  0  0  0  0  0  0  0
   56.2960   30.2350   42.6070 C   0  0  0  0  0  0  0  0  0  0  0  0
   57.5750   31.2710   42.9490 S   0  0  0  0  0  0  0  0  0  0  0  0
   58.6030   32.8370   45.8670 C   0  0  0  0  0  0  0  0  0  0  0  0
   58.0740   33.7920   45.2350 O   0  0  0  0  0  0  0  0  0  0  0  0
   62.2580   33.7830   50.0510 C   0  0  0  0  0  0  0  0  0  0  0  0
   63.1240   32.7900   50.8410 C   0  0  0  0  0  0  0  0  0  0  0  0
   65.5764   33.0744   51.5815 H   0  0  0  0  0  0  0  0  0  0  0  0
   66.4087   32.5197   50.0893 H   0  0  0  0  0  0  0  0  0  0  0  0
   65.5046   34.0719   50.0893 H   0  0  0  0  0  0  0  0  0  0  0  0
   64.4205   33.4442   48.2725 H   0  0  0  0  0  0  0  0  0  0  0  0
   64.7579   31.6733   48.1199 H   0  0  0  0  0  0  0  0  0  0  0  0
   62.5862   32.2313   47.1050 H   0  0  0  0  0  0  0  0  0  0  0  0
   62.3797   31.1911   48.5799 H   0  0  0  0  0  0  0  0  0  0  0  0
   61.6670   35.2100   48.2023 H   0  0  0  0  0  0  0  0  0  0  0  0
   61.8683   34.0065   46.8627 H   0  0  0  0  0  0  0  0  0  0  0  0
   59.3218   34.3517   48.5204 H   0  0  0  0  0  0  0  0  0  0  0  0
   59.6059   35.0795   46.8940 H   0  0  0  0  0  0  0  0  0  0  0  0
   60.3990   31.5700   48.1350 H   0  0  0  0  0  0  0  0  0  0  0  0
   58.7404   29.2992   48.6994 H   0  0  0  0  0  0  0  0  0  0  0  0
   59.0738   26.8293   48.8270 H   0  0  0  0  0  0  0  0  0  0  0  0
   59.8460   25.5651   46.8174 H   0  0  0  0  0  0  0  0  0  0  0  0
   60.2820   26.7715   44.6745 H   0  0  0  0  0  0  0  0  0  0  0  0
   59.9503   29.2402   44.5384 H   0  0  0  0  0  0  0  0  0  0  0  0
   55.0145   28.9782   43.8569 H   0  0  0  0  0  0  0  0  0  0  0  0
   55.8842   30.0237   41.6091 H   0  0  0  0  0  0  0  0  0  0  0  0
   62.8653   34.6657   49.8020 H   0  0  0  0  0  0  0  0  0  0  0  0
   61.3970   34.0601   50.6770 H   0  0  0  0  0  0  0  0  0  0  0  0
   63.4712   33.2789   51.7632 H   0  0  0  0  0  0  0  0  0  0  0  0
   62.5067   31.9070   51.0628 H   0  0  0  0  0  0  0  0  0  0  0  0
  1  2  1  0
  2  3  1  0
  3  4  1  0
  4  5  1  0
  5  6  1  0
  6  7  1  0
  7  8  1  0
  8  9  1  0
  9 10  2  0
 10 11  1  0
 11 12  2  0
 12 13  1  0
 13 14  2  0
 14 15  1  0
 15 16  2  0
 10 17  1  0
 17 18  1  0
 18 19  2  0
 19 20  1  0
 20 21  2  0
 21 22  1  0
 17 23  1  0
 23 24  2  0
  5 25  1  0
 25 26  1  0
 26  2  1  0
 23  8  1  0
 16 11  1  0
 22 18  1  0
  1 27  1  0
  1 28  1  0
  1 29  1  0
  3 30  1  0
  3 31  1  0
  4 32  1  0
  4 33  1  0
  6 34  1  0
  6 35  1  0
  7 36  1  0
  7 37  1  0
  9 38  1  0
 12 39  1  0
 13 40  1  0
 14 41  1  0
 15 42  1  0
 16 43  1  0
 20 44  1  0
 21 45  1  0
 25 46  1  0
 25 47  1  0
 26 48  1  0
 26 49  1  0
M  CHG  1   9   1
M  END
>  <UniqueID>  (28) 
26

>  <SMILES>  (28) 
CN1CCN(CCn2[nH+]c(-c3ccccc3)n(-c3nccs3)c2=O)CC1

>  <Energy>  (28) 
138.40954820704866

>  <Genealogy>  (28) 
CN1CCN(CCn2[nH+]c(-c3ccccc3)n(-c3nccs3)c2=O)CC1 (protonated)
CN1CCN(CCn2[nH+]c(-c3ccccc3)n(-c3nccs3)c2=O)CC1 (3D coordinates assigned)
CN1CCN(CCn2[nH+]c(-c3ccccc3)n(-c3nccs3)c2=O)CC1 (nonaromatic ring conformer: 138.40954820704866 kcal/mol)

>  <smiles>  (28) 
CN1CCN(CCn2nc(-c3ccccc3)n(-c3nccs3)c2=O)CC1

>  <score_type>  (28) 
oracle

>  <origin>  (28) 
adg

>  <m_score__min__energy>  (28) 
-6.8200000000000003

>  <m_primary>  (28) 
energy

$$$$
28:0
     RDKit          3D

 48 50  0  0  0  0  0  0  0  0999 V2000
   56.5490   23.9250   43.3660 C   0  0  0  0  0  0  0  0  0  0  0  0
   57.3980   24.7760   43.9510 C   0  0  0  0  0  0  0  0  0  0  0  0
   57.7680   26.0960   43.3190 C   0  0  0  0  0  0  0  0  0  0  0  0
   57.6730   27.2130   44.2880 N   0  0  0  0  0  0  0  0  0  0  0  0
   58.8330   28.1380   44.1440 C   0  0  0  0  0  0  0  0  0  0  0  0
   59.9350   27.8570   45.1810 C   0  0  0  0  0  0  0  0  0  0  0  0
   59.4430   28.0150   46.5750 N   0  0  0  0  0  0  0  0  0  0  0  0
   59.7910   29.3440   47.1230 C   0  0  0  0  0  0  0  0  0  0  0  0
   58.5340   30.1880   47.3880 C   0  0  0  0  0  0  0  0  0  0  0  0
   58.3680   31.2060   46.3380 N   0  0  0  0  0  0  0  0  0  0  0  0
   57.4870   30.9390   45.2250 C   0  0  0  0  0  0  0  0  0  0  0  0
   56.8950   29.8280   45.1260 O   0  0  0  0  0  0  0  0  0  0  0  0
   57.3140   31.9590   44.1410 C   0  0  0  0  0  0  0  0  0  0  0  0
   57.3910   33.3720   44.7200 C   0  0  0  0  0  0  0  0  0  0  0  0
   58.6260   33.5410   45.5660 C   0  0  0  0  0  0  0  0  0  0  0  0
   59.2860   34.7800   45.6040 C   0  0  0  0  0  0  0  0  0  0  0  0
   60.4090   34.9530   46.4150 C   0  0  0  0  0  0  0  0  0  0  0  0
   60.8750   33.8970   47.1970 C   0  0  0  0  0  0  0  0  0  0  0  0
   60.2170   32.6640   47.1820 C   0  0  0  0  0  0  0  0  0  0  0  0
   59.0740   32.4730   46.3780 C   0  0  0  0  0  0  0  0  0  0  0  0
   57.9920   27.7290   46.7140 C   0  0  0  0  0  0  0  0  0  0  0  0
   57.5150   26.7020   45.6780 C   0  0  0  0  0  0  0  0  0  0  0  0
   56.3018   22.9713   43.8553 H   0  0  0  0  0  0  0  0  0  0  0  0
   56.0977   24.1785   42.3954 H   0  0  0  0  0  0  0  0  0  0  0  0
   57.8400   24.5064   44.9215 H   0  0  0  0  0  0  0  0  0  0  0  0
   58.8007   26.0352   42.9451 H   0  0  0  0  0  0  0  0  0  0  0  0
   57.0627   26.2930   42.4982 H   0  0  0  0  0  0  0  0  0  0  0  0
   56.8140   27.7640   44.0500 H   0  0  0  0  0  0  0  0  0  0  0  0
   59.2571   28.0196   43.1360 H   0  0  0  0  0  0  0  0  0  0  0  0
   58.4691   29.1630   44.3083 H   0  0  0  0  0  0  0  0  0  0  0  0
   60.2946   26.8262   45.0463 H   0  0  0  0  0  0  0  0  0  0  0  0
   60.7439   28.5853   45.0222 H   0  0  0  0  0  0  0  0  0  0  0  0
   60.3376   29.2095   48.0681 H   0  0  0  0  0  0  0  0  0  0  0  0
   60.4126   29.8712   46.3842 H   0  0  0  0  0  0  0  0  0  0  0  0
   57.6519   29.5309   47.3983 H   0  0  0  0  0  0  0  0  0  0  0  0
   58.6414   30.6923   48.3597 H   0  0  0  0  0  0  0  0  0  0  0  0
   58.1096   31.8305   43.3923 H   0  0  0  0  0  0  0  0  0  0  0  0
   56.3282   31.8186   43.6736 H   0  0  0  0  0  0  0  0  0  0  0  0
   57.4182   34.0983   43.8943 H   0  0  0  0  0  0  0  0  0  0  0  0
   56.5068   33.5409   45.3521 H   0  0  0  0  0  0  0  0  0  0  0  0
   58.9169   35.6168   44.9928 H   0  0  0  0  0  0  0  0  0  0  0  0
   60.9267   35.9233   46.4371 H   0  0  0  0  0  0  0  0  0  0  0  0
   61.7648   34.0349   47.8288 H   0  0  0  0  0  0  0  0  0  0  0  0
   60.5932   31.8367   47.8016 H   0  0  0  0  0  0  0  0  0  0  0  0
   57.8015   27.3332   47.7225 H   0  0  0  0  0  0  0  0  0  0  0  0
   57.4400   28.6659   46.5480 H   0  0  0  0  0  0  0  0  0  0  0  0
   58.1064   25.7812   45.7894 H   0  0  0  0  0  0  0  0  0  0  0  0
   56.4470   26.5060   45.8537 H   0  0  0  0  0  0  0  0  0  0  0  0
  1  2  2  0
  2  3  1  0
  3  4  1  0
  4  5  1  0
  5  6  1  0
  6  7  1  0
  7  8  1  0
  8  9  1  0
  9 10  1  0
 10 11  1  0
 11 12  2  0
 11 13  1  0
 13 14  1  0
 14 15  1  0
 15 16  2  0
 16 17  1  0
 17 18  2  0
 18 19  1  0
 19 20  2  0
  7 21  1  0
 21 22  1  0
 22  4  1  0
 20 10  1  0
 20 15  1  0
  1 23  1  0
  1 24  1  0
  2 25  1  0
  3 26  1  0
  3 27  1  0
  4 28  1  0
  5 29  1  0
  5 30  1  0
  6 31  1  0
  6 32  1  0
  8 33  1  0
  8 34  1  0
  9 35  1  0
  9 36  1  0
 13 37  1  0
 13 38  1  0
 14 39  1  0
 14 40  1  0
 16 41  1  0
 17 42  1  0
 18 43  1  0
 19 44  1  0
 21 45  1  0
 21 46  1  0
 22 47  1  0
 22 48  1  0
M  CHG  1   4   1
M  END
>  <UniqueID>  (29) 
27

>  <SMILES>  (29) 
C=CC[NH+]1CCN(CCN2C(=O)CCc3ccccc32)CC1

>  <Energy>  (29) 
62.478005892908826

>  <Genealogy>  (29) 
C=CC[NH+]1CCN(CCN2C(=O)CCc3ccccc32)CC1 (protonated)
C=CC[NH+]1CCN(CCN2C(=O)CCc3ccccc32)CC1 (3D coordinates assigned)
C=CC[NH+]1CCN(CCN2C(=O)CCc3ccccc32)CC1 (nonaromatic ring conformer: 62.478005892908826 kcal/mol)

>  <smiles>  (29) 
C=CCN1CCN(CCN2C(=O)CCc3ccccc32)CC1

>  <score_type>  (29) 
oracle

>  <origin>  (29) 
adg

>  <m_score__min__energy>  (29) 
-5.6399999999999997

>  <m_primary>  (29) 
energy

$$$$
29:0
     RDKit          3D

 24 25  0  0  0  0  0  0  0  0999 V2000
   57.1865   29.0591   44.9687 H   0  0  0  0  0  0  0  0  0  0  0  0
   56.3400   29.4850   44.4100 C   0  0  0  0  0  0  0  0  0  0  0  0
   55.1730   29.3490   44.8640 O   0  0  0  0  0  0  0  0  0  0  0  0
   56.5980   30.2000   43.1500 C   0  0  0  0  0  0  0  0  0  0  0  0
   56.0661   29.8833   42.2407 H   0  0  0  0  0  0  0  0  0  0  0  0
   57.4600   31.2250   43.0730 C   0  0  0  0  0  0  0  0  0  0  0  0
   57.8714   31.4699   42.0826 H   0  0  0  0  0  0  0  0  0  0  0  0
   57.9020   32.0560   44.2260 C   0  0  0  0  0  0  0  0  0  0  0  0
   57.7580   33.4510   44.1270 C   0  0  0  0  0  0  0  0  0  0  0  0
   57.3275   33.8875   43.2137 H   0  0  0  0  0  0  0  0  0  0  0  0
   58.1530   34.2910   45.1700 C   0  0  0  0  0  0  0  0  0  0  0  0
   58.0323   35.3800   45.0720 H   0  0  0  0  0  0  0  0  0  0  0  0
   58.7020   33.7530   46.3400 C   0  0  0  0  0  0  0  0  0  0  0  0
   59.1010   34.5900   47.3950 C   0  0  0  0  0  0  0  0  0  0  0  0
   58.9834   35.6800   47.3054 H   0  0  0  0  0  0  0  0  0  0  0  0
   59.6470   34.0410   48.5580 C   0  0  0  0  0  0  0  0  0  0  0  0
   59.9580   34.6999   49.3821 H   0  0  0  0  0  0  0  0  0  0  0  0
   59.7990   32.6570   48.6770 C   0  0  0  0  0  0  0  0  0  0  0  0
   60.2305   32.2301   49.5944 H   0  0  0  0  0  0  0  0  0  0  0  0
   59.4050   31.8130   47.6350 C   0  0  0  0  0  0  0  0  0  0  0  0
   59.5258   30.7242   47.7351 H   0  0  0  0  0  0  0  0  0  0  0  0
   58.8550   32.3520   46.4600 C   0  0  0  0  0  0  0  0  0  0  0  0
   58.4560   31.5130   45.4060 C   0  0  0  0  0  0  0  0  0  0  0  0
   58.5762   30.4237   45.5008 H   0  0  0  0  0  0  0  0  0  0  0  0
  1  2  1  0
  2  3  2  0
  2  4  1  0
  4  5  1  0
  4  6  2  0
  6  7  1  0
  6  8  1  0
  8  9  2  0
  9 10  1  0
  9 11  1  0
 11 12  1  0
 11 13  2  0
 13 14  1  0
 14 15  1  0
 14 16  2  0
 16 17  1  0
 16 18  1  0
 18 19  1  0
 18 20  2  0
 20 21  1  0
 20 22  1  0
 22 23  2  0
 23 24  1  0
 23  8  1  0
 22 13  1  0
M  END
>  <UniqueID>  (30) 
28

>  <SMILES>  (30) 
O=C/C=C/c1ccc2ccccc2c1

>  <Energy>  (30) 
29.26253557544685

>  <Genealogy>  (30) 
O=C/C=C/c1ccc2ccccc2c1 (cis-trans isomerization)
O=C/C=C/c1ccc2ccccc2c1 (3D coordinates assigned)
O=C/C=C/c1ccc2ccccc2c1 (optimized conformer: 29.26253557544685 kcal/mol)

>  <smiles>  (30) 
O=CC=Cc1ccc2ccccc2c1

>  <score_type>  (30) 
oracle

>  <origin>  (30) 
adg

>  <m_score__min__energy>  (30) 
-6.5700000000000003

>  <m_primary>  (30) 
energy

$$$$
30:0
     RDKit          3D

 53 54  0  0  0  0  0  0  0  0999 V2000
   59.9930   34.1830   48.3230 C   0  0  0  0  0  0  0  0  0  0  0  0
   58.9570   33.8270   47.5600 C   0  0  0  0  0  0  0  0  0  0  0  0
   58.8020   34.2210   46.1350 C   0  0  0  0  0  0  0  0  0  0  0  0
   59.6310   35.1420   45.6310 C   0  0  0  0  0  0  0  0  0  0  0  0
   57.7110   33.6420   45.2570 C   0  0  0  0  0  0  0  0  0  0  0  0
   57.4830   32.1570   45.5720 C   0  0  0  0  0  0  0  0  0  0  0  0
   58.3040   31.1260   44.7170 C   0  0  2  0  0  0  0  0  0  0  0  0
   57.5670   30.5860   43.4480 C   0  0  2  0  0  0  0  0  0  0  0  0
   57.3990   31.5900   42.2900 C   0  0  0  0  0  0  0  0  0  0  0  0
   56.3010   29.9030   43.8620 C   0  0  0  0  0  0  0  0  0  0  0  0
   55.2900   29.9870   43.1790 O   0  0  0  0  0  0  0  0  0  0  0  0
   56.2770   29.0840   45.1210 C   0  0  0  0  0  0  0  0  0  0  0  0
   57.6840   28.7470   45.7290 C   0  0  1  0  0  0  0  0  0  0  0  0
   58.1640   27.2700   45.4260 C   0  0  0  0  0  0  0  0  0  0  0  0
   57.2470   26.2430   46.1510 C   0  0  0  0  0  0  0  0  0  0  0  0
   58.1420   26.9150   43.9170 C   0  0  0  0  0  0  0  0  0  0  0  0
   59.5840   27.0690   46.0070 C   0  0  0  0  0  0  0  0  0  0  0  0
   60.6540   28.0090   45.4400 C   0  0  0  0  0  0  0  0  0  0  0  0
   60.1250   29.3510   44.9100 C   0  0  0  0  0  0  0  0  0  0  0  0
   58.8120   29.8850   45.5820 C   0  0  1  0  0  0  0  0  0  0  0  0
   59.2470   30.3500   47.0070 C   0  0  0  0  0  0  0  0  0  0  0  0
   60.0423   33.8545   49.3717 H   0  0  0  0  0  0  0  0  0  0  0  0
   60.7974   34.8048   47.9030 H   0  0  0  0  0  0  0  0  0  0  0  0
   58.1710   33.2049   48.0129 H   0  0  0  0  0  0  0  0  0  0  0  0
   59.5365   35.4504   44.5793 H   0  0  0  0  0  0  0  0  0  0  0  0
   60.4072   35.5909   46.2682 H   0  0  0  0  0  0  0  0  0  0  0  0
   56.7764   34.1948   45.4326 H   0  0  0  0  0  0  0  0  0  0  0  0
   58.0208   33.7341   44.2056 H   0  0  0  0  0  0  0  0  0  0  0  0
   57.7415   31.9959   46.6290 H   0  0  0  0  0  0  0  0  0  0  0  0
   56.4282   31.9654   45.3259 H   0  0  0  0  0  0  0  0  0  0  0  0
   59.1622   31.7190   44.3679 H   0  0  0  0  0  0  0  0  0  0  0  0
   58.2321   29.8427   42.9842 H   0  0  0  0  0  0  0  0  0  0  0  0
   57.2305   32.5970   42.6993 H   0  0  0  0  0  0  0  0  0  0  0  0
   58.3091   31.5929   41.6722 H   0  0  0  0  0  0  0  0  0  0  0  0
   56.5375   31.2964   41.6722 H   0  0  0  0  0  0  0  0  0  0  0  0
   55.7044   29.6405   45.8775 H   0  0  0  0  0  0  0  0  0  0  0  0
   55.8249   28.1192   44.8476 H   0  0  0  0  0  0  0  0  0  0  0  0
   57.5093   28.7656   46.8149 H   0  0  0  0  0  0  0  0  0  0  0  0
   57.3528   26.3614   47.2395 H   0  0  0  0  0  0  0  0  0  0  0  0
   56.2001   26.4190   45.8630 H   0  0  0  0  0  0  0  0  0  0  0  0
   57.5399   25.2226   45.8630 H   0  0  0  0  0  0  0  0  0  0  0  0
   58.0743   25.8235   43.7980 H   0  0  0  0  0  0  0  0  0  0  0  0
   57.2716   27.3904   43.4411 H   0  0  0  0  0  0  0  0  0  0  0  0
   59.0644   27.2792   43.4411 H   0  0  0  0  0  0  0  0  0  0  0  0
   59.5333   27.2260   47.0946 H   0  0  0  0  0  0  0  0  0  0  0  0
   59.8898   26.0501   45.7271 H   0  0  0  0  0  0  0  0  0  0  0  0
   61.3805   28.2200   46.2385 H   0  0  0  0  0  0  0  0  0  0  0  0
   61.0933   27.4890   44.5759 H   0  0  0  0  0  0  0  0  0  0  0  0
   60.9111   30.1057   45.0600 H   0  0  0  0  0  0  0  0  0  0  0  0
   59.8678   29.1733   43.8554 H   0  0  0  0  0  0  0  0  0  0  0  0
   58.7023   29.7678   47.7649 H   0  0  0  0  0  0  0  0  0  0  0  0
   60.3285   30.1914   47.1302 H   0  0  0  0  0  0  0  0  0  0  0  0
   59.0167   31.4185   47.1302 H   0  0  0  0  0  0  0  0  0  0  0  0
  1  2  2  0
  2  3  1  0
  3  4  2  0
  3  5  1  0
  5  6  1  0
  6  7  1  0
  7  8  1  0
  8  9  1  0
  8 10  1  0
 10 11  2  0
 10 12  1  0
 12 13  1  0
 13 14  1  0
 14 15  1  0
 14 16  1  0
 14 17  1  0
 17 18  1  0
 18 19  1  0
 19 20  1  0
 20 21  1  1
 20  7  1  0
 20 13  1  0
  1 22  1  0
  1 23  1  0
  2 24  1  0
  4 25  1  0
  4 26  1  0
  5 27  1  0
  5 28  1  0
  6 29  1  0
  6 30  1  0
  7 31  1  6
  8 32  1  6
  9 33  1  0
  9 34  1  0
  9 35  1  0
 12 36  1  0
 12 37  1  0
 13 38  1  1
 15 39  1  0
 15 40  1  0
 15 41  1  0
 16 42  1  0
 16 43  1  0
 16 44  1  0
 17 45  1  0
 17 46  1  0
 18 47  1  0
 18 48  1  0
 19 49  1  0
 19 50  1  0
 21 51  1  0
 21 52  1  0
 21 53  1  0
M  END
>  <UniqueID>  (31) 
29

>  <SMILES>  (31) 
C=CC(=C)CC[C@@H]1[C@H](C)C(=O)CC2C(C)(C)CCCC21C

>  <Energy>  (31) 
81.15950666559498

>  <Genealogy>  (31) 
C=CC(=C)CC[C@@H]1[C@H](C)C(=O)CC2C(C)(C)CCCC21C (chirality)
C=CC(=C)CC[C@@H]1[C@H](C)C(=O)CC2C(C)(C)CCCC21C (3D coordinates assigned)
C=CC(=C)CC[C@@H]1[C@H](C)C(=O)CC2C(C)(C)CCCC21C (nonaromatic ring conformer: 81.15950666559498 kcal/mol)

>  <smiles>  (31) 
C=CC(=C)CCC1C(C)C(=O)CC2C(C)(C)CCCC12C

>  <score_type>  (31) 
oracle

>  <origin>  (31) 
adg

>  <m_score__min__energy>  (31) 
-8.6699999999999999

>  <m_primary>  (31) 
energy

$$$$
31:0
     RDKit          3D

 64 68  0  0  0  0  0  0  0  0999 V2000
   56.6878   26.7232   44.2051 H   0  0  0  0  0  0  0  0  0  0  0  0
   57.4580   26.8380   44.9820 C   0  0  0  0  0  0  0  0  0  0  0  0
   58.7800   27.1150   44.6200 C   0  0  0  0  0  0  0  0  0  0  0  0
   59.0499   27.2142   43.5583 H   0  0  0  0  0  0  0  0  0  0  0  0
   59.7590   27.2660   45.6070 C   0  0  0  0  0  0  0  0  0  0  0  0
   60.7976   27.4866   45.3195 H   0  0  0  0  0  0  0  0  0  0  0  0
   59.4210   27.1370   46.9640 C   0  0  0  0  0  0  0  0  0  0  0  0
   60.4840   27.2520   48.0290 C   0  0  0  0  0  0  0  0  0  0  0  0
   61.4341   26.8700   47.6273 H   0  0  0  0  0  0  0  0  0  0  0  0
   60.1609   26.6649   48.9013 H   0  0  0  0  0  0  0  0  0  0  0  0
   60.6830   28.7120   48.4790 C   0  0  1  0  0  0  0  0  0  0  0  0
   61.7585   28.8394   48.6714 H   0  0  0  0  0  0  0  0  0  0  0  0
   60.2980   29.7060   47.4100 C   0  0  0  0  0  0  0  0  0  0  0  0
   61.1960   30.1850   46.6660 O   0  0  0  0  0  0  0  0  0  0  0  0
   58.9280   30.1050   47.2310 N   0  0  0  0  0  0  0  0  0  0  0  0
   58.1750   29.5730   47.7180 H   0  0  0  0  0  0  0  0  0  0  0  0
   58.5350   31.0280   46.2060 C   0  0  0  0  0  0  0  0  0  0  0  0
   57.8080   30.5440   45.1100 C   0  0  0  0  0  0  0  0  0  0  0  0
   57.5305   29.4805   45.0668 H   0  0  0  0  0  0  0  0  0  0  0  0
   57.4330   31.3990   44.0730 C   0  0  0  0  0  0  0  0  0  0  0  0
   56.8716   31.0041   43.2134 H   0  0  0  0  0  0  0  0  0  0  0  0
   57.7670   32.7520   44.1220 C   0  0  0  0  0  0  0  0  0  0  0  0
   57.4786   33.4175   43.2950 H   0  0  0  0  0  0  0  0  0  0  0  0
   58.4690   33.2680   45.2210 C   0  0  0  0  0  0  0  0  0  0  0  0
   58.7810   34.6350   45.2810 C   0  0  0  0  0  0  0  0  0  0  0  0
   58.4951   35.2995   44.4523 H   0  0  0  0  0  0  0  0  0  0  0  0
   59.4530   35.1540   46.3890 C   0  0  0  0  0  0  0  0  0  0  0  0
   59.7012   36.2249   46.4277 H   0  0  0  0  0  0  0  0  0  0  0  0
   59.8110   34.3180   47.4480 C   0  0  0  0  0  0  0  0  0  0  0  0
   60.3323   34.7346   48.3225 H   0  0  0  0  0  0  0  0  0  0  0  0
   59.5100   32.9540   47.4020 C   0  0  0  0  0  0  0  0  0  0  0  0
   59.7885   32.3041   48.2447 H   0  0  0  0  0  0  0  0  0  0  0  0
   58.8520   32.4060   46.2830 C   0  0  0  0  0  0  0  0  0  0  0  0
   59.9170   28.9870   49.7400 C   0  0  0  0  0  0  0  0  0  0  0  0
   60.2700   28.5440   50.9650 N   0  0  0  0  0  0  0  0  0  0  0  0
   59.3490   28.9880   51.8060 N   0  0  0  0  0  0  0  0  0  0  0  0
   58.4760   29.6840   51.0580 C   0  0  0  0  0  0  0  0  0  0  0  0
   57.4300   30.2760   51.5470 N   0  0  0  0  0  0  0  0  0  0  0  0
   57.0730   31.6630   51.2570 C   0  0  0  0  0  0  0  0  0  0  0  0
   57.4633   31.9372   50.2658 H   0  0  0  0  0  0  0  0  0  0  0  0
   55.9773   31.7583   51.2740 H   0  0  0  0  0  0  0  0  0  0  0  0
   57.6660   32.6020   52.3080 C   0  0  0  0  0  0  0  0  0  0  0  0
   56.8638   33.2223   52.7343 H   0  0  0  0  0  0  0  0  0  0  0  0
   58.1384   32.0009   53.0989 H   0  0  0  0  0  0  0  0  0  0  0  0
   58.9300   33.6870   51.5500 S   0  0  0  0  0  0  0  0  0  0  0  0
   60.4060   32.8230   52.2030 C   0  0  0  0  0  0  0  0  0  0  0  0
   60.9315   33.4885   52.9036 H   0  0  0  0  0  0  0  0  0  0  0  0
   60.0772   31.9063   52.7144 H   0  0  0  0  0  0  0  0  0  0  0  0
   61.3450   32.4400   51.0900 C   0  0  0  0  0  0  0  0  0  0  0  0
   61.9830   31.1870   51.1010 C   0  0  0  0  0  0  0  0  0  0  0  0
   61.7801   30.4762   51.9156 H   0  0  0  0  0  0  0  0  0  0  0  0
   62.8740   30.8410   50.0810 C   0  0  0  0  0  0  0  0  0  0  0  0
   63.3709   29.8598   50.0960 H   0  0  0  0  0  0  0  0  0  0  0  0
   63.1350   31.7390   49.0420 C   0  0  0  0  0  0  0  0  0  0  0  0
   63.8366   31.4644   48.2406 H   0  0  0  0  0  0  0  0  0  0  0  0
   62.5040   32.9860   49.0220 C   0  0  0  0  0  0  0  0  0  0  0  0
   62.7080   33.6909   48.2025 H   0  0  0  0  0  0  0  0  0  0  0  0
   61.6140   33.3400   50.0410 C   0  0  0  0  0  0  0  0  0  0  0  0
   61.0150   34.5570   50.0050 F   0  0  0  0  0  0  0  0  0  0  0  0
   58.8110   29.6910   49.7890 O   0  0  0  0  0  0  0  0  0  0  0  0
   58.0930   26.8500   47.3200 C   0  0  0  0  0  0  0  0  0  0  0  0
   57.8213   26.7374   48.3799 H   0  0  0  0  0  0  0  0  0  0  0  0
   57.1150   26.7070   46.3300 C   0  0  0  0  0  0  0  0  0  0  0  0
   56.0743   26.4911   46.6133 H   0  0  0  0  0  0  0  0  0  0  0  0
  1  2  1  0
  2  3  2  0
  3  4  1  0
  3  5  1  0
  5  6  1  0
  5  7  2  0
  7  8  1  0
  8  9  1  0
  8 10  1  0
  8 11  1  0
 11 12  1  1
 11 13  1  0
 13 14  2  0
 13 15  1  0
 15 16  1  0
 15 17  1  0
 17 18  2  0
 18 19  1  0
 18 20  1  0
 20 21  1  0
 20 22  2  0
 22 23  1  0
 22 24  1  0
 24 25  2  0
 25 26  1  0
 25 27  1  0
 27 28  1  0
 27 29  2  0
 29 30  1  0
 29 31  1  0
 31 32  1  0
 31 33  2  0
 11 34  1  0
 34 35  2  0
 35 36  1  0
 36 37  1  0
 37 38  2  0
 38 39  1  0
 39 40  1  0
 39 41  1  0
 39 42  1  0
 42 43  1  0
 42 44  1  0
 42 45  1  0
 45 46  1  0
 46 47  1  0
 46 48  1  0
 46 49  1  0
 49 50  2  0
 50 51  1  0
 50 52  1  0
 52 53  1  0
 52 54  2  0
 54 55  1  0
 54 56  1  0
 56 57  1  0
 56 58  2  0
 58 59  1  0
 37 60  1  0
  7 61  1  0
 61 62  1  0
 61 63  2  0
 63 64  1  0
 63  2  1  0
 33 17  1  0
 60 34  1  0
 33 24  1  0
 58 49  1  0
M  CHG  1  36  -1
M  END
>  <UniqueID>  (32) 
30

>  <SMILES>  (32) 
O=C(Nc1cccc2ccccc12)[C@H](Cc1ccccc1)c1n[n-]/c(=N/CCSCc2ccccc2F)o1

>  <Energy>  (32) 
105.21468995880623

>  <Genealogy>  (32) 
O=C(Nc1cccc2ccccc12)C(Cc1ccccc1)c1n[n-]c(=NCCSCc2ccccc2F)o1 (protonated)
O=C(Nc1cccc2ccccc12)[C@H](Cc1ccccc1)c1n[n-]c(=NCCSCc2ccccc2F)o1 (chirality)
O=C(Nc1cccc2ccccc12)[C@H](Cc1ccccc1)c1n[n-]/c(=N/CCSCc2ccccc2F)o1 (cis-trans isomerization)
O=C(Nc1cccc2ccccc12)[C@H](Cc1ccccc1)c1n[n-]/c(=N/CCSCc2ccccc2F)o1 (3D coordinates assigned)
O=C(Nc1cccc2ccccc12)[C@H](Cc1ccccc1)c1n[n-]/c(=N/CCSCc2ccccc2F)o1 (optimized conformer: 105.21468995880623 kcal/mol)

>  <smiles>  (32) 
O=C(Nc1cccc2ccccc12)C(Cc1ccccc1)c1n[nH]c(=NCCSCc2ccccc2F)o1

>  <score_type>  (32) 
oracle

>  <origin>  (32) 
adg

>  <m_score__min__energy>  (32) 
-11.48

>  <m_primary>  (32) 
energy

$$$$
32:0
     RDKit          3D

 46 49  0  0  0  0  0  0  0  0999 V2000
   59.9660   29.7030   46.4070 C   0  0  0  0  0  0  0  0  0  0  0  0
   58.7340   29.1180   46.0460 O   0  0  0  0  0  0  0  0  0  0  0  0
   58.8650   28.3990   44.8330 C   0  0  0  0  0  0  0  0  0  0  0  0
   57.5830   28.5230   44.0080 C   0  0  0  0  0  0  0  0  0  0  0  0
   56.7160   29.6210   44.5410 C   0  0  0  0  0  0  0  0  0  0  0  0
   55.5740   29.3550   45.0000 O   0  0  0  0  0  0  0  0  0  0  0  0
   57.1590   30.9770   44.4940 N   0  0  0  0  0  0  0  0  0  0  0  0
   58.3510   31.7220   44.0480 C   0  0  0  0  0  0  0  0  0  0  0  0
   57.8370   33.0780   44.4190 C   0  0  0  0  0  0  0  0  0  0  0  0
   58.6010   33.7310   45.5370 C   0  0  0  0  0  0  0  0  0  0  0  0
   59.2410   33.0430   46.5050 N   0  0  0  0  0  0  0  0  0  0  0  0
   59.7580   34.0410   47.2540 C   0  0  0  0  0  0  0  0  0  0  0  0
   60.5220   33.8080   48.4920 C   0  0  0  0  0  0  0  0  0  0  0  0
   59.9840   33.7960   49.7750 C   0  0  0  0  0  0  0  0  0  0  0  0
   60.9580   33.5750   50.6890 N   0  0  0  0  0  0  0  0  0  0  0  0
   60.7770   33.4720   52.1330 C   0  0  0  0  0  0  0  0  0  0  0  0
   62.1040   33.4260   49.9970 C   0  0  0  0  0  0  0  0  0  0  0  0
   63.3750   33.1390   50.5020 C   0  0  0  0  0  0  0  0  0  0  0  0
   64.4280   32.9780   49.5870 C   0  0  0  0  0  0  0  0  0  0  0  0
   64.1930   33.0890   48.2010 C   0  0  0  0  0  0  0  0  0  0  0  0
   62.9040   33.3730   47.7160 C   0  0  0  0  0  0  0  0  0  0  0  0
   61.8770   33.5570   48.6470 C   0  0  0  0  0  0  0  0  0  0  0  0
   59.4260   35.2500   46.7670 N   0  0  0  0  0  0  0  0  0  0  0  0
   58.7120   35.0280   45.7080 O   0  0  0  0  0  0  0  0  0  0  0  0
   56.6340   32.3030   44.8660 C   0  0  0  0  0  0  0  0  0  0  0  0
   60.0465   29.7412   47.5034 H   0  0  0  0  0  0  0  0  0  0  0  0
   60.7913   29.1006   45.9995 H   0  0  0  0  0  0  0  0  0  0  0  0
   60.0208   30.7233   45.9995 H   0  0  0  0  0  0  0  0  0  0  0  0
   59.7090   28.8069   44.2575 H   0  0  0  0  0  0  0  0  0  0  0  0
   59.0456   27.3381   45.0608 H   0  0  0  0  0  0  0  0  0  0  0  0
   57.8458   28.7451   42.9632 H   0  0  0  0  0  0  0  0  0  0  0  0
   57.0299   27.5741   44.0685 H   0  0  0  0  0  0  0  0  0  0  0  0
   59.2582   31.4446   44.6048 H   0  0  0  0  0  0  0  0  0  0  0  0
   58.6733   31.5755   43.0065 H   0  0  0  0  0  0  0  0  0  0  0  0
   57.7944   33.9350   43.7307 H   0  0  0  0  0  0  0  0  0  0  0  0
   58.9203   33.9447   50.0126 H   0  0  0  0  0  0  0  0  0  0  0  0
   61.6236   33.9538   52.6439 H   0  0  0  0  0  0  0  0  0  0  0  0
   59.8412   33.9729   52.4219 H   0  0  0  0  0  0  0  0  0  0  0  0
   60.7297   32.4117   52.4219 H   0  0  0  0  0  0  0  0  0  0  0  0
   63.5456   33.0421   51.5844 H   0  0  0  0  0  0  0  0  0  0  0  0
   65.4427   32.7639   49.9538 H   0  0  0  0  0  0  0  0  0  0  0  0
   65.0244   32.9524   47.4938 H   0  0  0  0  0  0  0  0  0  0  0  0
   62.7093   33.4482   46.6360 H   0  0  0  0  0  0  0  0  0  0  0  0
   59.6280   36.1930   47.1650 H   0  0  0  0  0  0  0  0  0  0  0  0
   56.4444   32.3976   45.9454 H   0  0  0  0  0  0  0  0  0  0  0  0
   55.6622   32.5954   44.4416 H   0  0  0  0  0  0  0  0  0  0  0  0
  1  2  1  0
  2  3  1  0
  3  4  1  0
  4  5  1  0
  5  6  2  0
  5  7  1  0
  7  8  1  0
  8  9  1  0
  9 10  1  0
 10 11  2  0
 11 12  1  0
 12 13  1  0
 13 14  2  0
 14 15  1  0
 15 16  1  0
 15 17  1  0
 17 18  2  0
 18 19  1  0
 19 20  2  0
 20 21  1  0
 21 22  2  0
 12 23  2  0
 23 24  1  0
  9 25  1  0
 25  7  1  0
 24 10  1  0
 22 13  1  0
 22 17  1  0
  1 26  1  0
  1 27  1  0
  1 28  1  0
  3 29  1  0
  3 30  1  0
  4 31  1  0
  4 32  1  0
  8 33  1  0
  8 34  1  0
  9 35  1  0
 14 36  1  0
 16 37  1  0
 16 38  1  0
 16 39  1  0
 18 40  1  0
 19 41  1  0
 20 42  1  0
 21 43  1  0
 23 44  1  0
 25 45  1  0
 25 46  1  0
M  CHG  1  23   1
M  END
>  <UniqueID>  (33) 
31

>  <SMILES>  (33) 
COCCC(=O)N1CC(c2nc(-c3cn(C)c4ccccc34)[nH+]o2)C1

>  <Energy>  (33) 
161.06727262242163

>  <Genealogy>  (33) 
COCCC(=O)N1CC(c2nc(-c3cn(C)c4ccccc34)[nH+]o2)C1 (protonated)
COCCC(=O)N1CC(c2nc(-c3cn(C)c4ccccc34)[nH+]o2)C1 (3D coordinates assigned)
COCCC(=O)N1CC(c2nc(-c3cn(C)c4ccccc34)[nH+]o2)C1 (nonaromatic ring conformer: 161.06727262242163 kcal/mol)

>  <smiles>  (33) 
COCCC(=O)N1CC(c2nc(-c3cn(C)c4ccccc34)no2)C1

>  <score_type>  (33) 
oracle

>  <origin>  (33) 
adg

>  <m_score__min__energy>  (33) 
-7.29

>  <m_primary>  (33) 
energy

$$$$
33:0
     RDKit          3D

 39 40  0  0  0  0  0  0  0  0999 V2000
   56.5130   25.9920   45.9420 C   0  0  0  0  0  0  0  0  0  0  0  0
   55.8530   27.2120   45.6220 O   0  0  0  0  0  0  0  0  0  0  0  0
   56.5100   28.3940   45.2490 C   0  0  0  0  0  0  0  0  0  0  0  0
   57.8160   28.6020   45.7070 C   0  0  0  0  0  0  0  0  0  0  0  0
   58.5100   29.7640   45.3630 C   0  0  0  0  0  0  0  0  0  0  0  0
   57.9180   30.7340   44.5450 C   0  0  0  0  0  0  0  0  0  0  0  0
   58.6700   31.8720   44.2190 O   0  0  0  0  0  0  0  0  0  0  0  0
   58.1450   33.1050   43.7230 C   0  0  0  0  0  0  0  0  0  0  0  0
   58.1550   34.1940   44.8050 C   0  0  0  0  0  0  0  0  0  0  0  0
   59.1070   33.8710   45.8650 N   0  0  0  0  0  0  0  0  0  0  0  0
   59.7340   34.8750   46.6730 C   0  0  0  0  0  0  0  0  0  0  0  0
   59.6380   36.0930   46.3610 O   0  0  0  0  0  0  0  0  0  0  0  0
   60.4720   34.4870   47.9210 C   0  0  0  0  0  0  0  0  0  0  0  0
   60.8710   33.0270   47.8620 C   0  0  0  0  0  0  0  0  0  0  0  0
   62.1370   32.6510   47.3550 C   0  0  0  0  0  0  0  0  0  0  0  0
   63.2920   33.8270   46.7340 Cl  0  0  0  0  0  0  0  0  0  0  0  0
   62.4980   31.3020   47.3360 C   0  0  0  0  0  0  0  0  0  0  0  0
   61.6460   30.3560   47.8050 N   0  0  0  0  0  0  0  0  0  0  0  0
   60.4270   30.6800   48.3050 C   0  0  0  0  0  0  0  0  0  0  0  0
   60.0130   32.0140   48.3530 C   0  0  0  0  0  0  0  0  0  0  0  0
   58.4220   32.3570   49.0260 Cl  0  0  0  0  0  0  0  0  0  0  0  0
   56.6010   30.5330   44.0920 C   0  0  0  0  0  0  0  0  0  0  0  0
   55.9040   29.3710   44.4380 C   0  0  0  0  0  0  0  0  0  0  0  0
   56.5721   25.8828   47.0350 H   0  0  0  0  0  0  0  0  0  0  0  0
   55.9485   25.1479   45.5192 H   0  0  0  0  0  0  0  0  0  0  0  0
   57.5284   26.0026   45.5192 H   0  0  0  0  0  0  0  0  0  0  0  0
   58.2991   27.8450   46.3423 H   0  0  0  0  0  0  0  0  0  0  0  0
   59.5323   29.9188   45.7385 H   0  0  0  0  0  0  0  0  0  0  0  0
   58.7585   33.4391   42.8733 H   0  0  0  0  0  0  0  0  0  0  0  0
   57.1037   32.9371   43.4106 H   0  0  0  0  0  0  0  0  0  0  0  0
   58.4384   35.1532   44.3472 H   0  0  0  0  0  0  0  0  0  0  0  0
   57.1492   34.2591   45.2456 H   0  0  0  0  0  0  0  0  0  0  0  0
   59.3320   32.8670   46.0350 H   0  0  0  0  0  0  0  0  0  0  0  0
   61.3758   35.1068   48.0159 H   0  0  0  0  0  0  0  0  0  0  0  0
   59.8151   34.6441   48.7892 H   0  0  0  0  0  0  0  0  0  0  0  0
   63.4795   31.0045   46.9382 H   0  0  0  0  0  0  0  0  0  0  0  0
   59.7601   29.8874   48.6751 H   0  0  0  0  0  0  0  0  0  0  0  0
   56.1170   31.2941   43.4623 H   0  0  0  0  0  0  0  0  0  0  0  0
   54.8769   29.2201   44.0743 H   0  0  0  0  0  0  0  0  0  0  0  0
  1  2  1  0
  2  3  1  0
  3  4  2  0
  4  5  1  0
  5  6  2  0
  6  7  1  0
  7  8  1  0
  8  9  1  0
  9 10  1  0
 10 11  1  0
 11 12  2  0
 11 13  1  0
 13 14  1  0
 14 15  2  0
 15 16  1  0
 15 17  1  0
 17 18  2  0
 18 19  1  0
 19 20  2  0
 20 21  1  0
  6 22  1  0
 22 23  2  0
 23  3  1  0
 20 14  1  0
  1 24  1  0
  1 25  1  0
  1 26  1  0
  4 27  1  0
  5 28  1  0
  8 29  1  0
  8 30  1  0
  9 31  1  0
  9 32  1  0
 10 33  1  0
 13 34  1  0
 13 35  1  0
 17 36  1  0
 19 37  1  0
 22 38  1  0
 23 39  1  0
M  END
>  <UniqueID>  (34) 
32

>  <SMILES>  (34) 
COc1ccc(OCCNC(=O)Cc2c(Cl)cncc2Cl)cc1

>  <Energy>  (34) 
34.991745460785715

>  <Genealogy>  (34) 
COc1ccc(OCCNC(=O)Cc2c(Cl)cncc2Cl)cc1 (3D coordinates assigned)
COc1ccc(OCCNC(=O)Cc2c(Cl)cncc2Cl)cc1 (optimized conformer: 34.991745460785715 kcal/mol)

>  <smiles>  (34) 
COc1ccc(OCCNC(=O)Cc2c(Cl)cncc2Cl)cc1

>  <score_type>  (34) 
oracle

>  <origin>  (34) 
adg

>  <m_score__min__energy>  (34) 
-6.8899999999999997

>  <m_primary>  (34) 
energy

$$$$
34:0
     RDKit          3D

 31 32  0  0  0  0  0  0  0  0999 V2000
   56.8200   33.4650   46.5690 O   0  0  0  0  0  0  0  0  0  0  0  0
   57.9900   33.2020   46.9630 C   0  0  0  0  0  0  0  0  0  0  0  0
   58.9100   34.3170   47.3410 C   0  0  0  0  0  0  0  0  0  0  0  0
   60.1090   34.6290   45.9970 S   0  0  0  0  0  0  0  0  0  0  0  0
   61.4470   33.7010   46.7530 C   0  0  0  0  0  0  0  0  0  0  0  0
   62.7300   33.9500   46.3800 N   0  0  0  0  0  0  0  0  0  0  0  0
   63.7640   33.2640   46.9320 C   0  0  0  0  0  0  0  0  0  0  0  0
   63.5140   32.2880   47.8950 C   0  0  0  0  0  0  0  0  0  0  0  0
   62.1930   32.0470   48.2690 C   0  0  0  0  0  0  0  0  0  0  0  0
   61.1830   32.7550   47.6960 N   0  0  0  0  0  0  0  0  0  0  0  0
   58.4440   31.8800   47.0170 O   0  0  0  0  0  0  0  0  0  0  0  0
   59.2010   31.2650   45.9770 C   0  0  0  0  0  0  0  0  0  0  0  0
   58.3160   30.9310   44.7990 C   0  0  0  0  0  0  0  0  0  0  0  0
   58.1390   31.8630   43.7560 C   0  0  0  0  0  0  0  0  0  0  0  0
   58.7700   33.0660   43.7820 F   0  0  0  0  0  0  0  0  0  0  0  0
   57.3050   31.5640   42.6750 C   0  0  0  0  0  0  0  0  0  0  0  0
   56.6400   30.3390   42.6200 C   0  0  0  0  0  0  0  0  0  0  0  0
   56.8040   29.4080   43.6450 C   0  0  0  0  0  0  0  0  0  0  0  0
   57.6370   29.6940   44.7340 C   0  0  0  0  0  0  0  0  0  0  0  0
   57.8040   28.4780   45.9960 Cl  0  0  0  0  0  0  0  0  0  0  0  0
   58.3213   35.2285   47.5216 H   0  0  0  0  0  0  0  0  0  0  0  0
   59.4577   34.0370   48.2529 H   0  0  0  0  0  0  0  0  0  0  0  0
   64.7967   33.4783   46.6197 H   0  0  0  0  0  0  0  0  0  0  0  0
   64.3399   31.7211   48.3493 H   0  0  0  0  0  0  0  0  0  0  0  0
   61.9673   31.2836   49.0281 H   0  0  0  0  0  0  0  0  0  0  0  0
   60.2000   32.5680   47.9890 H   0  0  0  0  0  0  0  0  0  0  0  0
   59.9926   31.9552   45.6498 H   0  0  0  0  0  0  0  0  0  0  0  0
   59.6422   30.3343   46.3633 H   0  0  0  0  0  0  0  0  0  0  0  0
   57.1726   32.2967   41.8653 H   0  0  0  0  0  0  0  0  0  0  0  0
   55.9854   30.1072   41.7669 H   0  0  0  0  0  0  0  0  0  0  0  0
   56.2764   28.4439   43.5981 H   0  0  0  0  0  0  0  0  0  0  0  0
  1  2  2  0
  2  3  1  0
  3  4  1  0
  4  5  1  0
  5  6  2  0
  6  7  1  0
  7  8  2  0
  8  9  1  0
  9 10  2  0
  2 11  1  0
 11 12  1  0
 12 13  1  0
 13 14  2  0
 14 15  1  0
 14 16  1  0
 16 17  2  0
 17 18  1  0
 18 19  2  0
 19 20  1  0
 10  5  1  0
 19 13  1  0
  3 21  1  0
  3 22  1  0
  7 23  1  0
  8 24  1  0
  9 25  1  0
 10 26  1  0
 12 27  1  0
 12 28  1  0
 16 29  1  0
 17 30  1  0
 18 31  1  0
M  CHG  1  10   1
M  END
>  <UniqueID>  (35) 
33

>  <SMILES>  (35) 
O=C(CSc1nccc[nH+]1)OCc1c(F)cccc1Cl

>  <Energy>  (35) 
27.414938530165557

>  <Genealogy>  (35) 
O=C(CSc1nccc[nH+]1)OCc1c(F)cccc1Cl (protonated)
O=C(CSc1nccc[nH+]1)OCc1c(F)cccc1Cl (3D coordinates assigned)
O=C(CSc1nccc[nH+]1)OCc1c(F)cccc1Cl (optimized conformer: 27.414938530165557 kcal/mol)

>  <smiles>  (35) 
O=C(CSc1ncccn1)OCc1c(F)cccc1Cl

>  <score_type>  (35) 
oracle

>  <origin>  (35) 
adg

>  <m_score__min__energy>  (35) 
-5.3799999999999999

>  <m_primary>  (35) 
energy

$$$$
35:0
     RDKit          3D

 40 42  0  0  0  0  0  0  0  0999 V2000
   56.7655   28.4726   45.5530 H   0  0  0  0  0  0  0  0  0  0  0  0
   57.5530   29.0450   45.0410 C   0  0  0  0  0  0  0  0  0  0  0  0
   57.4210   29.2680   43.7290 C   0  0  0  0  0  0  0  0  0  0  0  0
   57.9715   28.6355   43.0171 H   0  0  0  0  0  0  0  0  0  0  0  0
   56.5360   30.3650   43.2070 C   0  0  0  0  0  0  0  0  0  0  0  0
   55.7274   30.5500   43.9294 H   0  0  0  0  0  0  0  0  0  0  0  0
   56.1207   30.0509   42.2381 H   0  0  0  0  0  0  0  0  0  0  0  0
   57.3000   31.6060   43.0110 N   0  0  0  0  0  0  0  0  0  0  0  0
   57.5550   32.4830   44.1240 C   0  0  0  0  0  0  0  0  0  0  0  0
   58.4430   33.4980   44.0920 N   0  0  0  0  0  0  0  0  0  0  0  0
   58.4360   33.9590   45.3300 N   0  0  0  0  0  0  0  0  0  0  0  0
   59.3570   34.9730   45.8260 C   0  0  0  0  0  0  0  0  0  0  0  0
   59.9218   35.3994   44.9839 H   0  0  0  0  0  0  0  0  0  0  0  0
   58.7900   35.7713   46.3272 H   0  0  0  0  0  0  0  0  0  0  0  0
   60.3120   34.3440   46.8040 C   0  0  0  0  0  0  0  0  0  0  0  0
   59.9340   34.1710   48.1460 C   0  0  0  0  0  0  0  0  0  0  0  0
   58.9611   34.5475   48.4948 H   0  0  0  0  0  0  0  0  0  0  0  0
   60.7920   33.5210   49.0400 C   0  0  0  0  0  0  0  0  0  0  0  0
   60.4957   33.3932   50.0916 H   0  0  0  0  0  0  0  0  0  0  0  0
   62.0250   33.0340   48.5980 C   0  0  0  0  0  0  0  0  0  0  0  0
   62.6995   32.5252   49.3024 H   0  0  0  0  0  0  0  0  0  0  0  0
   62.4020   33.1930   47.2610 C   0  0  0  0  0  0  0  0  0  0  0  0
   63.3736   32.8106   46.9150 H   0  0  0  0  0  0  0  0  0  0  0  0
   61.5460   33.8370   46.3640 C   0  0  0  0  0  0  0  0  0  0  0  0
   61.8394   33.9474   45.3096 H   0  0  0  0  0  0  0  0  0  0  0  0
   57.6050   33.2570   46.0810 N   0  0  0  0  0  0  0  0  0  0  0  0
   57.4510   33.3970   47.1050 H   0  0  0  0  0  0  0  0  0  0  0  0
   57.0290   32.3150   45.3560 N   0  0  0  0  0  0  0  0  0  0  0  0
   57.7850   31.9820   41.6810 C   0  0  0  0  0  0  0  0  0  0  0  0
   58.6506   32.6531   41.7826 H   0  0  0  0  0  0  0  0  0  0  0  0
   58.0846   31.0778   41.1308 H   0  0  0  0  0  0  0  0  0  0  0  0
   56.9840   32.4975   41.1308 H   0  0  0  0  0  0  0  0  0  0  0  0
   58.7000   29.5260   45.8410 C   0  0  0  0  0  0  0  0  0  0  0  0
   60.0390   29.4780   45.4470 C   0  0  0  0  0  0  0  0  0  0  0  0
   60.4191   29.0646   44.5012 H   0  0  0  0  0  0  0  0  0  0  0  0
   60.9680   30.1610   46.6680 S   0  0  0  0  0  0  0  0  0  0  0  0
   59.7000   30.5230   47.7060 C   0  0  0  0  0  0  0  0  0  0  0  0
   59.7893   31.0034   48.6915 H   0  0  0  0  0  0  0  0  0  0  0  0
   58.5200   30.1110   47.1050 C   0  0  0  0  0  0  0  0  0  0  0  0
   57.5330   30.2314   47.5755 H   0  0  0  0  0  0  0  0  0  0  0  0
  1  2  1  0
  2  3  2  0
  3  4  1  0
  3  5  1  0
  5  6  1  0
  5  7  1  0
  5  8  1  0
  8  9  1  0
  9 10  2  0
 10 11  1  0
 11 12  1  0
 12 13  1  0
 12 14  1  0
 12 15  1  0
 15 16  2  0
 16 17  1  0
 16 18  1  0
 18 19  1  0
 18 20  2  0
 20 21  1  0
 20 22  1  0
 22 23  1  0
 22 24  2  0
 24 25  1  0
 11 26  1  0
 26 27  1  0
 26 28  2  0
  8 29  1  0
 29 30  1  0
 29 31  1  0
 29 32  1  0
  2 33  1  0
 33 34  2  0
 34 35  1  0
 34 36  1  0
 36 37  1  0
 37 38  1  0
 37 39  2  0
 39 40  1  0
 28  9  1  0
 39 33  1  0
 24 15  1  0
M  CHG  1  26   1
M  END
>  <UniqueID>  (36) 
34

>  <SMILES>  (36) 
CN(C/C=C/c1ccsc1)c1n[nH+]n(Cc2ccccc2)n1

>  <Energy>  (36) 
98.24119720202461

>  <Genealogy>  (36) 
CN(CC=Cc1ccsc1)c1n[nH+]n(Cc2ccccc2)n1 (protonated)
CN(C/C=C/c1ccsc1)c1n[nH+]n(Cc2ccccc2)n1 (cis-trans isomerization)
CN(C/C=C/c1ccsc1)c1n[nH+]n(Cc2ccccc2)n1 (3D coordinates assigned)
CN(C/C=C/c1ccsc1)c1n[nH+]n(Cc2ccccc2)n1 (optimized conformer: 98.24119720202461 kcal/mol)

>  <smiles>  (36) 
CN(CC=Cc1ccsc1)c1nnn(Cc2ccccc2)n1

>  <score_type>  (36) 
oracle

>  <origin>  (36) 
adg

>  <m_score__min__energy>  (36) 
-6.6399999999999997

>  <m_primary>  (36) 
energy

$$$$
36:0
     RDKit          3D

 39 41  0  0  0  0  0  0  0  0999 V2000
   59.4830   26.4770   46.7710 C   0  0  0  0  0  0  0  0  0  0  0  0
   58.3490   27.3030   46.5250 O   0  0  0  0  0  0  0  0  0  0  0  0
   58.4110   28.6740   46.2250 C   0  0  0  0  0  0  0  0  0  0  0  0
   58.1780   29.1650   44.9270 C   0  0  0  0  0  0  0  0  0  0  0  0
   58.2460   30.5390   44.6600 C   0  0  0  0  0  0  0  0  0  0  0  0
   58.0160   31.0070   43.3990 N   0  0  0  0  0  0  0  0  0  0  0  0
   58.0670   32.3350   43.1150 C   0  0  0  0  0  0  0  0  0  0  0  0
   58.3660   33.2610   44.1140 C   0  0  0  0  0  0  0  0  0  0  0  0
   58.6290   32.8180   45.4200 C   0  0  0  0  0  0  0  0  0  0  0  0
   58.9140   33.7290   46.4500 O   0  0  0  0  0  0  0  0  0  0  0  0
   60.1190   33.7970   47.1660 C   0  0  0  0  0  0  0  0  0  0  0  0
   60.0750   34.1410   48.5220 C   0  0  0  0  0  0  0  0  0  0  0  0
   61.2520   34.2050   49.2740 C   0  0  0  0  0  0  0  0  0  0  0  0
   62.4810   33.9130   48.6780 C   0  0  0  0  0  0  0  0  0  0  0  0
   62.5390   33.5460   47.3260 C   0  0  0  0  0  0  0  0  0  0  0  0
   63.7950   33.2310   46.7190 N   0  0  0  0  0  0  0  0  0  0  0  0
   61.3570   33.4830   46.5740 C   0  0  0  0  0  0  0  0  0  0  0  0
   58.5540   31.4420   45.7040 C   0  0  0  0  0  0  0  0  0  0  0  0
   58.7880   30.9480   46.9990 C   0  0  0  0  0  0  0  0  0  0  0  0
   58.7170   29.5660   47.2620 C   0  0  0  0  0  0  0  0  0  0  0  0
   58.9450   29.0410   48.5450 O   0  0  0  0  0  0  0  0  0  0  0  0
   59.6960   29.6910   49.5650 C   0  0  0  0  0  0  0  0  0  0  0  0
   59.6301   26.3698   47.8558 H   0  0  0  0  0  0  0  0  0  0  0  0
   59.3185   25.4857   46.3236 H   0  0  0  0  0  0  0  0  0  0  0  0
   60.3761   26.9376   46.3236 H   0  0  0  0  0  0  0  0  0  0  0  0
   57.9401   28.4634   44.1139 H   0  0  0  0  0  0  0  0  0  0  0  0
   57.7890   30.3430   42.6250 H   0  0  0  0  0  0  0  0  0  0  0  0
   57.8710   32.6820   42.0897 H   0  0  0  0  0  0  0  0  0  0  0  0
   58.3957   34.3353   43.8794 H   0  0  0  0  0  0  0  0  0  0  0  0
   59.1088   34.3623   48.9989 H   0  0  0  0  0  0  0  0  0  0  0  0
   61.2100   34.4858   50.3367 H   0  0  0  0  0  0  0  0  0  0  0  0
   63.4058   33.9711   49.2708 H   0  0  0  0  0  0  0  0  0  0  0  0
   64.0070   33.5350   45.7420 H   0  0  0  0  0  0  0  0  0  0  0  0
   64.5200   32.6920   47.2400 H   0  0  0  0  0  0  0  0  0  0  0  0
   61.3974   33.1865   45.5155 H   0  0  0  0  0  0  0  0  0  0  0  0
   59.0286   31.6466   47.8139 H   0  0  0  0  0  0  0  0  0  0  0  0
   59.3276   29.3721   50.5512 H   0  0  0  0  0  0  0  0  0  0  0  0
   60.7581   29.4224   49.4659 H   0  0  0  0  0  0  0  0  0  0  0  0
   59.5825   30.7806   49.4659 H   0  0  0  0  0  0  0  0  0  0  0  0
  1  2  1  0
  2  3  1  0
  3  4  2  0
  4  5  1  0
  5  6  2  0
  6  7  1  0
  7  8  2  0
  8  9  1  0
  9 10  1  0
 10 11  1  0
 11 12  2  0
 12 13  1  0
 13 14  2  0
 14 15  1  0
 15 16  1  0
 15 17  2  0
  9 18  2  0
 18 19  1  0
 19 20  2  0
 20 21  1  0
 21 22  1  0
 20  3  1  0
 18  5  1  0
 17 11  1  0
  1 23  1  0
  1 24  1  0
  1 25  1  0
  4 26  1  0
  6 27  1  0
  7 28  1  0
  8 29  1  0
 12 30  1  0
 13 31  1  0
 14 32  1  0
 16 33  1  0
 16 34  1  0
 17 35  1  0
 19 36  1  0
 22 37  1  0
 22 38  1  0
 22 39  1  0
M  CHG  1   6   1
M  END
>  <UniqueID>  (37) 
35

>  <SMILES>  (37) 
COc1cc2[nH+]ccc(Oc3cccc(N)c3)c2cc1OC

>  <Energy>  (37) 
49.73306353960271

>  <Genealogy>  (37) 
COc1cc2[nH+]ccc(Oc3cccc(N)c3)c2cc1OC (protonated)
COc1cc2[nH+]ccc(Oc3cccc(N)c3)c2cc1OC (3D coordinates assigned)
COc1cc2[nH+]ccc(Oc3cccc(N)c3)c2cc1OC (optimized conformer: 49.73306353960271 kcal/mol)

>  <smiles>  (37) 
COc1cc2nccc(Oc3cccc(N)c3)c2cc1OC

>  <score_type>  (37) 
oracle

>  <origin>  (37) 
adg

>  <m_score__min__energy>  (37) 
-4.8499999999999996

>  <m_primary>  (37) 
energy

$$$$
37:0
     RDKit          3D

 29 30  0  0  0  0  0  0  0  0999 V2000
   55.1420   28.1270   44.9700 H   0  0  0  0  0  0  0  0  0  0  0  0
   55.8350   27.7220   45.5890 O   0  0  0  0  0  0  0  0  0  0  0  0
   57.1960   27.9940   45.4440 C   0  0  0  0  0  0  0  0  0  0  0  0
   58.1410   27.1280   46.0160 C   0  0  0  0  0  0  0  0  0  0  0  0
   57.8015   26.2498   46.5848 H   0  0  0  0  0  0  0  0  0  0  0  0
   59.5130   27.3720   45.8690 C   0  0  0  0  0  0  0  0  0  0  0  0
   60.5210   26.4180   46.4390 C   0  0  0  0  0  0  0  0  0  0  0  0
   60.4812   26.4557   47.5376 H   0  0  0  0  0  0  0  0  0  0  0  0
   60.2931   25.3971   46.0986 H   0  0  0  0  0  0  0  0  0  0  0  0
   61.5278   26.7018   46.0986 H   0  0  0  0  0  0  0  0  0  0  0  0
   59.9390   28.4820   45.1290 C   0  0  0  0  0  0  0  0  0  0  0  0
   61.0144   28.6680   44.9913 H   0  0  0  0  0  0  0  0  0  0  0  0
   59.0050   29.3540   44.5650 C   0  0  0  0  0  0  0  0  0  0  0  0
   59.3522   30.2334   44.0028 H   0  0  0  0  0  0  0  0  0  0  0  0
   57.6250   29.1200   44.7080 C   0  0  0  0  0  0  0  0  0  0  0  0
   56.6420   30.0490   44.0910 C   0  0  0  0  0  0  0  0  0  0  0  0
   55.4660   30.0950   44.5410 O   0  0  0  0  0  0  0  0  0  0  0  0
   57.0110   30.9950   43.0170 C   0  0  0  0  0  0  0  0  0  0  0  0
   56.6788   30.7537   41.9965 H   0  0  0  0  0  0  0  0  0  0  0  0
   57.7170   32.1230   43.1830 C   0  0  0  0  0  0  0  0  0  0  0  0
   58.1707   32.5714   42.2868 H   0  0  0  0  0  0  0  0  0  0  0  0
   57.9350   32.8120   44.4700 C   0  0  0  0  0  0  0  0  0  0  0  0
   59.1450   33.9320   44.8210 S   0  0  0  0  0  0  0  0  0  0  0  0
   58.6080   34.3090   46.3680 C   0  0  0  0  0  0  0  0  0  0  0  0
   59.0889   35.0124   47.0637 H   0  0  0  0  0  0  0  0  0  0  0  0
   57.4530   33.5800   46.6170 C   0  0  0  0  0  0  0  0  0  0  0  0
   56.8937   33.6427   47.5621 H   0  0  0  0  0  0  0  0  0  0  0  0
   57.0670   32.7570   45.5510 C   0  0  0  0  0  0  0  0  0  0  0  0
   56.1642   32.1288   45.5693 H   0  0  0  0  0  0  0  0  0  0  0  0
  1  2  1  0
  2  3  1  0
  3  4  2  0
  4  5  1  0
  4  6  1  0
  6  7  1  0
  7  8  1  0
  7  9  1  0
  7 10  1  0
  6 11  2  0
 11 12  1  0
 11 13  1  0
 13 14  1  0
 13 15  2  0
 15 16  1  0
 16 17  2  0
 16 18  1  0
 18 19  1  0
 18 20  2  0
 20 21  1  0
 20 22  1  0
 22 23  1  0
 23 24  1  0
 24 25  1  0
 24 26  2  0
 26 27  1  0
 26 28  1  0
 28 29  1  0
 15  3  1  0
 28 22  2  0
M  END
>  <UniqueID>  (38) 
36

>  <SMILES>  (38) 
Cc1ccc(C(=O)/C=C\c2cccs2)c(O)c1

>  <Energy>  (38) 
64.71783381853766

>  <Genealogy>  (38) 
Cc1ccc(C(=O)/C=C\c2cccs2)c(O)c1 (cis-trans isomerization)
Cc1ccc(C(=O)/C=C\c2cccs2)c(O)c1 (3D coordinates assigned)
Cc1ccc(C(=O)/C=C\c2cccs2)c(O)c1 (optimized conformer: 64.71783381853766 kcal/mol)

>  <smiles>  (38) 
Cc1ccc(C(=O)C=Cc2cccs2)c(O)c1

>  <score_type>  (38) 
oracle

>  <origin>  (38) 
adg

>  <m_score__min__energy>  (38) 
-8.4399999999999995

>  <m_primary>  (38) 
energy

$$$$
38:0
     RDKit          3D

 40 43  0  0  0  0  0  0  0  0999 V2000
   53.8038   24.6091   45.7999 H   0  0  0  0  0  0  0  0  0  0  0  0
   54.8700   24.8150   45.6240 C   0  0  0  0  0  0  0  0  0  0  0  0
   55.5500   25.7770   46.3070 N   0  0  0  0  0  0  0  0  0  0  0  0
   56.8460   25.8570   45.9300 C   0  0  0  0  0  0  0  0  0  0  0  0
   57.8120   26.8200   46.5140 C   0  0  0  0  0  0  0  0  0  0  0  0
   58.9070   26.3520   47.2520 C   0  0  0  0  0  0  0  0  0  0  0  0
   59.0425   25.2694   47.3922 H   0  0  0  0  0  0  0  0  0  0  0  0
   59.8350   27.2440   47.8160 C   0  0  0  0  0  0  0  0  0  0  0  0
   60.9380   26.7860   48.5570 O   0  0  0  0  0  0  0  0  0  0  0  0
   60.9930   26.7220   49.9800 C   0  0  0  0  0  0  0  0  0  0  0  0
   60.3324   27.4907   50.4074 H   0  0  0  0  0  0  0  0  0  0  0  0
   60.6634   25.7276   50.3153 H   0  0  0  0  0  0  0  0  0  0  0  0
   62.0257   26.8983   50.3153 H   0  0  0  0  0  0  0  0  0  0  0  0
   59.6630   28.6330   47.6370 C   0  0  0  0  0  0  0  0  0  0  0  0
   58.5600   29.1230   46.8930 C   0  0  0  0  0  0  0  0  0  0  0  0
   57.6470   28.2020   46.3370 C   0  0  0  0  0  0  0  0  0  0  0  0
   56.7911   28.5739   45.7547 H   0  0  0  0  0  0  0  0  0  0  0  0
   58.4060   30.5210   46.7050 C   0  0  0  0  0  0  0  0  0  0  0  0
   57.4010   30.9390   45.9750 N   0  0  0  0  0  0  0  0  0  0  0  0
   57.3680   31.3080   44.5900 C   0  0  0  0  0  0  0  0  0  0  0  0
   58.1340   32.3900   44.1250 C   0  0  0  0  0  0  0  0  0  0  0  0
   58.7241   32.9901   44.8333 H   0  0  0  0  0  0  0  0  0  0  0  0
   58.1470   32.7050   42.7620 C   0  0  0  0  0  0  0  0  0  0  0  0
   58.7317   33.5643   42.4020 H   0  0  0  0  0  0  0  0  0  0  0  0
   57.4170   31.9280   41.8570 C   0  0  0  0  0  0  0  0  0  0  0  0
   57.4310   32.2340   40.5370 F   0  0  0  0  0  0  0  0  0  0  0  0
   56.6810   30.8300   42.3130 C   0  0  0  0  0  0  0  0  0  0  0  0
   56.1120   30.2159   41.5995 H   0  0  0  0  0  0  0  0  0  0  0  0
   56.6670   30.5110   43.6750 C   0  0  0  0  0  0  0  0  0  0  0  0
   55.9600   29.4360   44.1060 F   0  0  0  0  0  0  0  0  0  0  0  0
   59.3390   31.3960   47.3340 C   0  0  0  0  0  0  0  0  0  0  0  0
   59.1930   32.8310   47.3820 C   0  0  0  0  0  0  0  0  0  0  0  0
   59.0700   33.9810   47.4300 N   0  0  0  0  0  0  0  0  0  0  0  0
   60.4090   30.8530   48.0500 C   0  0  0  0  0  0  0  0  0  0  0  0
   61.1437   31.5248   48.5180 H   0  0  0  0  0  0  0  0  0  0  0  0
   60.5560   29.5110   48.1770 N   0  0  0  0  0  0  0  0  0  0  0  0
   61.3750   29.1690   48.7270 H   0  0  0  0  0  0  0  0  0  0  0  0
   57.1840   24.7230   44.7280 S   0  0  0  0  0  0  0  0  0  0  0  0
   55.6190   24.1130   44.6900 C   0  0  0  0  0  0  0  0  0  0  0  0
   55.2537   23.3030   44.0415 H   0  0  0  0  0  0  0  0  0  0  0  0
  1  2  1  0
  2  3  1  0
  3  4  2  0
  4  5  1  0
  5  6  2  0
  6  7  1  0
  6  8  1  0
  8  9  1  0
  9 10  1  0
 10 11  1  0
 10 12  1  0
 10 13  1  0
  8 14  2  0
 14 15  1  0
 15 16  2  0
 16 17  1  0
 15 18  1  0
 18 19  2  0
 19 20  1  0
 20 21  2  0
 21 22  1  0
 21 23  1  0
 23 24  1  0
 23 25  2  0
 25 26  1  0
 25 27  1  0
 27 28  1  0
 27 29  2  0
 29 30  1  0
 18 31  1  0
 31 32  1  0
 32 33  3  0
 31 34  2  0
 34 35  1  0
 34 36  1  0
 36 37  1  0
  4 38  1  0
 38 39  1  0
 39 40  1  0
 39  2  2  0
 16  5  1  0
 29 20  1  0
 36 14  1  0
M  END
>  <UniqueID>  (39) 
37

>  <SMILES>  (39) 
COc1cc(-c2nccs2)cc2/c(=N/c3ccc(F)cc3F)c(C#N)c[nH]c12

>  <Energy>  (39) 
96.78455988449727

>  <Genealogy>  (39) 
COc1cc(-c2nccs2)cc2/c(=N/c3ccc(F)cc3F)c(C#N)c[nH]c12 (cis-trans isomerization)
COc1cc(-c2nccs2)cc2/c(=N/c3ccc(F)cc3F)c(C#N)c[nH]c12 (3D coordinates assigned)
COc1cc(-c2nccs2)cc2/c(=N/c3ccc(F)cc3F)c(C#N)c[nH]c12 (optimized conformer: 96.78455988449727 kcal/mol)

>  <smiles>  (39) 
COc1cc(-c2nccs2)cc2c(=Nc3ccc(F)cc3F)c(C#N)c[nH]c12

>  <score_type>  (39) 
oracle

>  <origin>  (39) 
adg

>  <m_score__min__energy>  (39) 
-7.5300000000000002

>  <m_primary>  (39) 
energy

$$$$
39:0
     RDKit          3D

 17 17  0  0  0  0  0  0  0  0999 V2000
   56.5950   29.3460   42.9370 S   0  0  0  0  0  0  0  0  0  0  0  0
   56.8080   30.5230   44.0160 C   0  0  0  0  0  0  0  0  0  0  0  0
   56.9760   31.4500   44.8720 N   0  0  0  0  0  0  0  0  0  0  0  0
   57.4050   32.7890   44.4820 C   0  0  0  0  0  0  0  0  0  0  0  0
   58.1770   33.4440   45.5970 C   0  0  0  0  0  0  0  0  0  0  0  0
   58.9690   34.5760   45.3430 C   0  0  0  0  0  0  0  0  0  0  0  0
   59.7130   35.1610   46.3720 C   0  0  0  0  0  0  0  0  0  0  0  0
   59.6780   34.6150   47.6590 C   0  0  0  0  0  0  0  0  0  0  0  0
   58.9040   33.4810   47.9160 C   0  0  0  0  0  0  0  0  0  0  0  0
   58.1590   32.8920   46.8890 C   0  0  0  0  0  0  0  0  0  0  0  0
   58.0465   32.7180   43.5912 H   0  0  0  0  0  0  0  0  0  0  0  0
   56.5148   33.3967   44.2623 H   0  0  0  0  0  0  0  0  0  0  0  0
   59.0040   35.0040   44.3303 H   0  0  0  0  0  0  0  0  0  0  0  0
   60.3263   36.0513   46.1692 H   0  0  0  0  0  0  0  0  0  0  0  0
   60.2601   35.0786   48.4691 H   0  0  0  0  0  0  0  0  0  0  0  0
   58.8803   33.0503   48.9279 H   0  0  0  0  0  0  0  0  0  0  0  0
   57.5573   31.9941   47.0934 H   0  0  0  0  0  0  0  0  0  0  0  0
  1  2  2  0
  2  3  2  0
  3  4  1  0
  4  5  1  0
  5  6  2  0
  6  7  1  0
  7  8  2  0
  8  9  1  0
  9 10  2  0
 10  5  1  0
  4 11  1  0
  4 12  1  0
  6 13  1  0
  7 14  1  0
  8 15  1  0
  9 16  1  0
 10 17  1  0
M  END
>  <UniqueID>  (40) 
38

>  <SMILES>  (40) 
S=C=NCc1ccccc1

>  <Energy>  (40) 
13.23710841005568

>  <Genealogy>  (40) 
S=C=NCc1ccccc1 (3D coordinates assigned)
S=C=NCc1ccccc1 (optimized conformer: 13.23710841005568 kcal/mol)

>  <smiles>  (40) 
S=C=NCc1ccccc1

>  <score_type>  (40) 
oracle

>  <origin>  (40) 
adg

>  <m_score__min__energy>  (40) 
-4.9000000000000004

>  <m_primary>  (40) 
energy

$$$$
40:0
     RDKit          3D

 30 31  0  0  0  0  0  0  0  0999 V2000
   59.6540   26.5220   46.3910 C   0  0  0  0  0  0  0  0  0  0  0  0
   58.3050   25.8840   46.5500 C   0  0  0  0  0  0  0  0  0  0  0  0
   58.2420   24.6540   47.1270 N   0  0  0  0  0  0  0  0  0  0  0  0
   57.0590   24.0180   47.3110 C   0  0  0  0  0  0  0  0  0  0  0  0
   57.0350   22.8790   47.8480 O   0  0  0  0  0  0  0  0  0  0  0  0
   55.9040   24.6060   46.9180 N   0  0  0  0  0  0  0  0  0  0  0  0
   55.9010   25.8330   46.3370 C   0  0  0  0  0  0  0  0  0  0  0  0
   54.8010   26.3360   45.9890 O   0  0  0  0  0  0  0  0  0  0  0  0
   57.1130   26.5220   46.1350 C   0  0  0  0  0  0  0  0  0  0  0  0
   57.1430   28.1410   45.3910 S   0  0  0  0  0  0  0  0  0  0  0  0
   55.7520   28.6850   45.2190 O   0  0  0  0  0  0  0  0  0  0  0  0
   57.7690   28.0350   44.0300 O   0  0  0  0  0  0  0  0  0  0  0  0
   58.0670   29.2620   46.3510 N   0  0  0  0  0  0  0  0  0  0  0  0
   58.8930   30.1340   45.5140 C   0  0  0  0  0  0  0  0  0  0  0  0
   58.4070   31.5580   45.5630 C   0  0  0  0  0  0  0  0  0  0  0  0
   58.1360   32.2610   44.3770 C   0  0  0  0  0  0  0  0  0  0  0  0
   57.7000   33.5880   44.4290 C   0  0  0  0  0  0  0  0  0  0  0  0
   57.5270   34.2210   45.6640 C   0  0  0  0  0  0  0  0  0  0  0  0
   57.7900   33.5260   46.8490 C   0  0  0  0  0  0  0  0  0  0  0  0
   58.2280   32.2000   46.8010 C   0  0  0  0  0  0  0  0  0  0  0  0
   60.0829   26.7249   47.3834 H   0  0  0  0  0  0  0  0  0  0  0  0
   60.3179   25.8425   45.8365 H   0  0  0  0  0  0  0  0  0  0  0  0
   59.5499   27.4663   45.8365 H   0  0  0  0  0  0  0  0  0  0  0  0
   59.9319   30.0972   45.8738 H   0  0  0  0  0  0  0  0  0  0  0  0
   58.8290   29.7804   44.4744 H   0  0  0  0  0  0  0  0  0  0  0  0
   58.2675   31.7652   43.4039 H   0  0  0  0  0  0  0  0  0  0  0  0
   57.4927   34.1351   43.4975 H   0  0  0  0  0  0  0  0  0  0  0  0
   57.1841   35.2654   45.7035 H   0  0  0  0  0  0  0  0  0  0  0  0
   57.6518   34.0240   47.8200 H   0  0  0  0  0  0  0  0  0  0  0  0
   58.4335   31.6565   47.7350 H   0  0  0  0  0  0  0  0  0  0  0  0
  1  2  1  0
  2  3  1  0
  3  4  1  0
  4  5  2  0
  4  6  1  0
  6  7  1  0
  7  8  2  0
  7  9  1  0
  9 10  1  0
 10 11  2  0
 10 12  2  0
 10 13  1  0
 13 14  1  0
 14 15  1  0
 15 16  2  0
 16 17  1  0
 17 18  2  0
 18 19  1  0
 19 20  2  0
  9  2  2  0
 20 15  1  0
  1 21  1  0
  1 22  1  0
  1 23  1  0
 14 24  1  0
 14 25  1  0
 16 26  1  0
 17 27  1  0
 18 28  1  0
 19 29  1  0
 20 30  1  0
M  CHG  3   3  -1   6  -1  13  -1
M  END
>  <UniqueID>  (41) 
39

>  <SMILES>  (41) 
Cc1[n-]c(=O)[n-]c(=O)c1S(=O)(=O)[N-]Cc1ccccc1

>  <Energy>  (41) 
32.41313284882389

>  <Genealogy>  (41) 
Cc1[n-]c(=O)[n-]c(=O)c1S(=O)(=O)[N-]Cc1ccccc1 (protonated)
Cc1[n-]c(=O)[n-]c(=O)c1S(=O)(=O)[N-]Cc1ccccc1 (3D coordinates assigned)
Cc1[n-]c(=O)[n-]c(=O)c1S(=O)(=O)[N-]Cc1ccccc1 (optimized conformer: 32.41313284882389 kcal/mol)

>  <smiles>  (41) 
Cc1[nH]c(=O)[nH]c(=O)c1S(=O)(=O)NCc1ccccc1

>  <score_type>  (41) 
oracle

>  <origin>  (41) 
adg

>  <m_score__min__energy>  (41) 
-12.800000000000001

>  <m_primary>  (41) 
energy

$$$$
41:0
     RDKit          3D

 31 33  0  0  0  0  0  0  0  0999 V2000
   57.1821   31.9674   42.4802 H   0  0  0  0  0  0  0  0  0  0  0  0
   57.0290   31.2290   43.2810 C   0  0  0  0  0  0  0  0  0  0  0  0
   56.3300   29.7080   43.0980 S   0  0  0  0  0  0  0  0  0  0  0  0
   56.5030   29.3280   44.7200 C   0  0  0  0  0  0  0  0  0  0  0  0
   56.1310   28.1980   45.2400 N   0  0  0  0  0  0  0  0  0  0  0  0
   57.0540   27.1440   45.6580 C   0  0  0  0  0  0  0  0  0  0  0  0
   57.4307   27.3721   46.6660 H   0  0  0  0  0  0  0  0  0  0  0  0
   57.8876   27.0979   44.9418 H   0  0  0  0  0  0  0  0  0  0  0  0
   56.3600   25.8120   45.6800 C   0  0  0  0  0  0  0  0  0  0  0  0
   55.5220   25.4280   46.6630 N   0  0  0  0  0  0  0  0  0  0  0  0
   55.1250   24.1970   46.3720 N   0  0  0  0  0  0  0  0  0  0  0  0
   55.7290   23.8450   45.2200 C   0  0  0  0  0  0  0  0  0  0  0  0
   55.6004   22.8730   44.7213 H   0  0  0  0  0  0  0  0  0  0  0  0
   56.5090   24.8380   44.7610 N   0  0  0  0  0  0  0  0  0  0  0  0
   57.3560   24.8220   43.5730 C   0  0  0  0  0  0  0  0  0  0  0  0
   58.4131   24.8020   43.8766 H   0  0  0  0  0  0  0  0  0  0  0  0
   57.1298   23.9280   42.9734 H   0  0  0  0  0  0  0  0  0  0  0  0
   57.1637   25.7239   42.9734 H   0  0  0  0  0  0  0  0  0  0  0  0
   57.0810   30.3280   45.4200 N   0  0  0  0  0  0  0  0  0  0  0  0
   57.3820   31.3940   44.6250 C   0  0  0  0  0  0  0  0  0  0  0  0
   58.0250   32.6140   45.1790 C   0  0  0  0  0  0  0  0  0  0  0  0
   58.6160   33.5800   44.3400 C   0  0  0  0  0  0  0  0  0  0  0  0
   58.6007   33.4390   43.2492 H   0  0  0  0  0  0  0  0  0  0  0  0
   59.2220   34.7170   44.8850 C   0  0  0  0  0  0  0  0  0  0  0  0
   59.6803   35.4653   44.2216 H   0  0  0  0  0  0  0  0  0  0  0  0
   59.2470   34.9050   46.2680 C   0  0  0  0  0  0  0  0  0  0  0  0
   59.7217   35.8016   46.6932 H   0  0  0  0  0  0  0  0  0  0  0  0
   58.6690   33.9540   47.1110 C   0  0  0  0  0  0  0  0  0  0  0  0
   58.6905   34.1013   48.2009 H   0  0  0  0  0  0  0  0  0  0  0  0
   58.0630   32.8150   46.5730 C   0  0  0  0  0  0  0  0  0  0  0  0
   57.6118   32.0691   47.2439 H   0  0  0  0  0  0  0  0  0  0  0  0
  1  2  1  0
  2  3  1  0
  3  4  1  0
  4  5  2  0
  5  6  1  0
  6  7  1  0
  6  8  1  0
  6  9  1  0
  9 10  2  0
 10 11  1  0
 11 12  2  0
 12 13  1  0
 12 14  1  0
 14 15  1  0
 15 16  1  0
 15 17  1  0
 15 18  1  0
  4 19  1  0
 19 20  1  0
 20 21  1  0
 21 22  2  0
 22 23  1  0
 22 24  1  0
 24 25  1  0
 24 26  2  0
 26 27  1  0
 26 28  1  0
 28 29  1  0
 28 30  2  0
 30 31  1  0
 20  2  2  0
 30 21  1  0
 14  9  1  0
M  CHG  1  19  -1
M  END
>  <UniqueID>  (42) 
40

>  <SMILES>  (42) 
Cn1cnnc1C/N=c1\[n-]c(-c2ccccc2)cs1

>  <Energy>  (42) 
97.36004037081037

>  <Genealogy>  (42) 
Cn1cnnc1CN=c1[n-]c(-c2ccccc2)cs1 (protonated)
Cn1cnnc1C/N=c1\[n-]c(-c2ccccc2)cs1 (cis-trans isomerization)
Cn1cnnc1C/N=c1\[n-]c(-c2ccccc2)cs1 (3D coordinates assigned)
Cn1cnnc1C/N=c1\[n-]c(-c2ccccc2)cs1 (optimized conformer: 97.36004037081037 kcal/mol)

>  <smiles>  (42) 
Cn1cnnc1CN=c1[nH]c(-c2ccccc2)cs1

>  <score_type>  (42) 
oracle

>  <origin>  (42) 
adg

>  <m_score__min__energy>  (42) 
-9.7899999999999991

>  <m_primary>  (42) 
energy

$$$$
42:0
     RDKit          3D

 59 63  0  0  1  0  0  0  0  0999 V2000
   58.4900   28.7090   45.4200 C   0  0  0  0  0  0  0  0  0  0  0  0
   57.8170   27.5200   45.2260 C   0  0  0  0  0  0  0  0  0  0  0  0
   58.0040   26.4480   46.0740 C   0  0  0  0  0  0  0  0  0  0  0  0
   57.2850   25.2560   45.8210 N   0  0  0  0  0  0  0  0  0  0  0  0
   55.8370   25.3060   45.9480 C   0  0  0  0  0  0  0  0  0  0  0  0
   55.2740   24.0360   45.3440 C   0  0  0  0  0  0  0  0  0  0  0  0
   55.8920   23.7340   43.9750 C   0  0  0  0  0  0  0  0  0  0  0  0
   57.3900   23.5320   44.0890 C   0  0  0  0  0  0  0  0  0  0  0  0
   57.8700   23.9990   45.4500 C   0  0  0  0  0  0  0  0  0  0  0  0
   58.8860   26.6200   47.1130 C   0  0  0  0  0  0  0  0  0  0  0  0
   59.5580   27.8090   47.3070 C   0  0  0  0  0  0  0  0  0  0  0  0
   59.3870   28.8880   46.4750 C   0  0  0  0  0  0  0  0  0  0  0  0
   60.0760   30.1610   46.6420 C   0  0  0  0  0  0  0  0  0  0  0  0
   59.4510   31.2800   46.2470 N   0  0  0  0  0  0  0  0  0  0  0  0
   60.0340   32.4810   46.3730 C   0  0  0  0  0  0  0  0  0  0  0  0
   59.3810   33.4930   46.0150 N   0  0  0  0  0  0  0  0  0  0  0  0
   58.8640   33.6960   44.7320 C   0  0  2  0  0  0  0  0  0  0  0  0
   57.5810   34.4850   45.2430 C   0  0  0  0  0  0  0  0  0  0  0  0
   57.0220   33.3670   46.1300 C   0  0  0  0  0  0  0  0  0  0  0  0
   57.0650   32.2410   45.2200 N   0  0  0  0  0  0  0  0  0  0  0  0
   57.9760   32.6170   44.1560 C   0  0  0  0  0  0  0  0  0  0  0  0
   61.2960   32.6360   46.9060 C   0  0  0  0  0  0  0  0  0  0  0  0
   61.9070   31.4260   47.3080 C   0  0  0  0  0  0  0  0  0  0  0  0
   61.3040   30.2410   47.1720 N   0  0  0  0  0  0  0  0  0  0  0  0
   63.2500   31.5810   47.9150 C   0  0  0  0  0  0  0  0  0  0  0  0
   63.3450   32.7160   48.8670 C   0  0  0  0  0  0  0  0  0  0  0  0
   62.6110   33.9760   48.4980 C   0  0  0  0  0  0  0  0  0  0  0  0
   62.0330   33.8500   47.0590 C   0  0  0  0  0  0  0  0  0  0  0  0
   58.3145   29.5411   44.7223 H   0  0  0  0  0  0  0  0  0  0  0  0
   57.1195   27.4253   44.3807 H   0  0  0  0  0  0  0  0  0  0  0  0
   55.5567   25.3714   47.0097 H   0  0  0  0  0  0  0  0  0  0  0  0
   55.4364   26.1887   45.4280 H   0  0  0  0  0  0  0  0  0  0  0  0
   55.4836   23.1958   46.0224 H   0  0  0  0  0  0  0  0  0  0  0  0
   54.1912   24.1734   45.2073 H   0  0  0  0  0  0  0  0  0  0  0  0
   55.4355   22.8198   43.5678 H   0  0  0  0  0  0  0  0  0  0  0  0
   55.7029   24.5884   43.3084 H   0  0  0  0  0  0  0  0  0  0  0  0
   57.6248   22.4645   43.9656 H   0  0  0  0  0  0  0  0  0  0  0  0
   57.8956   24.1160   43.3058 H   0  0  0  0  0  0  0  0  0  0  0  0
   57.5970   23.2439   46.2018 H   0  0  0  0  0  0  0  0  0  0  0  0
   58.9608   24.1320   45.3998 H   0  0  0  0  0  0  0  0  0  0  0  0
   59.0612   25.7867   47.8094 H   0  0  0  0  0  0  0  0  0  0  0  0
   60.2530   27.8956   48.1552 H   0  0  0  0  0  0  0  0  0  0  0  0
   59.6778   33.9844   44.0504 H   0  0  0  0  0  0  0  0  0  0  0  0
   57.8413   35.3873   45.8157 H   0  0  0  0  0  0  0  0  0  0  0  0
   56.9080   34.8869   44.4713 H   0  0  0  0  0  0  0  0  0  0  0  0
   57.6561   33.1970   47.0126 H   0  0  0  0  0  0  0  0  0  0  0  0
   56.0250   33.5750   46.5455 H   0  0  0  0  0  0  0  0  0  0  0  0
   57.3340   31.3890   45.7310 H   0  0  0  0  0  0  0  0  0  0  0  0
   58.5789   31.7511   43.8448 H   0  0  0  0  0  0  0  0  0  0  0  0
   57.4339   32.9723   43.2673 H   0  0  0  0  0  0  0  0  0  0  0  0
   61.8290   29.4000   47.4940 H   0  0  0  0  0  0  0  0  0  0  0  0
   63.4973   30.6541   48.4533 H   0  0  0  0  0  0  0  0  0  0  0  0
   63.9526   31.7888   47.0945 H   0  0  0  0  0  0  0  0  0  0  0  0
   62.9501   32.3724   49.8345 H   0  0  0  0  0  0  0  0  0  0  0  0
   64.4089   32.9955   48.8753 H   0  0  0  0  0  0  0  0  0  0  0  0
   61.7876   34.1399   49.2087 H   0  0  0  0  0  0  0  0  0  0  0  0
   63.3087   34.8256   48.5349 H   0  0  0  0  0  0  0  0  0  0  0  0
   61.3658   34.7025   46.8638 H   0  0  0  0  0  0  0  0  0  0  0  0
   62.8700   33.8432   46.3453 H   0  0  0  0  0  0  0  0  0  0  0  0
  1  2  2  0
  2  3  1  0
  3  4  1  0
  4  5  1  0
  5  6  1  0
  6  7  1  0
  7  8  1  0
  8  9  1  0
  3 10  2  0
 10 11  1  0
 11 12  2  0
 12 13  1  0
 13 14  2  0
 14 15  1  0
 15 16  2  0
 16 17  1  0
 17 18  1  0
 18 19  1  0
 19 20  1  0
 20 21  1  0
 15 22  1  0
 22 23  2  0
 23 24  1  0
 23 25  1  0
 25 26  1  0
 26 27  1  0
 27 28  1  0
 12  1  1  0
 24 13  1  0
  9  4  1  0
 21 17  1  0
 28 22  1  0
  1 29  1  0
  2 30  1  0
  5 31  1  0
  5 32  1  0
  6 33  1  0
  6 34  1  0
  7 35  1  0
  7 36  1  0
  8 37  1  0
  8 38  1  0
  9 39  1  0
  9 40  1  0
 10 41  1  0
 11 42  1  0
 17 43  1  6
 18 44  1  0
 18 45  1  0
 19 46  1  0
 19 47  1  0
 20 48  1  0
 21 49  1  0
 21 50  1  0
 24 51  1  0
 25 52  1  0
 25 53  1  0
 26 54  1  0
 26 55  1  0
 27 56  1  0
 27 57  1  0
 28 58  1  0
 28 59  1  0
M  END
>  <smiles>  (43) 
c1cc(N2CCCCC2)ccc1-c1nc(=NC2CCNC2)c2c([nH]1)CCCC2

>  <score_type>  (43) 
oracle

>  <origin>  (43) 
adg

>  <m_score__min__energy>  (43) 
-9.0899999999999999

>  <m_primary>  (43) 
energy

$$$$
43:0
     RDKit          3D

 60 63  0  0  0  0  0  0  0  0999 V2000
   56.8600   28.9700   42.9410 N   0  0  0  0  0  0  0  0  0  0  0  0
   57.5890   29.0630   44.5080 S   0  0  0  0  0  0  0  0  0  0  0  0
   58.8280   29.9050   44.3940 O   0  0  0  0  0  0  0  0  0  0  0  0
   56.6250   29.7200   45.4560 O   0  0  0  0  0  0  0  0  0  0  0  0
   58.0140   27.4540   45.1190 C   0  0  0  0  0  0  0  0  0  0  0  0
   57.5190   26.3100   44.4710 C   0  0  0  0  0  0  0  0  0  0  0  0
   57.8660   25.0330   44.9230 C   0  0  0  0  0  0  0  0  0  0  0  0
   58.7020   24.8850   46.0290 C   0  0  0  0  0  0  0  0  0  0  0  0
   59.1880   26.0120   46.6920 C   0  0  0  0  0  0  0  0  0  0  0  0
   58.8480   27.3010   46.2490 C   0  0  0  0  0  0  0  0  0  0  0  0
   59.3540   28.4430   46.9560 N   0  0  0  0  0  0  0  0  0  0  0  0
   58.9610   28.6360   48.3510 C   0  0  0  0  0  0  0  0  0  0  0  0
   59.0140   30.1260   48.7000 C   0  0  0  0  0  0  0  0  0  0  0  0
   60.3280   30.7210   48.3770 N   0  0  0  0  0  0  0  0  0  0  0  0
   61.4020   30.2810   49.2960 C   0  0  0  0  0  0  0  0  0  0  0  0
   60.9260   30.3720   50.7540 C   0  0  0  0  0  0  0  0  0  0  0  0
   60.3640   31.7610   51.1080 C   0  0  0  0  0  0  0  0  0  0  0  0
   61.4420   32.8430   51.2890 C   0  0  0  0  0  0  0  0  0  0  0  0
   62.5860   32.6470   50.3920 N   0  0  0  0  0  0  0  0  0  0  0  0
   62.6820   33.8790   49.1650 S   0  0  0  0  0  0  0  0  0  0  0  0
   63.9700   33.7100   48.4090 O   0  0  0  0  0  0  0  0  0  0  0  0
   62.6840   35.2400   49.8010 O   0  0  0  0  0  0  0  0  0  0  0  0
   61.3510   33.7630   48.0250 C   0  0  0  0  0  0  0  0  0  0  0  0
   60.0100   33.6190   48.3710 C   0  0  0  0  0  0  0  0  0  0  0  0
   59.1770   33.6100   47.2490 C   0  0  0  0  0  0  0  0  0  0  0  0
   57.7840   33.4850   47.2570 C   0  0  0  0  0  0  0  0  0  0  0  0
   57.0970   33.5070   46.0310 C   0  0  0  0  0  0  0  0  0  0  0  0
   57.8010   33.6510   44.8190 C   0  0  0  0  0  0  0  0  0  0  0  0
   59.1990   33.7700   44.8220 C   0  0  0  0  0  0  0  0  0  0  0  0
   59.8600   33.7480   46.0470 C   0  0  0  0  0  0  0  0  0  0  0  0
   61.5080   33.8820   46.3440 S   0  0  0  0  0  0  0  0  0  0  0  0
   60.6640   30.5370   46.9460 C   0  0  0  0  0  0  0  0  0  0  0  0
   60.5950   29.0680   46.4940 C   0  0  0  0  0  0  0  0  0  0  0  0
   57.5750   29.2760   42.2420 H   0  0  0  0  0  0  0  0  0  0  0  0
   56.6410   27.9660   42.7520 H   0  0  0  0  0  0  0  0  0  0  0  0
   56.8537   26.4196   43.6019 H   0  0  0  0  0  0  0  0  0  0  0  0
   57.4786   24.1433   44.4049 H   0  0  0  0  0  0  0  0  0  0  0  0
   58.9784   23.8794   46.3788 H   0  0  0  0  0  0  0  0  0  0  0  0
   59.8422   25.8905   47.5680 H   0  0  0  0  0  0  0  0  0  0  0  0
   57.9369   28.2622   48.4976 H   0  0  0  0  0  0  0  0  0  0  0  0
   59.6525   28.0837   49.0043 H   0  0  0  0  0  0  0  0  0  0  0  0
   58.2350   30.6529   48.1294 H   0  0  0  0  0  0  0  0  0  0  0  0
   58.8500   30.2287   49.7828 H   0  0  0  0  0  0  0  0  0  0  0  0
   61.6719   29.2396   49.0666 H   0  0  0  0  0  0  0  0  0  0  0  0
   62.2767   30.9347   49.1635 H   0  0  0  0  0  0  0  0  0  0  0  0
   60.1378   29.6217   50.9147 H   0  0  0  0  0  0  0  0  0  0  0  0
   61.7971   30.1905   51.4007 H   0  0  0  0  0  0  0  0  0  0  0  0
   59.6884   32.0773   50.2996 H   0  0  0  0  0  0  0  0  0  0  0  0
   59.8486   31.6596   52.0745 H   0  0  0  0  0  0  0  0  0  0  0  0
   60.9944   33.8261   51.0813 H   0  0  0  0  0  0  0  0  0  0  0  0
   61.8114   32.7792   52.3231 H   0  0  0  0  0  0  0  0  0  0  0  0
   59.6488   33.5236   49.4056 H   0  0  0  0  0  0  0  0  0  0  0  0
   57.2367   33.3717   48.2044 H   0  0  0  0  0  0  0  0  0  0  0  0
   56.0013   33.4111   46.0176 H   0  0  0  0  0  0  0  0  0  0  0  0
   57.2520   33.6702   43.8660 H   0  0  0  0  0  0  0  0  0  0  0  0
   59.7582   33.8779   43.8809 H   0  0  0  0  0  0  0  0  0  0  0  0
   59.9556   31.1228   46.3419 H   0  0  0  0  0  0  0  0  0  0  0  0
   61.7016   30.8747   46.8066 H   0  0  0  0  0  0  0  0  0  0  0  0
   60.6335   29.0258   45.3955 H   0  0  0  0  0  0  0  0  0  0  0  0
   61.4477   28.5241   46.9265 H   0  0  0  0  0  0  0  0  0  0  0  0
  1  2  1  0
  2  3  2  0
  2  4  2  0
  2  5  1  0
  5  6  2  0
  6  7  1  0
  7  8  2  0
  8  9  1  0
  9 10  2  0
 10 11  1  0
 11 12  1  0
 12 13  1  0
 13 14  1  0
 14 15  1  0
 15 16  1  0
 16 17  1  0
 17 18  1  0
 18 19  1  0
 19 20  1  0
 20 21  2  0
 20 22  2  0
 20 23  1  0
 23 24  2  0
 24 25  1  0
 25 26  2  0
 26 27  1  0
 27 28  2  0
 28 29  1  0
 29 30  2  0
 30 31  1  0
 14 32  1  0
 32 33  1  0
 10  5  1  0
 33 11  1  0
 31 23  1  0
 30 25  1  0
  1 34  1  0
  1 35  1  0
  6 36  1  0
  7 37  1  0
  8 38  1  0
  9 39  1  0
 12 40  1  0
 12 41  1  0
 13 42  1  0
 13 43  1  0
 15 44  1  0
 15 45  1  0
 16 46  1  0
 16 47  1  0
 17 48  1  0
 17 49  1  0
 18 50  1  0
 18 51  1  0
 24 52  1  0
 26 53  1  0
 27 54  1  0
 28 55  1  0
 29 56  1  0
 32 57  1  0
 32 58  1  0
 33 59  1  0
 33 60  1  0
M  CHG  1  19  -1
M  END
>  <UniqueID>  (44) 
41

>  <SMILES>  (44) 
NS(=O)(=O)c1ccccc1N1CCN(CCCC[N-]S(=O)(=O)c2cc3ccccc3s2)CC1

>  <Energy>  (44) 
97.86219140304058

>  <Genealogy>  (44) 
NS(=O)(=O)c1ccccc1N1CCN(CCCC[N-]S(=O)(=O)c2cc3ccccc3s2)CC1 (protonated)
NS(=O)(=O)c1ccccc1N1CCN(CCCC[N-]S(=O)(=O)c2cc3ccccc3s2)CC1 (3D coordinates assigned)
NS(=O)(=O)c1ccccc1N1CCN(CCCC[N-]S(=O)(=O)c2cc3ccccc3s2)CC1 (nonaromatic ring conformer: 97.86219140304058 kcal/mol)

>  <smiles>  (44) 
NS(=O)(=O)c1ccccc1N1CCN(CCCCNS(=O)(=O)c2cc3ccccc3s2)CC1

>  <score_type>  (44) 
oracle

>  <origin>  (44) 
adg

>  <m_score__min__energy>  (44) 
-10.65

>  <m_primary>  (44) 
energy

$$$$
44:0
     RDKit          3D

 24 26  0  0  0  0  0  0  0  0999 V2000
   57.0240   31.2240   42.2470 C   0  0  0  0  0  0  0  0  0  0  0  0
   56.4980   30.1510   42.9490 C   0  0  0  0  0  0  0  0  0  0  0  0
   56.9210   30.3300   44.5630 S   0  0  0  0  0  0  0  0  0  0  0  0
   57.7780   31.7740   44.3950 C   0  0  0  0  0  0  0  0  0  0  0  0
   58.4460   32.5110   45.5000 C   0  0  0  0  0  0  0  0  0  0  0  0
   57.8530   33.6510   46.0760 C   0  0  0  0  0  0  0  0  0  0  0  0
   58.4840   34.3070   47.0840 N   0  0  0  0  0  0  0  0  0  0  0  0
   59.6840   33.8890   47.5550 C   0  0  0  0  0  0  0  0  0  0  0  0
   60.3190   34.5790   48.5940 C   0  0  0  0  0  0  0  0  0  0  0  0
   61.5580   34.1370   49.0710 C   0  0  0  0  0  0  0  0  0  0  0  0
   62.1640   33.0070   48.5100 C   0  0  0  0  0  0  0  0  0  0  0  0
   61.5340   32.3140   47.4710 C   0  0  0  0  0  0  0  0  0  0  0  0
   60.2910   32.7510   46.9870 C   0  0  0  0  0  0  0  0  0  0  0  0
   59.6580   32.0910   45.9760 N   0  0  0  0  0  0  0  0  0  0  0  0
   57.7360   32.1290   43.0440 C   0  0  0  0  0  0  0  0  0  0  0  0
   56.8940   31.3530   41.1624 H   0  0  0  0  0  0  0  0  0  0  0  0
   55.9070   29.3268   42.5230 H   0  0  0  0  0  0  0  0  0  0  0  0
   56.8797   34.0098   45.7099 H   0  0  0  0  0  0  0  0  0  0  0  0
   59.8445   35.4679   49.0352 H   0  0  0  0  0  0  0  0  0  0  0  0
   62.0566   34.6786   49.8883 H   0  0  0  0  0  0  0  0  0  0  0  0
   63.1384   32.6629   48.8872 H   0  0  0  0  0  0  0  0  0  0  0  0
   62.0130   31.4259   47.0329 H   0  0  0  0  0  0  0  0  0  0  0  0
   60.1160   31.2480   45.5620 H   0  0  0  0  0  0  0  0  0  0  0  0
   58.2169   33.0340   42.6443 H   0  0  0  0  0  0  0  0  0  0  0  0
  1  2  2  0
  2  3  1  0
  3  4  1  0
  4  5  1  0
  5  6  2  0
  6  7  1  0
  7  8  2  0
  8  9  1  0
  9 10  2  0
 10 11  1  0
 11 12  2  0
 12 13  1  0
 13 14  2  0
  4 15  2  0
 15  1  1  0
 14  5  1  0
 13  8  1  0
  1 16  1  0
  2 17  1  0
  6 18  1  0
  9 19  1  0
 10 20  1  0
 11 21  1  0
 12 22  1  0
 14 23  1  0
 15 24  1  0
M  CHG  1  14   1
M  END
>  <UniqueID>  (45) 
42

>  <SMILES>  (45) 
c1csc(-c2cnc3ccccc3[nH+]2)c1

>  <Energy>  (45) 
58.57862091848198

>  <Genealogy>  (45) 
c1csc(-c2cnc3ccccc3[nH+]2)c1 (protonated)
c1csc(-c2cnc3ccccc3[nH+]2)c1 (3D coordinates assigned)
c1csc(-c2cnc3ccccc3[nH+]2)c1 (optimized conformer: 58.57862091848198 kcal/mol)

>  <smiles>  (45) 
c1csc(-c2cnc3ccccc3n2)c1

>  <score_type>  (45) 
oracle

>  <origin>  (45) 
adg

>  <m_score__min__energy>  (45) 
-4.3200000000000003

>  <m_primary>  (45) 
energy

$$$$
45:0
     RDKit          3D

 45 47  0  0  0  0  0  0  0  0999 V2000
   59.5020   33.3860   50.7850 C   0  0  0  0  0  0  0  0  0  0  0  0
   59.6850   33.4350   49.3740 O   0  0  0  0  0  0  0  0  0  0  0  0
   60.9310   33.5040   48.7310 C   0  0  0  0  0  0  0  0  0  0  0  0
   62.0510   34.0970   49.3470 C   0  0  0  0  0  0  0  0  0  0  0  0
   63.2890   34.1160   48.6990 C   0  0  0  0  0  0  0  0  0  0  0  0
   63.4270   33.5380   47.4380 C   0  0  0  0  0  0  0  0  0  0  0  0
   62.3240   32.9540   46.8120 C   0  0  0  0  0  0  0  0  0  0  0  0
   61.0690   32.9410   47.4430 C   0  0  0  0  0  0  0  0  0  0  0  0
   59.9400   32.3460   46.7720 N   0  0  0  0  0  0  0  0  0  0  0  0
   59.6520   30.9150   46.9260 C   0  0  0  0  0  0  0  0  0  0  0  0
   58.1430   30.6630   46.7950 C   0  0  0  0  0  0  0  0  0  0  0  0
   57.5610   31.2080   45.5360 N   0  0  0  0  0  0  0  0  0  0  0  0
   57.2890   30.1470   44.5810 C   0  0  0  0  0  0  0  0  0  0  0  0
   55.8020   30.0080   43.8990 S   0  0  0  0  0  0  0  0  0  0  0  0
   58.3230   29.2520   44.1470 N   0  0  0  0  0  0  0  0  0  0  0  0
   58.7620   28.1300   44.9260 C   0  0  0  0  0  0  0  0  0  0  0  0
   57.8850   27.0790   45.2500 C   0  0  0  0  0  0  0  0  0  0  0  0
   58.3300   26.0060   46.0270 C   0  0  0  0  0  0  0  0  0  0  0  0
   59.6540   25.9640   46.4720 C   0  0  0  0  0  0  0  0  0  0  0  0
   60.5350   26.9960   46.1400 C   0  0  0  0  0  0  0  0  0  0  0  0
   60.0940   28.0700   45.3630 C   0  0  0  0  0  0  0  0  0  0  0  0
   58.3500   32.3030   44.9110 C   0  0  0  0  0  0  0  0  0  0  0  0
   59.0450   33.1760   45.9600 C   0  0  0  0  0  0  0  0  0  0  0  0
   60.4478   33.6392   51.2864 H   0  0  0  0  0  0  0  0  0  0  0  0
   58.7261   34.1080   51.0794 H   0  0  0  0  0  0  0  0  0  0  0  0
   59.1907   32.3729   51.0794 H   0  0  0  0  0  0  0  0  0  0  0  0
   61.9501   34.5482   50.3451 H   0  0  0  0  0  0  0  0  0  0  0  0
   64.1559   34.5878   49.1847 H   0  0  0  0  0  0  0  0  0  0  0  0
   64.4056   33.5420   46.9357 H   0  0  0  0  0  0  0  0  0  0  0  0
   62.4387   32.5003   45.8165 H   0  0  0  0  0  0  0  0  0  0  0  0
   60.1841   30.3509   46.1459 H   0  0  0  0  0  0  0  0  0  0  0  0
   59.9869   30.5855   47.9206 H   0  0  0  0  0  0  0  0  0  0  0  0
   57.9670   29.5775   46.8196 H   0  0  0  0  0  0  0  0  0  0  0  0
   57.6524   31.1818   47.6318 H   0  0  0  0  0  0  0  0  0  0  0  0
   56.6400   31.6360   45.7990 H   0  0  0  0  0  0  0  0  0  0  0  0
   58.8660   29.5190   43.2950 H   0  0  0  0  0  0  0  0  0  0  0  0
   56.8456   27.1018   44.8906 H   0  0  0  0  0  0  0  0  0  0  0  0
   57.6368   25.1930   46.2888 H   0  0  0  0  0  0  0  0  0  0  0  0
   60.0024   25.1186   47.0835 H   0  0  0  0  0  0  0  0  0  0  0  0
   61.5771   26.9630   46.4907 H   0  0  0  0  0  0  0  0  0  0  0  0
   60.7950   28.8733   45.0922 H   0  0  0  0  0  0  0  0  0  0  0  0
   59.1133   31.8610   44.2538 H   0  0  0  0  0  0  0  0  0  0  0  0
   57.6575   32.9402   44.3415 H   0  0  0  0  0  0  0  0  0  0  0  0
   59.6291   33.9600   45.4558 H   0  0  0  0  0  0  0  0  0  0  0  0
   58.2884   33.6419   46.6085 H   0  0  0  0  0  0  0  0  0  0  0  0
  1  2  1  0
  2  3  1  0
  3  4  2  0
  4  5  1  0
  5  6  2  0
  6  7  1  0
  7  8  2  0
  8  9  1  0
  9 10  1  0
 10 11  1  0
 11 12  1  0
 12 13  1  0
 13 14  2  0
 13 15  1  0
 15 16  1  0
 16 17  2  0
 17 18  1  0
 18 19  2  0
 19 20  1  0
 20 21  2  0
 12 22  1  0
 22 23  1  0
  8  3  1  0
 23  9  1  0
 21 16  1  0
  1 24  1  0
  1 25  1  0
  1 26  1  0
  4 27  1  0
  5 28  1  0
  6 29  1  0
  7 30  1  0
 10 31  1  0
 10 32  1  0
 11 33  1  0
 11 34  1  0
 12 35  1  0
 15 36  1  0
 17 37  1  0
 18 38  1  0
 19 39  1  0
 20 40  1  0
 21 41  1  0
 22 42  1  0
 22 43  1  0
 23 44  1  0
 23 45  1  0
M  CHG  1  12   1
M  END
>  <UniqueID>  (46) 
43

>  <SMILES>  (46) 
COc1ccccc1N1CC[NH+](C(=S)Nc2ccccc2)CC1

>  <Energy>  (46) 
66.96511486701318

>  <Genealogy>  (46) 
COc1ccccc1N1CC[NH+](C(=S)Nc2ccccc2)CC1 (protonated)
COc1ccccc1N1CC[NH+](C(=S)Nc2ccccc2)CC1 (3D coordinates assigned)
COc1ccccc1N1CC[NH+](C(=S)Nc2ccccc2)CC1 (nonaromatic ring conformer: 66.96511486701318 kcal/mol)

>  <smiles>  (46) 
COc1ccccc1N1CCN(C(=S)Nc2ccccc2)CC1

>  <score_type>  (46) 
oracle

>  <origin>  (46) 
adg

>  <m_score__min__energy>  (46) 
-6.1900000000000004

>  <m_primary>  (46) 
energy

$$$$
46:0
     RDKit          3D

 60 65  0  0  0  0  0  0  0  0999 V2000
   59.0729   34.5910   48.9378 H   0  0  0  0  0  0  0  0  0  0  0  0
   59.8050   33.8450   48.5950 C   0  0  0  0  0  0  0  0  0  0  0  0
   60.9770   34.2600   47.9550 C   0  0  0  0  0  0  0  0  0  0  0  0
   61.1668   35.3318   47.7964 H   0  0  0  0  0  0  0  0  0  0  0  0
   61.9090   33.3120   47.5160 C   0  0  0  0  0  0  0  0  0  0  0  0
   63.3790   33.8330   46.7130 Cl  0  0  0  0  0  0  0  0  0  0  0  0
   61.6680   31.9490   47.7190 C   0  0  0  0  0  0  0  0  0  0  0  0
   62.4005   31.2045   47.3737 H   0  0  0  0  0  0  0  0  0  0  0  0
   60.4940   31.5300   48.3620 C   0  0  0  0  0  0  0  0  0  0  0  0
   60.2460   30.1260   48.5720 N   0  0  0  0  0  0  0  0  0  0  0  0
   59.3200   29.4700   47.7930 C   0  0  0  0  0  0  0  0  0  0  0  0
   58.1520   27.3560   47.2540 C   0  0  0  0  0  0  0  0  0  0  0  0
   57.9734   26.2879   47.4468 H   0  0  0  0  0  0  0  0  0  0  0  0
   57.4300   28.0030   46.2240 C   0  0  0  0  0  0  0  0  0  0  0  0
   56.5630   27.3340   45.5240 N   0  0  0  0  0  0  0  0  0  0  0  0
   57.0360   31.4580   44.4070 C   0  0  0  0  0  0  0  0  0  0  0  0
   56.2562   31.1408   43.6989 H   0  0  0  0  0  0  0  0  0  0  0  0
   57.2710   32.6990   45.2390 C   0  0  0  0  0  0  0  0  0  0  0  0
   56.7261   33.6271   45.0113 H   0  0  0  0  0  0  0  0  0  0  0  0
   57.2289   32.9400   46.3114 H   0  0  0  0  0  0  0  0  0  0  0  0
   58.3560   32.1850   44.2760 C   0  0  0  0  0  0  0  0  0  0  0  0
   58.5888   32.7446   43.3580 H   0  0  0  0  0  0  0  0  0  0  0  0
   59.4153   31.9042   44.3708 H   0  0  0  0  0  0  0  0  0  0  0  0
   57.6340   29.4050   45.9970 C   0  0  0  0  0  0  0  0  0  0  0  0
   57.0300   30.1510   45.0960 N   0  0  0  0  0  0  0  0  0  0  0  0
   56.5200   25.9240   45.2540 C   0  0  0  0  0  0  0  0  0  0  0  0
   57.5210   25.2990   44.4960 C   0  0  0  0  0  0  0  0  0  0  0  0
   58.3836   25.8823   44.1416 H   0  0  0  0  0  0  0  0  0  0  0  0
   57.4280   23.9400   44.1890 C   0  0  0  0  0  0  0  0  0  0  0  0
   58.2292   23.4532   43.6136 H   0  0  0  0  0  0  0  0  0  0  0  0
   56.3140   23.1890   44.6120 C   0  0  0  0  0  0  0  0  0  0  0  0
   56.1830   21.8200   44.3260 O   0  0  0  0  0  0  0  0  0  0  0  0
   57.0240   21.1010   43.4300 C   0  0  0  0  0  0  0  0  0  0  0  0
   57.7367   20.4917   44.0052 H   0  0  0  0  0  0  0  0  0  0  0  0
   56.4089   20.4452   42.7963 H   0  0  0  0  0  0  0  0  0  0  0  0
   57.5762   21.8106   42.7963 H   0  0  0  0  0  0  0  0  0  0  0  0
   55.2960   23.8280   45.3390 C   0  0  0  0  0  0  0  0  0  0  0  0
   53.8800   22.9300   45.8670 Cl  0  0  0  0  0  0  0  0  0  0  0  0
   55.3950   25.1890   45.6440 C   0  0  0  0  0  0  0  0  0  0  0  0
   54.5825   25.6856   46.1946 H   0  0  0  0  0  0  0  0  0  0  0  0
   58.5740   30.0980   46.7830 C   0  0  0  0  0  0  0  0  0  0  0  0
   58.7298   31.1713   46.5990 H   0  0  0  0  0  0  0  0  0  0  0  0
   59.0810   28.0390   48.0270 C   0  0  0  0  0  0  0  0  0  0  0  0
   59.7660   27.4040   49.0020 N   0  0  0  0  0  0  0  0  0  0  0  0
   60.6760   28.0580   49.7650 C   0  0  0  0  0  0  0  0  0  0  0  0
   61.3610   27.3540   50.7580 C   0  0  0  0  0  0  0  0  0  0  0  0
   61.1525   26.2849   50.9116 H   0  0  0  0  0  0  0  0  0  0  0  0
   62.3070   27.9960   51.5560 C   0  0  0  0  0  0  0  0  0  0  0  0
   62.8415   27.4313   52.3341 H   0  0  0  0  0  0  0  0  0  0  0  0
   62.5800   29.3610   51.3700 C   0  0  0  0  0  0  0  0  0  0  0  0
   63.5240   30.0510   52.1470 O   0  0  0  0  0  0  0  0  0  0  0  0
   64.3200   31.1320   51.6720 C   0  0  0  0  0  0  0  0  0  0  0  0
   64.7301   31.6889   52.5274 H   0  0  0  0  0  0  0  0  0  0  0  0
   65.1456   30.7385   51.0608 H   0  0  0  0  0  0  0  0  0  0  0  0
   63.6992   31.8036   51.0608 H   0  0  0  0  0  0  0  0  0  0  0  0
   61.8950   30.0710   50.3780 C   0  0  0  0  0  0  0  0  0  0  0  0
   62.1092   31.1404   50.2345 H   0  0  0  0  0  0  0  0  0  0  0  0
   60.9310   29.4390   49.5550 C   0  0  0  0  0  0  0  0  0  0  0  0
   59.5620   32.4830   48.8000 C   0  0  0  0  0  0  0  0  0  0  0  0
   58.6400   32.1588   49.3047 H   0  0  0  0  0  0  0  0  0  0  0  0
  1  2  1  0
  2  3  2  0
  3  4  1  0
  3  5  1  0
  5  6  1  0
  5  7  2  0
  7  8  1  0
  7  9  1  0
  9 10  1  0
 10 11  1  0
 11 12  2  0
 12 13  1  0
 12 14  1  0
 14 15  2  0
 15 16  1  0
 16 17  1  0
 16 18  1  0
 18 19  1  0
 18 20  1  0
 18 21  1  0
 21 22  1  0
 21 23  1  0
 14 24  1  0
 24 25  2  0
 25 26  1  0
 26 27  2  0
 27 28  1  0
 27 29  1  0
 29 30  1  0
 29 31  2  0
 31 32  1  0
 32 33  1  0
 33 34  1  0
 33 35  1  0
 33 36  1  0
 31 37  1  0
 37 38  1  0
 37 39  2  0
 39 40  1  0
 24 41  1  0
 41 42  1  0
 41 43  2  0
 43 44  1  0
 44 45  1  0
 45 46  2  0
 46 47  1  0
 46 48  1  0
 48 49  1  0
 48 50  2  0
 50 51  1  0
 51 52  1  0
 52 53  1  0
 52 54  1  0
 52 55  1  0
 50 56  1  0
 56 57  1  0
 56 58  2  0
  9 59  2  0
 59 60  1  0
 59  2  1  0
 58 10  1  0
 43 11  1  0
 58 45  1  0
 21 16  1  0
 39 26  1  0
M  CHG  1  44  -1
M  END
>  <UniqueID>  (47) 
44

>  <SMILES>  (47) 
COc1ccc2[n-]c3cc(=N\c4ccc(OC)c(Cl)c4)/c(=N\C4CC4)cc-3n(-c3cccc(Cl)c3)c2c1

>  <Energy>  (47) 
389.62246898627245

>  <Genealogy>  (47) 
COc1ccc2[n-]c3cc(=Nc4ccc(OC)c(Cl)c4)c(=NC4CC4)cc-3n(-c3cccc(Cl)c3)c2c1 (protonated)
COc1ccc2[n-]c3cc(=N\c4ccc(OC)c(Cl)c4)/c(=N\C4CC4)cc-3n(-c3cccc(Cl)c3)c2c1 (cis-trans isomerization)
COc1ccc2[n-]c3cc(=N\c4ccc(OC)c(Cl)c4)/c(=N\C4CC4)cc-3n(-c3cccc(Cl)c3)c2c1 (3D coordinates assigned)
COc1ccc2[n-]c3cc(=N\c4ccc(OC)c(Cl)c4)/c(=N\C4CC4)cc-3n(-c3cccc(Cl)c3)c2c1 (nonaromatic ring conformer: 389.62246898627245 kcal/mol)

>  <smiles>  (47) 
COc1ccc2[nH]c3cc(=Nc4ccc(OC)c(Cl)c4)c(=NC4CC4)cc-3n(-c3cccc(Cl)c3)c2c1

>  <score_type>  (47) 
oracle

>  <origin>  (47) 
adg

>  <m_score__min__energy>  (47) 
-9.7200000000000006

>  <m_primary>  (47) 
energy

$$$$
47:0
     RDKit          3D

 23 23  0  0  0  0  0  0  0  0999 V2000
   55.1620   29.7160   43.7130 C   0  0  0  0  0  0  0  0  0  0  0  0
   55.7560   29.1450   44.8730 O   0  0  0  0  0  0  0  0  0  0  0  0
   57.0870   29.3510   45.2730 C   0  0  0  0  0  0  0  0  0  0  0  0
   57.6090   30.6450   45.4750 C   0  0  0  0  0  0  0  0  0  0  0  0
   58.9400   30.8180   45.8590 C   0  0  0  0  0  0  0  0  0  0  0  0
   59.7670   29.7100   46.0410 C   0  0  0  0  0  0  0  0  0  0  0  0
   59.2650   28.4230   45.8450 C   0  0  0  0  0  0  0  0  0  0  0  0
   57.9230   28.2310   45.4740 C   0  0  0  0  0  0  0  0  0  0  0  0
   57.4120   26.8310   45.2390 C   0  0  0  0  0  0  0  0  0  0  0  0
   56.4580   26.4080   46.3590 C   0  0  0  0  0  0  0  0  0  0  0  0
   55.1310   26.6680   45.9890 O   0  0  0  0  0  0  0  0  0  0  0  0
   54.3994   30.4491   44.0146 H   0  0  0  0  0  0  0  0  0  0  0  0
   55.9361   30.2177   43.1138 H   0  0  0  0  0  0  0  0  0  0  0  0
   54.6913   28.9227   43.1138 H   0  0  0  0  0  0  0  0  0  0  0  0
   56.9635   31.5237   45.3291 H   0  0  0  0  0  0  0  0  0  0  0  0
   59.3375   31.8312   46.0185 H   0  0  0  0  0  0  0  0  0  0  0  0
   60.8163   29.8508   46.3394 H   0  0  0  0  0  0  0  0  0  0  0  0
   59.9239   27.5529   45.9817 H   0  0  0  0  0  0  0  0  0  0  0  0
   56.8777   26.7982   44.2780 H   0  0  0  0  0  0  0  0  0  0  0  0
   58.2678   26.1401   45.2237 H   0  0  0  0  0  0  0  0  0  0  0  0
   56.5774   25.3314   46.5507 H   0  0  0  0  0  0  0  0  0  0  0  0
   56.6957   26.9801   47.2680 H   0  0  0  0  0  0  0  0  0  0  0  0
   55.1460   27.4990   45.4450 H   0  0  0  0  0  0  0  0  0  0  0  0
  1  2  1  0
  2  3  1  0
  3  4  2  0
  4  5  1  0
  5  6  2  0
  6  7  1  0
  7  8  2  0
  8  9  1  0
  9 10  1  0
 10 11  1  0
  8  3  1  0
  1 12  1  0
  1 13  1  0
  1 14  1  0
  4 15  1  0
  5 16  1  0
  6 17  1  0
  7 18  1  0
  9 19  1  0
  9 20  1  0
 10 21  1  0
 10 22  1  0
 11 23  1  0
M  END
>  <UniqueID>  (48) 
45

>  <SMILES>  (48) 
COc1ccccc1CCO

>  <Energy>  (48) 
18.049002014379536

>  <Genealogy>  (48) 
COc1ccccc1CCO (3D coordinates assigned)
COc1ccccc1CCO (optimized conformer: 18.049002014379536 kcal/mol)

>  <smiles>  (48) 
COc1ccccc1CCO

>  <score_type>  (48) 
oracle

>  <origin>  (48) 
adg

>  <m_score__min__energy>  (48) 
-5.2999999999999998

>  <m_primary>  (48) 
energy

$$$$
48:0
     RDKit          3D

 44 46  0  0  0  0  0  0  0  0999 V2000
   59.1660   31.7380   47.8880 C   0  0  0  0  0  0  0  0  0  0  0  0
   60.1020   31.9460   46.7690 N   0  0  0  0  0  0  0  0  0  0  0  0
   60.5560   33.3580   46.6680 C   0  0  0  0  0  0  0  0  0  0  0  0
   62.0730   33.5470   46.8640 C   0  0  0  0  0  0  0  0  0  0  0  0
   62.5940   32.7210   48.0520 C   0  0  0  0  0  0  0  0  0  0  0  0
   62.2330   31.2180   47.8840 C   0  0  0  0  0  0  0  0  0  0  0  0
   61.1970   30.9540   46.7750 C   0  0  0  0  0  0  0  0  0  0  0  0
   61.9750   33.2340   49.2830 N   0  0  0  0  0  0  0  0  0  0  0  0
   62.6170   33.3950   50.4010 C   0  0  0  0  0  0  0  0  0  0  0  0
   61.9160   33.8520   51.5560 N   0  0  0  0  0  0  0  0  0  0  0  0
   64.0300   33.1540   50.4710 N   0  0  0  0  0  0  0  0  0  0  0  0
   64.7180   32.8950   49.3960 C   0  0  0  0  0  0  0  0  0  0  0  0
   66.1430   32.7300   49.4510 N   0  0  0  0  0  0  0  0  0  0  0  0
   66.8480   32.1290   50.5510 C   0  0  0  0  0  0  0  0  0  0  0  0
   67.7720   32.8860   51.2780 C   0  0  0  0  0  0  0  0  0  0  0  0
   68.4700   32.3080   52.3360 C   0  0  0  0  0  0  0  0  0  0  0  0
   68.2550   30.9650   52.6480 C   0  0  0  0  0  0  0  0  0  0  0  0
   67.3850   30.2120   51.9100 N   0  0  0  0  0  0  0  0  0  0  0  0
   67.1560   28.8100   52.2650 C   0  0  0  0  0  0  0  0  0  0  0  0
   66.6790   30.7720   50.8820 C   0  0  0  0  0  0  0  0  0  0  0  0
   64.0540   32.8600   48.1280 N   0  0  0  0  0  0  0  0  0  0  0  0
   59.7019   31.8571   48.8412 H   0  0  0  0  0  0  0  0  0  0  0  0
   58.3539   32.4776   47.8290 H   0  0  0  0  0  0  0  0  0  0  0  0
   58.7435   30.7241   47.8290 H   0  0  0  0  0  0  0  0  0  0  0  0
   60.2867   33.7369   45.6711 H   0  0  0  0  0  0  0  0  0  0  0  0
   60.0602   33.9094   47.4805 H   0  0  0  0  0  0  0  0  0  0  0  0
   62.5943   33.2268   45.9498 H   0  0  0  0  0  0  0  0  0  0  0  0
   62.2648   34.6101   47.0717 H   0  0  0  0  0  0  0  0  0  0  0  0
   63.1519   30.6645   47.6406 H   0  0  0  0  0  0  0  0  0  0  0  0
   61.7837   30.8858   48.8315 H   0  0  0  0  0  0  0  0  0  0  0  0
   61.7076   30.9878   45.8013 H   0  0  0  0  0  0  0  0  0  0  0  0
   60.7500   29.9673   46.9663 H   0  0  0  0  0  0  0  0  0  0  0  0
   62.4190   34.0010   52.4590 H   0  0  0  0  0  0  0  0  0  0  0  0
   60.8890   34.0410   51.5120 H   0  0  0  0  0  0  0  0  0  0  0  0
   64.5090   33.2580   51.3940 H   0  0  0  0  0  0  0  0  0  0  0  0
   66.6990   33.0460   48.6240 H   0  0  0  0  0  0  0  0  0  0  0  0
   67.9479   33.9393   51.0141 H   0  0  0  0  0  0  0  0  0  0  0  0
   69.1849   32.9055   52.9208 H   0  0  0  0  0  0  0  0  0  0  0  0
   68.7896   30.5088   53.4942 H   0  0  0  0  0  0  0  0  0  0  0  0
   67.1392   28.7071   53.3600 H   0  0  0  0  0  0  0  0  0  0  0  0
   66.1920   28.4796   51.8508 H   0  0  0  0  0  0  0  0  0  0  0  0
   67.9648   28.1901   51.8508 H   0  0  0  0  0  0  0  0  0  0  0  0
   65.9717   30.1555   50.3078 H   0  0  0  0  0  0  0  0  0  0  0  0
   64.6270   32.7110   47.2670 H   0  0  0  0  0  0  0  0  0  0  0  0
  1  2  1  0
  2  3  1  0
  3  4  1  0
  4  5  1  0
  5  6  1  0
  6  7  1  0
  5  8  1  0
  8  9  2  0
  9 10  1  0
  9 11  1  0
 11 12  2  0
 12 13  1  0
 13 14  1  0
 14 15  2  0
 15 16  1  0
 16 17  2  0
 17 18  1  0
 18 19  1  0
 18 20  2  0
 12 21  1  0
  7  2  1  0
 20 14  1  0
 21  5  1  0
  1 22  1  0
  1 23  1  0
  1 24  1  0
  3 25  1  0
  3 26  1  0
  4 27  1  0
  4 28  1  0
  6 29  1  0
  6 30  1  0
  7 31  1  0
  7 32  1  0
 10 33  1  0
 10 34  1  0
 11 35  1  0
 13 36  1  0
 15 37  1  0
 16 38  1  0
 17 39  1  0
 19 40  1  0
 19 41  1  0
 19 42  1  0
 20 43  1  0
 21 44  1  0
M  CHG  2  11   1  18   1
M  END
>  <UniqueID>  (49) 
46

>  <SMILES>  (49) 
CN1CCC2(CC1)N=C(N)[NH+]=C(Nc1ccc[n+](C)c1)N2

>  <Energy>  (49) 
58.11156289682382

>  <Genealogy>  (49) 
CN1CCC2(CC1)N=C(N)[NH+]=C(Nc1ccc[n+](C)c1)N2 (protonated)
CN1CCC2(CC1)N=C(N)[NH+]=C(Nc1ccc[n+](C)c1)N2 (3D coordinates assigned)
CN1CCC2(CC1)N=C(N)[NH+]=C(Nc1ccc[n+](C)c1)N2 (nonaromatic ring conformer: 58.11156289682382 kcal/mol)

>  <smiles>  (49) 
CN1CCC2(CC1)N=C(N)N=C(Nc1ccc[n+](C)c1)N2

>  <score_type>  (49) 
oracle

>  <origin>  (49) 
adg

>  <m_score__min__energy>  (49) 
-3.5499999999999998

>  <m_primary>  (49) 
energy

$$$$
