0:0
     RDKit          3D

 50 50  0  0  0  0  0  0  0  0999 V2000
   56.2870   29.6310   42.6290 C   0  0  0  0  0  0  0  0  0  0  0  0
   56.1050   29.6150   44.1490 C   0  0  0  0  0  0  0  0  0  0  0  0
   56.9900   30.5560   44.8720 N   0  0  0  0  0  0  0  0  0  0  0  0
   57.8820   29.9150   45.8500 C   0  0  0  0  0  0  0  0  0  0  0  0
   57.6000   31.6240   44.0430 C   0  0  0  0  0  0  0  0  0  0  0  0
   57.4200   33.0520   44.5960 C   0  0  0  0  0  0  0  0  0  0  0  0
   56.9450   33.0020   45.9300 O   0  0  0  0  0  0  0  0  0  0  0  0
   57.7560   33.7720   46.8040 C   0  0  1  0  0  0  0  0  0  0  0  0
   58.4830   32.8450   47.8070 C   0  0  0  0  0  0  0  0  0  0  0  0
   59.9110   32.5280   47.3460 C   0  0  0  0  0  0  0  0  0  0  0  0
   60.7480   33.7550   47.2660 N   0  0  1  0  0  0  0  0  0  0  0  0
   61.9620   33.4830   46.4540 C   0  0  0  0  0  0  0  0  0  0  0  0
   63.2430   33.4390   47.3280 C   0  0  0  0  0  0  0  0  0  0  0  0
   63.0020   33.0990   48.7480 N   0  0  0  0  0  0  0  0  0  0  0  0
   63.9410   32.0930   49.2700 C   0  0  0  0  0  0  0  0  0  0  0  0
   62.9480   34.2820   49.6210 C   0  0  0  0  0  0  0  0  0  0  0  0
   60.0040   34.9500   46.7620 C   0  0  0  0  0  0  0  0  0  0  0  0
   58.7520   34.5810   45.9510 C   0  0  0  0  0  0  0  0  0  0  0  0
   57.3563   29.7250   42.3887 H   0  0  0  0  0  0  0  0  0  0  0  0
   55.8964   28.6950   42.2031 H   0  0  0  0  0  0  0  0  0  0  0  0
   55.7391   30.4844   42.2031 H   0  0  0  0  0  0  0  0  0  0  0  0
   55.0613   29.8789   44.3751 H   0  0  0  0  0  0  0  0  0  0  0  0
   56.3700   28.6034   44.4903 H   0  0  0  0  0  0  0  0  0  0  0  0
   57.5443   30.1576   46.8684 H   0  0  0  0  0  0  0  0  0  0  0  0
   57.8603   28.8246   45.7065 H   0  0  0  0  0  0  0  0  0  0  0  0
   58.9085   30.2833   45.7065 H   0  0  0  0  0  0  0  0  0  0  0  0
   58.6782   31.4213   43.9625 H   0  0  0  0  0  0  0  0  0  0  0  0
   57.0809   31.5989   43.0735 H   0  0  0  0  0  0  0  0  0  0  0  0
   58.3873   33.5752   44.5738 H   0  0  0  0  0  0  0  0  0  0  0  0
   56.6891   33.5892   43.9738 H   0  0  0  0  0  0  0  0  0  0  0  0
   57.1406   34.4684   47.3925 H   0  0  0  0  0  0  0  0  0  0  0  0
   57.9196   31.9046   47.8976 H   0  0  0  0  0  0  0  0  0  0  0  0
   58.5400   33.3623   48.7761 H   0  0  0  0  0  0  0  0  0  0  0  0
   59.8689   32.0596   46.3516 H   0  0  0  0  0  0  0  0  0  0  0  0
   60.3665   31.8494   48.0822 H   0  0  0  0  0  0  0  0  0  0  0  0
   61.0560   33.9660   48.2470 H   0  0  0  0  0  0  0  0  0  0  0  0
   61.8423   32.5132   45.9489 H   0  0  0  0  0  0  0  0  0  0  0  0
   62.0744   34.2983   45.7242 H   0  0  0  0  0  0  0  0  0  0  0  0
   63.9230   32.6853   46.9043 H   0  0  0  0  0  0  0  0  0  0  0  0
   63.6670   34.4539   47.3155 H   0  0  0  0  0  0  0  0  0  0  0  0
   63.9239   32.1113   50.3697 H   0  0  0  0  0  0  0  0  0  0  0  0
   63.6439   31.0951   48.9152 H   0  0  0  0  0  0  0  0  0  0  0  0
   64.9570   32.3208   48.9152 H   0  0  0  0  0  0  0  0  0  0  0  0
   62.9626   33.9621   50.6733 H   0  0  0  0  0  0  0  0  0  0  0  0
   63.8177   34.9252   49.4212 H   0  0  0  0  0  0  0  0  0  0  0  0
   62.0233   34.8433   49.4212 H   0  0  0  0  0  0  0  0  0  0  0  0
   60.6772   35.5366   46.1196 H   0  0  0  0  0  0  0  0  0  0  0  0
   59.6700   35.5232   47.6394 H   0  0  0  0  0  0  0  0  0  0  0  0
   59.0523   33.9782   45.0813 H   0  0  0  0  0  0  0  0  0  0  0  0
   58.2599   35.5098   45.6268 H   0  0  0  0  0  0  0  0  0  0  0  0
  1  2  1  0
  2  3  1  0
  3  4  1  0
  3  5  1  0
  5  6  1  0
  6  7  1  0
  7  8  1  0
  8  9  1  0
  9 10  1  0
 10 11  1  0
 11 12  1  0
 12 13  1  0
 13 14  1  0
 14 15  1  0
 14 16  1  0
 11 17  1  0
 17 18  1  0
 18  8  1  0
  1 19  1  0
  1 20  1  0
  1 21  1  0
  2 22  1  0
  2 23  1  0
  4 24  1  0
  4 25  1  0
  4 26  1  0
  5 27  1  0
  5 28  1  0
  6 29  1  0
  6 30  1  0
  8 31  1  1
  9 32  1  0
  9 33  1  0
 10 34  1  0
 10 35  1  0
 11 36  1  1
 12 37  1  0
 12 38  1  0
 13 39  1  0
 13 40  1  0
 15 41  1  0
 15 42  1  0
 15 43  1  0
 16 44  1  0
 16 45  1  0
 16 46  1  0
 17 47  1  0
 17 48  1  0
 18 49  1  0
 18 50  1  0
M  CHG  1  11   1
M  END
>  <UniqueID>  (1) 
1

>  <SMILES>  (1) 
CCN(C)CCOC1CC[NH+](CCN(C)C)CC1

>  <Energy>  (1) 
66.23475208288873

>  <Genealogy>  (1) 
CCN(C)CCOC1CC[NH+](CCN(C)C)CC1 (protonated)
CCN(C)CCOC1CC[NH+](CCN(C)C)CC1 (3D coordinates assigned)
CCN(C)CCOC1CC[NH+](CCN(C)C)CC1 (nonaromatic ring conformer: 66.23475208288873 kcal/mol)

>  <smiles>  (1) 
CCN(C)CCOC1CCN(CCN(C)C)CC1

>  <score_type>  (1) 
oracle

>  <origin>  (1) 
adg

>  <m_score__min__energy>  (1) 
-4.25

>  <m_primary>  (1) 
energy

$$$$
1:0
     RDKit          3D

 46 47  0  0  0  0  0  0  0  0999 V2000
   57.2240   26.1110   46.4820 C   0  0  0  0  0  0  0  0  0  0  0  0
   57.1430   27.5270   46.3640 O   0  0  0  0  0  0  0  0  0  0  0  0
   58.2410   28.4000   46.4590 C   0  0  0  0  0  0  0  0  0  0  0  0
   58.5280   29.1060   47.6450 C   0  0  0  0  0  0  0  0  0  0  0  0
   59.6290   29.9640   47.7080 C   0  0  0  0  0  0  0  0  0  0  0  0
   60.4550   30.1240   46.5980 C   0  0  0  0  0  0  0  0  0  0  0  0
   60.1840   29.4280   45.4200 C   0  0  0  0  0  0  0  0  0  0  0  0
   59.0770   28.5700   45.3350 C   0  0  0  0  0  0  0  0  0  0  0  0
   58.7840   27.8530   44.0360 C   0  0  0  0  0  0  0  0  0  0  0  0
   57.3920   28.0500   43.5900 N   0  0  0  0  0  0  0  0  0  0  0  0
   57.0400   29.4600   43.3530 C   0  0  0  0  0  0  0  0  0  0  0  0
   56.1500   30.0270   44.4210 C   0  0  0  0  0  0  0  0  0  0  0  0
   55.1960   29.3430   44.8830 O   0  0  0  0  0  0  0  0  0  0  0  0
   56.3500   31.3730   44.8620 N   0  0  0  0  0  0  0  0  0  0  0  0
   57.5210   32.1580   44.4910 C   0  0  0  0  0  0  0  0  0  0  0  0
   57.3850   33.6010   44.9890 C   0  0  0  0  0  0  0  0  0  0  0  0
   58.7050   34.3890   44.9770 C   0  0  0  0  0  0  0  0  0  0  0  0
   59.5280   34.1600   46.2190 C   0  0  0  0  0  0  0  0  0  0  0  0
   58.9370   34.2570   47.4900 C   0  0  0  0  0  0  0  0  0  0  0  0
   59.7050   34.0680   48.6420 C   0  0  0  0  0  0  0  0  0  0  0  0
   61.0670   33.7750   48.5360 C   0  0  0  0  0  0  0  0  0  0  0  0
   61.6620   33.6630   47.2750 C   0  0  0  0  0  0  0  0  0  0  0  0
   62.9810   33.3730   47.1720 F   0  0  0  0  0  0  0  0  0  0  0  0
   60.8950   33.8510   46.1200 C   0  0  0  0  0  0  0  0  0  0  0  0
   57.2400   25.8320   47.5459 H   0  0  0  0  0  0  0  0  0  0  0  0
   56.3506   25.6520   45.9956 H   0  0  0  0  0  0  0  0  0  0  0  0
   58.1440   25.7546   45.9956 H   0  0  0  0  0  0  0  0  0  0  0  0
   57.8814   28.9807   48.5260 H   0  0  0  0  0  0  0  0  0  0  0  0
   59.8438   30.5142   48.6360 H   0  0  0  0  0  0  0  0  0  0  0  0
   61.3215   30.7996   46.6504 H   0  0  0  0  0  0  0  0  0  0  0  0
   60.8445   29.5529   44.5493 H   0  0  0  0  0  0  0  0  0  0  0  0
   59.4620   28.2366   43.2594 H   0  0  0  0  0  0  0  0  0  0  0  0
   58.9345   26.7764   44.2043 H   0  0  0  0  0  0  0  0  0  0  0  0
   56.7100   27.6010   44.2460 H   0  0  0  0  0  0  0  0  0  0  0  0
   57.9665   30.0519   43.3173 H   0  0  0  0  0  0  0  0  0  0  0  0
   56.4874   29.5073   42.4031 H   0  0  0  0  0  0  0  0  0  0  0  0
   58.4170   31.7041   44.9394 H   0  0  0  0  0  0  0  0  0  0  0  0
   57.6070   32.1687   43.3944 H   0  0  0  0  0  0  0  0  0  0  0  0
   56.6632   34.1238   44.3442 H   0  0  0  0  0  0  0  0  0  0  0  0
   57.0531   33.5483   46.0364 H   0  0  0  0  0  0  0  0  0  0  0  0
   59.2937   34.0769   44.1018 H   0  0  0  0  0  0  0  0  0  0  0  0
   58.4539   35.4592   44.9363 H   0  0  0  0  0  0  0  0  0  0  0  0
   57.8641   34.4829   47.5787 H   0  0  0  0  0  0  0  0  0  0  0  0
   59.2365   34.1500   49.6339 H   0  0  0  0  0  0  0  0  0  0  0  0
   61.6713   33.6324   49.4440 H   0  0  0  0  0  0  0  0  0  0  0  0
   61.3645   33.7564   45.1297 H   0  0  0  0  0  0  0  0  0  0  0  0
  1  2  1  0
  2  3  1  0
  3  4  2  0
  4  5  1  0
  5  6  2  0
  6  7  1  0
  7  8  2  0
  8  9  1  0
  9 10  1  0
 10 11  1  0
 11 12  1  0
 12 13  2  0
 12 14  1  0
 14 15  1  0
 15 16  1  0
 16 17  1  0
 17 18  1  0
 18 19  2  0
 19 20  1  0
 20 21  2  0
 21 22  1  0
 22 23  1  0
 22 24  2  0
  8  3  1  0
 24 18  1  0
  1 25  1  0
  1 26  1  0
  1 27  1  0
  4 28  1  0
  5 29  1  0
  6 30  1  0
  7 31  1  0
  9 32  1  0
  9 33  1  0
 10 34  1  0
 11 35  1  0
 11 36  1  0
 15 37  1  0
 15 38  1  0
 16 39  1  0
 16 40  1  0
 17 41  1  0
 17 42  1  0
 19 43  1  0
 20 44  1  0
 21 45  1  0
 24 46  1  0
M  CHG  1  14  -1
M  END
>  <UniqueID>  (2) 
2

>  <SMILES>  (2) 
COc1ccccc1CNCC(=O)[N-]CCCc1cccc(F)c1

>  <Energy>  (2) 
38.06270982613385

>  <Genealogy>  (2) 
COc1ccccc1CNCC(=O)[N-]CCCc1cccc(F)c1 (protonated)
COc1ccccc1CNCC(=O)[N-]CCCc1cccc(F)c1 (3D coordinates assigned)
COc1ccccc1CNCC(=O)[N-]CCCc1cccc(F)c1 (optimized conformer: 38.06270982613385 kcal/mol)

>  <smiles>  (2) 
COc1ccccc1CNCC(=O)NCCCc1cccc(F)c1

>  <score_type>  (2) 
oracle

>  <origin>  (2) 
adg

>  <m_score__min__energy>  (2) 
-9.0700000000000003

>  <m_primary>  (2) 
energy

$$$$
2:0
     RDKit          3D

 52 51  0  0  0  0  0  0  0  0999 V2000
   62.5480   33.7160   46.7240 C   0  0  0  0  0  0  0  0  0  0  0  0
   61.1810   33.0900   46.9870 C   0  0  0  0  0  0  0  0  0  0  0  0
   60.1070   33.9540   46.4450 N   0  0  0  0  0  0  0  0  0  0  0  0
   59.3760   34.6150   47.5430 C   0  0  0  0  0  0  0  0  0  0  0  0
   59.1580   33.1850   45.6110 C   0  0  0  0  0  0  0  0  0  0  0  0
   57.7110   33.4340   46.0480 C   0  0  0  0  0  0  0  0  0  0  0  0
   56.8580   32.6440   45.2500 O   0  0  0  0  0  0  0  0  0  0  0  0
   57.6050   31.9420   44.2800 C   0  0  0  0  0  0  0  0  0  0  0  0
   56.8560   30.6630   43.9220 C   0  0  0  0  0  0  0  0  0  0  0  0
   56.3850   30.0560   45.1160 O   0  0  0  0  0  0  0  0  0  0  0  0
   56.0040   28.7580   44.8860 N   0  0  0  0  0  0  0  0  0  0  0  0
   57.0070   27.8280   45.4180 C   0  0  0  0  0  0  0  0  0  0  0  0
   56.3550   26.6240   46.0350 C   0  0  0  0  0  0  0  0  0  0  0  0
   55.1010   26.5020   45.9940 O   0  0  0  0  0  0  0  0  0  0  0  0
   57.1580   25.6110   46.6450 N   0  0  0  0  0  0  0  0  0  0  0  0
   58.3430   25.9020   47.4410 C   0  0  0  0  0  0  0  0  0  0  0  0
   59.4970   26.2880   46.5140 C   0  0  0  0  0  0  0  0  0  0  0  0
   60.2170   27.5560   46.9930 C   0  0  0  0  0  0  0  0  0  0  0  0
   59.7940   28.7310   46.1990 N   0  0  0  0  0  0  0  0  0  0  0  0
   60.1040   29.9850   46.9080 C   0  0  0  0  0  0  0  0  0  0  0  0
   60.4590   28.7330   44.8860 C   0  0  0  0  0  0  0  0  0  0  0  0
   63.0389   33.9408   47.6824 H   0  0  0  0  0  0  0  0  0  0  0  0
   63.1691   33.0126   46.1500 H   0  0  0  0  0  0  0  0  0  0  0  0
   62.4212   34.6458   46.1500 H   0  0  0  0  0  0  0  0  0  0  0  0
   61.1337   32.1043   46.5010 H   0  0  0  0  0  0  0  0  0  0  0  0
   61.0398   32.9821   48.0725 H   0  0  0  0  0  0  0  0  0  0  0  0
   59.7668   34.2616   48.5086 H   0  0  0  0  0  0  0  0  0  0  0  0
   59.5105   35.7043   47.4695 H   0  0  0  0  0  0  0  0  0  0  0  0
   58.3057   34.3719   47.4695 H   0  0  0  0  0  0  0  0  0  0  0  0
   59.2736   33.4909   44.5607 H   0  0  0  0  0  0  0  0  0  0  0  0
   59.3787   32.1138   45.7288 H   0  0  0  0  0  0  0  0  0  0  0  0
   57.5905   33.1572   47.1058 H   0  0  0  0  0  0  0  0  0  0  0  0
   57.4597   34.4981   45.9274 H   0  0  0  0  0  0  0  0  0  0  0  0
   57.7246   32.5654   43.3816 H   0  0  0  0  0  0  0  0  0  0  0  0
   58.6007   31.6960   44.6777 H   0  0  0  0  0  0  0  0  0  0  0  0
   56.0039   30.9045   43.2696 H   0  0  0  0  0  0  0  0  0  0  0  0
   57.5296   29.9723   43.3935 H   0  0  0  0  0  0  0  0  0  0  0  0
   55.8050   28.5660   43.8730 H   0  0  0  0  0  0  0  0  0  0  0  0
   57.6636   27.5005   44.5985 H   0  0  0  0  0  0  0  0  0  0  0  0
   57.5875   28.3473   46.1948 H   0  0  0  0  0  0  0  0  0  0  0  0
   58.1288   26.7351   48.1266 H   0  0  0  0  0  0  0  0  0  0  0  0
   58.6220   25.0112   48.0229 H   0  0  0  0  0  0  0  0  0  0  0  0
   60.2197   25.4594   46.4820 H   0  0  0  0  0  0  0  0  0  0  0  0
   59.0798   26.4894   45.5163 H   0  0  0  0  0  0  0  0  0  0  0  0
   59.9752   27.7300   48.0519 H   0  0  0  0  0  0  0  0  0  0  0  0
   61.3007   27.4159   46.8663 H   0  0  0  0  0  0  0  0  0  0  0  0
   60.0614   29.8126   47.9936 H   0  0  0  0  0  0  0  0  0  0  0  0
   61.1129   30.3237   46.6299 H   0  0  0  0  0  0  0  0  0  0  0  0
   59.3691   30.7548   46.6299 H   0  0  0  0  0  0  0  0  0  0  0  0
   61.5499   28.7363   45.0275 H   0  0  0  0  0  0  0  0  0  0  0  0
   60.1648   27.8340   44.3246 H   0  0  0  0  0  0  0  0  0  0  0  0
   60.1594   29.6302   44.3246 H   0  0  0  0  0  0  0  0  0  0  0  0
  1  2  1  0
  2  3  1  0
  3  4  1  0
  3  5  1  0
  5  6  1  0
  6  7  1  0
  7  8  1  0
  8  9  1  0
  9 10  1  0
 10 11  1  0
 11 12  1  0
 12 13  1  0
 13 14  2  0
 13 15  1  0
 15 16  1  0
 16 17  1  0
 17 18  1  0
 18 19  1  0
 19 20  1  0
 19 21  1  0
  1 22  1  0
  1 23  1  0
  1 24  1  0
  2 25  1  0
  2 26  1  0
  4 27  1  0
  4 28  1  0
  4 29  1  0
  5 30  1  0
  5 31  1  0
  6 32  1  0
  6 33  1  0
  8 34  1  0
  8 35  1  0
  9 36  1  0
  9 37  1  0
 11 38  1  0
 12 39  1  0
 12 40  1  0
 16 41  1  0
 16 42  1  0
 17 43  1  0
 17 44  1  0
 18 45  1  0
 18 46  1  0
 20 47  1  0
 20 48  1  0
 20 49  1  0
 21 50  1  0
 21 51  1  0
 21 52  1  0
M  CHG  1  15  -1
M  END
>  <UniqueID>  (3) 
3

>  <SMILES>  (3) 
CCN(C)CCOCCONCC(=O)[N-]CCCN(C)C

>  <Energy>  (3) 
38.63421726230504

>  <Genealogy>  (3) 
CCN(C)CCOCCONCC(=O)[N-]CCCN(C)C (protonated)
CCN(C)CCOCCONCC(=O)[N-]CCCN(C)C (3D coordinates assigned)
CCN(C)CCOCCONCC(=O)[N-]CCCN(C)C (optimized conformer: 38.63421726230504 kcal/mol)

>  <smiles>  (3) 
CCN(C)CCOCCONCC(=O)NCCCN(C)C

>  <score_type>  (3) 
oracle

>  <origin>  (3) 
adg

>  <m_score__min__energy>  (3) 
-8.6300000000000008

>  <m_primary>  (3) 
energy

$$$$
3:0
     RDKit          3D

 34 36  0  0  0  0  0  0  0  0999 V2000
   61.1700   33.4180   47.2300 C   0  0  0  0  0  0  0  0  0  0  0  0
   59.9160   33.4700   46.4860 N   0  0  0  0  0  0  0  0  0  0  0  0
   59.2490   34.5780   46.0810 C   0  0  0  0  0  0  0  0  0  0  0  0
   59.6710   35.8760   46.3510 O   0  0  0  0  0  0  0  0  0  0  0  0
   58.1050   34.2480   45.3620 C   0  0  0  0  0  0  0  0  0  0  0  0
   58.0960   32.8690   45.3340 C   0  0  0  0  0  0  0  0  0  0  0  0
   57.1940   31.9880   44.7440 C   0  0  0  0  0  0  0  0  0  0  0  0
   57.4470   30.6060   44.8600 C   0  0  0  0  0  0  0  0  0  0  0  0
   56.3470   29.4500   44.1140 S   0  0  0  0  0  0  0  0  0  0  0  0
   57.0360   28.8110   42.9430 O   0  0  0  0  0  0  0  0  0  0  0  0
   55.1010   30.1410   43.6330 O   0  0  0  0  0  0  0  0  0  0  0  0
   55.9100   28.2210   45.2550 N   0  0  0  0  0  0  0  0  0  0  0  0
   56.7340   27.1070   45.6250 C   0  0  0  0  0  0  0  0  0  0  0  0
   56.1490   26.0450   46.3280 C   0  0  0  0  0  0  0  0  0  0  0  0
   56.9150   24.9350   46.7010 C   0  0  0  0  0  0  0  0  0  0  0  0
   58.2720   24.8800   46.3750 C   0  0  0  0  0  0  0  0  0  0  0  0
   58.8660   25.9350   45.6770 C   0  0  0  0  0  0  0  0  0  0  0  0
   58.1040   27.0470   45.3030 C   0  0  0  0  0  0  0  0  0  0  0  0
   58.5860   30.1500   45.5660 C   0  0  0  0  0  0  0  0  0  0  0  0
   59.4790   31.0650   46.1510 C   0  0  0  0  0  0  0  0  0  0  0  0
   59.2030   32.4270   46.0170 C   0  0  0  0  0  0  0  0  0  0  0  0
   60.9567   33.4268   48.3091 H   0  0  0  0  0  0  0  0  0  0  0  0
   61.7121   32.4966   46.9709 H   0  0  0  0  0  0  0  0  0  0  0  0
   61.7865   34.2913   46.9709 H   0  0  0  0  0  0  0  0  0  0  0  0
   59.2860   36.3970   47.1310 H   0  0  0  0  0  0  0  0  0  0  0  0
   57.3706   34.9343   44.9150 H   0  0  0  0  0  0  0  0  0  0  0  0
   56.3106   32.3590   44.2036 H   0  0  0  0  0  0  0  0  0  0  0  0
   55.0809   26.0843   46.5882 H   0  0  0  0  0  0  0  0  0  0  0  0
   56.4480   24.1050   47.2515 H   0  0  0  0  0  0  0  0  0  0  0  0
   58.8731   24.0065   46.6676 H   0  0  0  0  0  0  0  0  0  0  0  0
   59.9349   25.8909   45.4211 H   0  0  0  0  0  0  0  0  0  0  0  0
   58.5759   27.8766   44.7561 H   0  0  0  0  0  0  0  0  0  0  0  0
   58.7742   29.0701   45.6578 H   0  0  0  0  0  0  0  0  0  0  0  0
   60.3683   30.7182   46.6978 H   0  0  0  0  0  0  0  0  0  0  0  0
  1  2  1  0
  2  3  1  0
  3  4  1  0
  3  5  2  0
  5  6  1  0
  6  7  2  0
  7  8  1  0
  8  9  1  0
  9 10  2  0
  9 11  2  0
  9 12  1  0
 12 13  1  0
 13 14  2  0
 14 15  1  0
 15 16  2  0
 16 17  1  0
 17 18  2  0
  8 19  2  0
 19 20  1  0
 20 21  2  0
 21  2  1  0
 21  6  1  0
 18 13  1  0
  1 22  1  0
  1 23  1  0
  1 24  1  0
  4 25  1  0
  5 26  1  0
  7 27  1  0
 14 28  1  0
 15 29  1  0
 16 30  1  0
 17 31  1  0
 18 32  1  0
 19 33  1  0
 20 34  1  0
M  CHG  1  12  -1
M  END
>  <UniqueID>  (4) 
4

>  <SMILES>  (4) 
Cn1c(O)cc2cc(S(=O)(=O)[N-]c3ccccc3)ccc21

>  <Energy>  (4) 
72.54362430734902

>  <Genealogy>  (4) 
Cn1c(O)cc2cc(S(=O)(=O)[N-]c3ccccc3)ccc21 (protonated)
Cn1c(O)cc2cc(S(=O)(=O)[N-]c3ccccc3)ccc21 (3D coordinates assigned)
Cn1c(O)cc2cc(S(=O)(=O)[N-]c3ccccc3)ccc21 (optimized conformer: 72.54362430734902 kcal/mol)

>  <smiles>  (4) 
Cn1c(O)cc2cc(S(=O)(=O)Nc3ccccc3)ccc21

>  <score_type>  (4) 
oracle

>  <origin>  (4) 
adg

>  <m_score__min__energy>  (4) 
-8.9800000000000004

>  <m_primary>  (4) 
energy

$$$$
4:0
     RDKit          3D

 48 51  0  0  1  0  0  0  0  0999 V2000
   63.4520   33.4420   47.3530 C   0  0  0  0  0  0  0  0  0  0  0  0
   63.7590   32.7410   48.6670 C   0  0  0  0  0  0  0  0  0  0  0  0
   63.5090   33.5560   49.8180 N   0  0  0  0  0  0  0  0  0  0  0  0
   62.9960   32.8350   50.9620 C   0  0  0  0  0  0  0  0  0  0  0  0
   61.4830   32.7970   50.9610 C   0  0  0  0  0  0  0  0  0  0  0  0
   60.9280   33.9100   50.2840 O   0  0  0  0  0  0  0  0  0  0  0  0
   60.1720   33.6630   49.1500 C   0  0  0  0  0  0  0  0  0  0  0  0
   59.3860   32.5690   49.1240 C   0  0  0  0  0  0  0  0  0  0  0  0
   58.6330   32.3480   47.9520 C   0  0  0  0  0  0  0  0  0  0  0  0
   58.7470   33.2420   46.9330 C   0  0  0  0  0  0  0  0  0  0  0  0
   58.0320   33.0640   45.7820 C   0  0  0  0  0  0  0  0  0  0  0  0
   57.3380   32.0560   45.6030 N   0  0  0  0  0  0  0  0  0  0  0  0
   57.5160   30.7870   45.1120 C   0  0  0  0  0  0  0  0  0  0  0  0
   56.9950   30.4990   43.8280 C   0  0  0  0  0  0  0  0  0  0  0  0
   57.0580   29.1990   43.3270 C   0  0  0  0  0  0  0  0  0  0  0  0
   57.6370   28.2660   44.1390 C   0  0  0  0  0  0  0  0  0  0  0  0
   57.8990   26.4460   43.8390 S   0  0  0  0  0  0  0  0  0  0  0  0
   58.7220   26.3020   45.5780 C   0  0  0  0  0  0  0  0  0  0  0  0
   59.1980   24.9240   45.9730 C   0  0  0  0  0  0  0  0  0  0  0  0
   58.6520   27.3610   45.9360 N   0  0  0  0  0  0  0  0  0  0  0  0
   58.1600   28.4710   45.3900 C   0  0  0  0  0  0  0  0  0  0  0  0
   58.0960   29.7570   45.8800 C   0  0  0  0  0  0  0  0  0  0  0  0
   58.1320   33.9620   44.7550 N   0  0  0  0  0  0  0  0  0  0  0  0
   58.9320   35.0440   44.8380 C   0  0  0  0  0  0  0  0  0  0  0  0
   59.6410   35.2260   45.9620 N   0  0  0  0  0  0  0  0  0  0  0  0
   59.5520   34.3390   46.9950 C   0  0  0  0  0  0  0  0  0  0  0  0
   60.2860   34.5680   48.1190 C   0  0  0  0  0  0  0  0  0  0  0  0
   63.0185   34.4319   47.5581 H   0  0  0  0  0  0  0  0  0  0  0  0
   64.3804   33.5609   46.7752 H   0  0  0  0  0  0  0  0  0  0  0  0
   62.7350   32.8403   46.7752 H   0  0  0  0  0  0  0  0  0  0  0  0
   63.1331   31.8391   48.7357 H   0  0  0  0  0  0  0  0  0  0  0  0
   64.8328   32.5024   48.6648 H   0  0  0  0  0  0  0  0  0  0  0  0
   62.8300   34.3290   49.5860 H   0  0  0  0  0  0  0  0  0  0  0  0
   63.3794   31.8043   50.9362 H   0  0  0  0  0  0  0  0  0  0  0  0
   63.3275   33.3535   51.8737 H   0  0  0  0  0  0  0  0  0  0  0  0
   61.1506   31.8749   50.4617 H   0  0  0  0  0  0  0  0  0  0  0  0
   61.1402   32.8274   52.0058 H   0  0  0  0  0  0  0  0  0  0  0  0
   59.3339   31.8788   49.9789 H   0  0  0  0  0  0  0  0  0  0  0  0
   57.9701   31.4746   47.8641 H   0  0  0  0  0  0  0  0  0  0  0  0
   56.5408   31.2997   43.2258 H   0  0  0  0  0  0  0  0  0  0  0  0
   56.6634   28.9397   42.3335 H   0  0  0  0  0  0  0  0  0  0  0  0
   59.2250   24.8458   47.0699 H   0  0  0  0  0  0  0  0  0  0  0  0
   58.5089   24.1681   45.5684 H   0  0  0  0  0  0  0  0  0  0  0  0
   60.2068   24.7546   45.5684 H   0  0  0  0  0  0  0  0  0  0  0  0
   58.5005   29.9817   46.8779 H   0  0  0  0  0  0  0  0  0  0  0  0
   57.5990   33.8480   43.8770 H   0  0  0  0  0  0  0  0  0  0  0  0
   59.0015   35.7593   44.0052 H   0  0  0  0  0  0  0  0  0  0  0  0
   60.9460   35.4443   48.2001 H   0  0  0  0  0  0  0  0  0  0  0  0
  1  2  1  0
  2  3  1  0
  3  4  1  0
  4  5  1  0
  5  6  1  0
  6  7  1  0
  7  8  2  0
  8  9  1  0
  9 10  2  0
 10 11  1  0
 11 12  2  0
 12 13  1  0
 13 14  2  0
 14 15  1  0
 15 16  2  0
 16 17  1  0
 17 18  1  0
 18 19  1  0
 18 20  2  0
 20 21  1  0
 21 22  2  0
 11 23  1  0
 23 24  1  0
 24 25  2  0
 25 26  1  0
 26 27  2  0
 27  7  1  0
 26 10  1  0
 22 13  1  0
 21 16  1  0
  1 28  1  0
  1 29  1  0
  1 30  1  0
  2 31  1  0
  2 32  1  0
  3 33  1  0
  4 34  1  0
  4 35  1  0
  5 36  1  0
  5 37  1  0
  8 38  1  0
  9 39  1  0
 14 40  1  0
 15 41  1  0
 19 42  1  0
 19 43  1  0
 19 44  1  0
 22 45  1  0
 23 46  1  0
 24 47  1  0
 27 48  1  0
M  END
>  <smiles>  (5) 
CCNCCOc1ccc2c(=Nc3ccc4sc(C)nc4c3)[nH]cnc2c1

>  <score_type>  (5) 
oracle

>  <origin>  (5) 
adg

>  <m_score__min__energy>  (5) 
-7.8300000000000001

>  <m_primary>  (5) 
energy

$$$$
5:0
     RDKit          3D

 54 56  0  0  0  0  0  0  0  0999 V2000
   62.0440   33.4750   46.4000 C   0  0  0  0  0  0  0  0  0  0  0  0
   63.4810   33.8560   46.7650 C   0  0  0  0  0  0  0  0  0  0  0  0
   64.1620   32.8220   47.5690 N   0  0  0  0  0  0  0  0  0  0  0  0
   63.5270   32.5320   48.8690 C   0  0  0  0  0  0  0  0  0  0  0  0
   62.6470   31.2670   48.8340 C   0  0  0  0  0  0  0  0  0  0  0  0
   61.1600   31.5750   49.0650 C   0  0  0  0  0  0  0  0  0  0  0  0
   60.2580   30.3630   48.7960 C   0  0  0  0  0  0  0  0  0  0  0  0
   58.9150   30.7930   48.4090 N   0  0  0  0  0  0  0  0  0  0  0  0
   58.5560   30.8850   47.0250 C   0  0  0  0  0  0  0  0  0  0  0  0
   58.2970   32.1370   46.4490 C   0  0  0  0  0  0  0  0  0  0  0  0
   57.9640   32.2200   45.0850 C   0  0  0  0  0  0  0  0  0  0  0  0
   57.7630   31.0750   44.3420 N   0  0  0  0  0  0  0  0  0  0  0  0
   57.1400   31.1670   43.0060 C   0  0  0  0  0  0  0  0  0  0  0  0
   58.1280   29.8450   44.8600 C   0  0  0  0  0  0  0  0  0  0  0  0
   58.1530   28.6740   44.0590 C   0  0  0  0  0  0  0  0  0  0  0  0
   58.4800   27.4350   44.6090 C   0  0  0  0  0  0  0  0  0  0  0  0
   58.7970   27.3280   45.9590 C   0  0  0  0  0  0  0  0  0  0  0  0
   58.8120   28.4640   46.7650 C   0  0  0  0  0  0  0  0  0  0  0  0
   58.5050   29.7310   46.2260 C   0  0  0  0  0  0  0  0  0  0  0  0
   57.8270   33.6140   44.4950 C   0  0  0  0  0  0  0  0  0  0  0  0
   58.9280   34.5370   45.0360 C   0  0  0  0  0  0  0  0  0  0  0  0
   59.0150   34.5610   46.5780 C   0  0  0  0  0  0  0  0  0  0  0  0
   58.2740   33.4070   47.2730 C   0  0  0  0  0  0  0  0  0  0  0  0
   61.4608   33.3204   47.3198 H   0  0  0  0  0  0  0  0  0  0  0  0
   61.5891   34.2836   45.8090 H   0  0  0  0  0  0  0  0  0  0  0  0
   62.0495   32.5473   45.8090 H   0  0  0  0  0  0  0  0  0  0  0  0
   64.0501   34.0101   45.8364 H   0  0  0  0  0  0  0  0  0  0  0  0
   63.4358   34.7712   47.3735 H   0  0  0  0  0  0  0  0  0  0  0  0
   64.2050   31.9380   47.0080 H   0  0  0  0  0  0  0  0  0  0  0  0
   65.1500   33.1240   47.7420 H   0  0  0  0  0  0  0  0  0  0  0  0
   64.3162   32.3906   49.6221 H   0  0  0  0  0  0  0  0  0  0  0  0
   62.8750   33.3827   49.1166 H   0  0  0  0  0  0  0  0  0  0  0  0
   62.7587   30.7873   47.8504 H   0  0  0  0  0  0  0  0  0  0  0  0
   62.9807   30.6065   49.6479 H   0  0  0  0  0  0  0  0  0  0  0  0
   61.0237   31.8907   50.1099 H   0  0  0  0  0  0  0  0  0  0  0  0
   60.8706   32.3687   48.3605 H   0  0  0  0  0  0  0  0  0  0  0  0
   60.6930   29.7626   47.9834 H   0  0  0  0  0  0  0  0  0  0  0  0
   60.1860   29.7650   49.7164 H   0  0  0  0  0  0  0  0  0  0  0  0
   58.2260   31.1200   49.1240 H   0  0  0  0  0  0  0  0  0  0  0  0
   56.0573   31.3269   43.1165 H   0  0  0  0  0  0  0  0  0  0  0  0
   57.5806   32.0098   42.4532 H   0  0  0  0  0  0  0  0  0  0  0  0
   57.3181   30.2328   42.4532 H   0  0  0  0  0  0  0  0  0  0  0  0
   57.9108   28.7446   42.9883 H   0  0  0  0  0  0  0  0  0  0  0  0
   58.4873   26.5381   43.9722 H   0  0  0  0  0  0  0  0  0  0  0  0
   59.0362   26.3450   46.3908 H   0  0  0  0  0  0  0  0  0  0  0  0
   59.0655   28.3723   47.8314 H   0  0  0  0  0  0  0  0  0  0  0  0
   57.9110   33.5535   43.3999 H   0  0  0  0  0  0  0  0  0  0  0  0
   56.8468   34.0254   44.7778 H   0  0  0  0  0  0  0  0  0  0  0  0
   59.8949   34.1943   44.6388 H   0  0  0  0  0  0  0  0  0  0  0  0
   58.6797   35.5584   44.7118 H   0  0  0  0  0  0  0  0  0  0  0  0
   60.0760   34.5104   46.8637 H   0  0  0  0  0  0  0  0  0  0  0  0
   58.5270   35.4907   46.9060 H   0  0  0  0  0  0  0  0  0  0  0  0
   58.7549   33.2096   48.2424 H   0  0  0  0  0  0  0  0  0  0  0  0
   57.2239   33.7079   47.4022 H   0  0  0  0  0  0  0  0  0  0  0  0
  1  2  1  0
  2  3  1  0
  3  4  1  0
  4  5  1  0
  5  6  1  0
  6  7  1  0
  7  8  1  0
  8  9  1  0
  9 10  2  0
 10 11  1  0
 11 12  2  0
 12 13  1  0
 12 14  1  0
 14 15  2  0
 15 16  1  0
 16 17  2  0
 17 18  1  0
 18 19  2  0
 11 20  1  0
 20 21  1  0
 21 22  1  0
 22 23  1  0
 19  9  1  0
 23 10  1  0
 19 14  1  0
  1 24  1  0
  1 25  1  0
  1 26  1  0
  2 27  1  0
  2 28  1  0
  3 29  1  0
  3 30  1  0
  4 31  1  0
  4 32  1  0
  5 33  1  0
  5 34  1  0
  6 35  1  0
  6 36  1  0
  7 37  1  0
  7 38  1  0
  8 39  1  0
 13 40  1  0
 13 41  1  0
 13 42  1  0
 15 43  1  0
 16 44  1  0
 17 45  1  0
 18 46  1  0
 20 47  1  0
 20 48  1  0
 21 49  1  0
 21 50  1  0
 22 51  1  0
 22 52  1  0
 23 53  1  0
 23 54  1  0
M  CHG  2   3   1  12   1
M  END
>  <UniqueID>  (6) 
5

>  <SMILES>  (6) 
CC[NH2+]CCCCNc1c2c([n+](C)c3ccccc13)CCCC2

>  <Energy>  (6) 
74.1997396952611

>  <Genealogy>  (6) 
CC[NH2+]CCCCNc1c2c([n+](C)c3ccccc13)CCCC2 (protonated)
CC[NH2+]CCCCNc1c2c([n+](C)c3ccccc13)CCCC2 (3D coordinates assigned)
CC[NH2+]CCCCNc1c2c([n+](C)c3ccccc13)CCCC2 (nonaromatic ring conformer: 74.1997396952611 kcal/mol)

>  <smiles>  (6) 
CCNCCCCNc1c2c([n+](C)c3ccccc13)CCCC2

>  <score_type>  (6) 
oracle

>  <origin>  (6) 
adg

>  <m_score__min__energy>  (6) 
-4.8499999999999996

>  <m_primary>  (6) 
energy

$$$$
6:0
     RDKit          3D

 42 43  0  0  0  0  0  0  0  0999 V2000
   61.8310   32.1750   47.5860 C   0  0  0  0  0  0  0  0  0  0  0  0
   60.9810   31.2210   46.7450 C   0  0  0  0  0  0  0  0  0  0  0  0
   60.1780   30.2290   47.6040 C   0  0  0  0  0  0  0  0  0  0  0  0
   60.2280   28.7870   47.0750 C   0  0  0  0  0  0  0  0  0  0  0  0
   60.2430   28.7710   45.6570 O   0  0  0  0  0  0  0  0  0  0  0  0
   58.9350   28.6590   45.1260 C   0  0  0  0  0  0  0  0  0  0  0  0
   57.9400   28.2290   46.2110 C   0  0  0  0  0  0  0  0  0  0  0  0
   56.6190   27.7340   45.6080 C   0  0  0  0  0  0  0  0  0  0  0  0
   55.7700   28.8630   45.2440 N   0  0  0  0  0  0  0  0  0  0  0  0
   56.0140   29.7190   44.1200 C   0  0  0  0  0  0  0  0  0  0  0  0
   55.5250   29.4350   42.9930 O   0  0  0  0  0  0  0  0  0  0  0  0
   56.8360   30.9350   44.2720 C   0  0  0  0  0  0  0  0  0  0  0  0
   57.3770   31.5930   43.1550 C   0  0  0  0  0  0  0  0  0  0  0  0
   58.1440   32.7460   43.3360 C   0  0  0  0  0  0  0  0  0  0  0  0
   58.3660   33.2410   44.6260 C   0  0  0  0  0  0  0  0  0  0  0  0
   59.1270   34.3990   44.8430 C   0  0  0  0  0  0  0  0  0  0  0  0
   59.3260   34.8700   46.1450 C   0  0  0  0  0  0  0  0  0  0  0  0
   58.7720   34.1870   47.2330 C   0  0  0  0  0  0  0  0  0  0  0  0
   58.0150   33.0300   47.0250 C   0  0  0  0  0  0  0  0  0  0  0  0
   57.8070   32.5530   45.7260 C   0  0  0  0  0  0  0  0  0  0  0  0
   57.0660   31.4310   45.5190 N   0  0  0  0  0  0  0  0  0  0  0  0
   61.6554   31.9780   48.6539 H   0  0  0  0  0  0  0  0  0  0  0  0
   62.8950   32.0191   47.3544 H   0  0  0  0  0  0  0  0  0  0  0  0
   61.5538   33.2140   47.3544 H   0  0  0  0  0  0  0  0  0  0  0  0
   60.2777   31.8144   46.1422 H   0  0  0  0  0  0  0  0  0  0  0  0
   61.6648   30.6358   46.1125 H   0  0  0  0  0  0  0  0  0  0  0  0
   60.5871   30.2406   48.6250 H   0  0  0  0  0  0  0  0  0  0  0  0
   59.1263   30.5502   47.5749 H   0  0  0  0  0  0  0  0  0  0  0  0
   61.1379   28.2963   47.4508 H   0  0  0  0  0  0  0  0  0  0  0  0
   59.3325   28.2521   47.4242 H   0  0  0  0  0  0  0  0  0  0  0  0
   58.6263   29.6335   44.7198 H   0  0  0  0  0  0  0  0  0  0  0  0
   58.9414   27.8972   44.3325 H   0  0  0  0  0  0  0  0  0  0  0  0
   58.3876   27.4172   46.8031 H   0  0  0  0  0  0  0  0  0  0  0  0
   57.7219   29.1038   46.8412 H   0  0  0  0  0  0  0  0  0  0  0  0
   56.8324   27.1367   44.7093 H   0  0  0  0  0  0  0  0  0  0  0  0
   56.0944   27.1200   46.3549 H   0  0  0  0  0  0  0  0  0  0  0  0
   57.1974   31.2020   42.1426 H   0  0  0  0  0  0  0  0  0  0  0  0
   58.5730   33.2643   42.4658 H   0  0  0  0  0  0  0  0  0  0  0  0
   59.5670   34.9364   43.9900 H   0  0  0  0  0  0  0  0  0  0  0  0
   59.9200   35.7803   46.3139 H   0  0  0  0  0  0  0  0  0  0  0  0
   58.9324   34.5612   48.2549 H   0  0  0  0  0  0  0  0  0  0  0  0
   57.5827   32.4944   47.8830 H   0  0  0  0  0  0  0  0  0  0  0  0
  1  2  1  0
  2  3  1  0
  3  4  1  0
  4  5  1  0
  5  6  1  0
  6  7  1  0
  7  8  1  0
  8  9  1  0
  9 10  1  0
 10 11  2  0
 10 12  1  0
 12 13  2  0
 13 14  1  0
 14 15  2  0
 15 16  1  0
 16 17  2  0
 17 18  1  0
 18 19  2  0
 19 20  1  0
 20 21  2  0
 21 12  1  0
 20 15  1  0
  1 22  1  0
  1 23  1  0
  1 24  1  0
  2 25  1  0
  2 26  1  0
  3 27  1  0
  3 28  1  0
  4 29  1  0
  4 30  1  0
  6 31  1  0
  6 32  1  0
  7 33  1  0
  7 34  1  0
  8 35  1  0
  8 36  1  0
 13 37  1  0
 14 38  1  0
 16 39  1  0
 17 40  1  0
 18 41  1  0
 19 42  1  0
M  CHG  1   9  -1
M  END
>  <UniqueID>  (7) 
6

>  <SMILES>  (7) 
CCCCOCCC[N-]C(=O)c1ccc2ccccc2n1

>  <Energy>  (7) 
37.10044813306388

>  <Genealogy>  (7) 
CCCCOCCC[N-]C(=O)c1ccc2ccccc2n1 (protonated)
CCCCOCCC[N-]C(=O)c1ccc2ccccc2n1 (3D coordinates assigned)
CCCCOCCC[N-]C(=O)c1ccc2ccccc2n1 (optimized conformer: 37.10044813306388 kcal/mol)

>  <smiles>  (7) 
CCCCOCCCNC(=O)c1ccc2ccccc2n1

>  <score_type>  (7) 
oracle

>  <origin>  (7) 
adg

>  <m_score__min__energy>  (7) 
-9.6600000000000001

>  <m_primary>  (7) 
energy

$$$$
7:0
     RDKit          3D

102107  0  0  0  0  0  0  0  0999 V2000
   67.2280   27.2530   50.7810 C   0  0  0  0  0  0  0  0  0  0  0  0
   67.4990   28.7410   50.9830 C   0  0  0  0  0  0  0  0  0  0  0  0
   67.3630   29.1240   52.4610 C   0  0  0  0  0  0  0  0  0  0  0  0
   65.8890   29.1450   52.9020 C   0  0  0  0  0  0  0  0  0  0  0  0
   65.3590   30.5780   53.2050 C   0  0  0  0  0  0  0  0  0  0  0  0
   64.6810   31.3330   52.0840 N   0  0  2  0  0  0  0  0  0  0  0  0
   64.4440   30.5040   50.8680 C   0  0  0  0  0  0  0  0  0  0  0  0
   65.6420   32.3910   51.7240 C   0  0  0  0  0  0  0  0  0  0  0  0
   66.8740   32.2190   51.0510 C   0  0  0  0  0  0  0  0  0  0  0  0
   67.7360   33.3210   50.8920 C   0  0  0  0  0  0  0  0  0  0  0  0
   67.3810   34.5800   51.4110 C   0  0  0  0  0  0  0  0  0  0  0  0
   66.1760   34.7420   52.1060 C   0  0  0  0  0  0  0  0  0  0  0  0
   65.3440   33.6300   52.2510 C   0  0  0  0  0  0  0  0  0  0  0  0
   64.0610   33.5210   52.8610 C   0  0  0  0  0  0  0  0  0  0  0  0
   63.4810   34.4170   53.5880 N   0  0  0  0  0  0  0  0  0  0  0  0
   62.1920   34.1590   54.2200 C   0  0  0  0  0  0  0  0  0  0  0  0
   61.4560   32.9690   53.5610 C   0  0  0  0  0  0  0  0  0  0  0  0
   62.3190   31.7510   53.3260 N   0  0  1  0  0  0  0  0  0  0  0  0
   62.7470   31.2800   54.6700 C   0  0  0  0  0  0  0  0  0  0  0  0
   61.4250   30.7610   52.5910 C   0  0  0  0  0  0  0  0  0  0  0  0
   61.4930   30.7350   51.0500 C   0  0  0  0  0  0  0  0  0  0  0  0
   60.2230   30.3230   50.5300 O   0  0  0  0  0  0  0  0  0  0  0  0
   60.0280   29.6300   49.3230 C   0  0  0  0  0  0  0  0  0  0  0  0
   60.4930   28.3080   49.2140 C   0  0  0  0  0  0  0  0  0  0  0  0
   60.4490   27.6360   48.0070 C   0  0  0  0  0  0  0  0  0  0  0  0
   59.9250   28.2570   46.8860 C   0  0  0  0  0  0  0  0  0  0  0  0
   59.3610   29.5530   46.9530 C   0  0  0  0  0  0  0  0  0  0  0  0
   59.4130   30.2680   48.1910 C   0  0  0  0  0  0  0  0  0  0  0  0
   58.8400   31.5810   48.2390 C   0  0  0  0  0  0  0  0  0  0  0  0
   58.6020   32.2700   49.5010 N   0  0  0  0  0  0  0  0  0  0  0  0
   59.5990   33.3100   49.8770 C   0  0  0  0  0  0  0  0  0  0  0  0
   60.5720   33.7560   48.7560 C   0  0  0  0  0  0  0  0  0  0  0  0
   61.7640   32.8770   48.7450 N   0  0  0  0  0  0  0  0  0  0  0  0
   62.1030   32.4520   47.3700 C   0  0  0  0  0  0  0  0  0  0  0  0
   61.7140   33.5460   46.3750 C   0  0  0  0  0  0  0  0  0  0  0  0
   62.9230   33.5190   49.4070 C   0  0  0  0  0  0  0  0  0  0  0  0
   64.2120   33.1410   48.6820 C   0  0  0  0  0  0  0  0  0  0  0  0
   58.4650   32.2100   47.0200 C   0  0  0  0  0  0  0  0  0  0  0  0
   58.0870   33.5760   46.9770 C   0  0  0  0  0  0  0  0  0  0  0  0
   57.7530   34.1930   45.7750 C   0  0  0  0  0  0  0  0  0  0  0  0
   57.8080   33.4740   44.5880 C   0  0  0  0  0  0  0  0  0  0  0  0
   58.1860   32.1340   44.5970 C   0  0  0  0  0  0  0  0  0  0  0  0
   58.4780   31.4640   45.8140 C   0  0  0  0  0  0  0  0  0  0  0  0
   58.7690   30.1170   45.8390 N   0  0  0  0  0  0  0  0  0  0  0  0
   58.4270   29.2700   44.6720 C   0  0  0  0  0  0  0  0  0  0  0  0
   63.4680   32.2130   52.4340 C   0  0  2  0  0  0  0  0  0  0  0  0
   67.1383   26.7604   51.7604 H   0  0  0  0  0  0  0  0  0  0  0  0
   66.2916   27.1239   50.2185 H   0  0  0  0  0  0  0  0  0  0  0  0
   68.0588   26.8020   50.2185 H   0  0  0  0  0  0  0  0  0  0  0  0
   68.5197   28.9709   50.6435 H   0  0  0  0  0  0  0  0  0  0  0  0
   66.7631   29.3153   50.4011 H   0  0  0  0  0  0  0  0  0  0  0  0
   67.9091   28.3907   53.0725 H   0  0  0  0  0  0  0  0  0  0  0  0
   67.7795   30.1330   52.5970 H   0  0  0  0  0  0  0  0  0  0  0  0
   65.2775   28.7089   52.0984 H   0  0  0  0  0  0  0  0  0  0  0  0
   65.8189   28.5667   53.8351 H   0  0  0  0  0  0  0  0  0  0  0  0
   64.6338   30.4920   54.0276 H   0  0  0  0  0  0  0  0  0  0  0  0
   66.2624   31.1653   53.4264 H   0  0  0  0  0  0  0  0  0  0  0  0
   64.1532   29.4867   51.1688 H   0  0  0  0  0  0  0  0  0  0  0  0
   63.6384   30.9537   50.2690 H   0  0  0  0  0  0  0  0  0  0  0  0
   65.3655   30.4599   50.2690 H   0  0  0  0  0  0  0  0  0  0  0  0
   67.1565   31.2324   50.6550 H   0  0  0  0  0  0  0  0  0  0  0  0
   68.6908   33.1973   50.3599 H   0  0  0  0  0  0  0  0  0  0  0  0
   68.0524   35.4399   51.2703 H   0  0  0  0  0  0  0  0  0  0  0  0
   65.8928   35.7184   52.5261 H   0  0  0  0  0  0  0  0  0  0  0  0
   62.3564   33.9309   55.2835 H   0  0  0  0  0  0  0  0  0  0  0  0
   61.5670   35.0561   54.0995 H   0  0  0  0  0  0  0  0  0  0  0  0
   60.6206   32.6773   54.2145 H   0  0  0  0  0  0  0  0  0  0  0  0
   61.1265   33.3149   52.5701 H   0  0  0  0  0  0  0  0  0  0  0  0
   62.2222   31.8576   55.4452 H   0  0  0  0  0  0  0  0  0  0  0  0
   62.5030   30.2130   54.7795 H   0  0  0  0  0  0  0  0  0  0  0  0
   63.8324   31.4210   54.7795 H   0  0  0  0  0  0  0  0  0  0  0  0
   61.6881   29.7543   52.9478 H   0  0  0  0  0  0  0  0  0  0  0  0
   60.4009   31.0929   52.8169 H   0  0  0  0  0  0  0  0  0  0  0  0
   61.7355   31.7404   50.6753 H   0  0  0  0  0  0  0  0  0  0  0  0
   62.2720   30.0292   50.7260 H   0  0  0  0  0  0  0  0  0  0  0  0
   60.8978   27.8009   50.1022 H   0  0  0  0  0  0  0  0  0  0  0  0
   60.8307   26.6067   47.9370 H   0  0  0  0  0  0  0  0  0  0  0  0
   59.9477   27.7305   45.9205 H   0  0  0  0  0  0  0  0  0  0  0  0
   58.4640   31.5870   50.2770 H   0  0  0  0  0  0  0  0  0  0  0  0
   57.6570   32.7160   49.4740 H   0  0  0  0  0  0  0  0  0  0  0  0
   59.0465   34.1987   50.2162 H   0  0  0  0  0  0  0  0  0  0  0  0
   60.2301   32.8493   50.6512 H   0  0  0  0  0  0  0  0  0  0  0  0
   60.0622   33.6916   47.7834 H   0  0  0  0  0  0  0  0  0  0  0  0
   60.8881   34.7931   48.9418 H   0  0  0  0  0  0  0  0  0  0  0  0
   63.1850   32.2657   47.3024 H   0  0  0  0  0  0  0  0  0  0  0  0
   61.5509   31.5315   47.1295 H   0  0  0  0  0  0  0  0  0  0  0  0
   61.3946   34.4442   46.9239 H   0  0  0  0  0  0  0  0  0  0  0  0
   62.5800   33.7913   45.7427 H   0  0  0  0  0  0  0  0  0  0  0  0
   60.8875   33.1895   45.7427 H   0  0  0  0  0  0  0  0  0  0  0  0
   62.7978   34.6116   49.3822 H   0  0  0  0  0  0  0  0  0  0  0  0
   62.9803   33.1743   50.4500 H   0  0  0  0  0  0  0  0  0  0  0  0
   64.9943   32.9116   49.4205 H   0  0  0  0  0  0  0  0  0  0  0  0
   64.0326   32.2577   48.0515 H   0  0  0  0  0  0  0  0  0  0  0  0
   64.5380   33.9814   48.0515 H   0  0  0  0  0  0  0  0  0  0  0  0
   58.0572   34.1581   47.9099 H   0  0  0  0  0  0  0  0  0  0  0  0
   57.4457   35.2492   45.7651 H   0  0  0  0  0  0  0  0  0  0  0  0
   57.5520   33.9649   43.6375 H   0  0  0  0  0  0  0  0  0  0  0  0
   58.2595   31.5859   43.6461 H   0  0  0  0  0  0  0  0  0  0  0  0
   58.0366   28.3032   45.0225 H   0  0  0  0  0  0  0  0  0  0  0  0
   57.6624   29.7753   44.0637 H   0  0  0  0  0  0  0  0  0  0  0  0
   59.3281   29.1028   44.0637 H   0  0  0  0  0  0  0  0  0  0  0  0
   62.8547   32.2152   51.5208 H   0  0  0  0  0  0  0  0  0  0  0  0
  1  2  1  0
  2  3  1  0
  3  4  1  0
  4  5  1  0
  6  5  1  1
  6  7  1  0
  6  8  1  0
  8  9  2  0
  9 10  1  0
 10 11  2  0
 11 12  1  0
 12 13  2  0
 13 14  1  0
 14 15  2  0
 15 16  1  0
 16 17  1  0
 17 18  1  0
 18 19  1  1
 18 20  1  0
 20 21  1  0
 21 22  1  0
 22 23  1  0
 23 24  2  0
 24 25  1  0
 25 26  2  0
 26 27  1  0
 27 28  2  0
 28 29  1  0
 29 30  1  0
 30 31  1  0
 31 32  1  0
 32 33  1  0
 33 34  1  0
 34 35  1  0
 33 36  1  0
 36 37  1  0
 29 38  2  0
 38 39  1  0
 39 40  2  0
 40 41  1  0
 41 42  2  0
 42 43  1  0
 43 44  2  0
 44 45  1  0
 18 46  1  0
 46  6  1  0
 13  8  1  0
 46 14  1  0
 28 23  1  0
 43 38  1  0
 44 27  1  0
  1 47  1  0
  1 48  1  0
  1 49  1  0
  2 50  1  0
  2 51  1  0
  3 52  1  0
  3 53  1  0
  4 54  1  0
  4 55  1  0
  5 56  1  0
  5 57  1  0
  7 58  1  0
  7 59  1  0
  7 60  1  0
  9 61  1  0
 10 62  1  0
 11 63  1  0
 12 64  1  0
 16 65  1  0
 16 66  1  0
 17 67  1  0
 17 68  1  0
 19 69  1  0
 19 70  1  0
 19 71  1  0
 20 72  1  0
 20 73  1  0
 21 74  1  0
 21 75  1  0
 24 76  1  0
 25 77  1  0
 26 78  1  0
 30 79  1  0
 30 80  1  0
 31 81  1  0
 31 82  1  0
 32 83  1  0
 32 84  1  0
 34 85  1  0
 34 86  1  0
 35 87  1  0
 35 88  1  0
 35 89  1  0
 36 90  1  0
 36 91  1  0
 37 92  1  0
 37 93  1  0
 37 94  1  0
 39 95  1  0
 40 96  1  0
 41 97  1  0
 42 98  1  0
 45 99  1  0
 45100  1  0
 45101  1  0
 46102  1  6
M  CHG  4   6   1  18   1  30   1  44   1
M  END
>  <UniqueID>  (8) 
7

>  <SMILES>  (8) 
CCCCC[N@+]1(C)c2ccccc2C2=NCC[N@@+](C)(CCOc3cccc4c3c([NH2+]CCN(CC)CC)c3ccccc3[n+]4C)C21

>  <Energy>  (8) 
228.5053497202432

>  <Genealogy>  (8) 
CCCCC[N+]1(C)c2ccccc2C2=NCC[N+](C)(CCOc3cccc4c3c([NH2+]CCN(CC)CC)c3ccccc3[n+]4C)C21 (protonated)
CCCCC[N@+]1(C)c2ccccc2C2=NCC[N@@+](C)(CCOc3cccc4c3c([NH2+]CCN(CC)CC)c3ccccc3[n+]4C)C21 (chirality)
CCCCC[N@+]1(C)c2ccccc2C2=NCC[N@@+](C)(CCOc3cccc4c3c([NH2+]CCN(CC)CC)c3ccccc3[n+]4C)C21 (3D coordinates assigned)
CCCCC[N@+]1(C)c2ccccc2C2=NCC[N@@+](C)(CCOc3cccc4c3c([NH2+]CCN(CC)CC)c3ccccc3[n+]4C)C21 (nonaromatic ring conformer: 228.5053497202432 kcal/mol)

>  <smiles>  (8) 
CCCCC[N+]1(C)c2ccccc2C2=NCC[N+](C)(CCOc3cccc4c3c(NCCN(CC)CC)c3ccccc3[n+]4C)C21

>  <score_type>  (8) 
oracle

>  <origin>  (8) 
adg

>  <m_score__min__energy>  (8) 
-3.71

>  <m_primary>  (8) 
energy

$$$$
8:0
     RDKit          3D

 69 71  0  0  0  0  0  0  0  0999 V2000
   59.6390   35.0830   45.9130 C   0  0  0  0  0  0  0  0  0  0  0  0
   59.0080   34.0660   44.9620 C   0  0  0  0  0  0  0  0  0  0  0  0
   58.2670   33.0240   45.7030 N   0  0  0  0  0  0  0  0  0  0  0  0
   57.7830   33.5800   46.9760 C   0  0  0  0  0  0  0  0  0  0  0  0
   57.1500   32.5000   44.8820 C   0  0  0  0  0  0  0  0  0  0  0  0
   57.3610   31.0390   44.4580 C   0  0  0  0  0  0  0  0  0  0  0  0
   57.4110   30.2110   45.6080 O   0  0  0  0  0  0  0  0  0  0  0  0
   58.4830   29.2880   45.5390 C   0  0  0  0  0  0  0  0  0  0  0  0
   59.7390   29.7440   46.3160 C   0  0  0  0  0  0  0  0  0  0  0  0
   59.6720   31.1450   46.7940 N   0  0  0  0  0  0  0  0  0  0  0  0
   60.4570   31.3840   48.0020 C   0  0  0  0  0  0  0  0  0  0  0  0
   61.6790   32.0890   47.9520 C   0  0  0  0  0  0  0  0  0  0  0  0
   61.9850   33.0030   46.9200 C   0  0  0  0  0  0  0  0  0  0  0  0
   63.2200   33.6540   46.8900 C   0  0  0  0  0  0  0  0  0  0  0  0
   64.1490   33.4390   47.8990 C   0  0  0  0  0  0  0  0  0  0  0  0
   63.8480   32.5820   48.9540 C   0  0  0  0  0  0  0  0  0  0  0  0
   62.6080   31.9080   49.0090 C   0  0  0  0  0  0  0  0  0  0  0  0
   62.2750   31.1140   50.0810 N   0  0  0  0  0  0  0  0  0  0  0  0
   63.3470   30.5130   50.9000 C   0  0  0  0  0  0  0  0  0  0  0  0
   60.9450   30.8640   50.3420 C   0  0  0  0  0  0  0  0  0  0  0  0
   60.4690   30.6070   51.6580 C   0  0  0  0  0  0  0  0  0  0  0  0
   61.3670   30.6980   52.7410 O   0  0  0  0  0  0  0  0  0  0  0  0
   61.5020   31.7860   53.6650 C   0  0  0  0  0  0  0  0  0  0  0  0
   61.2550   33.1230   52.9570 C   0  0  0  0  0  0  0  0  0  0  0  0
   59.8120   33.3530   52.7150 N   0  0  0  0  0  0  0  0  0  0  0  0
   59.2850   34.3480   53.6640 C   0  0  0  0  0  0  0  0  0  0  0  0
   59.5950   33.8410   51.3400 C   0  0  0  0  0  0  0  0  0  0  0  0
   59.1060   30.3290   51.8620 C   0  0  0  0  0  0  0  0  0  0  0  0
   58.2180   30.3350   50.7960 C   0  0  0  0  0  0  0  0  0  0  0  0
   58.6540   30.6540   49.5160 C   0  0  0  0  0  0  0  0  0  0  0  0
   60.0090   30.9450   49.2710 C   0  0  0  0  0  0  0  0  0  0  0  0
   59.4502   34.7787   46.9531 H   0  0  0  0  0  0  0  0  0  0  0  0
   60.7236   35.1275   45.7351 H   0  0  0  0  0  0  0  0  0  0  0  0
   59.1972   36.0746   45.7351 H   0  0  0  0  0  0  0  0  0  0  0  0
   58.3132   34.5888   44.2883 H   0  0  0  0  0  0  0  0  0  0  0  0
   59.8126   33.5795   44.3911 H   0  0  0  0  0  0  0  0  0  0  0  0
   58.2516   33.0417   47.8130 H   0  0  0  0  0  0  0  0  0  0  0  0
   58.0452   34.6468   47.0335 H   0  0  0  0  0  0  0  0  0  0  0  0
   56.6903   33.4674   47.0335 H   0  0  0  0  0  0  0  0  0  0  0  0
   56.2214   32.5658   45.4680 H   0  0  0  0  0  0  0  0  0  0  0  0
   57.0970   33.1074   43.9665 H   0  0  0  0  0  0  0  0  0  0  0  0
   56.5277   30.7209   43.8142 H   0  0  0  0  0  0  0  0  0  0  0  0
   58.3081   30.9529   43.9052 H   0  0  0  0  0  0  0  0  0  0  0  0
   58.1441   28.3286   45.9569 H   0  0  0  0  0  0  0  0  0  0  0  0
   58.7699   29.2033   44.4805 H   0  0  0  0  0  0  0  0  0  0  0  0
   59.8648   29.0858   47.1883 H   0  0  0  0  0  0  0  0  0  0  0  0
   60.5865   29.6846   45.6173 H   0  0  0  0  0  0  0  0  0  0  0  0
   60.0030   31.7300   45.9970 H   0  0  0  0  0  0  0  0  0  0  0  0
   58.6790   31.4060   46.9640 H   0  0  0  0  0  0  0  0  0  0  0  0
   61.2437   33.2040   46.1325 H   0  0  0  0  0  0  0  0  0  0  0  0
   63.4577   34.3399   46.0636 H   0  0  0  0  0  0  0  0  0  0  0  0
   65.1243   33.9465   47.8648 H   0  0  0  0  0  0  0  0  0  0  0  0
   64.5856   32.4277   49.7553 H   0  0  0  0  0  0  0  0  0  0  0  0
   63.1115   30.6450   51.9663 H   0  0  0  0  0  0  0  0  0  0  0  0
   63.4248   29.4397   50.6718 H   0  0  0  0  0  0  0  0  0  0  0  0
   64.3032   31.0066   50.6718 H   0  0  0  0  0  0  0  0  0  0  0  0
   60.7695   31.6651   54.4767 H   0  0  0  0  0  0  0  0  0  0  0  0
   62.5233   31.7822   54.0735 H   0  0  0  0  0  0  0  0  0  0  0  0
   61.6459   33.9371   53.5850 H   0  0  0  0  0  0  0  0  0  0  0  0
   61.7673   33.0970   51.9839 H   0  0  0  0  0  0  0  0  0  0  0  0
   59.4666   34.0051   54.6933 H   0  0  0  0  0  0  0  0  0  0  0  0
   59.7910   35.3115   53.5038 H   0  0  0  0  0  0  0  0  0  0  0  0
   58.2037   34.4707   53.5038 H   0  0  0  0  0  0  0  0  0  0  0  0
   59.1483   34.8456   51.3737 H   0  0  0  0  0  0  0  0  0  0  0  0
   60.5581   33.8856   50.8105 H   0  0  0  0  0  0  0  0  0  0  0  0
   58.9168   33.1557   50.8105 H   0  0  0  0  0  0  0  0  0  0  0  0
   58.7406   30.1049   52.8751 H   0  0  0  0  0  0  0  0  0  0  0  0
   57.1603   30.0852   50.9656 H   0  0  0  0  0  0  0  0  0  0  0  0
   57.9329   30.6794   48.6857 H   0  0  0  0  0  0  0  0  0  0  0  0
  1  2  1  0
  2  3  1  0
  3  4  1  0
  3  5  1  0
  5  6  1  0
  6  7  1  0
  7  8  1  0
  8  9  1  0
  9 10  1  0
 10 11  1  0
 11 12  2  0
 12 13  1  0
 13 14  2  0
 14 15  1  0
 15 16  2  0
 16 17  1  0
 17 18  2  0
 18 19  1  0
 18 20  1  0
 20 21  2  0
 21 22  1  0
 22 23  1  0
 23 24  1  0
 24 25  1  0
 25 26  1  0
 25 27  1  0
 21 28  1  0
 28 29  2  0
 29 30  1  0
 30 31  2  0
 31 11  1  0
 17 12  1  0
 31 20  1  0
  1 32  1  0
  1 33  1  0
  1 34  1  0
  2 35  1  0
  2 36  1  0
  4 37  1  0
  4 38  1  0
  4 39  1  0
  5 40  1  0
  5 41  1  0
  6 42  1  0
  6 43  1  0
  8 44  1  0
  8 45  1  0
  9 46  1  0
  9 47  1  0
 10 48  1  0
 10 49  1  0
 13 50  1  0
 14 51  1  0
 15 52  1  0
 16 53  1  0
 19 54  1  0
 19 55  1  0
 19 56  1  0
 23 57  1  0
 23 58  1  0
 24 59  1  0
 24 60  1  0
 26 61  1  0
 26 62  1  0
 26 63  1  0
 27 64  1  0
 27 65  1  0
 27 66  1  0
 28 67  1  0
 29 68  1  0
 30 69  1  0
M  CHG  2  10   1  18   1
M  END
>  <UniqueID>  (9) 
8

>  <SMILES>  (9) 
CCN(C)CCOCC[NH2+]c1c2ccccc2[n+](C)c2c(OCCN(C)C)cccc12

>  <Energy>  (9) 
110.69697839394955

>  <Genealogy>  (9) 
CCN(C)CCOCC[NH2+]c1c2ccccc2[n+](C)c2c(OCCN(C)C)cccc12 (protonated)
CCN(C)CCOCC[NH2+]c1c2ccccc2[n+](C)c2c(OCCN(C)C)cccc12 (3D coordinates assigned)
CCN(C)CCOCC[NH2+]c1c2ccccc2[n+](C)c2c(OCCN(C)C)cccc12 (optimized conformer: 110.69697839394955 kcal/mol)

>  <smiles>  (9) 
CCN(C)CCOCCNc1c2ccccc2[n+](C)c2c(OCCN(C)C)cccc12

>  <score_type>  (9) 
oracle

>  <origin>  (9) 
adg

>  <m_score__min__energy>  (9) 
-5.2000000000000002

>  <m_primary>  (9) 
energy

$$$$
9:0
     RDKit          3D

 61 65  0  0  0  0  0  0  0  0999 V2000
   62.6450   33.3470   47.1530 C   0  0  0  0  0  0  0  0  0  0  0  0
   63.0590   31.9350   47.5890 C   0  0  0  0  0  0  0  0  0  0  0  0
   62.1380   31.3560   48.5880 N   0  0  0  0  0  0  0  0  0  0  0  0
   61.3190   30.2430   48.0670 C   0  0  0  0  0  0  0  0  0  0  0  0
   60.1450   29.8920   49.0010 C   0  0  0  0  0  0  0  0  0  0  0  0
   58.8720   29.9040   48.2750 N   0  0  0  0  0  0  0  0  0  0  0  0
   58.6580   30.7350   47.1240 C   0  0  0  0  0  0  0  0  0  0  0  0
   58.8320   32.1380   47.1750 C   0  0  0  0  0  0  0  0  0  0  0  0
   59.0710   32.7910   48.3990 C   0  0  0  0  0  0  0  0  0  0  0  0
   59.3000   34.1640   48.4410 C   0  0  0  0  0  0  0  0  0  0  0  0
   59.2870   34.9110   47.2690 C   0  0  0  0  0  0  0  0  0  0  0  0
   59.0150   34.2990   46.0450 C   0  0  0  0  0  0  0  0  0  0  0  0
   58.7490   32.9100   45.9660 C   0  0  0  0  0  0  0  0  0  0  0  0
   58.4270   32.2990   44.7620 N   0  0  0  0  0  0  0  0  0  0  0  0
   58.2520   33.0900   43.5290 C   0  0  0  0  0  0  0  0  0  0  0  0
   58.2740   30.9370   44.7440 C   0  0  0  0  0  0  0  0  0  0  0  0
   58.0600   30.1610   43.6500 N   0  0  0  0  0  0  0  0  0  0  0  0
   57.9970   28.9000   44.1210 C   0  0  0  0  0  0  0  0  0  0  0  0
   57.7970   27.7430   43.3720 C   0  0  0  0  0  0  0  0  0  0  0  0
   57.7690   26.5130   44.0490 C   0  0  0  0  0  0  0  0  0  0  0  0
   57.9410   26.4530   45.4560 C   0  0  0  0  0  0  0  0  0  0  0  0
   57.9000   25.1880   46.1440 N   0  0  0  0  0  0  0  0  0  0  0  0
   58.1230   23.9430   45.4000 C   0  0  0  0  0  0  0  0  0  0  0  0
   57.7330   22.7350   46.2540 C   0  0  0  0  0  0  0  0  0  0  0  0
   56.5810   23.0460   47.0070 O   0  0  0  0  0  0  0  0  0  0  0  0
   56.9120   23.9370   48.0590 C   0  0  0  0  0  0  0  0  0  0  0  0
   57.7740   25.1400   47.6080 C   0  0  0  0  0  0  0  0  0  0  0  0
   58.1350   27.6480   46.1850 C   0  0  0  0  0  0  0  0  0  0  0  0
   58.1700   28.8560   45.4850 C   0  0  0  0  0  0  0  0  0  0  0  0
   58.3600   30.1680   45.8890 C   0  0  0  0  0  0  0  0  0  0  0  0
   62.4632   33.9671   48.0432 H   0  0  0  0  0  0  0  0  0  0  0  0
   63.4494   33.7957   46.5517 H   0  0  0  0  0  0  0  0  0  0  0  0
   61.7257   33.2903   46.5517 H   0  0  0  0  0  0  0  0  0  0  0  0
   63.0733   31.2828   46.7033 H   0  0  0  0  0  0  0  0  0  0  0  0
   64.0527   32.0082   48.0550 H   0  0  0  0  0  0  0  0  0  0  0  0
   61.5080   32.1140   48.9450 H   0  0  0  0  0  0  0  0  0  0  0  0
   62.6900   31.0130   49.4090 H   0  0  0  0  0  0  0  0  0  0  0  0
   60.9156   30.5306   47.0849 H   0  0  0  0  0  0  0  0  0  0  0  0
   61.9657   29.3563   47.9925 H   0  0  0  0  0  0  0  0  0  0  0  0
   60.3087   28.8893   49.4227 H   0  0  0  0  0  0  0  0  0  0  0  0
   60.0980   30.6450   49.8015 H   0  0  0  0  0  0  0  0  0  0  0  0
   58.1140   29.2460   48.5650 H   0  0  0  0  0  0  0  0  0  0  0  0
   59.0769   32.2100   49.3330 H   0  0  0  0  0  0  0  0  0  0  0  0
   59.4917   34.6588   49.4046 H   0  0  0  0  0  0  0  0  0  0  0  0
   59.4924   35.9910   47.3067 H   0  0  0  0  0  0  0  0  0  0  0  0
   59.0070   34.9048   45.1269 H   0  0  0  0  0  0  0  0  0  0  0  0
   58.0213   34.1329   43.7920 H   0  0  0  0  0  0  0  0  0  0  0  0
   59.1791   33.0575   42.9378 H   0  0  0  0  0  0  0  0  0  0  0  0
   57.4252   32.6694   42.9378 H   0  0  0  0  0  0  0  0  0  0  0  0
   57.9930   30.4350   42.6460 H   0  0  0  0  0  0  0  0  0  0  0  0
   57.6647   27.7913   42.2811 H   0  0  0  0  0  0  0  0  0  0  0  0
   57.6117   25.5841   43.4811 H   0  0  0  0  0  0  0  0  0  0  0  0
   57.5120   23.9528   44.4853 H   0  0  0  0  0  0  0  0  0  0  0  0
   59.1894   23.8679   45.1410 H   0  0  0  0  0  0  0  0  0  0  0  0
   57.5232   21.8757   45.6002 H   0  0  0  0  0  0  0  0  0  0  0  0
   58.5600   22.4835   46.9344 H   0  0  0  0  0  0  0  0  0  0  0  0
   55.9782   24.3227   48.4940 H   0  0  0  0  0  0  0  0  0  0  0  0
   57.5102   23.3678   48.7857 H   0  0  0  0  0  0  0  0  0  0  0  0
   57.3021   26.0701   47.9577 H   0  0  0  0  0  0  0  0  0  0  0  0
   58.7796   25.0277   48.0395 H   0  0  0  0  0  0  0  0  0  0  0  0
   58.2556   27.6272   47.2782 H   0  0  0  0  0  0  0  0  0  0  0  0
  1  2  1  0
  2  3  1  0
  3  4  1  0
  4  5  1  0
  5  6  1  0
  6  7  1  0
  7  8  2  0
  8  9  1  0
  9 10  2  0
 10 11  1  0
 11 12  2  0
 12 13  1  0
 13 14  2  0
 14 15  1  0
 14 16  1  0
 16 17  1  0
 17 18  1  0
 18 19  2  0
 19 20  1  0
 20 21  2  0
 21 22  1  0
 22 23  1  0
 23 24  1  0
 24 25  1  0
 25 26  1  0
 26 27  1  0
 21 28  1  0
 28 29  2  0
 29 30  1  0
 30  7  1  0
 13  8  1  0
 30 16  2  0
 29 18  1  0
 27 22  1  0
  1 31  1  0
  1 32  1  0
  1 33  1  0
  2 34  1  0
  2 35  1  0
  3 36  1  0
  3 37  1  0
  4 38  1  0
  4 39  1  0
  5 40  1  0
  5 41  1  0
  6 42  1  0
  9 43  1  0
 10 44  1  0
 11 45  1  0
 12 46  1  0
 15 47  1  0
 15 48  1  0
 15 49  1  0
 17 50  1  0
 19 51  1  0
 20 52  1  0
 23 53  1  0
 23 54  1  0
 24 55  1  0
 24 56  1  0
 26 57  1  0
 26 58  1  0
 27 59  1  0
 27 60  1  0
 28 61  1  0
M  CHG  2   3   1  14   1
M  END
>  <UniqueID>  (10) 
9

>  <SMILES>  (10) 
CC[NH2+]CCNc1c2ccccc2[n+](C)c2[nH]c3ccc(N4CCOCC4)cc3c12

>  <Energy>  (10) 
130.3507620360683

>  <Genealogy>  (10) 
CC[NH2+]CCNc1c2ccccc2[n+](C)c2[nH]c3ccc(N4CCOCC4)cc3c12 (protonated)
CC[NH2+]CCNc1c2ccccc2[n+](C)c2[nH]c3ccc(N4CCOCC4)cc3c12 (3D coordinates assigned)
CC[NH2+]CCNc1c2ccccc2[n+](C)c2[nH]c3ccc(N4CCOCC4)cc3c12 (nonaromatic ring conformer: 130.3507620360683 kcal/mol)

>  <smiles>  (10) 
CCNCCNc1c2ccccc2[n+](C)c2[nH]c3ccc(N4CCOCC4)cc3c12

>  <score_type>  (10) 
oracle

>  <origin>  (10) 
adg

>  <m_score__min__energy>  (10) 
-5.7000000000000002

>  <m_primary>  (10) 
energy

$$$$
10:0
     RDKit          3D

 38 40  0  0  0  0  0  0  0  0999 V2000
   58.0504   25.7129   43.6304 H   0  0  0  0  0  0  0  0  0  0  0  0
   57.9840   25.9970   44.6910 C   0  0  0  0  0  0  0  0  0  0  0  0
   57.4740   25.1000   45.5500 C   0  0  0  0  0  0  0  0  0  0  0  0
   57.8245   24.0602   45.4722 H   0  0  0  0  0  0  0  0  0  0  0  0
   56.4570   25.4180   46.6110 C   0  0  0  0  0  0  0  0  0  0  0  0
   56.8732   26.1684   47.2993 H   0  0  0  0  0  0  0  0  0  0  0  0
   56.2131   24.4968   47.1605 H   0  0  0  0  0  0  0  0  0  0  0  0
   55.2320   25.9480   46.0000 N   0  0  0  0  0  0  0  0  0  0  0  0
   55.5040   26.4690   45.1330 H   0  0  0  0  0  0  0  0  0  0  0  0
   54.3280   24.8590   45.6180 C   0  0  0  0  0  0  0  0  0  0  0  0
   54.4371   24.6546   44.5427 H   0  0  0  0  0  0  0  0  0  0  0  0
   53.2915   25.1551   45.8369 H   0  0  0  0  0  0  0  0  0  0  0  0
   54.6680   23.6020   46.4080 C   0  0  0  0  0  0  0  0  0  0  0  0
   54.6094   23.8187   47.4849 H   0  0  0  0  0  0  0  0  0  0  0  0
   53.9531   22.8052   46.1549 H   0  0  0  0  0  0  0  0  0  0  0  0
   55.6871   23.2743   46.1549 H   0  0  0  0  0  0  0  0  0  0  0  0
   58.4620   27.3410   45.0770 C   0  0  0  0  0  0  0  0  0  0  0  0
   59.7230   27.4710   45.6720 C   0  0  0  0  0  0  0  0  0  0  0  0
   60.3310   26.5748   45.8651 H   0  0  0  0  0  0  0  0  0  0  0  0
   60.2140   28.7310   46.0220 C   0  0  0  0  0  0  0  0  0  0  0  0
   61.2111   28.8234   46.4772 H   0  0  0  0  0  0  0  0  0  0  0  0
   59.4430   29.8750   45.7960 C   0  0  0  0  0  0  0  0  0  0  0  0
   59.9300   31.0680   46.1240 O   0  0  0  0  0  0  0  0  0  0  0  0
   59.2510   32.1950   45.9410 C   0  0  0  0  0  0  0  0  0  0  0  0
   59.8280   33.4160   46.3090 C   0  0  0  0  0  0  0  0  0  0  0  0
   60.8370   33.4359   46.7467 H   0  0  0  0  0  0  0  0  0  0  0  0
   59.1260   34.6100   46.1220 C   0  0  0  0  0  0  0  0  0  0  0  0
   59.5834   35.5669   46.4138 H   0  0  0  0  0  0  0  0  0  0  0  0
   57.8440   34.5910   45.5650 C   0  0  0  0  0  0  0  0  0  0  0  0
   57.2955   35.5332   45.4190 H   0  0  0  0  0  0  0  0  0  0  0  0
   57.2570   33.3780   45.1930 C   0  0  0  0  0  0  0  0  0  0  0  0
   56.2478   33.3681   44.7554 H   0  0  0  0  0  0  0  0  0  0  0  0
   57.9540   32.1700   45.3770 C   0  0  0  0  0  0  0  0  0  0  0  0
   57.4040   30.9270   45.0170 C   0  0  0  0  0  0  0  0  0  0  0  0
   56.2490   30.8630   44.5100 O   0  0  0  0  0  0  0  0  0  0  0  0
   58.1560   29.7570   45.2250 C   0  0  0  0  0  0  0  0  0  0  0  0
   57.6660   28.4830   44.8840 C   0  0  0  0  0  0  0  0  0  0  0  0
   56.6545   28.3803   44.4641 H   0  0  0  0  0  0  0  0  0  0  0  0
  1  2  1  0
  2  3  2  0
  3  4  1  0
  3  5  1  0
  5  6  1  0
  5  7  1  0
  5  8  1  0
  8  9  1  0
  8 10  1  0
 10 11  1  0
 10 12  1  0
 10 13  1  0
 13 14  1  0
 13 15  1  0
 13 16  1  0
  2 17  1  0
 17 18  2  0
 18 19  1  0
 18 20  1  0
 20 21  1  0
 20 22  2  0
 22 23  1  0
 23 24  1  0
 24 25  2  0
 25 26  1  0
 25 27  1  0
 27 28  1  0
 27 29  2  0
 29 30  1  0
 29 31  1  0
 31 32  1  0
 31 33  2  0
 33 34  1  0
 34 35  2  0
 34 36  1  0
 36 37  2  0
 37 38  1  0
 37 17  1  0
 36 22  1  0
 33 24  1  0
M  END
>  <UniqueID>  (11) 
10

>  <SMILES>  (11) 
CCNC/C=C\c1ccc2oc3ccccc3c(=O)c2c1

>  <Energy>  (11) 
47.99635561277971

>  <Genealogy>  (11) 
CCNC/C=C\c1ccc2oc3ccccc3c(=O)c2c1 (cis-trans isomerization)
CCNC/C=C\c1ccc2oc3ccccc3c(=O)c2c1 (3D coordinates assigned)
CCNC/C=C\c1ccc2oc3ccccc3c(=O)c2c1 (optimized conformer: 47.99635561277971 kcal/mol)

>  <smiles>  (11) 
CCNCC=Cc1ccc2oc3ccccc3c(=O)c2c1

>  <score_type>  (11) 
oracle

>  <origin>  (11) 
adg

>  <m_score__min__energy>  (11) 
-7.5999999999999996

>  <m_primary>  (11) 
energy

$$$$
11:0
     RDKit          3D

 31 33  0  0  0  0  0  0  0  0999 V2000
   57.7197   32.9760   42.8742 H   0  0  0  0  0  0  0  0  0  0  0  0
   57.6490   32.4870   43.8570 C   0  0  0  0  0  0  0  0  0  0  0  0
   57.0310   31.2960   43.9110 C   0  0  0  0  0  0  0  0  0  0  0  0
   55.9971   31.2449   43.5389 H   0  0  0  0  0  0  0  0  0  0  0  0
   57.6310   30.0450   44.4320 C   0  0  0  0  0  0  0  0  0  0  0  0
   59.0250   29.8900   44.5200 C   0  0  0  0  0  0  0  0  0  0  0  0
   59.6840   30.7007   44.1759 H   0  0  0  0  0  0  0  0  0  0  0  0
   59.5570   28.7780   45.0130 O   0  0  0  0  0  0  0  0  0  0  0  0
   58.8200   27.7670   45.4600 C   0  0  0  0  0  0  0  0  0  0  0  0
   59.4460   26.6220   45.9620 C   0  0  0  0  0  0  0  0  0  0  0  0
   60.5441   26.5605   45.9798 H   0  0  0  0  0  0  0  0  0  0  0  0
   58.6810   25.5560   46.4410 C   0  0  0  0  0  0  0  0  0  0  0  0
   59.1785   24.6572   46.8343 H   0  0  0  0  0  0  0  0  0  0  0  0
   57.2850   25.6280   46.4220 C   0  0  0  0  0  0  0  0  0  0  0  0
   56.2470   24.1660   47.0800 Br  0  0  0  0  0  0  0  0  0  0  0  0
   56.6470   26.7680   45.9230 C   0  0  0  0  0  0  0  0  0  0  0  0
   55.5484   26.8217   45.9110 H   0  0  0  0  0  0  0  0  0  0  0  0
   57.4090   27.8470   45.4360 C   0  0  0  0  0  0  0  0  0  0  0  0
   56.8150   29.0120   44.9210 C   0  0  0  0  0  0  0  0  0  0  0  0
   55.5580   29.1280   44.8840 O   0  0  0  0  0  0  0  0  0  0  0  0
   58.2430   33.1950   45.0140 C   0  0  0  0  0  0  0  0  0  0  0  0
   59.1150   34.2850   44.8420 C   0  0  0  0  0  0  0  0  0  0  0  0
   59.3865   34.6147   43.8283 H   0  0  0  0  0  0  0  0  0  0  0  0
   59.6380   34.9510   45.9540 C   0  0  0  0  0  0  0  0  0  0  0  0
   60.3331   35.7919   45.8138 H   0  0  0  0  0  0  0  0  0  0  0  0
   59.2790   34.5500   47.2440 C   0  0  0  0  0  0  0  0  0  0  0  0
   59.6961   35.0710   48.1184 H   0  0  0  0  0  0  0  0  0  0  0  0
   58.3900   33.4870   47.4220 C   0  0  0  0  0  0  0  0  0  0  0  0
   58.1025   33.1758   48.4371 H   0  0  0  0  0  0  0  0  0  0  0  0
   57.8650   32.8180   46.3120 C   0  0  0  0  0  0  0  0  0  0  0  0
   57.1525   31.9925   46.4568 H   0  0  0  0  0  0  0  0  0  0  0  0
  1  2  1  0
  2  3  2  0
  3  4  1  0
  3  5  1  0
  5  6  2  0
  6  7  1  0
  6  8  1  0
  8  9  1  0
  9 10  2  0
 10 11  1  0
 10 12  1  0
 12 13  1  0
 12 14  2  0
 14 15  1  0
 14 16  1  0
 16 17  1  0
 16 18  2  0
 18 19  1  0
 19 20  2  0
  2 21  1  0
 21 22  2  0
 22 23  1  0
 22 24  1  0
 24 25  1  0
 24 26  2  0
 26 27  1  0
 26 28  1  0
 28 29  1  0
 28 30  2  0
 30 31  1  0
 19  5  1  0
 30 21  1  0
 18  9  1  0
M  END
>  <UniqueID>  (12) 
11

>  <SMILES>  (12) 
O=c1c(/C=C\c2ccccc2)coc2ccc(Br)cc12

>  <Energy>  (12) 
49.477613724939516

>  <Genealogy>  (12) 
O=c1c(/C=C\c2ccccc2)coc2ccc(Br)cc12 (cis-trans isomerization)
O=c1c(/C=C\c2ccccc2)coc2ccc(Br)cc12 (3D coordinates assigned)
O=c1c(/C=C\c2ccccc2)coc2ccc(Br)cc12 (optimized conformer: 49.477613724939516 kcal/mol)

>  <smiles>  (12) 
O=c1c(C=Cc2ccccc2)coc2ccc(Br)cc12

>  <score_type>  (12) 
oracle

>  <origin>  (12) 
adg

>  <m_score__min__energy>  (12) 
-7.9800000000000004

>  <m_primary>  (12) 
energy

$$$$
12:0
     RDKit          3D

 32 33  0  0  0  0  0  0  0  0999 V2000
   56.2740   29.6810   42.5090 C   0  0  0  0  0  0  0  0  0  0  0  0
   55.6080   29.7950   43.8770 C   0  0  0  0  0  0  0  0  0  0  0  0
   56.5570   30.3590   44.8640 N   0  0  0  0  0  0  0  0  0  0  0  0
   57.7100   29.4550   45.0780 C   0  0  0  0  0  0  0  0  0  0  0  0
   57.2300   28.0970   45.5810 C   0  0  0  0  0  0  0  0  0  0  0  0
   57.0110   31.7040   44.4510 C   0  0  0  0  0  0  0  0  0  0  0  0
   57.7840   32.3490   45.5590 C   0  0  0  0  0  0  0  0  0  0  0  0
   58.5990   33.4700   45.4210 C   0  0  0  0  0  0  0  0  0  0  0  0
   59.1010   33.6770   46.6840 C   0  0  0  0  0  0  0  0  0  0  0  0
   59.9760   34.6460   47.1710 C   0  0  0  0  0  0  0  0  0  0  0  0
   60.3130   34.5950   48.5370 C   0  0  0  0  0  0  0  0  0  0  0  0
   59.7750   33.5890   49.3710 C   0  0  0  0  0  0  0  0  0  0  0  0
   58.8930   32.6240   48.8450 C   0  0  0  0  0  0  0  0  0  0  0  0
   58.5790   32.7010   47.4910 C   0  0  0  0  0  0  0  0  0  0  0  0
   57.7910   31.9100   46.8040 O   0  0  0  0  0  0  0  0  0  0  0  0
   57.3506   29.4967   42.6395 H   0  0  0  0  0  0  0  0  0  0  0  0
   55.8243   28.8468   41.9506 H   0  0  0  0  0  0  0  0  0  0  0  0
   56.1273   30.6173   41.9506 H   0  0  0  0  0  0  0  0  0  0  0  0
   54.7303   30.4536   43.7998 H   0  0  0  0  0  0  0  0  0  0  0  0
   55.2986   28.7931   44.2095 H   0  0  0  0  0  0  0  0  0  0  0  0
   58.2476   29.3210   44.1277 H   0  0  0  0  0  0  0  0  0  0  0  0
   58.3793   29.8994   45.8294 H   0  0  0  0  0  0  0  0  0  0  0  0
   57.2286   28.0930   46.6810 H   0  0  0  0  0  0  0  0  0  0  0  0
   56.2109   27.9087   45.2123 H   0  0  0  0  0  0  0  0  0  0  0  0
   57.9045   27.3101   45.2123 H   0  0  0  0  0  0  0  0  0  0  0  0
   57.6541   31.6142   43.5631 H   0  0  0  0  0  0  0  0  0  0  0  0
   56.1331   32.3239   44.2163 H   0  0  0  0  0  0  0  0  0  0  0  0
   58.7958   34.0552   44.5106 H   0  0  0  0  0  0  0  0  0  0  0  0
   60.3889   35.4234   46.5114 H   0  0  0  0  0  0  0  0  0  0  0  0
   61.0001   35.3437   48.9582 H   0  0  0  0  0  0  0  0  0  0  0  0
   60.0462   33.5590   50.4366 H   0  0  0  0  0  0  0  0  0  0  0  0
   58.4668   31.8360   49.4832 H   0  0  0  0  0  0  0  0  0  0  0  0
  1  2  1  0
  2  3  1  0
  3  4  1  0
  4  5  1  0
  3  6  1  0
  6  7  1  0
  7  8  2  0
  8  9  1  0
  9 10  2  0
 10 11  1  0
 11 12  2  0
 12 13  1  0
 13 14  2  0
 14 15  1  0
 15  7  1  0
 14  9  1  0
  1 16  1  0
  1 17  1  0
  1 18  1  0
  2 19  1  0
  2 20  1  0
  4 21  1  0
  4 22  1  0
  5 23  1  0
  5 24  1  0
  5 25  1  0
  6 26  1  0
  6 27  1  0
  8 28  1  0
 10 29  1  0
 11 30  1  0
 12 31  1  0
 13 32  1  0
M  END
>  <UniqueID>  (13) 
12

>  <SMILES>  (13) 
CCN(CC)Cc1cc2ccccc2o1

>  <Energy>  (13) 
62.65474108814079

>  <Genealogy>  (13) 
CCN(CC)Cc1cc2ccccc2o1 (3D coordinates assigned)
CCN(CC)Cc1cc2ccccc2o1 (optimized conformer: 62.65474108814079 kcal/mol)

>  <smiles>  (13) 
CCN(CC)Cc1cc2ccccc2o1

>  <score_type>  (13) 
oracle

>  <origin>  (13) 
adg

>  <m_score__min__energy>  (13) 
-5.5899999999999999

>  <m_primary>  (13) 
energy

$$$$
13:0
     RDKit          3D

 69 71  0  0  0  0  0  0  0  0999 V2000
   60.7090   30.3870   46.7770 C   0  0  0  0  0  0  0  0  0  0  0  0
   59.2600   30.8760   46.8290 C   0  0  0  0  0  0  0  0  0  0  0  0
   58.3280   29.8410   46.3240 N   0  0  0  0  0  0  0  0  0  0  0  0
   58.6160   28.5490   46.9810 C   0  0  0  0  0  0  0  0  0  0  0  0
   58.4490   29.7070   44.8500 C   0  0  0  0  0  0  0  0  0  0  0  0
   57.3500   30.5050   44.1130 C   0  0  0  0  0  0  0  0  0  0  0  0
   56.8750   31.6100   44.8650 O   0  0  0  0  0  0  0  0  0  0  0  0
   57.5950   32.8020   44.6000 C   0  0  0  0  0  0  0  0  0  0  0  0
   57.2790   33.9200   45.6080 C   0  0  0  0  0  0  0  0  0  0  0  0
   58.2680   33.9650   46.6350 O   0  0  0  0  0  0  0  0  0  0  0  0
   59.5190   34.5770   46.4660 C   0  0  0  0  0  0  0  0  0  0  0  0
   59.6350   35.6150   45.7530 O   0  0  0  0  0  0  0  0  0  0  0  0
   60.7280   33.9890   47.0820 C   0  0  0  0  0  0  0  0  0  0  0  0
   61.8600   33.8520   46.2780 C   0  0  0  0  0  0  0  0  0  0  0  0
   63.0460   33.3490   46.7930 C   0  0  0  0  0  0  0  0  0  0  0  0
   63.1700   33.0070   48.1530 C   0  0  0  0  0  0  0  0  0  0  0  0
   64.4900   32.6770   48.6820 N   0  0  0  0  0  0  0  0  0  0  0  0
   64.8760   33.4620   49.8740 C   0  0  0  0  0  0  0  0  0  0  0  0
   65.8810   32.7330   50.7940 C   0  0  0  0  0  0  0  0  0  0  0  0
   65.8190   31.2660   50.5690 N   0  0  0  0  0  0  0  0  0  0  0  0
   67.0980   30.5790   50.8640 C   0  0  0  0  0  0  0  0  0  0  0  0
   67.3660   30.4710   52.3760 C   0  0  0  0  0  0  0  0  0  0  0  0
   66.2040   29.7630   53.0720 C   0  0  0  0  0  0  0  0  0  0  0  0
   64.8830   30.4690   52.7640 C   0  0  0  0  0  0  0  0  0  0  0  0
   64.6750   30.6100   51.2440 C   0  0  0  0  0  0  0  0  0  0  0  0
   61.9900   33.0150   48.9620 C   0  0  0  0  0  0  0  0  0  0  0  0
   61.9720   32.4910   50.2780 C   0  0  0  0  0  0  0  0  0  0  0  0
   60.8360   32.6090   51.0800 C   0  0  0  0  0  0  0  0  0  0  0  0
   59.6920   33.2270   50.5910 C   0  0  0  0  0  0  0  0  0  0  0  0
   59.6520   33.6930   49.2810 C   0  0  0  0  0  0  0  0  0  0  0  0
   60.7780   33.5620   48.4330 C   0  0  0  0  0  0  0  0  0  0  0  0
   61.0896   30.2586   47.8010 H   0  0  0  0  0  0  0  0  0  0  0  0
   60.7523   29.4245   46.2463 H   0  0  0  0  0  0  0  0  0  0  0  0
   61.3267   31.1264   46.2463 H   0  0  0  0  0  0  0  0  0  0  0  0
   58.9994   31.1165   47.8703 H   0  0  0  0  0  0  0  0  0  0  0  0
   59.1697   31.7677   46.1913 H   0  0  0  0  0  0  0  0  0  0  0  0
   58.5871   28.6785   48.0730 H   0  0  0  0  0  0  0  0  0  0  0  0
   57.8610   27.8080   46.6795 H   0  0  0  0  0  0  0  0  0  0  0  0
   59.6142   28.1988   46.6795 H   0  0  0  0  0  0  0  0  0  0  0  0
   59.4340   30.0838   44.5372 H   0  0  0  0  0  0  0  0  0  0  0  0
   58.3340   28.6441   44.5910 H   0  0  0  0  0  0  0  0  0  0  0  0
   57.7628   30.8773   43.1638 H   0  0  0  0  0  0  0  0  0  0  0  0
   56.5004   29.8256   43.9500 H   0  0  0  0  0  0  0  0  0  0  0  0
   58.6716   32.5808   44.6452 H   0  0  0  0  0  0  0  0  0  0  0  0
   57.2955   33.1576   43.6031 H   0  0  0  0  0  0  0  0  0  0  0  0
   57.2598   34.8860   45.0821 H   0  0  0  0  0  0  0  0  0  0  0  0
   56.3003   33.7170   46.0672 H   0  0  0  0  0  0  0  0  0  0  0  0
   61.8114   34.1473   45.2195 H   0  0  0  0  0  0  0  0  0  0  0  0
   63.9086   33.2144   46.1238 H   0  0  0  0  0  0  0  0  0  0  0  0
   65.1970   32.8460   47.9270 H   0  0  0  0  0  0  0  0  0  0  0  0
   64.5760   31.6780   48.9610 H   0  0  0  0  0  0  0  0  0  0  0  0
   65.3327   34.4044   49.5372 H   0  0  0  0  0  0  0  0  0  0  0  0
   63.9612   33.6280   50.4619 H   0  0  0  0  0  0  0  0  0  0  0  0
   66.8980   33.0906   50.5752 H   0  0  0  0  0  0  0  0  0  0  0  0
   65.6234   32.9444   51.8423 H   0  0  0  0  0  0  0  0  0  0  0  0
   67.0622   29.5657   50.4375 H   0  0  0  0  0  0  0  0  0  0  0  0
   67.9102   31.1727   50.4191 H   0  0  0  0  0  0  0  0  0  0  0  0
   68.2906   29.8983   52.5405 H   0  0  0  0  0  0  0  0  0  0  0  0
   67.4699   31.4832   52.7939 H   0  0  0  0  0  0  0  0  0  0  0  0
   66.1496   28.7231   52.7176 H   0  0  0  0  0  0  0  0  0  0  0  0
   66.3739   29.7857   54.1586 H   0  0  0  0  0  0  0  0  0  0  0  0
   64.0543   29.8829   53.1878 H   0  0  0  0  0  0  0  0  0  0  0  0
   64.9103   31.4745   53.2092 H   0  0  0  0  0  0  0  0  0  0  0  0
   64.5399   29.6071   50.8127 H   0  0  0  0  0  0  0  0  0  0  0  0
   63.7891   31.2429   51.0871 H   0  0  0  0  0  0  0  0  0  0  0  0
   62.8650   31.9845   50.6729 H   0  0  0  0  0  0  0  0  0  0  0  0
   60.8465   32.2104   52.1052 H   0  0  0  0  0  0  0  0  0  0  0  0
   58.8140   33.3484   51.2425 H   0  0  0  0  0  0  0  0  0  0  0  0
   58.7360   34.1682   48.9000 H   0  0  0  0  0  0  0  0  0  0  0  0
  1  2  1  0
  2  3  1  0
  3  4  1  0
  3  5  1  0
  5  6  1  0
  6  7  1  0
  7  8  1  0
  8  9  1  0
  9 10  1  0
 10 11  1  0
 11 12  2  0
 11 13  1  0
 13 14  2  0
 14 15  1  0
 15 16  2  0
 16 17  1  0
 17 18  1  0
 18 19  1  0
 19 20  1  0
 20 21  1  0
 21 22  1  0
 22 23  1  0
 23 24  1  0
 24 25  1  0
 16 26  1  0
 26 27  2  0
 27 28  1  0
 28 29  2  0
 29 30  1  0
 30 31  2  0
 31 13  1  0
 25 20  1  0
 31 26  1  0
  1 32  1  0
  1 33  1  0
  1 34  1  0
  2 35  1  0
  2 36  1  0
  4 37  1  0
  4 38  1  0
  4 39  1  0
  5 40  1  0
  5 41  1  0
  6 42  1  0
  6 43  1  0
  8 44  1  0
  8 45  1  0
  9 46  1  0
  9 47  1  0
 14 48  1  0
 15 49  1  0
 17 50  1  0
 17 51  1  0
 18 52  1  0
 18 53  1  0
 19 54  1  0
 19 55  1  0
 21 56  1  0
 21 57  1  0
 22 58  1  0
 22 59  1  0
 23 60  1  0
 23 61  1  0
 24 62  1  0
 24 63  1  0
 25 64  1  0
 25 65  1  0
 27 66  1  0
 28 67  1  0
 29 68  1  0
 30 69  1  0
M  CHG  1  17   1
M  END
>  <UniqueID>  (14) 
13

>  <SMILES>  (14) 
CCN(C)CCOCCOC(=O)c1ccc([NH2+]CCN2CCCCC2)c2ccccc12

>  <Energy>  (14) 
92.07875445328278

>  <Genealogy>  (14) 
CCN(C)CCOCCOC(=O)c1ccc([NH2+]CCN2CCCCC2)c2ccccc12 (protonated)
CCN(C)CCOCCOC(=O)c1ccc([NH2+]CCN2CCCCC2)c2ccccc12 (3D coordinates assigned)
CCN(C)CCOCCOC(=O)c1ccc([NH2+]CCN2CCCCC2)c2ccccc12 (nonaromatic ring conformer: 92.07875445328278 kcal/mol)

>  <smiles>  (14) 
CCN(C)CCOCCOC(=O)c1ccc(NCCN2CCCCC2)c2ccccc12

>  <score_type>  (14) 
oracle

>  <origin>  (14) 
adg

>  <m_score__min__energy>  (14) 
-6.0899999999999999

>  <m_primary>  (14) 
energy

$$$$
14:0
     RDKit          3D

 50 52  0  0  0  0  0  0  0  0999 V2000
   63.2640   33.4700   46.8630 C   0  0  0  0  0  0  0  0  0  0  0  0
   62.0100   32.6380   47.1070 C   0  0  0  0  0  0  0  0  0  0  0  0
   61.0040   33.4120   47.8410 N   0  0  0  0  0  0  0  0  0  0  0  0
   60.7870   33.4630   49.1740 C   0  0  0  0  0  0  0  0  0  0  0  0
   61.5350   32.6680   50.2050 C   0  0  0  0  0  0  0  0  0  0  0  0
   60.6200   31.7810   50.9370 N   0  0  0  0  0  0  0  0  0  0  0  0
   60.2880   30.6390   50.1240 C   0  0  0  0  0  0  0  0  0  0  0  0
   61.0450   29.4560   50.2120 C   0  0  0  0  0  0  0  0  0  0  0  0
   60.7440   28.3620   49.3920 C   0  0  0  0  0  0  0  0  0  0  0  0
   59.6950   28.4440   48.4690 C   0  0  0  0  0  0  0  0  0  0  0  0
   59.3240   27.0740   47.4380 Cl  0  0  0  0  0  0  0  0  0  0  0  0
   58.9490   29.6210   48.3640 C   0  0  0  0  0  0  0  0  0  0  0  0
   59.2460   30.7160   49.1820 C   0  0  0  0  0  0  0  0  0  0  0  0
   59.7200   34.2300   49.4690 N   0  0  0  0  0  0  0  0  0  0  0  0
   59.2500   34.6980   48.3220 N   0  0  0  0  0  0  0  0  0  0  0  0
   60.0360   34.2100   47.3450 C   0  0  0  0  0  0  0  0  0  0  0  0
   59.7300   34.5080   45.5990 S   0  0  0  0  0  0  0  0  0  0  0  0
   58.3310   33.3360   45.4470 C   0  0  0  0  0  0  0  0  0  0  0  0
   58.7670   31.8690   45.5680 C   0  0  0  0  0  0  0  0  0  0  0  0
   58.0690   30.9930   44.5990 N   0  0  0  0  0  0  0  0  0  0  0  0
   58.2620   29.5580   44.9290 C   0  0  0  0  0  0  0  0  0  0  0  0
   57.0300   28.9630   45.6380 C   0  0  0  0  0  0  0  0  0  0  0  0
   55.8390   29.0420   44.8650 O   0  0  0  0  0  0  0  0  0  0  0  0
   55.8050   30.1570   43.9810 C   0  0  0  0  0  0  0  0  0  0  0  0
   56.6370   31.3550   44.4670 C   0  0  0  0  0  0  0  0  0  0  0  0
   63.7039   33.7619   47.8280 H   0  0  0  0  0  0  0  0  0  0  0  0
   63.9930   32.8758   46.2925 H   0  0  0  0  0  0  0  0  0  0  0  0
   62.9999   34.3726   46.2925 H   0  0  0  0  0  0  0  0  0  0  0  0
   61.5898   32.3273   46.1391 H   0  0  0  0  0  0  0  0  0  0  0  0
   62.2833   31.7576   47.7072 H   0  0  0  0  0  0  0  0  0  0  0  0
   62.3045   32.0611   49.7055 H   0  0  0  0  0  0  0  0  0  0  0  0
   62.0025   33.3626   50.9184 H   0  0  0  0  0  0  0  0  0  0  0  0
   61.0720   31.4650   51.8260 H   0  0  0  0  0  0  0  0  0  0  0  0
   59.7450   32.2960   51.1880 H   0  0  0  0  0  0  0  0  0  0  0  0
   61.8771   29.3906   50.9284 H   0  0  0  0  0  0  0  0  0  0  0  0
   61.3329   27.4364   49.4732 H   0  0  0  0  0  0  0  0  0  0  0  0
   58.1265   29.6865   47.6365 H   0  0  0  0  0  0  0  0  0  0  0  0
   58.6613   31.6430   49.0882 H   0  0  0  0  0  0  0  0  0  0  0  0
   57.6030   33.5529   46.2426 H   0  0  0  0  0  0  0  0  0  0  0  0
   57.8945   33.4699   44.4463 H   0  0  0  0  0  0  0  0  0  0  0  0
   59.8499   31.8057   45.3857 H   0  0  0  0  0  0  0  0  0  0  0  0
   58.5089   31.5238   46.5800 H   0  0  0  0  0  0  0  0  0  0  0  0
   58.4414   28.9997   43.9984 H   0  0  0  0  0  0  0  0  0  0  0  0
   59.1213   29.4766   45.6109 H   0  0  0  0  0  0  0  0  0  0  0  0
   57.2325   27.9046   45.8588 H   0  0  0  0  0  0  0  0  0  0  0  0
   56.8640   29.5545   46.5504 H   0  0  0  0  0  0  0  0  0  0  0  0
   56.1944   29.8372   43.0032 H   0  0  0  0  0  0  0  0  0  0  0  0
   54.7589   30.4926   43.9260 H   0  0  0  0  0  0  0  0  0  0  0  0
   56.5397   32.1772   43.7428 H   0  0  0  0  0  0  0  0  0  0  0  0
   56.2623   31.6626   45.4544 H   0  0  0  0  0  0  0  0  0  0  0  0
  1  2  1  0
  2  3  1  0
  3  4  1  0
  4  5  1  0
  5  6  1  0
  6  7  1  0
  7  8  2  0
  8  9  1  0
  9 10  2  0
 10 11  1  0
 10 12  1  0
 12 13  2  0
  4 14  2  0
 14 15  1  0
 15 16  2  0
 16 17  1  0
 17 18  1  0
 18 19  1  0
 19 20  1  0
 20 21  1  0
 21 22  1  0
 22 23  1  0
 23 24  1  0
 24 25  1  0
 16  3  1  0
 25 20  1  0
 13  7  1  0
  1 26  1  0
  1 27  1  0
  1 28  1  0
  2 29  1  0
  2 30  1  0
  5 31  1  0
  5 32  1  0
  6 33  1  0
  6 34  1  0
  8 35  1  0
  9 36  1  0
 12 37  1  0
 13 38  1  0
 18 39  1  0
 18 40  1  0
 19 41  1  0
 19 42  1  0
 21 43  1  0
 21 44  1  0
 22 45  1  0
 22 46  1  0
 24 47  1  0
 24 48  1  0
 25 49  1  0
 25 50  1  0
M  CHG  1   6   1
M  END
>  <UniqueID>  (15) 
14

>  <SMILES>  (15) 
CCn1c(C[NH2+]c2ccc(Cl)cc2)nnc1SCCN1CCOCC1

>  <Energy>  (15) 
91.94745393109751

>  <Genealogy>  (15) 
CCn1c(C[NH2+]c2ccc(Cl)cc2)nnc1SCCN1CCOCC1 (protonated)
CCn1c(C[NH2+]c2ccc(Cl)cc2)nnc1SCCN1CCOCC1 (3D coordinates assigned)
CCn1c(C[NH2+]c2ccc(Cl)cc2)nnc1SCCN1CCOCC1 (nonaromatic ring conformer: 91.94745393109751 kcal/mol)

>  <smiles>  (15) 
CCn1c(CNc2ccc(Cl)cc2)nnc1SCCN1CCOCC1

>  <score_type>  (15) 
oracle

>  <origin>  (15) 
adg

>  <m_score__min__energy>  (15) 
-7.5800000000000001

>  <m_primary>  (15) 
energy

$$$$
15:0
     RDKit          3D

 46 48  0  0  0  0  0  0  0  0999 V2000
   63.1080   33.7970   46.6560 C   0  0  0  0  0  0  0  0  0  0  0  0
   62.9990   33.0930   47.7870 C   0  0  0  0  0  0  0  0  0  0  0  0
   62.9410   31.5920   47.7780 C   0  0  0  0  0  0  0  0  0  0  0  0
   61.5790   31.1330   47.5190 N   0  0  0  0  0  0  0  0  0  0  0  0
   61.1760   30.6170   46.3730 N   0  0  0  0  0  0  0  0  0  0  0  0
   59.8630   30.3490   46.5340 C   0  0  0  0  0  0  0  0  0  0  0  0
   59.0120   29.7530   45.4830 C   0  0  0  0  0  0  0  0  0  0  0  0
   59.3290   28.4950   44.9360 C   0  0  0  0  0  0  0  0  0  0  0  0
   58.5230   27.9340   43.9400 C   0  0  0  0  0  0  0  0  0  0  0  0
   57.3970   28.6210   43.4800 C   0  0  0  0  0  0  0  0  0  0  0  0
   57.0740   29.8690   44.0150 C   0  0  0  0  0  0  0  0  0  0  0  0
   57.8770   30.4360   45.0110 C   0  0  0  0  0  0  0  0  0  0  0  0
   59.4110   30.6880   47.7640 N   0  0  0  0  0  0  0  0  0  0  0  0
   60.5190   31.1840   48.3460 C   0  0  0  0  0  0  0  0  0  0  0  0
   60.5530   31.8250   50.0240 S   0  0  0  0  0  0  0  0  0  0  0  0
   59.2870   33.1130   49.7210 C   0  0  0  0  0  0  0  0  0  0  0  0
   59.7200   34.1180   48.6820 C   0  0  0  0  0  0  0  0  0  0  0  0
   60.6090   34.9670   48.9700 O   0  0  0  0  0  0  0  0  0  0  0  0
   59.1080   34.1380   47.3730 N   0  0  0  0  0  0  0  0  0  0  0  0
   59.7050   34.9380   46.2920 C   0  0  0  0  0  0  0  0  0  0  0  0
   59.6220   34.1770   44.9650 C   0  0  0  0  0  0  0  0  0  0  0  0
   58.1990   33.6720   44.6400 C   0  0  0  0  0  0  0  0  0  0  0  0
   57.2040   33.8390   45.7990 C   0  0  0  0  0  0  0  0  0  0  0  0
   57.8300   33.4400   47.1390 C   0  0  0  0  0  0  0  0  0  0  0  0
   63.1482   34.8956   46.6937 H   0  0  0  0  0  0  0  0  0  0  0  0
   63.1575   33.2777   45.6875 H   0  0  0  0  0  0  0  0  0  0  0  0
   62.9506   33.6259   48.7480 H   0  0  0  0  0  0  0  0  0  0  0  0
   63.6076   31.2089   46.9913 H   0  0  0  0  0  0  0  0  0  0  0  0
   63.2607   31.2183   48.7620 H   0  0  0  0  0  0  0  0  0  0  0  0
   60.2152   27.9504   45.2938 H   0  0  0  0  0  0  0  0  0  0  0  0
   58.7762   26.9501   43.5182 H   0  0  0  0  0  0  0  0  0  0  0  0
   56.7649   28.1784   42.6961 H   0  0  0  0  0  0  0  0  0  0  0  0
   56.1862   30.4081   43.6529 H   0  0  0  0  0  0  0  0  0  0  0  0
   57.6190   31.4211   45.4269 H   0  0  0  0  0  0  0  0  0  0  0  0
   58.3634   32.6252   49.3761 H   0  0  0  0  0  0  0  0  0  0  0  0
   59.1306   33.6555   50.6650 H   0  0  0  0  0  0  0  0  0  0  0  0
   59.1604   35.8893   46.2003 H   0  0  0  0  0  0  0  0  0  0  0  0
   60.7613   35.1322   46.5297 H   0  0  0  0  0  0  0  0  0  0  0  0
   59.9478   34.8479   44.1565 H   0  0  0  0  0  0  0  0  0  0  0  0
   60.2697   33.2925   45.0549 H   0  0  0  0  0  0  0  0  0  0  0  0
   57.8205   34.2344   43.7737 H   0  0  0  0  0  0  0  0  0  0  0  0
   58.2791   32.5936   44.4383 H   0  0  0  0  0  0  0  0  0  0  0  0
   56.8894   34.8918   45.8510 H   0  0  0  0  0  0  0  0  0  0  0  0
   56.3425   33.1813   45.6114 H   0  0  0  0  0  0  0  0  0  0  0  0
   57.1309   33.6950   47.9491 H   0  0  0  0  0  0  0  0  0  0  0  0
   58.0290   32.3584   47.1162 H   0  0  0  0  0  0  0  0  0  0  0  0
  1  2  2  0
  2  3  1  0
  3  4  1  0
  4  5  1  0
  5  6  2  0
  6  7  1  0
  7  8  2  0
  8  9  1  0
  9 10  2  0
 10 11  1  0
 11 12  2  0
  6 13  1  0
 13 14  2  0
 14 15  1  0
 15 16  1  0
 16 17  1  0
 17 18  2  0
 17 19  1  0
 19 20  1  0
 20 21  1  0
 21 22  1  0
 22 23  1  0
 23 24  1  0
 14  4  1  0
 24 19  1  0
 12  7  1  0
  1 25  1  0
  1 26  1  0
  2 27  1  0
  3 28  1  0
  3 29  1  0
  8 30  1  0
  9 31  1  0
 10 32  1  0
 11 33  1  0
 12 34  1  0
 16 35  1  0
 16 36  1  0
 20 37  1  0
 20 38  1  0
 21 39  1  0
 21 40  1  0
 22 41  1  0
 22 42  1  0
 23 43  1  0
 23 44  1  0
 24 45  1  0
 24 46  1  0
M  END
>  <UniqueID>  (16) 
15

>  <SMILES>  (16) 
C=CCn1nc(-c2ccccc2)nc1SCC(=O)N1CCCCC1

>  <Energy>  (16) 
74.37771824032816

>  <Genealogy>  (16) 
C=CCn1nc(-c2ccccc2)nc1SCC(=O)N1CCCCC1 (3D coordinates assigned)
C=CCn1nc(-c2ccccc2)nc1SCC(=O)N1CCCCC1 (nonaromatic ring conformer: 74.37771824032816 kcal/mol)

>  <smiles>  (16) 
C=CCn1nc(-c2ccccc2)nc1SCC(=O)N1CCCCC1

>  <score_type>  (16) 
oracle

>  <origin>  (16) 
adg

>  <m_score__min__energy>  (16) 
-8.4900000000000002

>  <m_primary>  (16) 
energy

$$$$
16:0
     RDKit          3D

 52 54  0  0  0  0  0  0  0  0999 V2000
   56.1060   24.1230   47.2900 C   0  0  0  0  0  0  0  0  0  0  0  0
   55.7280   25.1630   46.3170 N   0  0  0  0  0  0  0  0  0  0  0  0
   54.5020   24.7510   45.6150 C   0  0  0  0  0  0  0  0  0  0  0  0
   56.8200   25.4070   45.3470 C   0  0  0  0  0  0  0  0  0  0  0  0
   57.3730   26.8330   45.5110 C   0  0  0  0  0  0  0  0  0  0  0  0
   57.4140   27.2600   46.9180 N   0  0  0  0  0  0  0  0  0  0  0  0
   58.7810   27.3170   47.4560 C   0  0  0  0  0  0  0  0  0  0  0  0
   59.2830   28.7630   47.4510 C   0  0  0  0  0  0  0  0  0  0  0  0
   58.2140   29.7060   47.1080 N   0  0  0  0  0  0  0  0  0  0  0  0
   58.4600   31.0050   46.5370 C   0  0  0  0  0  0  0  0  0  0  0  0
   59.0250   32.0270   47.3030 C   0  0  0  0  0  0  0  0  0  0  0  0
   59.2250   33.2780   46.7750 C   0  0  0  0  0  0  0  0  0  0  0  0
   58.9230   33.5760   45.4710 N   0  0  0  0  0  0  0  0  0  0  0  0
   59.2020   34.9230   44.9340 C   0  0  0  0  0  0  0  0  0  0  0  0
   58.3480   32.6010   44.6740 C   0  0  0  0  0  0  0  0  0  0  0  0
   57.9830   32.8600   43.3290 C   0  0  0  0  0  0  0  0  0  0  0  0
   57.4190   31.8640   42.5320 C   0  0  0  0  0  0  0  0  0  0  0  0
   57.2010   30.5920   43.0500 C   0  0  0  0  0  0  0  0  0  0  0  0
   57.5360   30.3040   44.3700 C   0  0  0  0  0  0  0  0  0  0  0  0
   58.1050   31.2940   45.2010 C   0  0  0  0  0  0  0  0  0  0  0  0
   59.7800   34.2130   47.7960 C   0  0  0  0  0  0  0  0  0  0  0  0
   59.7360   33.4140   49.1050 C   0  0  0  0  0  0  0  0  0  0  0  0
   59.4440   31.9570   48.7270 C   0  0  0  0  0  0  0  0  0  0  0  0
   55.9661   24.5078   48.3109 H   0  0  0  0  0  0  0  0  0  0  0  0
   55.4729   23.2356   47.1427 H   0  0  0  0  0  0  0  0  0  0  0  0
   57.1611   23.8492   47.1427 H   0  0  0  0  0  0  0  0  0  0  0  0
   53.7276   24.4908   46.3516 H   0  0  0  0  0  0  0  0  0  0  0  0
   54.1449   25.5785   44.9843 H   0  0  0  0  0  0  0  0  0  0  0  0
   54.7171   23.8758   44.9843 H   0  0  0  0  0  0  0  0  0  0  0  0
   57.6288   24.6821   45.5216 H   0  0  0  0  0  0  0  0  0  0  0  0
   56.4240   25.2925   44.3271 H   0  0  0  0  0  0  0  0  0  0  0  0
   58.3937   26.8653   45.1021 H   0  0  0  0  0  0  0  0  0  0  0  0
   56.7012   27.5174   44.9722 H   0  0  0  0  0  0  0  0  0  0  0  0
   56.8400   26.6050   47.5000 H   0  0  0  0  0  0  0  0  0  0  0  0
   58.7835   26.9336   48.4870 H   0  0  0  0  0  0  0  0  0  0  0  0
   59.4429   26.7017   46.8289 H   0  0  0  0  0  0  0  0  0  0  0  0
   59.6692   29.0099   48.4510 H   0  0  0  0  0  0  0  0  0  0  0  0
   60.0738   28.8493   46.6912 H   0  0  0  0  0  0  0  0  0  0  0  0
   57.2320   29.3500   47.1230 H   0  0  0  0  0  0  0  0  0  0  0  0
   59.3478   35.6268   45.7667 H   0  0  0  0  0  0  0  0  0  0  0  0
   60.1125   34.8907   44.3176 H   0  0  0  0  0  0  0  0  0  0  0  0
   58.3536   35.2550   44.3176 H   0  0  0  0  0  0  0  0  0  0  0  0
   58.1472   33.8625   42.9071 H   0  0  0  0  0  0  0  0  0  0  0  0
   57.1456   32.0855   41.4898 H   0  0  0  0  0  0  0  0  0  0  0  0
   56.7617   29.8097   42.4136 H   0  0  0  0  0  0  0  0  0  0  0  0
   57.3557   29.2952   44.7698 H   0  0  0  0  0  0  0  0  0  0  0  0
   60.8135   34.4944   47.5458 H   0  0  0  0  0  0  0  0  0  0  0  0
   59.2121   35.1530   47.8580 H   0  0  0  0  0  0  0  0  0  0  0  0
   60.7036   33.4838   49.6236 H   0  0  0  0  0  0  0  0  0  0  0  0
   58.9632   33.8081   49.7814 H   0  0  0  0  0  0  0  0  0  0  0  0
   60.3457   31.3368   48.8384 H   0  0  0  0  0  0  0  0  0  0  0  0
   58.6771   31.5004   49.3700 H   0  0  0  0  0  0  0  0  0  0  0  0
  1  2  1  0
  2  3  1  0
  2  4  1  0
  4  5  1  0
  5  6  1  0
  6  7  1  0
  7  8  1  0
  8  9  1  0
  9 10  1  0
 10 11  2  0
 11 12  1  0
 12 13  2  0
 13 14  1  0
 13 15  1  0
 15 16  2  0
 16 17  1  0
 17 18  2  0
 18 19  1  0
 19 20  2  0
 12 21  1  0
 21 22  1  0
 22 23  1  0
 20 10  1  0
 23 11  1  0
 20 15  1  0
  1 24  1  0
  1 25  1  0
  1 26  1  0
  3 27  1  0
  3 28  1  0
  3 29  1  0
  4 30  1  0
  4 31  1  0
  5 32  1  0
  5 33  1  0
  6 34  1  0
  7 35  1  0
  7 36  1  0
  8 37  1  0
  8 38  1  0
  9 39  1  0
 14 40  1  0
 14 41  1  0
 14 42  1  0
 16 43  1  0
 17 44  1  0
 18 45  1  0
 19 46  1  0
 21 47  1  0
 21 48  1  0
 22 49  1  0
 22 50  1  0
 23 51  1  0
 23 52  1  0
M  CHG  1  13   1
M  END
>  <UniqueID>  (17) 
16

>  <SMILES>  (17) 
CN(C)CCNCCNc1c2c([n+](C)c3ccccc13)CCC2

>  <Energy>  (17) 
70.59975779468415

>  <Genealogy>  (17) 
CN(C)CCNCCNc1c2c([n+](C)c3ccccc13)CCC2 (3D coordinates assigned)
CN(C)CCNCCNc1c2c([n+](C)c3ccccc13)CCC2 (nonaromatic ring conformer: 70.59975779468415 kcal/mol)

>  <smiles>  (17) 
CN(C)CCNCCNc1c2c([n+](C)c3ccccc13)CCC2

>  <score_type>  (17) 
oracle

>  <origin>  (17) 
adg

>  <m_score__min__energy>  (17) 
-4.8200000000000003

>  <m_primary>  (17) 
energy

$$$$
17:0
     RDKit          3D

 48 47  0  0  0  0  0  0  0  0999 V2000
   56.5980   30.3650   42.7160 C   0  0  0  0  0  0  0  0  0  0  0  0
   55.9490   30.2400   44.0930 C   0  0  0  0  0  0  0  0  0  0  0  0
   56.9400   29.8130   45.0900 N   0  0  0  0  0  0  0  0  0  0  0  0
   57.0330   28.3480   45.1790 C   0  0  0  0  0  0  0  0  0  0  0  0
   58.0770   27.8350   44.1870 C   0  0  0  0  0  0  0  0  0  0  0  0
   59.4880   28.2960   44.5860 C   0  0  0  0  0  0  0  0  0  0  0  0
   59.4750   29.4940   45.4490 N   0  0  0  0  0  0  0  0  0  0  0  0
   60.7780   29.8540   46.0440 C   0  0  0  0  0  0  0  0  0  0  0  0
   60.7460   31.0990   46.9560 C   0  0  0  0  0  0  0  0  0  0  0  0
   59.3640   31.3450   47.5990 C   0  0  0  0  0  0  0  0  0  0  0  0
   58.2960   31.4930   46.5950 N   0  0  0  0  0  0  0  0  0  0  0  0
   57.7350   32.8570   46.5730 C   0  0  0  0  0  0  0  0  0  0  0  0
   58.1730   33.6330   45.3030 C   0  0  0  0  0  0  0  0  0  0  0  0
   58.4760   32.6610   44.1410 C   0  0  0  0  0  0  0  0  0  0  0  0
   57.0260   34.5760   44.8760 C   0  0  0  0  0  0  0  0  0  0  0  0
   59.4270   34.4770   45.6120 C   0  0  0  0  0  0  0  0  0  0  0  0
   57.6719   30.5718   42.8342 H   0  0  0  0  0  0  0  0  0  0  0  0
   56.4646   29.4247   42.1611 H   0  0  0  0  0  0  0  0  0  0  0  0
   56.1249   31.1885   42.1611 H   0  0  0  0  0  0  0  0  0  0  0  0
   55.5350   31.2154   44.3883 H   0  0  0  0  0  0  0  0  0  0  0  0
   55.1474   29.4884   44.0425 H   0  0  0  0  0  0  0  0  0  0  0  0
   56.6330   30.1720   46.0280 H   0  0  0  0  0  0  0  0  0  0  0  0
   57.3272   28.0619   46.1996 H   0  0  0  0  0  0  0  0  0  0  0  0
   56.0548   27.9063   44.9382 H   0  0  0  0  0  0  0  0  0  0  0  0
   58.0487   26.7355   44.1712 H   0  0  0  0  0  0  0  0  0  0  0  0
   57.8439   28.2404   43.1914 H   0  0  0  0  0  0  0  0  0  0  0  0
   59.9852   27.4778   45.1277 H   0  0  0  0  0  0  0  0  0  0  0  0
   60.0246   28.5586   43.6623 H   0  0  0  0  0  0  0  0  0  0  0  0
   58.7900   29.3380   46.2280 H   0  0  0  0  0  0  0  0  0  0  0  0
   59.1110   30.3030   44.8930 H   0  0  0  0  0  0  0  0  0  0  0  0
   61.1300   29.0001   46.6414 H   0  0  0  0  0  0  0  0  0  0  0  0
   61.4466   30.0989   45.2055 H   0  0  0  0  0  0  0  0  0  0  0  0
   61.4862   30.9640   47.7584 H   0  0  0  0  0  0  0  0  0  0  0  0
   60.9744   31.9718   46.3267 H   0  0  0  0  0  0  0  0  0  0  0  0
   59.1207   30.4928   48.2506 H   0  0  0  0  0  0  0  0  0  0  0  0
   59.4214   32.2842   48.1687 H   0  0  0  0  0  0  0  0  0  0  0  0
   57.5280   30.8110   46.8140 H   0  0  0  0  0  0  0  0  0  0  0  0
   56.6371   32.7920   46.5910 H   0  0  0  0  0  0  0  0  0  0  0  0
   58.1104   33.3982   47.4540 H   0  0  0  0  0  0  0  0  0  0  0  0
   58.7801   31.6856   44.5487 H   0  0  0  0  0  0  0  0  0  0  0  0
   57.5744   32.5354   43.5235 H   0  0  0  0  0  0  0  0  0  0  0  0
   59.2893   33.0699   43.5235 H   0  0  0  0  0  0  0  0  0  0  0  0
   56.5324   34.9818   45.7714 H   0  0  0  0  0  0  0  0  0  0  0  0
   57.4349   35.4026   44.2763 H   0  0  0  0  0  0  0  0  0  0  0  0
   56.2941   34.0150   44.2763 H   0  0  0  0  0  0  0  0  0  0  0  0
   59.5527   34.5616   46.7015 H   0  0  0  0  0  0  0  0  0  0  0  0
   60.3127   33.9905   45.1774 H   0  0  0  0  0  0  0  0  0  0  0  0
   59.3097   35.4807   45.1774 H   0  0  0  0  0  0  0  0  0  0  0  0
  1  2  1  0
  2  3  1  0
  3  4  1  0
  4  5  1  0
  5  6  1  0
  6  7  1  0
  7  8  1  0
  8  9  1  0
  9 10  1  0
 10 11  1  0
 11 12  1  0
 12 13  1  0
 13 14  1  0
 13 15  1  0
 13 16  1  0
  1 17  1  0
  1 18  1  0
  1 19  1  0
  2 20  1  0
  2 21  1  0
  3 22  1  0
  4 23  1  0
  4 24  1  0
  5 25  1  0
  5 26  1  0
  6 27  1  0
  6 28  1  0
  7 29  1  0
  7 30  1  0
  8 31  1  0
  8 32  1  0
  9 33  1  0
  9 34  1  0
 10 35  1  0
 10 36  1  0
 11 37  1  0
 12 38  1  0
 12 39  1  0
 14 40  1  0
 14 41  1  0
 14 42  1  0
 15 43  1  0
 15 44  1  0
 15 45  1  0
 16 46  1  0
 16 47  1  0
 16 48  1  0
M  CHG  1   7   1
M  END
>  <UniqueID>  (18) 
17

>  <SMILES>  (18) 
CCNCCC[NH2+]CCCNCC(C)(C)C

>  <Energy>  (18) 
30.99278476277329

>  <Genealogy>  (18) 
CCNCCC[NH2+]CCCNCC(C)(C)C (protonated)
CCNCCC[NH2+]CCCNCC(C)(C)C (3D coordinates assigned)
CCNCCC[NH2+]CCCNCC(C)(C)C (optimized conformer: 30.99278476277329 kcal/mol)

>  <smiles>  (18) 
CCNCCCNCCCNCC(C)(C)C

>  <score_type>  (18) 
oracle

>  <origin>  (18) 
adg

>  <m_score__min__energy>  (18) 
-3.4900000000000002

>  <m_primary>  (18) 
energy

$$$$
18:0
     RDKit          3D

 67 69  0  0  0  0  0  0  0  0999 V2000
   58.8430   31.5630   50.5160 C   0  0  0  0  0  0  0  0  0  0  0  0
   59.9860   30.6160   50.8910 C   0  0  0  0  0  0  0  0  0  0  0  0
   60.5910   29.9660   49.7180 N   0  0  0  0  0  0  0  0  0  0  0  0
   59.9010   28.7230   49.3520 C   0  0  0  0  0  0  0  0  0  0  0  0
   59.7020   28.6720   47.8200 C   0  0  0  0  0  0  0  0  0  0  0  0
   60.5160   29.6260   47.0170 N   0  0  0  0  0  0  0  0  0  0  0  0
   59.7890   30.7000   46.3490 C   0  0  0  0  0  0  0  0  0  0  0  0
   58.8270   30.3740   45.3520 C   0  0  0  0  0  0  0  0  0  0  0  0
   58.6930   29.0500   44.8590 C   0  0  0  0  0  0  0  0  0  0  0  0
   57.7210   28.7260   43.9160 C   0  0  0  0  0  0  0  0  0  0  0  0
   56.8520   29.7000   43.4500 C   0  0  0  0  0  0  0  0  0  0  0  0
   56.9670   31.0110   43.9040 C   0  0  0  0  0  0  0  0  0  0  0  0
   57.9740   31.3840   44.8330 C   0  0  0  0  0  0  0  0  0  0  0  0
   58.1000   32.6860   45.2620 N   0  0  0  0  0  0  0  0  0  0  0  0
   57.3970   33.7740   44.5400 C   0  0  0  0  0  0  0  0  0  0  0  0
   58.9070   32.9900   46.3380 C   0  0  0  0  0  0  0  0  0  0  0  0
   58.7710   34.2250   47.0160 C   0  0  0  0  0  0  0  0  0  0  0  0
   59.6370   34.5860   48.0370 C   0  0  0  0  0  0  0  0  0  0  0  0
   60.6930   33.7580   48.3720 C   0  0  0  0  0  0  0  0  0  0  0  0
   60.8550   32.5130   47.7520 C   0  0  0  0  0  0  0  0  0  0  0  0
   62.0980   31.8270   47.9630 N   0  0  0  0  0  0  0  0  0  0  0  0
   63.3430   32.2120   47.3000 C   0  0  0  0  0  0  0  0  0  0  0  0
   64.0650   33.2940   48.1160 C   0  0  0  0  0  0  0  0  0  0  0  0
   64.7850   32.7160   49.3660 C   0  0  0  0  0  0  0  0  0  0  0  0
   64.1490   33.0240   50.6850 N   0  0  0  0  0  0  0  0  0  0  0  0
   63.1950   34.1540   50.5800 C   0  0  0  0  0  0  0  0  0  0  0  0
   65.1700   33.3240   51.7180 C   0  0  0  0  0  0  0  0  0  0  0  0
   63.3940   31.8220   51.1220 C   0  0  0  0  0  0  0  0  0  0  0  0
   59.8790   32.0540   46.8040 C   0  0  0  0  0  0  0  0  0  0  0  0
   58.3736   31.9519   51.4317 H   0  0  0  0  0  0  0  0  0  0  0  0
   59.2401   32.4004   49.9234 H   0  0  0  0  0  0  0  0  0  0  0  0
   58.0940   31.0172   49.9234 H   0  0  0  0  0  0  0  0  0  0  0  0
   60.7633   31.1921   51.4144 H   0  0  0  0  0  0  0  0  0  0  0  0
   59.5668   29.8252   51.5305 H   0  0  0  0  0  0  0  0  0  0  0  0
   60.5670   30.6250   48.9040 H   0  0  0  0  0  0  0  0  0  0  0  0
   60.5053   27.8612   49.6715 H   0  0  0  0  0  0  0  0  0  0  0  0
   58.9203   28.6897   49.8490 H   0  0  0  0  0  0  0  0  0  0  0  0
   59.9496   27.6544   47.4835 H   0  0  0  0  0  0  0  0  0  0  0  0
   58.6552   28.9643   47.6502 H   0  0  0  0  0  0  0  0  0  0  0  0
   61.2520   30.0450   47.6310 H   0  0  0  0  0  0  0  0  0  0  0  0
   61.1120   29.1050   46.3410 H   0  0  0  0  0  0  0  0  0  0  0  0
   59.3694   28.2652   45.2286 H   0  0  0  0  0  0  0  0  0  0  0  0
   57.6427   27.6951   43.5402 H   0  0  0  0  0  0  0  0  0  0  0  0
   56.0712   29.4370   42.7212 H   0  0  0  0  0  0  0  0  0  0  0  0
   56.2640   31.7728   43.5359 H   0  0  0  0  0  0  0  0  0  0  0  0
   56.9492   34.4671   45.2674 H   0  0  0  0  0  0  0  0  0  0  0  0
   58.1146   34.3184   43.9085 H   0  0  0  0  0  0  0  0  0  0  0  0
   56.6058   33.3435   43.9085 H   0  0  0  0  0  0  0  0  0  0  0  0
   57.9621   34.9122   46.7272 H   0  0  0  0  0  0  0  0  0  0  0  0
   59.4842   35.5303   48.5802 H   0  0  0  0  0  0  0  0  0  0  0  0
   61.4153   34.0819   49.1358 H   0  0  0  0  0  0  0  0  0  0  0  0
   62.0940   30.9550   48.5330 H   0  0  0  0  0  0  0  0  0  0  0  0
   63.9942   31.3301   47.2092 H   0  0  0  0  0  0  0  0  0  0  0  0
   63.1099   32.6107   46.3017 H   0  0  0  0  0  0  0  0  0  0  0  0
   64.8123   33.7812   47.4724 H   0  0  0  0  0  0  0  0  0  0  0  0
   63.3065   34.0087   48.4681 H   0  0  0  0  0  0  0  0  0  0  0  0
   64.8237   31.6221   49.2573 H   0  0  0  0  0  0  0  0  0  0  0  0
   65.7731   33.1986   49.3911 H   0  0  0  0  0  0  0  0  0  0  0  0
   62.9117   34.4896   51.5885 H   0  0  0  0  0  0  0  0  0  0  0  0
   63.6690   34.9848   50.0368 H   0  0  0  0  0  0  0  0  0  0  0  0
   62.2965   33.8260   50.0368 H   0  0  0  0  0  0  0  0  0  0  0  0
   64.7294   33.1945   52.7175 H   0  0  0  0  0  0  0  0  0  0  0  0
   66.0222   32.6383   51.6013 H   0  0  0  0  0  0  0  0  0  0  0  0
   65.5158   34.3617   51.6013 H   0  0  0  0  0  0  0  0  0  0  0  0
   63.3699   31.7837   52.2211 H   0  0  0  0  0  0  0  0  0  0  0  0
   62.3659   31.8738   50.7343 H   0  0  0  0  0  0  0  0  0  0  0  0
   63.8870   30.9183   50.7343 H   0  0  0  0  0  0  0  0  0  0  0  0
  1  2  1  0
  2  3  1  0
  3  4  1  0
  4  5  1  0
  5  6  1  0
  6  7  1  0
  7  8  2  0
  8  9  1  0
  9 10  2  0
 10 11  1  0
 11 12  2  0
 12 13  1  0
 13 14  2  0
 14 15  1  0
 14 16  1  0
 16 17  2  0
 17 18  1  0
 18 19  2  0
 19 20  1  0
 20 21  1  0
 21 22  1  0
 22 23  1  0
 23 24  1  0
 24 25  1  0
 25 26  1  0
 25 27  1  0
 25 28  1  0
 20 29  2  0
 29  7  1  0
 13  8  1  0
 29 16  1  0
  1 30  1  0
  1 31  1  0
  1 32  1  0
  2 33  1  0
  2 34  1  0
  3 35  1  0
  4 36  1  0
  4 37  1  0
  5 38  1  0
  5 39  1  0
  6 40  1  0
  6 41  1  0
  9 42  1  0
 10 43  1  0
 11 44  1  0
 12 45  1  0
 15 46  1  0
 15 47  1  0
 15 48  1  0
 17 49  1  0
 18 50  1  0
 19 51  1  0
 21 52  1  0
 22 53  1  0
 22 54  1  0
 23 55  1  0
 23 56  1  0
 24 57  1  0
 24 58  1  0
 26 59  1  0
 26 60  1  0
 26 61  1  0
 27 62  1  0
 27 63  1  0
 27 64  1  0
 28 65  1  0
 28 66  1  0
 28 67  1  0
M  CHG  3   6   1  14   1  25   1
M  END
>  <UniqueID>  (19) 
18

>  <SMILES>  (19) 
CCNCC[NH2+]c1c2ccccc2[n+](C)c2cccc(NCCC[N+](C)(C)C)c12

>  <Energy>  (19) 
116.66047994875787

>  <Genealogy>  (19) 
CCNCC[NH2+]c1c2ccccc2[n+](C)c2cccc(NCCC[N+](C)(C)C)c12 (protonated)
CCNCC[NH2+]c1c2ccccc2[n+](C)c2cccc(NCCC[N+](C)(C)C)c12 (3D coordinates assigned)
CCNCC[NH2+]c1c2ccccc2[n+](C)c2cccc(NCCC[N+](C)(C)C)c12 (optimized conformer: 116.66047994875787 kcal/mol)

>  <smiles>  (19) 
CCNCCNc1c2ccccc2[n+](C)c2cccc(NCCC[N+](C)(C)C)c12

>  <score_type>  (19) 
oracle

>  <origin>  (19) 
adg

>  <m_score__min__energy>  (19) 
-2.71

>  <m_primary>  (19) 
energy

$$$$
19:0
     RDKit          3D

 54 56  0  0  0  0  0  0  0  0999 V2000
   58.4360   28.8070   46.0640 C   0  0  0  0  0  0  0  0  0  0  0  0
   57.2930   28.6530   45.0570 C   0  0  0  0  0  0  0  0  0  0  0  0
   56.2400   29.6660   45.2350 N   0  0  0  0  0  0  0  0  0  0  0  0
   55.6170   30.0530   43.9620 C   0  0  0  0  0  0  0  0  0  0  0  0
   56.6880   30.3730   42.9080 C   0  0  0  0  0  0  0  0  0  0  0  0
   57.4100   31.7090   43.1420 C   0  0  0  0  0  0  0  0  0  0  0  0
   57.8710   31.8120   44.5380 N   0  0  0  0  0  0  0  0  0  0  0  0
   58.5330   33.0950   44.8240 C   0  0  0  0  0  0  0  0  0  0  0  0
   57.9160   33.7130   46.0790 C   0  0  0  0  0  0  0  0  0  0  0  0
   57.9350   32.7330   47.2580 C   0  0  0  0  0  0  0  0  0  0  0  0
   58.9840   31.7320   47.0650 N   0  0  0  0  0  0  0  0  0  0  0  0
   60.0840   31.6560   47.9870 C   0  0  0  0  0  0  0  0  0  0  0  0
   61.3130   32.3060   47.7480 C   0  0  0  0  0  0  0  0  0  0  0  0
   61.4640   33.1850   46.6570 C   0  0  0  0  0  0  0  0  0  0  0  0
   62.6720   33.8430   46.4370 C   0  0  0  0  0  0  0  0  0  0  0  0
   63.7380   33.6590   47.3100 C   0  0  0  0  0  0  0  0  0  0  0  0
   63.6100   32.8100   48.4100 C   0  0  0  0  0  0  0  0  0  0  0  0
   62.4080   32.1000   48.6510 C   0  0  0  0  0  0  0  0  0  0  0  0
   62.2730   31.2400   49.7320 N   0  0  0  0  0  0  0  0  0  0  0  0
   63.4300   30.9040   50.5860 C   0  0  0  0  0  0  0  0  0  0  0  0
   61.0330   30.7120   50.0100 C   0  0  0  0  0  0  0  0  0  0  0  0
   60.6810   29.9330   51.1340 C   0  0  0  0  0  0  0  0  0  0  0  0
   59.3550   29.5110   51.1170 C   0  0  0  0  0  0  0  0  0  0  0  0
   58.6090   30.1040   49.7290 S   0  0  0  0  0  0  0  0  0  0  0  0
   59.9650   30.9090   49.1500 C   0  0  0  0  0  0  0  0  0  0  0  0
   58.0337   28.7528   47.0864 H   0  0  0  0  0  0  0  0  0  0  0  0
   59.1677   27.9993   45.9146 H   0  0  0  0  0  0  0  0  0  0  0  0
   58.9278   29.7795   45.9146 H   0  0  0  0  0  0  0  0  0  0  0  0
   57.7039   28.7470   44.0409 H   0  0  0  0  0  0  0  0  0  0  0  0
   56.8361   27.6659   45.2208 H   0  0  0  0  0  0  0  0  0  0  0  0
   56.6480   30.5170   45.6890 H   0  0  0  0  0  0  0  0  0  0  0  0
   54.9905   29.2244   43.6001 H   0  0  0  0  0  0  0  0  0  0  0  0
   55.0040   30.9513   44.1271 H   0  0  0  0  0  0  0  0  0  0  0  0
   57.4371   29.5675   42.9193 H   0  0  0  0  0  0  0  0  0  0  0  0
   56.1707   30.4540   41.9406 H   0  0  0  0  0  0  0  0  0  0  0  0
   58.2777   31.7737   42.4690 H   0  0  0  0  0  0  0  0  0  0  0  0
   56.7085   32.5315   42.9386 H   0  0  0  0  0  0  0  0  0  0  0  0
   57.0480   31.7160   45.1790 H   0  0  0  0  0  0  0  0  0  0  0  0
   59.6074   32.9256   44.9879 H   0  0  0  0  0  0  0  0  0  0  0  0
   58.3974   33.7776   43.9722 H   0  0  0  0  0  0  0  0  0  0  0  0
   58.4880   34.6119   46.3526 H   0  0  0  0  0  0  0  0  0  0  0  0
   56.8685   33.9662   45.8587 H   0  0  0  0  0  0  0  0  0  0  0  0
   58.1282   33.2873   48.1883 H   0  0  0  0  0  0  0  0  0  0  0  0
   56.9610   32.2255   47.3190 H   0  0  0  0  0  0  0  0  0  0  0  0
   59.1420   31.3980   46.0880 H   0  0  0  0  0  0  0  0  0  0  0  0
   60.6197   33.3532   45.9723 H   0  0  0  0  0  0  0  0  0  0  0  0
   62.7827   34.5104   45.5696 H   0  0  0  0  0  0  0  0  0  0  0  0
   64.6874   34.1854   47.1328 H   0  0  0  0  0  0  0  0  0  0  0  0
   64.4568   32.6900   49.1018 H   0  0  0  0  0  0  0  0  0  0  0  0
   63.1413   30.9878   51.6441 H   0  0  0  0  0  0  0  0  0  0  0  0
   63.7548   29.8744   50.3750 H   0  0  0  0  0  0  0  0  0  0  0  0
   64.2557   31.5995   50.3750 H   0  0  0  0  0  0  0  0  0  0  0  0
   61.3846   29.6846   51.9422 H   0  0  0  0  0  0  0  0  0  0  0  0
   58.8722   28.8903   51.8862 H   0  0  0  0  0  0  0  0  0  0  0  0
  1  2  1  0
  2  3  1  0
  3  4  1  0
  4  5  1  0
  5  6  1  0
  6  7  1  0
  7  8  1  0
  8  9  1  0
  9 10  1  0
 10 11  1  0
 11 12  1  0
 12 13  2  0
 13 14  1  0
 14 15  2  0
 15 16  1  0
 16 17  2  0
 17 18  1  0
 18 19  2  0
 19 20  1  0
 19 21  1  0
 21 22  1  0
 22 23  2  0
 23 24  1  0
 24 25  1  0
 25 12  1  0
 18 13  1  0
 25 21  2  0
  1 26  1  0
  1 27  1  0
  1 28  1  0
  2 29  1  0
  2 30  1  0
  3 31  1  0
  4 32  1  0
  4 33  1  0
  5 34  1  0
  5 35  1  0
  6 36  1  0
  6 37  1  0
  7 38  1  0
  8 39  1  0
  8 40  1  0
  9 41  1  0
  9 42  1  0
 10 43  1  0
 10 44  1  0
 11 45  1  0
 14 46  1  0
 15 47  1  0
 16 48  1  0
 17 49  1  0
 20 50  1  0
 20 51  1  0
 20 52  1  0
 22 53  1  0
 23 54  1  0
M  CHG  1  19   1
M  END
>  <UniqueID>  (20) 
19

>  <SMILES>  (20) 
CCNCCCNCCCNc1c2ccccc2[n+](C)c2ccsc12

>  <Energy>  (20) 
90.29770207536029

>  <Genealogy>  (20) 
CCNCCCNCCCNc1c2ccccc2[n+](C)c2ccsc12 (3D coordinates assigned)
CCNCCCNCCCNc1c2ccccc2[n+](C)c2ccsc12 (optimized conformer: 90.29770207536029 kcal/mol)

>  <smiles>  (20) 
CCNCCCNCCCNc1c2ccccc2[n+](C)c2ccsc12

>  <score_type>  (20) 
oracle

>  <origin>  (20) 
adg

>  <m_score__min__energy>  (20) 
-5.2800000000000002

>  <m_primary>  (20) 
energy

$$$$
20:0
     RDKit          3D

 39 41  0  0  0  0  0  0  0  0999 V2000
   61.4040   30.8390   46.7430 C   0  0  0  0  0  0  0  0  0  0  0  0
   59.9830   30.6320   46.3930 N   0  0  0  0  0  0  0  0  0  0  0  0
   59.1440   31.7220   46.2890 C   0  0  0  0  0  0  0  0  0  0  0  0
   57.8700   31.5940   45.7080 C   0  0  0  0  0  0  0  0  0  0  0  0
   57.3850   30.3230   45.3680 C   0  0  0  0  0  0  0  0  0  0  0  0
   56.0420   30.1810   44.8740 N   0  0  0  0  0  0  0  0  0  0  0  0
   55.7240   30.1470   43.4430 C   0  0  0  0  0  0  0  0  0  0  0  0
   56.9880   30.1740   42.5830 C   0  0  0  0  0  0  0  0  0  0  0  0
   57.5160   31.9890   42.1380 Br  0  0  0  0  0  0  0  0  0  0  0  0
   58.2060   29.1970   45.5600 C   0  0  0  0  0  0  0  0  0  0  0  0
   57.7730   27.9090   45.1790 C   0  0  0  0  0  0  0  0  0  0  0  0
   58.5580   26.7890   45.4380 C   0  0  0  0  0  0  0  0  0  0  0  0
   59.7820   26.9310   46.0810 C   0  0  0  0  0  0  0  0  0  0  0  0
   60.2520   28.1980   46.4270 C   0  0  0  0  0  0  0  0  0  0  0  0
   59.5000   29.3630   46.1280 C   0  0  0  0  0  0  0  0  0  0  0  0
   57.0330   32.8450   45.5340 C   0  0  0  0  0  0  0  0  0  0  0  0
   57.9060   34.0090   45.0370 C   0  0  0  0  0  0  0  0  0  0  0  0
   59.2090   34.2030   45.8510 C   0  0  0  0  0  0  0  0  0  0  0  0
   59.4730   33.0880   46.8760 C   0  0  0  0  0  0  0  0  0  0  0  0
   61.5135   30.8550   47.8374 H   0  0  0  0  0  0  0  0  0  0  0  0
   62.0075   30.0193   46.3260 H   0  0  0  0  0  0  0  0  0  0  0  0
   61.7486   31.7968   46.3260 H   0  0  0  0  0  0  0  0  0  0  0  0
   55.2650   30.0830   45.5650 H   0  0  0  0  0  0  0  0  0  0  0  0
   55.1632   29.2264   43.2240 H   0  0  0  0  0  0  0  0  0  0  0  0
   55.1262   31.0386   43.2029 H   0  0  0  0  0  0  0  0  0  0  0  0
   57.8062   29.6904   43.1368 H   0  0  0  0  0  0  0  0  0  0  0  0
   56.7761   29.6391   41.6455 H   0  0  0  0  0  0  0  0  0  0  0  0
   56.8044   27.7888   44.6717 H   0  0  0  0  0  0  0  0  0  0  0  0
   58.2094   25.7911   45.1336 H   0  0  0  0  0  0  0  0  0  0  0  0
   60.3827   26.0405   46.3181 H   0  0  0  0  0  0  0  0  0  0  0  0
   61.2205   28.2952   46.9395 H   0  0  0  0  0  0  0  0  0  0  0  0
   56.2373   32.6496   44.8000 H   0  0  0  0  0  0  0  0  0  0  0  0
   56.5931   33.1179   46.5046 H   0  0  0  0  0  0  0  0  0  0  0  0
   58.1772   33.8164   43.9885 H   0  0  0  0  0  0  0  0  0  0  0  0
   57.3135   34.9281   45.1558 H   0  0  0  0  0  0  0  0  0  0  0  0
   60.0549   34.2356   45.1486 H   0  0  0  0  0  0  0  0  0  0  0  0
   59.0958   35.1388   46.4181 H   0  0  0  0  0  0  0  0  0  0  0  0
   60.5338   33.1093   47.1663 H   0  0  0  0  0  0  0  0  0  0  0  0
   58.8314   33.2576   47.7532 H   0  0  0  0  0  0  0  0  0  0  0  0
  1  2  1  0
  2  3  2  0
  3  4  1  0
  4  5  2  0
  5  6  1  0
  6  7  1  0
  7  8  1  0
  8  9  1  0
  5 10  1  0
 10 11  2  0
 11 12  1  0
 12 13  2  0
 13 14  1  0
 14 15  2  0
  4 16  1  0
 16 17  1  0
 17 18  1  0
 18 19  1  0
 15  2  1  0
 19  3  1  0
 15 10  1  0
  1 20  1  0
  1 21  1  0
  1 22  1  0
  6 23  1  0
  7 24  1  0
  7 25  1  0
  8 26  1  0
  8 27  1  0
 11 28  1  0
 12 29  1  0
 13 30  1  0
 14 31  1  0
 16 32  1  0
 16 33  1  0
 17 34  1  0
 17 35  1  0
 18 36  1  0
 18 37  1  0
 19 38  1  0
 19 39  1  0
M  CHG  1   2   1
M  END
>  <UniqueID>  (21) 
20

>  <SMILES>  (21) 
C[n+]1c2c(c(NCCBr)c3ccccc31)CCCC2

>  <Energy>  (21) 
64.97326708887208

>  <Genealogy>  (21) 
C[n+]1c2c(c(NCCBr)c3ccccc31)CCCC2 (3D coordinates assigned)
C[n+]1c2c(c(NCCBr)c3ccccc31)CCCC2 (nonaromatic ring conformer: 64.97326708887208 kcal/mol)

>  <smiles>  (21) 
C[n+]1c2c(c(NCCBr)c3ccccc31)CCCC2

>  <score_type>  (21) 
oracle

>  <origin>  (21) 
adg

>  <m_score__min__energy>  (21) 
-5.8700000000000001

>  <m_primary>  (21) 
energy

$$$$
