0:0
     RDKit          3D

 55 55  0  0  0  0  0  0  0  0999 V2000
   63.3520   32.6960   47.4930 C   0  0  0  0  0  0  0  0  0  0  0  0
   62.4410   33.6860   46.7750 C   0  0  0  0  0  0  0  0  0  0  0  0
   61.0320   33.4760   47.1720 N   0  0  0  0  0  0  0  0  0  0  0  0
   60.5510   34.4720   48.1560 C   0  0  0  0  0  0  0  0  0  0  0  0
   60.0260   33.8540   49.4610 C   0  0  0  0  0  0  0  0  0  0  0  0
   60.7300   32.0800   47.5680 C   0  0  0  0  0  0  0  0  0  0  0  0
   59.5960   31.5310   46.7040 C   0  0  0  0  0  0  0  0  0  0  0  0
   58.3690   31.7230   47.3720 O   0  0  0  0  0  0  0  0  0  0  0  0
   57.7770   32.9410   46.9700 C   0  0  0  0  0  0  0  0  0  0  0  0
   58.3150   33.3390   45.5890 C   0  0  0  0  0  0  0  0  0  0  0  0
   57.3950   32.8710   44.4520 C   0  0  0  0  0  0  0  0  0  0  0  0
   56.7330   31.6150   44.8200 N   0  0  0  0  0  0  0  0  0  0  0  0
   56.6620   30.6800   43.6910 C   0  0  0  0  0  0  0  0  0  0  0  0
   55.5170   29.7000   43.9190 C   0  0  0  0  0  0  0  0  0  0  0  0
   55.6700   29.0660   45.1870 O   0  0  0  0  0  0  0  0  0  0  0  0
   56.7530   28.2500   45.5490 C   0  0  0  0  0  0  0  0  0  0  0  0
   58.0840   28.7100   45.5090 C   0  0  0  0  0  0  0  0  0  0  0  0
   59.1340   27.8550   45.8520 C   0  0  0  0  0  0  0  0  0  0  0  0
   58.8700   26.5420   46.2410 C   0  0  0  0  0  0  0  0  0  0  0  0
   57.5540   26.0790   46.2940 C   0  0  0  0  0  0  0  0  0  0  0  0
   56.4850   26.9310   45.9510 C   0  0  0  0  0  0  0  0  0  0  0  0
   55.1490   26.5050   45.9900 O   0  0  0  0  0  0  0  0  0  0  0  0
   54.7080   25.2010   45.6250 C   0  0  0  0  0  0  0  0  0  0  0  0
   63.2404   32.8173   48.5806 H   0  0  0  0  0  0  0  0  0  0  0  0
   63.0755   31.6701   47.2082 H   0  0  0  0  0  0  0  0  0  0  0  0
   64.3973   32.8865   47.2082 H   0  0  0  0  0  0  0  0  0  0  0  0
   62.7421   34.7109   47.0376 H   0  0  0  0  0  0  0  0  0  0  0  0
   62.5316   33.5301   45.6899 H   0  0  0  0  0  0  0  0  0  0  0  0
   61.3847   35.1458   48.4027 H   0  0  0  0  0  0  0  0  0  0  0  0
   59.7058   34.9994   47.6896 H   0  0  0  0  0  0  0  0  0  0  0  0
   60.4710   34.3779   50.3198 H   0  0  0  0  0  0  0  0  0  0  0  0
   58.9311   33.9523   49.4988 H   0  0  0  0  0  0  0  0  0  0  0  0
   60.3001   32.7894   49.4988 H   0  0  0  0  0  0  0  0  0  0  0  0
   61.6275   31.4590   47.4304 H   0  0  0  0  0  0  0  0  0  0  0  0
   60.4241   32.0602   48.6244 H   0  0  0  0  0  0  0  0  0  0  0  0
   59.5774   32.0618   45.7407 H   0  0  0  0  0  0  0  0  0  0  0  0
   59.7548   30.4574   46.5245 H   0  0  0  0  0  0  0  0  0  0  0  0
   56.6852   32.8182   46.9169 H   0  0  0  0  0  0  0  0  0  0  0  0
   58.0222   33.7267   47.6998 H   0  0  0  0  0  0  0  0  0  0  0  0
   58.4032   34.4346   45.5453 H   0  0  0  0  0  0  0  0  0  0  0  0
   59.2927   32.8533   45.4543 H   0  0  0  0  0  0  0  0  0  0  0  0
   56.6329   33.6409   44.2611 H   0  0  0  0  0  0  0  0  0  0  0  0
   57.9982   32.7068   43.5469 H   0  0  0  0  0  0  0  0  0  0  0  0
   57.2900   31.1650   45.5860 H   0  0  0  0  0  0  0  0  0  0  0  0
   56.4864   31.2401   42.7607 H   0  0  0  0  0  0  0  0  0  0  0  0
   57.6095   30.1270   43.6107 H   0  0  0  0  0  0  0  0  0  0  0  0
   54.5609   30.2434   43.8953 H   0  0  0  0  0  0  0  0  0  0  0  0
   55.5288   28.9366   43.1271 H   0  0  0  0  0  0  0  0  0  0  0  0
   58.2971   29.7459   45.2066 H   0  0  0  0  0  0  0  0  0  0  0  0
   60.1717   28.2182   45.8152 H   0  0  0  0  0  0  0  0  0  0  0  0
   59.6997   25.8703   46.5064 H   0  0  0  0  0  0  0  0  0  0  0  0
   57.3504   25.0437   46.6051 H   0  0  0  0  0  0  0  0  0  0  0  0
   54.5093   24.6135   46.5335 H   0  0  0  0  0  0  0  0  0  0  0  0
   53.7862   25.2789   45.0298 H   0  0  0  0  0  0  0  0  0  0  0  0
   55.4878   24.7034   45.0298 H   0  0  0  0  0  0  0  0  0  0  0  0
  1  2  1  0
  2  3  1  0
  3  4  1  0
  4  5  1  0
  3  6  1  0
  6  7  1  0
  7  8  1  0
  8  9  1  0
  9 10  1  0
 10 11  1  0
 11 12  1  0
 12 13  1  0
 13 14  1  0
 14 15  1  0
 15 16  1  0
 16 17  2  0
 17 18  1  0
 18 19  2  0
 19 20  1  0
 20 21  2  0
 21 22  1  0
 22 23  1  0
 21 16  1  0
  1 24  1  0
  1 25  1  0
  1 26  1  0
  2 27  1  0
  2 28  1  0
  4 29  1  0
  4 30  1  0
  5 31  1  0
  5 32  1  0
  5 33  1  0
  6 34  1  0
  6 35  1  0
  7 36  1  0
  7 37  1  0
  9 38  1  0
  9 39  1  0
 10 40  1  0
 10 41  1  0
 11 42  1  0
 11 43  1  0
 12 44  1  0
 13 45  1  0
 13 46  1  0
 14 47  1  0
 14 48  1  0
 17 49  1  0
 18 50  1  0
 19 51  1  0
 20 52  1  0
 23 53  1  0
 23 54  1  0
 23 55  1  0
M  END
>  <UniqueID>  (1) 
1

>  <SMILES>  (1) 
CCN(CC)CCOCCCNCCOc1ccccc1OC

>  <Energy>  (1) 
40.238143719241094

>  <Genealogy>  (1) 
CCN(CC)CCOCCCNCCOc1ccccc1OC (3D coordinates assigned)
CCN(CC)CCOCCCNCCOc1ccccc1OC (optimized conformer: 40.238143719241094 kcal/mol)

>  <smiles>  (1) 
CCN(CC)CCOCCCNCCOc1ccccc1OC

>  <score_type>  (1) 
oracle

>  <origin>  (1) 
adg

>  <m_score__min__energy>  (1) 
-6.9100000000000001

>  <m_primary>  (1) 
energy

$$$$
1:0
     RDKit          3D

 57 60  0  0  0  0  0  0  0  0999 V2000
   64.5510   33.1060   49.2710 C   0  0  0  0  0  0  0  0  0  0  0  0
   63.7660   32.2380   48.2880 C   0  0  0  0  0  0  0  0  0  0  0  0
   62.7460   33.0540   47.5860 N   0  0  0  0  0  0  0  0  0  0  0  0
   63.3670   33.8460   46.5070 C   0  0  0  0  0  0  0  0  0  0  0  0
   62.0170   33.9310   48.5310 C   0  0  0  0  0  0  0  0  0  0  0  0
   61.2810   33.1270   49.6240 C   0  0  0  0  0  0  0  0  0  0  0  0
   60.2670   32.1130   49.0380 C   0  0  0  0  0  0  0  0  0  0  0  0
   60.8450   31.2680   47.9670 N   0  0  0  0  0  0  0  0  0  0  0  0
   59.8500   30.8800   46.9650 C   0  0  0  0  0  0  0  0  0  0  0  0
   59.4690   29.5090   46.8560 C   0  0  0  0  0  0  0  0  0  0  0  0
   58.4010   29.1310   46.0050 C   0  0  0  0  0  0  0  0  0  0  0  0
   57.8770   30.0400   45.1090 N   0  0  0  0  0  0  0  0  0  0  0  0
   57.0850   29.5620   43.9540 C   0  0  0  0  0  0  0  0  0  0  0  0
   58.1560   31.3870   45.2420 C   0  0  0  0  0  0  0  0  0  0  0  0
   57.4240   32.3530   44.5020 C   0  0  0  0  0  0  0  0  0  0  0  0
   57.7530   33.7040   44.5420 C   0  0  0  0  0  0  0  0  0  0  0  0
   58.8110   34.1360   45.3210 C   0  0  0  0  0  0  0  0  0  0  0  0
   59.5210   33.2280   46.1030 C   0  0  0  0  0  0  0  0  0  0  0  0
   59.1860   31.8380   46.1250 C   0  0  0  0  0  0  0  0  0  0  0  0
   57.8470   27.7360   46.1440 C   0  0  0  0  0  0  0  0  0  0  0  0
   56.5520   27.4560   45.8170 N   0  0  0  0  0  0  0  0  0  0  0  0
   56.0090   26.2240   45.9970 C   0  0  0  0  0  0  0  0  0  0  0  0
   56.7760   25.1910   46.5370 C   0  0  0  0  0  0  0  0  0  0  0  0
   58.0980   25.4460   46.9070 C   0  0  0  0  0  0  0  0  0  0  0  0
   58.6350   26.7280   46.7360 C   0  0  0  0  0  0  0  0  0  0  0  0
   60.0500   27.0410   47.1050 C   0  0  0  0  0  0  0  0  0  0  0  0
   60.1170   28.4360   47.7330 C   0  0  0  0  0  0  0  0  0  0  0  0
   64.2919   32.8195   50.3010 H   0  0  0  0  0  0  0  0  0  0  0  0
   65.6292   32.9592   49.1098 H   0  0  0  0  0  0  0  0  0  0  0  0
   64.2969   34.1640   49.1098 H   0  0  0  0  0  0  0  0  0  0  0  0
   64.4587   31.8081   47.5495 H   0  0  0  0  0  0  0  0  0  0  0  0
   63.2620   31.4331   48.8431 H   0  0  0  0  0  0  0  0  0  0  0  0
   63.9893   34.6396   46.9463 H   0  0  0  0  0  0  0  0  0  0  0  0
   63.9941   33.1902   45.8852 H   0  0  0  0  0  0  0  0  0  0  0  0
   62.5806   34.2986   45.8852 H   0  0  0  0  0  0  0  0  0  0  0  0
   62.7374   34.6078   49.0137 H   0  0  0  0  0  0  0  0  0  0  0  0
   61.2629   34.4910   47.9585 H   0  0  0  0  0  0  0  0  0  0  0  0
   62.0256   32.5770   50.2181 H   0  0  0  0  0  0  0  0  0  0  0  0
   60.7174   33.8425   50.2407 H   0  0  0  0  0  0  0  0  0  0  0  0
   59.9169   31.4587   49.8499 H   0  0  0  0  0  0  0  0  0  0  0  0
   59.4443   32.6913   48.5923 H   0  0  0  0  0  0  0  0  0  0  0  0
   61.6380   31.7810   47.5470 H   0  0  0  0  0  0  0  0  0  0  0  0
   61.2800   30.4160   48.3900 H   0  0  0  0  0  0  0  0  0  0  0  0
   56.1957   29.0253   44.3161 H   0  0  0  0  0  0  0  0  0  0  0  0
   56.7712   30.4216   43.3436 H   0  0  0  0  0  0  0  0  0  0  0  0
   57.6994   28.8837   43.3436 H   0  0  0  0  0  0  0  0  0  0  0  0
   56.5764   32.0251   43.8822 H   0  0  0  0  0  0  0  0  0  0  0  0
   57.1714   34.4291   43.9538 H   0  0  0  0  0  0  0  0  0  0  0  0
   59.0925   35.1994   45.3230 H   0  0  0  0  0  0  0  0  0  0  0  0
   60.3588   33.5885   46.7179 H   0  0  0  0  0  0  0  0  0  0  0  0
   54.9615   26.0401   45.7162 H   0  0  0  0  0  0  0  0  0  0  0  0
   56.3444   24.1879   46.6696 H   0  0  0  0  0  0  0  0  0  0  0  0
   58.7164   24.6416   47.3319 H   0  0  0  0  0  0  0  0  0  0  0  0
   60.4140   26.2957   47.8276 H   0  0  0  0  0  0  0  0  0  0  0  0
   60.6787   27.0144   46.2028 H   0  0  0  0  0  0  0  0  0  0  0  0
   59.5964   28.4114   48.7017 H   0  0  0  0  0  0  0  0  0  0  0  0
   61.1790   28.6979   47.8490 H   0  0  0  0  0  0  0  0  0  0  0  0
  1  2  1  0
  2  3  1  0
  3  4  1  0
  3  5  1  0
  5  6  1  0
  6  7  1  0
  7  8  1  0
  8  9  1  0
  9 10  2  0
 10 11  1  0
 11 12  2  0
 12 13  1  0
 12 14  1  0
 14 15  2  0
 15 16  1  0
 16 17  2  0
 17 18  1  0
 18 19  2  0
 11 20  1  0
 20 21  2  0
 21 22  1  0
 22 23  2  0
 23 24  1  0
 24 25  2  0
 25 26  1  0
 26 27  1  0
 19  9  1  0
 25 20  1  0
 27 10  1  0
 19 14  1  0
  1 28  1  0
  1 29  1  0
  1 30  1  0
  2 31  1  0
  2 32  1  0
  4 33  1  0
  4 34  1  0
  4 35  1  0
  5 36  1  0
  5 37  1  0
  6 38  1  0
  6 39  1  0
  7 40  1  0
  7 41  1  0
  8 42  1  0
  8 43  1  0
 13 44  1  0
 13 45  1  0
 13 46  1  0
 15 47  1  0
 16 48  1  0
 17 49  1  0
 18 50  1  0
 22 51  1  0
 23 52  1  0
 24 53  1  0
 26 54  1  0
 26 55  1  0
 27 56  1  0
 27 57  1  0
M  CHG  2   8   1  12   1
M  END
>  <UniqueID>  (2) 
2

>  <SMILES>  (2) 
CCN(C)CCC[NH2+]c1c2c([n+](C)c3ccccc13)-c1ncccc1CC2

>  <Energy>  (2) 
95.14310720645474

>  <Genealogy>  (2) 
CCN(C)CCC[NH2+]c1c2c([n+](C)c3ccccc13)-c1ncccc1CC2 (protonated)
CCN(C)CCC[NH2+]c1c2c([n+](C)c3ccccc13)-c1ncccc1CC2 (3D coordinates assigned)
CCN(C)CCC[NH2+]c1c2c([n+](C)c3ccccc13)-c1ncccc1CC2 (nonaromatic ring conformer: 95.14310720645474 kcal/mol)

>  <smiles>  (2) 
CCN(C)CCCNc1c2c([n+](C)c3ccccc13)-c1ncccc1CC2

>  <score_type>  (2) 
oracle

>  <origin>  (2) 
adg

>  <m_score__min__energy>  (2) 
-4.8799999999999999

>  <m_primary>  (2) 
energy

$$$$
2:0
     RDKit          3D

 44 46  0  0  1  0  0  0  0  0999 V2000
   56.6290   30.4200   42.6410 C   0  0  0  0  0  0  0  0  0  0  0  0
   55.7220   29.7530   43.6410 C   0  0  0  0  0  0  0  0  0  0  0  0
   56.3530   29.5180   44.8690 O   0  0  0  0  0  0  0  0  0  0  0  0
   57.0980   28.4190   45.1970 C   0  0  0  0  0  0  0  0  0  0  0  0
   56.5430   27.2650   45.6540 C   0  0  0  0  0  0  0  0  0  0  0  0
   57.3640   26.2020   45.9630 C   0  0  0  0  0  0  0  0  0  0  0  0
   58.7380   26.2500   45.8310 C   0  0  0  0  0  0  0  0  0  0  0  0
   59.2610   27.4430   45.3630 C   0  0  0  0  0  0  0  0  0  0  0  0
   58.4830   28.5260   45.0430 C   0  0  0  0  0  0  0  0  0  0  0  0
   59.0810   29.8410   44.5400 C   0  0  0  0  0  0  0  0  0  0  0  0
   59.1650   30.5150   45.7860 N   0  0  0  0  0  0  0  0  0  0  0  0
   58.7980   31.7320   45.8920 C   0  0  0  0  0  0  0  0  0  0  0  0
   57.5620   32.0080   45.3720 N   0  0  0  0  0  0  0  0  0  0  0  0
   57.0250   33.2350   45.4030 C   0  0  0  0  0  0  0  0  0  0  0  0
   57.7460   34.2140   45.9700 N   0  0  0  0  0  0  0  0  0  0  0  0
   58.9790   33.9900   46.5010 C   0  0  0  0  0  0  0  0  0  0  0  0
   59.5620   32.7270   46.4830 C   0  0  0  0  0  0  0  0  0  0  0  0
   60.8780   32.4200   47.0400 C   0  0  0  0  0  0  0  0  0  0  0  0
   61.4660   33.7890   47.2530 N   0  0  0  0  0  0  0  0  0  0  0  0
   62.8090   33.6670   47.7500 C   0  0  0  0  0  0  0  0  0  0  0  0
   60.6030   34.5670   48.0960 C   0  0  0  0  0  0  0  0  0  0  0  0
   59.6400   35.1820   47.0960 C   0  0  0  0  0  0  0  0  0  0  0  0
   57.4047   30.9904   43.1729 H   0  0  0  0  0  0  0  0  0  0  0  0
   57.1045   29.6548   42.0098 H   0  0  0  0  0  0  0  0  0  0  0  0
   56.0403   31.1020   42.0098 H   0  0  0  0  0  0  0  0  0  0  0  0
   54.8494   30.4006   43.8117 H   0  0  0  0  0  0  0  0  0  0  0  0
   55.4289   28.7776   43.2255 H   0  0  0  0  0  0  0  0  0  0  0  0
   55.4530   27.1809   45.7755 H   0  0  0  0  0  0  0  0  0  0  0  0
   56.9041   25.2732   46.3315 H   0  0  0  0  0  0  0  0  0  0  0  0
   59.3782   25.3916   46.0827 H   0  0  0  0  0  0  0  0  0  0  0  0
   60.3512   27.5262   45.2422 H   0  0  0  0  0  0  0  0  0  0  0  0
   60.0686   29.6985   44.0770 H   0  0  0  0  0  0  0  0  0  0  0  0
   58.5132   30.3569   43.7517 H   0  0  0  0  0  0  0  0  0  0  0  0
   56.9800   31.2590   44.9230 H   0  0  0  0  0  0  0  0  0  0  0  0
   56.0294   33.4325   44.9791 H   0  0  0  0  0  0  0  0  0  0  0  0
   60.7902   31.8724   47.9899 H   0  0  0  0  0  0  0  0  0  0  0  0
   61.4898   31.7747   46.3924 H   0  0  0  0  0  0  0  0  0  0  0  0
   62.7945   33.6683   48.8499 H   0  0  0  0  0  0  0  0  0  0  0  0
   63.2490   32.7252   47.3902 H   0  0  0  0  0  0  0  0  0  0  0  0
   63.4115   34.5141   47.3902 H   0  0  0  0  0  0  0  0  0  0  0  0
   60.0729   33.9299   48.8192 H   0  0  0  0  0  0  0  0  0  0  0  0
   61.1373   35.3100   48.7064 H   0  0  0  0  0  0  0  0  0  0  0  0
   58.9082   35.8317   47.5984 H   0  0  0  0  0  0  0  0  0  0  0  0
   60.1349   35.8230   46.3516 H   0  0  0  0  0  0  0  0  0  0  0  0
  1  2  1  0
  2  3  1  0
  3  4  1  0
  4  5  2  0
  5  6  1  0
  6  7  2  0
  7  8  1  0
  8  9  2  0
  9 10  1  0
 10 11  1  0
 11 12  2  0
 12 13  1  0
 13 14  1  0
 14 15  2  0
 15 16  1  0
 16 17  2  0
 17 18  1  0
 18 19  1  0
 19 20  1  0
 19 21  1  0
 21 22  1  0
  9  4  1  0
 17 12  1  0
 22 16  1  0
  1 23  1  0
  1 24  1  0
  1 25  1  0
  2 26  1  0
  2 27  1  0
  5 28  1  0
  6 29  1  0
  7 30  1  0
  8 31  1  0
 10 32  1  0
 10 33  1  0
 13 34  1  0
 14 35  1  0
 18 36  1  0
 18 37  1  0
 20 38  1  0
 20 39  1  0
 20 40  1  0
 21 41  1  0
 21 42  1  0
 22 43  1  0
 22 44  1  0
M  END
>  <smiles>  (3) 
CCOc1ccccc1CN=c1[nH]cnc2c1CN(C)CC2

>  <score_type>  (3) 
oracle

>  <origin>  (3) 
adg

>  <m_score__min__energy>  (3) 
-7.3200000000000003

>  <m_primary>  (3) 
energy

$$$$
3:0
     RDKit          3D

 25 26  0  0  0  0  0  0  0  0999 V2000
   61.5340   33.8030   48.0170 C   0  0  0  0  0  0  0  0  0  0  0  0
   60.3520   34.0290   48.9540 C   0  0  0  0  0  0  0  0  0  0  0  0
   59.1790   34.3720   48.2160 O   0  0  0  0  0  0  0  0  0  0  0  0
   58.8690   33.9270   46.9200 C   0  0  0  0  0  0  0  0  0  0  0  0
   59.2360   34.6380   45.7590 C   0  0  0  0  0  0  0  0  0  0  0  0
   58.8940   34.1500   44.4950 C   0  0  0  0  0  0  0  0  0  0  0  0
   58.1890   32.9460   44.3730 C   0  0  0  0  0  0  0  0  0  0  0  0
   57.8250   32.2320   45.5230 C   0  0  0  0  0  0  0  0  0  0  0  0
   58.1560   32.7280   46.7890 C   0  0  0  0  0  0  0  0  0  0  0  0
   57.1080   31.0360   45.4060 O   0  0  0  0  0  0  0  0  0  0  0  0
   57.0150   30.3000   44.1830 C   0  0  0  0  0  0  0  0  0  0  0  0
   57.1110   31.2010   42.9840 C   0  0  0  0  0  0  0  0  0  0  0  0
   56.6560   30.8220   41.8730 O   0  0  0  0  0  0  0  0  0  0  0  0
   57.7890   32.4560   43.0900 N   0  0  0  0  0  0  0  0  0  0  0  0
   62.4440   33.6290   48.6100 H   0  0  0  0  0  0  0  0  0  0  0  0
   61.3366   32.9263   47.3826 H   0  0  0  0  0  0  0  0  0  0  0  0
   61.6739   34.6907   47.3826 H   0  0  0  0  0  0  0  0  0  0  0  0
   60.1627   33.1078   49.5245 H   0  0  0  0  0  0  0  0  0  0  0  0
   60.5952   34.8578   49.6351 H   0  0  0  0  0  0  0  0  0  0  0  0
   59.7943   35.5815   45.8487 H   0  0  0  0  0  0  0  0  0  0  0  0
   59.1791   34.7127   43.5939 H   0  0  0  0  0  0  0  0  0  0  0  0
   57.8539   32.1720   47.6888 H   0  0  0  0  0  0  0  0  0  0  0  0
   57.8343   29.5670   44.1447 H   0  0  0  0  0  0  0  0  0  0  0  0
   56.0363   29.7985   44.1579 H   0  0  0  0  0  0  0  0  0  0  0  0
   57.9640   33.0230   42.2290 H   0  0  0  0  0  0  0  0  0  0  0  0
  1  2  1  0
  2  3  1  0
  3  4  1  0
  4  5  2  0
  5  6  1  0
  6  7  2  0
  7  8  1  0
  8  9  2  0
  8 10  1  0
 10 11  1  0
 11 12  1  0
 12 13  2  0
 12 14  1  0
  9  4  1  0
 14  7  1  0
  1 15  1  0
  1 16  1  0
  1 17  1  0
  2 18  1  0
  2 19  1  0
  5 20  1  0
  6 21  1  0
  9 22  1  0
 11 23  1  0
 11 24  1  0
 14 25  1  0
M  END
>  <UniqueID>  (4) 
3

>  <SMILES>  (4) 
CCOc1ccc2c(c1)OCC(=O)N2

>  <Energy>  (4) 
24.2117126834141

>  <Genealogy>  (4) 
CCOc1ccc2c(c1)OCC(=O)N2 (3D coordinates assigned)
CCOc1ccc2c(c1)OCC(=O)N2 (nonaromatic ring conformer: 24.2117126834141 kcal/mol)

>  <smiles>  (4) 
CCOc1ccc2c(c1)OCC(=O)N2

>  <score_type>  (4) 
oracle

>  <origin>  (4) 
adg

>  <m_score__min__energy>  (4) 
-5.1600000000000001

>  <m_primary>  (4) 
energy

$$$$
4:0
     RDKit          3D

 55 56  0  0  0  0  0  0  0  0999 V2000
   60.5760   29.7140   47.9700 C   0  0  0  0  0  0  0  0  0  0  0  0
   60.7630   30.0680   46.6940 C   0  0  0  0  0  0  0  0  0  0  0  0
   59.7750   29.7020   45.6200 C   0  0  0  0  0  0  0  0  0  0  0  0
   58.3420   29.5430   46.1570 C   0  0  0  0  0  0  0  0  0  0  0  0
   57.2880   29.3940   45.0390 C   0  0  0  0  0  0  0  0  0  0  0  0
   57.5900   30.2910   43.8310 C   0  0  0  0  0  0  0  0  0  0  0  0
   57.4540   31.7000   44.2100 C   0  0  0  0  0  0  0  0  0  0  0  0
   57.3940   32.8610   44.5320 C   0  0  0  0  0  0  0  0  0  0  0  0
   57.3930   34.2850   44.8860 C   0  0  0  0  0  0  0  0  0  0  0  0
   57.8590   34.4580   46.2240 O   0  0  0  0  0  0  0  0  0  0  0  0
   59.0910   33.9920   46.7170 C   0  0  0  0  0  0  0  0  0  0  0  0
   60.2250   34.1200   45.9060 C   0  0  0  0  0  0  0  0  0  0  0  0
   61.4840   33.7410   46.3800 C   0  0  0  0  0  0  0  0  0  0  0  0
   61.6220   33.2190   47.6720 C   0  0  0  0  0  0  0  0  0  0  0  0
   63.2250   32.8400   48.2970 S   0  0  0  0  0  0  0  0  0  0  0  0
   63.7580   31.6150   47.6050 O   0  0  0  0  0  0  0  0  0  0  0  0
   64.1390   33.9900   47.9800 O   0  0  0  0  0  0  0  0  0  0  0  0
   63.1860   32.6010   50.0360 N   0  0  0  0  0  0  0  0  0  0  0  0
   63.5600   33.8380   50.7660 C   0  0  0  0  0  0  0  0  0  0  0  0
   65.0470   33.8810   51.1780 C   0  0  0  0  0  0  0  0  0  0  0  0
   65.8580   33.0930   50.2380 N   0  0  0  0  0  0  0  0  0  0  0  0
   67.2920   33.2840   50.5020 C   0  0  0  0  0  0  0  0  0  0  0  0
   65.5060   31.6600   50.3100 C   0  0  0  0  0  0  0  0  0  0  0  0
   63.9870   31.4360   50.4680 C   0  0  0  0  0  0  0  0  0  0  0  0
   60.4860   33.0510   48.4750 C   0  0  0  0  0  0  0  0  0  0  0  0
   59.2280   33.4250   48.0000 C   0  0  0  0  0  0  0  0  0  0  0  0
   61.3162   29.9962   48.7332 H   0  0  0  0  0  0  0  0  0  0  0  0
   59.6820   29.1406   48.2564 H   0  0  0  0  0  0  0  0  0  0  0  0
   61.6618   30.6412   46.4228 H   0  0  0  0  0  0  0  0  0  0  0  0
   59.7780   30.4928   44.8554 H   0  0  0  0  0  0  0  0  0  0  0  0
   60.0824   28.7311   45.2042 H   0  0  0  0  0  0  0  0  0  0  0  0
   58.3047   28.6474   46.7946 H   0  0  0  0  0  0  0  0  0  0  0  0
   58.0986   30.4582   46.7166 H   0  0  0  0  0  0  0  0  0  0  0  0
   57.2713   28.3458   44.7059 H   0  0  0  0  0  0  0  0  0  0  0  0
   56.3150   29.7001   45.4507 H   0  0  0  0  0  0  0  0  0  0  0  0
   58.6174   30.1037   43.4854 H   0  0  0  0  0  0  0  0  0  0  0  0
   56.8788   30.0628   43.0235 H   0  0  0  0  0  0  0  0  0  0  0  0
   58.0537   34.8317   44.1971 H   0  0  0  0  0  0  0  0  0  0  0  0
   56.3672   34.6745   44.8088 H   0  0  0  0  0  0  0  0  0  0  0  0
   60.1243   34.5222   44.8872 H   0  0  0  0  0  0  0  0  0  0  0  0
   62.3689   33.8531   45.7363 H   0  0  0  0  0  0  0  0  0  0  0  0
   62.1880   32.3860   50.2690 H   0  0  0  0  0  0  0  0  0  0  0  0
   63.3528   34.7018   50.1172 H   0  0  0  0  0  0  0  0  0  0  0  0
   62.9659   33.8610   51.6915 H   0  0  0  0  0  0  0  0  0  0  0  0
   65.3955   34.9243   51.1723 H   0  0  0  0  0  0  0  0  0  0  0  0
   65.1521   33.4552   52.1868 H   0  0  0  0  0  0  0  0  0  0  0  0
   67.4650   33.3070   51.5881 H   0  0  0  0  0  0  0  0  0  0  0  0
   67.8604   32.4536   50.0577 H   0  0  0  0  0  0  0  0  0  0  0  0
   67.6232   34.2342   50.0577 H   0  0  0  0  0  0  0  0  0  0  0  0
   65.8419   31.1666   49.3860 H   0  0  0  0  0  0  0  0  0  0  0  0
   66.0021   31.2362   51.1956 H   0  0  0  0  0  0  0  0  0  0  0  0
   63.6956   30.5655   49.8620 H   0  0  0  0  0  0  0  0  0  0  0  0
   63.7863   31.2756   51.5376 H   0  0  0  0  0  0  0  0  0  0  0  0
   60.5860   32.6228   49.4833 H   0  0  0  0  0  0  0  0  0  0  0  0
   58.3388   33.2764   48.6303 H   0  0  0  0  0  0  0  0  0  0  0  0
  1  2  2  0
  2  3  1  0
  3  4  1  0
  4  5  1  0
  5  6  1  0
  6  7  1  0
  7  8  3  0
  8  9  1  0
  9 10  1  0
 10 11  1  0
 11 12  2  0
 12 13  1  0
 13 14  2  0
 14 15  1  0
 15 16  2  0
 15 17  2  0
 15 18  1  0
 18 19  1  0
 19 20  1  0
 20 21  1  0
 21 22  1  0
 21 23  1  0
 23 24  1  0
 14 25  1  0
 25 26  2  0
 26 11  1  0
 24 18  1  0
  1 27  1  0
  1 28  1  0
  2 29  1  0
  3 30  1  0
  3 31  1  0
  4 32  1  0
  4 33  1  0
  5 34  1  0
  5 35  1  0
  6 36  1  0
  6 37  1  0
  9 38  1  0
  9 39  1  0
 12 40  1  0
 13 41  1  0
 18 42  1  0
 19 43  1  0
 19 44  1  0
 20 45  1  0
 20 46  1  0
 22 47  1  0
 22 48  1  0
 22 49  1  0
 23 50  1  0
 23 51  1  0
 24 52  1  0
 24 53  1  0
 25 54  1  0
 26 55  1  0
M  CHG  1  18   1
M  END
>  <UniqueID>  (5) 
4

>  <SMILES>  (5) 
C=CCCCCC#CCOc1ccc(S(=O)(=O)[NH+]2CCN(C)CC2)cc1

>  <Energy>  (5) 
48.98193385629093

>  <Genealogy>  (5) 
C=CCCCCC#CCOc1ccc(S(=O)(=O)[NH+]2CCN(C)CC2)cc1 (protonated)
C=CCCCCC#CCOc1ccc(S(=O)(=O)[NH+]2CCN(C)CC2)cc1 (3D coordinates assigned)
C=CCCCCC#CCOc1ccc(S(=O)(=O)[NH+]2CCN(C)CC2)cc1 (nonaromatic ring conformer: 48.98193385629093 kcal/mol)

>  <smiles>  (5) 
C=CCCCCC#CCOc1ccc(S(=O)(=O)N2CCN(C)CC2)cc1

>  <score_type>  (5) 
oracle

>  <origin>  (5) 
adg

>  <m_score__min__energy>  (5) 
-6.29

>  <m_primary>  (5) 
energy

$$$$
5:0
     RDKit          3D

 51 53  0  0  0  0  0  0  0  0999 V2000
   62.1480   25.7310   51.6490 C   0  0  0  0  0  0  0  0  0  0  0  0
   61.1160   26.5790   50.9150 C   0  0  0  0  0  0  0  0  0  0  0  0
   61.5800   27.9680   50.8320 N   0  0  0  0  0  0  0  0  0  0  0  0
   60.5750   28.9090   51.3480 C   0  0  0  0  0  0  0  0  0  0  0  0
   60.1940   29.9520   50.2900 C   0  0  0  0  0  0  0  0  0  0  0  0
   60.9160   29.7330   49.0340 N   0  0  0  0  0  0  0  0  0  0  0  0
   60.7610   30.6170   47.9130 C   0  0  0  0  0  0  0  0  0  0  0  0
   61.6430   31.7020   47.7720 C   0  0  0  0  0  0  0  0  0  0  0  0
   62.8570   31.7530   48.4920 C   0  0  0  0  0  0  0  0  0  0  0  0
   63.7390   32.8170   48.3250 C   0  0  0  0  0  0  0  0  0  0  0  0
   63.4340   33.8400   47.4340 C   0  0  0  0  0  0  0  0  0  0  0  0
   62.2310   33.8200   46.7290 C   0  0  0  0  0  0  0  0  0  0  0  0
   61.2950   32.7700   46.9110 C   0  0  0  0  0  0  0  0  0  0  0  0
   60.0640   32.7770   46.2910 N   0  0  0  0  0  0  0  0  0  0  0  0
   59.5390   34.0340   45.7110 C   0  0  0  0  0  0  0  0  0  0  0  0
   59.3150   31.6140   46.2300 C   0  0  0  0  0  0  0  0  0  0  0  0
   58.1990   31.5080   45.3680 C   0  0  0  0  0  0  0  0  0  0  0  0
   57.4170   30.3460   45.3040 C   0  0  0  0  0  0  0  0  0  0  0  0
   56.2800   30.2900   44.4800 O   0  0  0  0  0  0  0  0  0  0  0  0
   56.2610   29.8460   43.1270 C   0  0  0  0  0  0  0  0  0  0  0  0
   57.7960   29.2160   46.0570 C   0  0  0  0  0  0  0  0  0  0  0  0
   57.0950   27.9930   46.0220 O   0  0  0  0  0  0  0  0  0  0  0  0
   57.3160   26.9020   45.1350 C   0  0  0  0  0  0  0  0  0  0  0  0
   58.9380   29.2750   46.8730 C   0  0  0  0  0  0  0  0  0  0  0  0
   59.5530   27.5790   47.5740 Br  0  0  0  0  0  0  0  0  0  0  0  0
   59.6690   30.4890   47.0230 C   0  0  0  0  0  0  0  0  0  0  0  0
   62.0104   25.8441   52.7345 H   0  0  0  0  0  0  0  0  0  0  0  0
   62.0190   24.6745   51.3711 H   0  0  0  0  0  0  0  0  0  0  0  0
   63.1594   26.0624   51.3711 H   0  0  0  0  0  0  0  0  0  0  0  0
   60.9723   26.1810   49.8996 H   0  0  0  0  0  0  0  0  0  0  0  0
   60.1637   26.5472   51.4647 H   0  0  0  0  0  0  0  0  0  0  0  0
   62.4320   28.0540   51.4360 H   0  0  0  0  0  0  0  0  0  0  0  0
   59.6746   28.3480   51.6388 H   0  0  0  0  0  0  0  0  0  0  0  0
   61.0031   29.4337   52.2148 H   0  0  0  0  0  0  0  0  0  0  0  0
   59.1131   29.8864   50.0968 H   0  0  0  0  0  0  0  0  0  0  0  0
   60.4642   30.9468   50.6739 H   0  0  0  0  0  0  0  0  0  0  0  0
   61.6250   28.9660   48.9870 H   0  0  0  0  0  0  0  0  0  0  0  0
   63.1083   30.9430   49.1925 H   0  0  0  0  0  0  0  0  0  0  0  0
   64.6774   32.8485   48.8980 H   0  0  0  0  0  0  0  0  0  0  0  0
   64.1435   34.6672   47.2849 H   0  0  0  0  0  0  0  0  0  0  0  0
   62.0045   34.6308   46.0210 H   0  0  0  0  0  0  0  0  0  0  0  0
   59.2524   34.7202   46.5216 H   0  0  0  0  0  0  0  0  0  0  0  0
   60.3160   34.5040   45.0903 H   0  0  0  0  0  0  0  0  0  0  0  0
   58.6585   33.8117   45.0903 H   0  0  0  0  0  0  0  0  0  0  0  0
   57.9364   32.3633   44.7281 H   0  0  0  0  0  0  0  0  0  0  0  0
   56.2140   28.7473   43.1023 H   0  0  0  0  0  0  0  0  0  0  0  0
   55.3798   30.2623   42.6168 H   0  0  0  0  0  0  0  0  0  0  0  0
   57.1745   30.1855   42.6168 H   0  0  0  0  0  0  0  0  0  0  0  0
   57.5012   25.9875   45.7176 H   0  0  0  0  0  0  0  0  0  0  0  0
   56.4285   26.7593   44.5010 H   0  0  0  0  0  0  0  0  0  0  0  0
   58.1890   27.1160   44.5010 H   0  0  0  0  0  0  0  0  0  0  0  0
  1  2  1  0
  2  3  1  0
  3  4  1  0
  4  5  1  0
  5  6  1  0
  6  7  1  0
  7  8  2  0
  8  9  1  0
  9 10  2  0
 10 11  1  0
 11 12  2  0
 12 13  1  0
 13 14  2  0
 14 15  1  0
 14 16  1  0
 16 17  2  0
 17 18  1  0
 18 19  1  0
 19 20  1  0
 18 21  2  0
 21 22  1  0
 22 23  1  0
 21 24  1  0
 24 25  1  0
 24 26  2  0
 26  7  1  0
 13  8  1  0
 26 16  1  0
  1 27  1  0
  1 28  1  0
  1 29  1  0
  2 30  1  0
  2 31  1  0
  3 32  1  0
  4 33  1  0
  4 34  1  0
  5 35  1  0
  5 36  1  0
  6 37  1  0
  9 38  1  0
 10 39  1  0
 11 40  1  0
 12 41  1  0
 15 42  1  0
 15 43  1  0
 15 44  1  0
 17 45  1  0
 20 46  1  0
 20 47  1  0
 20 48  1  0
 23 49  1  0
 23 50  1  0
 23 51  1  0
M  CHG  1  14   1
M  END
>  <UniqueID>  (6) 
5

>  <SMILES>  (6) 
CCNCCNc1c2ccccc2[n+](C)c2cc(OC)c(OC)c(Br)c12

>  <Energy>  (6) 
84.38295477733172

>  <Genealogy>  (6) 
CCNCCNc1c2ccccc2[n+](C)c2cc(OC)c(OC)c(Br)c12 (3D coordinates assigned)
CCNCCNc1c2ccccc2[n+](C)c2cc(OC)c(OC)c(Br)c12 (optimized conformer: 84.38295477733172 kcal/mol)

>  <smiles>  (6) 
CCNCCNc1c2ccccc2[n+](C)c2cc(OC)c(OC)c(Br)c12

>  <score_type>  (6) 
oracle

>  <origin>  (6) 
adg

>  <m_score__min__energy>  (6) 
-5.5

>  <m_primary>  (6) 
energy

$$$$
6:0
     RDKit          3D

 45 47  0  0  0  0  0  0  0  0999 V2000
   56.9905   29.9826   42.3220 H   0  0  0  0  0  0  0  0  0  0  0  0
   57.2850   30.7490   43.0540 C   0  0  0  0  0  0  0  0  0  0  0  0
   57.5590   32.0550   42.5750 C   0  0  0  0  0  0  0  0  0  0  0  0
   57.4300   32.3110   41.1050 C   0  0  0  0  0  0  0  0  0  0  0  0
   56.9404   33.2827   40.9436 H   0  0  0  0  0  0  0  0  0  0  0  0
   58.4295   32.3233   40.6459 H   0  0  0  0  0  0  0  0  0  0  0  0
   56.8254   31.5150   40.6459 H   0  0  0  0  0  0  0  0  0  0  0  0
   57.9170   33.1040   43.3800 N   0  0  0  0  0  0  0  0  0  0  0  0
   58.0640   33.0620   44.7250 C   0  0  0  0  0  0  0  0  0  0  0  0
   58.4050   34.1390   45.3680 N   0  0  0  0  0  0  0  0  0  0  0  0
   58.5420   34.2430   46.8220 C   0  0  0  0  0  0  0  0  0  0  0  0
   57.8212   34.9883   47.1894 H   0  0  0  0  0  0  0  0  0  0  0  0
   58.3512   33.2445   47.2423 H   0  0  0  0  0  0  0  0  0  0  0  0
   59.9560   34.6670   47.2660 C   0  0  0  0  0  0  0  0  0  0  0  0
   59.7059   35.7381   47.2550 H   0  0  0  0  0  0  0  0  0  0  0  0
   61.1250   33.8300   46.7670 C   0  0  0  0  0  0  0  0  0  0  0  0
   60.9452   32.9832   46.0884 H   0  0  0  0  0  0  0  0  0  0  0  0
   62.0704   34.0454   46.2475 H   0  0  0  0  0  0  0  0  0  0  0  0
   60.6920   33.7430   48.2260 C   0  0  0  0  0  0  0  0  0  0  0  0
   60.1996   32.8334   48.6004 H   0  0  0  0  0  0  0  0  0  0  0  0
   61.1952   33.8696   49.1959 H   0  0  0  0  0  0  0  0  0  0  0  0
   57.7870   31.5830   45.5070 S   0  0  0  0  0  0  0  0  0  0  0  0
   57.3660   30.3730   44.4030 C   0  0  0  0  0  0  0  0  0  0  0  0
   57.0790   29.0050   44.8900 C   0  0  0  0  0  0  0  0  0  0  0  0
   55.8950   28.7180   45.2160 O   0  0  0  0  0  0  0  0  0  0  0  0
   58.1130   28.0060   44.9940 N   0  0  0  0  0  0  0  0  0  0  0  0
   59.0510   28.1940   44.5820 H   0  0  0  0  0  0  0  0  0  0  0  0
   57.9130   26.7090   45.5810 C   0  0  0  0  0  0  0  0  0  0  0  0
   57.7950   25.5890   44.7480 C   0  0  0  0  0  0  0  0  0  0  0  0
   57.8372   25.7137   43.6559 H   0  0  0  0  0  0  0  0  0  0  0  0
   57.6240   24.3140   45.2950 C   0  0  0  0  0  0  0  0  0  0  0  0
   57.5207   23.4448   44.6289 H   0  0  0  0  0  0  0  0  0  0  0  0
   57.5830   24.1330   46.6820 C   0  0  0  0  0  0  0  0  0  0  0  0
   57.4080   22.8280   47.1730 O   0  0  0  0  0  0  0  0  0  0  0  0
   56.2530   22.3500   47.8650 C   0  0  0  0  0  0  0  0  0  0  0  0
   56.3387   22.6082   48.9308 H   0  0  0  0  0  0  0  0  0  0  0  0
   56.1929   21.2589   47.7389 H   0  0  0  0  0  0  0  0  0  0  0  0
   54.9840   22.9780   47.2990 C   0  0  0  0  0  0  0  0  0  0  0  0
   54.3338   23.2998   48.1259 H   0  0  0  0  0  0  0  0  0  0  0  0
   55.2497   23.8486   46.6814 H   0  0  0  0  0  0  0  0  0  0  0  0
   54.4530   22.2387   46.6814 H   0  0  0  0  0  0  0  0  0  0  0  0
   57.7310   25.2530   47.5220 C   0  0  0  0  0  0  0  0  0  0  0  0
   57.7128   25.1239   48.6142 H   0  0  0  0  0  0  0  0  0  0  0  0
   57.9010   26.5290   46.9750 C   0  0  0  0  0  0  0  0  0  0  0  0
   58.0260   27.3966   47.6395 H   0  0  0  0  0  0  0  0  0  0  0  0
  1  2  1  0
  2  3  1  0
  3  4  1  0
  4  5  1  0
  4  6  1  0
  4  7  1  0
  3  8  2  0
  8  9  1  0
  9 10  2  0
 10 11  1  0
 11 12  1  0
 11 13  1  0
 11 14  1  0
 14 15  1  0
 14 16  1  0
 16 17  1  0
 16 18  1  0
 16 19  1  0
 19 20  1  0
 19 21  1  0
  9 22  1  0
 22 23  1  0
 23 24  1  0
 24 25  2  0
 24 26  1  0
 26 27  1  0
 26 28  1  0
 28 29  2  0
 29 30  1  0
 29 31  1  0
 31 32  1  0
 31 33  2  0
 33 34  1  0
 34 35  1  0
 35 36  1  0
 35 37  1  0
 35 38  1  0
 38 39  1  0
 38 40  1  0
 38 41  1  0
 33 42  1  0
 42 43  1  0
 42 44  2  0
 44 45  1  0
 23  2  2  0
 44 28  1  0
 19 14  1  0
M  END
>  <UniqueID>  (7) 
6

>  <SMILES>  (7) 
CCOc1ccc(NC(=O)c2cc(C)n/c(=N/CC3CC3)s2)cc1

>  <Energy>  (7) 
317.91441810372936

>  <Genealogy>  (7) 
CCOc1ccc(NC(=O)c2cc(C)n/c(=N/CC3CC3)s2)cc1 (cis-trans isomerization)
CCOc1ccc(NC(=O)c2cc(C)n/c(=N/CC3CC3)s2)cc1 (3D coordinates assigned)
CCOc1ccc(NC(=O)c2cc(C)n/c(=N/CC3CC3)s2)cc1 (nonaromatic ring conformer: 317.91441810372936 kcal/mol)

>  <smiles>  (7) 
CCOc1ccc(NC(=O)c2cc(C)nc(=NCC3CC3)s2)cc1

>  <score_type>  (7) 
oracle

>  <origin>  (7) 
adg

>  <m_score__min__energy>  (7) 
-7.3799999999999999

>  <m_primary>  (7) 
energy

$$$$
7:0
     RDKit          3D

 53 55  0  0  0  0  0  0  0  0999 V2000
   60.4300   34.6720   46.6370 C   0  0  0  0  0  0  0  0  0  0  0  0
   58.9670   34.7430   46.2140 C   0  0  0  0  0  0  0  0  0  0  0  0
   58.1990   33.8080   46.9480 O   0  0  0  0  0  0  0  0  0  0  0  0
   57.5120   32.9330   46.0750 C   0  0  0  0  0  0  0  0  0  0  0  0
   58.5230   32.1440   45.2430 C   0  0  0  0  0  0  0  0  0  0  0  0
   58.6800   30.7700   45.7670 N   0  0  0  0  0  0  0  0  0  0  0  0
   59.8330   30.3930   46.4380 C   0  0  0  0  0  0  0  0  0  0  0  0
   61.1810   31.5460   46.7440 S   0  0  0  0  0  0  0  0  0  0  0  0
   61.2440   31.1860   48.5290 C   0  0  0  0  0  0  0  0  0  0  0  0
   60.9260   32.4400   49.2950 C   0  0  0  0  0  0  0  0  0  0  0  0
   61.8490   33.0670   49.7940 O   0  0  0  0  0  0  0  0  0  0  0  0
   59.5530   32.9060   49.4220 N   0  0  0  0  0  0  0  0  0  0  0  0
   59.2740   33.4880   50.7510 C   0  0  0  0  0  0  0  0  0  0  0  0
   59.1140   32.4370   51.8610 C   0  0  0  0  0  0  0  0  0  0  0  0
   58.2020   31.3630   51.4420 N   0  0  0  0  0  0  0  0  0  0  0  0
   57.3980   30.6510   52.4130 C   0  0  0  0  0  0  0  0  0  0  0  0
   57.4260   30.9960   53.8730 C   0  0  0  0  0  0  0  0  0  0  0  0
   56.6320   29.7210   52.0380 O   0  0  0  0  0  0  0  0  0  0  0  0
   58.4090   30.7750   50.1120 C   0  0  0  0  0  0  0  0  0  0  0  0
   58.5690   31.8680   49.0480 C   0  0  0  0  0  0  0  0  0  0  0  0
   59.9870   29.1140   46.8900 N   0  0  0  0  0  0  0  0  0  0  0  0
   59.0110   28.2020   46.6860 C   0  0  0  0  0  0  0  0  0  0  0  0
   59.0550   26.8690   47.0990 C   0  0  0  0  0  0  0  0  0  0  0  0
   57.9050   26.1660   46.7410 C   0  0  0  0  0  0  0  0  0  0  0  0
   56.8540   27.2080   45.9160 S   0  0  0  0  0  0  0  0  0  0  0  0
   57.8640   28.5470   46.0200 C   0  0  0  0  0  0  0  0  0  0  0  0
   57.6880   29.8400   45.5480 C   0  0  0  0  0  0  0  0  0  0  0  0
   56.6300   30.1400   44.9260 O   0  0  0  0  0  0  0  0  0  0  0  0
   60.4944   34.6689   47.7351 H   0  0  0  0  0  0  0  0  0  0  0  0
   60.8820   33.7509   46.2405 H   0  0  0  0  0  0  0  0  0  0  0  0
   60.9691   35.5450   46.2405 H   0  0  0  0  0  0  0  0  0  0  0  0
   58.5831   35.7564   46.4030 H   0  0  0  0  0  0  0  0  0  0  0  0
   58.8918   34.5061   45.1424 H   0  0  0  0  0  0  0  0  0  0  0  0
   56.8980   32.2355   46.6637 H   0  0  0  0  0  0  0  0  0  0  0  0
   56.8639   33.5178   45.4057 H   0  0  0  0  0  0  0  0  0  0  0  0
   58.1719   32.0944   44.2017 H   0  0  0  0  0  0  0  0  0  0  0  0
   59.4962   32.6538   45.2965 H   0  0  0  0  0  0  0  0  0  0  0  0
   60.5064   30.4076   48.7741 H   0  0  0  0  0  0  0  0  0  0  0  0
   62.2491   30.8307   48.8003 H   0  0  0  0  0  0  0  0  0  0  0  0
   59.4200   33.6870   48.7370 H   0  0  0  0  0  0  0  0  0  0  0  0
   60.1064   34.1547   51.0205 H   0  0  0  0  0  0  0  0  0  0  0  0
   58.3168   34.0245   50.6740 H   0  0  0  0  0  0  0  0  0  0  0  0
   60.0986   32.0036   52.0907 H   0  0  0  0  0  0  0  0  0  0  0  0
   58.6921   32.9280   52.7503 H   0  0  0  0  0  0  0  0  0  0  0  0
   57.3512   30.0745   54.4690 H   0  0  0  0  0  0  0  0  0  0  0  0
   58.3689   31.5106   54.1102 H   0  0  0  0  0  0  0  0  0  0  0  0
   56.5785   31.6559   54.1102 H   0  0  0  0  0  0  0  0  0  0  0  0
   59.3172   30.1546   50.1301 H   0  0  0  0  0  0  0  0  0  0  0  0
   57.5305   30.1638   49.8579 H   0  0  0  0  0  0  0  0  0  0  0  0
   58.8974   31.3970   48.1097 H   0  0  0  0  0  0  0  0  0  0  0  0
   57.5938   32.3656   48.9417 H   0  0  0  0  0  0  0  0  0  0  0  0
   59.9003   26.4241   47.6445 H   0  0  0  0  0  0  0  0  0  0  0  0
   57.7113   25.1054   46.9592 H   0  0  0  0  0  0  0  0  0  0  0  0
  1  2  1  0
  2  3  1  0
  3  4  1  0
  4  5  1  0
  5  6  1  0
  6  7  1  0
  7  8  1  0
  8  9  1  0
  9 10  1  0
 10 11  2  0
 10 12  1  0
 12 13  1  0
 13 14  1  0
 14 15  1  0
 15 16  1  0
 16 17  1  0
 16 18  2  0
 15 19  1  0
 19 20  1  0
  7 21  2  0
 21 22  1  0
 22 23  1  0
 23 24  2  0
 24 25  1  0
 25 26  1  0
 26 27  1  0
 27 28  2  0
 27  6  1  0
 20 12  1  0
 26 22  2  0
  1 29  1  0
  1 30  1  0
  1 31  1  0
  2 32  1  0
  2 33  1  0
  4 34  1  0
  4 35  1  0
  5 36  1  0
  5 37  1  0
  9 38  1  0
  9 39  1  0
 12 40  1  0
 13 41  1  0
 13 42  1  0
 14 43  1  0
 14 44  1  0
 17 45  1  0
 17 46  1  0
 17 47  1  0
 19 48  1  0
 19 49  1  0
 20 50  1  0
 20 51  1  0
 23 52  1  0
 24 53  1  0
M  CHG  1  12   1
M  END
>  <UniqueID>  (8) 
7

>  <SMILES>  (8) 
CCOCCn1c(SCC(=O)[NH+]2CCN(C(C)=O)CC2)nc2ccsc2c1=O

>  <Energy>  (8) 
86.65889968305476

>  <Genealogy>  (8) 
CCOCCn1c(SCC(=O)[NH+]2CCN(C(C)=O)CC2)nc2ccsc2c1=O (protonated)
CCOCCn1c(SCC(=O)[NH+]2CCN(C(C)=O)CC2)nc2ccsc2c1=O (3D coordinates assigned)
CCOCCn1c(SCC(=O)[NH+]2CCN(C(C)=O)CC2)nc2ccsc2c1=O (nonaromatic ring conformer: 86.65889968305476 kcal/mol)

>  <smiles>  (8) 
CCOCCn1c(SCC(=O)N2CCN(C(C)=O)CC2)nc2ccsc2c1=O

>  <score_type>  (8) 
oracle

>  <origin>  (8) 
adg

>  <m_score__min__energy>  (8) 
-6.0899999999999999

>  <m_primary>  (8) 
energy

$$$$
8:0
     RDKit          3D

 48 51  0  0  0  0  0  0  0  0999 V2000
   60.6970   27.6650   49.6250 C   0  0  0  0  0  0  0  0  0  0  0  0
   60.9370   29.0400   50.0940 N   0  0  0  0  0  0  0  0  0  0  0  0
   61.9070   29.0170   51.2020 C   0  0  0  0  0  0  0  0  0  0  0  0
   59.6610   29.6670   50.5040 C   0  0  0  0  0  0  0  0  0  0  0  0
   58.8530   30.1800   49.3020 C   0  0  0  0  0  0  0  0  0  0  0  0
   59.6610   30.2240   48.0800 N   0  0  0  0  0  0  0  0  0  0  0  0
   59.1680   30.7970   46.8600 C   0  0  0  0  0  0  0  0  0  0  0  0
   59.1360   32.1950   46.6500 C   0  0  0  0  0  0  0  0  0  0  0  0
   59.4400   33.0870   47.6960 C   0  0  0  0  0  0  0  0  0  0  0  0
   59.3880   34.4640   47.4940 C   0  0  0  0  0  0  0  0  0  0  0  0
   59.0150   34.9770   46.2570 C   0  0  0  0  0  0  0  0  0  0  0  0
   58.6890   34.1190   45.2060 C   0  0  0  0  0  0  0  0  0  0  0  0
   58.7500   32.7120   45.3660 C   0  0  0  0  0  0  0  0  0  0  0  0
   58.4280   31.8480   44.3290 N   0  0  0  0  0  0  0  0  0  0  0  0
   58.1420   32.3510   42.9720 C   0  0  0  0  0  0  0  0  0  0  0  0
   58.3610   30.5070   44.5990 C   0  0  0  0  0  0  0  0  0  0  0  0
   57.9710   29.5280   43.7440 N   0  0  0  0  0  0  0  0  0  0  0  0
   58.0970   28.3810   44.4410 C   0  0  0  0  0  0  0  0  0  0  0  0
   57.8180   27.0940   43.9870 C   0  0  0  0  0  0  0  0  0  0  0  0
   58.0140   26.0220   44.8750 C   0  0  0  0  0  0  0  0  0  0  0  0
   58.4740   26.2520   46.1900 C   0  0  0  0  0  0  0  0  0  0  0  0
   58.6580   25.1720   47.0480 O   0  0  0  0  0  0  0  0  0  0  0  0
   58.7440   27.5650   46.6280 C   0  0  0  0  0  0  0  0  0  0  0  0
   58.5510   28.6120   45.7220 C   0  0  0  0  0  0  0  0  0  0  0  0
   58.7160   29.9820   45.8270 C   0  0  0  0  0  0  0  0  0  0  0  0
   60.5804   26.9972   50.4913 H   0  0  0  0  0  0  0  0  0  0  0  0
   59.7809   27.6397   49.0167 H   0  0  0  0  0  0  0  0  0  0  0  0
   61.5504   27.3309   49.0167 H   0  0  0  0  0  0  0  0  0  0  0  0
   61.3685   29.0298   52.1611 H   0  0  0  0  0  0  0  0  0  0  0  0
   62.5172   28.1041   51.1362 H   0  0  0  0  0  0  0  0  0  0  0  0
   62.5598   29.8999   51.1362 H   0  0  0  0  0  0  0  0  0  0  0  0
   59.0580   28.9223   51.0442 H   0  0  0  0  0  0  0  0  0  0  0  0
   59.8992   30.5298   51.1434 H   0  0  0  0  0  0  0  0  0  0  0  0
   57.9957   29.5106   49.1378 H   0  0  0  0  0  0  0  0  0  0  0  0
   58.5189   31.2035   49.5272 H   0  0  0  0  0  0  0  0  0  0  0  0
   60.6080   29.7860   48.0790 H   0  0  0  0  0  0  0  0  0  0  0  0
   59.7216   32.6921   48.6833 H   0  0  0  0  0  0  0  0  0  0  0  0
   59.6431   35.1484   48.3165 H   0  0  0  0  0  0  0  0  0  0  0  0
   58.9766   36.0659   46.1058 H   0  0  0  0  0  0  0  0  0  0  0  0
   58.3799   34.5411   44.2384 H   0  0  0  0  0  0  0  0  0  0  0  0
   57.5994   33.3053   43.0415 H   0  0  0  0  0  0  0  0  0  0  0  0
   59.0874   32.5053   42.4313 H   0  0  0  0  0  0  0  0  0  0  0  0
   57.5259   31.6174   42.4313 H   0  0  0  0  0  0  0  0  0  0  0  0
   57.6190   29.6070   42.7660 H   0  0  0  0  0  0  0  0  0  0  0  0
   57.4548   26.9215   42.9631 H   0  0  0  0  0  0  0  0  0  0  0  0
   57.8070   24.9942   44.5422 H   0  0  0  0  0  0  0  0  0  0  0  0
   58.0890   24.3360   46.9760 H   0  0  0  0  0  0  0  0  0  0  0  0
   59.0959   27.7595   47.6519 H   0  0  0  0  0  0  0  0  0  0  0  0
  1  2  1  0
  2  3  1  0
  2  4  1  0
  4  5  1  0
  5  6  1  0
  6  7  1  0
  7  8  2  0
  8  9  1  0
  9 10  2  0
 10 11  1  0
 11 12  2  0
 12 13  1  0
 13 14  2  0
 14 15  1  0
 14 16  1  0
 16 17  1  0
 17 18  1  0
 18 19  2  0
 19 20  1  0
 20 21  2  0
 21 22  1  0
 21 23  1  0
 23 24  2  0
 24 25  1  0
 25  7  1  0
 13  8  1  0
 25 16  2  0
 24 18  1  0
  1 26  1  0
  1 27  1  0
  1 28  1  0
  3 29  1  0
  3 30  1  0
  3 31  1  0
  4 32  1  0
  4 33  1  0
  5 34  1  0
  5 35  1  0
  6 36  1  0
  9 37  1  0
 10 38  1  0
 11 39  1  0
 12 40  1  0
 15 41  1  0
 15 42  1  0
 15 43  1  0
 17 44  1  0
 19 45  1  0
 20 46  1  0
 22 47  1  0
 23 48  1  0
M  CHG  1  14   1
M  END
>  <UniqueID>  (9) 
8

>  <SMILES>  (9) 
CN(C)CCNc1c2ccccc2[n+](C)c2[nH]c3ccc(O)cc3c12

>  <Energy>  (9) 
104.88091202059996

>  <Genealogy>  (9) 
CN(C)CCNc1c2ccccc2[n+](C)c2[nH]c3ccc(O)cc3c12 (3D coordinates assigned)
CN(C)CCNc1c2ccccc2[n+](C)c2[nH]c3ccc(O)cc3c12 (optimized conformer: 104.88091202059996 kcal/mol)

>  <smiles>  (9) 
CN(C)CCNc1c2ccccc2[n+](C)c2[nH]c3ccc(O)cc3c12

>  <score_type>  (9) 
oracle

>  <origin>  (9) 
adg

>  <m_score__min__energy>  (9) 
-5.5199999999999996

>  <m_primary>  (9) 
energy

$$$$
9:0
     RDKit          3D

 62 62  0  0  0  0  0  0  0  0999 V2000
   64.6120   32.3700   49.7660 C   0  0  0  0  0  0  0  0  0  0  0  0
   63.1200   32.0230   49.7790 C   0  0  0  0  0  0  0  0  0  0  0  0
   62.6410   31.5230   48.4770 N   0  0  0  0  0  0  0  0  0  0  0  0
   63.4010   32.0890   47.3510 C   0  0  0  0  0  0  0  0  0  0  0  0
   63.0100   33.5520   47.1230 C   0  0  0  0  0  0  0  0  0  0  0  0
   61.6800   33.6690   46.3510 C   0  0  0  0  0  0  0  0  0  0  0  0
   60.5190   33.2500   47.1550 N   0  0  0  0  0  0  0  0  0  0  0  0
   59.9610   34.3570   47.9460 C   0  0  0  0  0  0  0  0  0  0  0  0
   60.3800   34.2120   49.4110 C   0  0  0  0  0  0  0  0  0  0  0  0
   59.5330   33.1450   50.1150 C   0  0  0  0  0  0  0  0  0  0  0  0
   59.6180   31.8630   49.4000 N   0  0  0  0  0  0  0  0  0  0  0  0
   59.5750   30.7280   50.3320 C   0  0  0  0  0  0  0  0  0  0  0  0
   59.4720   29.3930   49.5740 C   0  0  0  0  0  0  0  0  0  0  0  0
   60.3850   29.3030   48.3300 C   0  0  0  0  0  0  0  0  0  0  0  0
   60.1940   30.3870   47.3540 N   0  0  0  0  0  0  0  0  0  0  0  0
   60.5410   29.9870   45.9810 C   0  0  0  0  0  0  0  0  0  0  0  0
   59.4820   29.0280   45.4170 C   0  0  0  0  0  0  0  0  0  0  0  0
   58.0460   29.5600   45.5550 C   0  0  0  0  0  0  0  0  0  0  0  0
   57.9310   31.0170   45.1840 C   0  0  0  0  0  0  0  0  0  0  0  0
   57.7810   31.9960   46.1820 C   0  0  0  0  0  0  0  0  0  0  0  0
   57.6990   33.3480   45.8350 C   0  0  0  0  0  0  0  0  0  0  0  0
   57.7750   33.7350   44.4960 C   0  0  0  0  0  0  0  0  0  0  0  0
   57.9320   32.7690   43.4960 C   0  0  0  0  0  0  0  0  0  0  0  0
   58.0120   31.4150   43.8370 C   0  0  0  0  0  0  0  0  0  0  0  0
   64.9777   32.4550   50.7999 H   0  0  0  0  0  0  0  0  0  0  0  0
   65.1683   31.5773   49.2444 H   0  0  0  0  0  0  0  0  0  0  0  0
   64.7614   33.3269   49.2444 H   0  0  0  0  0  0  0  0  0  0  0  0
   62.9456   31.2477   50.5396 H   0  0  0  0  0  0  0  0  0  0  0  0
   62.5660   32.9461   50.0048 H   0  0  0  0  0  0  0  0  0  0  0  0
   61.6270   31.7660   48.3630 H   0  0  0  0  0  0  0  0  0  0  0  0
   64.4765   32.0322   47.5749 H   0  0  0  0  0  0  0  0  0  0  0  0
   63.1726   31.5134   46.4419 H   0  0  0  0  0  0  0  0  0  0  0  0
   62.9018   34.0490   48.0983 H   0  0  0  0  0  0  0  0  0  0  0  0
   63.7992   34.0304   46.5244 H   0  0  0  0  0  0  0  0  0  0  0  0
   61.5392   34.7172   46.0487 H   0  0  0  0  0  0  0  0  0  0  0  0
   61.7407   33.0000   45.4800 H   0  0  0  0  0  0  0  0  0  0  0  0
   60.8060   32.4790   47.8020 H   0  0  0  0  0  0  0  0  0  0  0  0
   60.3367   35.3128   47.5519 H   0  0  0  0  0  0  0  0  0  0  0  0
   58.8633   34.3334   47.8788 H   0  0  0  0  0  0  0  0  0  0  0  0
   61.4394   33.9195   49.4561 H   0  0  0  0  0  0  0  0  0  0  0  0
   60.2277   35.1757   49.9190 H   0  0  0  0  0  0  0  0  0  0  0  0
   59.9014   33.0110   51.1428 H   0  0  0  0  0  0  0  0  0  0  0  0
   58.4840   33.4757   50.1272 H   0  0  0  0  0  0  0  0  0  0  0  0
   60.5440   31.8370   48.9140 H   0  0  0  0  0  0  0  0  0  0  0  0
   60.4923   30.7266   50.9391 H   0  0  0  0  0  0  0  0  0  0  0  0
   58.6875   30.8354   50.9730 H   0  0  0  0  0  0  0  0  0  0  0  0
   59.7469   28.5816   50.2640 H   0  0  0  0  0  0  0  0  0  0  0  0
   58.4357   29.3110   49.2142 H   0  0  0  0  0  0  0  0  0  0  0  0
   61.4312   29.3263   48.6691 H   0  0  0  0  0  0  0  0  0  0  0  0
   60.1208   28.3677   47.8148 H   0  0  0  0  0  0  0  0  0  0  0  0
   60.7540   31.2290   47.6320 H   0  0  0  0  0  0  0  0  0  0  0  0
   60.5935   30.8830   45.3451 H   0  0  0  0  0  0  0  0  0  0  0  0
   61.5143   29.4746   45.9946 H   0  0  0  0  0  0  0  0  0  0  0  0
   59.6926   28.8635   44.3499 H   0  0  0  0  0  0  0  0  0  0  0  0
   59.5422   28.0966   45.9992 H   0  0  0  0  0  0  0  0  0  0  0  0
   57.3884   28.9751   44.8951 H   0  0  0  0  0  0  0  0  0  0  0  0
   57.7529   29.4601   46.6105 H   0  0  0  0  0  0  0  0  0  0  0  0
   57.7280   31.6973   47.2393 H   0  0  0  0  0  0  0  0  0  0  0  0
   57.5742   34.1089   46.6195 H   0  0  0  0  0  0  0  0  0  0  0  0
   57.7115   34.7997   44.2269 H   0  0  0  0  0  0  0  0  0  0  0  0
   57.9925   33.0747   42.4411 H   0  0  0  0  0  0  0  0  0  0  0  0
   58.1388   30.6582   43.0489 H   0  0  0  0  0  0  0  0  0  0  0  0
  1  2  1  0
  2  3  1  0
  3  4  1  0
  4  5  1  0
  5  6  1  0
  6  7  1  0
  7  8  1  0
  8  9  1  0
  9 10  1  0
 10 11  1  0
 11 12  1  0
 12 13  1  0
 13 14  1  0
 14 15  1  0
 15 16  1  0
 16 17  1  0
 17 18  1  0
 18 19  1  0
 19 20  2  0
 20 21  1  0
 21 22  2  0
 22 23  1  0
 23 24  2  0
 24 19  1  0
  1 25  1  0
  1 26  1  0
  1 27  1  0
  2 28  1  0
  2 29  1  0
  3 30  1  0
  4 31  1  0
  4 32  1  0
  5 33  1  0
  5 34  1  0
  6 35  1  0
  6 36  1  0
  7 37  1  0
  8 38  1  0
  8 39  1  0
  9 40  1  0
  9 41  1  0
 10 42  1  0
 10 43  1  0
 11 44  1  0
 12 45  1  0
 12 46  1  0
 13 47  1  0
 13 48  1  0
 14 49  1  0
 14 50  1  0
 15 51  1  0
 16 52  1  0
 16 53  1  0
 17 54  1  0
 17 55  1  0
 18 56  1  0
 18 57  1  0
 20 58  1  0
 21 59  1  0
 22 60  1  0
 23 61  1  0
 24 62  1  0
M  END
>  <UniqueID>  (10) 
9

>  <SMILES>  (10) 
CCNCCCNCCCNCCCNCCCc1ccccc1

>  <Energy>  (10) 
43.15423553044376

>  <Genealogy>  (10) 
CCNCCCNCCCNCCCNCCCc1ccccc1 (3D coordinates assigned)
CCNCCCNCCCNCCCNCCCc1ccccc1 (optimized conformer: 43.15423553044376 kcal/mol)

>  <smiles>  (10) 
CCNCCCNCCCNCCCNCCCc1ccccc1

>  <score_type>  (10) 
oracle

>  <origin>  (10) 
adg

>  <m_score__min__energy>  (10) 
-4.2999999999999998

>  <m_primary>  (10) 
energy

$$$$
10:0
     RDKit          3D

 44 46  0  0  0  0  0  0  0  0999 V2000
   59.1270   28.2580   48.1130 C   0  0  0  0  0  0  0  0  0  0  0  0
   59.4250   29.1570   46.9190 C   0  0  0  0  0  0  0  0  0  0  0  0
   58.9210   30.5170   47.1670 N   0  0  0  0  0  0  0  0  0  0  0  0
   59.6150   31.1890   48.2830 C   0  0  0  0  0  0  0  0  0  0  0  0
   59.1440   32.6540   48.5090 C   0  0  2  0  0  0  0  0  0  0  0  0
   58.5670   33.2380   47.1860 C   0  0  0  0  0  0  0  0  0  0  0  0
   59.5090   33.1650   46.0350 N   0  0  0  0  0  0  0  0  0  0  0  0
   58.7970   33.1740   44.7380 C   0  0  0  0  0  0  0  0  0  0  0  0
   57.9800   31.9200   44.5750 C   0  0  0  0  0  0  0  0  0  0  0  0
   58.5690   30.7310   44.1170 C   0  0  0  0  0  0  0  0  0  0  0  0
   57.7890   29.5820   43.9620 C   0  0  0  0  0  0  0  0  0  0  0  0
   56.4280   29.6330   44.2640 C   0  0  0  0  0  0  0  0  0  0  0  0
   55.8710   30.7930   44.7050 N   0  0  0  0  0  0  0  0  0  0  0  0
   56.6080   31.9240   44.8640 C   0  0  0  0  0  0  0  0  0  0  0  0
   60.5810   34.1860   46.0400 C   0  0  0  0  0  0  0  0  0  0  0  0
   61.6980   33.8250   46.9710 C   0  0  0  0  0  0  0  0  0  0  0  0
   62.9890   33.7600   46.5820 N   0  0  0  0  0  0  0  0  0  0  0  0
   63.6520   33.4080   47.7020 C   0  0  0  0  0  0  0  0  0  0  0  0
   62.7600   33.2650   48.7400 C   0  0  0  0  0  0  0  0  0  0  0  0
   61.5260   33.5140   48.2740 N   0  0  0  0  0  0  0  0  0  0  0  0
   60.2980   33.5310   49.0820 C   0  0  0  0  0  0  0  0  0  0  0  0
   59.3110   28.8130   49.0448 H   0  0  0  0  0  0  0  0  0  0  0  0
   58.0749   27.9387   48.0780 H   0  0  0  0  0  0  0  0  0  0  0  0
   59.7800   27.3735   48.0780 H   0  0  0  0  0  0  0  0  0  0  0  0
   60.5122   29.1966   46.7567 H   0  0  0  0  0  0  0  0  0  0  0  0
   58.9264   28.7469   46.0284 H   0  0  0  0  0  0  0  0  0  0  0  0
   58.9970   31.0810   46.2910 H   0  0  0  0  0  0  0  0  0  0  0  0
   59.4298   30.6169   49.2041 H   0  0  0  0  0  0  0  0  0  0  0  0
   60.6838   31.2270   48.0257 H   0  0  0  0  0  0  0  0  0  0  0  0
   58.3396   32.6589   49.2592 H   0  0  0  0  0  0  0  0  0  0  0  0
   57.6580   32.6757   46.9262 H   0  0  0  0  0  0  0  0  0  0  0  0
   58.3655   34.3040   47.3677 H   0  0  0  0  0  0  0  0  0  0  0  0
   58.1303   34.0480   44.6973 H   0  0  0  0  0  0  0  0  0  0  0  0
   59.5378   33.2234   43.9264 H   0  0  0  0  0  0  0  0  0  0  0  0
   59.6429   30.7038   43.8805 H   0  0  0  0  0  0  0  0  0  0  0  0
   58.2439   28.6461   43.6052 H   0  0  0  0  0  0  0  0  0  0  0  0
   55.8047   28.7344   44.1454 H   0  0  0  0  0  0  0  0  0  0  0  0
   56.1261   32.8462   45.2209 H   0  0  0  0  0  0  0  0  0  0  0  0
   60.9850   34.2813   45.0213 H   0  0  0  0  0  0  0  0  0  0  0  0
   60.1443   35.1344   46.3862 H   0  0  0  0  0  0  0  0  0  0  0  0
   64.7393   33.2581   47.7748 H   0  0  0  0  0  0  0  0  0  0  0  0
   63.0147   32.9931   49.7750 H   0  0  0  0  0  0  0  0  0  0  0  0
   60.5429   33.1636   50.0895 H   0  0  0  0  0  0  0  0  0  0  0  0
   59.9350   34.5694   49.0836 H   0  0  0  0  0  0  0  0  0  0  0  0
  1  2  1  0
  2  3  1  0
  3  4  1  0
  4  5  1  0
  5  6  1  0
  6  7  1  0
  7  8  1  0
  8  9  1  0
  9 10  2  0
 10 11  1  0
 11 12  2  0
 12 13  1  0
 13 14  2  0
  7 15  1  0
 15 16  1  0
 16 17  2  0
 17 18  1  0
 18 19  2  0
 19 20  1  0
 20 21  1  0
 21  5  1  0
 14  9  1  0
 20 16  1  0
  1 22  1  0
  1 23  1  0
  1 24  1  0
  2 25  1  0
  2 26  1  0
  3 27  1  0
  4 28  1  0
  4 29  1  0
  5 30  1  1
  6 31  1  0
  6 32  1  0
  8 33  1  0
  8 34  1  0
 10 35  1  0
 11 36  1  0
 12 37  1  0
 14 38  1  0
 15 39  1  0
 15 40  1  0
 18 41  1  0
 19 42  1  0
 21 43  1  0
 21 44  1  0
M  END
>  <UniqueID>  (11) 
10

>  <SMILES>  (11) 
CCNC[C@@H]1CN(Cc2cccnc2)Cc2nccn2C1

>  <Energy>  (11) 
87.03987262059682

>  <Genealogy>  (11) 
CCNC[C@@H]1CN(Cc2cccnc2)Cc2nccn2C1 (chirality)
CCNC[C@@H]1CN(Cc2cccnc2)Cc2nccn2C1 (3D coordinates assigned)
CCNC[C@@H]1CN(Cc2cccnc2)Cc2nccn2C1 (nonaromatic ring conformer: 87.03987262059682 kcal/mol)

>  <smiles>  (11) 
CCNCC1CN(Cc2cccnc2)Cc2nccn2C1

>  <score_type>  (11) 
oracle

>  <origin>  (11) 
adg

>  <m_score__min__energy>  (11) 
-4.7999999999999998

>  <m_primary>  (11) 
energy

$$$$
11:0
     RDKit          3D

 46 47  0  0  0  0  0  0  0  0999 V2000
   63.3490   33.4900   46.8120 C   0  0  0  0  0  0  0  0  0  0  0  0
   62.9380   32.1450   47.4340 C   0  0  0  0  0  0  0  0  0  0  0  0
   62.0660   32.2190   48.6450 N   0  0  0  0  0  0  0  0  0  0  0  0
   61.6410   33.6050   48.9760 C   0  0  0  0  0  0  0  0  0  0  0  0
   60.2090   33.7300   49.5060 C   0  0  0  0  0  0  0  0  0  0  0  0
   62.5530   31.4720   49.8400 C   0  0  0  0  0  0  0  0  0  0  0  0
   61.4850   30.5400   50.4450 C   0  0  0  0  0  0  0  0  0  0  0  0
   60.2700   30.6100   49.7210 O   0  0  0  0  0  0  0  0  0  0  0  0
   59.8910   29.3300   49.2610 C   0  0  0  0  0  0  0  0  0  0  0  0
   60.4500   29.1180   47.8540 C   0  0  0  0  0  0  0  0  0  0  0  0
   60.2600   30.2840   47.0540 O   0  0  0  0  0  0  0  0  0  0  0  0
   59.0970   30.6050   46.3290 C   0  0  0  0  0  0  0  0  0  0  0  0
   58.1570   29.6310   45.9480 C   0  0  0  0  0  0  0  0  0  0  0  0
   57.0230   30.0170   45.2280 C   0  0  0  0  0  0  0  0  0  0  0  0
   56.1740   29.1530   44.8830 O   0  0  0  0  0  0  0  0  0  0  0  0
   56.8320   31.2900   44.9010 O   0  0  0  0  0  0  0  0  0  0  0  0
   57.6890   32.2500   45.2320 C   0  0  0  0  0  0  0  0  0  0  0  0
   57.4280   33.5720   44.8570 C   0  0  0  0  0  0  0  0  0  0  0  0
   58.3230   34.5900   45.2000 C   0  0  0  0  0  0  0  0  0  0  0  0
   59.4830   34.2910   45.9210 C   0  0  0  0  0  0  0  0  0  0  0  0
   59.7540   32.9730   46.3020 C   0  0  0  0  0  0  0  0  0  0  0  0
   58.8620   31.9410   45.9620 C   0  0  0  0  0  0  0  0  0  0  0  0
   63.5696   34.2119   47.6122 H   0  0  0  0  0  0  0  0  0  0  0  0
   64.2446   33.3476   46.1895 H   0  0  0  0  0  0  0  0  0  0  0  0
   62.5268   33.8726   46.1895 H   0  0  0  0  0  0  0  0  0  0  0  0
   62.3987   31.5707   46.6663 H   0  0  0  0  0  0  0  0  0  0  0  0
   63.8746   31.6781   47.7729 H   0  0  0  0  0  0  0  0  0  0  0  0
   61.1690   31.7580   48.3570 H   0  0  0  0  0  0  0  0  0  0  0  0
   62.3249   33.9985   49.7425 H   0  0  0  0  0  0  0  0  0  0  0  0
   61.6723   34.1713   48.0335 H   0  0  0  0  0  0  0  0  0  0  0  0
   60.2237   33.7287   50.6059 H   0  0  0  0  0  0  0  0  0  0  0  0
   59.7657   34.6703   49.1463 H   0  0  0  0  0  0  0  0  0  0  0  0
   59.6095   32.8808   49.1463 H   0  0  0  0  0  0  0  0  0  0  0  0
   63.4209   30.8646   49.5438 H   0  0  0  0  0  0  0  0  0  0  0  0
   62.8141   32.2149   50.6081 H   0  0  0  0  0  0  0  0  0  0  0  0
   61.8574   29.5052   50.4206 H   0  0  0  0  0  0  0  0  0  0  0  0
   61.2912   30.8601   51.4794 H   0  0  0  0  0  0  0  0  0  0  0  0
   60.2939   28.5615   49.9370 H   0  0  0  0  0  0  0  0  0  0  0  0
   58.7938   29.2541   49.2391 H   0  0  0  0  0  0  0  0  0  0  0  0
   61.5257   28.8985   47.9223 H   0  0  0  0  0  0  0  0  0  0  0  0
   59.9175   28.2773   47.3853 H   0  0  0  0  0  0  0  0  0  0  0  0
   58.3128   28.5751   46.2142 H   0  0  0  0  0  0  0  0  0  0  0  0
   56.5160   33.8115   44.2906 H   0  0  0  0  0  0  0  0  0  0  0  0
   58.1141   35.6281   44.9020 H   0  0  0  0  0  0  0  0  0  0  0  0
   60.1844   35.0947   46.1893 H   0  0  0  0  0  0  0  0  0  0  0  0
   60.6679   32.7431   46.8694 H   0  0  0  0  0  0  0  0  0  0  0  0
  1  2  1  0
  2  3  1  0
  3  4  1  0
  4  5  1  0
  3  6  1  0
  6  7  1  0
  7  8  1  0
  8  9  1  0
  9 10  1  0
 10 11  1  0
 11 12  1  0
 12 13  2  0
 13 14  1  0
 14 15  2  0
 14 16  1  0
 16 17  1  0
 17 18  2  0
 18 19  1  0
 19 20  2  0
 20 21  1  0
 21 22  2  0
 22 12  1  0
 22 17  1  0
  1 23  1  0
  1 24  1  0
  1 25  1  0
  2 26  1  0
  2 27  1  0
  3 28  1  0
  4 29  1  0
  4 30  1  0
  5 31  1  0
  5 32  1  0
  5 33  1  0
  6 34  1  0
  6 35  1  0
  7 36  1  0
  7 37  1  0
  9 38  1  0
  9 39  1  0
 10 40  1  0
 10 41  1  0
 13 42  1  0
 18 43  1  0
 19 44  1  0
 20 45  1  0
 21 46  1  0
M  CHG  1   3   1
M  END
>  <UniqueID>  (12) 
11

>  <SMILES>  (12) 
CC[NH+](CC)CCOCCOc1cc(=O)oc2ccccc12

>  <Energy>  (12) 
58.15139526536924

>  <Genealogy>  (12) 
CC[NH+](CC)CCOCCOc1cc(=O)oc2ccccc12 (protonated)
CC[NH+](CC)CCOCCOc1cc(=O)oc2ccccc12 (3D coordinates assigned)
CC[NH+](CC)CCOCCOc1cc(=O)oc2ccccc12 (optimized conformer: 58.15139526536924 kcal/mol)

>  <smiles>  (12) 
CCN(CC)CCOCCOc1cc(=O)oc2ccccc12

>  <score_type>  (12) 
oracle

>  <origin>  (12) 
adg

>  <m_score__min__energy>  (12) 
-4.1399999999999997

>  <m_primary>  (12) 
energy

$$$$
12:0
     RDKit          3D

 23 23  0  0  0  0  0  0  0  0999 V2000
   56.3330   29.7280   42.6440 C   0  0  0  0  0  0  0  0  0  0  0  0
   55.7420   29.7240   44.0510 C   0  0  0  0  0  0  0  0  0  0  0  0
   56.2640   30.8550   44.8320 N   0  0  0  0  0  0  0  0  0  0  0  0
   57.3680   31.5260   44.1350 C   0  0  0  0  0  0  0  0  0  0  0  0
   57.9620   32.5800   45.0270 C   0  0  0  0  0  0  0  0  0  0  0  0
   57.8040   32.5030   46.4210 C   0  0  0  0  0  0  0  0  0  0  0  0
   58.3270   33.5050   47.2450 C   0  0  0  0  0  0  0  0  0  0  0  0
   59.0010   34.5920   46.6830 C   0  0  0  0  0  0  0  0  0  0  0  0
   59.1480   34.6840   45.2970 C   0  0  0  0  0  0  0  0  0  0  0  0
   58.6260   33.6850   44.4690 C   0  0  0  0  0  0  0  0  0  0  0  0
   57.4311   29.7354   42.7076 H   0  0  0  0  0  0  0  0  0  0  0  0
   56.0030   28.8276   42.1051 H   0  0  0  0  0  0  0  0  0  0  0  0
   55.9908   30.6239   42.1051 H   0  0  0  0  0  0  0  0  0  0  0  0
   54.6470   29.8051   43.9839 H   0  0  0  0  0  0  0  0  0  0  0  0
   56.0228   28.7859   44.5521 H   0  0  0  0  0  0  0  0  0  0  0  0
   56.6470   30.4720   45.7290 H   0  0  0  0  0  0  0  0  0  0  0  0
   58.1408   30.7870   43.8769 H   0  0  0  0  0  0  0  0  0  0  0  0
   56.9873   31.9971   43.2168 H   0  0  0  0  0  0  0  0  0  0  0  0
   57.2673   31.6520   46.8658 H   0  0  0  0  0  0  0  0  0  0  0  0
   58.2075   33.4371   48.3364 H   0  0  0  0  0  0  0  0  0  0  0  0
   59.4164   35.3764   47.3328 H   0  0  0  0  0  0  0  0  0  0  0  0
   59.6749   35.5431   44.8562 H   0  0  0  0  0  0  0  0  0  0  0  0
   58.7357   33.7648   43.3774 H   0  0  0  0  0  0  0  0  0  0  0  0
  1  2  1  0
  2  3  1  0
  3  4  1  0
  4  5  1  0
  5  6  2  0
  6  7  1  0
  7  8  2  0
  8  9  1  0
  9 10  2  0
 10  5  1  0
  1 11  1  0
  1 12  1  0
  1 13  1  0
  2 14  1  0
  2 15  1  0
  3 16  1  0
  4 17  1  0
  4 18  1  0
  6 19  1  0
  7 20  1  0
  8 21  1  0
  9 22  1  0
 10 23  1  0
M  END
>  <UniqueID>  (13) 
12

>  <SMILES>  (13) 
CCNCc1ccccc1

>  <Energy>  (13) 
17.401963289829972

>  <Genealogy>  (13) 
CCNCc1ccccc1 (3D coordinates assigned)
CCNCc1ccccc1 (optimized conformer: 17.401963289829972 kcal/mol)

>  <smiles>  (13) 
CCNCc1ccccc1

>  <score_type>  (13) 
oracle

>  <origin>  (13) 
adg

>  <m_score__min__energy>  (13) 
-4.9299999999999997

>  <m_primary>  (13) 
energy

$$$$
13:0
     RDKit          3D

 49 51  0  0  0  0  0  0  0  0999 V2000
   63.0840   34.0490   46.3670 C   0  0  0  0  0  0  0  0  0  0  0  0
   63.6930   33.7100   47.7260 C   0  0  0  0  0  0  0  0  0  0  0  0
   63.8230   32.2510   47.8950 N   0  0  0  0  0  0  0  0  0  0  0  0
   62.6100   31.5380   47.4520 C   0  0  0  0  0  0  0  0  0  0  0  0
   61.8320   30.9270   48.6350 C   0  0  0  0  0  0  0  0  0  0  0  0
   60.6690   30.0330   48.1710 C   0  0  0  0  0  0  0  0  0  0  0  0
   59.4040   30.7720   48.1220 N   0  0  0  0  0  0  0  0  0  0  0  0
   58.8820   31.3180   46.9000 C   0  0  0  0  0  0  0  0  0  0  0  0
   59.0870   32.6740   46.5900 C   0  0  0  0  0  0  0  0  0  0  0  0
   59.6580   33.5530   47.5340 C   0  0  0  0  0  0  0  0  0  0  0  0
   59.8500   34.8970   47.2270 C   0  0  0  0  0  0  0  0  0  0  0  0
   59.4620   35.3910   45.9880 C   0  0  0  0  0  0  0  0  0  0  0  0
   58.8990   34.5390   45.0380 C   0  0  0  0  0  0  0  0  0  0  0  0
   58.7270   33.1570   45.3050 C   0  0  0  0  0  0  0  0  0  0  0  0
   58.2240   32.2890   44.3550 N   0  0  0  0  0  0  0  0  0  0  0  0
   58.1340   32.7110   42.9390 C   0  0  0  0  0  0  0  0  0  0  0  0
   57.8210   31.0180   44.7240 C   0  0  0  0  0  0  0  0  0  0  0  0
   57.0450   30.2020   43.8660 C   0  0  0  0  0  0  0  0  0  0  0  0
   56.6730   28.9110   44.2380 C   0  0  0  0  0  0  0  0  0  0  0  0
   57.0410   28.3930   45.4860 C   0  0  0  0  0  0  0  0  0  0  0  0
   56.6500   27.0620   45.8710 N   0  0  0  0  0  0  0  0  0  0  0  0
   57.5110   26.1940   46.1300 O   0  0  0  0  0  0  0  0  0  0  0  0
   55.3200   26.7230   45.9700 O   0  0  0  0  0  0  0  0  0  0  0  0
   57.7760   29.2000   46.3640 C   0  0  0  0  0  0  0  0  0  0  0  0
   58.1700   30.5050   46.0010 C   0  0  0  0  0  0  0  0  0  0  0  0
   62.1315   34.5792   46.5140 H   0  0  0  0  0  0  0  0  0  0  0  0
   63.7778   34.6907   45.8041 H   0  0  0  0  0  0  0  0  0  0  0  0
   62.9041   33.1212   45.8041 H   0  0  0  0  0  0  0  0  0  0  0  0
   64.6889   34.1712   47.7995 H   0  0  0  0  0  0  0  0  0  0  0  0
   63.0310   34.0976   48.5144 H   0  0  0  0  0  0  0  0  0  0  0  0
   64.0320   32.0220   48.8940 H   0  0  0  0  0  0  0  0  0  0  0  0
   64.6260   31.9200   47.3080 H   0  0  0  0  0  0  0  0  0  0  0  0
   61.9546   32.2467   46.9246 H   0  0  0  0  0  0  0  0  0  0  0  0
   62.9224   30.7160   46.7912 H   0  0  0  0  0  0  0  0  0  0  0  0
   62.5243   30.3216   49.2385 H   0  0  0  0  0  0  0  0  0  0  0  0
   61.4063   31.7551   49.2208 H   0  0  0  0  0  0  0  0  0  0  0  0
   60.8953   29.6464   47.1663 H   0  0  0  0  0  0  0  0  0  0  0  0
   60.5585   29.2111   48.8937 H   0  0  0  0  0  0  0  0  0  0  0  0
   58.9040   30.9780   49.0170 H   0  0  0  0  0  0  0  0  0  0  0  0
   59.9545   33.1725   48.5226 H   0  0  0  0  0  0  0  0  0  0  0  0
   60.3097   35.5690   47.9667 H   0  0  0  0  0  0  0  0  0  0  0  0
   59.5992   36.4573   45.7554 H   0  0  0  0  0  0  0  0  0  0  0  0
   58.5833   34.9457   44.0659 H   0  0  0  0  0  0  0  0  0  0  0  0
   57.9048   33.7858   42.8906 H   0  0  0  0  0  0  0  0  0  0  0  0
   59.0936   32.5177   42.4371 H   0  0  0  0  0  0  0  0  0  0  0  0
   57.3368   32.1431   42.4371 H   0  0  0  0  0  0  0  0  0  0  0  0
   56.7297   30.5939   42.8877 H   0  0  0  0  0  0  0  0  0  0  0  0
   56.0844   28.2929   43.5441 H   0  0  0  0  0  0  0  0  0  0  0  0
   58.0510   28.8089   47.3547 H   0  0  0  0  0  0  0  0  0  0  0  0
  1  2  1  0
  2  3  1  0
  3  4  1  0
  4  5  1  0
  5  6  1  0
  6  7  1  0
  7  8  1  0
  8  9  2  0
  9 10  1  0
 10 11  2  0
 11 12  1  0
 12 13  2  0
 13 14  1  0
 14 15  2  0
 15 16  1  0
 15 17  1  0
 17 18  2  0
 18 19  1  0
 19 20  2  0
 20 21  1  0
 21 22  2  0
 21 23  1  0
 20 24  1  0
 24 25  2  0
 25  8  1  0
 14  9  1  0
 25 17  1  0
  1 26  1  0
  1 27  1  0
  1 28  1  0
  2 29  1  0
  2 30  1  0
  3 31  1  0
  3 32  1  0
  4 33  1  0
  4 34  1  0
  5 35  1  0
  5 36  1  0
  6 37  1  0
  6 38  1  0
  7 39  1  0
 10 40  1  0
 11 41  1  0
 12 42  1  0
 13 43  1  0
 16 44  1  0
 16 45  1  0
 16 46  1  0
 18 47  1  0
 19 48  1  0
 24 49  1  0
M  CHG  4   3   1  15   1  21   1  23  -1
M  END
>  <UniqueID>  (14) 
13

>  <SMILES>  (14) 
CC[NH2+]CCCNc1c2ccccc2[n+](C)c2ccc([N+](=O)[O-])cc12

>  <Energy>  (14) 
70.90777918643964

>  <Genealogy>  (14) 
CC[NH2+]CCCNc1c2ccccc2[n+](C)c2ccc([N+](=O)[O-])cc12 (protonated)
CC[NH2+]CCCNc1c2ccccc2[n+](C)c2ccc([N+](=O)[O-])cc12 (3D coordinates assigned)
CC[NH2+]CCCNc1c2ccccc2[n+](C)c2ccc([N+](=O)[O-])cc12 (optimized conformer: 70.90777918643964 kcal/mol)

>  <smiles>  (14) 
CCNCCCNc1c2ccccc2[n+](C)c2ccc([N+](=O)[O-])cc12

>  <score_type>  (14) 
oracle

>  <origin>  (14) 
adg

>  <m_score__min__energy>  (14) 
-5.4400000000000004

>  <m_primary>  (14) 
energy

$$$$
14:0
     RDKit          3D

 38 38  0  0  0  0  0  0  0  0999 V2000
   57.7180   33.9640   45.8420 C   0  0  0  0  0  0  0  0  0  0  0  0
   58.1050   32.4900   45.9010 C   0  0  0  0  0  0  0  0  0  0  0  0
   57.9590   31.8940   44.5530 N   0  0  0  0  0  0  0  0  0  0  0  0
   58.0800   32.8970   43.4660 C   0  0  0  0  0  0  0  0  0  0  0  0
   57.8710   32.3170   42.0600 C   0  0  0  0  0  0  0  0  0  0  0  0
   56.7760   31.0080   44.4570 C   0  0  0  0  0  0  0  0  0  0  0  0
   57.1630   29.5890   44.0150 C   0  0  0  0  0  0  0  0  0  0  0  0
   56.6270   28.5980   44.9610 N   0  0  0  0  0  0  0  0  0  0  0  0
   57.6740   28.0840   45.8520 C   0  0  0  0  0  0  0  0  0  0  0  0
   57.5910   26.5810   45.9090 C   0  0  0  0  0  0  0  0  0  0  0  0
   58.7670   25.8100   45.8860 C   0  0  0  0  0  0  0  0  0  0  0  0
   58.6950   24.4140   45.9050 C   0  0  0  0  0  0  0  0  0  0  0  0
   57.4530   23.7740   45.9320 C   0  0  0  0  0  0  0  0  0  0  0  0
   57.3600   21.8640   45.9420 Br  0  0  0  0  0  0  0  0  0  0  0  0
   56.2770   24.5350   45.9510 C   0  0  0  0  0  0  0  0  0  0  0  0
   56.3380   25.9360   45.9330 C   0  0  0  0  0  0  0  0  0  0  0  0
   55.1610   26.6850   45.9320 O   0  0  0  0  0  0  0  0  0  0  0  0
   57.6148   34.3572   46.8641 H   0  0  0  0  0  0  0  0  0  0  0  0
   58.4988   34.5271   45.3097 H   0  0  0  0  0  0  0  0  0  0  0  0
   56.7613   34.0709   45.3097 H   0  0  0  0  0  0  0  0  0  0  0  0
   59.1494   32.3968   46.2333 H   0  0  0  0  0  0  0  0  0  0  0  0
   57.4496   31.9639   46.6107 H   0  0  0  0  0  0  0  0  0  0  0  0
   57.3271   33.6814   43.6328 H   0  0  0  0  0  0  0  0  0  0  0  0
   59.1085   33.2853   43.5022 H   0  0  0  0  0  0  0  0  0  0  0  0
   57.4991   31.2849   42.1407 H   0  0  0  0  0  0  0  0  0  0  0  0
   57.1371   32.9297   41.5160 H   0  0  0  0  0  0  0  0  0  0  0  0
   58.8270   32.3208   41.5160 H   0  0  0  0  0  0  0  0  0  0  0  0
   56.2900   30.9543   45.4424 H   0  0  0  0  0  0  0  0  0  0  0  0
   56.0937   31.4277   43.7031 H   0  0  0  0  0  0  0  0  0  0  0  0
   56.7509   29.3953   43.0137 H   0  0  0  0  0  0  0  0  0  0  0  0
   58.2597   29.5068   43.9923 H   0  0  0  0  0  0  0  0  0  0  0  0
   56.2630   27.7860   44.4070 H   0  0  0  0  0  0  0  0  0  0  0  0
   58.6609   28.3825   45.4687 H   0  0  0  0  0  0  0  0  0  0  0  0
   57.5324   28.4977   46.8613 H   0  0  0  0  0  0  0  0  0  0  0  0
   59.7475   26.3075   45.8529 H   0  0  0  0  0  0  0  0  0  0  0  0
   59.6191   23.8173   45.8987 H   0  0  0  0  0  0  0  0  0  0  0  0
   55.2999   24.0307   45.9802 H   0  0  0  0  0  0  0  0  0  0  0  0
   55.1380   27.6400   45.5900 H   0  0  0  0  0  0  0  0  0  0  0  0
  1  2  1  0
  2  3  1  0
  3  4  1  0
  4  5  1  0
  3  6  1  0
  6  7  1  0
  7  8  1  0
  8  9  1  0
  9 10  1  0
 10 11  2  0
 11 12  1  0
 12 13  2  0
 13 14  1  0
 13 15  1  0
 15 16  2  0
 16 17  1  0
 16 10  1  0
  1 18  1  0
  1 19  1  0
  1 20  1  0
  2 21  1  0
  2 22  1  0
  4 23  1  0
  4 24  1  0
  5 25  1  0
  5 26  1  0
  5 27  1  0
  6 28  1  0
  6 29  1  0
  7 30  1  0
  7 31  1  0
  8 32  1  0
  9 33  1  0
  9 34  1  0
 11 35  1  0
 12 36  1  0
 15 37  1  0
 17 38  1  0
M  END
>  <UniqueID>  (15) 
14

>  <SMILES>  (15) 
CCN(CC)CCNCc1ccc(Br)cc1O

>  <Energy>  (15) 
35.99329320753793

>  <Genealogy>  (15) 
CCN(CC)CCNCc1ccc(Br)cc1O (3D coordinates assigned)
CCN(CC)CCNCc1ccc(Br)cc1O (optimized conformer: 35.99329320753793 kcal/mol)

>  <smiles>  (15) 
CCN(CC)CCNCc1ccc(Br)cc1O

>  <score_type>  (15) 
oracle

>  <origin>  (15) 
adg

>  <m_score__min__energy>  (15) 
-7.3499999999999996

>  <m_primary>  (15) 
energy

$$$$
15:0
     RDKit          3D

 45 47  0  0  0  0  0  0  0  0999 V2000
   57.2850   32.0640   41.5420 C   0  0  0  0  0  0  0  0  0  0  0  0
   58.3540   32.0070   42.6270 C   0  0  0  0  0  0  0  0  0  0  0  0
   57.8200   31.3970   43.8500 N   0  0  0  0  0  0  0  0  0  0  0  0
   57.1410   30.2400   43.9800 C   0  0  0  0  0  0  0  0  0  0  0  0
   56.6350   29.1850   42.6190 S   0  0  0  0  0  0  0  0  0  0  0  0
   57.7730   27.8290   43.0670 C   0  0  0  0  0  0  0  0  0  0  0  0
   58.7890   28.3090   44.0990 C   0  0  0  0  0  0  0  0  0  0  0  0
   59.2060   27.1710   44.9550 N   0  0  0  0  0  0  0  0  0  0  0  0
   60.2500   27.5390   45.9300 C   0  0  0  0  0  0  0  0  0  0  0  0
   59.6960   28.4020   47.0890 C   0  0  0  0  0  0  0  0  0  0  0  0
   58.2430   28.2550   47.2800 N   0  0  0  0  0  0  0  0  0  0  0  0
   57.8080   26.8750   47.0410 C   0  0  0  0  0  0  0  0  0  0  0  0
   58.0850   26.4350   45.5880 C   0  0  0  0  0  0  0  0  0  0  0  0
   56.8890   29.9550   45.2710 N   0  0  0  0  0  0  0  0  0  0  0  0
   57.4230   30.9300   45.9920 N   0  0  0  0  0  0  0  0  0  0  0  0
   57.9810   31.7990   45.1280 C   0  0  0  0  0  0  0  0  0  0  0  0
   58.7030   33.0090   45.5520 C   0  0  0  0  0  0  0  0  0  0  0  0
   58.5890   34.1760   44.7810 C   0  0  0  0  0  0  0  0  0  0  0  0
   59.2570   35.3410   45.1660 C   0  0  0  0  0  0  0  0  0  0  0  0
   60.0500   35.3480   46.3150 C   0  0  0  0  0  0  0  0  0  0  0  0
   60.1820   34.1850   47.0800 C   0  0  0  0  0  0  0  0  0  0  0  0
   59.5170   33.0130   46.7030 C   0  0  0  0  0  0  0  0  0  0  0  0
   59.7610   31.5560   47.6610 Cl  0  0  0  0  0  0  0  0  0  0  0  0
   56.2906   32.1170   42.0094 H   0  0  0  0  0  0  0  0  0  0  0  0
   57.4443   32.9549   40.9168 H   0  0  0  0  0  0  0  0  0  0  0  0
   57.3486   31.1612   40.9168 H   0  0  0  0  0  0  0  0  0  0  0  0
   59.2033   31.4083   42.2660 H   0  0  0  0  0  0  0  0  0  0  0  0
   58.6799   33.0323   42.8565 H   0  0  0  0  0  0  0  0  0  0  0  0
   57.1942   26.9941   43.4888 H   0  0  0  0  0  0  0  0  0  0  0  0
   58.3085   27.4987   42.1647 H   0  0  0  0  0  0  0  0  0  0  0  0
   59.6689   28.7200   43.5825 H   0  0  0  0  0  0  0  0  0  0  0  0
   58.3318   29.0888   44.7259 H   0  0  0  0  0  0  0  0  0  0  0  0
   60.6816   26.6185   46.3499 H   0  0  0  0  0  0  0  0  0  0  0  0
   61.0085   28.1346   45.4009 H   0  0  0  0  0  0  0  0  0  0  0  0
   60.2025   28.1047   48.0191 H   0  0  0  0  0  0  0  0  0  0  0  0
   59.8867   29.4545   46.8323 H   0  0  0  0  0  0  0  0  0  0  0  0
   57.7360   28.8890   46.6190 H   0  0  0  0  0  0  0  0  0  0  0  0
   58.3500   26.2063   47.7259 H   0  0  0  0  0  0  0  0  0  0  0  0
   56.7233   26.8213   47.2156 H   0  0  0  0  0  0  0  0  0  0  0  0
   58.3280   25.3622   45.5885 H   0  0  0  0  0  0  0  0  0  0  0  0
   57.1797   26.6551   45.0031 H   0  0  0  0  0  0  0  0  0  0  0  0
   57.9717   34.1734   43.8706 H   0  0  0  0  0  0  0  0  0  0  0  0
   59.1579   36.2552   44.5623 H   0  0  0  0  0  0  0  0  0  0  0  0
   60.5708   36.2682   46.6184 H   0  0  0  0  0  0  0  0  0  0  0  0
   60.8114   34.1915   47.9821 H   0  0  0  0  0  0  0  0  0  0  0  0
  1  2  1  0
  2  3  1  0
  3  4  1  0
  4  5  1  0
  5  6  1  0
  6  7  1  0
  7  8  1  0
  8  9  1  0
  9 10  1  0
 10 11  1  0
 11 12  1  0
 12 13  1  0
  4 14  2  0
 14 15  1  0
 15 16  2  0
 16 17  1  0
 17 18  2  0
 18 19  1  0
 19 20  2  0
 20 21  1  0
 21 22  2  0
 22 23  1  0
 16  3  1  0
 22 17  1  0
 13  8  1  0
  1 24  1  0
  1 25  1  0
  1 26  1  0
  2 27  1  0
  2 28  1  0
  6 29  1  0
  6 30  1  0
  7 31  1  0
  7 32  1  0
  9 33  1  0
  9 34  1  0
 10 35  1  0
 10 36  1  0
 11 37  1  0
 12 38  1  0
 12 39  1  0
 13 40  1  0
 13 41  1  0
 18 42  1  0
 19 43  1  0
 20 44  1  0
 21 45  1  0
M  END
>  <UniqueID>  (16) 
15

>  <SMILES>  (16) 
CCn1c(SCCN2CCNCC2)nnc1-c1ccccc1Cl

>  <Energy>  (16) 
90.93966584151717

>  <Genealogy>  (16) 
CCn1c(SCCN2CCNCC2)nnc1-c1ccccc1Cl (3D coordinates assigned)
CCn1c(SCCN2CCNCC2)nnc1-c1ccccc1Cl (nonaromatic ring conformer: 90.93966584151717 kcal/mol)

>  <smiles>  (16) 
CCn1c(SCCN2CCNCC2)nnc1-c1ccccc1Cl

>  <score_type>  (16) 
oracle

>  <origin>  (16) 
adg

>  <m_score__min__energy>  (16) 
-8.2200000000000006

>  <m_primary>  (16) 
energy

$$$$
16:0
     RDKit          3D

 35 36  0  0  0  0  0  0  0  0999 V2000
   58.2350   27.8170   46.8950 C   0  0  0  0  0  0  0  0  0  0  0  0
   57.2970   27.5620   45.7150 C   0  0  0  0  0  0  0  0  0  0  0  0
   57.6610   28.2870   44.4810 N   0  0  0  0  0  0  0  0  0  0  0  0
   58.1020   27.4590   43.3370 C   0  0  0  0  0  0  0  0  0  0  0  0
   57.7780   25.9640   43.4600 C   0  0  0  0  0  0  0  0  0  0  0  0
   56.6290   29.6460   44.0930 S   0  0  0  0  0  0  0  0  0  0  0  0
   55.3360   29.5740   44.8570 O   0  0  0  0  0  0  0  0  0  0  0  0
   56.3140   29.6340   42.6230 O   0  0  0  0  0  0  0  0  0  0  0  0
   57.4550   31.1560   44.4750 C   0  0  0  0  0  0  0  0  0  0  0  0
   57.7900   32.0470   43.4460 C   0  0  0  0  0  0  0  0  0  0  0  0
   58.4640   33.2360   43.7360 C   0  0  0  0  0  0  0  0  0  0  0  0
   58.8070   33.5420   45.0560 C   0  0  0  0  0  0  0  0  0  0  0  0
   58.4880   32.6480   46.0890 C   0  0  0  0  0  0  0  0  0  0  0  0
   57.8150   31.4550   45.7970 C   0  0  0  0  0  0  0  0  0  0  0  0
   58.9050   32.9470   47.4260 N   0  0  0  0  0  0  0  0  0  0  0  0
   59.5490   34.1910   47.7120 C   0  0  0  0  0  0  0  0  0  0  0  0
   60.0200   34.4070   48.8600 O   0  0  0  0  0  0  0  0  0  0  0  0
   59.5910   35.2700   46.6660 C   0  0  0  0  0  0  0  0  0  0  0  0
   59.4910   34.7300   45.3450 O   0  0  0  0  0  0  0  0  0  0  0  0
   57.6875   27.6682   47.8374 H   0  0  0  0  0  0  0  0  0  0  0  0
   59.0818   27.1165   46.8483 H   0  0  0  0  0  0  0  0  0  0  0  0
   58.6106   28.8498   46.8483 H   0  0  0  0  0  0  0  0  0  0  0  0
   57.3042   26.4840   45.4960 H   0  0  0  0  0  0  0  0  0  0  0  0
   56.3053   27.9307   46.0158 H   0  0  0  0  0  0  0  0  0  0  0  0
   57.6123   27.8414   42.4293 H   0  0  0  0  0  0  0  0  0  0  0  0
   59.1988   27.5358   43.3046 H   0  0  0  0  0  0  0  0  0  0  0  0
   57.7182   25.6880   44.5231 H   0  0  0  0  0  0  0  0  0  0  0  0
   56.8140   25.7564   42.9725 H   0  0  0  0  0  0  0  0  0  0  0  0
   58.5696   25.3760   42.9725 H   0  0  0  0  0  0  0  0  0  0  0  0
   57.5212   31.8092   42.4062 H   0  0  0  0  0  0  0  0  0  0  0  0
   58.7249   33.9318   42.9249 H   0  0  0  0  0  0  0  0  0  0  0  0
   57.5684   30.7514   46.6058 H   0  0  0  0  0  0  0  0  0  0  0  0
   58.7670   32.2480   48.1910 H   0  0  0  0  0  0  0  0  0  0  0  0
   58.7519   35.9614   46.8330 H   0  0  0  0  0  0  0  0  0  0  0  0
   60.5551   35.7928   46.7509 H   0  0  0  0  0  0  0  0  0  0  0  0
  1  2  1  0
  2  3  1  0
  3  4  1  0
  4  5  1  0
  3  6  1  0
  6  7  2  0
  6  8  2  0
  6  9  1  0
  9 10  2  0
 10 11  1  0
 11 12  2  0
 12 13  1  0
 13 14  2  0
 13 15  1  0
 15 16  1  0
 16 17  2  0
 16 18  1  0
 18 19  1  0
 14  9  1  0
 19 12  1  0
  1 20  1  0
  1 21  1  0
  1 22  1  0
  2 23  1  0
  2 24  1  0
  4 25  1  0
  4 26  1  0
  5 27  1  0
  5 28  1  0
  5 29  1  0
 10 30  1  0
 11 31  1  0
 14 32  1  0
 15 33  1  0
 18 34  1  0
 18 35  1  0
M  END
>  <UniqueID>  (17) 
16

>  <SMILES>  (17) 
CCN(CC)S(=O)(=O)c1ccc2c(c1)NC(=O)CO2

>  <Energy>  (17) 
41.26995218326299

>  <Genealogy>  (17) 
CCN(CC)S(=O)(=O)c1ccc2c(c1)NC(=O)CO2 (3D coordinates assigned)
CCN(CC)S(=O)(=O)c1ccc2c(c1)NC(=O)CO2 (nonaromatic ring conformer: 41.26995218326299 kcal/mol)

>  <smiles>  (17) 
CCN(CC)S(=O)(=O)c1ccc2c(c1)NC(=O)CO2

>  <score_type>  (17) 
oracle

>  <origin>  (17) 
adg

>  <m_score__min__energy>  (17) 
-6.7699999999999996

>  <m_primary>  (17) 
energy

$$$$
17:0
     RDKit          3D

 45 47  0  0  0  0  0  0  0  0999 V2000
   57.7650   27.9620   44.2290 C   0  0  0  0  0  0  0  0  0  0  0  0
   56.6520   28.1300   45.2580 C   0  0  0  0  0  0  0  0  0  0  0  0
   55.8230   29.2940   44.9220 N   0  0  0  0  0  0  0  0  0  0  0  0
   56.0680   29.7090   43.5330 C   0  0  0  0  0  0  0  0  0  0  0  0
   56.7610   31.0800   43.4650 C   0  0  0  0  0  0  0  0  0  0  0  0
   58.0380   31.2100   44.3110 C   0  0  0  0  0  0  0  0  0  0  0  0
   57.8230   30.8190   45.6710 O   0  0  0  0  0  0  0  0  0  0  0  0
   58.7540   31.0310   46.7000 C   0  0  0  0  0  0  0  0  0  0  0  0
   59.2800   29.9580   47.4500 C   0  0  0  0  0  0  0  0  0  0  0  0
   58.7740   28.6490   47.3350 C   0  0  0  0  0  0  0  0  0  0  0  0
   59.3400   27.6040   48.0680 C   0  0  0  0  0  0  0  0  0  0  0  0
   60.4010   27.8520   48.9390 C   0  0  0  0  0  0  0  0  0  0  0  0
   60.8830   29.1520   49.1010 C   0  0  0  0  0  0  0  0  0  0  0  0
   60.3180   30.2160   48.3760 C   0  0  0  0  0  0  0  0  0  0  0  0
   60.7560   31.4910   48.5840 N   0  0  0  0  0  0  0  0  0  0  0  0
   60.1960   32.5620   47.9440 C   0  0  0  0  0  0  0  0  0  0  0  0
   60.6340   33.8890   48.2070 C   0  0  0  0  0  0  0  0  0  0  0  0
   61.7290   34.1830   49.1980 C   0  0  0  0  0  0  0  0  0  0  0  0
   60.0350   34.9610   47.5250 C   0  0  0  0  0  0  0  0  0  0  0  0
   59.0200   34.7380   46.5980 C   0  0  0  0  0  0  0  0  0  0  0  0
   58.5860   33.4420   46.3310 C   0  0  0  0  0  0  0  0  0  0  0  0
   59.1650   32.3450   46.9940 C   0  0  0  0  0  0  0  0  0  0  0  0
   58.7245   27.8172   44.7471 H   0  0  0  0  0  0  0  0  0  0  0  0
   57.5526   27.0857   43.5989 H   0  0  0  0  0  0  0  0  0  0  0  0
   57.8207   28.8619   43.5989 H   0  0  0  0  0  0  0  0  0  0  0  0
   56.0243   27.2267   45.2652 H   0  0  0  0  0  0  0  0  0  0  0  0
   57.1007   28.2832   46.2506 H   0  0  0  0  0  0  0  0  0  0  0  0
   56.1320   30.0750   45.5460 H   0  0  0  0  0  0  0  0  0  0  0  0
   56.7092   28.9604   43.0447 H   0  0  0  0  0  0  0  0  0  0  0  0
   55.0973   29.7887   43.0217 H   0  0  0  0  0  0  0  0  0  0  0  0
   57.0265   31.2755   42.4156 H   0  0  0  0  0  0  0  0  0  0  0  0
   56.0450   31.8051   43.8792 H   0  0  0  0  0  0  0  0  0  0  0  0
   58.8187   30.5684   43.8763 H   0  0  0  0  0  0  0  0  0  0  0  0
   58.3426   32.2670   44.3057 H   0  0  0  0  0  0  0  0  0  0  0  0
   57.9267   28.4482   46.6629 H   0  0  0  0  0  0  0  0  0  0  0  0
   58.9480   26.5821   47.9583 H   0  0  0  0  0  0  0  0  0  0  0  0
   60.8581   27.0226   49.4985 H   0  0  0  0  0  0  0  0  0  0  0  0
   61.7099   29.3452   49.8002 H   0  0  0  0  0  0  0  0  0  0  0  0
   61.5250   31.6340   49.2750 H   0  0  0  0  0  0  0  0  0  0  0  0
   61.3365   34.0776   50.2202 H   0  0  0  0  0  0  0  0  0  0  0  0
   62.5581   33.4757   49.0489 H   0  0  0  0  0  0  0  0  0  0  0  0
   62.0923   35.2105   49.0489 H   0  0  0  0  0  0  0  0  0  0  0  0
   60.3717   35.9888   47.7255 H   0  0  0  0  0  0  0  0  0  0  0  0
   58.5593   35.5888   46.0747 H   0  0  0  0  0  0  0  0  0  0  0  0
   57.7846   33.2750   45.5963 H   0  0  0  0  0  0  0  0  0  0  0  0
  1  2  1  0
  2  3  1  0
  3  4  1  0
  4  5  1  0
  5  6  1  0
  6  7  1  0
  7  8  1  0
  8  9  2  0
  9 10  1  0
 10 11  2  0
 11 12  1  0
 12 13  2  0
 13 14  1  0
 14 15  2  0
 15 16  1  0
 16 17  2  0
 17 18  1  0
 17 19  1  0
 19 20  2  0
 20 21  1  0
 21 22  2  0
 22  8  1  0
 14  9  1  0
 22 16  1  0
  1 23  1  0
  1 24  1  0
  1 25  1  0
  2 26  1  0
  2 27  1  0
  3 28  1  0
  4 29  1  0
  4 30  1  0
  5 31  1  0
  5 32  1  0
  6 33  1  0
  6 34  1  0
 10 35  1  0
 11 36  1  0
 12 37  1  0
 13 38  1  0
 15 39  1  0
 18 40  1  0
 18 41  1  0
 18 42  1  0
 19 43  1  0
 20 44  1  0
 21 45  1  0
M  CHG  1  15   1
M  END
>  <UniqueID>  (18) 
17

>  <SMILES>  (18) 
CCNCCCOc1c2ccccc2[nH+]c2c(C)cccc12

>  <Energy>  (18) 
55.280772713668036

>  <Genealogy>  (18) 
CCNCCCOc1c2ccccc2[nH+]c2c(C)cccc12 (protonated)
CCNCCCOc1c2ccccc2[nH+]c2c(C)cccc12 (3D coordinates assigned)
CCNCCCOc1c2ccccc2[nH+]c2c(C)cccc12 (optimized conformer: 55.280772713668036 kcal/mol)

>  <smiles>  (18) 
CCNCCCOc1c2ccccc2nc2c(C)cccc12

>  <score_type>  (18) 
oracle

>  <origin>  (18) 
adg

>  <m_score__min__energy>  (18) 
-6.0199999999999996

>  <m_primary>  (18) 
energy

$$$$
18:0
     RDKit          3D

 61 63  0  0  0  0  0  0  0  0999 V2000
   64.8000   32.5200   50.1480 C   0  0  0  0  0  0  0  0  0  0  0  0
   63.3600   32.1990   50.5610 C   0  0  0  0  0  0  0  0  0  0  0  0
   62.3630   32.9820   49.7830 N   0  0  1  0  0  0  0  0  0  0  0  0
   61.2660   33.4790   50.6380 C   0  0  0  0  0  0  0  0  0  0  0  0
   62.9890   34.0810   49.0050 C   0  0  0  0  0  0  0  0  0  0  0  0
   62.9150   33.9130   47.4630 C   0  0  0  0  0  0  0  0  0  0  0  0
   63.7700   32.7500   46.9220 C   0  0  0  0  0  0  0  0  0  0  0  0
   63.1290   31.3660   47.1340 C   0  0  0  0  0  0  0  0  0  0  0  0
   61.6910   31.4800   47.4100 N   0  0  0  0  0  0  0  0  0  0  0  0
   61.1240   30.2210   47.9330 C   0  0  0  0  0  0  0  0  0  0  0  0
   60.1280   30.4390   49.0860 C   0  0  0  0  0  0  0  0  0  0  0  0
   58.8910   31.0660   48.6220 N   0  0  0  0  0  0  0  0  0  0  0  0
   58.7100   31.3680   47.2290 C   0  0  0  0  0  0  0  0  0  0  0  0
   58.3590   30.3500   46.3260 C   0  0  0  0  0  0  0  0  0  0  0  0
   58.2390   29.0140   46.7610 C   0  0  0  0  0  0  0  0  0  0  0  0
   57.9310   27.9970   45.8600 C   0  0  0  0  0  0  0  0  0  0  0  0
   57.7630   28.2890   44.5110 C   0  0  0  0  0  0  0  0  0  0  0  0
   57.8830   29.6030   44.0580 C   0  0  0  0  0  0  0  0  0  0  0  0
   58.1520   30.6670   44.9570 C   0  0  0  0  0  0  0  0  0  0  0  0
   58.2370   31.9790   44.5280 N   0  0  0  0  0  0  0  0  0  0  0  0
   57.7620   32.3470   43.1760 C   0  0  0  0  0  0  0  0  0  0  0  0
   58.7470   32.9510   45.3710 C   0  0  0  0  0  0  0  0  0  0  0  0
   59.0940   34.2420   44.8980 C   0  0  0  0  0  0  0  0  0  0  0  0
   59.5420   35.2330   45.7720 C   0  0  0  0  0  0  0  0  0  0  0  0
   59.6690   34.9630   47.1290 C   0  0  0  0  0  0  0  0  0  0  0  0
   59.3810   33.6910   47.6170 C   0  0  0  0  0  0  0  0  0  0  0  0
   58.9480   32.6660   46.7480 C   0  0  0  0  0  0  0  0  0  0  0  0
   65.4175   32.6577   51.0479 H   0  0  0  0  0  0  0  0  0  0  0  0
   65.2036   31.6898   49.5498 H   0  0  0  0  0  0  0  0  0  0  0  0
   64.8128   33.4430   49.5498 H   0  0  0  0  0  0  0  0  0  0  0  0
   63.1750   31.1273   50.3961 H   0  0  0  0  0  0  0  0  0  0  0  0
   63.2458   32.4673   51.6217 H   0  0  0  0  0  0  0  0  0  0  0  0
   61.9280   32.3460   49.0730 H   0  0  0  0  0  0  0  0  0  0  0  0
   61.5405   33.3546   51.6959 H   0  0  0  0  0  0  0  0  0  0  0  0
   61.0909   34.5444   50.4274 H   0  0  0  0  0  0  0  0  0  0  0  0
   60.3496   32.9082   50.4274 H   0  0  0  0  0  0  0  0  0  0  0  0
   62.4822   35.0203   49.2714 H   0  0  0  0  0  0  0  0  0  0  0  0
   64.0576   34.0746   49.2657 H   0  0  0  0  0  0  0  0  0  0  0  0
   61.8666   33.7317   47.1838 H   0  0  0  0  0  0  0  0  0  0  0  0
   63.3148   34.8373   47.0205 H   0  0  0  0  0  0  0  0  0  0  0  0
   63.9217   32.9019   45.8431 H   0  0  0  0  0  0  0  0  0  0  0  0
   64.7170   32.7571   47.4815 H   0  0  0  0  0  0  0  0  0  0  0  0
   63.2727   30.7618   46.2261 H   0  0  0  0  0  0  0  0  0  0  0  0
   63.6117   30.8890   47.9997 H   0  0  0  0  0  0  0  0  0  0  0  0
   61.1900   31.7800   46.5420 H   0  0  0  0  0  0  0  0  0  0  0  0
   60.6027   29.7049   47.1133 H   0  0  0  0  0  0  0  0  0  0  0  0
   61.9594   29.6257   48.3301 H   0  0  0  0  0  0  0  0  0  0  0  0
   59.8865   29.4653   49.5371 H   0  0  0  0  0  0  0  0  0  0  0  0
   60.5968   31.1093   49.8215 H   0  0  0  0  0  0  0  0  0  0  0  0
   58.0300   30.9450   49.1990 H   0  0  0  0  0  0  0  0  0  0  0  0
   58.3902   28.7722   47.8234 H   0  0  0  0  0  0  0  0  0  0  0  0
   57.8206   26.9621   46.2161 H   0  0  0  0  0  0  0  0  0  0  0  0
   57.5349   27.4819   43.7992 H   0  0  0  0  0  0  0  0  0  0  0  0
   57.7671   29.8178   42.9854 H   0  0  0  0  0  0  0  0  0  0  0  0
   56.8951   33.0186   43.2621 H   0  0  0  0  0  0  0  0  0  0  0  0
   58.5689   32.8580   42.6303 H   0  0  0  0  0  0  0  0  0  0  0  0
   57.4688   31.4380   42.6303 H   0  0  0  0  0  0  0  0  0  0  0  0
   59.0086   34.4658   43.8244 H   0  0  0  0  0  0  0  0  0  0  0  0
   59.7955   36.2312   45.3855 H   0  0  0  0  0  0  0  0  0  0  0  0
   59.9973   35.7547   47.8185 H   0  0  0  0  0  0  0  0  0  0  0  0
   59.4921   33.4825   48.6913 H   0  0  0  0  0  0  0  0  0  0  0  0
  1  2  1  0
  2  3  1  0
  3  4  1  0
  3  5  1  0
  5  6  1  0
  6  7  1  0
  7  8  1  0
  8  9  1  0
  9 10  1  0
 10 11  1  0
 11 12  1  0
 12 13  1  0
 13 14  2  0
 14 15  1  0
 15 16  2  0
 16 17  1  0
 17 18  2  0
 18 19  1  0
 19 20  2  0
 20 21  1  0
 20 22  1  0
 22 23  2  0
 23 24  1  0
 24 25  2  0
 25 26  1  0
 26 27  2  0
 27 13  1  0
 19 14  1  0
 27 22  1  0
  1 28  1  0
  1 29  1  0
  1 30  1  0
  2 31  1  0
  2 32  1  0
  3 33  1  6
  4 34  1  0
  4 35  1  0
  4 36  1  0
  5 37  1  0
  5 38  1  0
  6 39  1  0
  6 40  1  0
  7 41  1  0
  7 42  1  0
  8 43  1  0
  8 44  1  0
  9 45  1  0
 10 46  1  0
 10 47  1  0
 11 48  1  0
 11 49  1  0
 12 50  1  0
 15 51  1  0
 16 52  1  0
 17 53  1  0
 18 54  1  0
 21 55  1  0
 21 56  1  0
 21 57  1  0
 23 58  1  0
 24 59  1  0
 25 60  1  0
 26 61  1  0
M  CHG  2   3   1  20   1
M  END
>  <UniqueID>  (19) 
18

>  <SMILES>  (19) 
CC[N@@H+](C)CCCCNCCNc1c2ccccc2[n+](C)c2ccccc12

>  <Energy>  (19) 
91.55681442998046

>  <Genealogy>  (19) 
CC[NH+](C)CCCCNCCNc1c2ccccc2[n+](C)c2ccccc12 (protonated)
CC[N@@H+](C)CCCCNCCNc1c2ccccc2[n+](C)c2ccccc12 (chirality)
CC[N@@H+](C)CCCCNCCNc1c2ccccc2[n+](C)c2ccccc12 (3D coordinates assigned)
CC[N@@H+](C)CCCCNCCNc1c2ccccc2[n+](C)c2ccccc12 (optimized conformer: 91.55681442998046 kcal/mol)

>  <smiles>  (19) 
CCN(C)CCCCNCCNc1c2ccccc2[n+](C)c2ccccc12

>  <score_type>  (19) 
oracle

>  <origin>  (19) 
adg

>  <m_score__min__energy>  (19) 
-4.5999999999999996

>  <m_primary>  (19) 
energy

$$$$
19:0
     RDKit          3D

 50 54  0  0  0  0  0  0  0  0999 V2000
   63.3090   33.8770   46.3600 C   0  0  0  0  0  0  0  0  0  0  0  0
   63.8760   33.4790   47.7180 C   0  0  0  0  0  0  0  0  0  0  0  0
   63.7700   32.0240   47.9110 N   0  0  0  0  0  0  0  0  0  0  0  0
   62.3940   31.5280   47.7340 C   0  0  0  0  0  0  0  0  0  0  0  0
   61.3600   32.4200   48.4450 C   0  0  0  0  0  0  0  0  0  0  0  0
   60.2330   31.5970   49.0950 C   0  0  0  0  0  0  0  0  0  0  0  0
   59.6920   30.5970   48.1630 N   0  0  0  0  0  0  0  0  0  0  0  0
   59.8440   29.2520   48.3080 C   0  0  0  0  0  0  0  0  0  0  0  0
   60.4890   28.5590   49.3470 C   0  0  0  0  0  0  0  0  0  0  0  0
   60.5310   27.1570   49.2950 C   0  0  0  0  0  0  0  0  0  0  0  0
   59.9410   26.4640   48.2210 C   0  0  0  0  0  0  0  0  0  0  0  0
   59.3010   27.1670   47.1890 C   0  0  0  0  0  0  0  0  0  0  0  0
   59.2680   28.5630   47.2650 C   0  0  0  0  0  0  0  0  0  0  0  0
   58.7300   29.5150   46.4280 C   0  0  0  0  0  0  0  0  0  0  0  0
   58.0610   29.3820   45.2170 C   0  0  0  0  0  0  0  0  0  0  0  0
   57.6380   30.5140   44.5510 C   0  0  0  0  0  0  0  0  0  0  0  0
   57.8460   31.8120   45.0700 C   0  0  0  0  0  0  0  0  0  0  0  0
   57.3970   32.9520   44.3760 C   0  0  0  0  0  0  0  0  0  0  0  0
   57.5840   34.2240   44.9070 C   0  0  0  0  0  0  0  0  0  0  0  0
   58.2090   34.3800   46.1370 C   0  0  0  0  0  0  0  0  0  0  0  0
   58.6670   33.2700   46.8460 C   0  0  0  0  0  0  0  0  0  0  0  0
   58.5220   31.9610   46.3340 C   0  0  0  0  0  0  0  0  0  0  0  0
   58.9830   30.7660   46.9960 C   0  0  0  0  0  0  0  0  0  0  0  0
   56.9950   30.0450   43.3310 C   0  0  0  0  0  0  0  0  0  0  0  0
   56.4660   30.7570   42.4390 O   0  0  0  0  0  0  0  0  0  0  0  0
   57.0380   28.6280   43.2680 N   0  0  0  0  0  0  0  0  0  0  0  0
   57.7170   28.1290   44.4570 C   0  0  0  0  0  0  0  0  0  0  0  0
   62.4165   34.5035   46.5046 H   0  0  0  0  0  0  0  0  0  0  0  0
   64.0667   34.4425   45.7977 H   0  0  0  0  0  0  0  0  0  0  0  0
   63.0347   32.9722   45.7977 H   0  0  0  0  0  0  0  0  0  0  0  0
   64.9340   33.7755   47.7702 H   0  0  0  0  0  0  0  0  0  0  0  0
   63.3021   33.9867   48.5073 H   0  0  0  0  0  0  0  0  0  0  0  0
   64.4100   31.5400   47.2380 H   0  0  0  0  0  0  0  0  0  0  0  0
   62.1615   31.5034   46.6591 H   0  0  0  0  0  0  0  0  0  0  0  0
   62.3367   30.5234   48.1783 H   0  0  0  0  0  0  0  0  0  0  0  0
   61.8710   33.0009   49.2269 H   0  0  0  0  0  0  0  0  0  0  0  0
   60.9057   33.0787   47.6902 H   0  0  0  0  0  0  0  0  0  0  0  0
   60.6319   31.0814   49.9810 H   0  0  0  0  0  0  0  0  0  0  0  0
   59.4207   32.2837   49.3752 H   0  0  0  0  0  0  0  0  0  0  0  0
   60.9511   29.1040   50.1833 H   0  0  0  0  0  0  0  0  0  0  0  0
   61.0286   26.5956   50.0994 H   0  0  0  0  0  0  0  0  0  0  0  0
   59.9820   25.3652   48.1907 H   0  0  0  0  0  0  0  0  0  0  0  0
   58.8385   26.6353   46.3444 H   0  0  0  0  0  0  0  0  0  0  0  0
   56.8937   32.8356   43.4049 H   0  0  0  0  0  0  0  0  0  0  0  0
   57.2362   35.1076   44.3517 H   0  0  0  0  0  0  0  0  0  0  0  0
   58.3441   35.3881   46.5559 H   0  0  0  0  0  0  0  0  0  0  0  0
   59.1507   33.4163   47.8231 H   0  0  0  0  0  0  0  0  0  0  0  0
   56.6490   28.0410   42.4970 H   0  0  0  0  0  0  0  0  0  0  0  0
   57.0518   27.4814   45.0470 H   0  0  0  0  0  0  0  0  0  0  0  0
   58.5989   27.5153   44.2210 H   0  0  0  0  0  0  0  0  0  0  0  0
  1  2  1  0
  2  3  1  0
  3  4  1  0
  4  5  1  0
  5  6  1  0
  6  7  1  0
  7  8  1  0
  8  9  2  0
  9 10  1  0
 10 11  2  0
 11 12  1  0
 12 13  2  0
 13 14  1  0
 14 15  2  0
 15 16  1  0
 16 17  2  0
 17 18  1  0
 18 19  2  0
 19 20  1  0
 20 21  2  0
 21 22  1  0
 22 23  2  0
 16 24  1  0
 24 25  2  0
 24 26  1  0
 26 27  1  0
 23  7  1  0
 13  8  1  0
 23 14  1  0
 27 15  1  0
 22 17  1  0
  1 28  1  0
  1 29  1  0
  1 30  1  0
  2 31  1  0
  2 32  1  0
  3 33  1  0
  4 34  1  0
  4 35  1  0
  5 36  1  0
  5 37  1  0
  6 38  1  0
  6 39  1  0
  9 40  1  0
 10 41  1  0
 11 42  1  0
 12 43  1  0
 18 44  1  0
 19 45  1  0
 20 46  1  0
 21 47  1  0
 26 48  1  0
 27 49  1  0
 27 50  1  0
M  END
>  <UniqueID>  (20) 
19

>  <SMILES>  (20) 
CCNCCCn1c2ccccc2c2c3c(c4ccccc4c21)C(=O)NC3

>  <Energy>  (20) 
128.20179075189043

>  <Genealogy>  (20) 
CCNCCCn1c2ccccc2c2c3c(c4ccccc4c21)C(=O)NC3 (3D coordinates assigned)
CCNCCCn1c2ccccc2c2c3c(c4ccccc4c21)C(=O)NC3 (nonaromatic ring conformer: 128.20179075189043 kcal/mol)

>  <smiles>  (20) 
CCNCCCn1c2ccccc2c2c3c(c4ccccc4c21)C(=O)NC3

>  <score_type>  (20) 
oracle

>  <origin>  (20) 
adg

>  <m_score__min__energy>  (20) 
-9.0399999999999991

>  <m_primary>  (20) 
energy

$$$$
20:0
     RDKit          3D

 35 36  0  0  0  0  0  0  0  0999 V2000
   58.2320   26.1190   47.1260 C   0  0  0  0  0  0  0  0  0  0  0  0
   56.7660   25.9240   46.7450 C   0  0  0  0  0  0  0  0  0  0  0  0
   56.3080   26.9600   45.8050 N   0  0  0  0  0  0  0  0  0  0  0  0
   57.3760   27.4960   44.9430 C   0  0  0  0  0  0  0  0  0  0  0  0
   57.3140   29.0030   44.7930 C   0  0  0  0  0  0  0  0  0  0  0  0
   56.3300   29.5970   45.2120 O   0  0  0  0  0  0  0  0  0  0  0  0
   58.3810   29.7270   44.1140 N   0  0  2  0  0  0  0  0  0  0  0  0
   59.6570   29.6750   44.8560 C   0  0  0  0  0  0  0  0  0  0  0  0
   59.5920   30.4120   46.2020 C   0  0  0  0  0  0  0  0  0  0  0  0
   58.8980   31.7440   46.0910 C   0  0  0  0  0  0  0  0  0  0  0  0
   58.9930   32.6550   47.1540 C   0  0  0  0  0  0  0  0  0  0  0  0
   58.3120   33.8730   47.1040 C   0  0  0  0  0  0  0  0  0  0  0  0
   57.5250   34.1890   45.9950 C   0  0  0  0  0  0  0  0  0  0  0  0
   57.4130   33.2850   44.9360 C   0  0  0  0  0  0  0  0  0  0  0  0
   58.0800   32.0510   44.9810 C   0  0  0  0  0  0  0  0  0  0  0  0
   57.9930   31.1180   43.7940 C   0  0  0  0  0  0  0  0  0  0  0  0
   58.3275   26.1317   48.2218 H   0  0  0  0  0  0  0  0  0  0  0  0
   58.8306   25.2926   46.7153 H   0  0  0  0  0  0  0  0  0  0  0  0
   58.5938   27.0732   46.7153 H   0  0  0  0  0  0  0  0  0  0  0  0
   56.6479   24.9371   46.2738 H   0  0  0  0  0  0  0  0  0  0  0  0
   56.1600   25.9975   47.6601 H   0  0  0  0  0  0  0  0  0  0  0  0
   55.8930   27.7460   46.3580 H   0  0  0  0  0  0  0  0  0  0  0  0
   58.3485   27.2268   45.3810 H   0  0  0  0  0  0  0  0  0  0  0  0
   57.2421   27.0594   43.9423 H   0  0  0  0  0  0  0  0  0  0  0  0
   58.5560   29.2550   43.1950 H   0  0  0  0  0  0  0  0  0  0  0  0
   59.9119   28.6216   45.0438 H   0  0  0  0  0  0  0  0  0  0  0  0
   60.4192   30.1752   44.2405 H   0  0  0  0  0  0  0  0  0  0  0  0
   59.0439   29.7864   46.9218 H   0  0  0  0  0  0  0  0  0  0  0  0
   60.6240   30.5968   46.5348 H   0  0  0  0  0  0  0  0  0  0  0  0
   59.6078   32.4081   48.0321 H   0  0  0  0  0  0  0  0  0  0  0  0
   58.3957   34.5841   47.9391 H   0  0  0  0  0  0  0  0  0  0  0  0
   56.9926   35.1508   45.9551 H   0  0  0  0  0  0  0  0  0  0  0  0
   56.7979   33.5420   44.0610 H   0  0  0  0  0  0  0  0  0  0  0  0
   56.9561   31.1157   43.4269 H   0  0  0  0  0  0  0  0  0  0  0  0
   58.6998   31.4875   43.0364 H   0  0  0  0  0  0  0  0  0  0  0  0
  1  2  1  0
  2  3  1  0
  3  4  1  0
  4  5  1  0
  5  6  2  0
  5  7  1  0
  7  8  1  0
  8  9  1  0
  9 10  1  0
 10 11  2  0
 11 12  1  0
 12 13  2  0
 13 14  1  0
 14 15  2  0
 15 16  1  0
 16  7  1  0
 15 10  1  0
  1 17  1  0
  1 18  1  0
  1 19  1  0
  2 20  1  0
  2 21  1  0
  3 22  1  0
  4 23  1  0
  4 24  1  0
  7 25  1  6
  8 26  1  0
  8 27  1  0
  9 28  1  0
  9 29  1  0
 11 30  1  0
 12 31  1  0
 13 32  1  0
 14 33  1  0
 16 34  1  0
 16 35  1  0
M  CHG  1   7   1
M  END
>  <UniqueID>  (21) 
20

>  <SMILES>  (21) 
CCNCC(=O)[N@@H+]1CCc2ccccc2C1

>  <Energy>  (21) 
38.50853632642748

>  <Genealogy>  (21) 
CCNCC(=O)[NH+]1CCc2ccccc2C1 (protonated)
CCNCC(=O)[N@@H+]1CCc2ccccc2C1 (chirality)
CCNCC(=O)[N@@H+]1CCc2ccccc2C1 (3D coordinates assigned)
CCNCC(=O)[N@@H+]1CCc2ccccc2C1 (nonaromatic ring conformer: 38.50853632642748 kcal/mol)

>  <smiles>  (21) 
CCNCC(=O)N1CCc2ccccc2C1

>  <score_type>  (21) 
oracle

>  <origin>  (21) 
adg

>  <m_score__min__energy>  (21) 
-5.0700000000000003

>  <m_primary>  (21) 
energy

$$$$
21:0
     RDKit          3D

 36 38  0  0  0  0  0  0  0  0999 V2000
   57.0100   34.5660   44.9020 C   0  0  0  0  0  0  0  0  0  0  0  0
   57.1600   33.3800   45.8480 C   0  0  0  0  0  0  0  0  0  0  0  0
   58.2660   32.5130   45.4120 N   0  0  0  0  0  0  0  0  0  0  0  0
   58.1010   31.6240   44.2550 C   0  0  0  0  0  0  0  0  0  0  0  0
   57.2420   30.4580   44.6270 C   0  0  0  0  0  0  0  0  0  0  0  0
   55.8850   30.3560   44.4290 C   0  0  0  0  0  0  0  0  0  0  0  0
   55.5250   29.1500   44.7950 O   0  0  0  0  0  0  0  0  0  0  0  0
   56.6140   28.5260   45.1900 C   0  0  0  0  0  0  0  0  0  0  0  0
   56.6200   27.1410   45.6680 C   0  0  0  0  0  0  0  0  0  0  0  0
   57.7370   26.3470   45.8390 C   0  0  0  0  0  0  0  0  0  0  0  0
   57.2630   25.1370   46.2980 C   0  0  0  0  0  0  0  0  0  0  0  0
   55.8900   25.2680   46.3800 C   0  0  0  0  0  0  0  0  0  0  0  0
   55.5380   26.4740   45.9960 O   0  0  0  0  0  0  0  0  0  0  0  0
   57.7220   29.2910   45.0980 N   0  0  0  0  0  0  0  0  0  0  0  0
   59.5370   32.5730   46.0880 C   0  0  0  0  0  0  0  0  0  0  0  0
   60.0590   31.4340   46.7230 C   0  0  0  0  0  0  0  0  0  0  0  0
   61.2860   31.4990   47.3910 C   0  0  0  0  0  0  0  0  0  0  0  0
   62.0000   32.7000   47.4280 C   0  0  0  0  0  0  0  0  0  0  0  0
   63.1900   32.7610   48.0770 F   0  0  0  0  0  0  0  0  0  0  0  0
   61.4870   33.8370   46.8000 C   0  0  0  0  0  0  0  0  0  0  0  0
   60.2590   33.7770   46.1330 C   0  0  0  0  0  0  0  0  0  0  0  0
   56.8932   35.4897   45.4877 H   0  0  0  0  0  0  0  0  0  0  0  0
   57.9053   34.6447   44.2678 H   0  0  0  0  0  0  0  0  0  0  0  0
   56.1232   34.4193   44.2678 H   0  0  0  0  0  0  0  0  0  0  0  0
   57.3678   33.7499   46.8629 H   0  0  0  0  0  0  0  0  0  0  0  0
   56.2265   32.7981   45.8416 H   0  0  0  0  0  0  0  0  0  0  0  0
   57.6257   32.1795   43.4331 H   0  0  0  0  0  0  0  0  0  0  0  0
   59.0882   31.2589   43.9353 H   0  0  0  0  0  0  0  0  0  0  0  0
   55.2234   31.1419   44.0358 H   0  0  0  0  0  0  0  0  0  0  0  0
   58.7848   26.6225   45.6488 H   0  0  0  0  0  0  0  0  0  0  0  0
   57.8579   24.2464   46.5486 H   0  0  0  0  0  0  0  0  0  0  0  0
   55.1972   24.4822   46.7157 H   0  0  0  0  0  0  0  0  0  0  0  0
   59.5003   30.4869   46.6948 H   0  0  0  0  0  0  0  0  0  0  0  0
   61.6894   30.6043   47.8876 H   0  0  0  0  0  0  0  0  0  0  0  0
   62.0498   34.7817   46.8300 H   0  0  0  0  0  0  0  0  0  0  0  0
   59.8574   34.6757   45.6421 H   0  0  0  0  0  0  0  0  0  0  0  0
  1  2  1  0
  2  3  1  0
  3  4  1  0
  4  5  1  0
  5  6  2  0
  6  7  1  0
  7  8  1  0
  8  9  1  0
  9 10  2  0
 10 11  1  0
 11 12  2  0
 12 13  1  0
  8 14  2  0
  3 15  1  0
 15 16  2  0
 16 17  1  0
 17 18  2  0
 18 19  1  0
 18 20  1  0
 20 21  2  0
 14  5  1  0
 21 15  1  0
 13  9  1  0
  1 22  1  0
  1 23  1  0
  1 24  1  0
  2 25  1  0
  2 26  1  0
  4 27  1  0
  4 28  1  0
  6 29  1  0
 10 30  1  0
 11 31  1  0
 12 32  1  0
 16 33  1  0
 17 34  1  0
 20 35  1  0
 21 36  1  0
M  END
>  <UniqueID>  (22) 
21

>  <SMILES>  (22) 
CCN(Cc1coc(-c2ccco2)n1)c1ccc(F)cc1

>  <Energy>  (22) 
91.11786070003963

>  <Genealogy>  (22) 
CCN(Cc1coc(-c2ccco2)n1)c1ccc(F)cc1 (3D coordinates assigned)
CCN(Cc1coc(-c2ccco2)n1)c1ccc(F)cc1 (optimized conformer: 91.11786070003963 kcal/mol)

>  <smiles>  (22) 
CCN(Cc1coc(-c2ccco2)n1)c1ccc(F)cc1

>  <score_type>  (22) 
oracle

>  <origin>  (22) 
adg

>  <m_score__min__energy>  (22) 
-6.8399999999999999

>  <m_primary>  (22) 
energy

$$$$
22:0
     RDKit          3D

 47 48  0  0  0  0  0  0  0  0999 V2000
   57.7710   33.0430   52.3800 C   0  0  0  0  0  0  0  0  0  0  0  0
   57.5260   31.7660   51.5870 C   0  0  0  0  0  0  0  0  0  0  0  0
   57.7680   32.0070   50.1570 N   0  0  0  0  0  0  0  0  0  0  0  0
   59.0510   32.6900   49.9430 C   0  0  0  0  0  0  0  0  0  0  0  0
   59.0990   33.3030   48.5680 C   0  0  0  0  0  0  0  0  0  0  0  0
   59.6410   34.5840   48.3930 C   0  0  0  0  0  0  0  0  0  0  0  0
   59.6830   35.1610   47.1230 C   0  0  0  0  0  0  0  0  0  0  0  0
   59.1710   34.4730   46.0220 C   0  0  0  0  0  0  0  0  0  0  0  0
   58.5970   33.1980   46.1760 C   0  0  0  0  0  0  0  0  0  0  0  0
   58.0490   32.4880   44.9890 C   0  0  0  0  0  0  0  0  0  0  0  0
   58.3950   32.8570   43.6750 C   0  0  0  0  0  0  0  0  0  0  0  0
   57.8430   32.1640   42.5960 C   0  0  0  0  0  0  0  0  0  0  0  0
   56.9670   31.1040   42.8230 C   0  0  0  0  0  0  0  0  0  0  0  0
   56.6670   30.7380   44.1380 C   0  0  0  0  0  0  0  0  0  0  0  0
   55.5610   29.3640   44.4640 S   0  0  0  0  0  0  0  0  0  0  0  0
   56.8290   28.3040   45.2530 C   0  0  0  0  0  0  0  0  0  0  0  0
   58.1940   28.4530   44.5730 C   0  0  0  0  0  0  0  0  0  0  0  0
   59.3070   28.4030   45.5470 N   0  0  0  0  0  0  0  0  0  0  0  0
   60.5290   28.9540   44.9360 C   0  0  0  0  0  0  0  0  0  0  0  0
   58.9840   29.1670   46.7650 C   0  0  0  0  0  0  0  0  0  0  0  0
   57.2030   31.4350   45.1750 N   0  0  0  0  0  0  0  0  0  0  0  0
   58.5790   32.6140   47.4590 C   0  0  0  0  0  0  0  0  0  0  0  0
   57.7282   32.8201   53.4563 H   0  0  0  0  0  0  0  0  0  0  0  0
   58.7629   33.4464   52.1282 H   0  0  0  0  0  0  0  0  0  0  0  0
   56.9988   33.7848   52.1282 H   0  0  0  0  0  0  0  0  0  0  0  0
   58.2070   30.9793   51.9440 H   0  0  0  0  0  0  0  0  0  0  0  0
   56.4822   31.4486   51.7278 H   0  0  0  0  0  0  0  0  0  0  0  0
   57.0130   32.6460   49.8120 H   0  0  0  0  0  0  0  0  0  0  0  0
   59.1696   33.4822   50.6969 H   0  0  0  0  0  0  0  0  0  0  0  0
   59.8647   31.9554   50.0338 H   0  0  0  0  0  0  0  0  0  0  0  0
   60.0344   35.1360   49.2593 H   0  0  0  0  0  0  0  0  0  0  0  0
   60.1210   36.1611   46.9894 H   0  0  0  0  0  0  0  0  0  0  0  0
   59.2168   34.9324   45.0236 H   0  0  0  0  0  0  0  0  0  0  0  0
   59.0960   33.6863   43.4996 H   0  0  0  0  0  0  0  0  0  0  0  0
   58.0995   32.4546   41.5666 H   0  0  0  0  0  0  0  0  0  0  0  0
   56.5174   30.5623   41.9778 H   0  0  0  0  0  0  0  0  0  0  0  0
   56.9245   28.5896   46.3110 H   0  0  0  0  0  0  0  0  0  0  0  0
   56.5094   27.2560   45.1553 H   0  0  0  0  0  0  0  0  0  0  0  0
   58.3203   27.6361   43.8472 H   0  0  0  0  0  0  0  0  0  0  0  0
   58.2209   29.4342   44.0764 H   0  0  0  0  0  0  0  0  0  0  0  0
   61.2253   29.2679   45.7276 H   0  0  0  0  0  0  0  0  0  0  0  0
   61.0063   28.1840   44.3121 H   0  0  0  0  0  0  0  0  0  0  0  0
   60.2679   29.8215   44.3121 H   0  0  0  0  0  0  0  0  0  0  0  0
   59.2374   28.5676   47.6518 H   0  0  0  0  0  0  0  0  0  0  0  0
   59.5640   30.1016   46.7762 H   0  0  0  0  0  0  0  0  0  0  0  0
   57.9095   29.4021   46.7762 H   0  0  0  0  0  0  0  0  0  0  0  0
   58.1535   31.6086   47.5934 H   0  0  0  0  0  0  0  0  0  0  0  0
  1  2  1  0
  2  3  1  0
  3  4  1  0
  4  5  1  0
  5  6  2  0
  6  7  1  0
  7  8  2  0
  8  9  1  0
  9 10  1  0
 10 11  2  0
 11 12  1  0
 12 13  2  0
 13 14  1  0
 14 15  1  0
 15 16  1  0
 16 17  1  0
 17 18  1  0
 18 19  1  0
 18 20  1  0
 14 21  2  0
  9 22  2  0
 22  5  1  0
 21 10  1  0
  1 23  1  0
  1 24  1  0
  1 25  1  0
  2 26  1  0
  2 27  1  0
  3 28  1  0
  4 29  1  0
  4 30  1  0
  6 31  1  0
  7 32  1  0
  8 33  1  0
 11 34  1  0
 12 35  1  0
 13 36  1  0
 16 37  1  0
 16 38  1  0
 17 39  1  0
 17 40  1  0
 19 41  1  0
 19 42  1  0
 19 43  1  0
 20 44  1  0
 20 45  1  0
 20 46  1  0
 22 47  1  0
M  END
>  <UniqueID>  (23) 
22

>  <SMILES>  (23) 
CCNCc1cccc(-c2cccc(SCCN(C)C)n2)c1

>  <Energy>  (23) 
40.55927228844656

>  <Genealogy>  (23) 
CCNCc1cccc(-c2cccc(SCCN(C)C)n2)c1 (3D coordinates assigned)
CCNCc1cccc(-c2cccc(SCCN(C)C)n2)c1 (optimized conformer: 40.55927228844656 kcal/mol)

>  <smiles>  (23) 
CCNCc1cccc(-c2cccc(SCCN(C)C)n2)c1

>  <score_type>  (23) 
oracle

>  <origin>  (23) 
adg

>  <m_score__min__energy>  (23) 
-7.7999999999999998

>  <m_primary>  (23) 
energy

$$$$
