0:0
     RDKit          3D

 30 33  0  0  0  0  0  0  0  0999 V2000
   54.5240   26.3330   45.9680 O   0  0  0  0  0  0  0  0  0  0  0  0
   55.8970   26.3010   45.8940 N   0  0  0  0  0  0  0  0  0  0  0  0
   56.6010   27.4100   45.8090 N   0  0  0  0  0  0  0  0  0  0  0  0
   57.9500   27.4080   45.7340 C   0  0  0  0  0  0  0  0  0  0  0  0
   58.8400   28.4740   45.6410 C   0  0  0  0  0  0  0  0  0  0  0  0
   58.4960   29.9050   45.5980 C   0  0  0  0  0  0  0  0  0  0  0  0
   58.9490   30.7390   46.6020 C   0  0  0  0  0  0  0  0  0  0  0  0
   58.6000   32.0870   46.5200 C   0  0  0  0  0  0  0  0  0  0  0  0
   57.8340   32.5150   45.4610 C   0  0  0  0  0  0  0  0  0  0  0  0
   57.4020   34.2110   45.3710 Cl  0  0  0  0  0  0  0  0  0  0  0  0
   57.3800   31.6930   44.4590 C   0  0  0  0  0  0  0  0  0  0  0  0
   57.7280   30.3480   44.5390 C   0  0  0  0  0  0  0  0  0  0  0  0
   60.0920   27.8950   45.5960 C   0  0  0  0  0  0  0  0  0  0  0  0
   59.9630   26.5610   45.6610 N   0  0  0  0  0  0  0  0  0  0  0  0
   58.6760   26.2710   45.7430 N   0  0  0  0  0  0  0  0  0  0  0  0
   57.9680   25.1070   45.8320 C   0  0  0  0  0  0  0  0  0  0  0  0
   58.6330   23.8950   45.8470 C   0  0  0  0  0  0  0  0  0  0  0  0
   57.9040   22.7320   45.9360 C   0  0  0  0  0  0  0  0  0  0  0  0
   56.5480   22.7160   46.0110 C   0  0  0  0  0  0  0  0  0  0  0  0
   55.8900   23.9480   45.9950 C   0  0  0  0  0  0  0  0  0  0  0  0
   56.5990   25.1410   45.9050 C   0  0  0  0  0  0  0  0  0  0  0  0
   59.5601   30.3555   47.4324 H   0  0  0  0  0  0  0  0  0  0  0  0
   58.9326   32.7974   47.2912 H   0  0  0  0  0  0  0  0  0  0  0  0
   56.7688   32.0803   43.6305 H   0  0  0  0  0  0  0  0  0  0  0  0
   57.3937   29.6425   43.7641 H   0  0  0  0  0  0  0  0  0  0  0  0
   61.0442   28.4404   45.5191 H   0  0  0  0  0  0  0  0  0  0  0  0
   59.7309   23.8612   45.7885 H   0  0  0  0  0  0  0  0  0  0  0  0
   58.4428   21.7730   45.9469 H   0  0  0  0  0  0  0  0  0  0  0  0
   55.9902   21.7705   46.0815 H   0  0  0  0  0  0  0  0  0  0  0  0
   54.7919   23.9751   46.0546 H   0  0  0  0  0  0  0  0  0  0  0  0
  1  2  1  0
  2  3  2  0
  3  4  1  0
  4  5  2  0
  5  6  1  0
  6  7  2  0
  7  8  1  0
  8  9  2  0
  9 10  1  0
  9 11  1  0
 11 12  2  0
  5 13  1  0
 13 14  2  0
 14 15  1  0
 15 16  1  0
 16 17  2  0
 17 18  1  0
 18 19  2  0
 19 20  1  0
 20 21  2  0
 21  2  1  0
 15  4  1  0
 21 16  1  0
 12  6  1  0
  7 22  1  0
  8 23  1  0
 11 24  1  0
 12 25  1  0
 13 26  1  0
 17 27  1  0
 18 28  1  0
 19 29  1  0
 20 30  1  0
M  CHG  2   1  -1   2   1
M  END
>  <smiles>  (1) 
[O-][n+]1nc2c(-c3ccc(Cl)cc3)cnn2c2ccccc21

>  <score_type>  (1) 
oracle

>  <origin>  (1) 
adg

>  <m_score__min__energy>  (1) 
-8.7799999999999994

>  <m_primary>  (1) 
energy

$$$$
1:0
     RDKit          3D

 66 70  0  0  0  0  0  0  0  0999 V2000
   56.9810   23.6900   48.3750 C   0  0  0  0  0  0  0  0  0  0  0  0
   57.8120   23.6980   47.2190 O   0  0  0  0  0  0  0  0  0  0  0  0
   57.3410   23.7630   45.8990 C   0  0  0  0  0  0  0  0  0  0  0  0
   56.4510   22.8040   45.3760 C   0  0  0  0  0  0  0  0  0  0  0  0
   56.0350   22.8790   44.0440 C   0  0  0  0  0  0  0  0  0  0  0  0
   56.4970   23.9080   43.2220 C   0  0  0  0  0  0  0  0  0  0  0  0
   57.3740   24.8690   43.7300 C   0  0  0  0  0  0  0  0  0  0  0  0
   57.7910   24.8090   45.0690 C   0  0  0  0  0  0  0  0  0  0  0  0
   58.6900   25.8040   45.5840 N   0  0  0  0  0  0  0  0  0  0  0  0
   60.0420   25.4170   46.0040 C   0  0  0  0  0  0  0  0  0  0  0  0
   60.6430   26.4780   46.9310 C   0  0  0  0  0  0  0  0  0  0  0  0
   59.5670   27.0770   47.7440 N   0  0  0  0  0  0  0  0  0  0  0  0
   60.1020   27.8380   48.8960 C   0  0  0  0  0  0  0  0  0  0  0  0
   59.0930   28.8950   49.3470 C   0  0  0  0  0  0  0  0  0  0  0  0
   59.5430   30.2430   48.9260 N   0  0  0  0  0  0  0  0  0  0  0  0
   61.0150   30.3200   48.8240 C   0  0  0  0  0  0  0  0  0  0  0  0
   61.4310   31.6250   48.1240 C   0  0  0  0  0  0  0  0  0  0  0  0
   60.3670   32.6300   48.2420 N   0  0  0  0  0  0  0  0  0  0  0  0
   59.8710   33.2870   47.0610 C   0  0  0  0  0  0  0  0  0  0  0  0
   60.1110   34.6560   46.8860 C   0  0  0  0  0  0  0  0  0  0  0  0
   59.5780   35.3200   45.7830 C   0  0  0  0  0  0  0  0  0  0  0  0
   58.8280   34.6470   44.8700 N   0  0  0  0  0  0  0  0  0  0  0  0
   58.5820   33.3110   44.9950 C   0  0  0  0  0  0  0  0  0  0  0  0
   57.8130   32.6430   44.0290 C   0  0  0  0  0  0  0  0  0  0  0  0
   57.5740   31.2700   44.1450 C   0  0  0  0  0  0  0  0  0  0  0  0
   56.6150   30.4420   42.9330 Cl  0  0  0  0  0  0  0  0  0  0  0  0
   58.1060   30.5550   45.2210 C   0  0  0  0  0  0  0  0  0  0  0  0
   58.8720   31.2090   46.1900 C   0  0  0  0  0  0  0  0  0  0  0  0
   59.1080   32.5920   46.0980 C   0  0  0  0  0  0  0  0  0  0  0  0
   59.6080   32.6840   49.4930 C   0  0  0  0  0  0  0  0  0  0  0  0
   59.0230   31.2960   49.8270 C   0  0  0  0  0  0  0  0  0  0  0  0
   58.6730   27.9070   46.9060 C   0  0  0  0  0  0  0  0  0  0  0  0
   58.3120   27.2210   45.5710 C   0  0  0  0  0  0  0  0  0  0  0  0
   57.6090   23.6960   49.2781 H   0  0  0  0  0  0  0  0  0  0  0  0
   56.3373   24.5820   48.3700 H   0  0  0  0  0  0  0  0  0  0  0  0
   56.3546   22.7858   48.3700 H   0  0  0  0  0  0  0  0  0  0  0  0
   56.0817   21.9920   46.0196 H   0  0  0  0  0  0  0  0  0  0  0  0
   55.3418   22.1252   43.6424 H   0  0  0  0  0  0  0  0  0  0  0  0
   56.1701   23.9622   42.1731 H   0  0  0  0  0  0  0  0  0  0  0  0
   57.7394   25.6762   43.0781 H   0  0  0  0  0  0  0  0  0  0  0  0
   59.9937   24.4563   46.5376 H   0  0  0  0  0  0  0  0  0  0  0  0
   60.6779   25.3249   45.1112 H   0  0  0  0  0  0  0  0  0  0  0  0
   61.3869   26.0100   47.5925 H   0  0  0  0  0  0  0  0  0  0  0  0
   61.1316   27.2596   46.3307 H   0  0  0  0  0  0  0  0  0  0  0  0
   60.2994   27.1461   49.7281 H   0  0  0  0  0  0  0  0  0  0  0  0
   61.0338   28.3382   48.5934 H   0  0  0  0  0  0  0  0  0  0  0  0
   58.1142   28.6803   48.8933 H   0  0  0  0  0  0  0  0  0  0  0  0
   59.0116   28.8694   50.4437 H   0  0  0  0  0  0  0  0  0  0  0  0
   61.4511   30.2941   49.8335 H   0  0  0  0  0  0  0  0  0  0  0  0
   61.3794   29.4650   48.2357 H   0  0  0  0  0  0  0  0  0  0  0  0
   62.3482   32.0113   48.5925 H   0  0  0  0  0  0  0  0  0  0  0  0
   61.6097   31.4175   47.0586 H   0  0  0  0  0  0  0  0  0  0  0  0
   60.7196   35.2063   47.6186 H   0  0  0  0  0  0  0  0  0  0  0  0
   59.7652   36.3958   45.6500 H   0  0  0  0  0  0  0  0  0  0  0  0
   58.4400   35.1790   44.0590 H   0  0  0  0  0  0  0  0  0  0  0  0
   57.3969   33.2016   43.1777 H   0  0  0  0  0  0  0  0  0  0  0  0
   57.9214   29.4739   45.3058 H   0  0  0  0  0  0  0  0  0  0  0  0
   59.2932   30.6378   47.0304 H   0  0  0  0  0  0  0  0  0  0  0  0
   60.2747   33.0021   50.3081 H   0  0  0  0  0  0  0  0  0  0  0  0
   58.7820   33.4014   49.3787 H   0  0  0  0  0  0  0  0  0  0  0  0
   59.2878   31.0391   50.8633 H   0  0  0  0  0  0  0  0  0  0  0  0
   57.9320   31.3468   49.6957 H   0  0  0  0  0  0  0  0  0  0  0  0
   57.7458   28.1021   47.4648 H   0  0  0  0  0  0  0  0  0  0  0  0
   59.2058   28.8400   46.6700 H   0  0  0  0  0  0  0  0  0  0  0  0
   57.2271   27.3015   45.4080 H   0  0  0  0  0  0  0  0  0  0  0  0
   58.8638   27.7214   44.7617 H   0  0  0  0  0  0  0  0  0  0  0  0
  1  2  1  0
  2  3  1  0
  3  4  2  0
  4  5  1  0
  5  6  2  0
  6  7  1  0
  7  8  2  0
  8  9  1  0
  9 10  1  0
 10 11  1  0
 11 12  1  0
 12 13  1  0
 13 14  1  0
 14 15  1  0
 15 16  1  0
 16 17  1  0
 17 18  1  0
 18 19  1  0
 19 20  2  0
 20 21  1  0
 21 22  2  0
 22 23  1  0
 23 24  2  0
 24 25  1  0
 25 26  1  0
 25 27  2  0
 27 28  1  0
 28 29  2  0
 18 30  1  0
 30 31  1  0
 12 32  1  0
 32 33  1  0
  8  3  1  0
 33  9  1  0
 31 15  1  0
 29 19  1  0
 29 23  1  0
  1 34  1  0
  1 35  1  0
  1 36  1  0
  4 37  1  0
  5 38  1  0
  6 39  1  0
  7 40  1  0
 10 41  1  0
 10 42  1  0
 11 43  1  0
 11 44  1  0
 13 45  1  0
 13 46  1  0
 14 47  1  0
 14 48  1  0
 16 49  1  0
 16 50  1  0
 17 51  1  0
 17 52  1  0
 20 53  1  0
 21 54  1  0
 22 55  1  0
 24 56  1  0
 27 57  1  0
 28 58  1  0
 30 59  1  0
 30 60  1  0
 31 61  1  0
 31 62  1  0
 32 63  1  0
 32 64  1  0
 33 65  1  0
 33 66  1  0
M  CHG  1  22   1
M  END
>  <UniqueID>  (2) 
1

>  <SMILES>  (2) 
COc1ccccc1N1CCN(CCN2CCN(c3cc[nH+]c4cc(Cl)ccc34)CC2)CC1

>  <Energy>  (2) 
95.28352534304831

>  <Genealogy>  (2) 
COc1ccccc1N1CCN(CCN2CCN(c3cc[nH+]c4cc(Cl)ccc34)CC2)CC1 (protonated)
COc1ccccc1N1CCN(CCN2CCN(c3cc[nH+]c4cc(Cl)ccc34)CC2)CC1 (3D coordinates assigned)
COc1ccccc1N1CCN(CCN2CCN(c3cc[nH+]c4cc(Cl)ccc34)CC2)CC1 (nonaromatic ring conformer: 95.28352534304831 kcal/mol)

>  <smiles>  (2) 
COc1ccccc1N1CCN(CCN2CCN(c3ccnc4cc(Cl)ccc34)CC2)CC1

>  <score_type>  (2) 
oracle

>  <origin>  (2) 
adg

>  <m_score__min__energy>  (2) 
-7.96

>  <m_primary>  (2) 
energy

$$$$
2:0
     RDKit          3D

 39 42  0  0  0  0  0  0  0  0999 V2000
   59.9400   23.9980   45.9890 O   0  0  0  0  0  0  0  0  0  0  0  0
   59.6170   25.2090   46.1180 C   0  0  0  0  0  0  0  0  0  0  0  0
   58.2540   25.6190   45.9390 N   0  0  0  0  0  0  0  0  0  0  0  0
   57.7950   26.7250   45.1500 C   0  0  0  0  0  0  0  0  0  0  0  0
   58.1470   26.8720   43.7950 C   0  0  0  0  0  0  0  0  0  0  0  0
   57.6920   27.9750   43.0650 C   0  0  0  0  0  0  0  0  0  0  0  0
   56.9000   28.9480   43.6840 C   0  0  0  0  0  0  0  0  0  0  0  0
   56.3210   30.3620   42.7460 S   0  0  0  0  0  0  0  0  0  0  0  0
   57.1730   31.5220   43.8050 C   0  0  0  0  0  0  0  0  0  0  0  0
   57.0210   31.5460   45.1510 N   0  0  0  0  0  0  0  0  0  0  0  0
   57.7760   32.5300   45.7010 C   0  0  0  0  0  0  0  0  0  0  0  0
   57.8370   32.8070   47.0680 C   0  0  0  0  0  0  0  0  0  0  0  0
   58.6640   33.8560   47.5080 C   0  0  0  0  0  0  0  0  0  0  0  0
   59.4150   34.6100   46.5840 C   0  0  0  0  0  0  0  0  0  0  0  0
   59.3460   34.3220   45.2120 C   0  0  0  0  0  0  0  0  0  0  0  0
   58.5200   33.2790   44.8010 C   0  0  0  0  0  0  0  0  0  0  0  0
   58.2410   32.7100   43.2460 S   0  0  0  0  0  0  0  0  0  0  0  0
   56.5650   28.8180   45.0360 C   0  0  0  0  0  0  0  0  0  0  0  0
   57.0200   27.7160   45.7670 C   0  0  0  0  0  0  0  0  0  0  0  0
   60.6070   26.1470   46.5500 N   0  0  0  0  0  0  0  0  0  0  0  0
   60.4390   27.5700   46.6430 C   0  0  0  0  0  0  0  0  0  0  0  0
   60.4290   28.3840   45.4950 C   0  0  0  0  0  0  0  0  0  0  0  0
   60.2940   29.7700   45.6130 C   0  0  0  0  0  0  0  0  0  0  0  0
   60.1820   30.3570   46.8750 C   0  0  0  0  0  0  0  0  0  0  0  0
   60.2150   29.5610   48.0220 C   0  0  0  0  0  0  0  0  0  0  0  0
   60.3530   28.1720   47.9110 C   0  0  0  0  0  0  0  0  0  0  0  0
   60.4000   27.1990   49.3750 Cl  0  0  0  0  0  0  0  0  0  0  0  0
   58.7820   26.1169   43.3086 H   0  0  0  0  0  0  0  0  0  0  0  0
   57.9574   28.0775   42.0024 H   0  0  0  0  0  0  0  0  0  0  0  0
   57.2499   32.2165   47.7867 H   0  0  0  0  0  0  0  0  0  0  0  0
   58.7251   34.0897   48.5812 H   0  0  0  0  0  0  0  0  0  0  0  0
   60.0584   35.4282   46.9398 H   0  0  0  0  0  0  0  0  0  0  0  0
   59.9280   34.9038   44.4821 H   0  0  0  0  0  0  0  0  0  0  0  0
   55.9434   29.5829   45.5244 H   0  0  0  0  0  0  0  0  0  0  0  0
   56.7677   27.6265   46.8339 H   0  0  0  0  0  0  0  0  0  0  0  0
   60.5280   27.9268   44.4994 H   0  0  0  0  0  0  0  0  0  0  0  0
   60.2760   30.3991   44.7108 H   0  0  0  0  0  0  0  0  0  0  0  0
   60.0677   31.4473   46.9658 H   0  0  0  0  0  0  0  0  0  0  0  0
   60.1324   30.0264   49.0153 H   0  0  0  0  0  0  0  0  0  0  0  0
  1  2  2  0
  2  3  1  0
  3  4  1  0
  4  5  2  0
  5  6  1  0
  6  7  2  0
  7  8  1  0
  8  9  1  0
  9 10  2  0
 10 11  1  0
 11 12  2  0
 12 13  1  0
 13 14  2  0
 14 15  1  0
 15 16  2  0
 16 17  1  0
  7 18  1  0
 18 19  2  0
  2 20  1  0
 20 21  1  0
 21 22  2  0
 22 23  1  0
 23 24  2  0
 24 25  1  0
 25 26  2  0
 26 27  1  0
 19  4  1  0
 26 21  1  0
 17  9  1  0
 16 11  1  0
  5 28  1  0
  6 29  1  0
 12 30  1  0
 13 31  1  0
 14 32  1  0
 15 33  1  0
 18 34  1  0
 19 35  1  0
 22 36  1  0
 23 37  1  0
 24 38  1  0
 25 39  1  0
M  CHG  2   3  -1  20  -1
M  END
>  <UniqueID>  (3) 
2

>  <SMILES>  (3) 
O=C([N-]c1ccc(Sc2nc3ccccc3s2)cc1)[N-]c1ccccc1Cl

>  <Energy>  (3) 
81.26476716356132

>  <Genealogy>  (3) 
O=C([N-]c1ccc(Sc2nc3ccccc3s2)cc1)[N-]c1ccccc1Cl (protonated)
O=C([N-]c1ccc(Sc2nc3ccccc3s2)cc1)[N-]c1ccccc1Cl (3D coordinates assigned)
O=C([N-]c1ccc(Sc2nc3ccccc3s2)cc1)[N-]c1ccccc1Cl (optimized conformer: 81.26476716356132 kcal/mol)

>  <smiles>  (3) 
O=C(Nc1ccc(Sc2nc3ccccc3s2)cc1)Nc1ccccc1Cl

>  <score_type>  (3) 
oracle

>  <origin>  (3) 
adg

>  <m_score__min__energy>  (3) 
-12.720000000000001

>  <m_primary>  (3) 
energy

$$$$
3:0
     RDKit          3D

 30 31  0  0  0  0  0  0  0  0999 V2000
   57.9100   25.8540   47.1390 C   0  0  0  0  0  0  0  0  0  0  0  0
   58.0300   26.7550   45.9010 C   0  0  1  0  0  0  0  0  0  0  0  0
   56.6580   27.3050   45.4610 C   0  0  0  0  0  0  0  0  0  0  0  0
   56.6480   28.7700   45.4320 N   0  0  0  0  0  0  0  0  0  0  0  0
   56.8320   29.5150   44.2180 C   0  0  0  0  0  0  0  0  0  0  0  0
   56.6130   28.9690   43.1030 O   0  0  0  0  0  0  0  0  0  0  0  0
   57.3040   30.9090   44.2450 C   0  0  0  0  0  0  0  0  0  0  0  0
   57.6560   31.6860   43.1550 C   0  0  0  0  0  0  0  0  0  0  0  0
   58.0000   32.9180   43.6690 C   0  0  0  0  0  0  0  0  0  0  0  0
   57.8350   32.8150   45.0340 C   0  0  0  0  0  0  0  0  0  0  0  0
   58.1510   34.2060   46.2990 Br  0  0  0  0  0  0  0  0  0  0  0  0
   57.4200   31.6110   45.3490 O   0  0  0  0  0  0  0  0  0  0  0  0
   59.0220   27.8760   46.1230 C   0  0  0  0  0  0  0  0  0  0  0  0
   60.1600   27.9940   45.3130 C   0  0  0  0  0  0  0  0  0  0  0  0
   60.9980   29.0510   45.4830 N   0  0  0  0  0  0  0  0  0  0  0  0
   60.7480   30.0050   46.4180 C   0  0  0  0  0  0  0  0  0  0  0  0
   59.6090   29.8980   47.2180 C   0  0  0  0  0  0  0  0  0  0  0  0
   59.2030   31.2350   48.5170 Br  0  0  0  0  0  0  0  0  0  0  0  0
   58.7740   28.8420   47.0510 N   0  0  0  0  0  0  0  0  0  0  0  0
   57.9917   26.4675   48.0483 H   0  0  0  0  0  0  0  0  0  0  0  0
   56.9359   25.3431   47.1277 H   0  0  0  0  0  0  0  0  0  0  0  0
   58.7165   25.1060   47.1277 H   0  0  0  0  0  0  0  0  0  0  0  0
   58.4130   26.1284   45.0821 H   0  0  0  0  0  0  0  0  0  0  0  0
   56.4280   26.9265   44.4541 H   0  0  0  0  0  0  0  0  0  0  0  0
   55.9039   26.9702   46.1885 H   0  0  0  0  0  0  0  0  0  0  0  0
   56.6240   29.2730   46.3460 H   0  0  0  0  0  0  0  0  0  0  0  0
   57.6603   31.3831   42.0975 H   0  0  0  0  0  0  0  0  0  0  0  0
   58.3367   33.8011   43.1062 H   0  0  0  0  0  0  0  0  0  0  0  0
   60.3736   27.2362   44.5448 H   0  0  0  0  0  0  0  0  0  0  0  0
   61.4367   30.8535   46.5433 H   0  0  0  0  0  0  0  0  0  0  0  0
  1  2  1  0
  2  3  1  0
  3  4  1  0
  4  5  1  0
  5  6  2  0
  5  7  1  0
  7  8  2  0
  8  9  1  0
  9 10  2  0
 10 11  1  0
 10 12  1  0
  2 13  1  0
 13 14  2  0
 14 15  1  0
 15 16  2  0
 16 17  1  0
 17 18  1  0
 17 19  2  0
 12  7  1  0
 19 13  1  0
  1 20  1  0
  1 21  1  0
  1 22  1  0
  2 23  1  6
  3 24  1  0
  3 25  1  0
  4 26  1  0
  8 27  1  0
  9 28  1  0
 14 29  1  0
 16 30  1  0
M  END
>  <UniqueID>  (4) 
3

>  <SMILES>  (4) 
C[C@@H](CNC(=O)c1ccc(Br)o1)c1cncc(Br)n1

>  <Energy>  (4) 
51.54178062189579

>  <Genealogy>  (4) 
C[C@@H](CNC(=O)c1ccc(Br)o1)c1cncc(Br)n1 (chirality)
C[C@@H](CNC(=O)c1ccc(Br)o1)c1cncc(Br)n1 (3D coordinates assigned)
C[C@@H](CNC(=O)c1ccc(Br)o1)c1cncc(Br)n1 (optimized conformer: 51.54178062189579 kcal/mol)

>  <smiles>  (4) 
CC(CNC(=O)c1ccc(Br)o1)c1cncc(Br)n1

>  <score_type>  (4) 
oracle

>  <origin>  (4) 
adg

>  <m_score__min__energy>  (4) 
-7.4500000000000002

>  <m_primary>  (4) 
energy

$$$$
4:0
     RDKit          3D

 45 48  0  0  0  0  0  0  0  0999 V2000
   55.6860   25.6800   46.3980 O   0  0  0  0  0  0  0  0  0  0  0  0
   56.7740   26.3110   46.3240 C   0  0  0  0  0  0  0  0  0  0  0  0
   57.6620   26.3260   47.4420 N   0  0  0  0  0  0  0  0  0  0  0  0
   58.7570   27.2450   47.4570 C   0  0  0  0  0  0  0  0  0  0  0  0
   59.6940   27.1830   48.4920 C   0  0  0  0  0  0  0  0  0  0  0  0
   60.6990   28.1480   48.5840 C   0  0  0  0  0  0  0  0  0  0  0  0
   60.7440   29.1960   47.6640 C   0  0  0  0  0  0  0  0  0  0  0  0
   59.8040   29.2690   46.6320 C   0  0  0  0  0  0  0  0  0  0  0  0
   58.8380   28.2540   46.4710 C   0  0  0  0  0  0  0  0  0  0  0  0
   57.7100   28.3160   45.4320 C   0  0  1  0  0  0  0  0  0  0  0  0
   57.9020   29.2650   44.2010 C   0  0  0  0  0  0  0  0  0  0  0  0
   57.9080   30.7630   44.4370 C   0  0  0  0  0  0  0  0  0  0  0  0
   58.0320   31.6330   43.3360 C   0  0  0  0  0  0  0  0  0  0  0  0
   58.0350   33.0180   43.5190 C   0  0  0  0  0  0  0  0  0  0  0  0
   57.9020   33.5560   44.8010 C   0  0  0  0  0  0  0  0  0  0  0  0
   57.9060   34.8990   44.9780 F   0  0  0  0  0  0  0  0  0  0  0  0
   57.7620   32.7050   45.9000 C   0  0  0  0  0  0  0  0  0  0  0  0
   57.7570   31.3190   45.7220 C   0  0  0  0  0  0  0  0  0  0  0  0
   57.1680   26.9610   45.0900 N   0  0  1  0  0  0  0  0  0  0  0  0
   58.1280   26.0850   44.3620 C   0  0  0  0  0  0  0  0  0  0  0  0
   57.6810   24.6380   44.3050 C   0  0  0  0  0  0  0  0  0  0  0  0
   58.2690   23.6840   45.1540 C   0  0  0  0  0  0  0  0  0  0  0  0
   57.8750   22.3440   45.0850 C   0  0  0  0  0  0  0  0  0  0  0  0
   56.8970   21.9480   44.1680 C   0  0  0  0  0  0  0  0  0  0  0  0
   56.3140   22.8890   43.3180 C   0  0  0  0  0  0  0  0  0  0  0  0
   56.7040   24.2310   43.3820 C   0  0  0  0  0  0  0  0  0  0  0  0
   59.6398   26.3734   49.2347 H   0  0  0  0  0  0  0  0  0  0  0  0
   61.4544   28.0821   49.3809 H   0  0  0  0  0  0  0  0  0  0  0  0
   61.5226   29.9681   47.7512 H   0  0  0  0  0  0  0  0  0  0  0  0
   59.8178   30.1243   45.9404 H   0  0  0  0  0  0  0  0  0  0  0  0
   56.9178   28.8566   45.9707 H   0  0  0  0  0  0  0  0  0  0  0  0
   58.8653   29.0053   43.7377 H   0  0  0  0  0  0  0  0  0  0  0  0
   57.0067   29.0927   43.5855 H   0  0  0  0  0  0  0  0  0  0  0  0
   58.1274   31.2176   42.3219 H   0  0  0  0  0  0  0  0  0  0  0  0
   58.1423   33.6861   42.6517 H   0  0  0  0  0  0  0  0  0  0  0  0
   57.6552   33.1278   46.9099 H   0  0  0  0  0  0  0  0  0  0  0  0
   57.6342   30.6573   46.5921 H   0  0  0  0  0  0  0  0  0  0  0  0
   56.3150   27.0880   44.4960 H   0  0  0  0  0  0  0  0  0  0  0  0
   58.2345   26.4600   43.3334 H   0  0  0  0  0  0  0  0  0  0  0  0
   59.0815   26.1142   44.9097 H   0  0  0  0  0  0  0  0  0  0  0  0
   59.0410   23.9924   45.8744 H   0  0  0  0  0  0  0  0  0  0  0  0
   58.3351   21.6009   45.7529 H   0  0  0  0  0  0  0  0  0  0  0  0
   56.5867   20.8939   44.1163 H   0  0  0  0  0  0  0  0  0  0  0  0
   55.5460   22.5747   42.5960 H   0  0  0  0  0  0  0  0  0  0  0  0
   56.2444   24.9689   42.7080 H   0  0  0  0  0  0  0  0  0  0  0  0
  1  2  2  0
  2  3  1  0
  3  4  1  0
  4  5  2  0
  5  6  1  0
  6  7  2  0
  7  8  1  0
  8  9  2  0
  9 10  1  0
 10 11  1  0
 11 12  1  0
 12 13  2  0
 13 14  1  0
 14 15  2  0
 15 16  1  0
 15 17  1  0
 17 18  2  0
 10 19  1  0
 19 20  1  0
 20 21  1  0
 21 22  2  0
 22 23  1  0
 23 24  2  0
 24 25  1  0
 25 26  2  0
 19  2  1  0
 26 21  1  0
  9  4  1  0
 18 12  1  0
  5 27  1  0
  6 28  1  0
  7 29  1  0
  8 30  1  0
 10 31  1  1
 11 32  1  0
 11 33  1  0
 13 34  1  0
 14 35  1  0
 17 36  1  0
 18 37  1  0
 19 38  1  6
 20 39  1  0
 20 40  1  0
 22 41  1  0
 23 42  1  0
 24 43  1  0
 25 44  1  0
 26 45  1  0
M  CHG  2   3  -1  19   1
M  END
>  <UniqueID>  (5) 
4

>  <SMILES>  (5) 
O=C1[N-]c2ccccc2[C@@H](Cc2ccc(F)cc2)[N@H+]1Cc1ccccc1

>  <Energy>  (5) 
70.38259783630906

>  <Genealogy>  (5) 
O=C1[N-]c2ccccc2C(Cc2ccc(F)cc2)[NH+]1Cc1ccccc1 (protonated)
O=C1[N-]c2ccccc2[C@@H](Cc2ccc(F)cc2)[N@H+]1Cc1ccccc1 (chirality)
O=C1[N-]c2ccccc2[C@@H](Cc2ccc(F)cc2)[N@H+]1Cc1ccccc1 (3D coordinates assigned)
O=C1[N-]c2ccccc2[C@@H](Cc2ccc(F)cc2)[N@H+]1Cc1ccccc1 (nonaromatic ring conformer: 70.38259783630906 kcal/mol)

>  <smiles>  (5) 
O=C1Nc2ccccc2C(Cc2ccc(F)cc2)N1Cc1ccccc1

>  <score_type>  (5) 
oracle

>  <origin>  (5) 
adg

>  <m_score__min__energy>  (5) 
-8.1400000000000006

>  <m_primary>  (5) 
energy

$$$$
5:0
     RDKit          3D

 42 45  0  0  0  0  0  0  0  0999 V2000
   57.1960   25.8210   46.7220 C   0  0  0  0  0  0  0  0  0  0  0  0
   57.9920   26.8960   46.0380 C   0  0  0  0  0  0  0  0  0  0  0  0
   58.1500   26.8760   44.6460 C   0  0  0  0  0  0  0  0  0  0  0  0
   58.9230   27.8460   44.0130 C   0  0  0  0  0  0  0  0  0  0  0  0
   59.5390   28.8520   44.7590 C   0  0  0  0  0  0  0  0  0  0  0  0
   59.3720   28.9170   46.1570 C   0  0  0  0  0  0  0  0  0  0  0  0
   58.6160   27.9060   46.7930 C   0  0  0  0  0  0  0  0  0  0  0  0
   58.5130   27.8780   48.1890 O   0  0  0  0  0  0  0  0  0  0  0  0
   58.8800   28.9710   49.0250 C   0  0  0  0  0  0  0  0  0  0  0  0
   59.9590   29.7960   48.3980 C   0  0  0  0  0  0  0  0  0  0  0  0
   60.7820   30.3980   49.1390 O   0  0  0  0  0  0  0  0  0  0  0  0
   60.0090   29.9420   46.9630 N   0  0  0  0  0  0  0  0  0  0  0  0
   60.7830   31.0540   46.3700 C   0  0  0  0  0  0  0  0  0  0  0  0
   60.1920   32.4150   46.6990 C   0  0  0  0  0  0  0  0  0  0  0  0
   60.8060   33.1850   47.7060 C   0  0  0  0  0  0  0  0  0  0  0  0
   60.3390   34.4630   48.0160 C   0  0  0  0  0  0  0  0  0  0  0  0
   59.2400   34.9880   47.3400 C   0  0  0  0  0  0  0  0  0  0  0  0
   58.5910   34.2270   46.3680 C   0  0  0  0  0  0  0  0  0  0  0  0
   59.0370   32.9320   46.0520 C   0  0  0  0  0  0  0  0  0  0  0  0
   58.2490   32.1490   45.0780 C   0  0  0  0  0  0  0  0  0  0  0  0
   57.4030   31.1160   45.4990 C   0  0  0  0  0  0  0  0  0  0  0  0
   56.6320   30.4590   44.5940 N   0  0  0  0  0  0  0  0  0  0  0  0
   56.6550   30.7960   43.2790 C   0  0  0  0  0  0  0  0  0  0  0  0
   57.4540   31.8090   42.8510 N   0  0  0  0  0  0  0  0  0  0  0  0
   58.2450   32.4900   43.7210 C   0  0  0  0  0  0  0  0  0  0  0  0
   57.2827   25.9381   47.8123 H   0  0  0  0  0  0  0  0  0  0  0  0
   56.1394   25.9034   46.4273 H   0  0  0  0  0  0  0  0  0  0  0  0
   57.5830   24.8344   46.4273 H   0  0  0  0  0  0  0  0  0  0  0  0
   57.6613   26.0907   44.0506 H   0  0  0  0  0  0  0  0  0  0  0  0
   59.0486   27.8193   42.9205 H   0  0  0  0  0  0  0  0  0  0  0  0
   60.1618   29.6025   44.2502 H   0  0  0  0  0  0  0  0  0  0  0  0
   57.9971   29.6048   49.1946 H   0  0  0  0  0  0  0  0  0  0  0  0
   59.2586   28.5689   49.9763 H   0  0  0  0  0  0  0  0  0  0  0  0
   61.8119   31.0133   46.7570 H   0  0  0  0  0  0  0  0  0  0  0  0
   60.7569   30.9337   45.2769 H   0  0  0  0  0  0  0  0  0  0  0  0
   61.6654   32.7733   48.2556 H   0  0  0  0  0  0  0  0  0  0  0  0
   60.8394   35.0566   48.7952 H   0  0  0  0  0  0  0  0  0  0  0  0
   58.8841   36.0025   47.5727 H   0  0  0  0  0  0  0  0  0  0  0  0
   57.7198   34.6451   45.8425 H   0  0  0  0  0  0  0  0  0  0  0  0
   57.3627   30.8365   46.5621 H   0  0  0  0  0  0  0  0  0  0  0  0
   56.0271   30.2493   42.5600 H   0  0  0  0  0  0  0  0  0  0  0  0
   58.8825   33.3098   43.3583 H   0  0  0  0  0  0  0  0  0  0  0  0
  1  2  1  0
  2  3  2  0
  3  4  1  0
  4  5  2  0
  5  6  1  0
  6  7  2  0
  7  8  1  0
  8  9  1  0
  9 10  1  0
 10 11  2  0
 10 12  1  0
 12 13  1  0
 13 14  1  0
 14 15  2  0
 15 16  1  0
 16 17  2  0
 17 18  1  0
 18 19  2  0
 19 20  1  0
 20 21  2  0
 21 22  1  0
 22 23  2  0
 23 24  1  0
 24 25  2  0
  7  2  1  0
 19 14  1  0
 25 20  1  0
 12  6  1  0
  1 26  1  0
  1 27  1  0
  1 28  1  0
  3 29  1  0
  4 30  1  0
  5 31  1  0
  9 32  1  0
  9 33  1  0
 13 34  1  0
 13 35  1  0
 15 36  1  0
 16 37  1  0
 17 38  1  0
 18 39  1  0
 21 40  1  0
 23 41  1  0
 25 42  1  0
M  END
>  <UniqueID>  (6) 
5

>  <SMILES>  (6) 
Cc1cccc2c1OCC(=O)N2Cc1ccccc1-c1cncnc1

>  <Energy>  (6) 
60.12672411054933

>  <Genealogy>  (6) 
Cc1cccc2c1OCC(=O)N2Cc1ccccc1-c1cncnc1 (3D coordinates assigned)
Cc1cccc2c1OCC(=O)N2Cc1ccccc1-c1cncnc1 (nonaromatic ring conformer: 60.12672411054933 kcal/mol)

>  <smiles>  (6) 
Cc1cccc2c1OCC(=O)N2Cc1ccccc1-c1cncnc1

>  <score_type>  (6) 
oracle

>  <origin>  (6) 
adg

>  <m_score__min__energy>  (6) 
-7.7300000000000004

>  <m_primary>  (6) 
energy

$$$$
6:0
     RDKit          3D

 38 41  0  0  0  0  0  0  0  0999 V2000
   59.0560   33.4630   51.6960 C   0  0  0  0  0  0  0  0  0  0  0  0
   60.5230   33.4480   51.2820 C   0  0  0  0  0  0  0  0  0  0  0  0
   60.6490   33.6820   49.8440 N   0  0  0  0  0  0  0  0  0  0  0  0
   59.6220   33.8850   48.9840 C   0  0  0  0  0  0  0  0  0  0  0  0
   60.0990   33.9990   47.6840 C   0  0  0  0  0  0  0  0  0  0  0  0
   59.2720   34.0920   46.4680 C   0  0  0  0  0  0  0  0  0  0  0  0
   58.6570   33.0510   45.8590 C   0  0  0  0  0  0  0  0  0  0  0  0
   59.1630   31.6520   46.0170 C   0  0  0  0  0  0  0  0  0  0  0  0
   60.3840   31.3920   46.3970 N   0  0  0  0  0  0  0  0  0  0  0  0
   58.2900   30.5870   45.6010 N   0  0  0  0  0  0  0  0  0  0  0  0
   58.4560   29.1860   45.7920 C   0  0  0  0  0  0  0  0  0  0  0  0
   57.5040   28.4450   45.2370 C   0  0  0  0  0  0  0  0  0  0  0  0
   56.2300   29.3640   44.3530 S   0  0  0  0  0  0  0  0  0  0  0  0
   57.1050   30.8310   44.8660 C   0  0  0  0  0  0  0  0  0  0  0  0
   56.6780   32.0310   44.6290 N   0  0  0  0  0  0  0  0  0  0  0  0
   57.3730   33.1940   45.0980 C   0  0  0  0  0  0  0  0  0  0  0  0
   56.8450   34.3190   44.9020 O   0  0  0  0  0  0  0  0  0  0  0  0
   61.4660   33.8000   47.7640 C   0  0  0  0  0  0  0  0  0  0  0  0
   62.4400   33.7080   46.7680 C   0  0  0  0  0  0  0  0  0  0  0  0
   63.7630   33.4500   47.1640 C   0  0  0  0  0  0  0  0  0  0  0  0
   64.0800   33.2750   48.5280 C   0  0  0  0  0  0  0  0  0  0  0  0
   63.0760   33.3510   49.5100 C   0  0  0  0  0  0  0  0  0  0  0  0
   61.7680   33.6190   49.0910 C   0  0  0  0  0  0  0  0  0  0  0  0
   58.9848   33.4637   52.7937 H   0  0  0  0  0  0  0  0  0  0  0  0
   58.5715   34.3661   51.2965 H   0  0  0  0  0  0  0  0  0  0  0  0
   58.5531   32.5700   51.2965 H   0  0  0  0  0  0  0  0  0  0  0  0
   61.0614   34.2378   51.8263 H   0  0  0  0  0  0  0  0  0  0  0  0
   60.9517   32.4639   51.5224 H   0  0  0  0  0  0  0  0  0  0  0  0
   58.5627   33.9502   49.2734 H   0  0  0  0  0  0  0  0  0  0  0  0
   59.1440   35.0879   46.0187 H   0  0  0  0  0  0  0  0  0  0  0  0
   61.0900   30.9520   45.7690 H   0  0  0  0  0  0  0  0  0  0  0  0
   60.6970   31.5550   47.3780 H   0  0  0  0  0  0  0  0  0  0  0  0
   59.2996   28.7547   46.3508 H   0  0  0  0  0  0  0  0  0  0  0  0
   57.4936   27.3476   45.3115 H   0  0  0  0  0  0  0  0  0  0  0  0
   62.1797   33.8336   45.7066 H   0  0  0  0  0  0  0  0  0  0  0  0
   64.5572   33.3839   46.4058 H   0  0  0  0  0  0  0  0  0  0  0  0
   65.1205   33.0776   48.8255 H   0  0  0  0  0  0  0  0  0  0  0  0
   63.3116   33.2043   50.5744 H   0  0  0  0  0  0  0  0  0  0  0  0
  1  2  1  0
  2  3  1  0
  3  4  1  0
  4  5  2  0
  5  6  1  0
  6  7  2  3
  7  8  1  0
  8  9  2  0
  8 10  1  0
 10 11  1  0
 11 12  2  0
 12 13  1  0
 13 14  1  0
 14 15  2  0
 15 16  1  0
 16 17  2  0
  5 18  1  0
 18 19  2  0
 19 20  1  0
 20 21  2  0
 21 22  1  0
 22 23  2  0
 23  3  1  0
 16  7  1  0
 23 18  1  0
 14 10  1  0
  1 24  1  0
  1 25  1  0
  1 26  1  0
  2 27  1  0
  2 28  1  0
  4 29  1  0
  6 30  1  0
  9 31  1  0
  9 32  1  0
 11 33  1  0
 12 34  1  0
 19 35  1  0
 20 36  1  0
 21 37  1  0
 22 38  1  0
M  CHG  1   9   1
M  END
>  <UniqueID>  (7) 
6

>  <SMILES>  (7) 
CCn1cc(C=C2C(=[NH2+])N3C=CSC3=NC2=O)c2ccccc21

>  <Energy>  (7) 
106.32499469373106

>  <Genealogy>  (7) 
CCn1cc(C=C2C(=[NH2+])N3C=CSC3=NC2=O)c2ccccc21 (protonated)
CCn1cc(C=C2C(=[NH2+])N3C=CSC3=NC2=O)c2ccccc21 (3D coordinates assigned)
CCn1cc(C=C2C(=[NH2+])N3C=CSC3=NC2=O)c2ccccc21 (nonaromatic ring conformer: 106.32499469373106 kcal/mol)

>  <smiles>  (7) 
CCn1cc(C=C2C(=N)N3C=CSC3=NC2=O)c2ccccc21

>  <score_type>  (7) 
oracle

>  <origin>  (7) 
adg

>  <m_score__min__energy>  (7) 
-6.5

>  <m_primary>  (7) 
energy

$$$$
7:0
     RDKit          3D

 45 46  0  0  0  0  0  0  0  0999 V2000
   64.3260   33.3210   48.8950 C   0  0  0  0  0  0  0  0  0  0  0  0
   63.1060   32.5150   48.5330 C   0  0  0  0  0  0  0  0  0  0  0  0
   62.6610   31.5110   49.4100 C   0  0  0  0  0  0  0  0  0  0  0  0
   61.5260   30.7570   49.1120 C   0  0  0  0  0  0  0  0  0  0  0  0
   60.8160   30.9820   47.9260 C   0  0  0  0  0  0  0  0  0  0  0  0
   59.6190   30.2270   47.6710 N   0  0  0  0  0  0  0  0  0  0  0  0
   59.3460   29.5310   46.4440 C   0  0  0  0  0  0  0  0  0  0  0  0
   60.2750   29.2870   45.6270 O   0  0  0  0  0  0  0  0  0  0  0  0
   57.9650   29.0260   46.1600 C   0  0  0  0  0  0  0  0  0  0  0  0
   57.6030   29.2880   44.7600 N   0  0  0  0  0  0  0  0  0  0  0  0
   57.8990   28.2710   43.7450 C   0  0  0  0  0  0  0  0  0  0  0  0
   57.0380   30.5670   44.3870 C   0  0  0  0  0  0  0  0  0  0  0  0
   55.7980   30.7640   44.5110 O   0  0  0  0  0  0  0  0  0  0  0  0
   57.8780   31.6790   43.8160 C   0  0  0  0  0  0  0  0  0  0  0  0
   58.2070   32.7110   44.8640 C   0  0  0  0  0  0  0  0  0  0  0  0
   58.9570   33.8510   44.5300 C   0  0  0  0  0  0  0  0  0  0  0  0
   59.2750   34.7980   45.5100 C   0  0  0  0  0  0  0  0  0  0  0  0
   58.8550   34.6090   46.8280 C   0  0  0  0  0  0  0  0  0  0  0  0
   58.1180   33.4720   47.1720 C   0  0  0  0  0  0  0  0  0  0  0  0
   57.7980   32.5230   46.1960 C   0  0  0  0  0  0  0  0  0  0  0  0
   61.2490   31.9890   47.0460 C   0  0  0  0  0  0  0  0  0  0  0  0
   62.4010   32.7440   47.3270 C   0  0  0  0  0  0  0  0  0  0  0  0
   62.8120   33.8370   46.3720 C   0  0  0  0  0  0  0  0  0  0  0  0
   64.4150   33.3798   49.9898 H   0  0  0  0  0  0  0  0  0  0  0  0
   65.2220   32.8365   48.4798 H   0  0  0  0  0  0  0  0  0  0  0  0
   64.2319   34.3353   48.4798 H   0  0  0  0  0  0  0  0  0  0  0  0
   63.2136   31.3178   50.3413 H   0  0  0  0  0  0  0  0  0  0  0  0
   61.1863   29.9805   49.8132 H   0  0  0  0  0  0  0  0  0  0  0  0
   58.9150   30.1520   48.4430 H   0  0  0  0  0  0  0  0  0  0  0  0
   57.9293   27.9426   46.3472 H   0  0  0  0  0  0  0  0  0  0  0  0
   57.2522   29.5461   46.8168 H   0  0  0  0  0  0  0  0  0  0  0  0
   58.1735   27.3279   44.2401 H   0  0  0  0  0  0  0  0  0  0  0  0
   57.0104   28.1103   43.1169 H   0  0  0  0  0  0  0  0  0  0  0  0
   58.7351   28.6123   43.1169 H   0  0  0  0  0  0  0  0  0  0  0  0
   58.8144   31.2555   43.4239 H   0  0  0  0  0  0  0  0  0  0  0  0
   57.3063   32.1689   43.0140 H   0  0  0  0  0  0  0  0  0  0  0  0
   59.2956   33.9998   43.4940 H   0  0  0  0  0  0  0  0  0  0  0  0
   59.8565   35.6923   45.2416 H   0  0  0  0  0  0  0  0  0  0  0  0
   59.1043   35.3555   47.5965 H   0  0  0  0  0  0  0  0  0  0  0  0
   57.7895   33.3237   48.2113 H   0  0  0  0  0  0  0  0  0  0  0  0
   57.2241   31.6259   46.4715 H   0  0  0  0  0  0  0  0  0  0  0  0
   60.6795   32.1886   46.1263 H   0  0  0  0  0  0  0  0  0  0  0  0
   63.1430   34.7172   46.9427 H   0  0  0  0  0  0  0  0  0  0  0  0
   63.6370   33.4793   45.7385 H   0  0  0  0  0  0  0  0  0  0  0  0
   61.9557   34.1115   45.7385 H   0  0  0  0  0  0  0  0  0  0  0  0
  1  2  1  0
  2  3  2  0
  3  4  1  0
  4  5  2  0
  5  6  1  0
  6  7  1  0
  7  8  2  0
  7  9  1  0
  9 10  1  0
 10 11  1  0
 10 12  1  0
 12 13  2  0
 12 14  1  0
 14 15  1  0
 15 16  2  0
 16 17  1  0
 17 18  2  0
 18 19  1  0
 19 20  2  0
  5 21  1  0
 21 22  2  0
 22 23  1  0
 22  2  1  0
 20 15  1  0
  1 24  1  0
  1 25  1  0
  1 26  1  0
  3 27  1  0
  4 28  1  0
  6 29  1  0
  9 30  1  0
  9 31  1  0
 11 32  1  0
 11 33  1  0
 11 34  1  0
 14 35  1  0
 14 36  1  0
 16 37  1  0
 17 38  1  0
 18 39  1  0
 19 40  1  0
 20 41  1  0
 21 42  1  0
 23 43  1  0
 23 44  1  0
 23 45  1  0
M  END
>  <UniqueID>  (8) 
7

>  <SMILES>  (8) 
Cc1ccc(NC(=O)CN(C)C(=O)Cc2ccccc2)cc1C

>  <Energy>  (8) 
44.548438555474306

>  <Genealogy>  (8) 
Cc1ccc(NC(=O)CN(C)C(=O)Cc2ccccc2)cc1C (3D coordinates assigned)
Cc1ccc(NC(=O)CN(C)C(=O)Cc2ccccc2)cc1C (optimized conformer: 44.548438555474306 kcal/mol)

>  <smiles>  (8) 
Cc1ccc(NC(=O)CN(C)C(=O)Cc2ccccc2)cc1C

>  <score_type>  (8) 
oracle

>  <origin>  (8) 
adg

>  <m_score__min__energy>  (8) 
-7.4400000000000004

>  <m_primary>  (8) 
energy

$$$$
8:0
     RDKit          3D

 40 42  0  0  0  0  0  0  0  0999 V2000
   59.6500   35.7120   46.5600 C   0  0  0  0  0  0  0  0  0  0  0  0
   58.9970   34.5260   45.9160 C   0  0  0  0  0  0  0  0  0  0  0  0
   59.2350   34.2320   44.5650 C   0  0  0  0  0  0  0  0  0  0  0  0
   58.6070   33.1390   43.9600 C   0  0  0  0  0  0  0  0  0  0  0  0
   57.7270   32.3300   44.6970 C   0  0  0  0  0  0  0  0  0  0  0  0
   57.1050   31.1180   44.0570 C   0  0  0  0  0  0  0  0  0  0  0  0
   58.1010   30.0470   43.8840 N   0  0  0  0  0  0  0  0  0  0  0  0
   58.0900   29.0800   44.9930 C   0  0  0  0  0  0  0  0  0  0  0  0
   58.9390   29.5540   46.1350 C   0  0  0  0  0  0  0  0  0  0  0  0
   58.9730   29.0280   47.4100 C   0  0  0  0  0  0  0  0  0  0  0  0
   59.8060   29.7550   48.1180 O   0  0  0  0  0  0  0  0  0  0  0  0
   60.2750   30.7020   47.3310 C   0  0  0  0  0  0  0  0  0  0  0  0
   61.2100   31.7490   47.7950 C   0  0  0  0  0  0  0  0  0  0  0  0
   62.4430   31.8740   47.1300 C   0  0  0  0  0  0  0  0  0  0  0  0
   63.3760   32.8320   47.5320 C   0  0  0  0  0  0  0  0  0  0  0  0
   63.0840   33.6880   48.5950 C   0  0  0  0  0  0  0  0  0  0  0  0
   61.8560   33.5930   49.2500 C   0  0  0  0  0  0  0  0  0  0  0  0
   60.9110   32.6360   48.8570 C   0  0  0  0  0  0  0  0  0  0  0  0
   59.2100   32.6790   49.7430 Br  0  0  0  0  0  0  0  0  0  0  0  0
   59.7500   30.6240   46.0900 N   0  0  0  0  0  0  0  0  0  0  0  0
   57.4680   32.6420   46.0410 C   0  0  0  0  0  0  0  0  0  0  0  0
   58.0930   33.7370   46.6440 C   0  0  0  0  0  0  0  0  0  0  0  0
   59.5948   35.6118   47.6540 H   0  0  0  0  0  0  0  0  0  0  0  0
   60.7039   35.7640   46.2492 H   0  0  0  0  0  0  0  0  0  0  0  0
   59.1304   36.6304   46.2492 H   0  0  0  0  0  0  0  0  0  0  0  0
   59.9186   34.8641   43.9792 H   0  0  0  0  0  0  0  0  0  0  0  0
   58.8032   32.9118   42.9018 H   0  0  0  0  0  0  0  0  0  0  0  0
   56.2890   30.7513   44.6970 H   0  0  0  0  0  0  0  0  0  0  0  0
   56.7181   31.4021   43.0672 H   0  0  0  0  0  0  0  0  0  0  0  0
   57.8430   29.5220   43.0160 H   0  0  0  0  0  0  0  0  0  0  0  0
   57.0560   28.9494   45.3448 H   0  0  0  0  0  0  0  0  0  0  0  0
   58.4990   28.1265   44.6275 H   0  0  0  0  0  0  0  0  0  0  0  0
   58.4049   28.1570   47.7685 H   0  0  0  0  0  0  0  0  0  0  0  0
   62.6748   31.2100   46.2842 H   0  0  0  0  0  0  0  0  0  0  0  0
   64.3413   32.9120   47.0108 H   0  0  0  0  0  0  0  0  0  0  0  0
   63.8222   34.4376   48.9163 H   0  0  0  0  0  0  0  0  0  0  0  0
   61.6276   34.2752   50.0821 H   0  0  0  0  0  0  0  0  0  0  0  0
   59.8820   31.2780   45.2880 H   0  0  0  0  0  0  0  0  0  0  0  0
   56.7699   32.0217   46.6222 H   0  0  0  0  0  0  0  0  0  0  0  0
   57.8754   33.9816   47.6941 H   0  0  0  0  0  0  0  0  0  0  0  0
  1  2  1  0
  2  3  2  0
  3  4  1  0
  4  5  2  0
  5  6  1  0
  6  7  1  0
  7  8  1  0
  8  9  1  0
  9 10  2  0
 10 11  1  0
 11 12  1  0
 12 13  1  0
 13 14  2  0
 14 15  1  0
 15 16  2  0
 16 17  1  0
 17 18  2  0
 18 19  1  0
 12 20  2  0
  5 21  1  0
 21 22  2  0
 22  2  1  0
 20  9  1  0
 18 13  1  0
  1 23  1  0
  1 24  1  0
  1 25  1  0
  3 26  1  0
  4 27  1  0
  6 28  1  0
  6 29  1  0
  7 30  1  0
  8 31  1  0
  8 32  1  0
 10 33  1  0
 14 34  1  0
 15 35  1  0
 16 36  1  0
 17 37  1  0
 20 38  1  0
 21 39  1  0
 22 40  1  0
M  CHG  1  20   1
M  END
>  <UniqueID>  (9) 
8

>  <SMILES>  (9) 
Cc1ccc(CNCc2coc(-c3ccccc3Br)[nH+]2)cc1

>  <Energy>  (9) 
73.86466634207012

>  <Genealogy>  (9) 
Cc1ccc(CNCc2coc(-c3ccccc3Br)[nH+]2)cc1 (protonated)
Cc1ccc(CNCc2coc(-c3ccccc3Br)[nH+]2)cc1 (3D coordinates assigned)
Cc1ccc(CNCc2coc(-c3ccccc3Br)[nH+]2)cc1 (optimized conformer: 73.86466634207012 kcal/mol)

>  <smiles>  (9) 
Cc1ccc(CNCc2coc(-c3ccccc3Br)n2)cc1

>  <score_type>  (9) 
oracle

>  <origin>  (9) 
adg

>  <m_score__min__energy>  (9) 
-6.75

>  <m_primary>  (9) 
energy

$$$$
9:0
     RDKit          3D

 53 55  0  0  0  0  0  0  0  0999 V2000
   56.0300   19.5240   44.8570 C   0  0  0  0  0  0  0  0  0  0  0  0
   55.5400   20.6580   44.1520 O   0  0  0  0  0  0  0  0  0  0  0  0
   56.0040   21.9690   44.3390 C   0  0  0  0  0  0  0  0  0  0  0  0
   56.0030   22.5980   45.5980 C   0  0  0  0  0  0  0  0  0  0  0  0
   56.4780   23.9050   45.7330 C   0  0  0  0  0  0  0  0  0  0  0  0
   56.9640   24.6110   44.6170 C   0  0  0  0  0  0  0  0  0  0  0  0
   57.4570   25.9620   44.7580 N   0  0  0  0  0  0  0  0  0  0  0  0
   57.2970   26.6920   46.0210 C   0  0  0  0  0  0  0  0  0  0  0  0
   58.4500   27.6900   46.1910 C   0  0  0  0  0  0  0  0  0  0  0  0
   58.5450   28.6680   45.0680 N   0  0  0  0  0  0  0  0  0  0  0  0
   59.9450   29.1300   44.8720 C   0  0  0  0  0  0  0  0  0  0  0  0
   60.5300   29.8370   46.1060 C   0  0  0  0  0  0  0  0  0  0  0  0
   59.4740   30.5060   46.8590 N   0  0  0  0  0  0  0  0  0  0  0  0
   58.5790   31.4740   46.3000 C   0  0  0  0  0  0  0  0  0  0  0  0
   57.4460   31.0980   45.9000 O   0  0  0  0  0  0  0  0  0  0  0  0
   58.9550   32.8980   46.1740 C   0  0  0  0  0  0  0  0  0  0  0  0
   59.5190   33.5540   47.2790 C   0  0  0  0  0  0  0  0  0  0  0  0
   59.8690   34.9020   47.2000 C   0  0  0  0  0  0  0  0  0  0  0  0
   59.6530   35.6130   46.0200 C   0  0  0  0  0  0  0  0  0  0  0  0
   59.0860   34.9780   44.9130 C   0  0  0  0  0  0  0  0  0  0  0  0
   58.7350   33.6170   44.9730 C   0  0  0  0  0  0  0  0  0  0  0  0
   58.1280   32.9570   43.7640 C   0  0  0  0  0  0  0  0  0  0  0  0
   57.9830   28.1610   43.7830 C   0  0  0  0  0  0  0  0  0  0  0  0
   58.1130   26.6390   43.6320 C   0  0  0  0  0  0  0  0  0  0  0  0
   56.9600   23.9770   43.3620 C   0  0  0  0  0  0  0  0  0  0  0  0
   56.4850   22.6700   43.2280 C   0  0  0  0  0  0  0  0  0  0  0  0
   55.9524   19.7035   45.9395 H   0  0  0  0  0  0  0  0  0  0  0  0
   55.4338   18.6395   44.5884 H   0  0  0  0  0  0  0  0  0  0  0  0
   57.0827   19.3520   44.5884 H   0  0  0  0  0  0  0  0  0  0  0  0
   55.6266   22.0583   46.4795 H   0  0  0  0  0  0  0  0  0  0  0  0
   56.4720   24.3870   46.7218 H   0  0  0  0  0  0  0  0  0  0  0  0
   56.3410   27.2361   46.0103 H   0  0  0  0  0  0  0  0  0  0  0  0
   57.3065   25.9783   46.8580 H   0  0  0  0  0  0  0  0  0  0  0  0
   58.2972   28.2458   47.1279 H   0  0  0  0  0  0  0  0  0  0  0  0
   59.3860   27.1123   46.2042 H   0  0  0  0  0  0  0  0  0  0  0  0
   57.9700   29.5050   45.3300 H   0  0  0  0  0  0  0  0  0  0  0  0
   60.5719   28.2563   44.6401 H   0  0  0  0  0  0  0  0  0  0  0  0
   59.9349   29.8621   44.0511 H   0  0  0  0  0  0  0  0  0  0  0  0
   61.0195   29.0930   46.7516 H   0  0  0  0  0  0  0  0  0  0  0  0
   61.2608   30.5886   45.7728 H   0  0  0  0  0  0  0  0  0  0  0  0
   59.6864   33.0008   48.2149 H   0  0  0  0  0  0  0  0  0  0  0  0
   60.3162   35.4050   48.0701 H   0  0  0  0  0  0  0  0  0  0  0  0
   59.9297   36.6760   45.9611 H   0  0  0  0  0  0  0  0  0  0  0  0
   58.9125   35.5462   43.9872 H   0  0  0  0  0  0  0  0  0  0  0  0
   57.4163   32.1831   44.0873 H   0  0  0  0  0  0  0  0  0  0  0  0
   57.6010   33.7108   43.1606 H   0  0  0  0  0  0  0  0  0  0  0  0
   58.9231   32.4948   43.1606 H   0  0  0  0  0  0  0  0  0  0  0  0
   56.9170   28.4283   43.7367 H   0  0  0  0  0  0  0  0  0  0  0  0
   58.5575   28.6234   42.9668 H   0  0  0  0  0  0  0  0  0  0  0  0
   57.6370   26.3248   42.6914 H   0  0  0  0  0  0  0  0  0  0  0  0
   59.1791   26.3682   43.6209 H   0  0  0  0  0  0  0  0  0  0  0  0
   57.3340   24.5146   42.4782 H   0  0  0  0  0  0  0  0  0  0  0  0
   56.4893   22.1875   42.2395 H   0  0  0  0  0  0  0  0  0  0  0  0
  1  2  1  0
  2  3  1  0
  3  4  2  0
  4  5  1  0
  5  6  2  0
  6  7  1  0
  7  8  1  0
  8  9  1  0
  9 10  1  0
 10 11  1  0
 11 12  1  0
 12 13  1  0
 13 14  1  0
 14 15  2  0
 14 16  1  0
 16 17  2  0
 17 18  1  0
 18 19  2  0
 19 20  1  0
 20 21  2  0
 21 22  1  0
 10 23  1  0
 23 24  1  0
  6 25  1  0
 25 26  2  0
 26  3  1  0
 24  7  1  0
 21 16  1  0
  1 27  1  0
  1 28  1  0
  1 29  1  0
  4 30  1  0
  5 31  1  0
  8 32  1  0
  8 33  1  0
  9 34  1  0
  9 35  1  0
 10 36  1  0
 11 37  1  0
 11 38  1  0
 12 39  1  0
 12 40  1  0
 17 41  1  0
 18 42  1  0
 19 43  1  0
 20 44  1  0
 22 45  1  0
 22 46  1  0
 22 47  1  0
 23 48  1  0
 23 49  1  0
 24 50  1  0
 24 51  1  0
 25 52  1  0
 26 53  1  0
M  CHG  2  10   1  13  -1
M  END
>  <UniqueID>  (10) 
9

>  <SMILES>  (10) 
COc1ccc(N2CC[NH+](CC[N-]C(=O)c3ccccc3C)CC2)cc1

>  <Energy>  (10) 
68.78362495245045

>  <Genealogy>  (10) 
COc1ccc(N2CC[NH+](CC[N-]C(=O)c3ccccc3C)CC2)cc1 (protonated)
COc1ccc(N2CC[NH+](CC[N-]C(=O)c3ccccc3C)CC2)cc1 (3D coordinates assigned)
COc1ccc(N2CC[NH+](CC[N-]C(=O)c3ccccc3C)CC2)cc1 (nonaromatic ring conformer: 68.78362495245045 kcal/mol)

>  <smiles>  (10) 
COc1ccc(N2CCN(CCNC(=O)c3ccccc3C)CC2)cc1

>  <score_type>  (10) 
oracle

>  <origin>  (10) 
adg

>  <m_score__min__energy>  (10) 
-8.4199999999999999

>  <m_primary>  (10) 
energy

$$$$
10:0
     RDKit          3D

 31 33  0  0  0  0  0  0  0  0999 V2000
   56.2690   29.7430   42.7900 C   0  0  0  0  0  0  0  0  0  0  0  0
   57.1380   30.4310   43.8000 C   0  0  0  0  0  0  0  0  0  0  0  0
   57.7330   29.6970   44.8360 C   0  0  0  0  0  0  0  0  0  0  0  0
   58.5740   30.3310   45.7570 C   0  0  0  0  0  0  0  0  0  0  0  0
   58.8430   31.7070   45.6480 C   0  0  0  0  0  0  0  0  0  0  0  0
   59.7330   32.3860   46.6250 C   0  0  0  0  0  0  0  0  0  0  0  0
   59.2410   33.4110   47.4380 C   0  0  0  0  0  0  0  0  0  0  0  0
   60.0940   34.0250   48.3520 C   0  0  0  0  0  0  0  0  0  0  0  0
   59.6360   34.9470   49.0830 O   0  0  0  0  0  0  0  0  0  0  0  0
   61.4050   33.6290   48.4520 N   0  0  0  0  0  0  0  0  0  0  0  0
   62.2490   34.2340   49.3500 C   0  0  0  0  0  0  0  0  0  0  0  0
   63.5830   33.8370   49.4550 C   0  0  0  0  0  0  0  0  0  0  0  0
   64.0630   32.8170   48.6400 C   0  0  0  0  0  0  0  0  0  0  0  0
   63.2100   32.2020   47.7290 C   0  0  0  0  0  0  0  0  0  0  0  0
   61.8710   32.6160   47.6390 C   0  0  0  0  0  0  0  0  0  0  0  0
   61.0370   32.0110   46.7450 N   0  0  0  0  0  0  0  0  0  0  0  0
   58.2570   32.4340   44.5980 C   0  0  0  0  0  0  0  0  0  0  0  0
   57.4180   31.7990   43.6770 C   0  0  0  0  0  0  0  0  0  0  0  0
   55.5089   29.1412   43.3096 H   0  0  0  0  0  0  0  0  0  0  0  0
   55.7728   30.4957   42.1598 H   0  0  0  0  0  0  0  0  0  0  0  0
   56.8878   29.0874   42.1598 H   0  0  0  0  0  0  0  0  0  0  0  0
   57.5377   28.6181   44.9250 H   0  0  0  0  0  0  0  0  0  0  0  0
   59.0282   29.7489   46.5724 H   0  0  0  0  0  0  0  0  0  0  0  0
   58.1912   33.7294   47.3568 H   0  0  0  0  0  0  0  0  0  0  0  0
   61.8696   35.0409   49.9942 H   0  0  0  0  0  0  0  0  0  0  0  0
   64.2509   34.3279   50.1781 H   0  0  0  0  0  0  0  0  0  0  0  0
   65.1130   32.4979   48.7155 H   0  0  0  0  0  0  0  0  0  0  0  0
   63.5829   31.3946   47.0817 H   0  0  0  0  0  0  0  0  0  0  0  0
   61.4140   31.2590   46.1230 H   0  0  0  0  0  0  0  0  0  0  0  0
   58.4598   33.5107   44.4998 H   0  0  0  0  0  0  0  0  0  0  0  0
   56.9754   32.3760   42.8517 H   0  0  0  0  0  0  0  0  0  0  0  0
  1  2  1  0
  2  3  2  0
  3  4  1  0
  4  5  2  0
  5  6  1  0
  6  7  2  0
  7  8  1  0
  8  9  2  0
  8 10  1  0
 10 11  1  0
 11 12  2  0
 12 13  1  0
 13 14  2  0
 14 15  1  0
 15 16  2  0
  5 17  1  0
 17 18  2  0
 18  2  1  0
 16  6  1  0
 15 10  1  0
  1 19  1  0
  1 20  1  0
  1 21  1  0
  3 22  1  0
  4 23  1  0
  7 24  1  0
 11 25  1  0
 12 26  1  0
 13 27  1  0
 14 28  1  0
 16 29  1  0
 17 30  1  0
 18 31  1  0
M  CHG  1  16   1
M  END
>  <UniqueID>  (11) 
10

>  <SMILES>  (11) 
Cc1ccc(-c2cc(=O)n3ccccc3[nH+]2)cc1

>  <Energy>  (11) 
43.64360119182666

>  <Genealogy>  (11) 
Cc1ccc(-c2cc(=O)n3ccccc3[nH+]2)cc1 (protonated)
Cc1ccc(-c2cc(=O)n3ccccc3[nH+]2)cc1 (3D coordinates assigned)
Cc1ccc(-c2cc(=O)n3ccccc3[nH+]2)cc1 (optimized conformer: 43.64360119182666 kcal/mol)

>  <smiles>  (11) 
Cc1ccc(-c2cc(=O)n3ccccc3n2)cc1

>  <score_type>  (11) 
oracle

>  <origin>  (11) 
adg

>  <m_score__min__energy>  (11) 
-5.1600000000000001

>  <m_primary>  (11) 
energy

$$$$
11:0
     RDKit          3D

 55 59  0  0  1  0  0  0  0  0999 V2000
   59.0910   34.9550   44.8990 C   0  0  0  0  0  0  0  0  0  0  0  0
   60.0020   34.8680   45.9480 C   0  0  0  0  0  0  0  0  0  0  0  0
   59.6450   34.1280   47.0510 C   0  0  0  0  0  0  0  0  0  0  0  0
   58.4090   33.4760   47.1320 C   0  0  0  0  0  0  0  0  0  0  0  0
   58.1400   32.7090   48.3740 C   0  0  0  0  0  0  0  0  0  0  0  0
   59.3140   32.7980   49.1820 O   0  0  0  0  0  0  0  0  0  0  0  0
   59.7980   31.5990   49.7160 C   0  0  0  0  0  0  0  0  0  0  0  0
   58.8950   30.6240   50.0820 C   0  0  0  0  0  0  0  0  0  0  0  0
   59.3420   29.4260   50.6140 C   0  0  0  0  0  0  0  0  0  0  0  0
   60.7090   29.2630   50.7570 C   0  0  0  0  0  0  0  0  0  0  0  0
   61.1600   27.9520   51.3370 C   0  0  0  0  0  0  0  0  0  0  0  0
   60.8700   26.8330   50.3930 C   0  0  0  0  0  0  0  0  0  0  0  0
   61.0300   27.2830   49.0480 N   0  0  0  0  0  0  0  0  0  0  0  0
   60.0570   27.2740   48.2000 C   0  0  0  0  0  0  0  0  0  0  0  0
   59.1490   26.2830   48.1460 N   0  0  0  0  0  0  0  0  0  0  0  0
   58.1870   26.3710   47.2360 C   0  0  0  0  0  0  0  0  0  0  0  0
   58.0970   27.4160   46.3740 N   0  0  0  0  0  0  0  0  0  0  0  0
   58.9810   28.4290   46.3910 C   0  0  0  0  0  0  0  0  0  0  0  0
   59.9930   28.3580   47.3320 C   0  0  0  0  0  0  0  0  0  0  0  0
   60.7710   29.4820   47.1740 C   0  0  0  0  0  0  0  0  0  0  0  0
   60.2330   30.1780   46.1800 N   0  0  0  0  0  0  0  0  0  0  0  0
   59.1590   29.5680   45.6940 N   0  0  0  0  0  0  0  0  0  0  0  0
   58.3210   30.0150   44.6220 C   0  0  0  0  0  0  0  0  0  0  0  0
   58.5190   31.2420   44.0150 C   0  0  0  0  0  0  0  0  0  0  0  0
   57.6910   31.6290   42.9920 C   0  0  0  0  0  0  0  0  0  0  0  0
   56.6630   30.8240   42.5530 C   0  0  0  0  0  0  0  0  0  0  0  0
   56.4640   29.6010   43.1550 C   0  0  0  0  0  0  0  0  0  0  0  0
   57.2930   29.2010   44.1880 C   0  0  0  0  0  0  0  0  0  0  0  0
   61.6100   30.2400   50.3910 C   0  0  0  0  0  0  0  0  0  0  0  0
   61.1650   31.4480   49.8540 C   0  0  0  0  0  0  0  0  0  0  0  0
   57.5060   33.5640   46.0900 C   0  0  0  0  0  0  0  0  0  0  0  0
   57.8720   34.3100   44.9850 C   0  0  0  0  0  0  0  0  0  0  0  0
   59.3419   35.5379   44.0005 H   0  0  0  0  0  0  0  0  0  0  0  0
   60.9767   35.3752   45.8964 H   0  0  0  0  0  0  0  0  0  0  0  0
   60.3495   34.0464   47.8918 H   0  0  0  0  0  0  0  0  0  0  0  0
   57.2808   33.1423   48.9070 H   0  0  0  0  0  0  0  0  0  0  0  0
   57.9004   31.6604   48.1438 H   0  0  0  0  0  0  0  0  0  0  0  0
   57.8167   30.7979   49.9512 H   0  0  0  0  0  0  0  0  0  0  0  0
   58.6380   28.6348   50.9113 H   0  0  0  0  0  0  0  0  0  0  0  0
   62.2427   27.9938   51.5265 H   0  0  0  0  0  0  0  0  0  0  0  0
   60.6161   27.7737   52.2764 H   0  0  0  0  0  0  0  0  0  0  0  0
   61.5654   26.0028   50.5857 H   0  0  0  0  0  0  0  0  0  0  0  0
   59.8352   26.4908   50.5414 H   0  0  0  0  0  0  0  0  0  0  0  0
   59.2630   25.5040   48.8310 H   0  0  0  0  0  0  0  0  0  0  0  0
   57.4362   25.5691   47.1781 H   0  0  0  0  0  0  0  0  0  0  0  0
   61.6640   29.7510   47.7573 H   0  0  0  0  0  0  0  0  0  0  0  0
   59.3332   31.9016   44.3496 H   0  0  0  0  0  0  0  0  0  0  0  0
   57.8517   32.6051   42.5110 H   0  0  0  0  0  0  0  0  0  0  0  0
   56.0092   31.1536   41.7321 H   0  0  0  0  0  0  0  0  0  0  0  0
   55.6490   28.9448   42.8157 H   0  0  0  0  0  0  0  0  0  0  0  0
   57.1317   28.2247   44.6685 H   0  0  0  0  0  0  0  0  0  0  0  0
   62.6880   30.0657   50.5234 H   0  0  0  0  0  0  0  0  0  0  0  0
   61.8667   32.2407   49.5553 H   0  0  0  0  0  0  0  0  0  0  0  0
   56.5303   33.0584   46.1379 H   0  0  0  0  0  0  0  0  0  0  0  0
   57.1676   34.3930   44.1442 H   0  0  0  0  0  0  0  0  0  0  0  0
  1  2  2  0
  2  3  1  0
  3  4  2  0
  4  5  1  0
  5  6  1  0
  6  7  1  0
  7  8  2  0
  8  9  1  0
  9 10  2  0
 10 11  1  0
 11 12  1  0
 12 13  1  0
 13 14  2  0
 14 15  1  0
 15 16  1  0
 16 17  2  0
 17 18  1  0
 18 19  2  0
 19 20  1  0
 20 21  2  0
 21 22  1  0
 22 23  1  0
 23 24  2  0
 24 25  1  0
 25 26  2  0
 26 27  1  0
 27 28  2  0
 10 29  1  0
 29 30  2  0
  4 31  1  0
 31 32  2  0
 32  1  1  0
 30  7  1  0
 19 14  1  0
 28 23  1  0
 22 18  1  0
  1 33  1  0
  2 34  1  0
  3 35  1  0
  5 36  1  0
  5 37  1  0
  8 38  1  0
  9 39  1  0
 11 40  1  0
 11 41  1  0
 12 42  1  0
 12 43  1  0
 15 44  1  0
 16 45  1  0
 20 46  1  0
 24 47  1  0
 25 48  1  0
 26 49  1  0
 27 50  1  0
 28 51  1  0
 29 52  1  0
 30 53  1  0
 31 54  1  0
 32 55  1  0
M  END
>  <smiles>  (12) 
c1ccc(COc2ccc(CCN=c3[nH]cnc4c3cnn4-c3ccccc3)cc2)cc1

>  <score_type>  (12) 
oracle

>  <origin>  (12) 
adg

>  <m_score__min__energy>  (12) 
-8.6799999999999997

>  <m_primary>  (12) 
energy

$$$$
12:0
     RDKit          3D

 27 29  0  0  0  0  0  0  0  0999 V2000
   58.6020   28.0640   45.8420 C   0  0  0  0  0  0  0  0  0  0  0  0
   57.1860   28.1840   45.2920 C   0  0  0  0  0  0  0  0  0  0  0  0
   57.1350   29.1840   44.1790 C   0  0  0  0  0  0  0  0  0  0  0  0
   56.6390   28.9490   42.9440 N   0  0  0  0  0  0  0  0  0  0  0  0
   56.6790   30.0830   42.2450 N   0  0  0  0  0  0  0  0  0  0  0  0
   57.2000   31.0000   43.0840 C   0  0  0  0  0  0  0  0  0  0  0  0
   57.4300   32.3440   42.8380 C   0  0  0  0  0  0  0  0  0  0  0  0
   57.9640   33.1050   43.8930 C   0  0  0  0  0  0  0  0  0  0  0  0
   58.2390   32.4930   45.1440 C   0  0  0  0  0  0  0  0  0  0  0  0
   58.7940   33.2540   46.2840 C   0  0  0  0  0  0  0  0  0  0  0  0
   59.3980   34.5100   46.2520 C   0  0  0  0  0  0  0  0  0  0  0  0
   59.8190   34.9560   47.5120 C   0  0  0  0  0  0  0  0  0  0  0  0
   59.5530   34.0620   48.5400 C   0  0  0  0  0  0  0  0  0  0  0  0
   58.7920   32.7170   47.8810 S   0  0  0  0  0  0  0  0  0  0  0  0
   57.9800   31.1600   45.3020 N   0  0  0  0  0  0  0  0  0  0  0  0
   57.4820   30.4740   44.2780 N   0  0  0  0  0  0  0  0  0  0  0  0
   58.5697   28.0667   46.9415 H   0  0  0  0  0  0  0  0  0  0  0  0
   59.0534   27.1244   45.4908 H   0  0  0  0  0  0  0  0  0  0  0  0
   59.2051   28.9143   45.4908 H   0  0  0  0  0  0  0  0  0  0  0  0
   56.8616   27.2039   44.9123 H   0  0  0  0  0  0  0  0  0  0  0  0
   56.5193   28.5192   46.1002 H   0  0  0  0  0  0  0  0  0  0  0  0
   56.2670   28.0430   42.5820 H   0  0  0  0  0  0  0  0  0  0  0  0
   57.2048   32.7957   41.8606 H   0  0  0  0  0  0  0  0  0  0  0  0
   58.1689   34.1761   43.7487 H   0  0  0  0  0  0  0  0  0  0  0  0
   59.5310   35.0933   45.3289 H   0  0  0  0  0  0  0  0  0  0  0  0
   60.3145   35.9250   47.6717 H   0  0  0  0  0  0  0  0  0  0  0  0
   59.7981   34.2088   49.6023 H   0  0  0  0  0  0  0  0  0  0  0  0
  1  2  1  0
  2  3  1  0
  3  4  2  0
  4  5  1  0
  5  6  2  0
  6  7  1  0
  7  8  2  0
  8  9  1  0
  9 10  1  0
 10 11  2  0
 11 12  1  0
 12 13  2  0
 13 14  1  0
  9 15  2  0
 15 16  1  0
 16  3  1  0
 16  6  1  0
 14 10  1  0
  1 17  1  0
  1 18  1  0
  1 19  1  0
  2 20  1  0
  2 21  1  0
  4 22  1  0
  7 23  1  0
  8 24  1  0
 11 25  1  0
 12 26  1  0
 13 27  1  0
M  CHG  1   4   1
M  END
>  <UniqueID>  (13) 
11

>  <SMILES>  (13) 
CCc1[nH+]nc2ccc(-c3cccs3)nn12

>  <Energy>  (13) 
95.65036014894596

>  <Genealogy>  (13) 
CCc1[nH+]nc2ccc(-c3cccs3)nn12 (protonated)
CCc1[nH+]nc2ccc(-c3cccs3)nn12 (3D coordinates assigned)
CCc1[nH+]nc2ccc(-c3cccs3)nn12 (optimized conformer: 95.65036014894596 kcal/mol)

>  <smiles>  (13) 
CCc1nnc2ccc(-c3cccs3)nn12

>  <score_type>  (13) 
oracle

>  <origin>  (13) 
adg

>  <m_score__min__energy>  (13) 
-5.3499999999999996

>  <m_primary>  (13) 
energy

$$$$
13:0
     RDKit          3D

 30 30  0  0  0  0  0  0  0  0999 V2000
   57.0250   31.2090   42.2600 C   0  0  0  0  0  0  0  0  0  0  0  0
   56.7210   30.5030   43.5060 N   0  0  0  0  0  0  0  0  0  0  0  0
   55.4550   29.8540   43.6790 C   0  0  0  0  0  0  0  0  0  0  0  0
   55.1460   29.3240   44.7800 O   0  0  0  0  0  0  0  0  0  0  0  0
   57.5740   30.6680   44.6460 C   0  0  0  0  0  0  0  0  0  0  0  0
   57.4050   31.7590   45.4430 N   0  0  0  0  0  0  0  0  0  0  0  0
   58.1790   31.9820   46.5370 C   0  0  0  0  0  0  0  0  0  0  0  0
   59.1830   31.0770   46.8770 C   0  0  0  0  0  0  0  0  0  0  0  0
   59.3770   29.9430   46.0890 C   0  0  0  0  0  0  0  0  0  0  0  0
   58.5740   29.7190   44.9590 C   0  0  0  0  0  0  0  0  0  0  0  0
   58.7560   28.4470   44.1530 C   0  0  0  0  0  0  0  0  0  0  0  0
   57.6350   27.4980   44.3490 N   0  0  0  0  0  0  0  0  0  0  0  0
   57.7830   26.3490   43.4400 C   0  0  0  0  0  0  0  0  0  0  0  0
   57.5670   27.0240   45.7430 C   0  0  0  0  0  0  0  0  0  0  0  0
   57.4502   32.1965   42.4925 H   0  0  0  0  0  0  0  0  0  0  0  0
   57.7515   30.6253   41.6757 H   0  0  0  0  0  0  0  0  0  0  0  0
   56.1017   31.3357   41.6757 H   0  0  0  0  0  0  0  0  0  0  0  0
   54.7441   29.8180   42.8404 H   0  0  0  0  0  0  0  0  0  0  0  0
   58.0133   32.8770   47.1546 H   0  0  0  0  0  0  0  0  0  0  0  0
   59.8163   31.2556   47.7585 H   0  0  0  0  0  0  0  0  0  0  0  0
   60.1629   29.2204   46.3539 H   0  0  0  0  0  0  0  0  0  0  0  0
   58.8169   28.7086   43.0863 H   0  0  0  0  0  0  0  0  0  0  0  0
   59.6788   27.9570   44.4970 H   0  0  0  0  0  0  0  0  0  0  0  0
   56.7290   27.9710   44.1170 H   0  0  0  0  0  0  0  0  0  0  0  0
   57.9016   25.4280   44.0296 H   0  0  0  0  0  0  0  0  0  0  0  0
   56.8882   26.2656   42.8057 H   0  0  0  0  0  0  0  0  0  0  0  0
   58.6697   26.4951   42.8057 H   0  0  0  0  0  0  0  0  0  0  0  0
   57.6894   27.8770   46.4267 H   0  0  0  0  0  0  0  0  0  0  0  0
   56.5914   26.5482   45.9213 H   0  0  0  0  0  0  0  0  0  0  0  0
   58.3695   26.2931   45.9213 H   0  0  0  0  0  0  0  0  0  0  0  0
  1  2  1  0
  2  3  1  0
  3  4  2  0
  2  5  1  0
  5  6  2  0
  6  7  1  0
  7  8  2  0
  8  9  1  0
  9 10  2  0
 10 11  1  0
 11 12  1  0
 12 13  1  0
 12 14  1  0
 10  5  1  0
  1 15  1  0
  1 16  1  0
  1 17  1  0
  3 18  1  0
  7 19  1  0
  8 20  1  0
  9 21  1  0
 11 22  1  0
 11 23  1  0
 12 24  1  0
 13 25  1  0
 13 26  1  0
 13 27  1  0
 14 28  1  0
 14 29  1  0
 14 30  1  0
M  CHG  1  12   1
M  END
>  <UniqueID>  (14) 
12

>  <SMILES>  (14) 
CN(C=O)c1ncccc1C[NH+](C)C

>  <Energy>  (14) 
34.18533288668283

>  <Genealogy>  (14) 
CN(C=O)c1ncccc1C[NH+](C)C (protonated)
CN(C=O)c1ncccc1C[NH+](C)C (3D coordinates assigned)
CN(C=O)c1ncccc1C[NH+](C)C (optimized conformer: 34.18533288668283 kcal/mol)

>  <smiles>  (14) 
CN(C)Cc1cccnc1N(C)C=O

>  <score_type>  (14) 
oracle

>  <origin>  (14) 
adg

>  <m_score__min__energy>  (14) 
-3.2599999999999998

>  <m_primary>  (14) 
energy

$$$$
14:0
     RDKit          3D

 37 39  0  0  0  0  0  0  0  0999 V2000
   58.1940   27.3400   46.4120 O   0  0  0  0  0  0  0  0  0  0  0  0
   57.1560   27.8590   45.9200 C   0  0  0  0  0  0  0  0  0  0  0  0
   55.9990   27.0530   45.6510 N   0  0  0  0  0  0  0  0  0  0  0  0
   56.0200   25.5920   45.7280 C   0  0  0  0  0  0  0  0  0  0  0  0
   57.3860   25.0450   45.3000 C   0  0  0  0  0  0  0  0  0  0  0  0
   57.2470   23.7990   44.4650 C   0  0  0  0  0  0  0  0  0  0  0  0
   56.3090   23.7500   43.4190 C   0  0  0  0  0  0  0  0  0  0  0  0
   56.1460   22.5770   42.6750 C   0  0  0  0  0  0  0  0  0  0  0  0
   56.9090   21.4460   42.9730 C   0  0  0  0  0  0  0  0  0  0  0  0
   57.8390   21.4840   44.0170 C   0  0  0  0  0  0  0  0  0  0  0  0
   58.0070   22.6550   44.7610 C   0  0  0  0  0  0  0  0  0  0  0  0
   57.1460   29.2930   45.6110 C   0  0  0  0  0  0  0  0  0  0  0  0
   58.0600   30.1680   46.0730 N   0  0  0  0  0  0  0  0  0  0  0  0
   57.6310   31.3220   45.5150 C   0  0  0  0  0  0  0  0  0  0  0  0
   58.2990   32.6270   45.7060 C   0  0  0  0  0  0  0  0  0  0  0  0
   58.9740   32.9150   46.9050 C   0  0  0  0  0  0  0  0  0  0  0  0
   59.6050   34.1500   47.0820 C   0  0  0  0  0  0  0  0  0  0  0  0
   59.5690   35.1080   46.0660 C   0  0  0  0  0  0  0  0  0  0  0  0
   58.9010   34.8330   44.8700 C   0  0  0  0  0  0  0  0  0  0  0  0
   58.2680   33.5990   44.6880 C   0  0  0  0  0  0  0  0  0  0  0  0
   56.5250   31.1470   44.7620 N   0  0  0  0  0  0  0  0  0  0  0  0
   56.2580   29.8790   44.8470 O   0  0  0  0  0  0  0  0  0  0  0  0
   55.1480   27.5050   45.2460 H   0  0  0  0  0  0  0  0  0  0  0  0
   55.8157   25.2823   46.7635 H   0  0  0  0  0  0  0  0  0  0  0  0
   55.2514   25.1917   45.0504 H   0  0  0  0  0  0  0  0  0  0  0  0
   57.9096   25.8127   44.7114 H   0  0  0  0  0  0  0  0  0  0  0  0
   57.9542   24.7901   46.2067 H   0  0  0  0  0  0  0  0  0  0  0  0
   55.7016   24.6367   43.1851 H   0  0  0  0  0  0  0  0  0  0  0  0
   55.4153   22.5452   41.8534 H   0  0  0  0  0  0  0  0  0  0  0  0
   56.7785   20.5247   42.3863 H   0  0  0  0  0  0  0  0  0  0  0  0
   58.4382   20.5921   44.2525 H   0  0  0  0  0  0  0  0  0  0  0  0
   58.7380   22.6812   45.5826 H   0  0  0  0  0  0  0  0  0  0  0  0
   59.0059   32.1644   47.7085 H   0  0  0  0  0  0  0  0  0  0  0  0
   60.1309   34.3677   48.0233 H   0  0  0  0  0  0  0  0  0  0  0  0
   60.0665   36.0788   46.2075 H   0  0  0  0  0  0  0  0  0  0  0  0
   58.8729   35.5879   44.0705 H   0  0  0  0  0  0  0  0  0  0  0  0
   57.7433   33.3870   43.7447 H   0  0  0  0  0  0  0  0  0  0  0  0
  1  2  2  0
  2  3  1  0
  3  4  1  0
  4  5  1  0
  5  6  1  0
  6  7  2  0
  7  8  1  0
  8  9  2  0
  9 10  1  0
 10 11  2  0
  2 12  1  0
 12 13  2  0
 13 14  1  0
 14 15  1  0
 15 16  2  0
 16 17  1  0
 17 18  2  0
 18 19  1  0
 19 20  2  0
 14 21  2  0
 21 22  1  0
 11  6  1  0
 22 12  1  0
 20 15  1  0
  3 23  1  0
  4 24  1  0
  4 25  1  0
  5 26  1  0
  5 27  1  0
  7 28  1  0
  8 29  1  0
  9 30  1  0
 10 31  1  0
 11 32  1  0
 16 33  1  0
 17 34  1  0
 18 35  1  0
 19 36  1  0
 20 37  1  0
M  END
>  <UniqueID>  (15) 
13

>  <SMILES>  (15) 
O=C(NCCc1ccccc1)c1nc(-c2ccccc2)no1

>  <Energy>  (15) 
66.79678366356008

>  <Genealogy>  (15) 
O=C(NCCc1ccccc1)c1nc(-c2ccccc2)no1 (3D coordinates assigned)
O=C(NCCc1ccccc1)c1nc(-c2ccccc2)no1 (optimized conformer: 66.79678366356008 kcal/mol)

>  <smiles>  (15) 
O=C(NCCc1ccccc1)c1nc(-c2ccccc2)no1

>  <score_type>  (15) 
oracle

>  <origin>  (15) 
adg

>  <m_score__min__energy>  (15) 
-8.6699999999999999

>  <m_primary>  (15) 
energy

$$$$
15:0
     RDKit          3D

 46 49  0  0  0  0  0  0  0  0999 V2000
   66.3350   34.0740   51.6090 Br  0  0  0  0  0  0  0  0  0  0  0  0
   64.7810   33.5980   50.6080 C   0  0  0  0  0  0  0  0  0  0  0  0
   63.4980   33.7750   51.1740 C   0  0  0  0  0  0  0  0  0  0  0  0
   62.3440   33.4280   50.4490 C   0  0  0  0  0  0  0  0  0  0  0  0
   62.5130   32.9080   49.1650 C   0  0  0  0  0  0  0  0  0  0  0  0
   61.5960   32.4780   48.2240 C   0  0  0  0  0  0  0  0  0  0  0  0
   60.0930   32.4430   48.3450 C   0  0  0  0  0  0  0  0  0  0  0  0
   59.3910   33.0260   47.1830 N   0  0  0  0  0  0  0  0  0  0  0  0
   57.9520   33.2240   47.4060 C   0  0  0  0  0  0  0  0  0  0  0  0
   57.2420   33.4830   46.0640 C   0  0  0  0  0  0  0  0  0  0  0  0
   58.1540   33.9600   44.9990 N   0  0  0  0  0  0  0  0  0  0  0  0
   58.5180   32.9570   43.9710 C   0  0  0  0  0  0  0  0  0  0  0  0
   58.0340   31.5600   44.2850 C   0  0  0  0  0  0  0  0  0  0  0  0
   58.7610   30.7390   45.1640 C   0  0  0  0  0  0  0  0  0  0  0  0
   58.2900   29.4630   45.4900 C   0  0  0  0  0  0  0  0  0  0  0  0
   57.0970   28.9940   44.9340 C   0  0  0  0  0  0  0  0  0  0  0  0
   56.3780   29.7960   44.0430 C   0  0  0  0  0  0  0  0  0  0  0  0
   56.8440   31.0720   43.7150 C   0  0  0  0  0  0  0  0  0  0  0  0
   59.2580   34.8280   45.4620 C   0  0  0  0  0  0  0  0  0  0  0  0
   60.0160   34.2630   46.6850 C   0  0  0  0  0  0  0  0  0  0  0  0
   62.3490   32.0650   47.1280 C   0  0  0  0  0  0  0  0  0  0  0  0
   63.6700   32.2250   47.3750 N   0  0  0  0  0  0  0  0  0  0  0  0
   63.7570   32.7370   48.6150 C   0  0  0  0  0  0  0  0  0  0  0  0
   64.9190   33.0730   49.3090 C   0  0  0  0  0  0  0  0  0  0  0  0
   63.4014   34.1873   52.1892 H   0  0  0  0  0  0  0  0  0  0  0  0
   61.3408   33.5621   50.8799 H   0  0  0  0  0  0  0  0  0  0  0  0
   59.7773   31.3947   48.4516 H   0  0  0  0  0  0  0  0  0  0  0  0
   59.8262   33.0522   49.2212 H   0  0  0  0  0  0  0  0  0  0  0  0
   57.5286   32.3232   47.8743 H   0  0  0  0  0  0  0  0  0  0  0  0
   57.8048   34.0917   48.0659 H   0  0  0  0  0  0  0  0  0  0  0  0
   56.7756   32.5446   45.7294 H   0  0  0  0  0  0  0  0  0  0  0  0
   56.5006   34.2771   46.2366 H   0  0  0  0  0  0  0  0  0  0  0  0
   58.0796   33.2687   43.0115 H   0  0  0  0  0  0  0  0  0  0  0  0
   59.6167   32.9160   43.9376 H   0  0  0  0  0  0  0  0  0  0  0  0
   59.7047   31.1016   45.5976 H   0  0  0  0  0  0  0  0  0  0  0  0
   58.8593   28.8281   46.1848 H   0  0  0  0  0  0  0  0  0  0  0  0
   56.7235   27.9935   45.1975 H   0  0  0  0  0  0  0  0  0  0  0  0
   55.4436   29.4220   43.5992 H   0  0  0  0  0  0  0  0  0  0  0  0
   56.2782   31.6971   43.0085 H   0  0  0  0  0  0  0  0  0  0  0  0
   59.9735   34.9516   44.6357 H   0  0  0  0  0  0  0  0  0  0  0  0
   58.8097   35.7833   45.7726 H   0  0  0  0  0  0  0  0  0  0  0  0
   61.0543   34.0465   46.3933 H   0  0  0  0  0  0  0  0  0  0  0  0
   59.9834   35.0138   47.4883 H   0  0  0  0  0  0  0  0  0  0  0  0
   61.9293   31.6651   46.1932 H   0  0  0  0  0  0  0  0  0  0  0  0
   64.4580   31.9960   46.7300 H   0  0  0  0  0  0  0  0  0  0  0  0
   65.9115   32.9324   48.8560 H   0  0  0  0  0  0  0  0  0  0  0  0
  1  2  1  0
  2  3  2  0
  3  4  1  0
  4  5  2  0
  5  6  1  0
  6  7  1  0
  7  8  1  0
  8  9  1  0
  9 10  1  0
 10 11  1  0
 11 12  1  0
 12 13  1  0
 13 14  2  0
 14 15  1  0
 15 16  2  0
 16 17  1  0
 17 18  2  0
 11 19  1  0
 19 20  1  0
  6 21  2  0
 21 22  1  0
 22 23  1  0
 23 24  2  0
 24  2  1  0
 23  5  1  0
 20  8  1  0
 18 13  1  0
  3 25  1  0
  4 26  1  0
  7 27  1  0
  7 28  1  0
  9 29  1  0
  9 30  1  0
 10 31  1  0
 10 32  1  0
 12 33  1  0
 12 34  1  0
 14 35  1  0
 15 36  1  0
 16 37  1  0
 17 38  1  0
 18 39  1  0
 19 40  1  0
 19 41  1  0
 20 42  1  0
 20 43  1  0
 21 44  1  0
 22 45  1  0
 24 46  1  0
M  END
>  <UniqueID>  (16) 
14

>  <SMILES>  (16) 
Brc1ccc2c(CN3CCN(Cc4ccccc4)CC3)c[nH]c2c1

>  <Energy>  (16) 
96.60313565542131

>  <Genealogy>  (16) 
Brc1ccc2c(CN3CCN(Cc4ccccc4)CC3)c[nH]c2c1 (3D coordinates assigned)
Brc1ccc2c(CN3CCN(Cc4ccccc4)CC3)c[nH]c2c1 (nonaromatic ring conformer: 96.60313565542131 kcal/mol)

>  <smiles>  (16) 
Brc1ccc2c(CN3CCN(Cc4ccccc4)CC3)c[nH]c2c1

>  <score_type>  (16) 
oracle

>  <origin>  (16) 
adg

>  <m_score__min__energy>  (16) 
-9.6400000000000006

>  <m_primary>  (16) 
energy

$$$$
16:0
     RDKit          3D

 35 37  0  0  0  0  0  0  0  0999 V2000
   58.1190   32.3510   41.9930 C   0  0  0  0  0  0  0  0  0  0  0  0
   57.3570   31.9650   43.1320 O   0  0  0  0  0  0  0  0  0  0  0  0
   57.7530   32.1760   44.4620 C   0  0  0  0  0  0  0  0  0  0  0  0
   57.7850   33.4610   45.0390 C   0  0  0  0  0  0  0  0  0  0  0  0
   58.1890   33.6300   46.3660 C   0  0  0  0  0  0  0  0  0  0  0  0
   58.5790   32.5260   47.1350 C   0  0  0  0  0  0  0  0  0  0  0  0
   58.9850   32.7110   48.5030 N   0  0  0  0  0  0  0  0  0  0  0  0
   58.1470   32.7020   49.5240 N   0  0  0  0  0  0  0  0  0  0  0  0
   58.8900   32.7750   50.6410 C   0  0  0  0  0  0  0  0  0  0  0  0
   58.3300   32.7060   52.0220 C   0  0  0  0  0  0  0  0  0  0  0  0
   60.2110   32.8210   50.3700 N   0  0  0  0  0  0  0  0  0  0  0  0
   60.2350   32.7940   49.0180 C   0  0  0  0  0  0  0  0  0  0  0  0
   61.4890   32.9020   48.2420 C   0  0  0  0  0  0  0  0  0  0  0  0
   62.6020   32.1020   48.5450 C   0  0  0  0  0  0  0  0  0  0  0  0
   63.7650   32.2200   47.7810 C   0  0  0  0  0  0  0  0  0  0  0  0
   63.8120   33.0940   46.7410 N   0  0  0  0  0  0  0  0  0  0  0  0
   62.7440   33.8670   46.4130 C   0  0  0  0  0  0  0  0  0  0  0  0
   61.5610   33.7800   47.1500 C   0  0  0  0  0  0  0  0  0  0  0  0
   58.5280   31.2430   46.5690 C   0  0  0  0  0  0  0  0  0  0  0  0
   58.1260   31.0700   45.2410 C   0  0  0  0  0  0  0  0  0  0  0  0
   58.0900   29.4500   44.5610 Cl  0  0  0  0  0  0  0  0  0  0  0  0
   59.0554   32.8253   42.3219 H   0  0  0  0  0  0  0  0  0  0  0  0
   58.3510   31.4617   41.3885 H   0  0  0  0  0  0  0  0  0  0  0  0
   57.5393   33.0642   41.3885 H   0  0  0  0  0  0  0  0  0  0  0  0
   57.4903   34.3362   44.4414 H   0  0  0  0  0  0  0  0  0  0  0  0
   58.2008   34.6365   46.8096 H   0  0  0  0  0  0  0  0  0  0  0  0
   57.1080   32.6000   49.4600 H   0  0  0  0  0  0  0  0  0  0  0  0
   59.1452   32.8064   52.7537 H   0  0  0  0  0  0  0  0  0  0  0  0
   57.6061   33.5217   52.1653 H   0  0  0  0  0  0  0  0  0  0  0  0
   57.8258   31.7389   52.1653 H   0  0  0  0  0  0  0  0  0  0  0  0
   62.5583   31.3864   49.3793 H   0  0  0  0  0  0  0  0  0  0  0  0
   64.6445   31.6046   48.0212 H   0  0  0  0  0  0  0  0  0  0  0  0
   62.8113   34.5635   45.5643 H   0  0  0  0  0  0  0  0  0  0  0  0
   60.6915   34.3957   46.8762 H   0  0  0  0  0  0  0  0  0  0  0  0
   58.8061   30.3675   47.1741 H   0  0  0  0  0  0  0  0  0  0  0  0
  1  2  1  0
  2  3  1  0
  3  4  2  0
  4  5  1  0
  5  6  2  0
  6  7  1  0
  7  8  1  0
  8  9  2  0
  9 10  1  0
  9 11  1  0
 11 12  2  0
 12 13  1  0
 13 14  2  0
 14 15  1  0
 15 16  2  0
 16 17  1  0
 17 18  2  0
  6 19  1  0
 19 20  2  0
 20 21  1  0
 20  3  1  0
 12  7  1  0
 18 13  1  0
  1 22  1  0
  1 23  1  0
  1 24  1  0
  4 25  1  0
  5 26  1  0
  8 27  1  0
 10 28  1  0
 10 29  1  0
 10 30  1  0
 14 31  1  0
 15 32  1  0
 17 33  1  0
 18 34  1  0
 19 35  1  0
M  CHG  1   8   1
M  END
>  <UniqueID>  (17) 
15

>  <SMILES>  (17) 
COc1ccc(-n2[nH+]c(C)nc2-c2ccncc2)cc1Cl

>  <Energy>  (17) 
79.13867430677382

>  <Genealogy>  (17) 
COc1ccc(-n2[nH+]c(C)nc2-c2ccncc2)cc1Cl (protonated)
COc1ccc(-n2[nH+]c(C)nc2-c2ccncc2)cc1Cl (3D coordinates assigned)
COc1ccc(-n2[nH+]c(C)nc2-c2ccncc2)cc1Cl (optimized conformer: 79.13867430677382 kcal/mol)

>  <smiles>  (17) 
COc1ccc(-n2nc(C)nc2-c2ccncc2)cc1Cl

>  <score_type>  (17) 
oracle

>  <origin>  (17) 
adg

>  <m_score__min__energy>  (17) 
-5.5899999999999999

>  <m_primary>  (17) 
energy

$$$$
17:0
     RDKit          3D

 39 41  0  0  0  0  0  0  0  0999 V2000
   57.3310   34.2000   45.1580 C   0  0  0  0  0  0  0  0  0  0  0  0
   58.8220   34.3570   44.8730 C   0  0  0  0  0  0  0  0  0  0  0  0
   59.5890   34.9640   46.0610 C   0  0  0  0  0  0  0  0  0  0  0  0
   60.5920   33.9960   46.6740 C   0  0  0  0  0  0  0  0  0  0  0  0
   61.9450   34.2100   46.3900 C   0  0  0  0  0  0  0  0  0  0  0  0
   62.9290   33.4100   46.9470 C   0  0  0  0  0  0  0  0  0  0  0  0
   62.5950   32.3680   47.8230 C   0  0  0  0  0  0  0  0  0  0  0  0
   63.6010   31.5970   48.4350 O   0  0  0  0  0  0  0  0  0  0  0  0
   64.5210   32.0800   49.4130 C   0  0  0  0  0  0  0  0  0  0  0  0
   61.2320   32.0880   48.1200 C   0  0  0  0  0  0  0  0  0  0  0  0
   60.2210   32.9430   47.5580 C   0  0  0  0  0  0  0  0  0  0  0  0
   58.4700   32.6770   47.9160 S   0  0  0  0  0  0  0  0  0  0  0  0
   58.5220   31.1290   47.0300 C   0  0  0  0  0  0  0  0  0  0  0  0
   57.9880   31.0160   45.7830 N   0  0  0  0  0  0  0  0  0  0  0  0
   58.0820   29.8580   45.0740 C   0  0  0  0  0  0  0  0  0  0  0  0
   58.7470   28.7560   45.6170 C   0  0  0  0  0  0  0  0  0  0  0  0
   59.3100   28.8540   46.8930 C   0  0  0  0  0  0  0  0  0  0  0  0
   59.1970   30.0530   47.6130 C   0  0  0  0  0  0  0  0  0  0  0  0
   59.7390   30.2010   49.0130 C   0  0  0  0  0  0  0  0  0  0  0  0
   60.9580   31.0440   49.1170 N   0  0  0  0  0  0  0  0  0  0  0  0
   57.1654   34.1826   46.2453 H   0  0  0  0  0  0  0  0  0  0  0  0
   56.7824   35.0453   44.7171 H   0  0  0  0  0  0  0  0  0  0  0  0
   56.9705   33.2589   44.7171 H   0  0  0  0  0  0  0  0  0  0  0  0
   59.2446   33.3663   44.6496 H   0  0  0  0  0  0  0  0  0  0  0  0
   58.9285   35.0441   44.0206 H   0  0  0  0  0  0  0  0  0  0  0  0
   60.1300   35.8555   45.7111 H   0  0  0  0  0  0  0  0  0  0  0  0
   58.8516   35.2124   46.8385 H   0  0  0  0  0  0  0  0  0  0  0  0
   62.2324   35.0277   45.7127 H   0  0  0  0  0  0  0  0  0  0  0  0
   63.9847   33.5945   46.6990 H   0  0  0  0  0  0  0  0  0  0  0  0
   64.1281   31.8737   50.4195 H   0  0  0  0  0  0  0  0  0  0  0  0
   65.4896   31.5741   49.2867 H   0  0  0  0  0  0  0  0  0  0  0  0
   64.6546   33.1645   49.2867 H   0  0  0  0  0  0  0  0  0  0  0  0
   57.6336   29.7897   44.0719 H   0  0  0  0  0  0  0  0  0  0  0  0
   58.8270   27.8194   45.0457 H   0  0  0  0  0  0  0  0  0  0  0  0
   59.8393   27.9947   47.3306 H   0  0  0  0  0  0  0  0  0  0  0  0
   58.9550   30.6524   49.6388 H   0  0  0  0  0  0  0  0  0  0  0  0
   60.0274   29.1926   49.3445 H   0  0  0  0  0  0  0  0  0  0  0  0
   61.7520   30.3590   49.1200 H   0  0  0  0  0  0  0  0  0  0  0  0
   60.9600   31.5030   50.0630 H   0  0  0  0  0  0  0  0  0  0  0  0
  1  2  1  0
  2  3  1  0
  3  4  1  0
  4  5  2  0
  5  6  1  0
  6  7  2  0
  7  8  1  0
  8  9  1  0
  7 10  1  0
 10 11  2  0
 11 12  1  0
 12 13  1  0
 13 14  2  0
 14 15  1  0
 15 16  2  0
 16 17  1  0
 17 18  2  0
 18 19  1  0
 19 20  1  0
 11  4  1  0
 18 13  1  0
 20 10  1  0
  1 21  1  0
  1 22  1  0
  1 23  1  0
  2 24  1  0
  2 25  1  0
  3 26  1  0
  3 27  1  0
  5 28  1  0
  6 29  1  0
  9 30  1  0
  9 31  1  0
  9 32  1  0
 15 33  1  0
 16 34  1  0
 17 35  1  0
 19 36  1  0
 19 37  1  0
 20 38  1  0
 20 39  1  0
M  CHG  1  20   1
M  END
>  <UniqueID>  (18) 
16

>  <SMILES>  (18) 
CCCc1ccc(OC)c2c1Sc1ncccc1C[NH2+]2

>  <Energy>  (18) 
58.64321629198531

>  <Genealogy>  (18) 
CCCc1ccc(OC)c2c1Sc1ncccc1C[NH2+]2 (protonated)
CCCc1ccc(OC)c2c1Sc1ncccc1C[NH2+]2 (3D coordinates assigned)
CCCc1ccc(OC)c2c1Sc1ncccc1C[NH2+]2 (nonaromatic ring conformer: 58.64321629198531 kcal/mol)

>  <smiles>  (18) 
CCCc1ccc(OC)c2c1Sc1ncccc1CN2

>  <score_type>  (18) 
oracle

>  <origin>  (18) 
adg

>  <m_score__min__energy>  (18) 
-4.9900000000000002

>  <m_primary>  (18) 
energy

$$$$
18:0
     RDKit          3D

 32 34  0  0  0  0  0  0  0  0999 V2000
   61.3960   28.5960   44.5130 C   0  0  0  0  0  0  0  0  0  0  0  0
   59.9690   28.4590   44.9290 C   0  0  0  0  0  0  0  0  0  0  0  0
   58.9860   29.2980   44.5400 N   0  0  0  0  0  0  0  0  0  0  0  0
   57.7850   28.9970   45.1090 C   0  0  0  0  0  0  0  0  0  0  0  0
   56.5810   29.8050   44.8500 C   0  0  0  0  0  0  0  0  0  0  0  0
   55.4520   29.3130   45.1120 O   0  0  0  0  0  0  0  0  0  0  0  0
   56.6440   31.1410   44.3280 N   0  0  0  0  0  0  0  0  0  0  0  0
   57.0900   32.3280   45.0580 C   0  0  2  0  0  0  0  0  0  0  0  0
   57.9330   33.2430   44.1410 C   0  0  0  0  0  0  0  0  0  0  0  0
   58.3750   34.5190   44.8770 C   0  0  0  0  0  0  0  0  0  0  0  0
   58.9040   34.1850   46.2390 C   0  0  0  0  0  0  0  0  0  0  0  0
   59.6310   35.0270   47.0010 N   0  0  0  0  0  0  0  0  0  0  0  0
   59.8280   34.3380   48.1450 C   0  0  0  0  0  0  0  0  0  0  0  0
   59.2120   33.1050   48.0620 C   0  0  0  0  0  0  0  0  0  0  0  0
   58.6130   33.0300   46.8640 N   0  0  0  0  0  0  0  0  0  0  0  0
   57.9210   31.8850   46.2770 C   0  0  0  0  0  0  0  0  0  0  0  0
   57.8210   27.9270   46.0010 C   0  0  0  0  0  0  0  0  0  0  0  0
   59.3970   27.3400   46.0440 S   0  0  0  0  0  0  0  0  0  0  0  0
   62.0342   28.6573   45.4068 H   0  0  0  0  0  0  0  0  0  0  0  0
   61.6885   27.7218   43.9128 H   0  0  0  0  0  0  0  0  0  0  0  0
   61.5168   29.5099   43.9128 H   0  0  0  0  0  0  0  0  0  0  0  0
   59.1310   30.0910   43.8740 H   0  0  0  0  0  0  0  0  0  0  0  0
   56.2124   32.8982   45.3965 H   0  0  0  0  0  0  0  0  0  0  0  0
   58.8262   32.6930   43.8097 H   0  0  0  0  0  0  0  0  0  0  0  0
   57.3142   33.5360   43.2801 H   0  0  0  0  0  0  0  0  0  0  0  0
   59.1641   35.0174   44.2948 H   0  0  0  0  0  0  0  0  0  0  0  0
   57.5060   35.1844   44.9871 H   0  0  0  0  0  0  0  0  0  0  0  0
   60.3947   34.7042   49.0138 H   0  0  0  0  0  0  0  0  0  0  0  0
   59.2124   32.3253   48.8379 H   0  0  0  0  0  0  0  0  0  0  0  0
   58.6625   31.1377   45.9581 H   0  0  0  0  0  0  0  0  0  0  0  0
   57.2469   31.4507   47.0300 H   0  0  0  0  0  0  0  0  0  0  0  0
   56.9689   27.5352   46.5758 H   0  0  0  0  0  0  0  0  0  0  0  0
  1  2  1  0
  2  3  2  0
  3  4  1  0
  4  5  1  0
  5  6  2  0
  5  7  1  0
  7  8  1  0
  8  9  1  0
  9 10  1  0
 10 11  1  0
 11 12  2  0
 12 13  1  0
 13 14  2  0
 14 15  1  0
 15 16  1  0
  4 17  2  0
 17 18  1  0
 18  2  1  0
 16  8  1  0
 15 11  1  0
  1 19  1  0
  1 20  1  0
  1 21  1  0
  3 22  1  0
  8 23  1  1
  9 24  1  0
  9 25  1  0
 10 26  1  0
 10 27  1  0
 13 28  1  0
 14 29  1  0
 16 30  1  0
 16 31  1  0
 17 32  1  0
M  CHG  2   3   1   7  -1
M  END
>  <UniqueID>  (19) 
17

>  <SMILES>  (19) 
Cc1[nH+]c(C(=O)[N-][C@@H]2CCc3nccn3C2)cs1

>  <Energy>  (19) 
91.78864208788217

>  <Genealogy>  (19) 
Cc1[nH+]c(C(=O)[N-]C2CCc3nccn3C2)cs1 (protonated)
Cc1[nH+]c(C(=O)[N-][C@@H]2CCc3nccn3C2)cs1 (chirality)
Cc1[nH+]c(C(=O)[N-][C@@H]2CCc3nccn3C2)cs1 (3D coordinates assigned)
Cc1[nH+]c(C(=O)[N-][C@@H]2CCc3nccn3C2)cs1 (nonaromatic ring conformer: 91.78864208788217 kcal/mol)

>  <smiles>  (19) 
Cc1nc(C(=O)NC2CCc3nccn3C2)cs1

>  <score_type>  (19) 
oracle

>  <origin>  (19) 
adg

>  <m_score__min__energy>  (19) 
-6.6900000000000004

>  <m_primary>  (19) 
energy

$$$$
19:0
     RDKit          3D

 22 23  0  0  0  0  0  0  0  0999 V2000
   55.2310   29.0370   42.2910 H   0  0  0  0  0  0  0  0  0  0  0  0
   56.2640   29.1920   42.3330 N   0  0  0  0  0  0  0  0  0  0  0  0
   56.7790   30.1250   43.0650 C   0  0  0  0  0  0  0  0  0  0  0  0
   56.8560   29.9690   44.4140 N   0  0  0  0  0  0  0  0  0  0  0  0
   57.3940   30.9340   45.2030 C   0  0  0  0  0  0  0  0  0  0  0  0
   57.4471   30.7855   46.2916 H   0  0  0  0  0  0  0  0  0  0  0  0
   57.8820   32.1190   44.6350 C   0  0  0  0  0  0  0  0  0  0  0  0
   58.4740   33.1900   45.4780 C   0  0  0  0  0  0  0  0  0  0  0  0
   59.0880   34.3100   44.8860 C   0  0  0  0  0  0  0  0  0  0  0  0
   59.1315   34.3936   43.7900 H   0  0  0  0  0  0  0  0  0  0  0  0
   59.6430   35.3170   45.6820 C   0  0  0  0  0  0  0  0  0  0  0  0
   60.1175   36.1903   45.2107 H   0  0  0  0  0  0  0  0  0  0  0  0
   59.5960   35.2160   47.0740 C   0  0  0  0  0  0  0  0  0  0  0  0
   60.0353   36.0080   47.6983 H   0  0  0  0  0  0  0  0  0  0  0  0
   58.9910   34.1090   47.6730 C   0  0  0  0  0  0  0  0  0  0  0  0
   58.9544   34.0303   48.7696 H   0  0  0  0  0  0  0  0  0  0  0  0
   58.4320   33.1010   46.8830 C   0  0  0  0  0  0  0  0  0  0  0  0
   57.9561   32.2324   47.3615 H   0  0  0  0  0  0  0  0  0  0  0  0
   57.7910   32.2570   43.2420 C   0  0  0  0  0  0  0  0  0  0  0  0
   58.1622   33.1721   42.7575 H   0  0  0  0  0  0  0  0  0  0  0  0
   57.2460   31.2650   42.4870 N   0  0  0  0  0  0  0  0  0  0  0  0
   57.1920   31.3880   41.4510 H   0  0  0  0  0  0  0  0  0  0  0  0
  1  2  1  0
  2  3  2  0
  3  4  1  0
  4  5  2  0
  5  6  1  0
  5  7  1  0
  7  8  1  0
  8  9  2  0
  9 10  1  0
  9 11  1  0
 11 12  1  0
 11 13  2  0
 13 14  1  0
 13 15  1  0
 15 16  1  0
 15 17  2  0
 17 18  1  0
  7 19  2  0
 19 20  1  0
 19 21  1  0
 21 22  1  0
 21  3  1  0
 17  8  1  0
M  END
>  <UniqueID>  (20) 
18

>  <SMILES>  (20) 
[H]/N=c1\ncc(-c2ccccc2)c[nH]1

>  <Energy>  (20) 
28.30370755432032

>  <Genealogy>  (20) 
[H]/N=c1\ncc(-c2ccccc2)c[nH]1 (cis-trans isomerization)
[H]/N=c1\ncc(-c2ccccc2)c[nH]1 (3D coordinates assigned)
[H]/N=c1\ncc(-c2ccccc2)c[nH]1 (optimized conformer: 28.30370755432032 kcal/mol)

>  <smiles>  (20) 
N=c1ncc(-c2ccccc2)c[nH]1

>  <score_type>  (20) 
oracle

>  <origin>  (20) 
adg

>  <m_score__min__energy>  (20) 
-5.4900000000000002

>  <m_primary>  (20) 
energy

$$$$
20:0
     RDKit          3D

 42 45  0  0  1  0  0  0  0  0999 V2000
   57.9330   27.8730   46.7010 O   0  0  0  0  0  0  0  0  0  0  0  0
   57.3870   27.6270   45.6140 C   0  0  0  0  0  0  0  0  0  0  0  0
   57.1290   28.6570   44.6880 N   0  0  0  0  0  0  0  0  0  0  0  0
   57.4280   30.0260   44.8420 C   0  0  0  0  0  0  0  0  0  0  0  0
   58.6620   30.3650   45.4270 C   0  0  0  0  0  0  0  0  0  0  0  0
   59.0470   31.6610   45.6200 C   0  0  0  0  0  0  0  0  0  0  0  0
   58.2480   32.7240   45.2530 C   0  0  0  0  0  0  0  0  0  0  0  0
   58.6320   34.1430   45.4500 C   0  0  0  0  0  0  0  0  0  0  0  0
   59.9290   34.3120   46.0080 N   0  0  0  0  0  0  0  0  0  0  0  0
   60.3060   34.1450   47.2130 C   0  0  0  0  0  0  0  0  0  0  0  0
   59.4290   34.3540   48.2010 N   0  0  0  0  0  0  0  0  0  0  0  0
   59.6740   34.2210   49.5050 C   0  0  0  0  0  0  0  0  0  0  0  0
   60.9370   33.8350   49.8430 N   0  0  0  0  0  0  0  0  0  0  0  0
   61.8270   33.6200   48.8940 C   0  0  0  0  0  0  0  0  0  0  0  0
   63.6080   33.0940   49.0250 S   0  0  0  0  0  0  0  0  0  0  0  0
   63.8560   33.1070   47.2120 C   0  0  0  0  0  0  0  0  0  0  0  0
   62.6350   33.4880   46.7030 C   0  0  0  0  0  0  0  0  0  0  0  0
   61.6290   33.7440   47.5270 C   0  0  0  0  0  0  0  0  0  0  0  0
   57.0280   32.3960   44.6750 C   0  0  0  0  0  0  0  0  0  0  0  0
   56.6430   31.0710   44.4810 C   0  0  0  0  0  0  0  0  0  0  0  0
   57.0370   26.2150   45.3650 C   0  0  0  0  0  0  0  0  0  0  0  0
   57.7150   25.4340   44.4570 C   0  0  0  0  0  0  0  0  0  0  0  0
   57.3590   24.1120   44.2480 C   0  0  0  0  0  0  0  0  0  0  0  0
   56.3170   23.5270   44.9380 C   0  0  0  0  0  0  0  0  0  0  0  0
   55.9580   22.2380   44.7440 F   0  0  0  0  0  0  0  0  0  0  0  0
   55.6280   24.2970   45.8510 C   0  0  0  0  0  0  0  0  0  0  0  0
   55.9960   25.6090   46.0450 C   0  0  0  0  0  0  0  0  0  0  0  0
   56.6620   28.3600   43.7890 H   0  0  0  0  0  0  0  0  0  0  0  0
   59.3405   29.5577   45.7399 H   0  0  0  0  0  0  0  0  0  0  0  0
   60.0244   31.8635   46.0824 H   0  0  0  0  0  0  0  0  0  0  0  0
   58.6055   34.6487   44.4735 H   0  0  0  0  0  0  0  0  0  0  0  0
   57.9157   34.5736   46.1652 H   0  0  0  0  0  0  0  0  0  0  0  0
   58.4630   34.6490   47.9330 H   0  0  0  0  0  0  0  0  0  0  0  0
   58.9014   34.4118   50.2644 H   0  0  0  0  0  0  0  0  0  0  0  0
   64.7732   32.8651   46.6550 H   0  0  0  0  0  0  0  0  0  0  0  0
   62.4947   33.5797   45.6158 H   0  0  0  0  0  0  0  0  0  0  0  0
   56.3487   33.2028   44.3626 H   0  0  0  0  0  0  0  0  0  0  0  0
   55.6666   30.8652   44.0181 H   0  0  0  0  0  0  0  0  0  0  0  0
   58.5520   25.8661   43.8889 H   0  0  0  0  0  0  0  0  0  0  0  0
   57.9201   23.5142   43.5147 H   0  0  0  0  0  0  0  0  0  0  0  0
   54.7909   23.8661   46.4198 H   0  0  0  0  0  0  0  0  0  0  0  0
   55.4337   26.2060   46.7781 H   0  0  0  0  0  0  0  0  0  0  0  0
  1  2  2  0
  2  3  1  0
  3  4  1  0
  4  5  2  0
  5  6  1  0
  6  7  2  0
  7  8  1  0
  8  9  1  0
  9 10  2  0
 10 11  1  0
 11 12  1  0
 12 13  2  0
 13 14  1  0
 14 15  1  0
 15 16  1  0
 16 17  2  0
 17 18  1  0
  7 19  1  0
 19 20  2  0
  2 21  1  0
 21 22  2  0
 22 23  1  0
 23 24  2  0
 24 25  1  0
 24 26  1  0
 26 27  2  0
 20  4  1  0
 27 21  1  0
 18 10  1  0
 18 14  2  0
  3 28  1  0
  5 29  1  0
  6 30  1  0
  8 31  1  0
  8 32  1  0
 11 33  1  0
 12 34  1  0
 16 35  1  0
 17 36  1  0
 19 37  1  0
 20 38  1  0
 22 39  1  0
 23 40  1  0
 26 41  1  0
 27 42  1  0
M  END
>  <smiles>  (21) 
O=C(Nc1ccc(CN=c2[nH]cnc3sccc23)cc1)c1ccc(F)cc1

>  <score_type>  (21) 
oracle

>  <origin>  (21) 
adg

>  <m_score__min__energy>  (21) 
-8.0500000000000007

>  <m_primary>  (21) 
energy

$$$$
21:0
     RDKit          3D

 52 55  0  0  0  0  0  0  0  0999 V2000
   54.9070   30.4640   45.3490 H   0  0  0  0  0  0  0  0  0  0  0  0
   55.2590   30.0660   44.4510 N   0  0  0  0  0  0  0  0  0  0  0  0
   56.5110   30.0830   44.1140 C   0  0  0  0  0  0  0  0  0  0  0  0
   57.4670   31.0100   44.7740 C   0  0  0  0  0  0  0  0  0  0  0  0
   58.6370   30.5110   45.3730 C   0  0  0  0  0  0  0  0  0  0  0  0
   58.8447   29.4310   45.3499 H   0  0  0  0  0  0  0  0  0  0  0  0
   59.5370   31.3770   45.9970 C   0  0  0  0  0  0  0  0  0  0  0  0
   60.4490   30.9760   46.4632 H   0  0  0  0  0  0  0  0  0  0  0  0
   59.2840   32.7530   46.0320 C   0  0  0  0  0  0  0  0  0  0  0  0
   60.2140   33.6390   46.6710 N   0  0  0  0  0  0  0  0  0  0  0  0
   59.7380   34.5470   47.7220 C   0  0  0  0  0  0  0  0  0  0  0  0
   60.5128   35.3002   47.9280 H   0  0  0  0  0  0  0  0  0  0  0  0
   58.8152   35.0369   47.3780 H   0  0  0  0  0  0  0  0  0  0  0  0
   59.4420   33.7820   48.9850 C   0  0  0  0  0  0  0  0  0  0  0  0
   60.0200   34.1700   50.2040 C   0  0  0  0  0  0  0  0  0  0  0  0
   60.7373   35.0036   50.2279 H   0  0  0  0  0  0  0  0  0  0  0  0
   59.6900   33.5040   51.3870 C   0  0  0  0  0  0  0  0  0  0  0  0
   60.1456   33.8159   52.3384 H   0  0  0  0  0  0  0  0  0  0  0  0
   58.7800   32.4400   51.3630 C   0  0  0  0  0  0  0  0  0  0  0  0
   58.4380   31.7560   52.5830 C   0  0  0  0  0  0  0  0  0  0  0  0
   58.1640   31.2060   53.5630 N   0  0  0  0  0  0  0  0  0  0  0  0
   58.2020   32.0450   50.1510 C   0  0  0  0  0  0  0  0  0  0  0  0
   57.4896   31.2071   50.1294 H   0  0  0  0  0  0  0  0  0  0  0  0
   58.5290   32.7140   48.9680 C   0  0  0  0  0  0  0  0  0  0  0  0
   58.0691   32.4027   48.0185 H   0  0  0  0  0  0  0  0  0  0  0  0
   61.6490   33.4880   46.4040 C   0  0  0  0  0  0  0  0  0  0  0  0
   61.7867   32.9001   45.4845 H   0  0  0  0  0  0  0  0  0  0  0  0
   62.0969   34.4857   46.2853 H   0  0  0  0  0  0  0  0  0  0  0  0
   62.3240   32.7830   47.5490 C   0  0  0  0  0  0  0  0  0  0  0  0
   61.7070   31.6880   48.1730 C   0  0  0  0  0  0  0  0  0  0  0  0
   60.7472   31.3106   47.7905 H   0  0  0  0  0  0  0  0  0  0  0  0
   62.3040   31.0740   49.2770 C   0  0  0  0  0  0  0  0  0  0  0  0
   61.8156   30.2121   49.7550 H   0  0  0  0  0  0  0  0  0  0  0  0
   63.5230   31.5520   49.7780 C   0  0  0  0  0  0  0  0  0  0  0  0
   64.1220   30.9540   50.8970 C   0  0  0  0  0  0  0  0  0  0  0  0
   63.6370   30.0973   51.3878 H   0  0  0  0  0  0  0  0  0  0  0  0
   65.3350   31.4460   51.3890 C   0  0  0  0  0  0  0  0  0  0  0  0
   65.8025   30.9738   52.2657 H   0  0  0  0  0  0  0  0  0  0  0  0
   65.9550   32.5340   50.7720 C   0  0  0  0  0  0  0  0  0  0  0  0
   66.9076   32.9176   51.1662 H   0  0  0  0  0  0  0  0  0  0  0  0
   65.3700   33.1380   49.6550 C   0  0  0  0  0  0  0  0  0  0  0  0
   65.8639   33.9938   49.1716 H   0  0  0  0  0  0  0  0  0  0  0  0
   64.1540   32.6540   49.1500 C   0  0  0  0  0  0  0  0  0  0  0  0
   63.5520   33.2570   48.0360 C   0  0  0  0  0  0  0  0  0  0  0  0
   64.0452   34.1065   47.5410 H   0  0  0  0  0  0  0  0  0  0  0  0
   58.1180   33.2590   45.4440 C   0  0  0  0  0  0  0  0  0  0  0  0
   57.8570   34.5900   45.4810 F   0  0  0  0  0  0  0  0  0  0  0  0
   57.2150   32.3930   44.8200 C   0  0  0  0  0  0  0  0  0  0  0  0
   56.3002   32.7965   44.3614 H   0  0  0  0  0  0  0  0  0  0  0  0
   56.9620   29.2000   43.0830 N   0  0  0  0  0  0  0  0  0  0  0  0
   57.9750   29.1210   42.8430 H   0  0  0  0  0  0  0  0  0  0  0  0
   56.2840   28.5790   42.5890 H   0  0  0  0  0  0  0  0  0  0  0  0
  1  2  1  0
  2  3  2  0
  3  4  1  0
  4  5  2  0
  5  6  1  0
  5  7  1  0
  7  8  1  0
  7  9  2  0
  9 10  1  0
 10 11  1  0
 11 12  1  0
 11 13  1  0
 11 14  1  0
 14 15  2  0
 15 16  1  0
 15 17  1  0
 17 18  1  0
 17 19  2  0
 19 20  1  0
 20 21  3  0
 19 22  1  0
 22 23  1  0
 22 24  2  0
 24 25  1  0
 10 26  1  0
 26 27  1  0
 26 28  1  0
 26 29  1  0
 29 30  2  0
 30 31  1  0
 30 32  1  0
 32 33  1  0
 32 34  2  0
 34 35  1  0
 35 36  1  0
 35 37  2  0
 37 38  1  0
 37 39  1  0
 39 40  1  0
 39 41  2  0
 41 42  1  0
 41 43  1  0
 43 44  2  0
 44 45  1  0
  9 46  1  0
 46 47  1  0
 46 48  2  0
 48 49  1  0
  3 50  1  0
 50 51  1  0
 50 52  1  0
 48  4  1  0
 24 14  1  0
 44 29  1  0
 43 34  1  0
M  END
>  <UniqueID>  (22) 
19

>  <SMILES>  (22) 
[H]/N=C(/N)c1ccc(N(Cc2ccc(C#N)cc2)Cc2ccc3ccccc3c2)c(F)c1

>  <Energy>  (22) 
61.58312391712416

>  <Genealogy>  (22) 
[H]/N=C(/N)c1ccc(N(Cc2ccc(C#N)cc2)Cc2ccc3ccccc3c2)c(F)c1 (cis-trans isomerization)
[H]/N=C(/N)c1ccc(N(Cc2ccc(C#N)cc2)Cc2ccc3ccccc3c2)c(F)c1 (3D coordinates assigned)
[H]/N=C(/N)c1ccc(N(Cc2ccc(C#N)cc2)Cc2ccc3ccccc3c2)c(F)c1 (optimized conformer: 61.58312391712416 kcal/mol)

>  <smiles>  (22) 
N#Cc1ccc(CN(Cc2ccc3ccccc3c2)c2ccc(C(=N)N)cc2F)cc1

>  <score_type>  (22) 
oracle

>  <origin>  (22) 
adg

>  <m_score__min__energy>  (22) 
-9.1899999999999995

>  <m_primary>  (22) 
energy

$$$$
22:0
     RDKit          3D

 65 68  0  0  0  0  0  0  0  0999 V2000
   50.2900   33.0620   53.3700 C   0  0  0  0  0  0  0  0  0  0  0  0
   50.6980   33.0260   52.0080 O   0  0  0  0  0  0  0  0  0  0  0  0
   51.4620   32.0000   51.4350 C   0  0  0  0  0  0  0  0  0  0  0  0
   51.0200   31.2600   50.3220 C   0  0  0  0  0  0  0  0  0  0  0  0
   51.8200   30.2460   49.7900 C   0  0  0  0  0  0  0  0  0  0  0  0
   53.0620   29.9570   50.3610 C   0  0  0  0  0  0  0  0  0  0  0  0
   53.5150   30.6860   51.4720 C   0  0  0  0  0  0  0  0  0  0  0  0
   54.8580   30.3770   52.0750 C   0  0  0  0  0  0  0  0  0  0  0  0
   55.8550   31.3400   51.6120 N   0  0  0  0  0  0  0  0  0  0  0  0
   57.2370   30.9880   51.4380 C   0  0  0  0  0  0  0  0  0  0  0  0
   57.6030   29.7890   51.5760 O   0  0  0  0  0  0  0  0  0  0  0  0
   58.2440   32.0060   51.0940 C   0  0  0  0  0  0  0  0  0  0  0  0
   58.9510   32.1100   49.9100 C   0  0  0  0  0  0  0  0  0  0  0  0
   59.7300   33.2340   50.0980 C   0  0  0  0  0  0  0  0  0  0  0  0
   60.7100   33.8310   49.1180 C   0  0  1  0  0  0  0  0  0  0  0  0
   62.1310   33.5240   49.6340 C   0  0  0  0  0  0  0  0  0  0  0  0
   63.1920   33.9580   48.6360 C   0  0  0  0  0  0  0  0  0  0  0  0
   62.9740   33.2150   47.3260 C   0  0  0  0  0  0  0  0  0  0  0  0
   61.6010   33.5520   46.7440 C   0  0  0  0  0  0  0  0  0  0  0  0
   60.5000   33.3690   47.7140 N   0  0  0  0  0  0  0  0  0  0  0  0
   59.1500   33.2390   47.1720 C   0  0  0  0  0  0  0  0  0  0  0  0
   58.1920   33.8670   47.7040 O   0  0  0  0  0  0  0  0  0  0  0  0
   58.8240   32.2980   46.0270 C   0  0  0  0  0  0  0  0  0  0  0  0
   58.4630   30.8680   46.4820 C   0  0  0  0  0  0  0  0  0  0  0  0
   59.6710   29.9160   46.5220 C   0  0  0  0  0  0  0  0  0  0  0  0
   60.2080   29.7090   47.9150 C   0  0  0  0  0  0  0  0  0  0  0  0
   61.3230   30.4400   48.3620 C   0  0  0  0  0  0  0  0  0  0  0  0
   61.8160   30.2510   49.6560 C   0  0  0  0  0  0  0  0  0  0  0  0
   61.2080   29.3270   50.5100 C   0  0  0  0  0  0  0  0  0  0  0  0
   60.1020   28.5940   50.0730 C   0  0  0  0  0  0  0  0  0  0  0  0
   59.5940   28.7900   48.7840 C   0  0  0  0  0  0  0  0  0  0  0  0
   59.4880   33.7250   51.2910 O   0  0  0  0  0  0  0  0  0  0  0  0
   58.5960   33.0130   51.9190 N   0  0  0  0  0  0  0  0  0  0  0  0
   52.7100   31.7090   52.0010 C   0  0  0  0  0  0  0  0  0  0  0  0
   51.1741   32.9840   54.0198 H   0  0  0  0  0  0  0  0  0  0  0  0
   49.7691   34.0096   53.5718 H   0  0  0  0  0  0  0  0  0  0  0  0
   49.6112   32.2203   53.5718 H   0  0  0  0  0  0  0  0  0  0  0  0
   50.0418   31.4809   49.8699 H   0  0  0  0  0  0  0  0  0  0  0  0
   51.4709   29.6730   48.9184 H   0  0  0  0  0  0  0  0  0  0  0  0
   53.6867   29.1560   49.9389 H   0  0  0  0  0  0  0  0  0  0  0  0
   54.7844   30.4295   53.1713 H   0  0  0  0  0  0  0  0  0  0  0  0
   55.1653   29.3670   51.7661 H   0  0  0  0  0  0  0  0  0  0  0  0
   55.5350   32.3140   51.4100 H   0  0  0  0  0  0  0  0  0  0  0  0
   58.9038   31.4536   49.0286 H   0  0  0  0  0  0  0  0  0  0  0  0
   60.5524   34.9184   49.0657 H   0  0  0  0  0  0  0  0  0  0  0  0
   62.2908   34.0599   50.5813 H   0  0  0  0  0  0  0  0  0  0  0  0
   62.2180   32.4371   49.7794 H   0  0  0  0  0  0  0  0  0  0  0  0
   63.1141   35.0415   48.4628 H   0  0  0  0  0  0  0  0  0  0  0  0
   64.1917   33.7266   49.0324 H   0  0  0  0  0  0  0  0  0  0  0  0
   63.7540   33.5092   46.6083 H   0  0  0  0  0  0  0  0  0  0  0  0
   63.0247   32.1329   47.5169 H   0  0  0  0  0  0  0  0  0  0  0  0
   61.6078   34.6019   46.4158 H   0  0  0  0  0  0  0  0  0  0  0  0
   61.4202   32.8607   45.9077 H   0  0  0  0  0  0  0  0  0  0  0  0
   57.9699   32.7112   45.4704 H   0  0  0  0  0  0  0  0  0  0  0  0
   59.7300   32.2191   45.4082 H   0  0  0  0  0  0  0  0  0  0  0  0
   58.0285   30.9225   47.4911 H   0  0  0  0  0  0  0  0  0  0  0  0
   57.7541   30.4622   45.7453 H   0  0  0  0  0  0  0  0  0  0  0  0
   59.3633   28.9411   46.1159 H   0  0  0  0  0  0  0  0  0  0  0  0
   60.4724   30.3739   45.9236 H   0  0  0  0  0  0  0  0  0  0  0  0
   61.8090   31.1633   47.6907 H   0  0  0  0  0  0  0  0  0  0  0  0
   62.6842   30.8306   50.0029 H   0  0  0  0  0  0  0  0  0  0  0  0
   61.6004   29.1768   51.5266 H   0  0  0  0  0  0  0  0  0  0  0  0
   59.6295   27.8612   50.7436 H   0  0  0  0  0  0  0  0  0  0  0  0
   58.7122   28.2237   48.4498 H   0  0  0  0  0  0  0  0  0  0  0  0
   53.0631   32.2869   52.8678 H   0  0  0  0  0  0  0  0  0  0  0  0
  1  2  1  0
  2  3  1  0
  3  4  2  0
  4  5  1  0
  5  6  2  0
  6  7  1  0
  7  8  1  0
  8  9  1  0
  9 10  1  0
 10 11  2  0
 10 12  1  0
 12 13  1  0
 13 14  2  0
 14 15  1  0
 15 16  1  0
 16 17  1  0
 17 18  1  0
 18 19  1  0
 19 20  1  0
 20 21  1  0
 21 22  2  0
 21 23  1  0
 23 24  1  0
 24 25  1  0
 25 26  1  0
 26 27  2  0
 27 28  1  0
 28 29  2  0
 29 30  1  0
 30 31  2  0
 14 32  1  0
 32 33  1  0
  7 34  2  0
 34  3  1  0
 33 12  2  0
 20 15  1  0
 31 26  1  0
  1 35  1  0
  1 36  1  0
  1 37  1  0
  4 38  1  0
  5 39  1  0
  6 40  1  0
  8 41  1  0
  8 42  1  0
  9 43  1  0
 13 44  1  0
 15 45  1  6
 16 46  1  0
 16 47  1  0
 17 48  1  0
 17 49  1  0
 18 50  1  0
 18 51  1  0
 19 52  1  0
 19 53  1  0
 23 54  1  0
 23 55  1  0
 24 56  1  0
 24 57  1  0
 25 58  1  0
 25 59  1  0
 27 60  1  0
 28 61  1  0
 29 62  1  0
 30 63  1  0
 31 64  1  0
 34 65  1  0
M  END
>  <UniqueID>  (23) 
20

>  <SMILES>  (23) 
COc1cccc(CNC(=O)c2cc([C@H]3CCCCN3C(=O)CCCc3ccccc3)on2)c1

>  <Energy>  (23) 
91.75867241651396

>  <Genealogy>  (23) 
COc1cccc(CNC(=O)c2cc([C@H]3CCCCN3C(=O)CCCc3ccccc3)on2)c1 (chirality)
COc1cccc(CNC(=O)c2cc([C@H]3CCCCN3C(=O)CCCc3ccccc3)on2)c1 (3D coordinates assigned)
COc1cccc(CNC(=O)c2cc([C@H]3CCCCN3C(=O)CCCc3ccccc3)on2)c1 (nonaromatic ring conformer: 91.75867241651396 kcal/mol)

>  <smiles>  (23) 
COc1cccc(CNC(=O)c2cc(C3CCCCN3C(=O)CCCc3ccccc3)on2)c1

>  <score_type>  (23) 
oracle

>  <origin>  (23) 
adg

>  <m_score__min__energy>  (23) 
-10.77

>  <m_primary>  (23) 
energy

$$$$
23:0
     RDKit          3D

 18 19  0  0  0  0  0  0  0  0999 V2000
   57.3980   32.2570   41.5050 C   0  0  0  0  0  0  0  0  0  0  0  0
   57.7170   32.1630   42.9240 N   0  0  0  0  0  0  0  0  0  0  0  0
   58.3230   33.1030   43.7020 C   0  0  0  0  0  0  0  0  0  0  0  0
   58.4330   32.6140   44.9720 N   0  0  0  0  0  0  0  0  0  0  0  0
   57.8980   31.3780   44.9770 C   0  0  0  0  0  0  0  0  0  0  0  0
   57.7260   30.4310   45.9170 N   0  0  0  0  0  0  0  0  0  0  0  0
   57.1420   29.2540   45.6290 C   0  0  0  0  0  0  0  0  0  0  0  0
   56.6940   28.9530   44.3790 N   0  0  0  0  0  0  0  0  0  0  0  0
   56.8510   29.8690   43.4310 C   0  0  0  0  0  0  0  0  0  0  0  0
   56.4240   29.5840   42.2360 N   0  0  0  0  0  0  0  0  0  0  0  0
   57.4470   31.0780   43.7070 C   0  0  0  0  0  0  0  0  0  0  0  0
   56.3492   32.5661   41.3847 H   0  0  0  0  0  0  0  0  0  0  0  0
   58.0559   32.9995   41.0297 H   0  0  0  0  0  0  0  0  0  0  0  0
   57.5482   31.2764   41.0297 H   0  0  0  0  0  0  0  0  0  0  0  0
   58.6665   34.0916   43.3633 H   0  0  0  0  0  0  0  0  0  0  0  0
   57.0224   28.5098   46.4301 H   0  0  0  0  0  0  0  0  0  0  0  0
   56.2500   28.0260   44.2150 H   0  0  0  0  0  0  0  0  0  0  0  0
   55.5490   29.0040   42.1730 H   0  0  0  0  0  0  0  0  0  0  0  0
  1  2  1  0
  2  3  1  0
  3  4  2  0
  4  5  1  0
  5  6  1  0
  6  7  2  0
  7  8  1  0
  8  9  1  0
  9 10  2  3
  9 11  1  0
 11  2  1  0
 11  5  2  0
  1 12  1  0
  1 13  1  0
  1 14  1  0
  3 15  1  0
  7 16  1  0
  8 17  1  0
 10 18  1  0
M  END
>  <smiles>  (24) 
Cn1cnc2nc[nH]c(=N)c21

>  <score_type>  (24) 
oracle

>  <origin>  (24) 
adg

>  <m_score__min__energy>  (24) 
-4.3700000000000001

>  <m_primary>  (24) 
energy

$$$$
24:0
     RDKit          3D

 29 31  0  0  0  0  0  0  0  0999 V2000
   59.6820   35.3330   46.3720 C   0  0  0  0  0  0  0  0  0  0  0  0
   58.9130   34.1340   45.9010 C   0  0  0  0  0  0  0  0  0  0  0  0
   58.7080   33.0450   46.7590 C   0  0  0  0  0  0  0  0  0  0  0  0
   58.0240   31.9120   46.3110 C   0  0  0  0  0  0  0  0  0  0  0  0
   57.5510   31.8400   44.9880 C   0  0  0  0  0  0  0  0  0  0  0  0
   56.8120   30.6530   44.4970 C   0  0  0  0  0  0  0  0  0  0  0  0
   55.9610   30.7980   43.5780 O   0  0  0  0  0  0  0  0  0  0  0  0
   57.0500   29.2990   45.0310 C   0  0  0  0  0  0  0  0  0  0  0  0
   58.2870   28.8680   45.3970 N   0  0  0  0  0  0  0  0  0  0  0  0
   58.0450   27.6300   45.8480 C   0  0  0  0  0  0  0  0  0  0  0  0
   58.9610   26.7110   46.3530 C   0  0  0  0  0  0  0  0  0  0  0  0
   58.4680   25.4610   46.7750 C   0  0  0  0  0  0  0  0  0  0  0  0
   57.0870   25.1690   46.6810 C   0  0  0  0  0  0  0  0  0  0  0  0
   56.1910   26.1240   46.1660 C   0  0  0  0  0  0  0  0  0  0  0  0
   56.7160   27.3490   45.7580 C   0  0  0  0  0  0  0  0  0  0  0  0
   56.0550   28.3960   45.2460 N   0  0  0  0  0  0  0  0  0  0  0  0
   57.7600   32.9360   44.1320 C   0  0  0  0  0  0  0  0  0  0  0  0
   58.4460   34.0680   44.5810 C   0  0  0  0  0  0  0  0  0  0  0  0
   59.6942   35.3520   47.4718 H   0  0  0  0  0  0  0  0  0  0  0  0
   60.7138   35.2782   45.9948 H   0  0  0  0  0  0  0  0  0  0  0  0
   59.2018   36.2480   45.9948 H   0  0  0  0  0  0  0  0  0  0  0  0
   59.0877   33.0824   47.7907 H   0  0  0  0  0  0  0  0  0  0  0  0
   57.8540   31.0699   46.9980 H   0  0  0  0  0  0  0  0  0  0  0  0
   60.0320   26.9527   46.4200 H   0  0  0  0  0  0  0  0  0  0  0  0
   59.1602   24.7080   47.1797 H   0  0  0  0  0  0  0  0  0  0  0  0
   56.7114   24.1897   47.0124 H   0  0  0  0  0  0  0  0  0  0  0  0
   55.1146   25.9113   46.0882 H   0  0  0  0  0  0  0  0  0  0  0  0
   57.3803   32.9021   43.1002 H   0  0  0  0  0  0  0  0  0  0  0  0
   58.6201   34.9106   43.8956 H   0  0  0  0  0  0  0  0  0  0  0  0
  1  2  1  0
  2  3  2  0
  3  4  1  0
  4  5  2  0
  5  6  1  0
  6  7  2  0
  6  8  1  0
  8  9  2  0
  9 10  1  0
 10 11  2  0
 11 12  1  0
 12 13  2  0
 13 14  1  0
 14 15  2  0
 15 16  1  0
  5 17  1  0
 17 18  2  0
 18  2  1  0
 16  8  1  0
 15 10  1  0
  1 19  1  0
  1 20  1  0
  1 21  1  0
  3 22  1  0
  4 23  1  0
 11 24  1  0
 12 25  1  0
 13 26  1  0
 14 27  1  0
 17 28  1  0
 18 29  1  0
M  CHG  1  16  -1
M  END
>  <UniqueID>  (25) 
21

>  <SMILES>  (25) 
Cc1ccc(C(=O)c2nc3ccccc3[n-]2)cc1

>  <Energy>  (25) 
69.16813206193508

>  <Genealogy>  (25) 
Cc1ccc(C(=O)c2nc3ccccc3[n-]2)cc1 (protonated)
Cc1ccc(C(=O)c2nc3ccccc3[n-]2)cc1 (3D coordinates assigned)
Cc1ccc(C(=O)c2nc3ccccc3[n-]2)cc1 (optimized conformer: 69.16813206193508 kcal/mol)

>  <smiles>  (25) 
Cc1ccc(C(=O)c2nc3ccccc3[nH]2)cc1

>  <score_type>  (25) 
oracle

>  <origin>  (25) 
adg

>  <m_score__min__energy>  (25) 
-8.2599999999999998

>  <m_primary>  (25) 
energy

$$$$
25:0
     RDKit          3D

 32 33  0  0  0  0  0  0  0  0999 V2000
   57.6924   32.5799   42.6223 H   0  0  0  0  0  0  0  0  0  0  0  0
   57.3950   32.0180   43.5200 C   0  0  0  0  0  0  0  0  0  0  0  0
   57.0090   30.5990   43.3710 C   0  0  0  0  0  0  0  0  0  0  0  0
   56.2560   30.2820   42.4110 O   0  0  0  0  0  0  0  0  0  0  0  0
   57.4590   29.5390   44.3020 C   0  0  0  0  0  0  0  0  0  0  0  0
   58.8330   29.3380   44.5030 C   0  0  0  0  0  0  0  0  0  0  0  0
   59.5603   29.9653   43.9669 H   0  0  0  0  0  0  0  0  0  0  0  0
   59.2850   28.3470   45.3790 C   0  0  0  0  0  0  0  0  0  0  0  0
   60.3650   28.1931   45.5205 H   0  0  0  0  0  0  0  0  0  0  0  0
   58.3660   27.5450   46.0810 C   0  0  0  0  0  0  0  0  0  0  0  0
   58.7690   26.5360   46.9670 O   0  0  0  0  0  0  0  0  0  0  0  0
   59.8320   26.6690   47.9060 C   0  0  0  0  0  0  0  0  0  0  0  0
   59.4273   26.6184   48.9276 H   0  0  0  0  0  0  0  0  0  0  0  0
   60.5563   25.8545   47.7577 H   0  0  0  0  0  0  0  0  0  0  0  0
   60.3333   27.6369   47.7577 H   0  0  0  0  0  0  0  0  0  0  0  0
   56.9950   27.7610   45.8970 C   0  0  0  0  0  0  0  0  0  0  0  0
   56.2689   27.1424   46.4448 H   0  0  0  0  0  0  0  0  0  0  0  0
   56.5380   28.7540   45.0250 C   0  0  0  0  0  0  0  0  0  0  0  0
   55.1690   28.9660   44.9000 O   0  0  0  0  0  0  0  0  0  0  0  0
   57.3980   32.6500   44.7040 C   0  0  0  0  0  0  0  0  0  0  0  0
   56.4484   33.0674   45.0702 H   0  0  0  0  0  0  0  0  0  0  0  0
   58.6060   32.8190   45.5480 C   0  0  0  0  0  0  0  0  0  0  0  0
   59.3370   34.0140   45.4390 C   0  0  0  0  0  0  0  0  0  0  0  0
   59.0009   34.7970   44.7433 H   0  0  0  0  0  0  0  0  0  0  0  0
   60.4880   34.2170   46.2070 C   0  0  0  0  0  0  0  0  0  0  0  0
   61.0484   35.1594   46.1183 H   0  0  0  0  0  0  0  0  0  0  0  0
   60.9270   33.2240   47.0870 C   0  0  0  0  0  0  0  0  0  0  0  0
   62.5000   33.5020   48.1350 Br  0  0  0  0  0  0  0  0  0  0  0  0
   60.2180   32.0250   47.1940 C   0  0  0  0  0  0  0  0  0  0  0  0
   60.5665   31.2418   47.8833 H   0  0  0  0  0  0  0  0  0  0  0  0
   59.0670   31.8170   46.4280 C   0  0  0  0  0  0  0  0  0  0  0  0
   58.5181   30.8674   46.5118 H   0  0  0  0  0  0  0  0  0  0  0  0
  1  2  1  0
  2  3  1  0
  3  4  2  0
  3  5  1  0
  5  6  2  0
  6  7  1  0
  6  8  1  0
  8  9  1  0
  8 10  2  0
 10 11  1  0
 11 12  1  0
 12 13  1  0
 12 14  1  0
 12 15  1  0
 10 16  1  0
 16 17  1  0
 16 18  2  0
 18 19  1  0
  2 20  2  0
 20 21  1  0
 20 22  1  0
 22 23  2  0
 23 24  1  0
 23 25  1  0
 25 26  1  0
 25 27  2  0
 27 28  1  0
 27 29  1  0
 29 30  1  0
 29 31  2  0
 31 32  1  0
 18  5  1  0
 31 22  1  0
M  CHG  1  19  -1
M  END
>  <UniqueID>  (26) 
22

>  <SMILES>  (26) 
COc1ccc(C(=O)/C=C/c2ccc(Br)cc2)c([O-])c1

>  <Energy>  (26) 
40.502240799099496

>  <Genealogy>  (26) 
COc1ccc(C(=O)C=Cc2ccc(Br)cc2)c([O-])c1 (protonated)
COc1ccc(C(=O)/C=C/c2ccc(Br)cc2)c([O-])c1 (cis-trans isomerization)
COc1ccc(C(=O)/C=C/c2ccc(Br)cc2)c([O-])c1 (3D coordinates assigned)
COc1ccc(C(=O)/C=C/c2ccc(Br)cc2)c([O-])c1 (optimized conformer: 40.502240799099496 kcal/mol)

>  <smiles>  (26) 
COc1ccc(C(=O)C=Cc2ccc(Br)cc2)c(O)c1

>  <score_type>  (26) 
oracle

>  <origin>  (26) 
adg

>  <m_score__min__energy>  (26) 
-11.56

>  <m_primary>  (26) 
energy

$$$$
26:0
     RDKit          3D

 47 50  0  0  0  0  0  0  0  0999 V2000
   54.7190   24.0390   45.3360 C   0  0  0  0  0  0  0  0  0  0  0  0
   55.4420   25.2680   45.7820 C   0  0  0  0  0  0  0  0  0  0  0  0
   54.7900   26.3290   45.9810 O   0  0  0  0  0  0  0  0  0  0  0  0
   56.8460   25.2050   46.0720 N   0  0  0  0  0  0  0  0  0  0  0  0
   57.6700   26.3570   46.3280 C   0  0  0  0  0  0  0  0  0  0  0  0
   58.6730   26.3380   47.3130 C   0  0  0  0  0  0  0  0  0  0  0  0
   59.4440   27.4760   47.5570 C   0  0  0  0  0  0  0  0  0  0  0  0
   59.2120   28.6490   46.8350 C   0  0  0  0  0  0  0  0  0  0  0  0
   58.1940   28.6980   45.8690 C   0  0  0  0  0  0  0  0  0  0  0  0
   57.9310   29.9460   45.1100 C   0  0  0  0  0  0  0  0  0  0  0  0
   57.5480   29.8680   43.7660 C   0  0  0  0  0  0  0  0  0  0  0  0
   57.3070   31.0280   43.0390 C   0  0  0  0  0  0  0  0  0  0  0  0
   57.4440   32.2700   43.6570 C   0  0  0  0  0  0  0  0  0  0  0  0
   57.8050   32.3630   44.9760 N   0  0  0  0  0  0  0  0  0  0  0  0
   57.9170   33.5900   45.5840 C   0  0  0  0  0  0  0  0  0  0  0  0
   57.7000   34.6550   44.9420 O   0  0  0  0  0  0  0  0  0  0  0  0
   58.2700   33.6820   46.9320 C   0  0  0  0  0  0  0  0  0  0  0  0
   58.5080   32.5080   47.6560 C   0  0  0  0  0  0  0  0  0  0  0  0
   58.8730   32.5360   49.0540 N   0  0  0  0  0  0  0  0  0  0  0  0
   59.8620   33.5180   49.5200 C   0  0  0  0  0  0  0  0  0  0  0  0
   59.6430   33.8360   51.0000 C   0  0  0  0  0  0  0  0  0  0  0  0
   59.5810   32.6490   51.7640 O   0  0  0  0  0  0  0  0  0  0  0  0
   58.4280   31.9160   51.4000 C   0  0  0  0  0  0  0  0  0  0  0  0
   58.5270   31.4240   49.9520 C   0  0  0  0  0  0  0  0  0  0  0  0
   58.3820   31.3160   47.0220 N   0  0  0  0  0  0  0  0  0  0  0  0
   58.0490   31.2190   45.7080 C   0  0  0  0  0  0  0  0  0  0  0  0
   57.4280   27.5460   45.6220 C   0  0  0  0  0  0  0  0  0  0  0  0
   54.3846   23.4705   46.2163 H   0  0  0  0  0  0  0  0  0  0  0  0
   53.8459   24.3262   44.7316 H   0  0  0  0  0  0  0  0  0  0  0  0
   55.3942   23.4154   44.7316 H   0  0  0  0  0  0  0  0  0  0  0  0
   57.2770   24.2590   46.1850 H   0  0  0  0  0  0  0  0  0  0  0  0
   58.8512   25.4215   47.8946 H   0  0  0  0  0  0  0  0  0  0  0  0
   60.2362   27.4488   48.3197 H   0  0  0  0  0  0  0  0  0  0  0  0
   59.8300   29.5391   47.0241 H   0  0  0  0  0  0  0  0  0  0  0  0
   57.4374   28.8857   43.2835 H   0  0  0  0  0  0  0  0  0  0  0  0
   57.0098   30.9662   41.9817 H   0  0  0  0  0  0  0  0  0  0  0  0
   57.2600   33.1874   43.0786 H   0  0  0  0  0  0  0  0  0  0  0  0
   58.3599   34.6644   47.4185 H   0  0  0  0  0  0  0  0  0  0  0  0
   60.8730   33.1066   49.3837 H   0  0  0  0  0  0  0  0  0  0  0  0
   59.7479   34.4432   48.9361 H   0  0  0  0  0  0  0  0  0  0  0  0
   60.4764   34.4555   51.3630 H   0  0  0  0  0  0  0  0  0  0  0  0
   58.6902   34.3751   51.1078 H   0  0  0  0  0  0  0  0  0  0  0  0
   58.3266   31.0486   52.0689 H   0  0  0  0  0  0  0  0  0  0  0  0
   57.5509   32.5740   51.4883 H   0  0  0  0  0  0  0  0  0  0  0  0
   59.3047   30.6490   49.8851 H   0  0  0  0  0  0  0  0  0  0  0  0
   57.5537   31.0108   49.6488 H   0  0  0  0  0  0  0  0  0  0  0  0
   56.6292   27.5763   44.8664 H   0  0  0  0  0  0  0  0  0  0  0  0
  1  2  1  0
  2  3  2  0
  2  4  1  0
  4  5  1  0
  5  6  2  0
  6  7  1  0
  7  8  2  0
  8  9  1  0
  9 10  1  0
 10 11  2  0
 11 12  1  0
 12 13  2  0
 13 14  1  0
 14 15  1  0
 15 16  2  0
 15 17  1  0
 17 18  2  0
 18 19  1  0
 19 20  1  0
 20 21  1  0
 21 22  1  0
 22 23  1  0
 23 24  1  0
 18 25  1  0
 25 26  2  0
  9 27  2  0
 27  5  1  0
 26 10  1  0
 26 14  1  0
 24 19  1  0
  1 28  1  0
  1 29  1  0
  1 30  1  0
  4 31  1  0
  6 32  1  0
  7 33  1  0
  8 34  1  0
 11 35  1  0
 12 36  1  0
 13 37  1  0
 17 38  1  0
 20 39  1  0
 20 40  1  0
 21 41  1  0
 21 42  1  0
 23 43  1  0
 23 44  1  0
 24 45  1  0
 24 46  1  0
 27 47  1  0
M  END
>  <UniqueID>  (27) 
23

>  <SMILES>  (27) 
CC(=O)Nc1cccc(-c2cccn3c(=O)cc(N4CCOCC4)nc23)c1

>  <Energy>  (27) 
67.81215306467254

>  <Genealogy>  (27) 
CC(=O)Nc1cccc(-c2cccn3c(=O)cc(N4CCOCC4)nc23)c1 (3D coordinates assigned)
CC(=O)Nc1cccc(-c2cccn3c(=O)cc(N4CCOCC4)nc23)c1 (nonaromatic ring conformer: 67.81215306467254 kcal/mol)

>  <smiles>  (27) 
CC(=O)Nc1cccc(-c2cccn3c(=O)cc(N4CCOCC4)nc23)c1

>  <score_type>  (27) 
oracle

>  <origin>  (27) 
adg

>  <m_score__min__energy>  (27) 
-8.5600000000000005

>  <m_primary>  (27) 
energy

$$$$
27:0
     RDKit          3D

 34 36  0  0  0  0  0  0  0  0999 V2000
   57.5280   32.1120   42.6160 C   0  0  0  0  0  0  0  0  0  0  0  0
   57.6950   30.7710   43.1630 N   0  0  0  0  0  0  0  0  0  0  0  0
   56.8430   30.2730   44.2020 C   0  0  0  0  0  0  0  0  0  0  0  0
   55.8000   30.9080   44.5160 O   0  0  0  0  0  0  0  0  0  0  0  0
   57.1390   29.0020   44.8900 C   0  0  0  0  0  0  0  0  0  0  0  0
   56.1760   28.1090   45.2250 N   0  0  0  0  0  0  0  0  0  0  0  0
   56.8050   27.1020   45.8560 C   0  0  0  0  0  0  0  0  0  0  0  0
   56.2270   25.9540   46.3960 C   0  0  0  0  0  0  0  0  0  0  0  0
   57.0740   25.0320   47.0380 C   0  0  0  0  0  0  0  0  0  0  0  0
   58.4630   25.2780   47.1280 C   0  0  0  0  0  0  0  0  0  0  0  0
   59.0160   26.4470   46.5760 C   0  0  0  0  0  0  0  0  0  0  0  0
   58.1520   27.3390   45.9420 C   0  0  0  0  0  0  0  0  0  0  0  0
   58.3880   28.5560   45.3350 C   0  0  0  0  0  0  0  0  0  0  0  0
   59.9610   29.4220   45.2910 S   0  0  0  0  0  0  0  0  0  0  0  0
   59.3920   30.7060   46.4050 C   0  0  0  0  0  0  0  0  0  0  0  0
   59.0030   31.9540   45.9000 C   0  0  0  0  0  0  0  0  0  0  0  0
   58.5690   32.9570   46.7710 C   0  0  0  0  0  0  0  0  0  0  0  0
   58.5160   32.7150   48.1480 C   0  0  0  0  0  0  0  0  0  0  0  0
   58.8960   31.4680   48.6530 C   0  0  0  0  0  0  0  0  0  0  0  0
   59.3310   30.4630   47.7830 C   0  0  0  0  0  0  0  0  0  0  0  0
   57.4379   32.8354   43.4398 H   0  0  0  0  0  0  0  0  0  0  0  0
   58.4013   32.3672   41.9978 H   0  0  0  0  0  0  0  0  0  0  0  0
   56.6188   32.1452   41.9978 H   0  0  0  0  0  0  0  0  0  0  0  0
   58.4240   30.1520   42.7470 H   0  0  0  0  0  0  0  0  0  0  0  0
   55.1530   28.1840   45.0330 H   0  0  0  0  0  0  0  0  0  0  0  0
   55.1442   25.7749   46.3226 H   0  0  0  0  0  0  0  0  0  0  0  0
   56.6525   24.1137   47.4727 H   0  0  0  0  0  0  0  0  0  0  0  0
   59.1154   24.5504   47.6330 H   0  0  0  0  0  0  0  0  0  0  0  0
   60.0949   26.6511   46.6422 H   0  0  0  0  0  0  0  0  0  0  0  0
   59.0393   32.1443   44.8172 H   0  0  0  0  0  0  0  0  0  0  0  0
   58.2688   33.9378   46.3736 H   0  0  0  0  0  0  0  0  0  0  0  0
   58.1755   33.5055   48.8329 H   0  0  0  0  0  0  0  0  0  0  0  0
   58.8528   31.2771   49.7354 H   0  0  0  0  0  0  0  0  0  0  0  0
   59.6255   29.4809   48.1814 H   0  0  0  0  0  0  0  0  0  0  0  0
  1  2  1  0
  2  3  1  0
  3  4  2  0
  3  5  1  0
  5  6  1  0
  6  7  1  0
  7  8  2  0
  8  9  1  0
  9 10  2  0
 10 11  1  0
 11 12  2  0
 12 13  1  0
 13 14  1  0
 14 15  1  0
 15 16  2  0
 16 17  1  0
 17 18  2  0
 18 19  1  0
 19 20  2  0
 13  5  2  0
 20 15  1  0
 12  7  1  0
  1 21  1  0
  1 22  1  0
  1 23  1  0
  2 24  1  0
  6 25  1  0
  8 26  1  0
  9 27  1  0
 10 28  1  0
 11 29  1  0
 16 30  1  0
 17 31  1  0
 18 32  1  0
 19 33  1  0
 20 34  1  0
M  END
>  <UniqueID>  (28) 
24

>  <SMILES>  (28) 
CNC(=O)c1[nH]c2ccccc2c1Sc1ccccc1

>  <Energy>  (28) 
63.82355123174238

>  <Genealogy>  (28) 
CNC(=O)c1[nH]c2ccccc2c1Sc1ccccc1 (3D coordinates assigned)
CNC(=O)c1[nH]c2ccccc2c1Sc1ccccc1 (optimized conformer: 63.82355123174238 kcal/mol)

>  <smiles>  (28) 
CNC(=O)c1[nH]c2ccccc2c1Sc1ccccc1

>  <score_type>  (28) 
oracle

>  <origin>  (28) 
adg

>  <m_score__min__energy>  (28) 
-7.6399999999999997

>  <m_primary>  (28) 
energy

$$$$
28:0
     RDKit          3D

 50 53  0  0  0  0  0  0  0  0999 V2000
   56.6480   23.7770   43.3970 C   0  0  0  0  0  0  0  0  0  0  0  0
   57.1270   24.3900   44.5890 O   0  0  0  0  0  0  0  0  0  0  0  0
   57.3810   25.7640   44.7300 C   0  0  0  0  0  0  0  0  0  0  0  0
   58.1540   26.4800   43.7980 C   0  0  0  0  0  0  0  0  0  0  0  0
   58.3880   27.8450   43.9730 C   0  0  0  0  0  0  0  0  0  0  0  0
   57.8650   28.5200   45.0840 C   0  0  0  0  0  0  0  0  0  0  0  0
   58.1060   29.9310   45.2490 N   0  0  0  0  0  0  0  0  0  0  0  0
   59.2920   30.6000   46.2170 S   0  0  0  0  0  0  0  0  0  0  0  0
   58.9720   32.2160   45.9250 C   0  0  0  0  0  0  0  0  0  0  0  0
   59.5800   33.3960   46.3570 C   0  0  0  0  0  0  0  0  0  0  0  0
   60.7250   33.4200   47.2950 C   0  0  0  0  0  0  0  0  0  0  0  0
   60.5060   33.6800   48.6540 C   0  0  0  0  0  0  0  0  0  0  0  0
   61.5730   33.6940   49.5570 C   0  0  0  0  0  0  0  0  0  0  0  0
   62.8890   33.4300   49.1250 C   0  0  0  0  0  0  0  0  0  0  0  0
   63.9990   33.4450   50.0600 N   0  0  0  0  0  0  0  0  0  0  0  0
   65.2070   32.6530   49.7990 C   0  0  0  0  0  0  0  0  0  0  0  0
   63.9330   34.2540   51.2850 C   0  0  0  0  0  0  0  0  0  0  0  0
   63.0970   33.1480   47.7590 C   0  0  0  0  0  0  0  0  0  0  0  0
   62.0290   33.1370   46.8590 C   0  0  0  0  0  0  0  0  0  0  0  0
   59.0930   34.5680   45.8540 N   0  0  0  0  0  0  0  0  0  0  0  0
   58.0410   34.5980   44.9810 C   0  0  0  0  0  0  0  0  0  0  0  0
   57.4470   33.4380   44.5700 N   0  0  0  0  0  0  0  0  0  0  0  0
   57.9160   32.2500   45.0330 C   0  0  0  0  0  0  0  0  0  0  0  0
   57.4370   30.9740   44.6750 C   0  0  0  0  0  0  0  0  0  0  0  0
   56.4530   30.8090   43.9050 O   0  0  0  0  0  0  0  0  0  0  0  0
   57.0810   27.8100   46.0080 C   0  0  0  0  0  0  0  0  0  0  0  0
   56.8400   26.4330   45.8390 C   0  0  0  0  0  0  0  0  0  0  0  0
   56.0650   25.6950   46.7480 O   0  0  0  0  0  0  0  0  0  0  0  0
   56.5170   24.5360   47.4420 C   0  0  0  0  0  0  0  0  0  0  0  0
   55.9899   22.9348   43.6568 H   0  0  0  0  0  0  0  0  0  0  0  0
   56.0843   24.5143   42.8065 H   0  0  0  0  0  0  0  0  0  0  0  0
   57.4997   23.4083   42.8065 H   0  0  0  0  0  0  0  0  0  0  0  0
   58.5769   25.9607   42.9254 H   0  0  0  0  0  0  0  0  0  0  0  0
   58.9877   28.3951   43.2329 H   0  0  0  0  0  0  0  0  0  0  0  0
   59.4850   33.8749   49.0139 H   0  0  0  0  0  0  0  0  0  0  0  0
   61.3836   33.9138   50.6180 H   0  0  0  0  0  0  0  0  0  0  0  0
   65.6630   32.3541   50.7544 H   0  0  0  0  0  0  0  0  0  0  0  0
   64.9392   31.7546   49.2235 H   0  0  0  0  0  0  0  0  0  0  0  0
   65.9241   33.2568   49.2235 H   0  0  0  0  0  0  0  0  0  0  0  0
   63.9868   33.5942   52.1635 H   0  0  0  0  0  0  0  0  0  0  0  0
   64.7766   34.9597   51.3042 H   0  0  0  0  0  0  0  0  0  0  0  0
   62.9862   34.8137   51.3042 H   0  0  0  0  0  0  0  0  0  0  0  0
   64.1136   32.9339   47.3976 H   0  0  0  0  0  0  0  0  0  0  0  0
   62.2113   32.9046   45.7994 H   0  0  0  0  0  0  0  0  0  0  0  0
   57.6700   35.5635   44.6066 H   0  0  0  0  0  0  0  0  0  0  0  0
   56.6490   33.4740   43.8970 H   0  0  0  0  0  0  0  0  0  0  0  0
   56.6505   28.3354   46.8732 H   0  0  0  0  0  0  0  0  0  0  0  0
   56.4498   24.7084   48.5263 H   0  0  0  0  0  0  0  0  0  0  0  0
   55.8884   23.6760   47.1678 H   0  0  0  0  0  0  0  0  0  0  0  0
   57.5619   24.3286   47.1678 H   0  0  0  0  0  0  0  0  0  0  0  0
  1  2  1  0
  2  3  1  0
  3  4  2  0
  4  5  1  0
  5  6  2  0
  6  7  1  0
  7  8  1  0
  8  9  1  0
  9 10  2  0
 10 11  1  0
 11 12  2  0
 12 13  1  0
 13 14  2  0
 14 15  1  0
 15 16  1  0
 15 17  1  0
 14 18  1  0
 18 19  2  0
 10 20  1  0
 20 21  2  0
 21 22  1  0
 22 23  2  0
 23 24  1  0
 24 25  2  0
  6 26  1  0
 26 27  2  0
 27 28  1  0
 28 29  1  0
 27  3  1  0
 24  7  1  0
 23  9  1  0
 19 11  1  0
  1 30  1  0
  1 31  1  0
  1 32  1  0
  4 33  1  0
  5 34  1  0
 12 35  1  0
 13 36  1  0
 16 37  1  0
 16 38  1  0
 16 39  1  0
 17 40  1  0
 17 41  1  0
 17 42  1  0
 18 43  1  0
 19 44  1  0
 21 45  1  0
 22 46  1  0
 26 47  1  0
 29 48  1  0
 29 49  1  0
 29 50  1  0
M  CHG  1  22   1
M  END
>  <UniqueID>  (29) 
25

>  <SMILES>  (29) 
COc1ccc(-n2sc3c(-c4ccc(N(C)C)cc4)nc[nH+]c3c2=O)cc1OC

>  <Energy>  (29) 
106.42759086557433

>  <Genealogy>  (29) 
COc1ccc(-n2sc3c(-c4ccc(N(C)C)cc4)nc[nH+]c3c2=O)cc1OC (protonated)
COc1ccc(-n2sc3c(-c4ccc(N(C)C)cc4)nc[nH+]c3c2=O)cc1OC (3D coordinates assigned)
COc1ccc(-n2sc3c(-c4ccc(N(C)C)cc4)nc[nH+]c3c2=O)cc1OC (optimized conformer: 106.42759086557433 kcal/mol)

>  <smiles>  (29) 
COc1ccc(-n2sc3c(-c4ccc(N(C)C)cc4)ncnc3c2=O)cc1OC

>  <score_type>  (29) 
oracle

>  <origin>  (29) 
adg

>  <m_score__min__energy>  (29) 
-7.2599999999999998

>  <m_primary>  (29) 
energy

$$$$
29:0
     RDKit          3D

 27 28  0  0  0  0  0  0  0  0999 V2000
   55.5380   26.6460   45.9520 N   0  0  0  0  0  0  0  0  0  0  0  0
   56.9240   26.2920   46.2540 C   0  0  0  0  0  0  0  0  0  0  0  0
   57.8930   26.7740   45.1650 C   0  0  0  0  0  0  0  0  0  0  0  0
   57.6550   28.1770   44.8370 N   0  0  0  0  0  0  0  0  0  0  0  0
   58.0560   29.2420   45.5580 C   0  0  0  0  0  0  0  0  0  0  0  0
   57.6740   30.3950   44.8840 C   0  0  0  0  0  0  0  0  0  0  0  0
   57.9080   31.8040   45.2950 C   0  0  0  0  0  0  0  0  0  0  0  0
   57.7380   32.8580   44.3790 C   0  0  0  0  0  0  0  0  0  0  0  0
   57.9650   34.1740   44.7870 C   0  0  0  0  0  0  0  0  0  0  0  0
   58.3460   34.4390   46.0640 N   0  0  0  0  0  0  0  0  0  0  0  0
   58.5180   33.4450   46.9740 C   0  0  0  0  0  0  0  0  0  0  0  0
   58.8970   33.7490   48.2390 F   0  0  0  0  0  0  0  0  0  0  0  0
   58.3040   32.1130   46.6090 C   0  0  0  0  0  0  0  0  0  0  0  0
   57.0360   29.9400   43.7360 C   0  0  0  0  0  0  0  0  0  0  0  0
   57.0450   28.5960   43.7400 N   0  0  0  0  0  0  0  0  0  0  0  0
   54.9270   26.3510   46.7490 H   0  0  0  0  0  0  0  0  0  0  0  0
   55.2290   26.1250   45.0990 H   0  0  0  0  0  0  0  0  0  0  0  0
   57.2077   26.7540   47.2111 H   0  0  0  0  0  0  0  0  0  0  0  0
   56.9902   25.1952   46.3054 H   0  0  0  0  0  0  0  0  0  0  0  0
   58.9258   26.6590   45.5258 H   0  0  0  0  0  0  0  0  0  0  0  0
   57.7318   26.1701   44.2599 H   0  0  0  0  0  0  0  0  0  0  0  0
   58.5940   29.2049   46.5167 H   0  0  0  0  0  0  0  0  0  0  0  0
   57.4274   32.6463   43.3452 H   0  0  0  0  0  0  0  0  0  0  0  0
   57.8348   34.9995   44.0717 H   0  0  0  0  0  0  0  0  0  0  0  0
   58.4447   31.3091   47.3466 H   0  0  0  0  0  0  0  0  0  0  0  0
   56.5961   30.5753   42.9531 H   0  0  0  0  0  0  0  0  0  0  0  0
   56.6450   27.9740   43.0030 H   0  0  0  0  0  0  0  0  0  0  0  0
  1  2  1  0
  2  3  1  0
  3  4  1  0
  4  5  1  0
  5  6  2  0
  6  7  1  0
  7  8  2  0
  8  9  1  0
  9 10  2  0
 10 11  1  0
 11 12  1  0
 11 13  2  0
  6 14  1  0
 14 15  2  0
 15  4  1  0
 13  7  1  0
  1 16  1  0
  1 17  1  0
  2 18  1  0
  2 19  1  0
  3 20  1  0
  3 21  1  0
  5 22  1  0
  8 23  1  0
  9 24  1  0
 13 25  1  0
 14 26  1  0
 15 27  1  0
M  CHG  1  15   1
M  END
>  <UniqueID>  (30) 
26

>  <SMILES>  (30) 
NCCn1cc(-c2ccnc(F)c2)c[nH+]1

>  <Energy>  (30) 
56.801247966312644

>  <Genealogy>  (30) 
NCCn1cc(-c2ccnc(F)c2)c[nH+]1 (protonated)
NCCn1cc(-c2ccnc(F)c2)c[nH+]1 (3D coordinates assigned)
NCCn1cc(-c2ccnc(F)c2)c[nH+]1 (optimized conformer: 56.801247966312644 kcal/mol)

>  <smiles>  (30) 
NCCn1cc(-c2ccnc(F)c2)cn1

>  <score_type>  (30) 
oracle

>  <origin>  (30) 
adg

>  <m_score__min__energy>  (30) 
-5.0999999999999996

>  <m_primary>  (30) 
energy

$$$$
30:0
     RDKit          3D

 40 41  0  0  0  0  0  0  0  0999 V2000
   56.2840   29.9900   42.6250 C   0  0  0  0  0  0  0  0  0  0  0  0
   56.5870   29.3570   43.9810 C   0  0  0  0  0  0  0  0  0  0  0  0
   56.9670   30.3930   44.9640 N   0  0  0  0  0  0  0  0  0  0  0  0
   58.3820   30.2390   45.3680 C   0  0  0  0  0  0  0  0  0  0  0  0
   58.9140   31.5250   46.0080 C   0  0  0  0  0  0  0  0  0  0  0  0
   58.9190   32.6530   45.0420 N   0  0  0  0  0  0  0  0  0  0  0  0
   58.8560   33.9580   45.7330 C   0  0  0  0  0  0  0  0  0  0  0  0
   59.7210   33.9560   46.9690 C   0  0  0  0  0  0  0  0  0  0  0  0
   61.1030   33.7640   46.8530 C   0  0  0  0  0  0  0  0  0  0  0  0
   61.9150   33.7310   47.9910 C   0  0  0  0  0  0  0  0  0  0  0  0
   63.7970   33.4670   47.7510 Br  0  0  0  0  0  0  0  0  0  0  0  0
   61.3390   33.8840   49.2680 C   0  0  0  0  0  0  0  0  0  0  0  0
   62.1180   33.8570   50.4260 O   0  0  0  0  0  0  0  0  0  0  0  0
   59.9530   34.0680   49.3950 C   0  0  0  0  0  0  0  0  0  0  0  0
   59.4150   34.2110   50.6830 O   0  0  0  0  0  0  0  0  0  0  0  0
   58.9330   33.1340   51.4810 C   0  0  0  0  0  0  0  0  0  0  0  0
   59.1480   34.1020   48.2410 C   0  0  0  0  0  0  0  0  0  0  0  0
   57.8680   32.5360   44.0000 C   0  0  0  0  0  0  0  0  0  0  0  0
   56.6330   31.7660   44.4980 C   0  0  0  0  0  0  0  0  0  0  0  0
   55.8136   30.9728   42.7760 H   0  0  0  0  0  0  0  0  0  0  0  0
   57.2202   30.1144   42.0610 H   0  0  0  0  0  0  0  0  0  0  0  0
   55.6000   29.3388   42.0610 H   0  0  0  0  0  0  0  0  0  0  0  0
   55.6926   28.8275   44.3410 H   0  0  0  0  0  0  0  0  0  0  0  0
   57.4243   28.6531   43.8652 H   0  0  0  0  0  0  0  0  0  0  0  0
   58.4612   29.4166   46.0942 H   0  0  0  0  0  0  0  0  0  0  0  0
   58.9804   30.0207   44.4712 H   0  0  0  0  0  0  0  0  0  0  0  0
   58.2745   31.7896   46.8630 H   0  0  0  0  0  0  0  0  0  0  0  0
   59.9492   31.3453   46.3336 H   0  0  0  0  0  0  0  0  0  0  0  0
   59.2072   34.7448   45.0491 H   0  0  0  0  0  0  0  0  0  0  0  0
   57.8147   34.1462   46.0335 H   0  0  0  0  0  0  0  0  0  0  0  0
   61.5541   33.6380   45.8577 H   0  0  0  0  0  0  0  0  0  0  0  0
   61.7300   33.9650   51.3530 H   0  0  0  0  0  0  0  0  0  0  0  0
   59.0463   33.3871   52.5455 H   0  0  0  0  0  0  0  0  0  0  0  0
   57.8705   32.9585   51.2569 H   0  0  0  0  0  0  0  0  0  0  0  0
   59.5100   32.2247   51.2569 H   0  0  0  0  0  0  0  0  0  0  0  0
   58.0615   34.2441   48.3373 H   0  0  0  0  0  0  0  0  0  0  0  0
   57.5562   33.5466   43.6975 H   0  0  0  0  0  0  0  0  0  0  0  0
   58.2943   31.9762   43.1545 H   0  0  0  0  0  0  0  0  0  0  0  0
   56.1837   32.3226   45.3337 H   0  0  0  0  0  0  0  0  0  0  0  0
   55.9350   31.6715   43.6531 H   0  0  0  0  0  0  0  0  0  0  0  0
  1  2  1  0
  2  3  1  0
  3  4  1  0
  4  5  1  0
  5  6  1  0
  6  7  1  0
  7  8  1  0
  8  9  2  0
  9 10  1  0
 10 11  1  0
 10 12  2  0
 12 13  1  0
 12 14  1  0
 14 15  1  0
 15 16  1  0
 14 17  2  0
  6 18  1  0
 18 19  1  0
 19  3  1  0
 17  8  1  0
  1 20  1  0
  1 21  1  0
  1 22  1  0
  2 23  1  0
  2 24  1  0
  4 25  1  0
  4 26  1  0
  5 27  1  0
  5 28  1  0
  7 29  1  0
  7 30  1  0
  9 31  1  0
 13 32  1  0
 16 33  1  0
 16 34  1  0
 16 35  1  0
 17 36  1  0
 18 37  1  0
 18 38  1  0
 19 39  1  0
 19 40  1  0
M  END
>  <UniqueID>  (31) 
27

>  <SMILES>  (31) 
CCN1CCN(Cc2cc(Br)c(O)c(OC)c2)CC1

>  <Energy>  (31) 
50.479851537876975

>  <Genealogy>  (31) 
CCN1CCN(Cc2cc(Br)c(O)c(OC)c2)CC1 (3D coordinates assigned)
CCN1CCN(Cc2cc(Br)c(O)c(OC)c2)CC1 (nonaromatic ring conformer: 50.479851537876975 kcal/mol)

>  <smiles>  (31) 
CCN1CCN(Cc2cc(Br)c(O)c(OC)c2)CC1

>  <score_type>  (31) 
oracle

>  <origin>  (31) 
adg

>  <m_score__min__energy>  (31) 
-7.4400000000000004

>  <m_primary>  (31) 
energy

$$$$
31:0
     RDKit          3D

 46 49  0  0  0  0  0  0  0  0999 V2000
   62.6310   31.6080   47.5910 C   0  0  0  0  0  0  0  0  0  0  0  0
   61.1770   31.7210   47.1350 C   0  0  0  0  0  0  0  0  0  0  0  0
   60.7990   33.1560   46.7450 C   0  0  0  0  0  0  0  0  0  0  0  0
   59.3490   33.3710   46.8210 N   0  0  0  0  0  0  0  0  0  0  0  0
   58.4930   33.5780   45.7990 C   0  0  0  0  0  0  0  0  0  0  0  0
   58.9700   33.8080   44.0820 S   0  0  0  0  0  0  0  0  0  0  0  0
   57.7640   32.6020   43.4330 C   0  0  0  0  0  0  0  0  0  0  0  0
   57.6770   31.4110   44.3300 C   0  0  0  0  0  0  0  0  0  0  0  0
   56.5230   30.7790   44.6220 N   0  0  0  0  0  0  0  0  0  0  0  0
   56.8620   29.8400   45.4510 O   0  0  0  0  0  0  0  0  0  0  0  0
   58.1540   29.8850   45.6700 C   0  0  0  0  0  0  0  0  0  0  0  0
   58.8760   28.9630   46.5670 C   0  0  0  0  0  0  0  0  0  0  0  0
   59.0110   29.2540   47.9370 C   0  0  0  0  0  0  0  0  0  0  0  0
   59.6960   28.3740   48.7810 C   0  0  0  0  0  0  0  0  0  0  0  0
   60.2520   27.2000   48.2670 C   0  0  0  0  0  0  0  0  0  0  0  0
   60.9170   26.3480   49.0870 F   0  0  0  0  0  0  0  0  0  0  0  0
   60.1240   26.9030   46.9070 C   0  0  0  0  0  0  0  0  0  0  0  0
   59.4400   27.7800   46.0600 C   0  0  0  0  0  0  0  0  0  0  0  0
   58.7360   30.8830   44.9750 N   0  0  0  0  0  0  0  0  0  0  0  0
   57.2120   33.5610   46.2100 N   0  0  0  0  0  0  0  0  0  0  0  0
   57.2300   33.3320   47.5140 N   0  0  0  0  0  0  0  0  0  0  0  0
   58.5220   33.2240   47.8810 C   0  0  0  0  0  0  0  0  0  0  0  0
   58.9370   32.9190   49.2630 C   0  0  0  0  0  0  0  0  0  0  0  0
   59.9280   33.6980   49.8790 C   0  0  0  0  0  0  0  0  0  0  0  0
   60.3350   33.4140   51.1870 C   0  0  0  0  0  0  0  0  0  0  0  0
   59.7660   32.3420   51.8800 C   0  0  0  0  0  0  0  0  0  0  0  0
   58.7960   31.5470   51.2630 C   0  0  0  0  0  0  0  0  0  0  0  0
   58.3850   31.8290   49.9560 C   0  0  0  0  0  0  0  0  0  0  0  0
   62.6713   31.6049   48.6903 H   0  0  0  0  0  0  0  0  0  0  0  0
   63.0646   30.6734   47.2055 H   0  0  0  0  0  0  0  0  0  0  0  0
   63.2038   32.4643   47.2055 H   0  0  0  0  0  0  0  0  0  0  0  0
   61.0277   31.0666   46.2635 H   0  0  0  0  0  0  0  0  0  0  0  0
   60.5359   31.4211   47.9771 H   0  0  0  0  0  0  0  0  0  0  0  0
   61.3003   33.8561   47.4295 H   0  0  0  0  0  0  0  0  0  0  0  0
   61.1187   33.3265   45.7064 H   0  0  0  0  0  0  0  0  0  0  0  0
   56.7749   33.0789   43.3683 H   0  0  0  0  0  0  0  0  0  0  0  0
   58.0933   32.2723   42.4366 H   0  0  0  0  0  0  0  0  0  0  0  0
   58.5758   30.1778   48.3460 H   0  0  0  0  0  0  0  0  0  0  0  0
   59.7971   28.6067   49.8513 H   0  0  0  0  0  0  0  0  0  0  0  0
   60.5619   25.9784   46.5029 H   0  0  0  0  0  0  0  0  0  0  0  0
   59.3427   27.5426   44.9903 H   0  0  0  0  0  0  0  0  0  0  0  0
   60.3865   34.5348   49.3317 H   0  0  0  0  0  0  0  0  0  0  0  0
   61.1035   34.0350   51.6704 H   0  0  0  0  0  0  0  0  0  0  0  0
   60.0815   32.1239   52.9110 H   0  0  0  0  0  0  0  0  0  0  0  0
   58.3551   30.6981   51.8061 H   0  0  0  0  0  0  0  0  0  0  0  0
   57.6280   31.1959   49.4700 H   0  0  0  0  0  0  0  0  0  0  0  0
  1  2  1  0
  2  3  1  0
  3  4  1  0
  4  5  1  0
  5  6  1  0
  6  7  1  0
  7  8  1  0
  8  9  2  0
  9 10  1  0
 10 11  1  0
 11 12  1  0
 12 13  2  0
 13 14  1  0
 14 15  2  0
 15 16  1  0
 15 17  1  0
 17 18  2  0
 11 19  2  0
  5 20  2  0
 20 21  1  0
 21 22  2  0
 22 23  1  0
 23 24  2  0
 24 25  1  0
 25 26  2  0
 26 27  1  0
 27 28  2  0
 22  4  1  0
 28 23  1  0
 19  8  1  0
 18 12  1  0
  1 29  1  0
  1 30  1  0
  1 31  1  0
  2 32  1  0
  2 33  1  0
  3 34  1  0
  3 35  1  0
  7 36  1  0
  7 37  1  0
 13 38  1  0
 14 39  1  0
 17 40  1  0
 18 41  1  0
 24 42  1  0
 25 43  1  0
 26 44  1  0
 27 45  1  0
 28 46  1  0
M  END
>  <UniqueID>  (32) 
28

>  <SMILES>  (32) 
CCCn1c(SCc2noc(-c3ccc(F)cc3)n2)nnc1-c1ccccc1

>  <Energy>  (32) 
113.13438506723801

>  <Genealogy>  (32) 
CCCn1c(SCc2noc(-c3ccc(F)cc3)n2)nnc1-c1ccccc1 (3D coordinates assigned)
CCCn1c(SCc2noc(-c3ccc(F)cc3)n2)nnc1-c1ccccc1 (optimized conformer: 113.13438506723801 kcal/mol)

>  <smiles>  (32) 
CCCn1c(SCc2noc(-c3ccc(F)cc3)n2)nnc1-c1ccccc1

>  <score_type>  (32) 
oracle

>  <origin>  (32) 
adg

>  <m_score__min__energy>  (32) 
-9.4399999999999995

>  <m_primary>  (32) 
energy

$$$$
32:0
     RDKit          3D

 41 43  0  0  0  0  0  0  0  0999 V2000
   62.3400   32.7810   50.9820 O   0  0  0  0  0  0  0  0  0  0  0  0
   62.1640   33.1600   49.7920 C   0  0  0  0  0  0  0  0  0  0  0  0
   60.9260   33.6930   49.4090 C   0  0  0  0  0  0  0  0  0  0  0  0
   59.6460   33.8440   50.6140 Cl  0  0  0  0  0  0  0  0  0  0  0  0
   60.7350   34.1050   48.0760 C   0  0  0  0  0  0  0  0  0  0  0  0
   59.4710   34.6320   47.6100 N   0  0  0  0  0  0  0  0  0  0  0  0
   58.8700   33.7230   46.6620 C   0  0  0  0  0  0  0  0  0  0  0  0
   58.7390   32.3540   46.9630 C   0  0  0  0  0  0  0  0  0  0  0  0
   58.1650   31.4760   46.0380 C   0  0  0  0  0  0  0  0  0  0  0  0
   57.7100   31.9550   44.8060 C   0  0  0  0  0  0  0  0  0  0  0  0
   56.9910   30.8520   43.6470 Cl  0  0  0  0  0  0  0  0  0  0  0  0
   57.8250   33.3140   44.5000 C   0  0  0  0  0  0  0  0  0  0  0  0
   58.3980   34.1940   45.4220 C   0  0  0  0  0  0  0  0  0  0  0  0
   61.8040   33.9640   47.1830 C   0  0  0  0  0  0  0  0  0  0  0  0
   62.9800   33.4410   47.6090 N   0  0  0  0  0  0  0  0  0  0  0  0
   63.1740   33.0510   48.8720 N   0  0  0  0  0  0  0  0  0  0  0  0
   64.4730   32.4640   49.2400 C   0  0  2  0  0  0  0  0  0  0  0  0
   64.2940   31.2650   49.9660 O   0  0  0  0  0  0  0  0  0  0  0  0
   65.3760   31.1390   50.8690 C   0  0  2  0  0  0  0  0  0  0  0  0
   64.8360   30.7270   52.2480 C   0  0  0  0  0  0  0  0  0  0  0  0
   64.2940   31.8380   52.9110 O   0  0  0  0  0  0  0  0  0  0  0  0
   66.1890   32.4500   50.8570 C   0  0  2  0  0  0  0  0  0  0  0  0
   66.6100   32.9160   52.1200 O   0  0  0  0  0  0  0  0  0  0  0  0
   65.3070   33.4190   50.0940 C   0  0  2  0  0  0  0  0  0  0  0  0
   64.5090   34.2160   50.9410 O   0  0  0  0  0  0  0  0  0  0  0  0
   58.8320   34.8100   48.4170 H   0  0  0  0  0  0  0  0  0  0  0  0
   59.6160   35.5580   47.1450 H   0  0  0  0  0  0  0  0  0  0  0  0
   59.0907   31.9721   47.9328 H   0  0  0  0  0  0  0  0  0  0  0  0
   58.0714   30.4071   46.2802 H   0  0  0  0  0  0  0  0  0  0  0  0
   57.4639   33.6914   43.5319 H   0  0  0  0  0  0  0  0  0  0  0  0
   58.4809   35.2632   45.1770 H   0  0  0  0  0  0  0  0  0  0  0  0
   61.6896   34.2778   46.1349 H   0  0  0  0  0  0  0  0  0  0  0  0
   65.0040   32.2636   48.2977 H   0  0  0  0  0  0  0  0  0  0  0  0
   66.0746   30.3433   50.5711 H   0  0  0  0  0  0  0  0  0  0  0  0
   64.0536   29.9647   52.1183 H   0  0  0  0  0  0  0  0  0  0  0  0
   65.6628   30.3204   52.8489 H   0  0  0  0  0  0  0  0  0  0  0  0
   64.0940   32.5170   52.2150 H   0  0  0  0  0  0  0  0  0  0  0  0
   67.1668   32.3056   50.3743 H   0  0  0  0  0  0  0  0  0  0  0  0
   65.8460   33.3460   52.5810 H   0  0  0  0  0  0  0  0  0  0  0  0
   65.8713   34.1635   49.5132 H   0  0  0  0  0  0  0  0  0  0  0  0
   64.2070   33.6580   51.7040 H   0  0  0  0  0  0  0  0  0  0  0  0
  1  2  2  0
  2  3  1  0
  3  4  1  0
  3  5  2  0
  5  6  1  0
  6  7  1  0
  7  8  2  0
  8  9  1  0
  9 10  2  0
 10 11  1  0
 10 12  1  0
 12 13  2  0
  5 14  1  0
 14 15  2  0
 15 16  1  0
 16 17  1  0
 17 18  1  0
 18 19  1  0
 19 20  1  0
 20 21  1  0
 19 22  1  0
 22 23  1  0
 22 24  1  0
 24 25  1  0
 16  2  1  0
 24 17  1  0
 13  7  1  0
  6 26  1  0
  6 27  1  0
  8 28  1  0
  9 29  1  0
 12 30  1  0
 13 31  1  0
 14 32  1  0
 17 33  1  6
 19 34  1  6
 20 35  1  0
 20 36  1  0
 21 37  1  0
 22 38  1  6
 23 39  1  0
 24 40  1  6
 25 41  1  0
M  CHG  1   6   1
M  END
>  <UniqueID>  (33) 
29

>  <SMILES>  (33) 
O=c1c(Cl)c([NH2+]c2ccc(Cl)cc2)cnn1[C@@H]1O[C@H](CO)C(O)C1O

>  <Energy>  (33) 
57.205886284127516

>  <Genealogy>  (33) 
O=c1c(Cl)c([NH2+]c2ccc(Cl)cc2)cnn1C1OC(CO)C(O)C1O (protonated)
O=c1c(Cl)c([NH2+]c2ccc(Cl)cc2)cnn1[C@@H]1O[C@H](CO)C(O)C1O (chirality)
O=c1c(Cl)c([NH2+]c2ccc(Cl)cc2)cnn1[C@@H]1O[C@H](CO)C(O)C1O (3D coordinates assigned)
O=c1c(Cl)c([NH2+]c2ccc(Cl)cc2)cnn1[C@@H]1O[C@H](CO)C(O)C1O (nonaromatic ring conformer: 57.205886284127516 kcal/mol)

>  <smiles>  (33) 
O=c1c(Cl)c(Nc2ccc(Cl)cc2)cnn1C1OC(CO)C(O)C1O

>  <score_type>  (33) 
oracle

>  <origin>  (33) 
adg

>  <m_score__min__energy>  (33) 
-5.2800000000000002

>  <m_primary>  (33) 
energy

$$$$
33:0
     RDKit          3D

 28 30  0  0  0  0  0  0  0  0999 V2000
   62.5500   32.3850   47.4950 C   0  0  0  0  0  0  0  0  0  0  0  0
   61.1440   32.1910   47.3900 O   0  0  0  0  0  0  0  0  0  0  0  0
   60.2780   33.0120   46.6500 C   0  0  0  0  0  0  0  0  0  0  0  0
   60.5030   34.3970   46.5160 C   0  0  0  0  0  0  0  0  0  0  0  0
   59.6420   35.1840   45.7470 C   0  0  0  0  0  0  0  0  0  0  0  0
   59.8700   36.5150   45.6220 F   0  0  0  0  0  0  0  0  0  0  0  0
   58.5490   34.6010   45.1060 C   0  0  0  0  0  0  0  0  0  0  0  0
   58.3110   33.2310   45.2340 C   0  0  0  0  0  0  0  0  0  0  0  0
   59.1660   32.4280   46.0080 C   0  0  0  0  0  0  0  0  0  0  0  0
   58.8980   31.0220   46.1440 N   0  0  0  0  0  0  0  0  0  0  0  0
   59.6650   30.1580   46.8050 N   0  0  0  0  0  0  0  0  0  0  0  0
   59.1070   28.9240   46.7500 C   0  0  0  0  0  0  0  0  0  0  0  0
   57.9370   29.0270   46.0210 C   0  0  0  0  0  0  0  0  0  0  0  0
   56.9560   28.1270   45.6190 C   0  0  0  0  0  0  0  0  0  0  0  0
   57.0220   26.5420   46.0170 S   0  0  0  0  0  0  0  0  0  0  0  0
   55.9240   28.6100   44.8690 N   0  0  0  0  0  0  0  0  0  0  0  0
   55.8500   29.9340   44.5180 C   0  0  0  0  0  0  0  0  0  0  0  0
   56.8190   30.8120   44.9160 N   0  0  0  0  0  0  0  0  0  0  0  0
   57.8420   30.3380   45.6690 C   0  0  0  0  0  0  0  0  0  0  0  0
   62.8364   32.4245   48.5563 H   0  0  0  0  0  0  0  0  0  0  0  0
   63.0729   31.5505   47.0049 H   0  0  0  0  0  0  0  0  0  0  0  0
   62.8274   33.3299   47.0049 H   0  0  0  0  0  0  0  0  0  0  0  0
   61.3629   34.8617   47.0206 H   0  0  0  0  0  0  0  0  0  0  0  0
   57.8735   35.2214   44.4987 H   0  0  0  0  0  0  0  0  0  0  0  0
   57.4479   32.7770   44.7252 H   0  0  0  0  0  0  0  0  0  0  0  0
   60.5450   30.4030   47.3110 H   0  0  0  0  0  0  0  0  0  0  0  0
   59.5117   28.0070   47.2032 H   0  0  0  0  0  0  0  0  0  0  0  0
   55.0047   30.2917   43.9118 H   0  0  0  0  0  0  0  0  0  0  0  0
  1  2  1  0
  2  3  1  0
  3  4  2  0
  4  5  1  0
  5  6  1  0
  5  7  2  0
  7  8  1  0
  8  9  2  0
  9 10  1  0
 10 11  1  0
 11 12  2  0
 12 13  1  0
 13 14  1  0
 14 15  2  0
 14 16  1  0
 16 17  1  0
 17 18  2  0
 18 19  1  0
  9  3  1  0
 19 10  1  0
 19 13  2  0
  1 20  1  0
  1 21  1  0
  1 22  1  0
  4 23  1  0
  7 24  1  0
  8 25  1  0
 11 26  1  0
 12 27  1  0
 17 28  1  0
M  CHG  2  11   1  16  -1
M  END
>  <UniqueID>  (34) 
30

>  <SMILES>  (34) 
COc1cc(F)ccc1-n1[nH+]cc2c(=S)[n-]cnc21

>  <Energy>  (34) 
79.07411739015208

>  <Genealogy>  (34) 
COc1cc(F)ccc1-n1[nH+]cc2c(=S)[n-]cnc21 (protonated)
COc1cc(F)ccc1-n1[nH+]cc2c(=S)[n-]cnc21 (3D coordinates assigned)
COc1cc(F)ccc1-n1[nH+]cc2c(=S)[n-]cnc21 (optimized conformer: 79.07411739015208 kcal/mol)

>  <smiles>  (34) 
COc1cc(F)ccc1-n1ncc2c(=S)[nH]cnc21

>  <score_type>  (34) 
oracle

>  <origin>  (34) 
adg

>  <m_score__min__energy>  (34) 
-6.6399999999999997

>  <m_primary>  (34) 
energy

$$$$
34:0
     RDKit          3D

 36 38  0  0  0  0  0  0  0  0999 V2000
   57.0250   28.6430   44.9110 C   0  0  0  0  0  0  0  0  0  0  0  0
   56.1480   29.7490   44.8780 O   0  0  0  0  0  0  0  0  0  0  0  0
   56.6290   30.7270   43.9760 C   0  0  0  0  0  0  0  0  0  0  0  0
   57.4770   31.7300   44.6950 C   0  0  0  0  0  0  0  0  0  0  0  0
   57.9070   31.6300   46.0110 C   0  0  0  0  0  0  0  0  0  0  0  0
   58.6110   32.7970   46.2090 C   0  0  0  0  0  0  0  0  0  0  0  0
   58.5570   33.5390   45.0940 N   0  0  0  0  0  0  0  0  0  0  0  0
   57.8830   32.8990   44.1550 N   0  0  0  0  0  0  0  0  0  0  0  0
   59.2260   34.8240   44.9200 C   0  0  0  0  0  0  0  0  0  0  0  0
   59.6570   35.3960   46.2900 C   0  0  0  0  0  0  0  0  0  0  0  0
   60.2360   34.3620   47.1880 N   0  0  2  0  0  0  0  0  0  0  0  0
   61.5120   33.8280   46.6470 C   0  0  0  0  0  0  0  0  0  0  0  0
   62.5220   33.5720   47.7360 C   0  0  0  0  0  0  0  0  0  0  0  0
   62.4360   34.1400   49.0160 C   0  0  0  0  0  0  0  0  0  0  0  0
   63.4840   33.7830   49.8540 C   0  0  0  0  0  0  0  0  0  0  0  0
   64.5110   32.7650   48.9970 S   0  0  0  0  0  0  0  0  0  0  0  0
   63.6410   32.7660   47.5590 C   0  0  0  0  0  0  0  0  0  0  0  0
   59.2490   33.2880   47.4720 C   0  0  0  0  0  0  0  0  0  0  0  0
   57.2377   28.3748   45.9564 H   0  0  0  0  0  0  0  0  0  0  0  0
   56.5565   27.7882   44.4012 H   0  0  0  0  0  0  0  0  0  0  0  0
   57.9640   28.9043   44.4012 H   0  0  0  0  0  0  0  0  0  0  0  0
   57.2306   30.2363   43.1967 H   0  0  0  0  0  0  0  0  0  0  0  0
   55.7716   31.2455   43.5221 H   0  0  0  0  0  0  0  0  0  0  0  0
   57.7281   30.8131   46.7256 H   0  0  0  0  0  0  0  0  0  0  0  0
   60.1159   34.6869   44.2881 H   0  0  0  0  0  0  0  0  0  0  0  0
   58.5287   35.5280   44.4424 H   0  0  0  0  0  0  0  0  0  0  0  0
   60.4113   36.1789   46.1227 H   0  0  0  0  0  0  0  0  0  0  0  0
   58.7573   35.7956   46.7807 H   0  0  0  0  0  0  0  0  0  0  0  0
   60.4440   34.8430   48.0960 H   0  0  0  0  0  0  0  0  0  0  0  0
   61.3078   32.8830   46.1223 H   0  0  0  0  0  0  0  0  0  0  0  0
   61.9325   34.5794   45.9625 H   0  0  0  0  0  0  0  0  0  0  0  0
   61.6164   34.8048   49.3262 H   0  0  0  0  0  0  0  0  0  0  0  0
   63.6186   34.1091   50.8959 H   0  0  0  0  0  0  0  0  0  0  0  0
   63.9095   32.2245   46.6399 H   0  0  0  0  0  0  0  0  0  0  0  0
   59.7621   32.4493   47.9653 H   0  0  0  0  0  0  0  0  0  0  0  0
   58.4640   33.6974   48.1247 H   0  0  0  0  0  0  0  0  0  0  0  0
  1  2  1  0
  2  3  1  0
  3  4  1  0
  4  5  1  0
  5  6  2  0
  6  7  1  0
  7  8  1  0
  7  9  1  0
  9 10  1  0
 10 11  1  0
 11 12  1  0
 12 13  1  0
 13 14  1  0
 14 15  2  0
 15 16  1  0
 16 17  1  0
 11 18  1  0
  8  4  2  0
 17 13  2  0
 18  6  1  0
  1 19  1  0
  1 20  1  0
  1 21  1  0
  3 22  1  0
  3 23  1  0
  5 24  1  0
  9 25  1  0
  9 26  1  0
 10 27  1  0
 10 28  1  0
 11 29  1  1
 12 30  1  0
 12 31  1  0
 14 32  1  0
 15 33  1  0
 17 34  1  0
 18 35  1  0
 18 36  1  0
M  CHG  1  11   1
M  END
>  <UniqueID>  (35) 
31

>  <SMILES>  (35) 
COCc1cc2n(n1)CC[N@H+](Cc1ccsc1)C2

>  <Energy>  (35) 
98.69403919699988

>  <Genealogy>  (35) 
COCc1cc2n(n1)CC[NH+](Cc1ccsc1)C2 (protonated)
COCc1cc2n(n1)CC[N@H+](Cc1ccsc1)C2 (chirality)
COCc1cc2n(n1)CC[N@H+](Cc1ccsc1)C2 (3D coordinates assigned)
COCc1cc2n(n1)CC[N@H+](Cc1ccsc1)C2 (nonaromatic ring conformer: 98.69403919699988 kcal/mol)

>  <smiles>  (35) 
COCc1cc2n(n1)CCN(Cc1ccsc1)C2

>  <score_type>  (35) 
oracle

>  <origin>  (35) 
adg

>  <m_score__min__energy>  (35) 
-5.0700000000000003

>  <m_primary>  (35) 
energy

$$$$
35:0
     RDKit          3D

 31 31  0  0  0  0  0  0  0  0999 V2000
   57.7650   33.6020   44.5000 C   0  0  0  0  0  0  0  0  0  0  0  0
   58.5040   33.1160   45.6670 N   0  0  0  0  0  0  0  0  0  0  0  0
   59.2540   34.0640   46.4880 C   0  0  0  0  0  0  0  0  0  0  0  0
   58.1990   31.8280   46.2230 C   0  0  0  0  0  0  0  0  0  0  0  0
   58.2000   30.6920   45.4940 C   0  0  0  0  0  0  0  0  0  0  0  0
   57.0180   30.3470   44.6620 C   0  0  0  0  0  0  0  0  0  0  0  0
   55.9630   31.0370   44.7290 O   0  0  0  0  0  0  0  0  0  0  0  0
   57.0770   29.2150   43.6710 C   0  0  0  0  0  0  0  0  0  0  0  0
   58.0060   28.0630   44.1300 C   0  0  0  0  0  0  0  0  0  0  0  0
   58.1580   27.0540   42.9730 C   0  0  0  0  0  0  0  0  0  0  0  0
   57.3920   27.3240   45.3430 C   0  0  0  0  0  0  0  0  0  0  0  0
   59.4030   28.6290   44.4870 C   0  0  0  0  0  0  0  0  0  0  0  0
   59.3230   29.7160   45.5230 C   0  0  0  0  0  0  0  0  0  0  0  0
   60.2120   29.7700   46.4140 O   0  0  0  0  0  0  0  0  0  0  0  0
   56.8894   34.1778   44.8342 H   0  0  0  0  0  0  0  0  0  0  0  0
   58.4187   34.2470   43.8946 H   0  0  0  0  0  0  0  0  0  0  0  0
   57.4317   32.7462   43.8946 H   0  0  0  0  0  0  0  0  0  0  0  0
   59.0807   33.8449   47.5519 H   0  0  0  0  0  0  0  0  0  0  0  0
   60.3273   33.9731   46.2650 H   0  0  0  0  0  0  0  0  0  0  0  0
   58.9186   35.0876   46.2650 H   0  0  0  0  0  0  0  0  0  0  0  0
   57.9530   31.7639   47.2932 H   0  0  0  0  0  0  0  0  0  0  0  0
   56.0617   28.8144   43.5341 H   0  0  0  0  0  0  0  0  0  0  0  0
   57.4869   29.6172   42.7328 H   0  0  0  0  0  0  0  0  0  0  0  0
   58.3100   26.0450   43.3840 H   0  0  0  0  0  0  0  0  0  0  0  0
   57.2481   27.0650   42.3550 H   0  0  0  0  0  0  0  0  0  0  0  0
   59.0243   27.3325   42.3550 H   0  0  0  0  0  0  0  0  0  0  0  0
   57.7660   27.7742   46.2744 H   0  0  0  0  0  0  0  0  0  0  0  0
   56.2959   27.4102   45.3085 H   0  0  0  0  0  0  0  0  0  0  0  0
   57.6776   26.2623   45.3085 H   0  0  0  0  0  0  0  0  0  0  0  0
   60.0280   27.8121   44.8770 H   0  0  0  0  0  0  0  0  0  0  0  0
   59.8376   29.0616   43.5738 H   0  0  0  0  0  0  0  0  0  0  0  0
  1  2  1  0
  2  3  1  0
  2  4  1  0
  4  5  2  3
  5  6  1  0
  6  7  2  0
  6  8  1  0
  8  9  1  0
  9 10  1  0
  9 11  1  0
  9 12  1  0
 12 13  1  0
 13 14  2  0
 13  5  1  0
  1 15  1  0
  1 16  1  0
  1 17  1  0
  3 18  1  0
  3 19  1  0
  3 20  1  0
  4 21  1  0
  8 22  1  0
  8 23  1  0
 10 24  1  0
 10 25  1  0
 10 26  1  0
 11 27  1  0
 11 28  1  0
 11 29  1  0
 12 30  1  0
 12 31  1  0
M  END
>  <UniqueID>  (36) 
32

>  <SMILES>  (36) 
CN(C)C=C1C(=O)CC(C)(C)CC1=O

>  <Energy>  (36) 
31.261084279684273

>  <Genealogy>  (36) 
CN(C)C=C1C(=O)CC(C)(C)CC1=O (3D coordinates assigned)
CN(C)C=C1C(=O)CC(C)(C)CC1=O (nonaromatic ring conformer: 31.261084279684273 kcal/mol)

>  <smiles>  (36) 
CN(C)C=C1C(=O)CC(C)(C)CC1=O

>  <score_type>  (36) 
oracle

>  <origin>  (36) 
adg

>  <m_score__min__energy>  (36) 
-5.6699999999999999

>  <m_primary>  (36) 
energy

$$$$
36:0
     RDKit          3D

 48 50  0  0  0  0  0  0  0  0999 V2000
   54.0240   30.6360   51.6420 C   0  0  0  0  0  0  0  0  0  0  0  0
   55.3730   30.8660   52.2350 C   0  0  0  0  0  0  0  0  0  0  0  0
   56.4060   31.0630   51.2900 O   0  0  0  0  0  0  0  0  0  0  0  0
   57.6870   30.5710   51.3920 C   0  0  0  0  0  0  0  0  0  0  0  0
   57.8380   29.3260   51.6160 O   0  0  0  0  0  0  0  0  0  0  0  0
   58.8440   31.4220   51.2550 N   0  0  0  0  0  0  0  0  0  0  0  0
   60.1390   30.8000   51.3800 C   0  0  0  0  0  0  0  0  0  0  0  0
   61.2120   31.7860   51.7480 C   0  0  0  0  0  0  0  0  0  0  0  0
   60.9700   33.0130   51.0050 N   0  0  0  0  0  0  0  0  0  0  0  0
   61.8340   33.4960   49.9860 C   0  0  0  0  0  0  0  0  0  0  0  0
   61.4910   34.5830   49.4330 O   0  0  0  0  0  0  0  0  0  0  0  0
   63.0530   32.7430   49.6240 C   0  0  0  0  0  0  0  0  0  0  0  0
   62.9140   31.7600   48.1400 S   0  0  0  0  0  0  0  0  0  0  0  0
   61.3380   31.9430   47.3450 C   0  0  0  0  0  0  0  0  0  0  0  0
   60.6800   30.8970   46.7860 N   0  0  0  0  0  0  0  0  0  0  0  0
   59.5280   31.3440   46.2630 C   0  0  0  0  0  0  0  0  0  0  0  0
   58.4710   30.7430   45.5820 C   0  0  0  0  0  0  0  0  0  0  0  0
   57.3790   31.4710   45.1470 C   0  0  0  0  0  0  0  0  0  0  0  0
   56.3560   30.8500   44.4790 O   0  0  0  0  0  0  0  0  0  0  0  0
   56.4520   30.0170   43.3690 C   0  0  0  0  0  0  0  0  0  0  0  0
   57.3340   32.8270   45.3960 C   0  0  0  0  0  0  0  0  0  0  0  0
   58.3630   33.4590   46.0690 C   0  0  0  0  0  0  0  0  0  0  0  0
   59.4390   32.6970   46.4870 C   0  0  0  0  0  0  0  0  0  0  0  0
   60.5700   33.0170   47.1520 N   0  0  0  0  0  0  0  0  0  0  0  0
   59.7410   33.7300   51.3850 C   0  0  0  0  0  0  0  0  0  0  0  0
   58.6120   32.8210   51.0030 C   0  0  0  0  0  0  0  0  0  0  0  0
   53.2859   30.5102   52.4478 H   0  0  0  0  0  0  0  0  0  0  0  0
   53.7446   31.4995   51.0204 H   0  0  0  0  0  0  0  0  0  0  0  0
   54.0465   29.7287   51.0204 H   0  0  0  0  0  0  0  0  0  0  0  0
   55.3187   31.7590   52.8749 H   0  0  0  0  0  0  0  0  0  0  0  0
   55.6291   29.9518   52.7905 H   0  0  0  0  0  0  0  0  0  0  0  0
   60.0862   30.0268   52.1606 H   0  0  0  0  0  0  0  0  0  0  0  0
   60.4003   30.3672   50.4031 H   0  0  0  0  0  0  0  0  0  0  0  0
   61.1762   31.9906   52.8282 H   0  0  0  0  0  0  0  0  0  0  0  0
   62.2043   31.3800   51.5019 H   0  0  0  0  0  0  0  0  0  0  0  0
   63.8709   33.4645   49.4810 H   0  0  0  0  0  0  0  0  0  0  0  0
   63.2359   32.0364   50.4470 H   0  0  0  0  0  0  0  0  0  0  0  0
   58.5064   29.6613   45.3854 H   0  0  0  0  0  0  0  0  0  0  0  0
   56.5720   28.9754   43.7016 H   0  0  0  0  0  0  0  0  0  0  0  0
   55.5377   30.1056   42.7639 H   0  0  0  0  0  0  0  0  0  0  0  0
   57.3222   30.3113   42.7639 H   0  0  0  0  0  0  0  0  0  0  0  0
   56.4680   33.4131   45.0546 H   0  0  0  0  0  0  0  0  0  0  0  0
   58.3270   34.5404   46.2670 H   0  0  0  0  0  0  0  0  0  0  0  0
   60.7780   33.9760   47.4600 H   0  0  0  0  0  0  0  0  0  0  0  0
   59.7285   33.9243   52.4676 H   0  0  0  0  0  0  0  0  0  0  0  0
   59.6665   34.7060   50.8831 H   0  0  0  0  0  0  0  0  0  0  0  0
   57.7209   33.1267   51.5709 H   0  0  0  0  0  0  0  0  0  0  0  0
   58.4921   32.9211   49.9141 H   0  0  0  0  0  0  0  0  0  0  0  0
  1  2  1  0
  2  3  1  0
  3  4  1  0
  4  5  2  0
  4  6  1  0
  6  7  1  0
  7  8  1  0
  8  9  1  0
  9 10  1  0
 10 11  2  0
 10 12  1  0
 12 13  1  0
 13 14  1  0
 14 15  2  0
 15 16  1  0
 16 17  2  0
 17 18  1  0
 18 19  1  0
 19 20  1  0
 18 21  2  0
 21 22  1  0
 22 23  2  0
 23 24  1  0
  9 25  1  0
 25 26  1  0
 26  6  1  0
 24 14  1  0
 23 16  1  0
  1 27  1  0
  1 28  1  0
  1 29  1  0
  2 30  1  0
  2 31  1  0
  7 32  1  0
  7 33  1  0
  8 34  1  0
  8 35  1  0
 12 36  1  0
 12 37  1  0
 17 38  1  0
 20 39  1  0
 20 40  1  0
 20 41  1  0
 21 42  1  0
 22 43  1  0
 24 44  1  0
 25 45  1  0
 25 46  1  0
 26 47  1  0
 26 48  1  0
M  END
>  <smiles>  (37) 
CCOC(=O)N1CCN(C(=O)CSc2nc3cc(OC)ccc3[nH]2)CC1

>  <score_type>  (37) 
oracle

>  <origin>  (37) 
adg

>  <m_score__min__energy>  (37) 
-7.2300000000000004

>  <m_primary>  (37) 
energy

$$$$
37:0
     RDKit          3D

 47 49  0  0  0  0  0  0  0  0999 V2000
   59.0880   34.3180   46.4700 C   0  0  0  0  0  0  0  0  0  0  0  0
   59.4660   32.9160   46.1030 C   0  0  0  0  0  0  0  0  0  0  0  0
   60.6270   32.5100   46.3710 O   0  0  0  0  0  0  0  0  0  0  0  0
   58.5320   32.0630   45.4120 N   0  0  0  0  0  0  0  0  0  0  0  0
   57.8210   32.4510   44.1900 C   0  0  0  0  0  0  0  0  0  0  0  0
   57.0560   31.1940   43.7150 C   0  0  0  0  0  0  0  0  0  0  0  0
   57.3790   30.1810   44.7550 C   0  0  0  0  0  0  0  0  0  0  0  0
   56.9160   28.8680   44.8340 C   0  0  0  0  0  0  0  0  0  0  0  0
   57.3220   28.0730   45.9210 C   0  0  0  0  0  0  0  0  0  0  0  0
   56.7580   26.4100   46.0440 S   0  0  0  0  0  0  0  0  0  0  0  0
   57.1970   25.8110   47.3520 O   0  0  0  0  0  0  0  0  0  0  0  0
   55.2580   26.3960   45.9790 O   0  0  0  0  0  0  0  0  0  0  0  0
   57.3950   25.4660   44.7280 N   0  0  0  0  0  0  0  0  0  0  0  0
   58.2820   24.4040   45.2140 C   0  0  0  0  0  0  0  0  0  0  0  0
   57.8890   23.0470   44.6250 C   0  0  0  0  0  0  0  0  0  0  0  0
   56.3990   22.8630   44.6170 C   0  0  0  0  0  0  0  0  0  0  0  0
   55.8750   22.1160   43.7470 O   0  0  0  0  0  0  0  0  0  0  0  0
   55.5810   23.6020   45.5390 N   0  0  0  0  0  0  0  0  0  0  0  0
   54.1660   23.4040   45.7000 C   0  0  0  0  0  0  0  0  0  0  0  0
   53.7040   22.5090   46.6770 C   0  0  0  0  0  0  0  0  0  0  0  0
   52.3350   22.2820   46.8390 C   0  0  0  0  0  0  0  0  0  0  0  0
   51.4140   22.9360   46.0160 C   0  0  0  0  0  0  0  0  0  0  0  0
   51.8640   23.8120   45.0240 C   0  0  0  0  0  0  0  0  0  0  0  0
   53.2340   24.0420   44.8600 C   0  0  0  0  0  0  0  0  0  0  0  0
   58.1640   28.6190   46.9120 C   0  0  0  0  0  0  0  0  0  0  0  0
   58.6140   29.9450   46.8120 C   0  0  0  0  0  0  0  0  0  0  0  0
   58.2160   30.7070   45.7030 C   0  0  0  0  0  0  0  0  0  0  0  0
   59.0616   34.4159   47.5653 H   0  0  0  0  0  0  0  0  0  0  0  0
   59.8296   35.0177   46.0571 H   0  0  0  0  0  0  0  0  0  0  0  0
   58.0952   34.5501   46.0571 H   0  0  0  0  0  0  0  0  0  0  0  0
   57.1160   33.2681   44.4028 H   0  0  0  0  0  0  0  0  0  0  0  0
   58.5184   32.8098   43.4186 H   0  0  0  0  0  0  0  0  0  0  0  0
   55.9734   31.3843   43.6735 H   0  0  0  0  0  0  0  0  0  0  0  0
   57.3409   30.8751   42.7015 H   0  0  0  0  0  0  0  0  0  0  0  0
   56.2464   28.4620   44.0614 H   0  0  0  0  0  0  0  0  0  0  0  0
   59.3162   24.6372   44.9208 H   0  0  0  0  0  0  0  0  0  0  0  0
   58.1944   24.3487   46.3091 H   0  0  0  0  0  0  0  0  0  0  0  0
   58.2628   22.9835   43.5924 H   0  0  0  0  0  0  0  0  0  0  0  0
   58.3315   22.2575   45.2502 H   0  0  0  0  0  0  0  0  0  0  0  0
   56.0250   24.3950   46.0540 H   0  0  0  0  0  0  0  0  0  0  0  0
   54.4247   21.9824   47.3198 H   0  0  0  0  0  0  0  0  0  0  0  0
   51.9815   21.5876   47.6154 H   0  0  0  0  0  0  0  0  0  0  0  0
   50.3361   22.7616   46.1488 H   0  0  0  0  0  0  0  0  0  0  0  0
   51.1397   24.3213   44.3713 H   0  0  0  0  0  0  0  0  0  0  0  0
   53.5844   24.7242   44.0714 H   0  0  0  0  0  0  0  0  0  0  0  0
   58.4703   28.0015   47.7693 H   0  0  0  0  0  0  0  0  0  0  0  0
   59.2646   30.3774   47.5864 H   0  0  0  0  0  0  0  0  0  0  0  0
  1  2  1  0
  2  3  2  0
  2  4  1  0
  4  5  1  0
  5  6  1  0
  6  7  1  0
  7  8  2  0
  8  9  1  0
  9 10  1  0
 10 11  2  0
 10 12  2  0
 10 13  1  0
 13 14  1  0
 14 15  1  0
 15 16  1  0
 16 17  2  0
 16 18  1  0
 18 19  1  0
 19 20  2  0
 20 21  1  0
 21 22  2  0
 22 23  1  0
 23 24  2  0
  9 25  2  0
 25 26  1  0
 26 27  2  0
 27  4  1  0
 27  7  1  0
 24 19  1  0
  1 28  1  0
  1 29  1  0
  1 30  1  0
  5 31  1  0
  5 32  1  0
  6 33  1  0
  6 34  1  0
  8 35  1  0
 14 36  1  0
 14 37  1  0
 15 38  1  0
 15 39  1  0
 18 40  1  0
 20 41  1  0
 21 42  1  0
 22 43  1  0
 23 44  1  0
 24 45  1  0
 25 46  1  0
 26 47  1  0
M  CHG  1  13  -1
M  END
>  <UniqueID>  (38) 
33

>  <SMILES>  (38) 
CC(=O)N1CCc2cc(S(=O)(=O)[N-]CCC(=O)Nc3ccccc3)ccc21

>  <Energy>  (38) 
63.15493646570581

>  <Genealogy>  (38) 
CC(=O)N1CCc2cc(S(=O)(=O)[N-]CCC(=O)Nc3ccccc3)ccc21 (protonated)
CC(=O)N1CCc2cc(S(=O)(=O)[N-]CCC(=O)Nc3ccccc3)ccc21 (3D coordinates assigned)
CC(=O)N1CCc2cc(S(=O)(=O)[N-]CCC(=O)Nc3ccccc3)ccc21 (nonaromatic ring conformer: 63.15493646570581 kcal/mol)

>  <smiles>  (38) 
CC(=O)N1CCc2cc(S(=O)(=O)NCCC(=O)Nc3ccccc3)ccc21

>  <score_type>  (38) 
oracle

>  <origin>  (38) 
adg

>  <m_score__min__energy>  (38) 
-10.5

>  <m_primary>  (38) 
energy

$$$$
38:0
     RDKit          3D

 50 53  0  0  0  0  0  0  0  0999 V2000
   55.7240   29.9230   44.5220 O   0  0  0  0  0  0  0  0  0  0  0  0
   56.9820   29.9480   44.4200 C   0  0  0  0  0  0  0  0  0  0  0  0
   57.7330   28.7250   43.9780 C   0  0  0  0  0  0  0  0  0  0  0  0
   58.3270   28.0220   45.1200 N   0  0  0  0  0  0  0  0  0  0  0  0
   59.4620   28.3310   45.8070 C   0  0  0  0  0  0  0  0  0  0  0  0
   60.3630   29.4840   45.4770 C   0  0  0  0  0  0  0  0  0  0  0  0
   60.0960   30.6150   46.3860 N   0  0  0  0  0  0  0  0  0  0  0  0
   61.3060   31.0440   47.0890 C   0  0  0  0  0  0  0  0  0  0  0  0
   60.8480   31.7020   48.3820 C   0  0  0  0  0  0  0  0  0  0  0  0
   59.4230   31.2160   48.6020 C   0  0  0  0  0  0  0  0  0  0  0  0
   59.1380   30.2750   47.4430 C   0  0  0  0  0  0  0  0  0  0  0  0
   59.6880   27.5150   46.8710 N   0  0  0  0  0  0  0  0  0  0  0  0
   58.6410   26.6700   46.8330 C   0  0  0  0  0  0  0  0  0  0  0  0
   58.3580   25.6300   47.7140 C   0  0  0  0  0  0  0  0  0  0  0  0
   57.1810   24.8880   47.4980 C   0  0  0  0  0  0  0  0  0  0  0  0
   56.3240   25.2060   46.4190 C   0  0  0  0  0  0  0  0  0  0  0  0
   56.6380   26.2660   45.5490 C   0  0  0  0  0  0  0  0  0  0  0  0
   57.8170   26.9740   45.7890 C   0  0  0  0  0  0  0  0  0  0  0  0
   57.7050   31.1350   44.7720 N   0  0  0  0  0  0  0  0  0  0  0  0
   57.0160   32.3390   45.2330 C   0  0  0  0  0  0  0  0  0  0  0  0
   58.0070   33.3610   45.7200 C   0  0  0  0  0  0  0  0  0  0  0  0
   58.1440   33.6150   47.0940 C   0  0  0  0  0  0  0  0  0  0  0  0
   59.0380   34.5920   47.5440 C   0  0  0  0  0  0  0  0  0  0  0  0
   59.7920   35.3270   46.6250 C   0  0  0  0  0  0  0  0  0  0  0  0
   59.6480   35.0920   45.2550 C   0  0  0  0  0  0  0  0  0  0  0  0
   58.7550   34.1160   44.8010 C   0  0  0  0  0  0  0  0  0  0  0  0
   57.0391   28.0460   43.4608 H   0  0  0  0  0  0  0  0  0  0  0  0
   58.5438   29.0402   43.3047 H   0  0  0  0  0  0  0  0  0  0  0  0
   61.4112   29.1691   45.5868 H   0  0  0  0  0  0  0  0  0  0  0  0
   60.1734   29.8030   44.4415 H   0  0  0  0  0  0  0  0  0  0  0  0
   61.9442   30.1758   47.3104 H   0  0  0  0  0  0  0  0  0  0  0  0
   61.8944   31.7423   46.4756 H   0  0  0  0  0  0  0  0  0  0  0  0
   61.4925   31.3951   49.2189 H   0  0  0  0  0  0  0  0  0  0  0  0
   60.9008   32.7991   48.3229 H   0  0  0  0  0  0  0  0  0  0  0  0
   59.3413   30.6827   49.5606 H   0  0  0  0  0  0  0  0  0  0  0  0
   58.7062   32.0495   48.6399 H   0  0  0  0  0  0  0  0  0  0  0  0
   59.2755   29.2303   47.7589 H   0  0  0  0  0  0  0  0  0  0  0  0
   58.1016   30.3809   47.0899 H   0  0  0  0  0  0  0  0  0  0  0  0
   59.0317   25.3956   48.5513 H   0  0  0  0  0  0  0  0  0  0  0  0
   56.9268   24.0567   48.1720 H   0  0  0  0  0  0  0  0  0  0  0  0
   55.4063   24.6210   46.2590 H   0  0  0  0  0  0  0  0  0  0  0  0
   55.9777   26.5278   44.7091 H   0  0  0  0  0  0  0  0  0  0  0  0
   58.7480   31.1240   44.6980 H   0  0  0  0  0  0  0  0  0  0  0  0
   56.4363   32.7651   44.4009 H   0  0  0  0  0  0  0  0  0  0  0  0
   56.3468   32.0694   46.0633 H   0  0  0  0  0  0  0  0  0  0  0  0
   57.5461   33.0436   47.8192 H   0  0  0  0  0  0  0  0  0  0  0  0
   59.1477   34.7820   48.6219 H   0  0  0  0  0  0  0  0  0  0  0  0
   60.4992   36.0909   46.9803 H   0  0  0  0  0  0  0  0  0  0  0  0
   60.2378   35.6754   44.5327 H   0  0  0  0  0  0  0  0  0  0  0  0
   58.6380   33.9390   43.7217 H   0  0  0  0  0  0  0  0  0  0  0  0
  1  2  2  0
  2  3  1  0
  3  4  1  0
  4  5  1  0
  5  6  1  0
  6  7  1  0
  7  8  1  0
  8  9  1  0
  9 10  1  0
 10 11  1  0
  5 12  2  0
 12 13  1  0
 13 14  2  0
 14 15  1  0
 15 16  2  0
 16 17  1  0
 17 18  2  0
  2 19  1  0
 19 20  1  0
 20 21  1  0
 21 22  2  0
 22 23  1  0
 23 24  2  0
 24 25  1  0
 25 26  2  0
 18  4  1  0
 26 21  1  0
 11  7  1  0
 18 13  1  0
  3 27  1  0
  3 28  1  0
  6 29  1  0
  6 30  1  0
  8 31  1  0
  8 32  1  0
  9 33  1  0
  9 34  1  0
 10 35  1  0
 10 36  1  0
 11 37  1  0
 11 38  1  0
 14 39  1  0
 15 40  1  0
 16 41  1  0
 17 42  1  0
 19 43  1  0
 20 44  1  0
 20 45  1  0
 22 46  1  0
 23 47  1  0
 24 48  1  0
 25 49  1  0
 26 50  1  0
M  END
>  <UniqueID>  (39) 
34

>  <SMILES>  (39) 
O=C(Cn1c(CN2CCCC2)nc2ccccc21)NCc1ccccc1

>  <Energy>  (39) 
86.97663392665802

>  <Genealogy>  (39) 
O=C(Cn1c(CN2CCCC2)nc2ccccc21)NCc1ccccc1 (3D coordinates assigned)
O=C(Cn1c(CN2CCCC2)nc2ccccc21)NCc1ccccc1 (nonaromatic ring conformer: 86.97663392665802 kcal/mol)

>  <smiles>  (39) 
O=C(Cn1c(CN2CCCC2)nc2ccccc21)NCc1ccccc1

>  <score_type>  (39) 
oracle

>  <origin>  (39) 
adg

>  <m_score__min__energy>  (39) 
-8.6600000000000001

>  <m_primary>  (39) 
energy

$$$$
39:0
     RDKit          3D

 41 43  0  0  0  0  0  0  0  0999 V2000
   62.2600   34.1490   49.1010 C   0  0  0  0  0  0  0  0  0  0  0  0
   60.9190   34.5940   48.9230 O   0  0  0  0  0  0  0  0  0  0  0  0
   60.0810   34.1810   47.8770 C   0  0  0  0  0  0  0  0  0  0  0  0
   60.4340   34.5240   46.5660 C   0  0  0  0  0  0  0  0  0  0  0  0
   59.6320   34.1350   45.4890 C   0  0  0  0  0  0  0  0  0  0  0  0
   58.4580   33.4000   45.7100 C   0  0  0  0  0  0  0  0  0  0  0  0
   57.6080   32.9660   44.5440 C   0  0  0  0  0  0  0  0  0  0  0  0
   58.1740   31.7620   43.8940 N   0  0  0  0  0  0  0  0  0  0  0  0
   58.6740   30.7600   44.8600 C   0  0  0  0  0  0  0  0  0  0  0  0
   57.5390   30.0550   45.6310 C   0  0  0  0  0  0  0  0  0  0  0  0
   56.2660   29.8550   44.7840 C   0  0  0  0  0  0  0  0  0  0  0  0
   55.6220   28.5940   45.1650 N   0  0  0  0  0  0  0  0  0  0  0  0
   56.2510   27.5520   45.6200 C   0  0  0  0  0  0  0  0  0  0  0  0
   57.5790   27.3540   45.4680 N   0  0  0  0  0  0  0  0  0  0  0  0
   57.7910   26.1740   46.0750 C   0  0  0  0  0  0  0  0  0  0  0  0
   56.6020   25.6950   46.5700 C   0  0  0  0  0  0  0  0  0  0  0  0
   55.6170   26.5650   46.2840 N   0  0  0  0  0  0  0  0  0  0  0  0
   56.6070   29.8490   43.2880 C   0  0  0  0  0  0  0  0  0  0  0  0
   57.2650   31.1800   42.8690 C   0  0  0  0  0  0  0  0  0  0  0  0
   58.1010   33.0520   47.0230 C   0  0  0  0  0  0  0  0  0  0  0  0
   58.9040   33.4400   48.0990 C   0  0  0  0  0  0  0  0  0  0  0  0
   62.4822   34.0752   50.1758 H   0  0  0  0  0  0  0  0  0  0  0  0
   62.3839   33.1616   48.6324 H   0  0  0  0  0  0  0  0  0  0  0  0
   62.9497   34.8664   48.6324 H   0  0  0  0  0  0  0  0  0  0  0  0
   61.3501   35.1044   46.3820 H   0  0  0  0  0  0  0  0  0  0  0  0
   59.9230   34.4066   44.4635 H   0  0  0  0  0  0  0  0  0  0  0  0
   56.5938   32.7376   44.9035 H   0  0  0  0  0  0  0  0  0  0  0  0
   57.5809   33.7822   43.8070 H   0  0  0  0  0  0  0  0  0  0  0  0
   59.2510   30.0007   44.3118 H   0  0  0  0  0  0  0  0  0  0  0  0
   59.2948   31.2910   45.5966 H   0  0  0  0  0  0  0  0  0  0  0  0
   57.8991   29.0691   45.9601 H   0  0  0  0  0  0  0  0  0  0  0  0
   57.2698   30.6997   46.4807 H   0  0  0  0  0  0  0  0  0  0  0  0
   55.5744   30.6894   44.9725 H   0  0  0  0  0  0  0  0  0  0  0  0
   58.7648   25.6700   46.1621 H   0  0  0  0  0  0  0  0  0  0  0  0
   56.4755   24.7479   47.1150 H   0  0  0  0  0  0  0  0  0  0  0  0
   57.3022   29.0223   43.0802 H   0  0  0  0  0  0  0  0  0  0  0  0
   55.6765   29.7210   42.7155 H   0  0  0  0  0  0  0  0  0  0  0  0
   57.8471   31.0033   41.9525 H   0  0  0  0  0  0  0  0  0  0  0  0
   56.4491   31.9033   42.7237 H   0  0  0  0  0  0  0  0  0  0  0  0
   57.1848   32.4712   47.2053 H   0  0  0  0  0  0  0  0  0  0  0  0
   58.6154   33.1653   49.1243 H   0  0  0  0  0  0  0  0  0  0  0  0
  1  2  1  0
  2  3  1  0
  3  4  2  0
  4  5  1  0
  5  6  2  0
  6  7  1  0
  7  8  1  0
  8  9  1  0
  9 10  1  0
 10 11  1  0
 11 12  1  0
 12 13  2  3
 13 14  1  0
 14 15  1  0
 15 16  2  0
 16 17  1  0
 11 18  1  0
 18 19  1  0
  6 20  1  0
 20 21  2  0
 21  3  1  0
 19  8  1  0
 17 13  1  0
  1 22  1  0
  1 23  1  0
  1 24  1  0
  4 25  1  0
  5 26  1  0
  7 27  1  0
  7 28  1  0
  9 29  1  0
  9 30  1  0
 10 31  1  0
 10 32  1  0
 11 33  1  0
 15 34  1  0
 16 35  1  0
 18 36  1  0
 18 37  1  0
 19 38  1  0
 19 39  1  0
 20 40  1  0
 21 41  1  0
M  CHG  2  14  -1  17  -1
M  END
>  <UniqueID>  (40) 
35

>  <SMILES>  (40) 
COc1ccc(CN2CCC(N=c3[n-]cc[n-]3)CC2)cc1

>  <Energy>  (40) 
77.93861234258033

>  <Genealogy>  (40) 
COc1ccc(CN2CCC(N=c3[n-]cc[n-]3)CC2)cc1 (protonated)
COc1ccc(CN2CCC(N=c3[n-]cc[n-]3)CC2)cc1 (3D coordinates assigned)
COc1ccc(CN2CCC(N=c3[n-]cc[n-]3)CC2)cc1 (nonaromatic ring conformer: 77.93861234258033 kcal/mol)

>  <smiles>  (40) 
COc1ccc(CN2CCC(N=c3[nH]cc[nH]3)CC2)cc1

>  <score_type>  (40) 
oracle

>  <origin>  (40) 
adg

>  <m_score__min__energy>  (40) 
-10.77

>  <m_primary>  (40) 
energy

$$$$
40:0
     RDKit          3D

 50 53  0  0  0  0  0  0  0  0999 V2000
   54.7700   29.3420   44.0980 O   0  0  0  0  0  0  0  0  0  0  0  0
   55.8940   29.6620   44.5690 C   0  0  0  0  0  0  0  0  0  0  0  0
   56.5070   30.9730   44.1590 C   0  0  0  0  0  0  0  0  0  0  0  0
   57.3950   31.4870   45.1980 N   0  0  0  0  0  0  0  0  0  0  0  0
   57.7410   32.8800   45.3030 C   0  0  0  0  0  0  0  0  0  0  0  0
   57.2270   33.7080   44.5020 O   0  0  0  0  0  0  0  0  0  0  0  0
   58.7190   33.3600   46.3090 C   0  0  0  0  0  0  0  0  0  0  0  0
   59.8260   34.1460   45.9390 C   0  0  0  0  0  0  0  0  0  0  0  0
   60.7360   34.5830   46.9030 C   0  0  0  0  0  0  0  0  0  0  0  0
   60.5590   34.2420   48.2450 C   0  0  0  0  0  0  0  0  0  0  0  0
   59.4550   33.4710   48.6410 C   0  0  0  0  0  0  0  0  0  0  0  0
   59.2940   33.0600   50.0820 C   0  0  0  0  0  0  0  0  0  0  0  0
   60.3400   32.2460   50.4820 F   0  0  0  0  0  0  0  0  0  0  0  0
   58.1120   32.3620   50.2610 F   0  0  0  0  0  0  0  0  0  0  0  0
   59.2750   34.1900   50.8780 F   0  0  0  0  0  0  0  0  0  0  0  0
   58.5550   33.0140   47.6630 C   0  0  0  0  0  0  0  0  0  0  0  0
   56.5340   28.7630   45.4840 N   0  0  0  0  0  0  0  0  0  0  0  0
   57.8370   28.1170   45.3010 C   0  0  2  0  0  0  0  0  0  0  0  0
   57.7560   26.6480   45.6610 C   0  0  0  0  0  0  0  0  0  0  0  0
   57.7370   26.2610   47.0130 C   0  0  0  0  0  0  0  0  0  0  0  0
   57.6200   24.9150   47.3680 C   0  0  0  0  0  0  0  0  0  0  0  0
   57.5090   23.9360   46.3760 C   0  0  0  0  0  0  0  0  0  0  0  0
   57.3960   22.6250   46.7210 N   0  0  0  0  0  0  0  0  0  0  0  0
   57.2860   21.6470   45.7840 C   0  0  0  0  0  0  0  0  0  0  0  0
   57.2870   21.9740   44.4250 C   0  0  0  0  0  0  0  0  0  0  0  0
   57.4010   23.3120   44.0400 C   0  0  0  0  0  0  0  0  0  0  0  0
   57.5100   24.3110   45.0150 C   0  0  0  0  0  0  0  0  0  0  0  0
   57.6200   25.6630   44.6640 C   0  0  0  0  0  0  0  0  0  0  0  0
   58.8720   28.8050   46.1540 C   0  0  0  0  0  0  0  0  0  0  0  0
   58.7040   29.2290   47.4720 C   0  0  0  0  0  0  0  0  0  0  0  0
   59.7930   29.9560   47.9690 C   0  0  0  0  0  0  0  0  0  0  0  0
   60.8120   30.1370   47.0450 C   0  0  0  0  0  0  0  0  0  0  0  0
   60.3550   29.3940   45.6090 S   0  0  0  0  0  0  0  0  0  0  0  0
   57.0839   30.8260   43.2340 H   0  0  0  0  0  0  0  0  0  0  0  0
   55.6984   31.7015   43.9993 H   0  0  0  0  0  0  0  0  0  0  0  0
   57.7880   30.7960   45.8720 H   0  0  0  0  0  0  0  0  0  0  0  0
   59.9751   34.4177   44.8836 H   0  0  0  0  0  0  0  0  0  0  0  0
   61.5968   35.1991   46.6037 H   0  0  0  0  0  0  0  0  0  0  0  0
   61.2885   34.5793   48.9961 H   0  0  0  0  0  0  0  0  0  0  0  0
   57.7096   32.3762   47.9605 H   0  0  0  0  0  0  0  0  0  0  0  0
   58.1283   28.1998   44.2435 H   0  0  0  0  0  0  0  0  0  0  0  0
   57.8151   27.0263   47.7992 H   0  0  0  0  0  0  0  0  0  0  0  0
   57.6152   24.6250   48.4291 H   0  0  0  0  0  0  0  0  0  0  0  0
   57.1960   20.5959   46.0956 H   0  0  0  0  0  0  0  0  0  0  0  0
   57.1987   21.1840   43.6647 H   0  0  0  0  0  0  0  0  0  0  0  0
   57.4051   23.5802   42.9732 H   0  0  0  0  0  0  0  0  0  0  0  0
   57.6000   25.9565   43.6041 H   0  0  0  0  0  0  0  0  0  0  0  0
   57.8026   29.0131   48.0644 H   0  0  0  0  0  0  0  0  0  0  0  0
   59.8364   30.3471   48.9962 H   0  0  0  0  0  0  0  0  0  0  0  0
   61.7556   30.6739   47.2219 H   0  0  0  0  0  0  0  0  0  0  0  0
  1  2  2  0
  2  3  1  0
  3  4  1  0
  4  5  1  0
  5  6  2  0
  5  7  1  0
  7  8  2  0
  8  9  1  0
  9 10  2  0
 10 11  1  0
 11 12  1  0
 12 13  1  0
 12 14  1  0
 12 15  1  0
 11 16  2  0
  2 17  1  0
 17 18  1  0
 18 19  1  0
 19 20  2  0
 20 21  1  0
 21 22  2  0
 22 23  1  0
 23 24  2  0
 24 25  1  0
 25 26  2  0
 26 27  1  0
 27 28  2  0
 18 29  1  0
 29 30  2  0
 30 31  1  0
 31 32  2  0
 32 33  1  0
 16  7  1  0
 28 19  1  0
 33 29  1  0
 27 22  1  0
  3 34  1  0
  3 35  1  0
  4 36  1  0
  8 37  1  0
  9 38  1  0
 10 39  1  0
 16 40  1  0
 18 41  1  6
 20 42  1  0
 21 43  1  0
 24 44  1  0
 25 45  1  0
 26 46  1  0
 28 47  1  0
 30 48  1  0
 31 49  1  0
 32 50  1  0
M  CHG  1  17  -1
M  END
>  <UniqueID>  (41) 
36

>  <SMILES>  (41) 
O=C(CNC(=O)c1cccc(C(F)(F)F)c1)[N-][C@H](c1ccc2ncccc2c1)c1cccs1

>  <Energy>  (41) 
76.02283222704324

>  <Genealogy>  (41) 
O=C(CNC(=O)c1cccc(C(F)(F)F)c1)[N-]C(c1ccc2ncccc2c1)c1cccs1 (protonated)
O=C(CNC(=O)c1cccc(C(F)(F)F)c1)[N-][C@H](c1ccc2ncccc2c1)c1cccs1 (chirality)
O=C(CNC(=O)c1cccc(C(F)(F)F)c1)[N-][C@H](c1ccc2ncccc2c1)c1cccs1 (3D coordinates assigned)
O=C(CNC(=O)c1cccc(C(F)(F)F)c1)[N-][C@H](c1ccc2ncccc2c1)c1cccs1 (optimized conformer: 76.02283222704324 kcal/mol)

>  <smiles>  (41) 
O=C(CNC(=O)c1cccc(C(F)(F)F)c1)NC(c1ccc2ncccc2c1)c1cccs1

>  <score_type>  (41) 
oracle

>  <origin>  (41) 
adg

>  <m_score__min__energy>  (41) 
-10.35

>  <m_primary>  (41) 
energy

$$$$
41:0
     RDKit          3D

 19 19  0  0  0  0  0  0  0  0999 V2000
   54.7530   28.5540   44.4930 H   0  0  0  0  0  0  0  0  0  0  0  0
   55.3390   29.1970   45.0100 O   0  0  0  0  0  0  0  0  0  0  0  0
   55.5430   30.4730   44.5390 N   0  0  0  0  0  0  0  0  0  0  0  0
   56.6950   30.8920   44.1090 C   0  0  0  0  0  0  0  0  0  0  0  0
   57.0786   30.4805   43.1637 H   0  0  0  0  0  0  0  0  0  0  0  0
   57.5200   31.8940   44.8230 C   0  0  0  0  0  0  0  0  0  0  0  0
   58.2990   31.5560   45.9400 C   0  0  0  0  0  0  0  0  0  0  0  0
   58.3300   30.5166   46.2987 H   0  0  0  0  0  0  0  0  0  0  0  0
   59.0350   32.5470   46.5940 C   0  0  0  0  0  0  0  0  0  0  0  0
   59.6475   32.2831   47.4688 H   0  0  0  0  0  0  0  0  0  0  0  0
   59.0010   33.8410   46.1570 N   0  0  0  0  0  0  0  0  0  0  0  0
   59.7510   34.8720   46.8800 C   0  0  0  0  0  0  0  0  0  0  0  0
   59.6377   34.7162   47.9630 H   0  0  0  0  0  0  0  0  0  0  0  0
   60.8154   34.8084   46.6098 H   0  0  0  0  0  0  0  0  0  0  0  0
   59.3628   35.8651   46.6098 H   0  0  0  0  0  0  0  0  0  0  0  0
   58.2120   34.1950   45.1000 C   0  0  0  0  0  0  0  0  0  0  0  0
   58.1679   35.2466   44.7802 H   0  0  0  0  0  0  0  0  0  0  0  0
   57.4610   33.2330   44.4220 C   0  0  0  0  0  0  0  0  0  0  0  0
   56.8244   33.5272   43.5745 H   0  0  0  0  0  0  0  0  0  0  0  0
  1  2  1  0
  2  3  1  0
  3  4  2  0
  4  5  1  0
  4  6  1  0
  6  7  2  0
  7  8  1  0
  7  9  1  0
  9 10  1  0
  9 11  2  0
 11 12  1  0
 12 13  1  0
 12 14  1  0
 12 15  1  0
 11 16  1  0
 16 17  1  0
 16 18  2  0
 18 19  1  0
 18  6  1  0
M  CHG  1  11   1
M  END
>  <UniqueID>  (42) 
37

>  <SMILES>  (42) 
C[n+]1ccc(/C=N\O)cc1

>  <Energy>  (42) 
21.39005455760784

>  <Genealogy>  (42) 
C[n+]1ccc(/C=N\O)cc1 (cis-trans isomerization)
C[n+]1ccc(/C=N\O)cc1 (3D coordinates assigned)
C[n+]1ccc(/C=N\O)cc1 (optimized conformer: 21.39005455760784 kcal/mol)

>  <smiles>  (42) 
C[n+]1ccc(C=NO)cc1

>  <score_type>  (42) 
oracle

>  <origin>  (42) 
adg

>  <m_score__min__energy>  (42) 
-4.4199999999999999

>  <m_primary>  (42) 
energy

$$$$
42:0
     RDKit          3D

 35 36  0  0  0  0  0  0  0  0999 V2000
   56.6180   25.7830   45.5720 C   0  0  0  0  0  0  0  0  0  0  0  0
   56.5730   27.0970   46.1200 O   0  0  0  0  0  0  0  0  0  0  0  0
   57.7000   27.8940   46.3790 C   0  0  0  0  0  0  0  0  0  0  0  0
   58.7150   27.4670   47.2560 C   0  0  0  0  0  0  0  0  0  0  0  0
   59.8310   28.2730   47.4960 C   0  0  0  0  0  0  0  0  0  0  0  0
   59.9610   29.5100   46.8550 C   0  0  0  0  0  0  0  0  0  0  0  0
   61.1430   30.3880   47.1390 C   0  0  0  0  0  0  0  0  0  0  0  0
   58.9470   29.9480   45.9950 C   0  0  0  0  0  0  0  0  0  0  0  0
   57.8210   29.1510   45.7470 C   0  0  0  0  0  0  0  0  0  0  0  0
   56.6030   29.7580   44.6130 S   0  0  0  0  0  0  0  0  0  0  0  0
   55.3150   29.0290   44.8680 O   0  0  0  0  0  0  0  0  0  0  0  0
   57.0060   29.5080   43.1860 O   0  0  0  0  0  0  0  0  0  0  0  0
   56.3330   31.4640   44.8400 N   0  0  0  0  0  0  0  0  0  0  0  0
   57.3850   32.2690   44.2140 C   0  0  0  0  0  0  0  0  0  0  0  0
   58.0810   33.1500   45.2190 C   0  0  0  0  0  0  0  0  0  0  0  0
   58.9490   34.1640   44.7910 C   0  0  0  0  0  0  0  0  0  0  0  0
   59.5890   34.9670   45.7380 C   0  0  0  0  0  0  0  0  0  0  0  0
   59.3650   34.7690   47.0640 N   0  0  0  0  0  0  0  0  0  0  0  0
   58.5190   33.7990   47.5060 C   0  0  0  0  0  0  0  0  0  0  0  0
   57.8570   32.9770   46.5930 C   0  0  0  0  0  0  0  0  0  0  0  0
   56.6432   25.0460   46.3882 H   0  0  0  0  0  0  0  0  0  0  0  0
   55.7251   25.6134   44.9523 H   0  0  0  0  0  0  0  0  0  0  0  0
   57.5204   25.6749   44.9523 H   0  0  0  0  0  0  0  0  0  0  0  0
   58.6289   26.4912   47.7563 H   0  0  0  0  0  0  0  0  0  0  0  0
   60.6115   27.9332   48.1926 H   0  0  0  0  0  0  0  0  0  0  0  0
   61.2743   30.4856   48.2268 H   0  0  0  0  0  0  0  0  0  0  0  0
   62.0464   29.9403   46.6993 H   0  0  0  0  0  0  0  0  0  0  0  0
   60.9753   31.3822   46.6993 H   0  0  0  0  0  0  0  0  0  0  0  0
   59.0350   30.9302   45.5076 H   0  0  0  0  0  0  0  0  0  0  0  0
   58.1249   31.5959   43.7563 H   0  0  0  0  0  0  0  0  0  0  0  0
   56.9188   32.9144   43.4550 H   0  0  0  0  0  0  0  0  0  0  0  0
   59.1249   34.3262   43.7173 H   0  0  0  0  0  0  0  0  0  0  0  0
   60.2757   35.7613   45.4100 H   0  0  0  0  0  0  0  0  0  0  0  0
   58.3566   33.6626   48.5854 H   0  0  0  0  0  0  0  0  0  0  0  0
   57.1648   32.1993   46.9480 H   0  0  0  0  0  0  0  0  0  0  0  0
  1  2  1  0
  2  3  1  0
  3  4  2  0
  4  5  1  0
  5  6  2  0
  6  7  1  0
  6  8  1  0
  8  9  2  0
  9 10  1  0
 10 11  2  0
 10 12  2  0
 10 13  1  0
 13 14  1  0
 14 15  1  0
 15 16  2  0
 16 17  1  0
 17 18  2  0
 18 19  1  0
 19 20  2  0
  9  3  1  0
 20 15  1  0
  1 21  1  0
  1 22  1  0
  1 23  1  0
  4 24  1  0
  5 25  1  0
  7 26  1  0
  7 27  1  0
  7 28  1  0
  8 29  1  0
 14 30  1  0
 14 31  1  0
 16 32  1  0
 17 33  1  0
 19 34  1  0
 20 35  1  0
M  CHG  1  13  -1
M  END
>  <UniqueID>  (43) 
38

>  <SMILES>  (43) 
COc1ccc(C)cc1S(=O)(=O)[N-]Cc1ccncc1

>  <Energy>  (43) 
33.84606123304624

>  <Genealogy>  (43) 
COc1ccc(C)cc1S(=O)(=O)[N-]Cc1ccncc1 (protonated)
COc1ccc(C)cc1S(=O)(=O)[N-]Cc1ccncc1 (3D coordinates assigned)
COc1ccc(C)cc1S(=O)(=O)[N-]Cc1ccncc1 (optimized conformer: 33.84606123304624 kcal/mol)

>  <smiles>  (43) 
COc1ccc(C)cc1S(=O)(=O)NCc1ccncc1

>  <score_type>  (43) 
oracle

>  <origin>  (43) 
adg

>  <m_score__min__energy>  (43) 
-8.8900000000000006

>  <m_primary>  (43) 
energy

$$$$
43:0
     RDKit          3D

 37 38  0  0  0  0  0  0  0  0999 V2000
   59.6150   34.6568   47.0068 H   0  0  0  0  0  0  0  0  0  0  0  0
   58.9670   33.9560   46.4600 C   0  0  0  0  0  0  0  0  0  0  0  0
   58.5540   32.7610   47.0590 C   0  0  0  0  0  0  0  0  0  0  0  0
   59.0030   32.4140   48.4420 C   0  0  0  0  0  0  0  0  0  0  0  0
   58.3540   32.9156   49.1749 H   0  0  0  0  0  0  0  0  0  0  0  0
   58.9435   31.3249   48.5844 H   0  0  0  0  0  0  0  0  0  0  0  0
   60.0419   32.7462   48.5844 H   0  0  0  0  0  0  0  0  0  0  0  0
   57.7470   31.9070   46.3720 N   0  0  0  0  0  0  0  0  0  0  0  0
   57.3040   32.1680   45.1110 C   0  0  0  0  0  0  0  0  0  0  0  0
   56.5400   31.2820   44.5340 N   0  0  0  0  0  0  0  0  0  0  0  0
   56.3900   29.8850   44.8340 C   0  0  0  0  0  0  0  0  0  0  0  0
   55.3650   29.2520   44.4600 O   0  0  0  0  0  0  0  0  0  0  0  0
   57.3590   29.2500   45.6810 N   0  0  0  0  0  0  0  0  0  0  0  0
   58.0080   29.8710   46.2170 H   0  0  0  0  0  0  0  0  0  0  0  0
   57.4270   27.8320   45.9120 C   0  0  0  0  0  0  0  0  0  0  0  0
   56.2650   27.0490   46.0010 C   0  0  0  0  0  0  0  0  0  0  0  0
   55.2784   27.5270   45.9111 H   0  0  0  0  0  0  0  0  0  0  0  0
   56.3490   25.6660   46.2030 C   0  0  0  0  0  0  0  0  0  0  0  0
   55.1540   24.9360   46.2900 O   0  0  0  0  0  0  0  0  0  0  0  0
   54.6770   24.0480   45.2850 C   0  0  0  0  0  0  0  0  0  0  0  0
   54.2076   23.1742   45.7605 H   0  0  0  0  0  0  0  0  0  0  0  0
   53.9362   24.5668   44.6589 H   0  0  0  0  0  0  0  0  0  0  0  0
   55.5186   23.7168   44.6589 H   0  0  0  0  0  0  0  0  0  0  0  0
   57.6140   25.0590   46.3070 C   0  0  0  0  0  0  0  0  0  0  0  0
   57.6878   23.9747   46.4768 H   0  0  0  0  0  0  0  0  0  0  0  0
   58.7860   25.8310   46.1950 C   0  0  0  0  0  0  0  0  0  0  0  0
   60.0680   25.2690   46.2810 O   0  0  0  0  0  0  0  0  0  0  0  0
   61.2760   26.0210   46.3510 C   0  0  0  0  0  0  0  0  0  0  0  0
   61.5436   26.1876   47.4049 H   0  0  0  0  0  0  0  0  0  0  0  0
   62.0832   25.4655   45.8511 H   0  0  0  0  0  0  0  0  0  0  0  0
   61.1339   26.9905   45.8511 H   0  0  0  0  0  0  0  0  0  0  0  0
   58.6800   27.2100   45.9920 C   0  0  0  0  0  0  0  0  0  0  0  0
   59.5932   27.8154   45.8937 H   0  0  0  0  0  0  0  0  0  0  0  0
   57.7200   33.3580   44.4770 C   0  0  0  0  0  0  0  0  0  0  0  0
   57.3945   33.5825   43.4505 H   0  0  0  0  0  0  0  0  0  0  0  0
   58.5490   34.2490   45.1640 C   0  0  0  0  0  0  0  0  0  0  0  0
   58.8718   35.1829   44.6806 H   0  0  0  0  0  0  0  0  0  0  0  0
  1  2  1  0
  2  3  2  0
  3  4  1  0
  4  5  1  0
  4  6  1  0
  4  7  1  0
  3  8  1  0
  8  9  1  0
  9 10  2  0
 10 11  1  0
 11 12  2  0
 11 13  1  0
 13 14  1  0
 13 15  1  0
 15 16  2  0
 16 17  1  0
 16 18  1  0
 18 19  1  0
 19 20  1  0
 20 21  1  0
 20 22  1  0
 20 23  1  0
 18 24  2  0
 24 25  1  0
 24 26  1  0
 26 27  1  0
 27 28  1  0
 28 29  1  0
 28 30  1  0
 28 31  1  0
 26 32  2  0
 32 33  1  0
  9 34  1  0
 34 35  1  0
 34 36  2  0
 36 37  1  0
 36  2  1  0
 32 15  1  0
M  CHG  1   8  -1
M  END
>  <UniqueID>  (44) 
39

>  <SMILES>  (44) 
COc1cc(NC(=O)/N=c2\cccc(C)[n-]2)cc(OC)c1

>  <Energy>  (44) 
45.89656399443243

>  <Genealogy>  (44) 
COc1cc(NC(=O)N=c2cccc(C)[n-]2)cc(OC)c1 (protonated)
COc1cc(NC(=O)/N=c2\cccc(C)[n-]2)cc(OC)c1 (cis-trans isomerization)
COc1cc(NC(=O)/N=c2\cccc(C)[n-]2)cc(OC)c1 (3D coordinates assigned)
COc1cc(NC(=O)/N=c2\cccc(C)[n-]2)cc(OC)c1 (optimized conformer: 45.89656399443243 kcal/mol)

>  <smiles>  (44) 
COc1cc(NC(=O)N=c2cccc(C)[nH]2)cc(OC)c1

>  <score_type>  (44) 
oracle

>  <origin>  (44) 
adg

>  <m_score__min__energy>  (44) 
-8.5399999999999991

>  <m_primary>  (44) 
energy

$$$$
44:0
     RDKit          3D

 54 57  0  0  0  0  0  0  0  0999 V2000
   68.6640   33.1980   50.8370 C   0  0  0  0  0  0  0  0  0  0  0  0
   67.1970   33.4510   50.9500 C   0  0  0  0  0  0  0  0  0  0  0  0
   66.5750   34.1490   51.9670 C   0  0  0  0  0  0  0  0  0  0  0  0
   65.2500   34.1970   51.5810 C   0  0  0  0  0  0  0  0  0  0  0  0
   64.1680   34.9150   52.3280 C   0  0  0  0  0  0  0  0  0  0  0  0
   65.1150   33.5450   50.4020 N   0  0  0  0  0  0  0  0  0  0  0  0
   63.9260   33.3670   49.6170 C   0  0  0  0  0  0  0  0  0  0  0  0
   62.7270   33.7560   50.1210 N   0  0  0  0  0  0  0  0  0  0  0  0
   61.6060   33.6230   49.4120 N   0  0  0  0  0  0  0  0  0  0  0  0
   61.6180   33.1040   48.1550 C   0  0  0  0  0  0  0  0  0  0  0  0
   60.3850   32.9710   47.4150 N   0  0  0  0  0  0  0  0  0  0  0  0
   60.3230   33.4200   46.0150 C   0  0  0  0  0  0  0  0  0  0  0  0
   58.9270   33.9670   45.7000 C   0  0  0  0  0  0  0  0  0  0  0  0
   57.7990   32.9400   45.9950 C   0  0  0  0  0  0  0  0  0  0  0  0
   57.2450   32.3410   44.7190 C   0  0  0  0  0  0  0  0  0  0  0  0
   57.6050   32.8150   43.6070 O   0  0  0  0  0  0  0  0  0  0  0  0
   56.3760   31.2010   44.7260 N   0  0  0  0  0  0  0  0  0  0  0  0
   56.6260   29.9540   44.0160 C   0  0  0  0  0  0  0  0  0  0  0  0
   57.7140   29.1930   44.7160 C   0  0  0  0  0  0  0  0  0  0  0  0
   59.0620   29.5180   44.4960 C   0  0  0  0  0  0  0  0  0  0  0  0
   60.0730   28.8310   45.1760 C   0  0  0  0  0  0  0  0  0  0  0  0
   59.7440   27.8240   46.0890 C   0  0  0  0  0  0  0  0  0  0  0  0
   60.7250   27.1600   46.7480 F   0  0  0  0  0  0  0  0  0  0  0  0
   58.4030   27.5060   46.3250 C   0  0  0  0  0  0  0  0  0  0  0  0
   57.3900   28.1920   45.6470 C   0  0  0  0  0  0  0  0  0  0  0  0
   58.2460   31.8050   46.9420 C   0  0  0  0  0  0  0  0  0  0  0  0
   59.2170   32.3050   48.0180 C   0  0  0  0  0  0  0  0  0  0  0  0
   62.8530   32.7160   47.6160 C   0  0  0  0  0  0  0  0  0  0  0  0
   63.9840   32.8620   48.3530 N   0  0  0  0  0  0  0  0  0  0  0  0
   66.3020   33.1120   50.0030 N   0  0  0  0  0  0  0  0  0  0  0  0
   69.1016   33.1225   51.8434 H   0  0  0  0  0  0  0  0  0  0  0  0
   68.8330   32.2575   50.2922 H   0  0  0  0  0  0  0  0  0  0  0  0
   69.1383   34.0276   50.2922 H   0  0  0  0  0  0  0  0  0  0  0  0
   67.0305   34.5698   52.8755 H   0  0  0  0  0  0  0  0  0  0  0  0
   64.3341   34.8048   53.4098 H   0  0  0  0  0  0  0  0  0  0  0  0
   64.1843   35.9821   52.0614 H   0  0  0  0  0  0  0  0  0  0  0  0
   63.1911   34.4853   52.0614 H   0  0  0  0  0  0  0  0  0  0  0  0
   61.0693   34.2118   45.8533 H   0  0  0  0  0  0  0  0  0  0  0  0
   60.5337   32.5670   45.3532 H   0  0  0  0  0  0  0  0  0  0  0  0
   58.7545   34.8645   46.3122 H   0  0  0  0  0  0  0  0  0  0  0  0
   58.8949   34.1954   44.6244 H   0  0  0  0  0  0  0  0  0  0  0  0
   57.0089   33.5109   46.5047 H   0  0  0  0  0  0  0  0  0  0  0  0
   55.7069   29.3498   44.0001 H   0  0  0  0  0  0  0  0  0  0  0  0
   56.9362   30.1740   42.9838 H   0  0  0  0  0  0  0  0  0  0  0  0
   59.3242   30.3162   43.7859 H   0  0  0  0  0  0  0  0  0  0  0  0
   61.1279   29.0830   44.9925 H   0  0  0  0  0  0  0  0  0  0  0  0
   58.1444   26.7154   47.0447 H   0  0  0  0  0  0  0  0  0  0  0  0
   56.3358   27.9468   45.8435 H   0  0  0  0  0  0  0  0  0  0  0  0
   57.3576   31.3821   47.4339 H   0  0  0  0  0  0  0  0  0  0  0  0
   58.7666   31.0453   46.3405 H   0  0  0  0  0  0  0  0  0  0  0  0
   58.6932   33.0200   48.6695 H   0  0  0  0  0  0  0  0  0  0  0  0
   59.5707   31.4391   48.5970 H   0  0  0  0  0  0  0  0  0  0  0  0
   62.9053   32.2954   46.6010 H   0  0  0  0  0  0  0  0  0  0  0  0
   64.8990   32.6120   47.9200 H   0  0  0  0  0  0  0  0  0  0  0  0
  1  2  1  0
  2  3  1  0
  3  4  2  0
  4  5  1  0
  4  6  1  0
  6  7  1  0
  7  8  2  0
  8  9  1  0
  9 10  2  0
 10 11  1  0
 11 12  1  0
 12 13  1  0
 13 14  1  0
 14 15  1  0
 15 16  2  0
 15 17  1  0
 17 18  1  0
 18 19  1  0
 19 20  2  0
 20 21  1  0
 21 22  2  0
 22 23  1  0
 22 24  1  0
 24 25  2  0
 14 26  1  0
 26 27  1  0
 10 28  1  0
 28 29  2  0
  6 30  1  0
 30  2  2  0
 29  7  1  0
 27 11  1  0
 25 19  1  0
  1 31  1  0
  1 32  1  0
  1 33  1  0
  3 34  1  0
  5 35  1  0
  5 36  1  0
  5 37  1  0
 12 38  1  0
 12 39  1  0
 13 40  1  0
 13 41  1  0
 14 42  1  0
 18 43  1  0
 18 44  1  0
 20 45  1  0
 21 46  1  0
 24 47  1  0
 25 48  1  0
 26 49  1  0
 26 50  1  0
 27 51  1  0
 27 52  1  0
 28 53  1  0
 29 54  1  0
M  CHG  2  17  -1  29   1
M  END
>  <UniqueID>  (45) 
40

>  <SMILES>  (45) 
Cc1cc(C)n(-c2nnc(N3CCC(C(=O)[N-]Cc4ccc(F)cc4)CC3)c[nH+]2)n1

>  <Energy>  (45) 
92.39684884471143

>  <Genealogy>  (45) 
Cc1cc(C)n(-c2nnc(N3CCC(C(=O)[N-]Cc4ccc(F)cc4)CC3)c[nH+]2)n1 (protonated)
Cc1cc(C)n(-c2nnc(N3CCC(C(=O)[N-]Cc4ccc(F)cc4)CC3)c[nH+]2)n1 (3D coordinates assigned)
Cc1cc(C)n(-c2nnc(N3CCC(C(=O)[N-]Cc4ccc(F)cc4)CC3)c[nH+]2)n1 (nonaromatic ring conformer: 92.39684884471143 kcal/mol)

>  <smiles>  (45) 
Cc1cc(C)n(-c2ncc(N3CCC(C(=O)NCc4ccc(F)cc4)CC3)nn2)n1

>  <score_type>  (45) 
oracle

>  <origin>  (45) 
adg

>  <m_score__min__energy>  (45) 
-9.5800000000000001

>  <m_primary>  (45) 
energy

$$$$
45:0
     RDKit          3D

 35 35  0  0  0  0  0  0  0  0999 V2000
   60.2770   27.4510   45.9530 N   0  0  0  0  0  0  0  0  0  0  0  0
   59.7860   26.2740   46.6640 C   0  0  0  0  0  0  0  0  0  0  0  0
   58.2550   26.2320   46.6390 C   0  0  0  0  0  0  0  0  0  0  0  0
   57.7100   27.3880   45.9310 N   0  0  0  0  0  0  0  0  0  0  0  0
   56.3170   27.5230   45.6250 C   0  0  0  0  0  0  0  0  0  0  0  0
   55.4930   26.6440   46.0000 O   0  0  0  0  0  0  0  0  0  0  0  0
   55.8640   28.6720   44.9020 N   0  0  0  0  0  0  0  0  0  0  0  0
   56.6040   29.2780   43.8010 C   0  0  0  0  0  0  0  0  0  0  0  0
   56.9290   30.7390   44.1140 C   0  0  0  0  0  0  0  0  0  0  0  0
   57.0870   30.9220   45.5580 N   0  0  0  0  0  0  0  0  0  0  0  0
   58.6780   30.4600   46.0880 S   0  0  0  0  0  0  0  0  0  0  0  0
   58.5740   29.5840   47.3050 O   0  0  0  0  0  0  0  0  0  0  0  0
   59.3440   29.6680   44.9970 O   0  0  0  0  0  0  0  0  0  0  0  0
   59.6570   31.8890   46.4320 C   0  0  0  0  0  0  0  0  0  0  0  0
   59.1810   33.1530   46.0530 C   0  0  0  0  0  0  0  0  0  0  0  0
   59.9240   34.3020   46.3390 C   0  0  0  0  0  0  0  0  0  0  0  0
   59.4570   35.5200   45.9700 F   0  0  0  0  0  0  0  0  0  0  0  0
   61.1460   34.1960   47.0080 C   0  0  0  0  0  0  0  0  0  0  0  0
   61.6250   32.9410   47.3940 C   0  0  0  0  0  0  0  0  0  0  0  0
   60.8860   31.7890   47.1110 C   0  0  0  0  0  0  0  0  0  0  0  0
   61.3680   30.5850   47.5080 F   0  0  0  0  0  0  0  0  0  0  0  0
   59.7490   27.5340   45.0550 H   0  0  0  0  0  0  0  0  0  0  0  0
   60.0280   28.2920   46.5230 H   0  0  0  0  0  0  0  0  0  0  0  0
   60.1809   25.3682   46.1807 H   0  0  0  0  0  0  0  0  0  0  0  0
   60.1235   26.3236   47.7098 H   0  0  0  0  0  0  0  0  0  0  0  0
   57.9288   25.3126   46.1308 H   0  0  0  0  0  0  0  0  0  0  0  0
   57.8874   26.2512   47.6756 H   0  0  0  0  0  0  0  0  0  0  0  0
   58.3550   28.1690   45.6780 H   0  0  0  0  0  0  0  0  0  0  0  0
   57.5415   28.7237   43.6465 H   0  0  0  0  0  0  0  0  0  0  0  0
   55.9856   29.2380   42.8922 H   0  0  0  0  0  0  0  0  0  0  0  0
   57.8640   31.0202   43.6073 H   0  0  0  0  0  0  0  0  0  0  0  0
   56.1046   31.3748   43.7590 H   0  0  0  0  0  0  0  0  0  0  0  0
   58.2183   33.2404   45.5281 H   0  0  0  0  0  0  0  0  0  0  0  0
   61.7312   35.1004   47.2309 H   0  0  0  0  0  0  0  0  0  0  0  0
   62.5865   32.8597   47.9221 H   0  0  0  0  0  0  0  0  0  0  0  0
  1  2  1  0
  2  3  1  0
  3  4  1  0
  4  5  1  0
  5  6  2  0
  5  7  1  0
  7  8  1  0
  8  9  1  0
  9 10  1  0
 10 11  1  0
 11 12  2  0
 11 13  2  0
 11 14  1  0
 14 15  2  0
 15 16  1  0
 16 17  1  0
 16 18  2  0
 18 19  1  0
 19 20  2  0
 20 21  1  0
 20 14  1  0
  1 22  1  0
  1 23  1  0
  2 24  1  0
  2 25  1  0
  3 26  1  0
  3 27  1  0
  4 28  1  0
  8 29  1  0
  8 30  1  0
  9 31  1  0
  9 32  1  0
 15 33  1  0
 18 34  1  0
 19 35  1  0
M  CHG  2   7  -1  10  -1
M  END
>  <UniqueID>  (46) 
41

>  <SMILES>  (46) 
NCCNC(=O)[N-]CC[N-]S(=O)(=O)c1cc(F)ccc1F

>  <Energy>  (46) 
23.34791644105736

>  <Genealogy>  (46) 
NCCNC(=O)[N-]CC[N-]S(=O)(=O)c1cc(F)ccc1F (protonated)
NCCNC(=O)[N-]CC[N-]S(=O)(=O)c1cc(F)ccc1F (3D coordinates assigned)
NCCNC(=O)[N-]CC[N-]S(=O)(=O)c1cc(F)ccc1F (optimized conformer: 23.34791644105736 kcal/mol)

>  <smiles>  (46) 
NCCNC(=O)NCCNS(=O)(=O)c1cc(F)ccc1F

>  <score_type>  (46) 
oracle

>  <origin>  (46) 
adg

>  <m_score__min__energy>  (46) 
-8.6600000000000001

>  <m_primary>  (46) 
energy

$$$$
46:0
     RDKit          3D

 45 48  0  0  0  0  0  0  0  0999 V2000
   57.4740   33.3690   44.9560 C   0  0  0  0  0  0  0  0  0  0  0  0
   57.7540   32.4940   43.7420 C   0  0  0  0  0  0  0  0  0  0  0  0
   57.6520   31.0820   44.1010 N   0  0  0  0  0  0  0  0  0  0  0  0
   56.7750   30.1660   43.6210 C   0  0  0  0  0  0  0  0  0  0  0  0
   56.8740   28.9540   44.2340 N   0  0  0  0  0  0  0  0  0  0  0  0
   57.8600   29.1520   45.1320 C   0  0  0  0  0  0  0  0  0  0  0  0
   58.3830   28.2790   46.0840 C   0  0  0  0  0  0  0  0  0  0  0  0
   57.9370   26.9130   46.1890 N   0  0  0  0  0  0  0  0  0  0  0  0
   57.9070   26.2410   47.4930 C   0  0  0  0  0  0  0  0  0  0  0  0
   57.0210   24.9950   47.4230 C   0  0  0  0  0  0  0  0  0  0  0  0
   55.8970   25.2640   46.6120 O   0  0  0  0  0  0  0  0  0  0  0  0
   56.2770   25.3240   45.2460 C   0  0  0  0  0  0  0  0  0  0  0  0
   57.5490   26.1660   44.9880 C   0  0  0  0  0  0  0  0  0  0  0  0
   59.3600   28.7630   46.9140 N   0  0  0  0  0  0  0  0  0  0  0  0
   59.7930   30.0710   46.8360 C   0  0  0  0  0  0  0  0  0  0  0  0
   60.8440   30.5960   47.7350 C   0  0  0  0  0  0  0  0  0  0  0  0
   61.7470   31.5940   47.3280 C   0  0  0  0  0  0  0  0  0  0  0  0
   62.7430   32.0400   48.2120 C   0  0  0  0  0  0  0  0  0  0  0  0
   63.6860   33.1450   47.8040 C   0  0  0  0  0  0  0  0  0  0  0  0
   64.8040   33.1110   48.6170 F   0  0  0  0  0  0  0  0  0  0  0  0
   64.0820   32.9950   46.4870 F   0  0  0  0  0  0  0  0  0  0  0  0
   63.0720   34.3800   47.9330 F   0  0  0  0  0  0  0  0  0  0  0  0
   62.7940   31.4980   49.5060 C   0  0  0  0  0  0  0  0  0  0  0  0
   61.8940   30.4980   49.8690 C   0  0  0  0  0  0  0  0  0  0  0  0
   60.9550   30.0700   48.9860 N   0  0  0  0  0  0  0  0  0  0  0  0
   59.2640   30.9070   45.8890 N   0  0  0  0  0  0  0  0  0  0  0  0
   58.3140   30.4220   45.0600 C   0  0  0  0  0  0  0  0  0  0  0  0
   57.6586   32.7921   45.8742 H   0  0  0  0  0  0  0  0  0  0  0  0
   58.1360   34.2473   44.9355 H   0  0  0  0  0  0  0  0  0  0  0  0
   56.4251   33.6998   44.9355 H   0  0  0  0  0  0  0  0  0  0  0  0
   57.0215   32.7219   42.9536 H   0  0  0  0  0  0  0  0  0  0  0  0
   58.7725   32.6988   43.3804 H   0  0  0  0  0  0  0  0  0  0  0  0
   56.0556   30.3804   42.8170 H   0  0  0  0  0  0  0  0  0  0  0  0
   58.9288   25.9454   47.7734 H   0  0  0  0  0  0  0  0  0  0  0  0
   57.4973   26.9320   48.2445 H   0  0  0  0  0  0  0  0  0  0  0  0
   57.5939   24.1610   46.9914 H   0  0  0  0  0  0  0  0  0  0  0  0
   56.6872   24.7240   48.4355 H   0  0  0  0  0  0  0  0  0  0  0  0
   56.4619   24.2990   44.8922 H   0  0  0  0  0  0  0  0  0  0  0  0
   55.4535   25.8139   44.7057 H   0  0  0  0  0  0  0  0  0  0  0  0
   58.3720   25.4955   44.6998 H   0  0  0  0  0  0  0  0  0  0  0  0
   57.3368   26.8838   44.1820 H   0  0  0  0  0  0  0  0  0  0  0  0
   59.8090   28.1010   47.5840 H   0  0  0  0  0  0  0  0  0  0  0  0
   61.6734   32.0248   46.3186 H   0  0  0  0  0  0  0  0  0  0  0  0
   63.5397   31.8604   50.2288 H   0  0  0  0  0  0  0  0  0  0  0  0
   61.9442   30.0538   50.8741 H   0  0  0  0  0  0  0  0  0  0  0  0
  1  2  1  0
  2  3  1  0
  3  4  1  0
  4  5  2  0
  5  6  1  0
  6  7  2  0
  7  8  1  0
  8  9  1  0
  9 10  1  0
 10 11  1  0
 11 12  1  0
 12 13  1  0
  7 14  1  0
 14 15  2  0
 15 16  1  0
 16 17  2  0
 17 18  1  0
 18 19  1  0
 19 20  1  0
 19 21  1  0
 19 22  1  0
 18 23  2  0
 23 24  1  0
 24 25  2  0
 15 26  1  0
 26 27  2  0
 27  3  1  0
 27  6  1  0
 13  8  1  0
 25 16  1  0
  1 28  1  0
  1 29  1  0
  1 30  1  0
  2 31  1  0
  2 32  1  0
  4 33  1  0
  9 34  1  0
  9 35  1  0
 10 36  1  0
 10 37  1  0
 12 38  1  0
 12 39  1  0
 13 40  1  0
 13 41  1  0
 14 42  1  0
 17 43  1  0
 23 44  1  0
 24 45  1  0
M  CHG  1  14   1
M  END
>  <UniqueID>  (47) 
42

>  <SMILES>  (47) 
CCn1cnc2c(N3CCOCC3)[nH+]c(-c3cc(C(F)(F)F)ccn3)nc21

>  <Energy>  (47) 
99.05194368575056

>  <Genealogy>  (47) 
CCn1cnc2c(N3CCOCC3)[nH+]c(-c3cc(C(F)(F)F)ccn3)nc21 (protonated)
CCn1cnc2c(N3CCOCC3)[nH+]c(-c3cc(C(F)(F)F)ccn3)nc21 (3D coordinates assigned)
CCn1cnc2c(N3CCOCC3)[nH+]c(-c3cc(C(F)(F)F)ccn3)nc21 (nonaromatic ring conformer: 99.05194368575056 kcal/mol)

>  <smiles>  (47) 
CCn1cnc2c(N3CCOCC3)nc(-c3cc(C(F)(F)F)ccn3)nc21

>  <score_type>  (47) 
oracle

>  <origin>  (47) 
adg

>  <m_score__min__energy>  (47) 
-5.3200000000000003

>  <m_primary>  (47) 
energy

$$$$
47:0
     RDKit          3D

 30 32  0  0  0  0  0  0  0  0999 V2000
   57.8214   32.2606   41.5502 H   0  0  0  0  0  0  0  0  0  0  0  0
   57.7860   32.0540   42.6300 C   0  0  0  0  0  0  0  0  0  0  0  0
   58.3830   32.9400   43.5300 C   0  0  0  0  0  0  0  0  0  0  0  0
   58.8807   33.8479   43.1584 H   0  0  0  0  0  0  0  0  0  0  0  0
   58.3490   32.6750   44.9010 C   0  0  0  0  0  0  0  0  0  0  0  0
   58.9380   33.5300   45.7730 F   0  0  0  0  0  0  0  0  0  0  0  0
   57.7090   31.5250   45.3750 C   0  0  0  0  0  0  0  0  0  0  0  0
   57.6953   31.3124   46.4542 H   0  0  0  0  0  0  0  0  0  0  0  0
   57.0830   30.6390   44.4800 C   0  0  0  0  0  0  0  0  0  0  0  0
   56.4010   29.4190   44.9710 C   0  0  0  0  0  0  0  0  0  0  0  0
   55.1490   29.3320   44.8610 O   0  0  0  0  0  0  0  0  0  0  0  0
   57.1160   28.3110   45.5420 N   0  0  0  0  0  0  0  0  0  0  0  0
   56.7000   27.0810   45.5680 C   0  0  0  0  0  0  0  0  0  0  0  0
   55.5420   26.7060   46.1360 N   0  0  0  0  0  0  0  0  0  0  0  0
   55.4690   25.3930   45.9730 N   0  0  0  0  0  0  0  0  0  0  0  0
   56.5870   25.0240   45.3130 C   0  0  0  0  0  0  0  0  0  0  0  0
   56.9090   23.6420   44.9130 C   0  0  0  0  0  0  0  0  0  0  0  0
   57.4970   22.7620   45.8330 C   0  0  0  0  0  0  0  0  0  0  0  0
   57.7167   23.0971   46.8574 H   0  0  0  0  0  0  0  0  0  0  0  0
   57.8020   21.4560   45.4390 C   0  0  0  0  0  0  0  0  0  0  0  0
   58.2643   20.7610   46.1554 H   0  0  0  0  0  0  0  0  0  0  0  0
   57.5290   21.0420   44.1730 N   0  0  0  0  0  0  0  0  0  0  0  0
   57.7630   20.0620   43.8940 H   0  0  0  0  0  0  0  0  0  0  0  0
   56.9600   21.8760   43.2600 C   0  0  0  0  0  0  0  0  0  0  0  0
   56.7508   21.5149   42.2422 H   0  0  0  0  0  0  0  0  0  0  0  0
   56.6410   23.1900   43.6130 C   0  0  0  0  0  0  0  0  0  0  0  0
   56.1826   23.8654   42.8757 H   0  0  0  0  0  0  0  0  0  0  0  0
   57.3530   26.0610   45.0670 O   0  0  0  0  0  0  0  0  0  0  0  0
   57.1430   30.9040   43.1010 C   0  0  0  0  0  0  0  0  0  0  0  0
   56.6822   30.2039   42.3886 H   0  0  0  0  0  0  0  0  0  0  0  0
  1  2  1  0
  2  3  2  0
  3  4  1  0
  3  5  1  0
  5  6  1  0
  5  7  2  0
  7  8  1  0
  7  9  1  0
  9 10  1  0
 10 11  2  0
 10 12  1  0
 12 13  2  0
 13 14  1  0
 14 15  1  0
 15 16  2  0
 16 17  1  0
 17 18  2  0
 18 19  1  0
 18 20  1  0
 20 21  1  0
 20 22  2  0
 22 23  1  0
 22 24  1  0
 24 25  1  0
 24 26  2  0
 26 27  1  0
 16 28  1  0
  9 29  2  0
 29 30  1  0
 29  2  1  0
 28 13  1  0
 26 17  1  0
M  CHG  2  14  -1  22   1
M  END
>  <UniqueID>  (48) 
43

>  <SMILES>  (48) 
O=C(/N=c1/[n-]nc(-c2cc[nH+]cc2)o1)c1cccc(F)c1

>  <Energy>  (48) 
74.15856513301495

>  <Genealogy>  (48) 
O=C(N=c1[n-]nc(-c2cc[nH+]cc2)o1)c1cccc(F)c1 (protonated)
O=C(/N=c1/[n-]nc(-c2cc[nH+]cc2)o1)c1cccc(F)c1 (cis-trans isomerization)
O=C(/N=c1/[n-]nc(-c2cc[nH+]cc2)o1)c1cccc(F)c1 (3D coordinates assigned)
O=C(/N=c1/[n-]nc(-c2cc[nH+]cc2)o1)c1cccc(F)c1 (optimized conformer: 74.15856513301495 kcal/mol)

>  <smiles>  (48) 
O=C(N=c1[nH]nc(-c2ccncc2)o1)c1cccc(F)c1

>  <score_type>  (48) 
oracle

>  <origin>  (48) 
adg

>  <m_score__min__energy>  (48) 
-8.9800000000000004

>  <m_primary>  (48) 
energy

$$$$
