0:0
     RDKit          3D

 54 56  0  0  0  0  0  0  0  0999 V2000
   59.0130   33.6740   46.6410 C   0  0  0  0  0  0  0  0  0  0  0  0
   57.7310   32.8760   46.8550 C   0  0  0  0  0  0  0  0  0  0  0  0
   57.7150   31.7130   46.0250 O   0  0  0  0  0  0  0  0  0  0  0  0
   57.5690   31.7010   44.6260 C   0  0  0  0  0  0  0  0  0  0  0  0
   58.0450   32.7470   43.8120 C   0  0  0  0  0  0  0  0  0  0  0  0
   57.8910   32.6910   42.4250 C   0  0  0  0  0  0  0  0  0  0  0  0
   57.2590   31.5970   41.8340 C   0  0  0  0  0  0  0  0  0  0  0  0
   56.7820   30.5540   42.6270 C   0  0  0  0  0  0  0  0  0  0  0  0
   56.9390   30.5930   44.0210 C   0  0  0  0  0  0  0  0  0  0  0  0
   56.3960   29.4990   44.8500 C   0  0  0  0  0  0  0  0  0  0  0  0
   55.1490   29.3490   44.9300 O   0  0  0  0  0  0  0  0  0  0  0  0
   57.2460   28.6150   45.5910 N   0  0  0  0  0  0  0  0  0  0  0  0
   58.5010   28.0620   45.0930 C   0  0  0  0  0  0  0  0  0  0  0  0
   59.3820   27.7080   46.2520 C   0  0  0  0  0  0  0  0  0  0  0  0
   60.2940   26.8560   46.0720 O   0  0  0  0  0  0  0  0  0  0  0  0
   59.2240   28.3330   47.5440 N   0  0  0  0  0  0  0  0  0  0  0  0
   58.6850   29.6880   47.7030 C   0  0  0  0  0  0  0  0  0  0  0  0
   59.7700   30.5910   48.2970 C   0  0  0  0  0  0  0  0  0  0  0  0
   60.2960   30.0140   49.5560 N   0  0  0  0  0  0  0  0  0  0  0  0
   61.3130   30.9170   50.1330 C   0  0  0  0  0  0  0  0  0  0  0  0
   61.8380   31.8640   49.0860 C   0  0  0  0  0  0  0  0  0  0  0  0
   62.7680   31.4280   48.1270 C   0  0  0  0  0  0  0  0  0  0  0  0
   63.2700   32.3210   47.1770 C   0  0  0  0  0  0  0  0  0  0  0  0
   62.8520   33.6560   47.1800 C   0  0  0  0  0  0  0  0  0  0  0  0
   61.9310   34.0990   48.1330 C   0  0  0  0  0  0  0  0  0  0  0  0
   61.4270   33.2090   49.0850 C   0  0  0  0  0  0  0  0  0  0  0  0
   60.8700   28.6690   49.3110 C   0  0  0  0  0  0  0  0  0  0  0  0
   59.8040   27.7290   48.7470 C   0  0  0  0  0  0  0  0  0  0  0  0
   59.4447   33.9427   47.6164 H   0  0  0  0  0  0  0  0  0  0  0  0
   59.7341   33.0649   46.0761 H   0  0  0  0  0  0  0  0  0  0  0  0
   58.7848   34.5899   46.0761 H   0  0  0  0  0  0  0  0  0  0  0  0
   57.6692   32.5680   47.9092 H   0  0  0  0  0  0  0  0  0  0  0  0
   56.8717   33.5102   46.5914 H   0  0  0  0  0  0  0  0  0  0  0  0
   58.5416   33.6142   44.2718 H   0  0  0  0  0  0  0  0  0  0  0  0
   58.2690   33.5115   41.7973 H   0  0  0  0  0  0  0  0  0  0  0  0
   57.1368   31.5570   40.7415 H   0  0  0  0  0  0  0  0  0  0  0  0
   56.2797   29.6956   42.1572 H   0  0  0  0  0  0  0  0  0  0  0  0
   58.2946   27.1592   44.4994 H   0  0  0  0  0  0  0  0  0  0  0  0
   59.0062   28.8070   44.4608 H   0  0  0  0  0  0  0  0  0  0  0  0
   58.3760   30.0792   46.7224 H   0  0  0  0  0  0  0  0  0  0  0  0
   57.8135   29.6644   48.3738 H   0  0  0  0  0  0  0  0  0  0  0  0
   60.5927   30.6915   47.5738 H   0  0  0  0  0  0  0  0  0  0  0  0
   59.3320   31.5764   48.5140 H   0  0  0  0  0  0  0  0  0  0  0  0
   60.8592   31.4972   50.9500 H   0  0  0  0  0  0  0  0  0  0  0  0
   62.1487   30.3117   50.5140 H   0  0  0  0  0  0  0  0  0  0  0  0
   63.1019   30.3799   48.1243 H   0  0  0  0  0  0  0  0  0  0  0  0
   63.9948   31.9739   46.4258 H   0  0  0  0  0  0  0  0  0  0  0  0
   63.2487   34.3577   46.4315 H   0  0  0  0  0  0  0  0  0  0  0  0
   61.6026   35.1488   48.1337 H   0  0  0  0  0  0  0  0  0  0  0  0
   60.7057   33.5618   49.8368 H   0  0  0  0  0  0  0  0  0  0  0  0
   61.6966   28.7535   48.5902 H   0  0  0  0  0  0  0  0  0  0  0  0
   61.2389   28.2597   50.2631 H   0  0  0  0  0  0  0  0  0  0  0  0
   60.2628   26.7628   48.4901 H   0  0  0  0  0  0  0  0  0  0  0  0
   59.0168   27.5663   49.4979 H   0  0  0  0  0  0  0  0  0  0  0  0
  1  2  1  0
  2  3  1  0
  3  4  1  0
  4  5  2  0
  5  6  1  0
  6  7  2  0
  7  8  1  0
  8  9  2  0
  9 10  1  0
 10 11  2  0
 10 12  1  0
 12 13  1  0
 13 14  1  0
 14 15  2  0
 14 16  1  0
 16 17  1  0
 17 18  1  0
 18 19  1  0
 19 20  1  0
 20 21  1  0
 21 22  2  0
 22 23  1  0
 23 24  2  0
 24 25  1  0
 25 26  2  0
 19 27  1  0
 27 28  1  0
  9  4  1  0
 28 16  1  0
 26 21  1  0
  1 29  1  0
  1 30  1  0
  1 31  1  0
  2 32  1  0
  2 33  1  0
  5 34  1  0
  6 35  1  0
  7 36  1  0
  8 37  1  0
 13 38  1  0
 13 39  1  0
 17 40  1  0
 17 41  1  0
 18 42  1  0
 18 43  1  0
 20 44  1  0
 20 45  1  0
 22 46  1  0
 23 47  1  0
 24 48  1  0
 25 49  1  0
 26 50  1  0
 27 51  1  0
 27 52  1  0
 28 53  1  0
 28 54  1  0
M  CHG  1  12  -1
M  END
>  <UniqueID>  (1) 
1

>  <SMILES>  (1) 
CCOc1ccccc1C(=O)[N-]CC(=O)N1CCN(Cc2ccccc2)CC1

>  <Energy>  (1) 
58.709372870051304

>  <Genealogy>  (1) 
CCOc1ccccc1C(=O)[N-]CC(=O)N1CCN(Cc2ccccc2)CC1 (protonated)
CCOc1ccccc1C(=O)[N-]CC(=O)N1CCN(Cc2ccccc2)CC1 (3D coordinates assigned)
CCOc1ccccc1C(=O)[N-]CC(=O)N1CCN(Cc2ccccc2)CC1 (nonaromatic ring conformer: 58.709372870051304 kcal/mol)

>  <smiles>  (1) 
CCOc1ccccc1C(=O)NCC(=O)N1CCN(Cc2ccccc2)CC1

>  <score_type>  (1) 
oracle

>  <origin>  (1) 
adg

>  <m_score__min__energy>  (1) 
-11.24

>  <m_primary>  (1) 
energy

$$$$
1:0
     RDKit          3D

 61 63  0  0  0  0  0  0  0  0999 V2000
   57.9460   33.0320   52.1430 C   0  0  0  0  0  0  0  0  0  0  0  0
   59.2930   33.6110   51.6960 C   0  0  0  0  0  0  0  0  0  0  0  0
   59.7350   33.0880   50.3800 N   0  0  2  0  0  0  0  0  0  0  0  0
   59.9930   34.2060   49.4500 C   0  0  0  0  0  0  0  0  0  0  0  0
   58.8310   32.0680   49.7810 C   0  0  0  0  0  0  0  0  0  0  0  0
   59.2830   30.6050   49.9580 C   0  0  0  0  0  0  0  0  0  0  0  0
   60.4250   30.5500   50.7870 O   0  0  0  0  0  0  0  0  0  0  0  0
   61.4950   29.9580   50.0840 C   0  0  0  0  0  0  0  0  0  0  0  0
   62.7090   30.8880   50.1440 C   0  0  0  0  0  0  0  0  0  0  0  0
   62.4260   32.1430   49.5520 O   0  0  0  0  0  0  0  0  0  0  0  0
   63.1760   32.3460   48.3660 C   0  0  0  0  0  0  0  0  0  0  0  0
   62.2860   32.0700   47.1550 C   0  0  0  0  0  0  0  0  0  0  0  0
   61.0190   31.4650   47.5640 N   0  0  0  0  0  0  0  0  0  0  0  0
   60.0080   31.1740   46.5880 C   0  0  0  0  0  0  0  0  0  0  0  0
   59.2730   32.2180   46.0030 C   0  0  0  0  0  0  0  0  0  0  0  0
   59.5160   33.5610   46.3630 C   0  0  0  0  0  0  0  0  0  0  0  0
   58.7450   34.5910   45.8290 C   0  0  0  0  0  0  0  0  0  0  0  0
   57.7180   34.3020   44.9380 C   0  0  0  0  0  0  0  0  0  0  0  0
   57.4740   32.9830   44.5520 C   0  0  0  0  0  0  0  0  0  0  0  0
   58.2670   31.9140   45.0470 C   0  0  0  0  0  0  0  0  0  0  0  0
   58.0710   30.6070   44.6360 N   0  0  0  0  0  0  0  0  0  0  0  0
   57.2320   30.3260   43.4500 C   0  0  0  0  0  0  0  0  0  0  0  0
   58.6860   29.5690   45.3140 C   0  0  0  0  0  0  0  0  0  0  0  0
   58.3200   28.2150   45.0980 C   0  0  0  0  0  0  0  0  0  0  0  0
   58.9850   27.1770   45.7530 C   0  0  0  0  0  0  0  0  0  0  0  0
   60.0180   27.4550   46.6400 C   0  0  0  0  0  0  0  0  0  0  0  0
   60.3740   28.7740   46.9020 C   0  0  0  0  0  0  0  0  0  0  0  0
   59.7000   29.8420   46.2690 C   0  0  0  0  0  0  0  0  0  0  0  0
   57.9016   33.0129   53.2419 H   0  0  0  0  0  0  0  0  0  0  0  0
   57.1302   33.6589   51.7539 H   0  0  0  0  0  0  0  0  0  0  0  0
   57.8395   32.0086   51.7539 H   0  0  0  0  0  0  0  0  0  0  0  0
   59.1996   34.7048   51.6262 H   0  0  0  0  0  0  0  0  0  0  0  0
   60.0454   33.3125   52.4408 H   0  0  0  0  0  0  0  0  0  0  0  0
   60.6610   32.6160   50.5260 H   0  0  0  0  0  0  0  0  0  0  0  0
   60.2039   35.1199   50.0248 H   0  0  0  0  0  0  0  0  0  0  0  0
   60.8588   33.9634   48.8163 H   0  0  0  0  0  0  0  0  0  0  0  0
   59.1085   34.3674   48.8163 H   0  0  0  0  0  0  0  0  0  0  0  0
   57.8401   32.1766   50.2460 H   0  0  0  0  0  0  0  0  0  0  0  0
   58.8315   32.2585   48.6976 H   0  0  0  0  0  0  0  0  0  0  0  0
   58.4696   30.0256   50.4192 H   0  0  0  0  0  0  0  0  0  0  0  0
   59.5304   30.1815   48.9734 H   0  0  0  0  0  0  0  0  0  0  0  0
   61.7482   28.9915   50.5442 H   0  0  0  0  0  0  0  0  0  0  0  0
   61.2045   29.7949   49.0357 H   0  0  0  0  0  0  0  0  0  0  0  0
   62.9896   31.0434   51.1962 H   0  0  0  0  0  0  0  0  0  0  0  0
   63.5332   30.4192   49.5864 H   0  0  0  0  0  0  0  0  0  0  0  0
   63.5337   33.3856   48.3304 H   0  0  0  0  0  0  0  0  0  0  0  0
   64.0390   31.6641   48.3533 H   0  0  0  0  0  0  0  0  0  0  0  0
   62.0812   33.0177   46.6354 H   0  0  0  0  0  0  0  0  0  0  0  0
   62.8095   31.3702   46.4870 H   0  0  0  0  0  0  0  0  0  0  0  0
   60.7700   31.3720   48.5750 H   0  0  0  0  0  0  0  0  0  0  0  0
   60.3227   33.7968   47.0727 H   0  0  0  0  0  0  0  0  0  0  0  0
   58.9491   35.6340   46.1127 H   0  0  0  0  0  0  0  0  0  0  0  0
   57.0958   35.1151   44.5359 H   0  0  0  0  0  0  0  0  0  0  0  0
   56.6531   32.7678   43.8521 H   0  0  0  0  0  0  0  0  0  0  0  0
   56.2359   29.9924   43.7763 H   0  0  0  0  0  0  0  0  0  0  0  0
   57.1330   31.2400   42.8460 H   0  0  0  0  0  0  0  0  0  0  0  0
   57.7034   29.5367   42.8460 H   0  0  0  0  0  0  0  0  0  0  0  0
   57.4997   27.9798   44.4038 H   0  0  0  0  0  0  0  0  0  0  0  0
   58.6899   26.1339   45.5661 H   0  0  0  0  0  0  0  0  0  0  0  0
   60.5543   26.6320   47.1350 H   0  0  0  0  0  0  0  0  0  0  0  0
   61.1888   28.9876   47.6094 H   0  0  0  0  0  0  0  0  0  0  0  0
  1  2  1  0
  2  3  1  0
  3  4  1  0
  3  5  1  0
  5  6  1  0
  6  7  1  0
  7  8  1  0
  8  9  1  0
  9 10  1  0
 10 11  1  0
 11 12  1  0
 12 13  1  0
 13 14  1  0
 14 15  2  0
 15 16  1  0
 16 17  2  0
 17 18  1  0
 18 19  2  0
 19 20  1  0
 20 21  2  0
 21 22  1  0
 21 23  1  0
 23 24  2  0
 24 25  1  0
 25 26  2  0
 26 27  1  0
 27 28  2  0
 28 14  1  0
 20 15  1  0
 28 23  1  0
  1 29  1  0
  1 30  1  0
  1 31  1  0
  2 32  1  0
  2 33  1  0
  3 34  1  1
  4 35  1  0
  4 36  1  0
  4 37  1  0
  5 38  1  0
  5 39  1  0
  6 40  1  0
  6 41  1  0
  8 42  1  0
  8 43  1  0
  9 44  1  0
  9 45  1  0
 11 46  1  0
 11 47  1  0
 12 48  1  0
 12 49  1  0
 13 50  1  0
 16 51  1  0
 17 52  1  0
 18 53  1  0
 19 54  1  0
 22 55  1  0
 22 56  1  0
 22 57  1  0
 24 58  1  0
 25 59  1  0
 26 60  1  0
 27 61  1  0
M  CHG  2   3   1  21   1
M  END
>  <UniqueID>  (2) 
2

>  <SMILES>  (2) 
CC[N@H+](C)CCOCCOCCNc1c2ccccc2[n+](C)c2ccccc12

>  <Energy>  (2) 
90.6472287771988

>  <Genealogy>  (2) 
CC[NH+](C)CCOCCOCCNc1c2ccccc2[n+](C)c2ccccc12 (protonated)
CC[N@H+](C)CCOCCOCCNc1c2ccccc2[n+](C)c2ccccc12 (chirality)
CC[N@H+](C)CCOCCOCCNc1c2ccccc2[n+](C)c2ccccc12 (3D coordinates assigned)
CC[N@H+](C)CCOCCOCCNc1c2ccccc2[n+](C)c2ccccc12 (optimized conformer: 90.6472287771988 kcal/mol)

>  <smiles>  (2) 
CCN(C)CCOCCOCCNc1c2ccccc2[n+](C)c2ccccc12

>  <score_type>  (2) 
oracle

>  <origin>  (2) 
adg

>  <m_score__min__energy>  (2) 
-3.5600000000000001

>  <m_primary>  (2) 
energy

$$$$
2:0
     RDKit          3D

 49 50  0  0  0  0  0  0  0  0999 V2000
   65.8580   32.7220   49.8300 C   0  0  0  0  0  0  0  0  0  0  0  0
   64.3840   33.1010   49.6370 C   0  0  0  0  0  0  0  0  0  0  0  0
   63.8720   32.6960   48.2990 N   0  0  0  0  0  0  0  0  0  0  0  0
   63.7540   33.8840   47.4100 C   0  0  0  0  0  0  0  0  0  0  0  0
   62.6050   33.7440   46.4040 C   0  0  0  0  0  0  0  0  0  0  0  0
   62.5510   32.0190   48.4370 C   0  0  0  0  0  0  0  0  0  0  0  0
   61.6640   32.6260   49.5480 C   0  0  0  0  0  0  0  0  0  0  0  0
   60.1750   32.7990   49.1210 C   0  0  2  0  0  0  0  0  0  0  0  0
   59.9030   34.2240   48.5840 C   0  0  0  0  0  0  0  0  0  0  0  0
   59.1580   34.1850   47.2740 C   0  0  0  0  0  0  0  0  0  0  0  0
   59.6050   34.9420   46.1780 C   0  0  0  0  0  0  0  0  0  0  0  0
   58.8830   34.9380   44.9800 C   0  0  0  0  0  0  0  0  0  0  0  0
   57.7120   34.1840   44.8700 C   0  0  0  0  0  0  0  0  0  0  0  0
   57.2570   33.4350   45.9590 C   0  0  0  0  0  0  0  0  0  0  0  0
   57.9740   33.4370   47.1590 C   0  0  0  0  0  0  0  0  0  0  0  0
   59.2280   32.4730   50.2650 C   0  0  0  0  0  0  0  0  0  0  0  0
   59.0100   33.3950   51.3080 C   0  0  0  0  0  0  0  0  0  0  0  0
   58.1100   33.1010   52.3360 C   0  0  0  0  0  0  0  0  0  0  0  0
   57.4160   31.8880   52.3350 C   0  0  0  0  0  0  0  0  0  0  0  0
   56.5430   31.6050   53.3310 F   0  0  0  0  0  0  0  0  0  0  0  0
   57.6220   30.9670   51.3030 C   0  0  0  0  0  0  0  0  0  0  0  0
   58.5210   31.2570   50.2730 C   0  0  0  0  0  0  0  0  0  0  0  0
   66.0839   32.6639   50.9050 H   0  0  0  0  0  0  0  0  0  0  0  0
   66.0498   31.7453   49.3617 H   0  0  0  0  0  0  0  0  0  0  0  0
   66.4971   33.4850   49.3617 H   0  0  0  0  0  0  0  0  0  0  0  0
   63.7848   32.6010   50.4122 H   0  0  0  0  0  0  0  0  0  0  0  0
   64.3029   34.1953   49.7136 H   0  0  0  0  0  0  0  0  0  0  0  0
   64.5580   32.0310   47.8760 H   0  0  0  0  0  0  0  0  0  0  0  0
   63.5747   34.7743   48.0307 H   0  0  0  0  0  0  0  0  0  0  0  0
   64.6912   33.9741   46.8412 H   0  0  0  0  0  0  0  0  0  0  0  0
   61.6550   33.6282   46.9462 H   0  0  0  0  0  0  0  0  0  0  0  0
   62.5593   34.6432   45.7721 H   0  0  0  0  0  0  0  0  0  0  0  0
   62.7766   32.8601   45.7721 H   0  0  0  0  0  0  0  0  0  0  0  0
   62.0155   32.1006   47.4796 H   0  0  0  0  0  0  0  0  0  0  0  0
   62.7491   30.9731   48.7143 H   0  0  0  0  0  0  0  0  0  0  0  0
   61.7011   31.9637   50.4255 H   0  0  0  0  0  0  0  0  0  0  0  0
   62.0586   33.6287   49.7692 H   0  0  0  0  0  0  0  0  0  0  0  0
   59.9871   32.0843   48.3062 H   0  0  0  0  0  0  0  0  0  0  0  0
   59.3016   34.7757   49.3215 H   0  0  0  0  0  0  0  0  0  0  0  0
   60.8697   34.7219   48.4179 H   0  0  0  0  0  0  0  0  0  0  0  0
   60.5249   35.5392   46.2623 H   0  0  0  0  0  0  0  0  0  0  0  0
   59.2378   35.5295   44.1231 H   0  0  0  0  0  0  0  0  0  0  0  0
   57.1477   34.1797   43.9258 H   0  0  0  0  0  0  0  0  0  0  0  0
   56.3338   32.8434   45.8716 H   0  0  0  0  0  0  0  0  0  0  0  0
   57.6102   32.8512   48.0160 H   0  0  0  0  0  0  0  0  0  0  0  0
   59.5517   34.3524   51.3131 H   0  0  0  0  0  0  0  0  0  0  0  0
   57.9476   33.8257   53.1474 H   0  0  0  0  0  0  0  0  0  0  0  0
   57.0754   30.0124   51.3019 H   0  0  0  0  0  0  0  0  0  0  0  0
   58.6768   30.5293   49.4630 H   0  0  0  0  0  0  0  0  0  0  0  0
  1  2  1  0
  2  3  1  0
  3  4  1  0
  4  5  1  0
  3  6  1  0
  6  7  1  0
  7  8  1  0
  8  9  1  0
  9 10  1  0
 10 11  2  0
 11 12  1  0
 12 13  2  0
 13 14  1  0
 14 15  2  0
  8 16  1  0
 16 17  2  0
 17 18  1  0
 18 19  2  0
 19 20  1  0
 19 21  1  0
 21 22  2  0
 15 10  1  0
 22 16  1  0
  1 23  1  0
  1 24  1  0
  1 25  1  0
  2 26  1  0
  2 27  1  0
  3 28  1  0
  4 29  1  0
  4 30  1  0
  5 31  1  0
  5 32  1  0
  5 33  1  0
  6 34  1  0
  6 35  1  0
  7 36  1  0
  7 37  1  0
  8 38  1  6
  9 39  1  0
  9 40  1  0
 11 41  1  0
 12 42  1  0
 13 43  1  0
 14 44  1  0
 15 45  1  0
 17 46  1  0
 18 47  1  0
 21 48  1  0
 22 49  1  0
M  CHG  1   3   1
M  END
>  <UniqueID>  (3) 
3

>  <SMILES>  (3) 
CC[NH+](CC)CC[C@H](Cc1ccccc1)c1ccc(F)cc1

>  <Energy>  (3) 
49.116520930315254

>  <Genealogy>  (3) 
CC[NH+](CC)CCC(Cc1ccccc1)c1ccc(F)cc1 (protonated)
CC[NH+](CC)CC[C@H](Cc1ccccc1)c1ccc(F)cc1 (chirality)
CC[NH+](CC)CC[C@H](Cc1ccccc1)c1ccc(F)cc1 (3D coordinates assigned)
CC[NH+](CC)CC[C@H](Cc1ccccc1)c1ccc(F)cc1 (optimized conformer: 49.116520930315254 kcal/mol)

>  <smiles>  (3) 
CCN(CC)CCC(Cc1ccccc1)c1ccc(F)cc1

>  <score_type>  (3) 
oracle

>  <origin>  (3) 
adg

>  <m_score__min__energy>  (3) 
-5.5199999999999996

>  <m_primary>  (3) 
energy

$$$$
3:0
     RDKit          3D

 50 49  0  0  0  0  0  0  0  0999 V2000
   60.5144   31.7966   47.2985 H   0  0  0  0  0  0  0  0  0  0  0  0
   61.0560   32.7540   47.3070 C   0  0  0  0  0  0  0  0  0  0  0  0
   62.3980   32.7360   47.1630 C   0  0  0  0  0  0  0  0  0  0  0  0
   63.0610   33.8590   46.4090 C   0  0  0  0  0  0  0  0  0  0  0  0
   63.4863   34.5794   47.1233 H   0  0  0  0  0  0  0  0  0  0  0  0
   63.8638   33.4522   45.7766 H   0  0  0  0  0  0  0  0  0  0  0  0
   62.3170   34.3655   45.7766 H   0  0  0  0  0  0  0  0  0  0  0  0
   63.2390   31.6220   47.7420 C   0  0  0  0  0  0  0  0  0  0  0  0
   63.2036   31.6688   48.8404 H   0  0  0  0  0  0  0  0  0  0  0  0
   62.8460   30.6520   47.4035 H   0  0  0  0  0  0  0  0  0  0  0  0
   64.2796   31.7343   47.4035 H   0  0  0  0  0  0  0  0  0  0  0  0
   60.2650   34.0270   47.4790 C   0  0  0  0  0  0  0  0  0  0  0  0
   60.6226   34.7714   46.7524 H   0  0  0  0  0  0  0  0  0  0  0  0
   60.4076   34.3865   48.5088 H   0  0  0  0  0  0  0  0  0  0  0  0
   58.7670   33.7900   47.2540 C   0  0  0  0  0  0  0  0  0  0  0  0
   58.1943   34.5474   47.8093 H   0  0  0  0  0  0  0  0  0  0  0  0
   58.5115   32.7811   47.6100 H   0  0  0  0  0  0  0  0  0  0  0  0
   58.4240   33.8880   45.7820 C   0  0  0  0  0  0  0  0  0  0  0  0
   57.3650   33.1960   45.3090 C   0  0  0  0  0  0  0  0  0  0  0  0
   56.3618   33.4770   45.6621 H   0  0  0  0  0  0  0  0  0  0  0  0
   57.4800   32.0620   44.3260 C   0  0  0  0  0  0  0  0  0  0  0  0
   58.5407   31.8739   44.1036 H   0  0  0  0  0  0  0  0  0  0  0  0
   56.9549   32.3245   43.3958 H   0  0  0  0  0  0  0  0  0  0  0  0
   56.8990   30.8960   44.8890 O   0  0  0  0  0  0  0  0  0  0  0  0
   57.2360   29.7320   44.1560 C   0  0  0  0  0  0  0  0  0  0  0  0
   57.3402   29.9996   43.0942 H   0  0  0  0  0  0  0  0  0  0  0  0
   56.4339   28.9942   44.3057 H   0  0  0  0  0  0  0  0  0  0  0  0
   58.5590   29.1000   44.6420 C   0  0  0  0  0  0  0  0  0  0  0  0
   59.3103   29.2173   43.8472 H   0  0  0  0  0  0  0  0  0  0  0  0
   58.3422   28.0458   44.8695 H   0  0  0  0  0  0  0  0  0  0  0  0
   59.1000   29.7060   45.8900 N   0  0  0  0  0  0  0  0  0  0  0  0
   58.8380   30.7190   45.8800 H   0  0  0  0  0  0  0  0  0  0  0  0
   60.5860   29.6580   45.8520 C   0  0  0  0  0  0  0  0  0  0  0  0
   60.9539   29.4377   46.8650 H   0  0  0  0  0  0  0  0  0  0  0  0
   60.9336   30.6358   45.4873 H   0  0  0  0  0  0  0  0  0  0  0  0
   61.1360   28.5950   44.8930 C   0  0  0  0  0  0  0  0  0  0  0  0
   61.5655   27.7649   45.4731 H   0  0  0  0  0  0  0  0  0  0  0  0
   60.3208   28.2161   44.2591 H   0  0  0  0  0  0  0  0  0  0  0  0
   61.9162   29.0416   44.2591 H   0  0  0  0  0  0  0  0  0  0  0  0
   58.5190   29.1270   47.1330 C   0  0  0  0  0  0  0  0  0  0  0  0
   57.4313   29.2890   47.1088 H   0  0  0  0  0  0  0  0  0  0  0  0
   58.8025   28.0642   47.1385 H   0  0  0  0  0  0  0  0  0  0  0  0
   59.0600   29.7220   48.4410 C   0  0  0  0  0  0  0  0  0  0  0  0
   58.5948   29.2104   49.2965 H   0  0  0  0  0  0  0  0  0  0  0  0
   60.1509   29.5867   48.4818 H   0  0  0  0  0  0  0  0  0  0  0  0
   58.8218   30.7951   48.4818 H   0  0  0  0  0  0  0  0  0  0  0  0
   59.2720   34.7490   44.8750 C   0  0  0  0  0  0  0  0  0  0  0  0
   59.9146   35.4015   45.4844 H   0  0  0  0  0  0  0  0  0  0  0  0
   59.8993   34.1059   44.2402 H   0  0  0  0  0  0  0  0  0  0  0  0
   58.6195   35.3664   44.2402 H   0  0  0  0  0  0  0  0  0  0  0  0
  1  2  1  0
  2  3  2  3
  3  4  1  0
  4  5  1  0
  4  6  1  0
  4  7  1  0
  3  8  1  0
  8  9  1  0
  8 10  1  0
  8 11  1  0
  2 12  1  0
 12 13  1  0
 12 14  1  0
 12 15  1  0
 15 16  1  0
 15 17  1  0
 15 18  1  0
 18 19  2  0
 19 20  1  0
 19 21  1  0
 21 22  1  0
 21 23  1  0
 21 24  1  0
 24 25  1  0
 25 26  1  0
 25 27  1  0
 25 28  1  0
 28 29  1  0
 28 30  1  0
 28 31  1  0
 31 32  1  0
 31 33  1  0
 33 34  1  0
 33 35  1  0
 33 36  1  0
 36 37  1  0
 36 38  1  0
 36 39  1  0
 31 40  1  0
 40 41  1  0
 40 42  1  0
 40 43  1  0
 43 44  1  0
 43 45  1  0
 43 46  1  0
 18 47  1  0
 47 48  1  0
 47 49  1  0
 47 50  1  0
M  CHG  1  31   1
M  END
>  <UniqueID>  (4) 
4

>  <SMILES>  (4) 
CC[NH+](CC)CCOC/C=C(\C)CCC=C(C)C

>  <Energy>  (4) 
37.480218448093574

>  <Genealogy>  (4) 
CC[NH+](CC)CCOCC=C(C)CCC=C(C)C (protonated)
CC[NH+](CC)CCOC/C=C(\C)CCC=C(C)C (cis-trans isomerization)
CC[NH+](CC)CCOC/C=C(\C)CCC=C(C)C (3D coordinates assigned)
CC[NH+](CC)CCOC/C=C(\C)CCC=C(C)C (optimized conformer: 37.480218448093574 kcal/mol)

>  <smiles>  (4) 
CCN(CC)CCOCC=C(C)CCC=C(C)C

>  <score_type>  (4) 
oracle

>  <origin>  (4) 
adg

>  <m_score__min__energy>  (4) 
-3.48

>  <m_primary>  (4) 
energy

$$$$
4:0
     RDKit          3D

 51 54  0  0  0  0  0  0  0  0999 V2000
   63.0210   33.8410   46.3170 C   0  0  0  0  0  0  0  0  0  0  0  0
   63.6790   33.5260   47.6660 C   0  0  0  0  0  0  0  0  0  0  0  0
   63.6050   32.0820   48.0060 N   0  0  1  0  0  0  0  0  0  0  0  0
   63.9150   31.8360   49.4280 C   0  0  0  0  0  0  0  0  0  0  0  0
   62.3110   31.4720   47.6020 C   0  0  0  0  0  0  0  0  0  0  0  0
   61.2280   31.4110   48.7050 C   0  0  0  0  0  0  0  0  0  0  0  0
   59.9660   30.8530   48.2180 N   0  0  0  0  0  0  0  0  0  0  0  0
   59.4580   31.2380   46.9350 C   0  0  0  0  0  0  0  0  0  0  0  0
   59.3710   32.5940   46.5440 C   0  0  0  0  0  0  0  0  0  0  0  0
   59.7610   33.6230   47.4220 C   0  0  0  0  0  0  0  0  0  0  0  0
   59.7170   34.9560   47.0230 C   0  0  0  0  0  0  0  0  0  0  0  0
   59.2850   35.2890   45.7440 C   0  0  0  0  0  0  0  0  0  0  0  0
   58.8710   34.2940   44.8570 C   0  0  0  0  0  0  0  0  0  0  0  0
   58.8750   32.9300   45.2370 C   0  0  0  0  0  0  0  0  0  0  0  0
   58.4270   31.9340   44.3800 N   0  0  0  0  0  0  0  0  0  0  0  0
   57.8250   32.2630   43.0740 C   0  0  0  0  0  0  0  0  0  0  0  0
   58.5660   30.6280   44.7700 C   0  0  0  0  0  0  0  0  0  0  0  0
   58.2900   29.5270   44.0260 N   0  0  0  0  0  0  0  0  0  0  0  0
   58.6000   28.4800   44.8160 C   0  0  0  0  0  0  0  0  0  0  0  0
   58.5020   27.1290   44.4860 C   0  0  0  0  0  0  0  0  0  0  0  0
   58.8990   26.1840   45.4480 C   0  0  0  0  0  0  0  0  0  0  0  0
   59.3840   26.6020   46.7040 C   0  0  0  0  0  0  0  0  0  0  0  0
   59.4780   27.9710   47.0150 C   0  0  0  0  0  0  0  0  0  0  0  0
   59.0710   28.8920   46.0440 C   0  0  0  0  0  0  0  0  0  0  0  0
   59.0540   30.2770   46.0140 C   0  0  0  0  0  0  0  0  0  0  0  0
   62.0409   34.3102   46.4878 H   0  0  0  0  0  0  0  0  0  0  0  0
   63.6629   34.5295   45.7478 H   0  0  0  0  0  0  0  0  0  0  0  0
   62.8873   32.9093   45.7478 H   0  0  0  0  0  0  0  0  0  0  0  0
   64.7366   33.8253   47.6221 H   0  0  0  0  0  0  0  0  0  0  0  0
   63.1357   34.0830   48.4435 H   0  0  0  0  0  0  0  0  0  0  0  0
   64.3370   31.5790   47.4500 H   0  0  0  0  0  0  0  0  0  0  0  0
   63.2094   32.3960   50.0593 H   0  0  0  0  0  0  0  0  0  0  0  0
   63.8250   30.7608   49.6422 H   0  0  0  0  0  0  0  0  0  0  0  0
   64.9416   32.1679   49.6422 H   0  0  0  0  0  0  0  0  0  0  0  0
   61.9075   32.0585   46.7634 H   0  0  0  0  0  0  0  0  0  0  0  0
   62.5381   30.4269   47.3449 H   0  0  0  0  0  0  0  0  0  0  0  0
   61.5977   30.7824   49.5285 H   0  0  0  0  0  0  0  0  0  0  0  0
   61.0323   32.4403   49.0399 H   0  0  0  0  0  0  0  0  0  0  0  0
   59.5510   30.0070   48.6670 H   0  0  0  0  0  0  0  0  0  0  0  0
   60.1048   33.3706   48.4360 H   0  0  0  0  0  0  0  0  0  0  0  0
   60.0248   35.7480   47.7215 H   0  0  0  0  0  0  0  0  0  0  0  0
   59.2694   36.3429   45.4293 H   0  0  0  0  0  0  0  0  0  0  0  0
   58.5365   34.5738   43.8472 H   0  0  0  0  0  0  0  0  0  0  0  0
   56.8697   32.7851   43.2317 H   0  0  0  0  0  0  0  0  0  0  0  0
   58.5089   32.9127   42.5082 H   0  0  0  0  0  0  0  0  0  0  0  0
   57.6475   31.3365   42.5082 H   0  0  0  0  0  0  0  0  0  0  0  0
   57.9540   29.4630   43.0400 H   0  0  0  0  0  0  0  0  0  0  0  0
   58.1253   26.8120   43.5023 H   0  0  0  0  0  0  0  0  0  0  0  0
   58.8307   25.1103   45.2190 H   0  0  0  0  0  0  0  0  0  0  0  0
   59.6915   25.8516   47.4471 H   0  0  0  0  0  0  0  0  0  0  0  0
   59.8594   28.3064   47.9907 H   0  0  0  0  0  0  0  0  0  0  0  0
  1  2  1  0
  2  3  1  0
  3  4  1  0
  3  5  1  0
  5  6  1  0
  6  7  1  0
  7  8  1  0
  8  9  2  0
  9 10  1  0
 10 11  2  0
 11 12  1  0
 12 13  2  0
 13 14  1  0
 14 15  2  0
 15 16  1  0
 15 17  1  0
 17 18  1  0
 18 19  1  0
 19 20  2  0
 20 21  1  0
 21 22  2  0
 22 23  1  0
 23 24  2  0
 24 25  1  0
 25  8  1  0
 14  9  1  0
 25 17  2  0
 24 19  1  0
  1 26  1  0
  1 27  1  0
  1 28  1  0
  2 29  1  0
  2 30  1  0
  3 31  1  6
  4 32  1  0
  4 33  1  0
  4 34  1  0
  5 35  1  0
  5 36  1  0
  6 37  1  0
  6 38  1  0
  7 39  1  0
 10 40  1  0
 11 41  1  0
 12 42  1  0
 13 43  1  0
 16 44  1  0
 16 45  1  0
 16 46  1  0
 18 47  1  0
 20 48  1  0
 21 49  1  0
 22 50  1  0
 23 51  1  0
M  CHG  2   3   1  15   1
M  END
>  <UniqueID>  (5) 
5

>  <SMILES>  (5) 
CC[N@@H+](C)CCNc1c2ccccc2[n+](C)c2[nH]c3ccccc3c12

>  <Energy>  (5) 
114.11391471977264

>  <Genealogy>  (5) 
CC[NH+](C)CCNc1c2ccccc2[n+](C)c2[nH]c3ccccc3c12 (protonated)
CC[N@@H+](C)CCNc1c2ccccc2[n+](C)c2[nH]c3ccccc3c12 (chirality)
CC[N@@H+](C)CCNc1c2ccccc2[n+](C)c2[nH]c3ccccc3c12 (3D coordinates assigned)
CC[N@@H+](C)CCNc1c2ccccc2[n+](C)c2[nH]c3ccccc3c12 (optimized conformer: 114.11391471977264 kcal/mol)

>  <smiles>  (5) 
CCN(C)CCNc1c2ccccc2[n+](C)c2[nH]c3ccccc3c12

>  <score_type>  (5) 
oracle

>  <origin>  (5) 
adg

>  <m_score__min__energy>  (5) 
-5.4400000000000004

>  <m_primary>  (5) 
energy

$$$$
5:0
     RDKit          3D

 37 39  0  0  0  0  0  0  0  0999 V2000
   62.4310   32.8540   48.3070 C   0  0  0  0  0  0  0  0  0  0  0  0
   61.6390   32.5170   49.5680 C   0  0  0  0  0  0  0  0  0  0  0  0
   60.5700   33.5150   49.7900 N   0  0  0  0  0  0  0  0  0  0  0  0
   60.5660   34.5870   48.7570 C   0  0  0  0  0  0  0  0  0  0  0  0
   59.3290   34.5850   47.8360 C   0  0  0  0  0  0  0  0  0  0  0  0
   58.8940   33.2120   47.5510 N   0  0  0  0  0  0  0  0  0  0  0  0
   58.4760   32.8320   46.2260 C   0  0  0  0  0  0  0  0  0  0  0  0
   57.7890   31.6930   45.9590 N   0  0  0  0  0  0  0  0  0  0  0  0
   57.5200   31.5790   44.6320 C   0  0  0  0  0  0  0  0  0  0  0  0
   56.8230   30.5100   44.0490 C   0  0  0  0  0  0  0  0  0  0  0  0
   56.3290   29.3640   44.8830 C   0  0  0  0  0  0  0  0  0  0  0  0
   56.6320   30.5220   42.6500 C   0  0  0  0  0  0  0  0  0  0  0  0
   57.1150   31.5900   41.8690 C   0  0  0  0  0  0  0  0  0  0  0  0
   57.8010   32.6550   42.4690 C   0  0  0  0  0  0  0  0  0  0  0  0
   57.9890   32.6210   43.8470 C   0  0  0  0  0  0  0  0  0  0  0  0
   58.7720   33.7410   44.8220 S   0  0  0  0  0  0  0  0  0  0  0  0
   58.7360   32.2700   48.6630 C   0  0  0  0  0  0  0  0  0  0  0  0
   59.2500   32.8760   49.9760 C   0  0  0  0  0  0  0  0  0  0  0  0
   63.4094   33.2703   48.5888 H   0  0  0  0  0  0  0  0  0  0  0  0
   62.5788   31.9408   47.7118 H   0  0  0  0  0  0  0  0  0  0  0  0
   61.8755   33.5937   47.7118 H   0  0  0  0  0  0  0  0  0  0  0  0
   61.1866   31.5206   49.4559 H   0  0  0  0  0  0  0  0  0  0  0  0
   62.3214   32.5285   50.4307 H   0  0  0  0  0  0  0  0  0  0  0  0
   60.6101   35.5588   49.2705 H   0  0  0  0  0  0  0  0  0  0  0  0
   61.4366   34.4012   48.1109 H   0  0  0  0  0  0  0  0  0  0  0  0
   58.5100   35.1275   48.3308 H   0  0  0  0  0  0  0  0  0  0  0  0
   59.5945   35.0750   46.8876 H   0  0  0  0  0  0  0  0  0  0  0  0
   56.4364   29.6132   45.9490 H   0  0  0  0  0  0  0  0  0  0  0  0
   55.2695   29.1750   44.6556 H   0  0  0  0  0  0  0  0  0  0  0  0
   56.9190   28.4639   44.6556 H   0  0  0  0  0  0  0  0  0  0  0  0
   56.1010   29.6894   42.1655 H   0  0  0  0  0  0  0  0  0  0  0  0
   56.9528   31.5883   40.7810 H   0  0  0  0  0  0  0  0  0  0  0  0
   58.1801   33.4941   41.8672 H   0  0  0  0  0  0  0  0  0  0  0  0
   57.6703   32.0212   48.7748 H   0  0  0  0  0  0  0  0  0  0  0  0
   59.3222   31.3659   48.4417 H   0  0  0  0  0  0  0  0  0  0  0  0
   58.5321   33.6316   50.3275 H   0  0  0  0  0  0  0  0  0  0  0  0
   59.3556   32.0676   50.7145 H   0  0  0  0  0  0  0  0  0  0  0  0
  1  2  1  0
  2  3  1  0
  3  4  1  0
  4  5  1  0
  5  6  1  0
  6  7  1  0
  7  8  2  0
  8  9  1  0
  9 10  2  0
 10 11  1  0
 10 12  1  0
 12 13  2  0
 13 14  1  0
 14 15  2  0
 15 16  1  0
  6 17  1  0
 17 18  1  0
 18  3  1  0
 16  7  1  0
 15  9  1  0
  1 19  1  0
  1 20  1  0
  1 21  1  0
  2 22  1  0
  2 23  1  0
  4 24  1  0
  4 25  1  0
  5 26  1  0
  5 27  1  0
 11 28  1  0
 11 29  1  0
 11 30  1  0
 12 31  1  0
 13 32  1  0
 14 33  1  0
 17 34  1  0
 17 35  1  0
 18 36  1  0
 18 37  1  0
M  END
>  <UniqueID>  (6) 
6

>  <SMILES>  (6) 
CCN1CCN(c2nc3c(C)cccc3s2)CC1

>  <Energy>  (6) 
77.84570176418794

>  <Genealogy>  (6) 
CCN1CCN(c2nc3c(C)cccc3s2)CC1 (3D coordinates assigned)
CCN1CCN(c2nc3c(C)cccc3s2)CC1 (nonaromatic ring conformer: 77.84570176418794 kcal/mol)

>  <smiles>  (6) 
CCN1CCN(c2nc3c(C)cccc3s2)CC1

>  <score_type>  (6) 
oracle

>  <origin>  (6) 
adg

>  <m_score__min__energy>  (6) 
-6.4199999999999999

>  <m_primary>  (6) 
energy

$$$$
6:0
     RDKit          3D

 51 53  0  0  0  0  0  0  0  0999 V2000
   57.0370   33.8720   45.6260 C   0  0  0  0  0  0  0  0  0  0  0  0
   57.4300   32.9130   44.5030 C   0  0  0  0  0  0  0  0  0  0  0  0
   57.0900   31.5150   44.8570 N   0  0  0  0  0  0  0  0  0  0  0  0
   56.5560   30.7770   43.6900 C   0  0  0  0  0  0  0  0  0  0  0  0
   55.5640   29.7080   44.1450 C   0  0  0  0  0  0  0  0  0  0  0  0
   58.2500   30.8120   45.4630 C   0  0  0  0  0  0  0  0  0  0  0  0
   58.2950   31.0640   46.9740 C   0  0  0  0  0  0  0  0  0  0  0  0
   59.6810   31.2670   47.4480 N   0  0  0  0  0  0  0  0  0  0  0  0
   60.2430   30.4400   48.3970 C   0  0  0  0  0  0  0  0  0  0  0  0
   59.3910   28.9940   49.0570 S   0  0  0  0  0  0  0  0  0  0  0  0
   60.2280   27.8000   47.9540 C   0  0  0  0  0  0  0  0  0  0  0  0
   59.5670   27.7560   46.6020 C   0  0  0  0  0  0  0  0  0  0  0  0
   60.2380   28.2780   45.4840 C   0  0  0  0  0  0  0  0  0  0  0  0
   59.6630   28.1930   44.2130 C   0  0  0  0  0  0  0  0  0  0  0  0
   58.4160   27.5860   44.0480 C   0  0  0  0  0  0  0  0  0  0  0  0
   57.7400   27.0640   45.1530 C   0  0  0  0  0  0  0  0  0  0  0  0
   58.3090   27.1470   46.4290 C   0  0  0  0  0  0  0  0  0  0  0  0
   57.6370   26.6220   47.4850 F   0  0  0  0  0  0  0  0  0  0  0  0
   61.4870   30.6950   48.8770 N   0  0  0  0  0  0  0  0  0  0  0  0
   62.2200   31.7420   48.4360 C   0  0  0  0  0  0  0  0  0  0  0  0
   63.5010   31.9680   48.9540 C   0  0  0  0  0  0  0  0  0  0  0  0
   64.2610   33.0470   48.4950 C   0  0  0  0  0  0  0  0  0  0  0  0
   63.7450   33.9020   47.5180 C   0  0  0  0  0  0  0  0  0  0  0  0
   62.4660   33.6830   46.9960 C   0  0  0  0  0  0  0  0  0  0  0  0
   61.6940   32.5980   47.4540 C   0  0  0  0  0  0  0  0  0  0  0  0
   60.4010   32.3370   46.9690 C   0  0  0  0  0  0  0  0  0  0  0  0
   59.9010   33.0970   46.0920 O   0  0  0  0  0  0  0  0  0  0  0  0
   57.2317   33.3969   46.5988 H   0  0  0  0  0  0  0  0  0  0  0  0
   57.6293   34.7953   45.5438 H   0  0  0  0  0  0  0  0  0  0  0  0
   55.9671   34.1141   45.5438 H   0  0  0  0  0  0  0  0  0  0  0  0
   56.8916   33.1931   43.5856 H   0  0  0  0  0  0  0  0  0  0  0  0
   58.5168   32.9813   44.3474 H   0  0  0  0  0  0  0  0  0  0  0  0
   56.0458   31.4823   43.0175 H   0  0  0  0  0  0  0  0  0  0  0  0
   57.3899   30.2894   43.1638 H   0  0  0  0  0  0  0  0  0  0  0  0
   55.5360   29.6778   45.2442 H   0  0  0  0  0  0  0  0  0  0  0  0
   54.5625   29.9491   43.7592 H   0  0  0  0  0  0  0  0  0  0  0  0
   55.8792   28.7273   43.7592 H   0  0  0  0  0  0  0  0  0  0  0  0
   58.1566   29.7317   45.2780 H   0  0  0  0  0  0  0  0  0  0  0  0
   59.1765   31.1936   45.0090 H   0  0  0  0  0  0  0  0  0  0  0  0
   57.7032   31.9621   47.2045 H   0  0  0  0  0  0  0  0  0  0  0  0
   57.8814   30.1814   47.4838 H   0  0  0  0  0  0  0  0  0  0  0  0
   61.2789   28.1006   47.8305 H   0  0  0  0  0  0  0  0  0  0  0  0
   60.1627   26.8000   48.4076 H   0  0  0  0  0  0  0  0  0  0  0  0
   61.2208   28.7560   45.6093 H   0  0  0  0  0  0  0  0  0  0  0  0
   60.1932   28.6047   43.3416 H   0  0  0  0  0  0  0  0  0  0  0  0
   57.9658   27.5190   43.0466 H   0  0  0  0  0  0  0  0  0  0  0  0
   56.7580   26.5865   45.0201 H   0  0  0  0  0  0  0  0  0  0  0  0
   63.9094   31.2957   49.7229 H   0  0  0  0  0  0  0  0  0  0  0  0
   65.2670   33.2235   48.9035 H   0  0  0  0  0  0  0  0  0  0  0  0
   64.3464   34.7499   47.1582 H   0  0  0  0  0  0  0  0  0  0  0  0
   62.0629   34.3587   46.2273 H   0  0  0  0  0  0  0  0  0  0  0  0
  1  2  1  0
  2  3  1  0
  3  4  1  0
  4  5  1  0
  3  6  1  0
  6  7  1  0
  7  8  1  0
  8  9  1  0
  9 10  1  0
 10 11  1  0
 11 12  1  0
 12 13  2  0
 13 14  1  0
 14 15  2  0
 15 16  1  0
 16 17  2  0
 17 18  1  0
  9 19  2  0
 19 20  1  0
 20 21  2  0
 21 22  1  0
 22 23  2  0
 23 24  1  0
 24 25  2  0
 25 26  1  0
 26 27  2  0
 26  8  1  0
 17 12  1  0
 25 20  1  0
  1 28  1  0
  1 29  1  0
  1 30  1  0
  2 31  1  0
  2 32  1  0
  4 33  1  0
  4 34  1  0
  5 35  1  0
  5 36  1  0
  5 37  1  0
  6 38  1  0
  6 39  1  0
  7 40  1  0
  7 41  1  0
 11 42  1  0
 11 43  1  0
 13 44  1  0
 14 45  1  0
 15 46  1  0
 16 47  1  0
 21 48  1  0
 22 49  1  0
 23 50  1  0
 24 51  1  0
M  END
>  <UniqueID>  (7) 
7

>  <SMILES>  (7) 
CCN(CC)CCn1c(SCc2ccccc2F)nc2ccccc2c1=O

>  <Energy>  (7) 
51.89908263497974

>  <Genealogy>  (7) 
CCN(CC)CCn1c(SCc2ccccc2F)nc2ccccc2c1=O (3D coordinates assigned)
CCN(CC)CCn1c(SCc2ccccc2F)nc2ccccc2c1=O (optimized conformer: 51.89908263497974 kcal/mol)

>  <smiles>  (7) 
CCN(CC)CCn1c(SCc2ccccc2F)nc2ccccc2c1=O

>  <score_type>  (7) 
oracle

>  <origin>  (7) 
adg

>  <m_score__min__energy>  (7) 
-7.4299999999999997

>  <m_primary>  (7) 
energy

$$$$
7:0
     RDKit          3D

 83 85  0  0  1  0  0  0  0  0999 V2000
   50.5300   24.3630   43.4380 C   0  0  0  0  0  0  0  0  0  0  0  0
   51.6450   24.3750   44.4960 C   0  0  0  0  0  0  0  0  0  0  0  0
   51.9960   23.0770   44.7480 O   0  0  0  0  0  0  0  0  0  0  0  0
   51.2560   22.4970   45.7520 C   0  0  0  0  0  0  0  0  0  0  0  0
   51.2070   20.9570   45.6390 C   0  0  0  0  0  0  0  0  0  0  0  0
   52.4700   20.4340   45.7940 O   0  0  0  0  0  0  0  0  0  0  0  0
   53.2760   21.1490   46.6500 C   0  0  0  0  0  0  0  0  0  0  0  0
   54.6620   21.2650   46.1260 C   0  0  0  0  0  0  0  0  0  0  0  0
   54.9750   22.4230   45.3690 N   0  0  0  0  0  0  0  0  0  0  0  0
   54.7390   23.6160   46.1910 C   0  0  0  0  0  0  0  0  0  0  0  0
   54.8950   24.8970   45.4640 C   0  0  0  0  0  0  0  0  0  0  0  0
   55.3820   25.8850   46.2780 O   0  0  0  0  0  0  0  0  0  0  0  0
   56.6660   26.3020   46.0700 C   0  0  0  0  0  0  0  0  0  0  0  0
   57.6990   25.2330   46.2400 C   0  0  0  0  0  0  0  0  0  0  0  0
   58.7150   25.6330   47.0780 O   0  0  0  0  0  0  0  0  0  0  0  0
   59.7860   26.2300   46.4380 C   0  0  0  0  0  0  0  0  0  0  0  0
   60.4010   27.3500   47.1690 C   0  0  0  0  0  0  0  0  0  0  0  0
   59.8930   28.6350   46.8150 N   0  0  0  0  0  0  0  0  0  0  0  0
   60.1730   28.8230   45.4050 C   0  0  0  0  0  0  0  0  0  0  0  0
   58.5710   28.9120   47.2070 C   0  0  0  0  0  0  0  0  0  0  0  0
   57.8320   29.8310   46.3300 C   0  0  0  0  0  0  0  0  0  0  0  0
   56.6680   29.3610   45.9820 O   0  0  0  0  0  0  0  0  0  0  0  0
   58.2290   31.1000   45.8240 N   0  0  0  0  0  0  0  0  0  0  0  0
   57.8920   31.3380   44.4490 C   0  0  0  0  0  0  0  0  0  0  0  0
   57.3030   30.3180   43.6850 C   0  0  0  0  0  0  0  0  0  0  0  0
   56.9470   30.5110   42.3570 C   0  0  0  0  0  0  0  0  0  0  0  0
   57.1560   31.7070   41.7280 C   0  0  0  0  0  0  0  0  0  0  0  0
   57.7340   32.7110   42.4600 C   0  0  0  0  0  0  0  0  0  0  0  0
   58.0830   32.5140   43.7730 C   0  0  0  0  0  0  0  0  0  0  0  0
   58.9140   33.8780   44.5660 S   0  0  0  0  0  0  0  0  0  0  0  0
   59.1450   33.3730   46.2600 C   0  0  0  0  0  0  0  0  0  0  0  0
   59.6060   34.3450   47.1140 C   0  0  0  0  0  0  0  0  0  0  0  0
   59.7690   34.0970   48.4470 C   0  0  0  0  0  0  0  0  0  0  0  0
   59.4540   32.8390   48.8980 C   0  0  0  0  0  0  0  0  0  0  0  0
   58.9900   31.8710   48.0280 C   0  0  0  0  0  0  0  0  0  0  0  0
   58.8160   32.0920   46.6550 C   0  0  0  0  0  0  0  0  0  0  0  0
   56.2790   22.5510   44.8260 C   0  0  0  0  0  0  0  0  0  0  0  0
   56.3980   22.5810   43.3560 C   0  0  0  0  0  0  0  0  0  0  0  0
   56.6440   23.7810   42.7070 O   0  0  0  0  0  0  0  0  0  0  0  0
   56.2690   21.4530   42.6940 N   0  0  0  0  0  0  0  0  0  0  0  0
   56.1170   20.2710   43.3670 O   0  0  0  0  0  0  0  0  0  0  0  0
   49.5502   24.3525   43.9380 H   0  0  0  0  0  0  0  0  0  0  0  0
   50.6113   25.2621   42.8095 H   0  0  0  0  0  0  0  0  0  0  0  0
   50.6306   23.4659   42.8095 H   0  0  0  0  0  0  0  0  0  0  0  0
   52.5150   24.9310   44.1166 H   0  0  0  0  0  0  0  0  0  0  0  0
   51.2956   24.8644   45.4171 H   0  0  0  0  0  0  0  0  0  0  0  0
   51.7041   22.7653   46.7201 H   0  0  0  0  0  0  0  0  0  0  0  0
   50.2251   22.8708   45.6651 H   0  0  0  0  0  0  0  0  0  0  0  0
   50.5475   20.5550   46.4222 H   0  0  0  0  0  0  0  0  0  0  0  0
   50.8202   20.6796   44.6473 H   0  0  0  0  0  0  0  0  0  0  0  0
   52.8564   22.1579   46.7765 H   0  0  0  0  0  0  0  0  0  0  0  0
   53.3148   20.6167   47.6119 H   0  0  0  0  0  0  0  0  0  0  0  0
   55.3448   21.2389   46.9881 H   0  0  0  0  0  0  0  0  0  0  0  0
   54.7688   20.4280   45.4203 H   0  0  0  0  0  0  0  0  0  0  0  0
   53.7131   23.5659   46.5846 H   0  0  0  0  0  0  0  0  0  0  0  0
   55.5015   23.6085   46.9838 H   0  0  0  0  0  0  0  0  0  0  0  0
   55.5925   24.7490   44.6264 H   0  0  0  0  0  0  0  0  0  0  0  0
   53.9043   25.2085   45.1014 H   0  0  0  0  0  0  0  0  0  0  0  0
   56.7393   26.6909   45.0437 H   0  0  0  0  0  0  0  0  0  0  0  0
   56.8756   27.0650   46.8341 H   0  0  0  0  0  0  0  0  0  0  0  0
   57.2193   24.3384   46.6637 H   0  0  0  0  0  0  0  0  0  0  0  0
   58.1344   25.0180   45.2530 H   0  0  0  0  0  0  0  0  0  0  0  0
   60.5578   25.4630   46.2763 H   0  0  0  0  0  0  0  0  0  0  0  0
   59.3891   26.6534   45.5035 H   0  0  0  0  0  0  0  0  0  0  0  0
   60.2273   27.1957   48.2442 H   0  0  0  0  0  0  0  0  0  0  0  0
   61.4682   27.3502   46.9025 H   0  0  0  0  0  0  0  0  0  0  0  0
   61.0812   29.4328   45.2897 H   0  0  0  0  0  0  0  0  0  0  0  0
   60.3258   27.8438   44.9278 H   0  0  0  0  0  0  0  0  0  0  0  0
   59.3245   29.3351   44.9278 H   0  0  0  0  0  0  0  0  0  0  0  0
   58.0209   27.9601   47.2414 H   0  0  0  0  0  0  0  0  0  0  0  0
   58.6437   29.4166   48.1817 H   0  0  0  0  0  0  0  0  0  0  0  0
   57.1185   29.3390   44.1514 H   0  0  0  0  0  0  0  0  0  0  0  0
   56.4864   29.6830   41.7982 H   0  0  0  0  0  0  0  0  0  0  0  0
   56.8714   31.8573   40.6761 H   0  0  0  0  0  0  0  0  0  0  0  0
   57.9208   33.6875   41.9893 H   0  0  0  0  0  0  0  0  0  0  0  0
   59.8484   35.3417   46.7168 H   0  0  0  0  0  0  0  0  0  0  0  0
   60.1381   34.8743   49.1323 H   0  0  0  0  0  0  0  0  0  0  0  0
   59.5725   32.5988   49.9649 H   0  0  0  0  0  0  0  0  0  0  0  0
   58.7451   30.8780   48.4330 H   0  0  0  0  0  0  0  0  0  0  0  0
   56.7074   23.4879   45.2117 H   0  0  0  0  0  0  0  0  0  0  0  0
   56.8051   21.6354   45.1341 H   0  0  0  0  0  0  0  0  0  0  0  0
   56.9540   23.7920   41.7220 H   0  0  0  0  0  0  0  0  0  0  0  0
   56.9440   19.6610   43.3640 H   0  0  0  0  0  0  0  0  0  0  0  0
  1  2  1  0
  2  3  1  0
  3  4  1  0
  4  5  1  0
  5  6  1  0
  6  7  1  0
  7  8  1  0
  8  9  1  0
  9 10  1  0
 10 11  1  0
 11 12  1  0
 12 13  1  0
 13 14  1  0
 14 15  1  0
 15 16  1  0
 16 17  1  0
 17 18  1  0
 18 19  1  0
 18 20  1  0
 20 21  1  0
 21 22  2  0
 21 23  1  0
 23 24  1  0
 24 25  2  0
 25 26  1  0
 26 27  2  0
 27 28  1  0
 28 29  2  0
 29 30  1  0
 30 31  1  0
 31 32  2  0
 32 33  1  0
 33 34  2  0
 34 35  1  0
 35 36  2  0
  9 37  1  0
 37 38  1  0
 38 39  1  0
 38 40  2  0
 40 41  1  0
 36 23  1  0
 29 24  1  0
 36 31  1  0
  1 42  1  0
  1 43  1  0
  1 44  1  0
  2 45  1  0
  2 46  1  0
  4 47  1  0
  4 48  1  0
  5 49  1  0
  5 50  1  0
  7 51  1  0
  7 52  1  0
  8 53  1  0
  8 54  1  0
 10 55  1  0
 10 56  1  0
 11 57  1  0
 11 58  1  0
 13 59  1  0
 13 60  1  0
 14 61  1  0
 14 62  1  0
 16 63  1  0
 16 64  1  0
 17 65  1  0
 17 66  1  0
 19 67  1  0
 19 68  1  0
 19 69  1  0
 20 70  1  0
 20 71  1  0
 25 72  1  0
 26 73  1  0
 27 74  1  0
 28 75  1  0
 32 76  1  0
 33 77  1  0
 34 78  1  0
 35 79  1  0
 37 80  1  0
 37 81  1  0
 39 82  1  0
 41 83  1  0
M  END
>  <smiles>  (8) 
CCOCCOCCN(CCOCCOCCN(C)CC(=O)N1c2ccccc2Sc2ccccc21)CC(O)=NO

>  <score_type>  (8) 
oracle

>  <origin>  (8) 
adg

>  <m_score__min__energy>  (8) 
-10.01

>  <m_primary>  (8) 
energy

$$$$
8:0
     RDKit          3D

 50 51  0  0  0  0  0  0  0  0999 V2000
   62.8310   32.9110   47.5040 C   0  0  0  0  0  0  0  0  0  0  0  0
   62.0170   33.8260   46.5950 C   0  0  0  0  0  0  0  0  0  0  0  0
   60.6180   33.9190   47.0710 N   0  0  0  0  0  0  0  0  0  0  0  0
   60.5800   34.1560   48.5250 C   0  0  0  0  0  0  0  0  0  0  0  0
   59.8620   34.9720   46.3520 C   0  0  0  0  0  0  0  0  0  0  0  0
   59.3980   34.4560   44.9860 C   0  0  0  0  0  0  0  0  0  0  0  0
   58.2780   33.4940   45.1400 N   0  0  0  0  0  0  0  0  0  0  0  0
   56.9950   34.2010   45.2810 C   0  0  0  0  0  0  0  0  0  0  0  0
   58.2050   32.5330   44.0170 C   0  0  0  0  0  0  0  0  0  0  0  0
   57.5730   31.2390   44.4650 C   0  0  0  0  0  0  0  0  0  0  0  0
   56.2670   30.9130   44.0680 C   0  0  0  0  0  0  0  0  0  0  0  0
   55.6990   29.6940   44.4420 C   0  0  0  0  0  0  0  0  0  0  0  0
   56.4230   28.7870   45.2350 C   0  0  0  0  0  0  0  0  0  0  0  0
   55.8750   27.5190   45.6230 N   0  0  0  0  0  0  0  0  0  0  0  0
   56.6150   26.3920   46.1140 C   0  0  0  0  0  0  0  0  0  0  0  0
   57.2010   26.4940   47.2240 O   0  0  0  0  0  0  0  0  0  0  0  0
   56.6640   25.1040   45.3830 C   0  0  0  0  0  0  0  0  0  0  0  0
   57.8940   24.4510   45.1850 C   0  0  0  0  0  0  0  0  0  0  0  0
   57.9470   23.2340   44.4990 C   0  0  0  0  0  0  0  0  0  0  0  0
   56.7740   22.6520   44.0110 C   0  0  0  0  0  0  0  0  0  0  0  0
   56.8430   21.1270   43.1480 Cl  0  0  0  0  0  0  0  0  0  0  0  0
   55.5440   23.2850   44.2150 C   0  0  0  0  0  0  0  0  0  0  0  0
   55.4870   24.5010   44.9020 C   0  0  0  0  0  0  0  0  0  0  0  0
   57.7330   29.1020   45.6120 C   0  0  0  0  0  0  0  0  0  0  0  0
   58.3060   30.3200   45.2380 C   0  0  0  0  0  0  0  0  0  0  0  0
   59.5760   30.6040   45.6260 F   0  0  0  0  0  0  0  0  0  0  0  0
   62.6159   33.1528   48.5553 H   0  0  0  0  0  0  0  0  0  0  0  0
   62.5611   31.8631   47.3062 H   0  0  0  0  0  0  0  0  0  0  0  0
   63.9032   33.0571   47.3062 H   0  0  0  0  0  0  0  0  0  0  0  0
   62.4669   34.8298   46.5952 H   0  0  0  0  0  0  0  0  0  0  0  0
   62.0194   33.4095   45.5769 H   0  0  0  0  0  0  0  0  0  0  0  0
   60.7325   33.2046   49.0557 H   0  0  0  0  0  0  0  0  0  0  0  0
   61.3764   34.8623   48.8023 H   0  0  0  0  0  0  0  0  0  0  0  0
   59.6027   34.5780   48.8023 H   0  0  0  0  0  0  0  0  0  0  0  0
   58.9837   35.2594   46.9486 H   0  0  0  0  0  0  0  0  0  0  0  0
   60.5171   35.8427   46.2015 H   0  0  0  0  0  0  0  0  0  0  0  0
   59.0619   35.3062   44.3742 H   0  0  0  0  0  0  0  0  0  0  0  0
   60.2397   33.9429   44.4978 H   0  0  0  0  0  0  0  0  0  0  0  0
   56.7624   34.3292   46.3484 H   0  0  0  0  0  0  0  0  0  0  0  0
   57.0653   35.1877   44.8000 H   0  0  0  0  0  0  0  0  0  0  0  0
   56.1984   33.6145   44.8000 H   0  0  0  0  0  0  0  0  0  0  0  0
   57.6013   32.9687   43.2072 H   0  0  0  0  0  0  0  0  0  0  0  0
   59.2251   32.3248   43.6619 H   0  0  0  0  0  0  0  0  0  0  0  0
   55.6876   31.6222   43.4586 H   0  0  0  0  0  0  0  0  0  0  0  0
   54.6796   29.4419   44.1145 H   0  0  0  0  0  0  0  0  0  0  0  0
   58.8201   24.9008   45.5724 H   0  0  0  0  0  0  0  0  0  0  0  0
   58.9141   22.7335   44.3431 H   0  0  0  0  0  0  0  0  0  0  0  0
   54.6200   22.8254   43.8343 H   0  0  0  0  0  0  0  0  0  0  0  0
   54.5156   24.9898   45.0678 H   0  0  0  0  0  0  0  0  0  0  0  0
   58.3166   28.3847   46.2078 H   0  0  0  0  0  0  0  0  0  0  0  0
  1  2  1  0
  2  3  1  0
  3  4  1  0
  3  5  1  0
  5  6  1  0
  6  7  1  0
  7  8  1  0
  7  9  1  0
  9 10  1  0
 10 11  2  0
 11 12  1  0
 12 13  2  0
 13 14  1  0
 14 15  1  0
 15 16  2  0
 15 17  1  0
 17 18  2  0
 18 19  1  0
 19 20  2  0
 20 21  1  0
 20 22  1  0
 22 23  2  0
 13 24  1  0
 24 25  2  0
 25 26  1  0
 25 10  1  0
 23 17  1  0
  1 27  1  0
  1 28  1  0
  1 29  1  0
  2 30  1  0
  2 31  1  0
  4 32  1  0
  4 33  1  0
  4 34  1  0
  5 35  1  0
  5 36  1  0
  6 37  1  0
  6 38  1  0
  8 39  1  0
  8 40  1  0
  8 41  1  0
  9 42  1  0
  9 43  1  0
 11 44  1  0
 12 45  1  0
 18 46  1  0
 19 47  1  0
 22 48  1  0
 23 49  1  0
 24 50  1  0
M  CHG  1  14  -1
M  END
>  <UniqueID>  (9) 
8

>  <SMILES>  (9) 
CCN(C)CCN(C)Cc1ccc([N-]C(=O)c2ccc(Cl)cc2)cc1F

>  <Energy>  (9) 
56.793490960695266

>  <Genealogy>  (9) 
CCN(C)CCN(C)Cc1ccc([N-]C(=O)c2ccc(Cl)cc2)cc1F (protonated)
CCN(C)CCN(C)Cc1ccc([N-]C(=O)c2ccc(Cl)cc2)cc1F (3D coordinates assigned)
CCN(C)CCN(C)Cc1ccc([N-]C(=O)c2ccc(Cl)cc2)cc1F (optimized conformer: 56.793490960695266 kcal/mol)

>  <smiles>  (9) 
CCN(C)CCN(C)Cc1ccc(NC(=O)c2ccc(Cl)cc2)cc1F

>  <score_type>  (9) 
oracle

>  <origin>  (9) 
adg

>  <m_score__min__energy>  (9) 
-9.4700000000000006

>  <m_primary>  (9) 
energy

$$$$
9:0
     RDKit          3D

 45 49  0  0  0  0  0  0  0  0999 V2000
   64.0870   33.0840   46.3760 F   0  0  0  0  0  0  0  0  0  0  0  0
   63.3220   33.4190   47.4450 C   0  0  0  0  0  0  0  0  0  0  0  0
   63.8720   33.4360   48.7260 C   0  0  0  0  0  0  0  0  0  0  0  0
   63.0770   33.7900   49.8140 C   0  0  0  0  0  0  0  0  0  0  0  0
   61.7360   34.1220   49.6060 C   0  0  0  0  0  0  0  0  0  0  0  0
   61.2010   34.0920   48.3460 N   0  0  0  0  0  0  0  0  0  0  0  0
   59.7990   34.4780   48.1420 C   0  0  0  0  0  0  0  0  0  0  0  0
   59.2940   33.9150   46.8400 C   0  0  0  0  0  0  0  0  0  0  0  0
   59.0790   34.7600   45.7440 C   0  0  0  0  0  0  0  0  0  0  0  0
   58.6300   34.2390   44.5310 C   0  0  0  0  0  0  0  0  0  0  0  0
   58.3990   32.8620   44.3930 C   0  0  0  0  0  0  0  0  0  0  0  0
   58.6700   31.9900   45.4710 C   0  0  0  0  0  0  0  0  0  0  0  0
   59.0940   32.5340   46.6990 C   0  0  0  0  0  0  0  0  0  0  0  0
   58.4510   30.5230   45.2840 C   0  0  0  0  0  0  0  0  0  0  0  0
   59.0340   29.5960   46.1060 N   0  0  0  0  0  0  0  0  0  0  0  0
   58.8260   28.2570   45.9410 C   0  0  0  0  0  0  0  0  0  0  0  0
   59.4280   27.3290   46.8070 C   0  0  0  0  0  0  0  0  0  0  0  0
   59.2050   25.9600   46.6360 C   0  0  0  0  0  0  0  0  0  0  0  0
   58.3840   25.5060   45.6010 C   0  0  0  0  0  0  0  0  0  0  0  0
   57.7820   26.4170   44.7290 C   0  0  0  0  0  0  0  0  0  0  0  0
   58.0000   27.7940   44.8930 C   0  0  0  0  0  0  0  0  0  0  0  0
   57.4180   28.7220   44.0260 C   0  0  0  0  0  0  0  0  0  0  0  0
   57.6580   30.0890   44.2000 C   0  0  0  0  0  0  0  0  0  0  0  0
   57.0170   31.0950   43.2780 C   0  0  0  0  0  0  0  0  0  0  0  0
   57.9320   32.3070   43.0710 C   0  0  0  0  0  0  0  0  0  0  0  0
   61.9770   33.7560   47.2710 C   0  0  0  0  0  0  0  0  0  0  0  0
   64.9289   33.1711   48.8770 H   0  0  0  0  0  0  0  0  0  0  0  0
   63.5017   33.8079   50.8285 H   0  0  0  0  0  0  0  0  0  0  0  0
   61.1056   34.4095   50.4604 H   0  0  0  0  0  0  0  0  0  0  0  0
   59.1892   34.0860   48.9693 H   0  0  0  0  0  0  0  0  0  0  0  0
   59.7272   35.5753   48.1129 H   0  0  0  0  0  0  0  0  0  0  0  0
   59.2652   35.8398   45.8405 H   0  0  0  0  0  0  0  0  0  0  0  0
   58.4560   34.9111   43.6778 H   0  0  0  0  0  0  0  0  0  0  0  0
   59.2702   31.8684   47.5569 H   0  0  0  0  0  0  0  0  0  0  0  0
   59.6810   29.9040   46.8650 H   0  0  0  0  0  0  0  0  0  0  0  0
   60.0770   27.6811   47.6224 H   0  0  0  0  0  0  0  0  0  0  0  0
   59.6773   25.2379   47.3183 H   0  0  0  0  0  0  0  0  0  0  0  0
   58.2107   24.4274   45.4719 H   0  0  0  0  0  0  0  0  0  0  0  0
   57.1375   26.0552   43.9143 H   0  0  0  0  0  0  0  0  0  0  0  0
   56.7707   28.3775   43.2061 H   0  0  0  0  0  0  0  0  0  0  0  0
   56.8231   30.6197   42.3051 H   0  0  0  0  0  0  0  0  0  0  0  0
   56.0757   31.4384   43.7320 H   0  0  0  0  0  0  0  0  0  0  0  0
   58.8075   32.0003   42.4799 H   0  0  0  0  0  0  0  0  0  0  0  0
   57.3657   33.0882   42.5427 H   0  0  0  0  0  0  0  0  0  0  0  0
   61.5391   33.7510   46.2619 H   0  0  0  0  0  0  0  0  0  0  0  0
  1  2  1  0
  2  3  2  0
  3  4  1  0
  4  5  2  0
  5  6  1  0
  6  7  1  0
  7  8  1  0
  8  9  2  0
  9 10  1  0
 10 11  2  0
 11 12  1  0
 12 13  2  0
 12 14  1  0
 14 15  2  0
 15 16  1  0
 16 17  2  0
 17 18  1  0
 18 19  2  0
 19 20  1  0
 20 21  2  0
 21 22  1  0
 22 23  2  0
 23 24  1  0
 24 25  1  0
  6 26  2  0
 26  2  1  0
 13  8  1  0
 23 14  1  0
 25 11  1  0
 21 16  1  0
  3 27  1  0
  4 28  1  0
  5 29  1  0
  7 30  1  0
  7 31  1  0
  9 32  1  0
 10 33  1  0
 13 34  1  0
 15 35  1  0
 17 36  1  0
 18 37  1  0
 19 38  1  0
 20 39  1  0
 22 40  1  0
 24 41  1  0
 24 42  1  0
 25 43  1  0
 25 44  1  0
 26 45  1  0
M  CHG  2   6   1  15   1
M  END
>  <UniqueID>  (10) 
9

>  <SMILES>  (10) 
Fc1ccc[n+](Cc2ccc3c(c2)-c2[nH+]c4ccccc4cc2CC3)c1

>  <Energy>  (10) 
59.500779847517634

>  <Genealogy>  (10) 
Fc1ccc[n+](Cc2ccc3c(c2)-c2[nH+]c4ccccc4cc2CC3)c1 (protonated)
Fc1ccc[n+](Cc2ccc3c(c2)-c2[nH+]c4ccccc4cc2CC3)c1 (3D coordinates assigned)
Fc1ccc[n+](Cc2ccc3c(c2)-c2[nH+]c4ccccc4cc2CC3)c1 (nonaromatic ring conformer: 59.500779847517634 kcal/mol)

>  <smiles>  (10) 
Fc1ccc[n+](Cc2ccc3c(c2)-c2nc4ccccc4cc2CC3)c1

>  <score_type>  (10) 
oracle

>  <origin>  (10) 
adg

>  <m_score__min__energy>  (10) 
-6.5899999999999999

>  <m_primary>  (10) 
energy

$$$$
10:0
     RDKit          3D

 56 58  0  0  0  0  0  0  0  0999 V2000
   63.0220   32.5770   47.5270 C   0  0  0  0  0  0  0  0  0  0  0  0
   62.7540   32.1430   48.9770 C   0  0  0  0  0  0  0  0  0  0  0  0
   61.3880   31.6100   49.2070 N   0  0  0  0  0  0  0  0  0  0  0  0
   60.8650   31.8580   50.5730 C   0  0  0  0  0  0  0  0  0  0  0  0
   59.9510   33.0830   50.6210 C   0  0  0  0  0  0  0  0  0  0  0  0
   61.2770   30.1810   48.8310 C   0  0  0  0  0  0  0  0  0  0  0  0
   60.2850   30.0030   47.6710 C   0  0  0  0  0  0  0  0  0  0  0  0
   59.1010   30.8630   47.8490 N   0  0  0  0  0  0  0  0  0  0  0  0
   58.6850   31.4380   46.5770 C   0  0  0  0  0  0  0  0  0  0  0  0
   59.0460   32.7650   46.2250 C   0  0  0  0  0  0  0  0  0  0  0  0
   59.6790   33.6370   47.1440 C   0  0  0  0  0  0  0  0  0  0  0  0
   59.9990   34.9460   46.7910 C   0  0  0  0  0  0  0  0  0  0  0  0
   59.6840   35.4240   45.5280 C   0  0  0  0  0  0  0  0  0  0  0  0
   59.0600   34.5920   44.6030 C   0  0  0  0  0  0  0  0  0  0  0  0
   58.7520   33.2430   44.9160 C   0  0  0  0  0  0  0  0  0  0  0  0
   58.1650   32.4090   43.9870 N   0  0  0  0  0  0  0  0  0  0  0  0
   58.1710   32.7750   42.5540 C   0  0  0  0  0  0  0  0  0  0  0  0
   57.5880   31.2240   44.3940 C   0  0  0  0  0  0  0  0  0  0  0  0
   56.7060   30.5070   43.5460 C   0  0  0  0  0  0  0  0  0  0  0  0
   56.1520   29.2910   43.9390 C   0  0  0  0  0  0  0  0  0  0  0  0
   56.4360   28.7650   45.1990 C   0  0  0  0  0  0  0  0  0  0  0  0
   55.9230   27.4900   45.6100 N   0  0  0  0  0  0  0  0  0  0  0  0
   56.6710   26.4270   46.2150 C   0  0  0  0  0  0  0  0  0  0  0  0
   58.1570   26.3130   46.0620 C   0  0  0  0  0  0  0  0  0  0  0  0
   56.0520   25.5400   46.8610 O   0  0  0  0  0  0  0  0  0  0  0  0
   57.2860   29.4600   46.0580 C   0  0  0  0  0  0  0  0  0  0  0  0
   57.8600   30.7010   45.6870 C   0  0  0  0  0  0  0  0  0  0  0  0
   63.5999   33.5129   47.5253 H   0  0  0  0  0  0  0  0  0  0  0  0
   63.5931   31.7924   47.0090 H   0  0  0  0  0  0  0  0  0  0  0  0
   62.0647   32.7362   47.0090 H   0  0  0  0  0  0  0  0  0  0  0  0
   63.4796   31.3603   49.2431 H   0  0  0  0  0  0  0  0  0  0  0  0
   62.8526   33.0434   49.6011 H   0  0  0  0  0  0  0  0  0  0  0  0
   60.2950   30.9762   50.9009 H   0  0  0  0  0  0  0  0  0  0  0  0
   61.7218   32.0463   51.2367 H   0  0  0  0  0  0  0  0  0  0  0  0
   59.7513   33.3506   51.6691 H   0  0  0  0  0  0  0  0  0  0  0  0
   60.4420   33.9269   50.1142 H   0  0  0  0  0  0  0  0  0  0  0  0
   59.0023   32.8527   50.1142 H   0  0  0  0  0  0  0  0  0  0  0  0
   62.2655   29.8107   48.5215 H   0  0  0  0  0  0  0  0  0  0  0  0
   60.9129   29.6128   49.6996 H   0  0  0  0  0  0  0  0  0  0  0  0
   60.7839   30.2692   46.7275 H   0  0  0  0  0  0  0  0  0  0  0  0
   59.9551   28.9538   47.6511 H   0  0  0  0  0  0  0  0  0  0  0  0
   58.3230   30.3190   48.2860 H   0  0  0  0  0  0  0  0  0  0  0  0
   59.2880   31.6170   48.5470 H   0  0  0  0  0  0  0  0  0  0  0  0
   59.9221   33.2745   48.1537 H   0  0  0  0  0  0  0  0  0  0  0  0
   60.5029   35.6021   47.5160 H   0  0  0  0  0  0  0  0  0  0  0  0
   59.9275   36.4619   45.2569 H   0  0  0  0  0  0  0  0  0  0  0  0
   58.8007   34.9881   43.6101 H   0  0  0  0  0  0  0  0  0  0  0  0
   58.1890   33.8704   42.4554 H   0  0  0  0  0  0  0  0  0  0  0  0
   59.0623   32.3487   42.0704 H   0  0  0  0  0  0  0  0  0  0  0  0
   57.2662   32.3781   42.0704 H   0  0  0  0  0  0  0  0  0  0  0  0
   56.4543   30.9195   42.5578 H   0  0  0  0  0  0  0  0  0  0  0  0
   55.4883   28.7438   43.2533 H   0  0  0  0  0  0  0  0  0  0  0  0
   58.6263   26.2770   47.0562 H   0  0  0  0  0  0  0  0  0  0  0  0
   58.3992   25.3936   45.5087 H   0  0  0  0  0  0  0  0  0  0  0  0
   58.5366   27.1847   45.5087 H   0  0  0  0  0  0  0  0  0  0  0  0
   57.5162   29.0352   47.0462 H   0  0  0  0  0  0  0  0  0  0  0  0
  1  2  1  0
  2  3  1  0
  3  4  1  0
  4  5  1  0
  3  6  1  0
  6  7  1  0
  7  8  1  0
  8  9  1  0
  9 10  2  0
 10 11  1  0
 11 12  2  0
 12 13  1  0
 13 14  2  0
 14 15  1  0
 15 16  2  0
 16 17  1  0
 16 18  1  0
 18 19  2  0
 19 20  1  0
 20 21  2  0
 21 22  1  0
 22 23  1  0
 23 24  1  0
 23 25  2  0
 21 26  1  0
 26 27  2  0
 27  9  1  0
 15 10  1  0
 27 18  1  0
  1 28  1  0
  1 29  1  0
  1 30  1  0
  2 31  1  0
  2 32  1  0
  4 33  1  0
  4 34  1  0
  5 35  1  0
  5 36  1  0
  5 37  1  0
  6 38  1  0
  6 39  1  0
  7 40  1  0
  7 41  1  0
  8 42  1  0
  8 43  1  0
 11 44  1  0
 12 45  1  0
 13 46  1  0
 14 47  1  0
 17 48  1  0
 17 49  1  0
 17 50  1  0
 19 51  1  0
 20 52  1  0
 24 53  1  0
 24 54  1  0
 24 55  1  0
 26 56  1  0
M  CHG  3   8   1  16   1  22  -1
M  END
>  <UniqueID>  (11) 
10

>  <SMILES>  (11) 
CCN(CC)CC[NH2+]c1c2ccccc2[n+](C)c2ccc([N-]C(C)=O)cc12

>  <Energy>  (11) 
88.50943466928564

>  <Genealogy>  (11) 
CCN(CC)CC[NH2+]c1c2ccccc2[n+](C)c2ccc([N-]C(C)=O)cc12 (protonated)
CCN(CC)CC[NH2+]c1c2ccccc2[n+](C)c2ccc([N-]C(C)=O)cc12 (3D coordinates assigned)
CCN(CC)CC[NH2+]c1c2ccccc2[n+](C)c2ccc([N-]C(C)=O)cc12 (optimized conformer: 88.50943466928564 kcal/mol)

>  <smiles>  (11) 
CCN(CC)CCNc1c2ccccc2[n+](C)c2ccc(NC(C)=O)cc12

>  <score_type>  (11) 
oracle

>  <origin>  (11) 
adg

>  <m_score__min__energy>  (11) 
-7.2999999999999998

>  <m_primary>  (11) 
energy

$$$$
11:0
     RDKit          3D

 48 49  0  0  0  0  0  0  0  0999 V2000
   59.5580   33.0280   50.5730 C   0  0  0  0  0  0  0  0  0  0  0  0
   60.0770   34.1840   49.7230 C   0  0  0  0  0  0  0  0  0  0  0  0
   61.3720   33.8230   48.9840 C   0  0  0  0  0  0  0  0  0  0  0  0
   61.1000   33.4880   47.5630 N   0  0  0  0  0  0  0  0  0  0  0  0
   61.3200   32.0480   47.2840 C   0  0  0  0  0  0  0  0  0  0  0  0
   62.7890   31.6380   47.5070 C   0  0  0  0  0  0  0  0  0  0  0  0
   63.7220   32.7830   47.4220 N   0  0  0  0  0  0  0  0  0  0  0  0
   64.3470   33.1150   48.7170 C   0  0  0  0  0  0  0  0  0  0  0  0
   64.2260   31.9700   49.7260 C   0  0  0  0  0  0  0  0  0  0  0  0
   59.7780   33.9760   47.0730 C   0  0  1  0  0  0  0  0  0  0  0  0
   59.8600   34.7150   45.6960 C   0  0  0  0  0  0  0  0  0  0  0  0
   58.5710   34.5880   44.8780 C   0  0  0  0  0  0  0  0  0  0  0  0
   58.2480   33.1340   44.6880 C   0  0  0  0  0  0  0  0  0  0  0  0
   57.8420   32.6330   43.4410 C   0  0  0  0  0  0  0  0  0  0  0  0
   57.5560   31.2740   43.2930 C   0  0  0  0  0  0  0  0  0  0  0  0
   57.6660   30.4110   44.3890 C   0  0  0  0  0  0  0  0  0  0  0  0
   58.0570   30.9060   45.6360 C   0  0  0  0  0  0  0  0  0  0  0  0
   58.3580   32.2680   45.7880 C   0  0  0  0  0  0  0  0  0  0  0  0
   58.7190   32.8330   47.1390 C   0  0  0  0  0  0  0  0  0  0  0  0
   59.6699   33.2773   51.6385 H   0  0  0  0  0  0  0  0  0  0  0  0
   58.4956   32.8545   50.3466 H   0  0  0  0  0  0  0  0  0  0  0  0
   60.1343   32.1188   50.3466 H   0  0  0  0  0  0  0  0  0  0  0  0
   59.3092   34.4519   48.9823 H   0  0  0  0  0  0  0  0  0  0  0  0
   60.2952   35.0267   50.3955 H   0  0  0  0  0  0  0  0  0  0  0  0
   62.0605   34.6799   49.0258 H   0  0  0  0  0  0  0  0  0  0  0  0
   61.8193   32.9440   49.4711 H   0  0  0  0  0  0  0  0  0  0  0  0
   60.6795   31.4542   47.9526 H   0  0  0  0  0  0  0  0  0  0  0  0
   61.0705   31.8629   46.2288 H   0  0  0  0  0  0  0  0  0  0  0  0
   62.8797   31.1838   48.5047 H   0  0  0  0  0  0  0  0  0  0  0  0
   63.0601   30.9295   46.7105 H   0  0  0  0  0  0  0  0  0  0  0  0
   64.4800   32.5850   46.7270 H   0  0  0  0  0  0  0  0  0  0  0  0
   63.2070   33.6210   47.0620 H   0  0  0  0  0  0  0  0  0  0  0  0
   65.4129   33.3305   48.5514 H   0  0  0  0  0  0  0  0  0  0  0  0
   63.8226   33.9885   49.1318 H   0  0  0  0  0  0  0  0  0  0  0  0
   64.2689   32.3755   50.7476 H   0  0  0  0  0  0  0  0  0  0  0  0
   63.2679   31.4503   49.5777 H   0  0  0  0  0  0  0  0  0  0  0  0
   65.0543   31.2615   49.5777 H   0  0  0  0  0  0  0  0  0  0  0  0
   59.4299   34.7647   47.7562 H   0  0  0  0  0  0  0  0  0  0  0  0
   60.0559   35.7816   45.8804 H   0  0  0  0  0  0  0  0  0  0  0  0
   60.6687   34.2467   45.1157 H   0  0  0  0  0  0  0  0  0  0  0  0
   57.7459   35.0814   45.4126 H   0  0  0  0  0  0  0  0  0  0  0  0
   58.7069   35.0676   43.8974 H   0  0  0  0  0  0  0  0  0  0  0  0
   57.7491   33.3112   42.5800 H   0  0  0  0  0  0  0  0  0  0  0  0
   57.2440   30.8816   42.3139 H   0  0  0  0  0  0  0  0  0  0  0  0
   57.4442   29.3403   44.2687 H   0  0  0  0  0  0  0  0  0  0  0  0
   58.1288   30.2275   46.4988 H   0  0  0  0  0  0  0  0  0  0  0  0
   57.8057   33.2312   47.6051 H   0  0  0  0  0  0  0  0  0  0  0  0
   59.1632   32.0140   47.7238 H   0  0  0  0  0  0  0  0  0  0  0  0
  1  2  1  0
  2  3  1  0
  3  4  1  0
  4  5  1  0
  5  6  1  0
  6  7  1  0
  7  8  1  0
  8  9  1  0
  4 10  1  0
 10 11  1  0
 11 12  1  0
 12 13  1  0
 13 14  2  0
 14 15  1  0
 15 16  2  0
 16 17  1  0
 17 18  2  0
 18 19  1  0
 19 10  1  0
 18 13  1  0
  1 20  1  0
  1 21  1  0
  1 22  1  0
  2 23  1  0
  2 24  1  0
  3 25  1  0
  3 26  1  0
  5 27  1  0
  5 28  1  0
  6 29  1  0
  6 30  1  0
  7 31  1  0
  7 32  1  0
  8 33  1  0
  8 34  1  0
  9 35  1  0
  9 36  1  0
  9 37  1  0
 10 38  1  1
 11 39  1  0
 11 40  1  0
 12 41  1  0
 12 42  1  0
 14 43  1  0
 15 44  1  0
 16 45  1  0
 17 46  1  0
 19 47  1  0
 19 48  1  0
M  CHG  1   7   1
M  END
>  <UniqueID>  (12) 
11

>  <SMILES>  (12) 
CCCN(CC[NH2+]CC)[C@H]1CCc2ccccc2C1

>  <Energy>  (12) 
51.76106946779345

>  <Genealogy>  (12) 
CCCN(CC[NH2+]CC)C1CCc2ccccc2C1 (protonated)
CCCN(CC[NH2+]CC)[C@H]1CCc2ccccc2C1 (chirality)
CCCN(CC[NH2+]CC)[C@H]1CCc2ccccc2C1 (3D coordinates assigned)
CCCN(CC[NH2+]CC)[C@H]1CCc2ccccc2C1 (nonaromatic ring conformer: 51.76106946779345 kcal/mol)

>  <smiles>  (12) 
CCCN(CCNCC)C1CCc2ccccc2C1

>  <score_type>  (12) 
oracle

>  <origin>  (12) 
adg

>  <m_score__min__energy>  (12) 
-5.6900000000000004

>  <m_primary>  (12) 
energy

$$$$
12:0
     RDKit          3D

 46 48  0  0  0  0  0  0  0  0999 V2000
   59.6590   32.8940   49.9740 C   0  0  0  0  0  0  0  0  0  0  0  0
   61.0870   32.6090   50.4330 C   0  0  0  0  0  0  0  0  0  0  0  0
   61.6220   31.4180   49.7350 N   0  0  0  0  0  0  0  0  0  0  0  0
   63.1010   31.3780   49.8020 C   0  0  0  0  0  0  0  0  0  0  0  0
   63.7030   32.2770   48.7260 C   0  0  0  0  0  0  0  0  0  0  0  0
   61.0290   30.1700   50.2710 C   0  0  0  0  0  0  0  0  0  0  0  0
   60.4810   29.3120   49.1230 C   0  0  0  0  0  0  0  0  0  0  0  0
   61.0880   29.7000   47.8420 N   0  0  0  0  0  0  0  0  0  0  0  0
   60.1980   30.5750   47.1090 C   0  0  0  0  0  0  0  0  0  0  0  0
   60.5420   31.9320   46.9710 C   0  0  0  0  0  0  0  0  0  0  0  0
   59.7220   32.8220   46.2710 C   0  0  0  0  0  0  0  0  0  0  0  0
   60.0830   34.1750   46.1580 C   0  0  0  0  0  0  0  0  0  0  0  0
   59.2640   35.0660   45.4610 C   0  0  0  0  0  0  0  0  0  0  0  0
   58.0830   34.6160   44.8710 C   0  0  0  0  0  0  0  0  0  0  0  0
   57.7130   33.2730   44.9730 C   0  0  0  0  0  0  0  0  0  0  0  0
   58.5270   32.3610   45.6730 C   0  0  0  0  0  0  0  0  0  0  0  0
   58.1740   31.0020   45.7780 C   0  0  0  0  0  0  0  0  0  0  0  0
   57.0530   30.5640   45.2040 O   0  0  0  0  0  0  0  0  0  0  0  0
   56.6620   29.2970   45.2520 C   0  0  0  0  0  0  0  0  0  0  0  0
   55.5910   28.9530   44.6860 O   0  0  0  0  0  0  0  0  0  0  0  0
   57.4320   28.3470   45.9200 C   0  0  0  0  0  0  0  0  0  0  0  0
   58.6110   28.7500   46.5400 C   0  0  0  0  0  0  0  0  0  0  0  0
   59.0090   30.1000   46.4890 C   0  0  0  0  0  0  0  0  0  0  0  0
   59.0103   33.0235   50.8529 H   0  0  0  0  0  0  0  0  0  0  0  0
   59.6447   33.8127   49.3692 H   0  0  0  0  0  0  0  0  0  0  0  0
   59.2931   32.0512   49.3692 H   0  0  0  0  0  0  0  0  0  0  0  0
   61.7216   33.4784   50.2061 H   0  0  0  0  0  0  0  0  0  0  0  0
   61.0837   32.4180   51.5163 H   0  0  0  0  0  0  0  0  0  0  0  0
   63.4292   31.7270   50.7922 H   0  0  0  0  0  0  0  0  0  0  0  0
   63.4395   30.3446   49.6362 H   0  0  0  0  0  0  0  0  0  0  0  0
   64.2546   33.1007   49.2028 H   0  0  0  0  0  0  0  0  0  0  0  0
   64.3905   31.6895   48.0998 H   0  0  0  0  0  0  0  0  0  0  0  0
   62.8979   32.6889   48.0998 H   0  0  0  0  0  0  0  0  0  0  0  0
   61.8010   29.6035   50.8123 H   0  0  0  0  0  0  0  0  0  0  0  0
   60.2057   30.4266   50.9538 H   0  0  0  0  0  0  0  0  0  0  0  0
   60.7082   28.2546   49.3235 H   0  0  0  0  0  0  0  0  0  0  0  0
   59.3938   29.4657   49.0575 H   0  0  0  0  0  0  0  0  0  0  0  0
   61.2760   28.8350   47.2800 H   0  0  0  0  0  0  0  0  0  0  0  0
   62.0160   30.1590   47.9890 H   0  0  0  0  0  0  0  0  0  0  0  0
   61.4748   32.3002   47.4229 H   0  0  0  0  0  0  0  0  0  0  0  0
   61.0143   34.5340   46.6203 H   0  0  0  0  0  0  0  0  0  0  0  0
   59.5509   36.1246   45.3772 H   0  0  0  0  0  0  0  0  0  0  0  0
   57.4406   35.3213   44.3234 H   0  0  0  0  0  0  0  0  0  0  0  0
   56.7806   32.9255   44.5040 H   0  0  0  0  0  0  0  0  0  0  0  0
   57.1130   27.2949   45.9567 H   0  0  0  0  0  0  0  0  0  0  0  0
   59.2325   28.0135   47.0703 H   0  0  0  0  0  0  0  0  0  0  0  0
  1  2  1  0
  2  3  1  0
  3  4  1  0
  4  5  1  0
  3  6  1  0
  6  7  1  0
  7  8  1  0
  8  9  1  0
  9 10  2  0
 10 11  1  0
 11 12  2  0
 12 13  1  0
 13 14  2  0
 14 15  1  0
 15 16  2  0
 16 17  1  0
 17 18  1  0
 18 19  1  0
 19 20  2  0
 19 21  1  0
 21 22  2  0
 22 23  1  0
 23  9  1  0
 16 11  1  0
 23 17  2  0
  1 24  1  0
  1 25  1  0
  1 26  1  0
  2 27  1  0
  2 28  1  0
  4 29  1  0
  4 30  1  0
  5 31  1  0
  5 32  1  0
  5 33  1  0
  6 34  1  0
  6 35  1  0
  7 36  1  0
  7 37  1  0
  8 38  1  0
  8 39  1  0
 10 40  1  0
 12 41  1  0
 13 42  1  0
 14 43  1  0
 15 44  1  0
 21 45  1  0
 22 46  1  0
M  CHG  1   8   1
M  END
>  <UniqueID>  (13) 
12

>  <SMILES>  (13) 
CCN(CC)CC[NH2+]c1cc2ccccc2c2oc(=O)ccc12

>  <Energy>  (13) 
56.124983193609275

>  <Genealogy>  (13) 
CCN(CC)CC[NH2+]c1cc2ccccc2c2oc(=O)ccc12 (protonated)
CCN(CC)CC[NH2+]c1cc2ccccc2c2oc(=O)ccc12 (3D coordinates assigned)
CCN(CC)CC[NH2+]c1cc2ccccc2c2oc(=O)ccc12 (optimized conformer: 56.124983193609275 kcal/mol)

>  <smiles>  (13) 
CCN(CC)CCNc1cc2ccccc2c2oc(=O)ccc12

>  <score_type>  (13) 
oracle

>  <origin>  (13) 
adg

>  <m_score__min__energy>  (13) 
-5.3700000000000001

>  <m_primary>  (13) 
energy

$$$$
13:0
     RDKit          3D

 45 48  0  0  0  0  0  0  0  0999 V2000
   57.8070   23.3690   44.7020 C   0  0  0  0  0  0  0  0  0  0  0  0
   58.6060   23.8770   45.7650 O   0  0  0  0  0  0  0  0  0  0  0  0
   58.8790   25.2380   45.9690 C   0  0  0  0  0  0  0  0  0  0  0  0
   57.8470   26.1600   45.7680 C   0  0  0  0  0  0  0  0  0  0  0  0
   58.0660   27.5280   45.9570 C   0  0  0  0  0  0  0  0  0  0  0  0
   59.3300   28.0000   46.3550 C   0  0  0  0  0  0  0  0  0  0  0  0
   59.5860   29.4460   46.5620 C   0  0  0  0  0  0  0  0  0  0  0  0
   58.7250   30.4140   46.1870 N   0  0  0  0  0  0  0  0  0  0  0  0
   59.2810   31.5680   46.5250 N   0  0  0  0  0  0  0  0  0  0  0  0
   58.6850   32.8730   46.2070 C   0  0  0  0  0  0  0  0  0  0  0  0
   59.6670   33.7030   45.3510 C   0  0  0  0  0  0  0  0  0  0  0  0
   59.4000   35.2020   45.5220 C   0  0  0  0  0  0  0  0  0  0  0  0
   59.6040   35.6530   46.9140 N   0  0  0  0  0  0  0  0  0  0  0  0
   59.3420   34.6250   47.9410 C   0  0  0  0  0  0  0  0  0  0  0  0
   58.2710   33.6140   47.5020 C   0  0  0  0  0  0  0  0  0  0  0  0
   60.4710   31.2950   47.1120 C   0  0  0  0  0  0  0  0  0  0  0  0
   61.4250   32.2750   47.6600 C   0  0  0  0  0  0  0  0  0  0  0  0
   61.6190   32.5990   48.9990 C   0  0  0  0  0  0  0  0  0  0  0  0
   62.6650   33.5080   49.2040 C   0  0  0  0  0  0  0  0  0  0  0  0
   63.3120   33.8870   48.0360 C   0  0  0  0  0  0  0  0  0  0  0  0
   62.5840   33.0870   46.7500 S   0  0  0  0  0  0  0  0  0  0  0  0
   60.6920   29.9680   47.1350 N   0  0  0  0  0  0  0  0  0  0  0  0
   60.3650   27.0700   46.5570 C   0  0  0  0  0  0  0  0  0  0  0  0
   60.1440   25.7030   46.3670 C   0  0  0  0  0  0  0  0  0  0  0  0
   56.9477   22.8226   45.1180 H   0  0  0  0  0  0  0  0  0  0  0  0
   57.4461   24.2038   44.0833 H   0  0  0  0  0  0  0  0  0  0  0  0
   58.4098   22.6880   44.0833 H   0  0  0  0  0  0  0  0  0  0  0  0
   56.8529   25.8055   45.4581 H   0  0  0  0  0  0  0  0  0  0  0  0
   57.2439   28.2403   45.7933 H   0  0  0  0  0  0  0  0  0  0  0  0
   57.7691   32.7217   45.6169 H   0  0  0  0  0  0  0  0  0  0  0  0
   60.6973   33.4814   45.6663 H   0  0  0  0  0  0  0  0  0  0  0  0
   59.5263   33.4369   44.2930 H   0  0  0  0  0  0  0  0  0  0  0  0
   60.0838   35.7602   44.8656 H   0  0  0  0  0  0  0  0  0  0  0  0
   58.3484   35.3885   45.2587 H   0  0  0  0  0  0  0  0  0  0  0  0
   58.9680   36.4660   47.0870 H   0  0  0  0  0  0  0  0  0  0  0  0
   60.2772   34.0825   48.1437 H   0  0  0  0  0  0  0  0  0  0  0  0
   58.9690   35.1379   48.8398 H   0  0  0  0  0  0  0  0  0  0  0  0
   58.1259   32.8762   48.3048 H   0  0  0  0  0  0  0  0  0  0  0  0
   57.3397   34.1639   47.3015 H   0  0  0  0  0  0  0  0  0  0  0  0
   61.0112   32.1826   49.8158 H   0  0  0  0  0  0  0  0  0  0  0  0
   62.9472   33.8860   50.1977 H   0  0  0  0  0  0  0  0  0  0  0  0
   64.1554   34.5895   47.9645 H   0  0  0  0  0  0  0  0  0  0  0  0
   61.5240   29.4770   47.5270 H   0  0  0  0  0  0  0  0  0  0  0  0
   61.3596   27.4221   46.8680 H   0  0  0  0  0  0  0  0  0  0  0  0
   60.9639   24.9880   46.5297 H   0  0  0  0  0  0  0  0  0  0  0  0
  1  2  1  0
  2  3  1  0
  3  4  2  0
  4  5  1  0
  5  6  2  0
  6  7  1  0
  7  8  2  0
  8  9  1  0
  9 10  1  0
 10 11  1  0
 11 12  1  0
 12 13  1  0
 13 14  1  0
 14 15  1  0
  9 16  1  0
 16 17  1  0
 17 18  2  0
 18 19  1  0
 19 20  2  0
 20 21  1  0
 16 22  2  0
  6 23  1  0
 23 24  2  0
 24  3  1  0
 22  7  1  0
 15 10  1  0
 21 17  1  0
  1 25  1  0
  1 26  1  0
  1 27  1  0
  4 28  1  0
  5 29  1  0
 10 30  1  0
 11 31  1  0
 11 32  1  0
 12 33  1  0
 12 34  1  0
 13 35  1  0
 14 36  1  0
 14 37  1  0
 15 38  1  0
 15 39  1  0
 18 40  1  0
 19 41  1  0
 20 42  1  0
 22 43  1  0
 23 44  1  0
 24 45  1  0
M  CHG  1  22   1
M  END
>  <UniqueID>  (14) 
13

>  <SMILES>  (14) 
COc1ccc(-c2nn(C3CCNCC3)c(-c3cccs3)[nH+]2)cc1

>  <Energy>  (14) 
118.59166882343649

>  <Genealogy>  (14) 
COc1ccc(-c2nn(C3CCNCC3)c(-c3cccs3)[nH+]2)cc1 (protonated)
COc1ccc(-c2nn(C3CCNCC3)c(-c3cccs3)[nH+]2)cc1 (3D coordinates assigned)
COc1ccc(-c2nn(C3CCNCC3)c(-c3cccs3)[nH+]2)cc1 (nonaromatic ring conformer: 118.59166882343649 kcal/mol)

>  <smiles>  (14) 
COc1ccc(-c2nc(-c3cccs3)n(C3CCNCC3)n2)cc1

>  <score_type>  (14) 
oracle

>  <origin>  (14) 
adg

>  <m_score__min__energy>  (14) 
-5.8399999999999999

>  <m_primary>  (14) 
energy

$$$$
14:0
     RDKit          3D

 49 51  0  0  0  0  0  0  0  0999 V2000
   56.2810   29.6530   42.6780 C   0  0  0  0  0  0  0  0  0  0  0  0
   56.6410   29.3400   44.1270 C   0  0  0  0  0  0  0  0  0  0  0  0
   56.6230   30.5240   44.9020 O   0  0  0  0  0  0  0  0  0  0  0  0
   57.0200   31.6350   44.1230 C   0  0  0  0  0  0  0  0  0  0  0  0
   57.3920   32.7960   45.0450 C   0  0  0  0  0  0  0  0  0  0  0  0
   57.7670   32.3040   46.3780 N   0  0  0  0  0  0  0  0  0  0  0  0
   57.8330   33.3920   47.3590 C   0  0  0  0  0  0  0  0  0  0  0  0
   59.2610   33.5790   47.7960 C   0  0  0  0  0  0  0  0  0  0  0  0
   59.7580   33.3410   49.0790 C   0  0  0  0  0  0  0  0  0  0  0  0
   59.0060   32.9840   50.2470 N   0  0  0  0  0  0  0  0  0  0  0  0
   59.0400   33.6080   51.4400 C   0  0  0  0  0  0  0  0  0  0  0  0
   58.1980   32.9640   52.3240 C   0  0  0  0  0  0  0  0  0  0  0  0
   57.6390   31.9040   51.6360 C   0  0  0  0  0  0  0  0  0  0  0  0
   58.1610   31.9400   50.3600 C   0  0  0  0  0  0  0  0  0  0  0  0
   61.1320   33.4280   48.9890 C   0  0  0  0  0  0  0  0  0  0  0  0
   62.1270   33.2700   49.9520 C   0  0  0  0  0  0  0  0  0  0  0  0
   63.4770   33.4030   49.5450 C   0  0  0  0  0  0  0  0  0  0  0  0
   64.5460   33.2670   50.4420 O   0  0  0  0  0  0  0  0  0  0  0  0
   65.8080   32.6970   50.1060 C   0  0  0  0  0  0  0  0  0  0  0  0
   63.7730   33.6840   48.1910 C   0  0  0  0  0  0  0  0  0  0  0  0
   62.7460   33.8410   47.2440 C   0  0  0  0  0  0  0  0  0  0  0  0
   61.4240   33.7180   47.6790 C   0  0  0  0  0  0  0  0  0  0  0  0
   60.2950   33.8200   46.9430 N   0  0  0  0  0  0  0  0  0  0  0  0
   60.2290   33.9900   45.4890 C   0  0  0  0  0  0  0  0  0  0  0  0
   55.4511   30.3746   42.6540 H   0  0  0  0  0  0  0  0  0  0  0  0
   57.1555   30.0829   42.1676 H   0  0  0  0  0  0  0  0  0  0  0  0
   55.9769   28.7273   42.1676 H   0  0  0  0  0  0  0  0  0  0  0  0
   55.9109   28.6265   44.5367 H   0  0  0  0  0  0  0  0  0  0  0  0
   57.6508   28.9049   44.1599 H   0  0  0  0  0  0  0  0  0  0  0  0
   57.8907   31.3604   43.5094 H   0  0  0  0  0  0  0  0  0  0  0  0
   56.1907   31.9384   43.4671 H   0  0  0  0  0  0  0  0  0  0  0  0
   58.2413   33.3437   44.6106 H   0  0  0  0  0  0  0  0  0  0  0  0
   56.5203   33.4592   45.1462 H   0  0  0  0  0  0  0  0  0  0  0  0
   57.0240   31.6370   46.6960 H   0  0  0  0  0  0  0  0  0  0  0  0
   57.4633   34.3219   46.9023 H   0  0  0  0  0  0  0  0  0  0  0  0
   57.2098   33.1420   48.2303 H   0  0  0  0  0  0  0  0  0  0  0  0
   59.6463   34.4955   51.6742 H   0  0  0  0  0  0  0  0  0  0  0  0
   58.0089   33.2406   53.3717 H   0  0  0  0  0  0  0  0  0  0  0  0
   56.9174   31.1731   52.0298 H   0  0  0  0  0  0  0  0  0  0  0  0
   57.9240   31.2261   49.5574 H   0  0  0  0  0  0  0  0  0  0  0  0
   61.8710   33.0483   50.9986 H   0  0  0  0  0  0  0  0  0  0  0  0
   66.3556   32.4497   51.0274 H   0  0  0  0  0  0  0  0  0  0  0  0
   65.6516   31.7821   49.5156 H   0  0  0  0  0  0  0  0  0  0  0  0
   66.3910   33.4192   49.5156 H   0  0  0  0  0  0  0  0  0  0  0  0
   64.8219   33.7811   47.8743 H   0  0  0  0  0  0  0  0  0  0  0  0
   62.9768   34.0547   46.1899 H   0  0  0  0  0  0  0  0  0  0  0  0
   59.8401   34.9918   45.2542 H   0  0  0  0  0  0  0  0  0  0  0  0
   61.2360   33.8779   45.0606 H   0  0  0  0  0  0  0  0  0  0  0  0
   59.5614   33.2279   45.0606 H   0  0  0  0  0  0  0  0  0  0  0  0
  1  2  1  0
  2  3  1  0
  3  4  1  0
  4  5  1  0
  5  6  1  0
  6  7  1  0
  7  8  1  0
  8  9  2  0
  9 10  1  0
 10 11  1  0
 11 12  2  0
 12 13  1  0
 13 14  2  0
  9 15  1  0
 15 16  2  0
 16 17  1  0
 17 18  1  0
 18 19  1  0
 17 20  2  0
 20 21  1  0
 21 22  2  0
 22 23  1  0
 23 24  1  0
 23  8  1  0
 14 10  1  0
 22 15  1  0
  1 25  1  0
  1 26  1  0
  1 27  1  0
  2 28  1  0
  2 29  1  0
  4 30  1  0
  4 31  1  0
  5 32  1  0
  5 33  1  0
  6 34  1  0
  7 35  1  0
  7 36  1  0
 11 37  1  0
 12 38  1  0
 13 39  1  0
 14 40  1  0
 16 41  1  0
 19 42  1  0
 19 43  1  0
 19 44  1  0
 20 45  1  0
 21 46  1  0
 24 47  1  0
 24 48  1  0
 24 49  1  0
M  END
>  <UniqueID>  (15) 
14

>  <SMILES>  (15) 
CCOCCNCc1c(-n2cccc2)c2cc(OC)ccc2n1C

>  <Energy>  (15) 
110.75711115853282

>  <Genealogy>  (15) 
CCOCCNCc1c(-n2cccc2)c2cc(OC)ccc2n1C (3D coordinates assigned)
CCOCCNCc1c(-n2cccc2)c2cc(OC)ccc2n1C (optimized conformer: 110.75711115853282 kcal/mol)

>  <smiles>  (15) 
CCOCCNCc1c(-n2cccc2)c2cc(OC)ccc2n1C

>  <score_type>  (15) 
oracle

>  <origin>  (15) 
adg

>  <m_score__min__energy>  (15) 
-6.8399999999999999

>  <m_primary>  (15) 
energy

$$$$
15:0
     RDKit          3D

 54 56  0  0  0  0  0  0  0  0999 V2000
   58.2310   34.3070   45.1310 C   0  0  0  0  0  0  0  0  0  0  0  0
   58.5760   34.4480   46.6140 C   0  0  0  0  0  0  0  0  0  0  0  0
   60.0210   34.9500   46.8040 C   0  0  0  0  0  0  0  0  0  0  0  0
   60.9470   33.8640   47.2350 N   0  0  0  0  0  0  0  0  0  0  0  0
   62.1550   33.8320   46.3590 C   0  0  0  0  0  0  0  0  0  0  0  0
   63.4750   33.4470   47.0660 C   0  0  0  0  0  0  0  0  0  0  0  0
   63.5370   31.9710   47.4610 C   0  0  0  0  0  0  0  0  0  0  0  0
   61.1620   33.8780   48.7220 C   0  0  0  0  0  0  0  0  0  0  0  0
   60.0970   33.2330   49.5850 C   0  0  0  0  0  0  0  0  0  0  0  0
   59.2750   34.0000   50.8560 S   0  0  0  0  0  0  0  0  0  0  0  0
   58.4600   32.6310   51.3800 C   0  0  0  0  0  0  0  0  0  0  0  0
   57.5640   32.5180   52.4400 C   0  0  0  0  0  0  0  0  0  0  0  0
   57.0360   31.2510   52.7260 C   0  0  0  0  0  0  0  0  0  0  0  0
   57.4280   30.1290   51.9710 C   0  0  0  0  0  0  0  0  0  0  0  0
   56.9130   28.9060   52.2560 F   0  0  0  0  0  0  0  0  0  0  0  0
   58.3470   30.2670   50.9210 C   0  0  0  0  0  0  0  0  0  0  0  0
   58.8530   31.5420   50.6200 C   0  0  0  0  0  0  0  0  0  0  0  0
   59.7940   31.8570   49.6270 C   0  0  0  0  0  0  0  0  0  0  0  0
   60.6980   30.5810   48.7140 S   0  0  0  0  0  0  0  0  0  0  0  0
   59.3900   30.2550   47.5290 C   0  0  0  0  0  0  0  0  0  0  0  0
   58.9300   28.9510   47.3050 C   0  0  0  0  0  0  0  0  0  0  0  0
   57.9040   28.7150   46.3820 C   0  0  0  0  0  0  0  0  0  0  0  0
   57.3430   29.7840   45.6570 C   0  0  0  0  0  0  0  0  0  0  0  0
   56.3090   29.6080   44.7250 O   0  0  0  0  0  0  0  0  0  0  0  0
   56.4600   29.7640   43.3180 C   0  0  0  0  0  0  0  0  0  0  0  0
   57.8310   31.0810   45.8670 C   0  0  0  0  0  0  0  0  0  0  0  0
   58.8550   31.3150   46.7870 C   0  0  0  0  0  0  0  0  0  0  0  0
   57.2172   33.8927   45.0282 H   0  0  0  0  0  0  0  0  0  0  0  0
   58.2740   35.2948   44.6490 H   0  0  0  0  0  0  0  0  0  0  0  0
   58.9536   33.6321   44.6490 H   0  0  0  0  0  0  0  0  0  0  0  0
   57.8829   35.1657   47.0771 H   0  0  0  0  0  0  0  0  0  0  0  0
   58.4849   33.4599   47.0887 H   0  0  0  0  0  0  0  0  0  0  0  0
   60.3801   35.3626   45.8497 H   0  0  0  0  0  0  0  0  0  0  0  0
   60.0095   35.7149   47.5945 H   0  0  0  0  0  0  0  0  0  0  0  0
   60.4570   32.9600   47.0250 H   0  0  0  0  0  0  0  0  0  0  0  0
   61.9737   33.1014   45.5569 H   0  0  0  0  0  0  0  0  0  0  0  0
   62.2940   34.8609   45.9955 H   0  0  0  0  0  0  0  0  0  0  0  0
   64.3121   33.6625   46.3856 H   0  0  0  0  0  0  0  0  0  0  0  0
   63.5342   34.0367   47.9927 H   0  0  0  0  0  0  0  0  0  0  0  0
   63.5406   31.8847   48.5576 H   0  0  0  0  0  0  0  0  0  0  0  0
   62.6601   31.4456   47.0548 H   0  0  0  0  0  0  0  0  0  0  0  0
   64.4548   31.5210   47.0548 H   0  0  0  0  0  0  0  0  0  0  0  0
   62.1101   33.3578   48.9235 H   0  0  0  0  0  0  0  0  0  0  0  0
   61.1435   34.9422   48.9996 H   0  0  0  0  0  0  0  0  0  0  0  0
   57.2787   33.3975   53.0358 H   0  0  0  0  0  0  0  0  0  0  0  0
   56.3113   31.1328   53.5450 H   0  0  0  0  0  0  0  0  0  0  0  0
   58.6672   29.3888   50.3411 H   0  0  0  0  0  0  0  0  0  0  0  0
   59.3762   28.1099   47.8559 H   0  0  0  0  0  0  0  0  0  0  0  0
   57.5349   27.6911   46.2226 H   0  0  0  0  0  0  0  0  0  0  0  0
   57.2117   30.5406   43.1138 H   0  0  0  0  0  0  0  0  0  0  0  0
   56.7878   28.8113   42.8765 H   0  0  0  0  0  0  0  0  0  0  0  0
   55.4971   30.0606   42.8765 H   0  0  0  0  0  0  0  0  0  0  0  0
   57.4034   31.9223   45.3019 H   0  0  0  0  0  0  0  0  0  0  0  0
   59.2423   32.3347   46.9292 H   0  0  0  0  0  0  0  0  0  0  0  0
  1  2  1  0
  2  3  1  0
  3  4  1  0
  4  5  1  0
  5  6  1  0
  6  7  1  0
  4  8  1  0
  8  9  1  0
  9 10  1  0
 10 11  1  0
 11 12  2  0
 12 13  1  0
 13 14  2  0
 14 15  1  0
 14 16  1  0
 16 17  2  0
 17 18  1  0
 18 19  1  0
 19 20  1  0
 20 21  2  0
 21 22  1  0
 22 23  2  0
 23 24  1  0
 24 25  1  0
 23 26  1  0
 26 27  2  0
 18  9  2  0
 27 20  1  0
 17 11  1  0
  1 28  1  0
  1 29  1  0
  1 30  1  0
  2 31  1  0
  2 32  1  0
  3 33  1  0
  3 34  1  0
  4 35  1  0
  5 36  1  0
  5 37  1  0
  6 38  1  0
  6 39  1  0
  7 40  1  0
  7 41  1  0
  7 42  1  0
  8 43  1  0
  8 44  1  0
 12 45  1  0
 13 46  1  0
 16 47  1  0
 21 48  1  0
 22 49  1  0
 25 50  1  0
 25 51  1  0
 25 52  1  0
 26 53  1  0
 27 54  1  0
M  CHG  1   4   1
M  END
>  <UniqueID>  (16) 
15

>  <SMILES>  (16) 
CCC[NH+](CCC)Cc1sc2ccc(F)cc2c1Sc1ccc(OC)cc1

>  <Energy>  (16) 
89.9659721097927

>  <Genealogy>  (16) 
CCC[NH+](CCC)Cc1sc2ccc(F)cc2c1Sc1ccc(OC)cc1 (protonated)
CCC[NH+](CCC)Cc1sc2ccc(F)cc2c1Sc1ccc(OC)cc1 (3D coordinates assigned)
CCC[NH+](CCC)Cc1sc2ccc(F)cc2c1Sc1ccc(OC)cc1 (optimized conformer: 89.9659721097927 kcal/mol)

>  <smiles>  (16) 
CCCN(CCC)Cc1sc2ccc(F)cc2c1Sc1ccc(OC)cc1

>  <score_type>  (16) 
oracle

>  <origin>  (16) 
adg

>  <m_score__min__energy>  (16) 
-5.9900000000000002

>  <m_primary>  (16) 
energy

$$$$
16:0
     RDKit          3D

 87 88  0  0  0  0  0  0  0  0999 V2000
   61.2939   32.5946   46.9017 H   0  0  0  0  0  0  0  0  0  0  0  0
   61.7170   31.6150   47.1690 C   0  0  0  0  0  0  0  0  0  0  0  0
   60.8630   30.6340   47.5240 C   0  0  0  0  0  0  0  0  0  0  0  0
   60.0290   29.9900   46.4820 C   0  0  0  0  0  0  0  0  0  0  0  0
   59.9590   28.5890   46.4080 C   0  0  0  0  0  0  0  0  0  0  0  0
   60.5423   27.9756   47.1105 H   0  0  0  0  0  0  0  0  0  0  0  0
   59.1550   27.9690   45.4500 C   0  0  0  0  0  0  0  0  0  0  0  0
   59.0996   26.8713   45.4056 H   0  0  0  0  0  0  0  0  0  0  0  0
   58.4210   28.7420   44.5480 C   0  0  0  0  0  0  0  0  0  0  0  0
   57.7886   28.2518   43.7932 H   0  0  0  0  0  0  0  0  0  0  0  0
   58.4880   30.1380   44.6020 C   0  0  0  0  0  0  0  0  0  0  0  0
   57.9099   30.7413   43.8866 H   0  0  0  0  0  0  0  0  0  0  0  0
   59.2930   30.7770   45.5690 C   0  0  0  0  0  0  0  0  0  0  0  0
   59.3890   32.1760   45.6510 O   0  0  0  0  0  0  0  0  0  0  0  0
   58.4760   33.0870   45.0510 C   0  0  0  0  0  0  0  0  0  0  0  0
   59.0025   33.6944   44.3001 H   0  0  0  0  0  0  0  0  0  0  0  0
   57.6641   32.5284   44.5624 H   0  0  0  0  0  0  0  0  0  0  0  0
   57.8920   34.0030   46.1340 C   0  0  0  0  0  0  0  0  0  0  0  0
   57.1039   34.6208   45.6788 H   0  0  0  0  0  0  0  0  0  0  0  0
   57.5055   33.3523   46.9322 H   0  0  0  0  0  0  0  0  0  0  0  0
   58.9330   34.9390   46.7790 C   0  0  0  0  0  0  0  0  0  0  0  0
   59.5390   35.3782   45.9729 H   0  0  0  0  0  0  0  0  0  0  0  0
   58.3575   35.6785   47.3552 H   0  0  0  0  0  0  0  0  0  0  0  0
   59.8970   34.2700   47.7900 C   0  0  0  0  0  0  0  0  0  0  0  0
   60.6203   33.6660   47.2225 H   0  0  0  0  0  0  0  0  0  0  0  0
   60.3608   35.0893   48.3589 H   0  0  0  0  0  0  0  0  0  0  0  0
   59.2220   33.3540   48.8300 C   0  0  0  0  0  0  0  0  0  0  0  0
   58.1337   33.4760   48.7270 H   0  0  0  0  0  0  0  0  0  0  0  0
   59.5901   32.3411   48.6095 H   0  0  0  0  0  0  0  0  0  0  0  0
   59.5850   33.6090   50.3080 C   0  0  0  0  0  0  0  0  0  0  0  0
   60.5980   34.0369   50.3358 H   0  0  0  0  0  0  0  0  0  0  0  0
   58.8006   34.2773   50.6928 H   0  0  0  0  0  0  0  0  0  0  0  0
   59.5690   32.3770   51.2350 C   0  0  0  0  0  0  0  0  0  0  0  0
   60.4576   31.7682   51.0119 H   0  0  0  0  0  0  0  0  0  0  0  0
   59.5574   32.7623   52.2652 H   0  0  0  0  0  0  0  0  0  0  0  0
   58.3240   31.4810   51.0900 C   0  0  0  0  0  0  0  0  0  0  0  0
   57.7496   31.8121   50.2123 H   0  0  0  0  0  0  0  0  0  0  0  0
   58.6672   30.4422   50.9754 H   0  0  0  0  0  0  0  0  0  0  0  0
   57.4130   31.5440   52.3320 C   0  0  0  0  0  0  0  0  0  0  0  0
   58.0410   31.4183   53.2263 H   0  0  0  0  0  0  0  0  0  0  0  0
   56.9042   32.5187   52.2997 H   0  0  0  0  0  0  0  0  0  0  0  0
   56.3130   30.4760   52.3640 C   0  0  0  0  0  0  0  0  0  0  0  0
   56.7329   29.5171   52.0259 H   0  0  0  0  0  0  0  0  0  0  0  0
   55.9376   30.3908   53.3944 H   0  0  0  0  0  0  0  0  0  0  0  0
   55.2260   30.8350   51.5130 O   0  0  0  0  0  0  0  0  0  0  0  0
   53.8740   30.7140   51.8540 C   0  0  0  0  0  0  0  0  0  0  0  0
   52.9760   31.7910   51.7620 C   0  0  0  0  0  0  0  0  0  0  0  0
   53.3362   32.7724   51.4197 H   0  0  0  0  0  0  0  0  0  0  0  0
   51.6300   31.6280   52.1010 C   0  0  0  0  0  0  0  0  0  0  0  0
   50.7820   32.7430   51.9910 O   0  0  0  0  0  0  0  0  0  0  0  0
   50.2840   33.4910   53.0940 C   0  0  0  0  0  0  0  0  0  0  0  0
   50.6012   33.0145   54.0333 H   0  0  0  0  0  0  0  0  0  0  0  0
   50.6805   34.5162   53.0507 H   0  0  0  0  0  0  0  0  0  0  0  0
   49.1853   33.5207   53.0507 H   0  0  0  0  0  0  0  0  0  0  0  0
   51.1710   30.3660   52.5260 C   0  0  0  0  0  0  0  0  0  0  0  0
   50.1090   30.2273   52.7770 H   0  0  0  0  0  0  0  0  0  0  0  0
   52.0550   29.2890   52.6310 C   0  0  0  0  0  0  0  0  0  0  0  0
   51.5480   28.0570   53.0700 O   0  0  0  0  0  0  0  0  0  0  0  0
   52.3540   26.9520   53.4650 C   0  0  0  0  0  0  0  0  0  0  0  0
   52.3920   26.8999   54.5631 H   0  0  0  0  0  0  0  0  0  0  0  0
   51.9208   26.0219   53.0686 H   0  0  0  0  0  0  0  0  0  0  0  0
   53.3720   27.0804   53.0686 H   0  0  0  0  0  0  0  0  0  0  0  0
   53.4110   29.4700   52.2940 C   0  0  0  0  0  0  0  0  0  0  0  0
   54.1112   28.6258   52.3777 H   0  0  0  0  0  0  0  0  0  0  0  0
   60.6940   30.1980   48.9590 C   0  0  0  0  0  0  0  0  0  0  0  0
   61.0093   31.0115   49.6289 H   0  0  0  0  0  0  0  0  0  0  0  0
   59.6373   29.9570   49.1470 H   0  0  0  0  0  0  0  0  0  0  0  0
   61.3122   29.3078   49.1470 H   0  0  0  0  0  0  0  0  0  0  0  0
   63.2190   31.4540   47.1150 C   0  0  0  0  0  0  0  0  0  0  0  0
   63.5496   31.5131   46.0675 H   0  0  0  0  0  0  0  0  0  0  0  0
   63.4825   30.4777   47.5480 H   0  0  0  0  0  0  0  0  0  0  0  0
   63.8980   32.5190   47.9000 N   0  0  0  0  0  0  0  0  0  0  0  0
   64.8440   32.6900   47.4840 H   0  0  0  0  0  0  0  0  0  0  0  0
   64.0730   32.0890   49.3200 C   0  0  0  0  0  0  0  0  0  0  0  0
   63.9306   31.0001   49.3827 H   0  0  0  0  0  0  0  0  0  0  0  0
   63.3297   32.6200   49.9328 H   0  0  0  0  0  0  0  0  0  0  0  0
   65.4720   32.4400   49.8530 C   0  0  0  0  0  0  0  0  0  0  0  0
   65.4569   32.4362   50.9529 H   0  0  0  0  0  0  0  0  0  0  0  0
   66.1985   31.6963   49.4937 H   0  0  0  0  0  0  0  0  0  0  0  0
   65.7614   33.4386   49.4937 H   0  0  0  0  0  0  0  0  0  0  0  0
   63.1300   33.7910   47.8410 C   0  0  0  0  0  0  0  0  0  0  0  0
   63.7371   34.5468   47.3211 H   0  0  0  0  0  0  0  0  0  0  0  0
   62.1903   33.5917   47.3051 H   0  0  0  0  0  0  0  0  0  0  0  0
   62.7710   34.3210   49.2360 C   0  0  0  0  0  0  0  0  0  0  0  0
   63.2139   33.6672   50.0018 H   0  0  0  0  0  0  0  0  0  0  0  0
   63.1645   35.3415   49.3530 H   0  0  0  0  0  0  0  0  0  0  0  0
   61.6773   34.3341   49.3530 H   0  0  0  0  0  0  0  0  0  0  0  0
  1  2  1  0
  2  3  2  0
  3  4  1  0
  4  5  2  0
  5  6  1  0
  5  7  1  0
  7  8  1  0
  7  9  2  0
  9 10  1  0
  9 11  1  0
 11 12  1  0
 11 13  2  0
 13 14  1  0
 14 15  1  0
 15 16  1  0
 15 17  1  0
 15 18  1  0
 18 19  1  0
 18 20  1  0
 18 21  1  0
 21 22  1  0
 21 23  1  0
 21 24  1  0
 24 25  1  0
 24 26  1  0
 24 27  1  0
 27 28  1  0
 27 29  1  0
 27 30  1  0
 30 31  1  0
 30 32  1  0
 30 33  1  0
 33 34  1  0
 33 35  1  0
 33 36  1  0
 36 37  1  0
 36 38  1  0
 36 39  1  0
 39 40  1  0
 39 41  1  0
 39 42  1  0
 42 43  1  0
 42 44  1  0
 42 45  1  0
 45 46  1  0
 46 47  2  0
 47 48  1  0
 47 49  1  0
 49 50  1  0
 50 51  1  0
 51 52  1  0
 51 53  1  0
 51 54  1  0
 49 55  2  0
 55 56  1  0
 55 57  1  0
 57 58  1  0
 58 59  1  0
 59 60  1  0
 59 61  1  0
 59 62  1  0
 57 63  2  0
 63 64  1  0
  3 65  1  0
 65 66  1  0
 65 67  1  0
 65 68  1  0
  2 69  1  0
 69 70  1  0
 69 71  1  0
 69 72  1  0
 72 73  1  0
 72 74  1  0
 74 75  1  0
 74 76  1  0
 74 77  1  0
 77 78  1  0
 77 79  1  0
 77 80  1  0
 72 81  1  0
 81 82  1  0
 81 83  1  0
 81 84  1  0
 84 85  1  0
 84 86  1  0
 84 87  1  0
 13  4  1  0
 63 46  1  0
M  CHG  1  72   1
M  END
>  <UniqueID>  (17) 
16

>  <SMILES>  (17) 
CC[NH+](CC)C/C=C(\C)c1ccccc1OCCCCCCCCCCOc1cc(OC)cc(OC)c1

>  <Energy>  (17) 
78.95393980397051

>  <Genealogy>  (17) 
CC[NH+](CC)CC=C(C)c1ccccc1OCCCCCCCCCCOc1cc(OC)cc(OC)c1 (protonated)
CC[NH+](CC)C/C=C(\C)c1ccccc1OCCCCCCCCCCOc1cc(OC)cc(OC)c1 (cis-trans isomerization)
CC[NH+](CC)C/C=C(\C)c1ccccc1OCCCCCCCCCCOc1cc(OC)cc(OC)c1 (3D coordinates assigned)
CC[NH+](CC)C/C=C(\C)c1ccccc1OCCCCCCCCCCOc1cc(OC)cc(OC)c1 (optimized conformer: 78.95393980397051 kcal/mol)

>  <smiles>  (17) 
CCN(CC)CC=C(C)c1ccccc1OCCCCCCCCCCOc1cc(OC)cc(OC)c1

>  <score_type>  (17) 
oracle

>  <origin>  (17) 
adg

>  <m_score__min__energy>  (17) 
-6.6500000000000004

>  <m_primary>  (17) 
energy

$$$$
17:0
     RDKit          3D

 39 41  0  0  0  0  0  0  0  0999 V2000
   57.0350   21.8850   46.0840 C   0  0  0  0  0  0  0  0  0  0  0  0
   57.3860   22.9580   46.9520 O   0  0  0  0  0  0  0  0  0  0  0  0
   57.8160   24.2210   46.5170 C   0  0  0  0  0  0  0  0  0  0  0  0
   59.1750   24.5230   46.3020 C   0  0  0  0  0  0  0  0  0  0  0  0
   59.5570   25.7950   45.8670 C   0  0  0  0  0  0  0  0  0  0  0  0
   58.5860   26.7820   45.6430 C   0  0  0  0  0  0  0  0  0  0  0  0
   58.9410   28.0640   45.2080 C   0  0  0  0  0  0  0  0  0  0  0  0
   57.9510   29.0370   45.0020 C   0  0  0  0  0  0  0  0  0  0  0  0
   58.3310   30.4240   44.5440 C   0  0  0  0  0  0  0  0  0  0  0  0
   57.6200   31.4400   45.3220 N   0  0  0  0  0  0  0  0  0  0  0  0
   58.2020   32.6830   45.7610 C   0  0  0  0  0  0  0  0  0  0  0  0
   58.6560   33.6600   44.8560 C   0  0  0  0  0  0  0  0  0  0  0  0
   59.2150   34.8460   45.3300 C   0  0  0  0  0  0  0  0  0  0  0  0
   59.3150   35.0550   46.7060 C   0  0  0  0  0  0  0  0  0  0  0  0
   58.8660   34.1080   47.5710 N   0  0  0  0  0  0  0  0  0  0  0  0
   58.3160   32.9440   47.1350 C   0  0  0  0  0  0  0  0  0  0  0  0
   56.6020   28.6920   45.2160 C   0  0  0  0  0  0  0  0  0  0  0  0
   55.5970   29.6400   44.9970 O   0  0  0  0  0  0  0  0  0  0  0  0
   55.2150   30.0730   43.6970 C   0  0  0  0  0  0  0  0  0  0  0  0
   56.2820   27.4360   45.6360 N   0  0  0  0  0  0  0  0  0  0  0  0
   57.2260   26.4840   45.8560 C   0  0  0  0  0  0  0  0  0  0  0  0
   56.8490   25.2090   46.2900 C   0  0  0  0  0  0  0  0  0  0  0  0
   56.7481   21.0079   46.6827 H   0  0  0  0  0  0  0  0  0  0  0  0
   56.1893   22.1884   45.4494 H   0  0  0  0  0  0  0  0  0  0  0  0
   57.8965   21.6299   45.4494 H   0  0  0  0  0  0  0  0  0  0  0  0
   59.9404   23.7527   46.4776 H   0  0  0  0  0  0  0  0  0  0  0  0
   60.6202   26.0223   45.7001 H   0  0  0  0  0  0  0  0  0  0  0  0
   59.9979   28.3093   45.0273 H   0  0  0  0  0  0  0  0  0  0  0  0
   59.4145   30.5628   44.6739 H   0  0  0  0  0  0  0  0  0  0  0  0
   58.0559   30.5338   43.4846 H   0  0  0  0  0  0  0  0  0  0  0  0
   56.6440   31.2160   45.6210 H   0  0  0  0  0  0  0  0  0  0  0  0
   58.5698   33.4878   43.7730 H   0  0  0  0  0  0  0  0  0  0  0  0
   59.5741   35.6104   44.6253 H   0  0  0  0  0  0  0  0  0  0  0  0
   59.7571   35.9860   47.0904 H   0  0  0  0  0  0  0  0  0  0  0  0
   57.9580   32.2019   47.8638 H   0  0  0  0  0  0  0  0  0  0  0  0
   54.4895   30.8954   43.7829 H   0  0  0  0  0  0  0  0  0  0  0  0
   56.1036   30.4234   43.1514 H   0  0  0  0  0  0  0  0  0  0  0  0
   54.7565   29.2351   43.1514 H   0  0  0  0  0  0  0  0  0  0  0  0
   55.7856   24.9803   46.4543 H   0  0  0  0  0  0  0  0  0  0  0  0
  1  2  1  0
  2  3  1  0
  3  4  2  0
  4  5  1  0
  5  6  2  0
  6  7  1  0
  7  8  2  0
  8  9  1  0
  9 10  1  0
 10 11  1  0
 11 12  2  0
 12 13  1  0
 13 14  2  0
 14 15  1  0
 15 16  2  0
  8 17  1  0
 17 18  1  0
 18 19  1  0
 17 20  2  0
 20 21  1  0
 21 22  2  0
 22  3  1  0
 21  6  1  0
 16 11  1  0
  1 23  1  0
  1 24  1  0
  1 25  1  0
  4 26  1  0
  5 27  1  0
  7 28  1  0
  9 29  1  0
  9 30  1  0
 10 31  1  0
 12 32  1  0
 13 33  1  0
 14 34  1  0
 16 35  1  0
 19 36  1  0
 19 37  1  0
 19 38  1  0
 22 39  1  0
M  END
>  <UniqueID>  (18) 
17

>  <SMILES>  (18) 
COc1ccc2cc(CNc3cccnc3)c(OC)nc2c1

>  <Energy>  (18) 
41.86277586005885

>  <Genealogy>  (18) 
COc1ccc2cc(CNc3cccnc3)c(OC)nc2c1 (3D coordinates assigned)
COc1ccc2cc(CNc3cccnc3)c(OC)nc2c1 (optimized conformer: 41.86277586005885 kcal/mol)

>  <smiles>  (18) 
COc1ccc2cc(CNc3cccnc3)c(OC)nc2c1

>  <score_type>  (18) 
oracle

>  <origin>  (18) 
adg

>  <m_score__min__energy>  (18) 
-6.3200000000000003

>  <m_primary>  (18) 
energy

$$$$
18:0
     RDKit          3D

 61 64  0  0  0  0  0  0  0  0999 V2000
   58.9774   25.5951   45.5446 H   0  0  0  0  0  0  0  0  0  0  0  0
   58.9110   26.5630   46.0630 C   0  0  0  0  0  0  0  0  0  0  0  0
   59.7110   26.8170   47.1250 N   0  0  0  0  0  0  0  0  0  0  0  0
   59.6290   27.9770   47.8270 C   0  0  0  0  0  0  0  0  0  0  0  0
   60.4600   28.1530   48.9370 C   0  0  0  0  0  0  0  0  0  0  0  0
   61.2116   27.3881   49.1819 H   0  0  0  0  0  0  0  0  0  0  0  0
   60.3440   29.2970   49.7420 C   0  0  0  0  0  0  0  0  0  0  0  0
   61.1670   29.5220   50.8600 O   0  0  0  0  0  0  0  0  0  0  0  0
   62.5840   29.6900   50.8330 C   0  0  0  0  0  0  0  0  0  0  0  0
   62.9954   29.3979   51.8105 H   0  0  0  0  0  0  0  0  0  0  0  0
   62.9870   29.0577   50.0282 H   0  0  0  0  0  0  0  0  0  0  0  0
   62.9840   31.1480   50.5400 C   0  0  0  0  0  0  0  0  0  0  0  0
   62.9726   31.7122   51.4842 H   0  0  0  0  0  0  0  0  0  0  0  0
   63.9861   31.1321   50.0866 H   0  0  0  0  0  0  0  0  0  0  0  0
   62.0630   31.8170   49.5730 N   0  0  0  0  0  0  0  0  0  0  0  0
   61.0760   31.5590   49.8200 H   0  0  0  0  0  0  0  0  0  0  0  0
   62.2900   31.2900   48.2050 C   0  0  0  0  0  0  0  0  0  0  0  0
   63.3473   31.4462   47.9449 H   0  0  0  0  0  0  0  0  0  0  0  0
   62.0116   30.2260   48.2230 H   0  0  0  0  0  0  0  0  0  0  0  0
   61.4190   31.9620   47.1220 C   0  0  0  0  0  0  0  0  0  0  0  0
   61.5361   31.3872   46.1915 H   0  0  0  0  0  0  0  0  0  0  0  0
   60.3952   31.9641   47.5242 H   0  0  0  0  0  0  0  0  0  0  0  0
   61.7470   33.4410   46.8090 C   0  0  0  0  0  0  0  0  0  0  0  0
   61.7164   33.5740   45.7175 H   0  0  0  0  0  0  0  0  0  0  0  0
   60.9965   34.0425   47.3428 H   0  0  0  0  0  0  0  0  0  0  0  0
   63.1190   33.9210   47.3100 C   0  0  0  0  0  0  0  0  0  0  0  0
   63.8862   33.2519   46.8932 H   0  0  0  0  0  0  0  0  0  0  0  0
   63.2166   34.9647   46.9767 H   0  0  0  0  0  0  0  0  0  0  0  0
   63.2900   33.9450   48.8500 C   0  0  0  0  0  0  0  0  0  0  0  0
   64.2213   33.4123   49.0927 H   0  0  0  0  0  0  0  0  0  0  0  0
   63.2911   35.0088   49.1297 H   0  0  0  0  0  0  0  0  0  0  0  0
   62.1490   33.3010   49.6740 C   0  0  0  0  0  0  0  0  0  0  0  0
   62.3010   33.5633   50.7314 H   0  0  0  0  0  0  0  0  0  0  0  0
   61.2090   33.6936   49.2589 H   0  0  0  0  0  0  0  0  0  0  0  0
   59.3610   30.2490   49.4480 C   0  0  0  0  0  0  0  0  0  0  0  0
   59.2410   31.3620   50.2980 O   0  0  0  0  0  0  0  0  0  0  0  0
   58.0100   31.8670   50.8050 C   0  0  0  0  0  0  0  0  0  0  0  0
   58.0346   31.8569   51.9047 H   0  0  0  0  0  0  0  0  0  0  0  0
   57.8631   32.8981   50.4510 H   0  0  0  0  0  0  0  0  0  0  0  0
   57.1813   31.2362   50.4510 H   0  0  0  0  0  0  0  0  0  0  0  0
   58.5210   30.0690   48.3340 C   0  0  0  0  0  0  0  0  0  0  0  0
   57.7160   30.7937   48.1423 H   0  0  0  0  0  0  0  0  0  0  0  0
   58.6920   28.9750   47.4570 C   0  0  0  0  0  0  0  0  0  0  0  0
   57.9260   28.7700   46.2620 C   0  0  0  0  0  0  0  0  0  0  0  0
   57.1900   29.6750   45.6660 N   0  0  0  0  0  0  0  0  0  0  0  0
   57.5630   30.9290   45.0810 C   0  0  0  0  0  0  0  0  0  0  0  0
   58.1530   31.9030   45.8980 C   0  0  0  0  0  0  0  0  0  0  0  0
   58.3027   31.6998   46.9687 H   0  0  0  0  0  0  0  0  0  0  0  0
   58.5520   33.1290   45.3630 C   0  0  0  0  0  0  0  0  0  0  0  0
   59.0282   33.8817   46.0085 H   0  0  0  0  0  0  0  0  0  0  0  0
   58.3470   33.4000   44.0100 C   0  0  0  0  0  0  0  0  0  0  0  0
   58.6790   34.3592   43.5861 H   0  0  0  0  0  0  0  0  0  0  0  0
   57.7210   32.4560   43.1920 C   0  0  0  0  0  0  0  0  0  0  0  0
   57.5606   32.6773   42.1265 H   0  0  0  0  0  0  0  0  0  0  0  0
   57.2950   31.2260   43.7210 C   0  0  0  0  0  0  0  0  0  0  0  0
   56.6030   30.2410   42.8180 C   0  0  0  0  0  0  0  0  0  0  0  0
   56.0766   29.4918   43.4276 H   0  0  0  0  0  0  0  0  0  0  0  0
   55.8783   30.7719   42.1832 H   0  0  0  0  0  0  0  0  0  0  0  0
   57.3482   29.7393   42.1832 H   0  0  0  0  0  0  0  0  0  0  0  0
   58.0050   27.5240   45.6260 C   0  0  0  0  0  0  0  0  0  0  0  0
   57.3451   27.3038   44.7739 H   0  0  0  0  0  0  0  0  0  0  0  0
  1  2  1  0
  2  3  1  0
  3  4  1  0
  4  5  2  0
  5  6  1  0
  5  7  1  0
  7  8  1  0
  8  9  1  0
  9 10  1  0
  9 11  1  0
  9 12  1  0
 12 13  1  0
 12 14  1  0
 12 15  1  0
 15 16  1  0
 15 17  1  0
 17 18  1  0
 17 19  1  0
 17 20  1  0
 20 21  1  0
 20 22  1  0
 20 23  1  0
 23 24  1  0
 23 25  1  0
 23 26  1  0
 26 27  1  0
 26 28  1  0
 26 29  1  0
 29 30  1  0
 29 31  1  0
 29 32  1  0
 32 33  1  0
 32 34  1  0
  7 35  2  0
 35 36  1  0
 36 37  1  0
 37 38  1  0
 37 39  1  0
 37 40  1  0
 35 41  1  0
 41 42  1  0
 41 43  2  0
 43 44  1  0
 44 45  2  0
 45 46  1  0
 46 47  2  0
 47 48  1  0
 47 49  1  0
 49 50  1  0
 49 51  2  0
 51 52  1  0
 51 53  1  0
 53 54  1  0
 53 55  2  0
 55 56  1  0
 56 57  1  0
 56 58  1  0
 56 59  1  0
 44 60  1  0
 60 61  1  0
 60  2  2  0
 43  4  1  0
 55 46  1  0
 32 15  1  0
M  CHG  2   3  -1  15   1
M  END
>  <UniqueID>  (19) 
18

>  <SMILES>  (19) 
COc1cc2/c(=N\c3ccccc3C)cc[n-]c2cc1OCC[NH+]1CCCCCC1

>  <Energy>  (19) 
102.67150471972546

>  <Genealogy>  (19) 
COc1cc2c(=Nc3ccccc3C)cc[n-]c2cc1OCC[NH+]1CCCCCC1 (protonated)
COc1cc2/c(=N\c3ccccc3C)cc[n-]c2cc1OCC[NH+]1CCCCCC1 (cis-trans isomerization)
COc1cc2/c(=N\c3ccccc3C)cc[n-]c2cc1OCC[NH+]1CCCCCC1 (3D coordinates assigned)
COc1cc2/c(=N\c3ccccc3C)cc[n-]c2cc1OCC[NH+]1CCCCCC1 (nonaromatic ring conformer: 102.67150471972546 kcal/mol)

>  <smiles>  (19) 
COc1cc2c(=Nc3ccccc3C)cc[nH]c2cc1OCCN1CCCCCC1

>  <score_type>  (19) 
oracle

>  <origin>  (19) 
adg

>  <m_score__min__energy>  (19) 
-6.6299999999999999

>  <m_primary>  (19) 
energy

$$$$
19:0
     RDKit          3D

 48 50  0  0  0  0  0  0  0  0999 V2000
   56.1650   24.4120   44.7670 C   0  0  0  0  0  0  0  0  0  0  0  0
   55.1540   25.1870   45.6060 C   0  0  0  0  0  0  0  0  0  0  0  0
   55.6690   26.4660   45.9810 O   0  0  0  0  0  0  0  0  0  0  0  0
   57.0100   26.7500   46.2970 C   0  0  0  0  0  0  0  0  0  0  0  0
   57.6920   26.0880   47.3400 C   0  0  0  0  0  0  0  0  0  0  0  0
   59.0360   26.3650   47.5940 C   0  0  0  0  0  0  0  0  0  0  0  0
   59.7220   27.2910   46.8090 C   0  0  0  0  0  0  0  0  0  0  0  0
   59.0610   27.9480   45.7700 C   0  0  0  0  0  0  0  0  0  0  0  0
   57.7030   27.7060   45.5240 C   0  0  0  0  0  0  0  0  0  0  0  0
   57.0820   28.3710   44.4170 N   0  0  0  0  0  0  0  0  0  0  0  0
   56.1470   29.4550   44.4820 C   0  0  0  0  0  0  0  0  0  0  0  0
   55.1470   29.3370   45.2400 O   0  0  0  0  0  0  0  0  0  0  0  0
   56.2420   30.6520   43.5690 C   0  0  0  0  0  0  0  0  0  0  0  0
   57.6900   31.1300   43.3690 C   0  0  0  0  0  0  0  0  0  0  0  0
   58.1790   31.9830   44.5120 C   0  0  0  0  0  0  0  0  0  0  0  0
   58.2990   33.3750   44.3650 C   0  0  0  0  0  0  0  0  0  0  0  0
   58.7590   34.1610   45.4250 C   0  0  0  0  0  0  0  0  0  0  0  0
   59.1140   33.5660   46.6450 C   0  0  0  0  0  0  0  0  0  0  0  0
   59.5680   34.4160   47.7990 C   0  0  0  0  0  0  0  0  0  0  0  0
   60.9730   34.1530   48.0850 N   0  0  0  0  0  0  0  0  0  0  0  0
   61.9040   33.7670   47.1930 C   0  0  0  0  0  0  0  0  0  0  0  0
   63.1180   33.6950   47.8400 C   0  0  0  0  0  0  0  0  0  0  0  0
   62.8460   34.0670   49.1430 C   0  0  0  0  0  0  0  0  0  0  0  0
   61.5340   34.3490   49.2670 N   0  0  0  0  0  0  0  0  0  0  0  0
   58.9780   32.1790   46.8000 C   0  0  0  0  0  0  0  0  0  0  0  0
   58.5190   31.3920   45.7400 C   0  0  0  0  0  0  0  0  0  0  0  0
   56.8608   23.8787   45.4314 H   0  0  0  0  0  0  0  0  0  0  0  0
   55.6353   23.6864   44.1323 H   0  0  0  0  0  0  0  0  0  0  0  0
   56.7281   25.1120   44.1323 H   0  0  0  0  0  0  0  0  0  0  0  0
   54.2339   25.3281   45.0200 H   0  0  0  0  0  0  0  0  0  0  0  0
   54.9458   24.6125   46.5207 H   0  0  0  0  0  0  0  0  0  0  0  0
   57.1606   25.3485   47.9571 H   0  0  0  0  0  0  0  0  0  0  0  0
   59.5558   25.8512   48.4161 H   0  0  0  0  0  0  0  0  0  0  0  0
   60.7827   27.5034   47.0083 H   0  0  0  0  0  0  0  0  0  0  0  0
   59.6108   28.6618   45.1390 H   0  0  0  0  0  0  0  0  0  0  0  0
   55.8217   30.3818   42.5890 H   0  0  0  0  0  0  0  0  0  0  0  0
   55.6816   31.4741   44.0382 H   0  0  0  0  0  0  0  0  0  0  0  0
   58.3433   30.2494   43.2812 H   0  0  0  0  0  0  0  0  0  0  0  0
   57.7162   31.7452   42.4575 H   0  0  0  0  0  0  0  0  0  0  0  0
   58.0292   33.8491   43.4098 H   0  0  0  0  0  0  0  0  0  0  0  0
   58.8431   35.2509   45.3023 H   0  0  0  0  0  0  0  0  0  0  0  0
   59.4404   35.4780   47.5424 H   0  0  0  0  0  0  0  0  0  0  0  0
   58.9657   34.1736   48.6869 H   0  0  0  0  0  0  0  0  0  0  0  0
   61.7261   33.5469   46.1300 H   0  0  0  0  0  0  0  0  0  0  0  0
   64.0897   33.4053   47.4136 H   0  0  0  0  0  0  0  0  0  0  0  0
   63.5867   34.1241   49.9543 H   0  0  0  0  0  0  0  0  0  0  0  0
   59.2338   31.7080   47.7606 H   0  0  0  0  0  0  0  0  0  0  0  0
   58.4235   30.3037   45.8682 H   0  0  0  0  0  0  0  0  0  0  0  0
  1  2  1  0
  2  3  1  0
  3  4  1  0
  4  5  2  0
  5  6  1  0
  6  7  2  0
  7  8  1  0
  8  9  2  0
  9 10  1  0
 10 11  1  0
 11 12  2  0
 11 13  1  0
 13 14  1  0
 14 15  1  0
 15 16  2  0
 16 17  1  0
 17 18  2  0
 18 19  1  0
 19 20  1  0
 20 21  1  0
 21 22  2  0
 22 23  1  0
 23 24  2  0
 18 25  1  0
 25 26  2  0
  9  4  1  0
 26 15  1  0
 24 20  1  0
  1 27  1  0
  1 28  1  0
  1 29  1  0
  2 30  1  0
  2 31  1  0
  5 32  1  0
  6 33  1  0
  7 34  1  0
  8 35  1  0
 13 36  1  0
 13 37  1  0
 14 38  1  0
 14 39  1  0
 16 40  1  0
 17 41  1  0
 19 42  1  0
 19 43  1  0
 21 44  1  0
 22 45  1  0
 23 46  1  0
 25 47  1  0
 26 48  1  0
M  CHG  1  10  -1
M  END
>  <UniqueID>  (20) 
19

>  <SMILES>  (20) 
CCOc1ccccc1[N-]C(=O)CCc1ccc(Cn2cccn2)cc1

>  <Energy>  (20) 
79.49643951578432

>  <Genealogy>  (20) 
CCOc1ccccc1[N-]C(=O)CCc1ccc(Cn2cccn2)cc1 (protonated)
CCOc1ccccc1[N-]C(=O)CCc1ccc(Cn2cccn2)cc1 (3D coordinates assigned)
CCOc1ccccc1[N-]C(=O)CCc1ccc(Cn2cccn2)cc1 (optimized conformer: 79.49643951578432 kcal/mol)

>  <smiles>  (20) 
CCOc1ccccc1NC(=O)CCc1ccc(Cn2cccn2)cc1

>  <score_type>  (20) 
oracle

>  <origin>  (20) 
adg

>  <m_score__min__energy>  (20) 
-11.4

>  <m_primary>  (20) 
energy

$$$$
20:0
     RDKit          3D

 40 41  0  0  0  0  0  0  0  0999 V2000
   59.9760   35.5170   45.9910 C   0  0  0  0  0  0  0  0  0  0  0  0
   59.2370   34.9540   47.2000 C   0  0  0  0  0  0  0  0  0  0  0  0
   59.2690   33.5260   47.1930 O   0  0  0  0  0  0  0  0  0  0  0  0
   58.6260   32.6950   46.2600 C   0  0  0  0  0  0  0  0  0  0  0  0
   58.0320   33.1950   45.0830 C   0  0  0  0  0  0  0  0  0  0  0  0
   57.4010   32.3290   44.1880 C   0  0  0  0  0  0  0  0  0  0  0  0
   57.3530   30.9590   44.4530 C   0  0  0  0  0  0  0  0  0  0  0  0
   56.4890   29.7800   43.2250 Br  0  0  0  0  0  0  0  0  0  0  0  0
   57.9360   30.4530   45.6180 C   0  0  0  0  0  0  0  0  0  0  0  0
   58.5750   31.3170   46.5280 C   0  0  0  0  0  0  0  0  0  0  0  0
   59.1720   30.8480   47.7080 O   0  0  0  0  0  0  0  0  0  0  0  0
   60.3360   30.0260   47.7570 C   0  0  0  0  0  0  0  0  0  0  0  0
   61.5700   30.8320   47.3260 C   0  0  0  0  0  0  0  0  0  0  0  0
   61.5020   32.2610   47.7270 N   0  0  0  0  0  0  0  0  0  0  0  0
   62.2400   33.1150   46.7550 C   0  0  0  0  0  0  0  0  0  0  0  0
   63.6480   33.4730   47.2640 C   0  0  0  0  0  0  0  0  0  0  0  0
   63.6440   34.1860   48.4940 O   0  0  0  0  0  0  0  0  0  0  0  0
   62.5320   33.8810   49.3250 C   0  0  0  0  0  0  0  0  0  0  0  0
   61.9820   32.4600   49.1200 C   0  0  0  0  0  0  0  0  0  0  0  0
   60.8079   36.1507   46.3322 H   0  0  0  0  0  0  0  0  0  0  0  0
   60.3709   34.6888   45.3843 H   0  0  0  0  0  0  0  0  0  0  0  0
   59.2824   36.1177   45.3843 H   0  0  0  0  0  0  0  0  0  0  0  0
   59.7167   35.3212   48.1193 H   0  0  0  0  0  0  0  0  0  0  0  0
   58.1885   35.2838   47.1579 H   0  0  0  0  0  0  0  0  0  0  0  0
   58.0660   34.2734   44.8688 H   0  0  0  0  0  0  0  0  0  0  0  0
   56.9405   32.7270   43.2717 H   0  0  0  0  0  0  0  0  0  0  0  0
   57.8955   29.3735   45.8253 H   0  0  0  0  0  0  0  0  0  0  0  0
   60.4806   29.6610   48.7846 H   0  0  0  0  0  0  0  0  0  0  0  0
   60.2048   29.1750   47.0724 H   0  0  0  0  0  0  0  0  0  0  0  0
   62.4612   30.3811   47.7870 H   0  0  0  0  0  0  0  0  0  0  0  0
   61.6144   30.8014   46.2273 H   0  0  0  0  0  0  0  0  0  0  0  0
   60.4970   32.5570   47.6870 H   0  0  0  0  0  0  0  0  0  0  0  0
   62.3328   32.5723   45.8027 H   0  0  0  0  0  0  0  0  0  0  0  0
   61.6756   34.0499   46.6233 H   0  0  0  0  0  0  0  0  0  0  0  0
   64.2146   32.5407   47.4043 H   0  0  0  0  0  0  0  0  0  0  0  0
   64.1057   34.1313   46.5109 H   0  0  0  0  0  0  0  0  0  0  0  0
   62.8434   33.9853   50.3748 H   0  0  0  0  0  0  0  0  0  0  0  0
   61.7268   34.5805   49.0561 H   0  0  0  0  0  0  0  0  0  0  0  0
   62.7802   31.7332   49.3310 H   0  0  0  0  0  0  0  0  0  0  0  0
   61.1324   32.3152   49.8035 H   0  0  0  0  0  0  0  0  0  0  0  0
  1  2  1  0
  2  3  1  0
  3  4  1  0
  4  5  2  0
  5  6  1  0
  6  7  2  0
  7  8  1  0
  7  9  1  0
  9 10  2  0
 10 11  1  0
 11 12  1  0
 12 13  1  0
 13 14  1  0
 14 15  1  0
 15 16  1  0
 16 17  1  0
 17 18  1  0
 18 19  1  0
 10  4  1  0
 19 14  1  0
  1 20  1  0
  1 21  1  0
  1 22  1  0
  2 23  1  0
  2 24  1  0
  5 25  1  0
  6 26  1  0
  9 27  1  0
 12 28  1  0
 12 29  1  0
 13 30  1  0
 13 31  1  0
 14 32  1  0
 15 33  1  0
 15 34  1  0
 16 35  1  0
 16 36  1  0
 18 37  1  0
 18 38  1  0
 19 39  1  0
 19 40  1  0
M  CHG  1  14   1
M  END
>  <UniqueID>  (21) 
20

>  <SMILES>  (21) 
CCOc1ccc(Br)cc1OCC[NH+]1CCOCC1

>  <Energy>  (21) 
50.105561641238715

>  <Genealogy>  (21) 
CCOc1ccc(Br)cc1OCC[NH+]1CCOCC1 (protonated)
CCOc1ccc(Br)cc1OCC[NH+]1CCOCC1 (3D coordinates assigned)
CCOc1ccc(Br)cc1OCC[NH+]1CCOCC1 (nonaromatic ring conformer: 50.105561641238715 kcal/mol)

>  <smiles>  (21) 
CCOc1ccc(Br)cc1OCCN1CCOCC1

>  <score_type>  (21) 
oracle

>  <origin>  (21) 
adg

>  <m_score__min__energy>  (21) 
-3.79

>  <m_primary>  (21) 
energy

$$$$
21:0
     RDKit          3D

 36 37  0  0  0  0  0  0  0  0999 V2000
   59.6410   35.3760   45.6170 C   0  0  0  0  0  0  0  0  0  0  0  0
   59.5550   33.9650   46.0980 C   0  0  0  0  0  0  0  0  0  0  0  0
   60.4210   33.3940   46.9670 N   0  0  0  0  0  0  0  0  0  0  0  0
   60.1010   32.1130   47.1190 N   0  0  0  0  0  0  0  0  0  0  0  0
   60.8630   31.1640   47.9300 C   0  0  0  0  0  0  0  0  0  0  0  0
   62.3500   31.2400   47.5720 C   0  0  0  0  0  0  0  0  0  0  0  0
   62.8960   32.5780   47.8910 N   0  0  0  0  0  0  0  0  0  0  0  0
   63.6910   33.0850   46.7610 C   0  0  0  0  0  0  0  0  0  0  0  0
   63.7400   32.5290   49.0990 C   0  0  0  0  0  0  0  0  0  0  0  0
   59.0430   31.8480   46.3250 C   0  0  0  0  0  0  0  0  0  0  0  0
   58.3860   30.6340   46.1100 C   0  0  0  0  0  0  0  0  0  0  0  0
   57.3090   30.6120   45.1900 C   0  0  0  0  0  0  0  0  0  0  0  0
   56.5800   29.3490   44.9310 C   0  0  0  0  0  0  0  0  0  0  0  0
   55.1560   29.3410   44.8300 N   0  0  0  0  0  0  0  0  0  0  0  0
   57.2110   28.2660   44.7940 O   0  0  0  0  0  0  0  0  0  0  0  0
   56.9390   31.8090   44.5180 C   0  0  0  0  0  0  0  0  0  0  0  0
   57.6280   33.0130   44.7520 C   0  0  0  0  0  0  0  0  0  0  0  0
   58.6740   32.9920   45.6680 C   0  0  0  0  0  0  0  0  0  0  0  0
   59.6824   36.0559   46.4807 H   0  0  0  0  0  0  0  0  0  0  0  0
   60.5484   35.5011   45.0080 H   0  0  0  0  0  0  0  0  0  0  0  0
   58.7555   35.6104   45.0080 H   0  0  0  0  0  0  0  0  0  0  0  0
   61.2300   33.8640   47.4330 H   0  0  0  0  0  0  0  0  0  0  0  0
   60.7323   31.4083   48.9945 H   0  0  0  0  0  0  0  0  0  0  0  0
   60.4968   30.1459   47.7315 H   0  0  0  0  0  0  0  0  0  0  0  0
   62.8992   30.4794   48.1463 H   0  0  0  0  0  0  0  0  0  0  0  0
   62.4642   31.0590   46.4930 H   0  0  0  0  0  0  0  0  0  0  0  0
   64.5604   33.6395   47.1439 H   0  0  0  0  0  0  0  0  0  0  0  0
   64.0363   32.2400   46.1472 H   0  0  0  0  0  0  0  0  0  0  0  0
   63.0705   33.7545   46.1472 H   0  0  0  0  0  0  0  0  0  0  0  0
   63.1016   32.5661   49.9941 H   0  0  0  0  0  0  0  0  0  0  0  0
   64.3220   31.5956   49.1021 H   0  0  0  0  0  0  0  0  0  0  0  0
   64.4261   33.3888   49.1021 H   0  0  0  0  0  0  0  0  0  0  0  0
   58.6961   29.7213   46.6399 H   0  0  0  0  0  0  0  0  0  0  0  0
   54.5580   29.3560   45.6860 H   0  0  0  0  0  0  0  0  0  0  0  0
   56.1018   31.7935   43.8047 H   0  0  0  0  0  0  0  0  0  0  0  0
   57.3489   33.9392   44.2283 H   0  0  0  0  0  0  0  0  0  0  0  0
  1  2  1  0
  2  3  2  0
  3  4  1  0
  4  5  1  0
  5  6  1  0
  6  7  1  0
  7  8  1  0
  7  9  1  0
  4 10  1  0
 10 11  2  0
 11 12  1  0
 12 13  1  0
 13 14  1  0
 13 15  2  0
 12 16  2  0
 16 17  1  0
 17 18  2  0
 18  2  1  0
 18 10  1  0
  1 19  1  0
  1 20  1  0
  1 21  1  0
  3 22  1  0
  5 23  1  0
  5 24  1  0
  6 25  1  0
  6 26  1  0
  8 27  1  0
  8 28  1  0
  8 29  1  0
  9 30  1  0
  9 31  1  0
  9 32  1  0
 11 33  1  0
 14 34  1  0
 16 35  1  0
 17 36  1  0
M  CHG  2   3   1  14  -1
M  END
>  <UniqueID>  (22) 
21

>  <SMILES>  (22) 
Cc1[nH+]n(CCN(C)C)c2cc(C([NH-])=O)ccc12

>  <Energy>  (22) 
71.70575329261942

>  <Genealogy>  (22) 
Cc1[nH+]n(CCN(C)C)c2cc(C([NH-])=O)ccc12 (protonated)
Cc1[nH+]n(CCN(C)C)c2cc(C([NH-])=O)ccc12 (3D coordinates assigned)
Cc1[nH+]n(CCN(C)C)c2cc(C([NH-])=O)ccc12 (optimized conformer: 71.70575329261942 kcal/mol)

>  <smiles>  (22) 
Cc1nn(CCN(C)C)c2cc(C(N)=O)ccc12

>  <score_type>  (22) 
oracle

>  <origin>  (22) 
adg

>  <m_score__min__energy>  (22) 
-8.5299999999999994

>  <m_primary>  (22) 
energy

$$$$
22:0
     RDKit          3D

 47 47  0  0  0  0  0  0  0  0999 V2000
   62.0236   32.9088   49.4500 H   0  0  0  0  0  0  0  0  0  0  0  0
   61.3380   33.5020   48.8270 C   0  0  0  0  0  0  0  0  0  0  0  0
   61.7610   33.8470   47.5970 C   0  0  0  0  0  0  0  0  0  0  0  0
   62.7742   34.2662   47.5096 H   0  0  0  0  0  0  0  0  0  0  0  0
   60.9570   33.7050   46.3280 C   0  0  0  0  0  0  0  0  0  0  0  0
   61.6460   33.6503   45.4722 H   0  0  0  0  0  0  0  0  0  0  0  0
   60.3525   32.7890   46.4022 H   0  0  0  0  0  0  0  0  0  0  0  0
   60.0060   34.8970   46.1290 C   0  0  0  0  0  0  0  0  0  0  0  0
   59.5100   35.1188   47.0854 H   0  0  0  0  0  0  0  0  0  0  0  0
   60.6031   35.7531   45.7818 H   0  0  0  0  0  0  0  0  0  0  0  0
   58.9270   34.6060   45.0640 C   0  0  0  0  0  0  0  0  0  0  0  0
   58.7849   35.5121   44.4568 H   0  0  0  0  0  0  0  0  0  0  0  0
   59.2849   33.7536   44.4679 H   0  0  0  0  0  0  0  0  0  0  0  0
   57.5680   34.2010   45.6570 C   0  0  0  0  0  0  0  0  0  0  0  0
   57.6802   34.0835   46.7449 H   0  0  0  0  0  0  0  0  0  0  0  0
   56.8472   34.9926   45.4044 H   0  0  0  0  0  0  0  0  0  0  0  0
   57.0320   32.8830   45.0730 C   0  0  0  0  0  0  0  0  0  0  0  0
   56.4839   32.3447   45.8603 H   0  0  0  0  0  0  0  0  0  0  0  0
   56.3771   33.1333   44.2254 H   0  0  0  0  0  0  0  0  0  0  0  0
   58.1550   31.9770   44.5460 C   0  0  0  0  0  0  0  0  0  0  0  0
   57.9628   31.7557   43.4858 H   0  0  0  0  0  0  0  0  0  0  0  0
   59.1079   32.5103   44.6788 H   0  0  0  0  0  0  0  0  0  0  0  0
   58.2450   30.6720   45.3070 C   0  0  0  0  0  0  0  0  0  0  0  0
   59.2650   30.5070   46.2580 C   0  0  0  0  0  0  0  0  0  0  0  0
   59.9917   31.3160   46.4238 H   0  0  0  0  0  0  0  0  0  0  0  0
   59.3650   29.3270   46.9940 C   0  0  0  0  0  0  0  0  0  0  0  0
   60.1686   29.2098   47.7360 H   0  0  0  0  0  0  0  0  0  0  0  0
   58.4490   28.2950   46.7920 C   0  0  0  0  0  0  0  0  0  0  0  0
   58.5338   27.3664   47.3755 H   0  0  0  0  0  0  0  0  0  0  0  0
   57.4170   28.4350   45.8460 C   0  0  0  0  0  0  0  0  0  0  0  0
   56.4780   27.4170   45.6180 O   0  0  0  0  0  0  0  0  0  0  0  0
   56.6480   26.0550   46.0020 C   0  0  0  0  0  0  0  0  0  0  0  0
   56.8938   26.0063   47.0731 H   0  0  0  0  0  0  0  0  0  0  0  0
   55.7148   25.5058   45.8085 H   0  0  0  0  0  0  0  0  0  0  0  0
   57.7820   25.4210   45.1920 C   0  0  0  0  0  0  0  0  0  0  0  0
   58.6353   26.1151   45.1787 H   0  0  0  0  0  0  0  0  0  0  0  0
   58.0405   24.4666   45.6740 H   0  0  0  0  0  0  0  0  0  0  0  0
   57.3780   25.1140   43.7470 C   0  0  0  0  0  0  0  0  0  0  0  0
   56.6384   25.8586   43.4175 H   0  0  0  0  0  0  0  0  0  0  0  0
   58.2821   25.1539   43.1217 H   0  0  0  0  0  0  0  0  0  0  0  0
   56.6040   23.3420   43.5810 Br  0  0  0  0  0  0  0  0  0  0  0  0
   57.3150   29.6250   45.1030 C   0  0  0  0  0  0  0  0  0  0  0  0
   55.8990   29.7760   43.8090 Br  0  0  0  0  0  0  0  0  0  0  0  0
   60.0010   33.8630   49.4190 C   0  0  0  0  0  0  0  0  0  0  0  0
   59.5392   34.6627   48.8213 H   0  0  0  0  0  0  0  0  0  0  0  0
   60.1398   34.2118   50.4530 H   0  0  0  0  0  0  0  0  0  0  0  0
   58.8510   32.3060   49.4120 Br  0  0  0  0  0  0  0  0  0  0  0  0
  1  2  1  0
  2  3  2  0
  3  4  1  0
  3  5  1  0
  5  6  1  0
  5  7  1  0
  5  8  1  0
  8  9  1  0
  8 10  1  0
  8 11  1  0
 11 12  1  0
 11 13  1  0
 11 14  1  0
 14 15  1  0
 14 16  1  0
 14 17  1  0
 17 18  1  0
 17 19  1  0
 17 20  1  0
 20 21  1  0
 20 22  1  0
 20 23  1  0
 23 24  2  0
 24 25  1  0
 24 26  1  0
 26 27  1  0
 26 28  2  0
 28 29  1  0
 28 30  1  0
 30 31  1  0
 31 32  1  0
 32 33  1  0
 32 34  1  0
 32 35  1  0
 35 36  1  0
 35 37  1  0
 35 38  1  0
 38 39  1  0
 38 40  1  0
 38 41  1  0
 30 42  2  0
 42 43  1  0
  2 44  1  0
 44 45  1  0
 44 46  1  0
 44 47  1  0
 42 23  1  0
M  END
>  <UniqueID>  (23) 
22

>  <SMILES>  (23) 
BrC/C=C\CCCCCCc1cccc(OCCCBr)c1Br

>  <Energy>  (23) 
32.82611992874129

>  <Genealogy>  (23) 
BrC/C=C\CCCCCCc1cccc(OCCCBr)c1Br (cis-trans isomerization)
BrC/C=C\CCCCCCc1cccc(OCCCBr)c1Br (3D coordinates assigned)
BrC/C=C\CCCCCCc1cccc(OCCCBr)c1Br (optimized conformer: 32.82611992874129 kcal/mol)

>  <smiles>  (23) 
BrCC=CCCCCCCc1cccc(OCCCBr)c1Br

>  <score_type>  (23) 
oracle

>  <origin>  (23) 
adg

>  <m_score__min__energy>  (23) 
-7.6299999999999999

>  <m_primary>  (23) 
energy

$$$$
23:0
     RDKit          3D

 55 55  0  0  0  0  0  0  0  0999 V2000
   58.8030   31.7600   49.3600 C   0  0  0  0  0  0  0  0  0  0  0  0
   58.1680   32.3340   48.1030 C   0  0  0  0  0  0  0  0  0  0  0  0
   58.5490   31.5490   46.9940 O   0  0  0  0  0  0  0  0  0  0  0  0
   59.7370   30.8280   47.2720 C   0  0  0  0  0  0  0  0  0  0  0  0
   60.1510   30.0210   46.0460 C   0  0  0  0  0  0  0  0  0  0  0  0
   59.1070   30.0440   45.0940 O   0  0  0  0  0  0  0  0  0  0  0  0
   58.8040   28.7240   44.6970 C   0  0  0  0  0  0  0  0  0  0  0  0
   57.2890   28.5420   44.6700 C   0  0  0  0  0  0  0  0  0  0  0  0
   56.6370   29.7490   45.1870 N   0  0  0  0  0  0  0  0  0  0  0  0
   56.0140   30.5150   44.1010 C   0  0  0  0  0  0  0  0  0  0  0  0
   57.0430   30.7960   43.0000 C   0  0  0  0  0  0  0  0  0  0  0  0
   57.7670   32.1400   43.2260 C   0  0  0  0  0  0  0  0  0  0  0  0
   58.1110   32.3570   44.6490 N   0  0  0  0  0  0  0  0  0  0  0  0
   57.8780   33.7470   45.0890 C   0  0  0  0  0  0  0  0  0  0  0  0
   59.1900   34.5410   45.2320 C   0  0  0  0  0  0  0  0  0  0  0  0
   59.4500   34.9740   46.6820 C   0  0  0  0  0  0  0  0  0  0  0  0
   60.7040   34.3430   47.2330 C   0  0  0  0  0  0  0  0  0  0  0  0
   60.9200   34.2950   48.6210 C   0  0  0  0  0  0  0  0  0  0  0  0
   62.0940   33.7360   49.1330 C   0  0  0  0  0  0  0  0  0  0  0  0
   63.0650   33.2310   48.2660 C   0  0  0  0  0  0  0  0  0  0  0  0
   62.8630   33.2800   46.8850 C   0  0  0  0  0  0  0  0  0  0  0  0
   61.6870   33.8340   46.3670 C   0  0  0  0  0  0  0  0  0  0  0  0
   58.3202   32.1964   50.2468 H   0  0  0  0  0  0  0  0  0  0  0  0
   58.6718   30.6679   49.3712 H   0  0  0  0  0  0  0  0  0  0  0  0
   59.8763   32.0005   49.3712 H   0  0  0  0  0  0  0  0  0  0  0  0
   57.0728   32.3211   48.2046 H   0  0  0  0  0  0  0  0  0  0  0  0
   58.5058   33.3706   47.9571 H   0  0  0  0  0  0  0  0  0  0  0  0
   60.5397   31.5335   47.5328 H   0  0  0  0  0  0  0  0  0  0  0  0
   59.5573   30.1430   48.1137 H   0  0  0  0  0  0  0  0  0  0  0  0
   61.0582   30.4610   45.6063 H   0  0  0  0  0  0  0  0  0  0  0  0
   60.3550   28.9815   46.3423 H   0  0  0  0  0  0  0  0  0  0  0  0
   59.2146   28.5385   43.6935 H   0  0  0  0  0  0  0  0  0  0  0  0
   59.2484   28.0132   45.4092 H   0  0  0  0  0  0  0  0  0  0  0  0
   56.9605   28.3636   43.6354 H   0  0  0  0  0  0  0  0  0  0  0  0
   57.0142   27.6820   45.2983 H   0  0  0  0  0  0  0  0  0  0  0  0
   57.3740   30.3530   45.6260 H   0  0  0  0  0  0  0  0  0  0  0  0
   55.1787   29.9363   43.6798 H   0  0  0  0  0  0  0  0  0  0  0  0
   55.6424   31.4703   44.5001 H   0  0  0  0  0  0  0  0  0  0  0  0
   57.7878   29.9865   42.9929 H   0  0  0  0  0  0  0  0  0  0  0  0
   56.5110   30.8501   42.0387 H   0  0  0  0  0  0  0  0  0  0  0  0
   58.6931   32.1478   42.6325 H   0  0  0  0  0  0  0  0  0  0  0  0
   57.0863   32.9467   42.9162 H   0  0  0  0  0  0  0  0  0  0  0  0
   59.1330   32.1610   44.7710 H   0  0  0  0  0  0  0  0  0  0  0  0
   57.6010   31.6930   45.2790 H   0  0  0  0  0  0  0  0  0  0  0  0
   57.2386   34.2502   44.3488 H   0  0  0  0  0  0  0  0  0  0  0  0
   57.3960   33.7115   46.0771 H   0  0  0  0  0  0  0  0  0  0  0  0
   60.0251   33.9090   44.8957 H   0  0  0  0  0  0  0  0  0  0  0  0
   59.1037   35.4497   44.6182 H   0  0  0  0  0  0  0  0  0  0  0  0
   59.5571   36.0683   46.7141 H   0  0  0  0  0  0  0  0  0  0  0  0
   58.5998   34.6445   47.2974 H   0  0  0  0  0  0  0  0  0  0  0  0
   60.1615   34.6993   49.3074 H   0  0  0  0  0  0  0  0  0  0  0  0
   62.2534   33.6938   50.2206 H   0  0  0  0  0  0  0  0  0  0  0  0
   63.9898   32.7942   48.6710 H   0  0  0  0  0  0  0  0  0  0  0  0
   63.6295   32.8825   46.2034 H   0  0  0  0  0  0  0  0  0  0  0  0
   61.5315   33.8712   45.2787 H   0  0  0  0  0  0  0  0  0  0  0  0
  1  2  1  0
  2  3  1  0
  3  4  1  0
  4  5  1  0
  5  6  1  0
  6  7  1  0
  7  8  1  0
  8  9  1  0
  9 10  1  0
 10 11  1  0
 11 12  1  0
 12 13  1  0
 13 14  1  0
 14 15  1  0
 15 16  1  0
 16 17  1  0
 17 18  2  0
 18 19  1  0
 19 20  2  0
 20 21  1  0
 21 22  2  0
 22 17  1  0
  1 23  1  0
  1 24  1  0
  1 25  1  0
  2 26  1  0
  2 27  1  0
  4 28  1  0
  4 29  1  0
  5 30  1  0
  5 31  1  0
  7 32  1  0
  7 33  1  0
  8 34  1  0
  8 35  1  0
  9 36  1  0
 10 37  1  0
 10 38  1  0
 11 39  1  0
 11 40  1  0
 12 41  1  0
 12 42  1  0
 13 43  1  0
 13 44  1  0
 14 45  1  0
 14 46  1  0
 15 47  1  0
 15 48  1  0
 16 49  1  0
 16 50  1  0
 18 51  1  0
 19 52  1  0
 20 53  1  0
 21 54  1  0
 22 55  1  0
M  CHG  1  13   1
M  END
>  <UniqueID>  (24) 
23

>  <SMILES>  (24) 
CCOCCOCCNCCC[NH2+]CCCc1ccccc1

>  <Energy>  (24) 
39.83338340028379

>  <Genealogy>  (24) 
CCOCCOCCNCCC[NH2+]CCCc1ccccc1 (protonated)
CCOCCOCCNCCC[NH2+]CCCc1ccccc1 (3D coordinates assigned)
CCOCCOCCNCCC[NH2+]CCCc1ccccc1 (optimized conformer: 39.83338340028379 kcal/mol)

>  <smiles>  (24) 
CCOCCOCCNCCCNCCCc1ccccc1

>  <score_type>  (24) 
oracle

>  <origin>  (24) 
adg

>  <m_score__min__energy>  (24) 
-3.5099999999999998

>  <m_primary>  (24) 
energy

$$$$
24:0
     RDKit          3D

 36 38  0  0  0  0  0  0  0  0999 V2000
   59.3120   30.2290   50.4940 C   0  0  0  0  0  0  0  0  0  0  0  0
   60.0190   29.5100   49.4890 O   0  0  0  0  0  0  0  0  0  0  0  0
   59.6020   29.3920   48.1540 C   0  0  0  0  0  0  0  0  0  0  0  0
   58.5840   28.4870   47.7660 C   0  0  0  0  0  0  0  0  0  0  0  0
   58.2270   28.4310   46.4170 C   0  0  0  0  0  0  0  0  0  0  0  0
   57.2890   27.6700   45.7370 C   0  0  0  0  0  0  0  0  0  0  0  0
   56.3600   26.6590   46.2700 C   0  0  0  0  0  0  0  0  0  0  0  0
   55.1340   26.6940   45.9830 O   0  0  0  0  0  0  0  0  0  0  0  0
   56.8350   25.6500   47.0970 O   0  0  0  0  0  0  0  0  0  0  0  0
   57.3890   28.0550   44.4040 C   0  0  0  0  0  0  0  0  0  0  0  0
   58.3370   29.0050   44.2550 N   0  0  0  0  0  0  0  0  0  0  0  0
   58.8400   29.2240   45.4810 C   0  0  0  0  0  0  0  0  0  0  0  0
   59.8420   30.1270   45.8260 C   0  0  0  0  0  0  0  0  0  0  0  0
   60.2210   30.2130   47.1780 C   0  0  0  0  0  0  0  0  0  0  0  0
   61.2180   31.1570   47.5650 N   0  0  0  0  0  0  0  0  0  0  0  0
   60.7910   32.7990   47.9020 S   0  0  0  0  0  0  0  0  0  0  0  0
   61.9890   33.6840   47.7020 O   0  0  0  0  0  0  0  0  0  0  0  0
   60.3450   32.9080   49.3340 O   0  0  0  0  0  0  0  0  0  0  0  0
   59.4830   33.3070   46.8380 C   0  0  0  0  0  0  0  0  0  0  0  0
   58.1610   32.9410   47.1300 C   0  0  0  0  0  0  0  0  0  0  0  0
   57.1120   33.3890   46.3220 C   0  0  0  0  0  0  0  0  0  0  0  0
   57.3780   34.2060   45.2190 C   0  0  0  0  0  0  0  0  0  0  0  0
   58.6930   34.5760   44.9250 C   0  0  0  0  0  0  0  0  0  0  0  0
   59.7440   34.1310   45.7330 C   0  0  0  0  0  0  0  0  0  0  0  0
   59.6432   29.8922   51.4874 H   0  0  0  0  0  0  0  0  0  0  0  0
   59.5137   31.3049   50.3856 H   0  0  0  0  0  0  0  0  0  0  0  0
   58.2329   30.0455   50.3856 H   0  0  0  0  0  0  0  0  0  0  0  0
   58.0873   27.8447   48.5081 H   0  0  0  0  0  0  0  0  0  0  0  0
   56.7806   27.6430   43.5854 H   0  0  0  0  0  0  0  0  0  0  0  0
   58.6190   29.4720   43.3640 H   0  0  0  0  0  0  0  0  0  0  0  0
   60.3238   30.7556   45.0627 H   0  0  0  0  0  0  0  0  0  0  0  0
   57.9489   32.2992   47.9978 H   0  0  0  0  0  0  0  0  0  0  0  0
   56.0767   33.0986   46.5541 H   0  0  0  0  0  0  0  0  0  0  0  0
   56.5523   34.5574   44.5828 H   0  0  0  0  0  0  0  0  0  0  0  0
   58.9017   35.2182   44.0567 H   0  0  0  0  0  0  0  0  0  0  0  0
   60.7777   34.4277   45.5017 H   0  0  0  0  0  0  0  0  0  0  0  0
  1  2  1  0
  2  3  1  0
  3  4  2  0
  4  5  1  0
  5  6  1  0
  6  7  1  0
  7  8  2  0
  7  9  1  0
  6 10  2  0
 10 11  1  0
 11 12  1  0
 12 13  1  0
 13 14  2  0
 14 15  1  0
 15 16  1  0
 16 17  2  0
 16 18  2  0
 16 19  1  0
 19 20  2  0
 20 21  1  0
 21 22  2  0
 22 23  1  0
 23 24  2  0
 14  3  1  0
 24 19  1  0
 12  5  2  0
  1 25  1  0
  1 26  1  0
  1 27  1  0
  4 28  1  0
 10 29  1  0
 11 30  1  0
 13 31  1  0
 20 32  1  0
 21 33  1  0
 22 34  1  0
 23 35  1  0
 24 36  1  0
M  CHG  2   9  -1  15  -1
M  END
>  <UniqueID>  (25) 
24

>  <SMILES>  (25) 
COc1cc2c(C(=O)[O-])c[nH]c2cc1[N-]S(=O)(=O)c1ccccc1

>  <Energy>  (25) 
79.24197527233495

>  <Genealogy>  (25) 
COc1cc2c(C(=O)[O-])c[nH]c2cc1[N-]S(=O)(=O)c1ccccc1 (protonated)
COc1cc2c(C(=O)[O-])c[nH]c2cc1[N-]S(=O)(=O)c1ccccc1 (3D coordinates assigned)
COc1cc2c(C(=O)[O-])c[nH]c2cc1[N-]S(=O)(=O)c1ccccc1 (optimized conformer: 79.24197527233495 kcal/mol)

>  <smiles>  (25) 
COc1cc2c(C(=O)O)c[nH]c2cc1NS(=O)(=O)c1ccccc1

>  <score_type>  (25) 
oracle

>  <origin>  (25) 
adg

>  <m_score__min__energy>  (25) 
-11.09

>  <m_primary>  (25) 
energy

$$$$
25:0
     RDKit          3D

 32 34  0  0  0  0  0  0  0  0999 V2000
   58.0270   32.4010   43.1500 C   0  0  0  0  0  0  0  0  0  0  0  0
   58.5360   32.9630   44.4510 C   0  0  0  0  0  0  0  0  0  0  0  0
   58.8050   34.3400   44.5520 C   0  0  0  0  0  0  0  0  0  0  0  0
   59.2810   34.8820   45.7480 C   0  0  0  0  0  0  0  0  0  0  0  0
   59.4890   34.0610   46.8560 C   0  0  0  0  0  0  0  0  0  0  0  0
   59.2150   32.6940   46.7760 C   0  0  0  0  0  0  0  0  0  0  0  0
   58.7270   32.1370   45.5840 C   0  0  0  0  0  0  0  0  0  0  0  0
   58.4350   30.6880   45.5390 C   0  0  0  0  0  0  0  0  0  0  0  0
   57.1300   30.2770   45.2490 C   0  0  0  0  0  0  0  0  0  0  0  0
   56.8170   28.9570   45.2300 N   0  0  0  0  0  0  0  0  0  0  0  0
   55.5190   28.5920   44.9470 O   0  0  0  0  0  0  0  0  0  0  0  0
   57.7660   28.0100   45.4900 C   0  0  0  0  0  0  0  0  0  0  0  0
   57.4480   26.6390   45.4780 C   0  0  0  0  0  0  0  0  0  0  0  0
   58.4320   25.6850   45.7430 C   0  0  0  0  0  0  0  0  0  0  0  0
   59.7380   26.0830   46.0220 C   0  0  0  0  0  0  0  0  0  0  0  0
   60.0720   27.4380   46.0390 C   0  0  0  0  0  0  0  0  0  0  0  0
   59.0940   28.4170   45.7750 C   0  0  0  0  0  0  0  0  0  0  0  0
   59.4060   29.7510   45.7860 N   0  0  0  0  0  0  0  0  0  0  0  0
   60.7150   30.1330   46.0290 O   0  0  0  0  0  0  0  0  0  0  0  0
   57.3016   31.6000   43.3554 H   0  0  0  0  0  0  0  0  0  0  0  0
   57.5381   33.1991   42.5721 H   0  0  0  0  0  0  0  0  0  0  0  0
   58.8695   31.9933   42.5721 H   0  0  0  0  0  0  0  0  0  0  0  0
   58.6394   34.9942   43.6833 H   0  0  0  0  0  0  0  0  0  0  0  0
   59.4924   35.9593   45.8162 H   0  0  0  0  0  0  0  0  0  0  0  0
   59.8695   34.4909   47.7943 H   0  0  0  0  0  0  0  0  0  0  0  0
   59.3826   32.0503   47.6521 H   0  0  0  0  0  0  0  0  0  0  0  0
   56.3542   31.0270   45.0354 H   0  0  0  0  0  0  0  0  0  0  0  0
   56.4191   26.3177   45.2587 H   0  0  0  0  0  0  0  0  0  0  0  0
   58.1756   24.6154   45.7315 H   0  0  0  0  0  0  0  0  0  0  0  0
   60.5088   25.3262   46.2297 H   0  0  0  0  0  0  0  0  0  0  0  0
   61.1054   27.7434   46.2599 H   0  0  0  0  0  0  0  0  0  0  0  0
   61.5120   29.6340   45.6540 H   0  0  0  0  0  0  0  0  0  0  0  0
  1  2  1  0
  2  3  2  0
  3  4  1  0
  4  5  2  0
  5  6  1  0
  6  7  2  0
  7  8  1  0
  8  9  2  0
  9 10  1  0
 10 11  1  0
 10 12  2  0
 12 13  1  0
 13 14  2  0
 14 15  1  0
 15 16  2  0
 16 17  1  0
 17 18  2  0
 18 19  1  0
  7  2  1  0
 18  8  1  0
 17 12  1  0
  1 20  1  0
  1 21  1  0
  1 22  1  0
  3 23  1  0
  4 24  1  0
  5 25  1  0
  6 26  1  0
  9 27  1  0
 13 28  1  0
 14 29  1  0
 15 30  1  0
 16 31  1  0
 19 32  1  0
M  CHG  3  10   1  11  -1  18   1
M  END
>  <UniqueID>  (26) 
25

>  <SMILES>  (26) 
Cc1ccccc1-c1c[n+]([O-])c2ccccc2[n+]1O

>  <Energy>  (26) 
49.82473218877734

>  <Genealogy>  (26) 
Cc1ccccc1-c1c[n+]([O-])c2ccccc2[n+]1O (protonated)
Cc1ccccc1-c1c[n+]([O-])c2ccccc2[n+]1O (3D coordinates assigned)
Cc1ccccc1-c1c[n+]([O-])c2ccccc2[n+]1O (optimized conformer: 49.82473218877734 kcal/mol)

>  <smiles>  (26) 
Cc1ccccc1-c1c[n+]([O-])c2ccccc2[n+]1[O-]

>  <score_type>  (26) 
oracle

>  <origin>  (26) 
adg

>  <m_score__min__energy>  (26) 
-6.0700000000000003

>  <m_primary>  (26) 
energy

$$$$
26:0
     RDKit          3D

 51 55  0  0  0  0  0  0  0  0999 V2000
   56.1320   29.7150   43.3470 C   0  0  0  0  0  0  0  0  0  0  0  0
   57.1850   29.9910   44.3230 N   0  0  0  0  0  0  0  0  0  0  0  0
   58.0800   29.1180   44.8430 C   0  0  0  0  0  0  0  0  0  0  0  0
   58.2310   27.7650   44.5290 C   0  0  0  0  0  0  0  0  0  0  0  0
   59.2000   27.0260   45.2310 C   0  0  0  0  0  0  0  0  0  0  0  0
   59.9800   27.6380   46.2350 C   0  0  0  0  0  0  0  0  0  0  0  0
   59.8070   28.9980   46.5450 C   0  0  0  0  0  0  0  0  0  0  0  0
   58.8580   29.7190   45.8190 C   0  0  0  0  0  0  0  0  0  0  0  0
   58.4220   31.0290   45.9030 C   0  0  0  0  0  0  0  0  0  0  0  0
   58.7660   32.1230   46.6990 C   0  0  0  0  0  0  0  0  0  0  0  0
   59.8720   32.0830   47.6130 N   0  0  0  0  0  0  0  0  0  0  0  0
   61.2230   31.8790   47.0940 C   0  0  0  0  0  0  0  0  0  0  0  0
   61.9350   33.2290   46.9450 C   0  0  0  0  0  0  0  0  0  0  0  0
   61.7580   34.2060   48.1420 C   0  0  0  0  0  0  0  0  0  0  0  0
   62.9180   34.1700   49.0750 N   0  0  0  0  0  0  0  0  0  0  0  0
   64.1000   33.3730   48.6810 C   0  0  0  0  0  0  0  0  0  0  0  0
   64.1380   31.9620   49.3230 C   0  0  0  0  0  0  0  0  0  0  0  0
   63.3010   31.8050   50.4530 O   0  0  0  0  0  0  0  0  0  0  0  0
   63.3200   32.9720   51.2390 C   0  0  0  0  0  0  0  0  0  0  0  0
   62.5500   34.0740   50.5110 C   0  0  0  0  0  0  0  0  0  0  0  0
   60.3720   34.1440   48.8440 C   0  0  0  0  0  0  0  0  0  0  0  0
   59.7610   32.7390   48.9120 C   0  0  0  0  0  0  0  0  0  0  0  0
   58.0360   33.2680   46.5520 N   0  0  0  0  0  0  0  0  0  0  0  0
   57.0070   33.3560   45.6530 C   0  0  0  0  0  0  0  0  0  0  0  0
   56.6820   32.2890   44.8650 N   0  0  0  0  0  0  0  0  0  0  0  0
   57.3950   31.1450   44.9960 C   0  0  0  0  0  0  0  0  0  0  0  0
   55.1982   29.4702   43.8744 H   0  0  0  0  0  0  0  0  0  0  0  0
   55.9750   30.6023   42.7161 H   0  0  0  0  0  0  0  0  0  0  0  0
   56.4305   28.8648   42.7161 H   0  0  0  0  0  0  0  0  0  0  0  0
   57.6097   27.2912   43.7547 H   0  0  0  0  0  0  0  0  0  0  0  0
   59.3511   25.9622   44.9954 H   0  0  0  0  0  0  0  0  0  0  0  0
   60.7299   27.0457   46.7798 H   0  0  0  0  0  0  0  0  0  0  0  0
   60.4014   29.4793   47.3356 H   0  0  0  0  0  0  0  0  0  0  0  0
   61.7891   31.2432   47.7906 H   0  0  0  0  0  0  0  0  0  0  0  0
   61.1628   31.3911   46.1100 H   0  0  0  0  0  0  0  0  0  0  0  0
   63.0105   33.0347   46.8204 H   0  0  0  0  0  0  0  0  0  0  0  0
   61.4745   33.7231   46.0767 H   0  0  0  0  0  0  0  0  0  0  0  0
   61.7559   35.2108   47.6944 H   0  0  0  0  0  0  0  0  0  0  0  0
   64.0929   33.2575   47.5871 H   0  0  0  0  0  0  0  0  0  0  0  0
   64.9884   33.9145   49.0382 H   0  0  0  0  0  0  0  0  0  0  0  0
   63.8276   31.2307   48.5622 H   0  0  0  0  0  0  0  0  0  0  0  0
   65.1686   31.8081   49.6753 H   0  0  0  0  0  0  0  0  0  0  0  0
   62.8452   32.7702   52.2105 H   0  0  0  0  0  0  0  0  0  0  0  0
   64.3593   33.2918   51.4050 H   0  0  0  0  0  0  0  0  0  0  0  0
   61.4734   33.8610   50.5860 H   0  0  0  0  0  0  0  0  0  0  0  0
   62.8063   35.0320   50.9870 H   0  0  0  0  0  0  0  0  0  0  0  0
   60.4893   34.5187   49.8715 H   0  0  0  0  0  0  0  0  0  0  0  0
   59.6859   34.7569   48.2410 H   0  0  0  0  0  0  0  0  0  0  0  0
   60.2967   32.1449   49.6670 H   0  0  0  0  0  0  0  0  0  0  0  0
   58.6988   32.8201   49.1860 H   0  0  0  0  0  0  0  0  0  0  0  0
   56.4378   34.2932   45.5648 H   0  0  0  0  0  0  0  0  0  0  0  0
  1  2  1  0
  2  3  1  0
  3  4  2  0
  4  5  1  0
  5  6  2  0
  6  7  1  0
  7  8  2  0
  8  9  1  0
  9 10  2  0
 10 11  1  0
 11 12  1  0
 12 13  1  0
 13 14  1  0
 14 15  1  0
 15 16  1  0
 16 17  1  0
 17 18  1  0
 18 19  1  0
 19 20  1  0
 14 21  1  0
 21 22  1  0
 10 23  1  0
 23 24  2  0
 24 25  1  0
 25 26  2  0
 26  2  1  0
  8  3  1  0
 26  9  1  0
 22 11  1  0
 20 15  1  0
  1 27  1  0
  1 28  1  0
  1 29  1  0
  4 30  1  0
  5 31  1  0
  6 32  1  0
  7 33  1  0
 12 34  1  0
 12 35  1  0
 13 36  1  0
 13 37  1  0
 14 38  1  0
 16 39  1  0
 16 40  1  0
 17 41  1  0
 17 42  1  0
 19 43  1  0
 19 44  1  0
 20 45  1  0
 20 46  1  0
 21 47  1  0
 21 48  1  0
 22 49  1  0
 22 50  1  0
 24 51  1  0
M  END
>  <UniqueID>  (27) 
26

>  <SMILES>  (27) 
Cn1c2ccccc2c2c(N3CCC(N4CCOCC4)CC3)ncnc21

>  <Energy>  (27) 
127.84107228163725

>  <Genealogy>  (27) 
Cn1c2ccccc2c2c(N3CCC(N4CCOCC4)CC3)ncnc21 (3D coordinates assigned)
Cn1c2ccccc2c2c(N3CCC(N4CCOCC4)CC3)ncnc21 (nonaromatic ring conformer: 127.84107228163725 kcal/mol)

>  <smiles>  (27) 
Cn1c2ccccc2c2c(N3CCC(N4CCOCC4)CC3)ncnc21

>  <score_type>  (27) 
oracle

>  <origin>  (27) 
adg

>  <m_score__min__energy>  (27) 
-8.0999999999999996

>  <m_primary>  (27) 
energy

$$$$
27:0
     RDKit          3D

 37 40  0  0  0  0  0  0  0  0999 V2000
   60.5300   30.1780   47.9160 C   0  0  0  0  0  0  0  0  0  0  0  0
   60.6010   30.3370   46.4020 C   0  0  0  0  0  0  0  0  0  0  0  0
   59.2550   30.4520   45.8320 N   0  0  0  0  0  0  0  0  0  0  0  0
   58.4670   31.5520   45.6670 C   0  0  0  0  0  0  0  0  0  0  0  0
   58.8130   32.9200   46.0900 C   0  0  0  0  0  0  0  0  0  0  0  0
   59.2640   33.9280   45.2230 C   0  0  0  0  0  0  0  0  0  0  0  0
   59.5590   35.1220   45.8660 C   0  0  0  0  0  0  0  0  0  0  0  0
   59.2810   34.9130   47.5100 S   0  0  0  0  0  0  0  0  0  0  0  0
   58.7840   33.3110   47.4250 C   0  0  0  0  0  0  0  0  0  0  0  0
   57.2630   31.2610   45.1070 N   0  0  0  0  0  0  0  0  0  0  0  0
   57.3700   29.9450   44.8410 C   0  0  0  0  0  0  0  0  0  0  0  0
   58.5440   29.4630   45.2680 C   0  0  0  0  0  0  0  0  0  0  0  0
   58.4520   28.0340   45.6390 C   0  0  0  0  0  0  0  0  0  0  0  0
   57.0450   27.7240   45.3330 N   0  0  0  0  0  0  0  0  0  0  0  0
   56.3710   26.5280   45.7660 C   0  0  0  0  0  0  0  0  0  0  0  0
   55.1370   26.5700   46.0180 O   0  0  0  0  0  0  0  0  0  0  0  0
   57.0840   25.2490   45.9420 C   0  0  0  0  0  0  0  0  0  0  0  0
   57.8010   24.5430   44.9960 C   0  0  0  0  0  0  0  0  0  0  0  0
   58.2080   23.3860   45.6270 C   0  0  0  0  0  0  0  0  0  0  0  0
   57.7660   23.3730   46.8640 O   0  0  0  0  0  0  0  0  0  0  0  0
   57.0810   24.4710   47.0840 C   0  0  0  0  0  0  0  0  0  0  0  0
   56.3140   28.9110   44.8610 C   0  0  0  0  0  0  0  0  0  0  0  0
   60.9330   31.0805   48.3988 H   0  0  0  0  0  0  0  0  0  0  0  0
   59.4828   30.0356   48.2210 H   0  0  0  0  0  0  0  0  0  0  0  0
   61.1230   29.3031   48.2210 H   0  0  0  0  0  0  0  0  0  0  0  0
   61.1748   31.2438   46.1602 H   0  0  0  0  0  0  0  0  0  0  0  0
   61.0927   29.4506   45.9748 H   0  0  0  0  0  0  0  0  0  0  0  0
   59.3731   33.7851   44.1378 H   0  0  0  0  0  0  0  0  0  0  0  0
   59.9132   36.0448   45.3833 H   0  0  0  0  0  0  0  0  0  0  0  0
   58.4873   32.6808   48.2763 H   0  0  0  0  0  0  0  0  0  0  0  0
   59.1363   27.4201   45.0350 H   0  0  0  0  0  0  0  0  0  0  0  0
   58.7327   27.8295   46.6827 H   0  0  0  0  0  0  0  0  0  0  0  0
   58.0048   24.8410   43.9569 H   0  0  0  0  0  0  0  0  0  0  0  0
   58.8126   22.5925   45.1635 H   0  0  0  0  0  0  0  0  0  0  0  0
   56.5826   24.7311   48.0295 H   0  0  0  0  0  0  0  0  0  0  0  0
   55.8969   28.7483   43.8562 H   0  0  0  0  0  0  0  0  0  0  0  0
   55.4511   29.1753   45.4899 H   0  0  0  0  0  0  0  0  0  0  0  0
  1  2  1  0
  2  3  1  0
  3  4  1  0
  4  5  1  0
  5  6  1  0
  6  7  2  0
  7  8  1  0
  8  9  1  0
  4 10  2  0
 10 11  1  0
 11 12  2  0
 12 13  1  0
 13 14  1  0
 14 15  1  0
 15 16  2  0
 15 17  1  0
 17 18  1  0
 18 19  2  0
 19 20  1  0
 20 21  1  0
 14 22  1  0
 12  3  1  0
 21 17  2  0
  9  5  2  0
 22 11  1  0
  1 23  1  0
  1 24  1  0
  1 25  1  0
  2 26  1  0
  2 27  1  0
  6 28  1  0
  7 29  1  0
  9 30  1  0
 13 31  1  0
 13 32  1  0
 18 33  1  0
 19 34  1  0
 21 35  1  0
 22 36  1  0
 22 37  1  0
M  END
>  <UniqueID>  (28) 
27

>  <SMILES>  (28) 
CCn1c(-c2ccsc2)nc2c1CN(C(=O)c1ccoc1)C2

>  <Energy>  (28) 
153.8045450010405

>  <Genealogy>  (28) 
CCn1c(-c2ccsc2)nc2c1CN(C(=O)c1ccoc1)C2 (3D coordinates assigned)
CCn1c(-c2ccsc2)nc2c1CN(C(=O)c1ccoc1)C2 (nonaromatic ring conformer: 153.8045450010405 kcal/mol)

>  <smiles>  (28) 
CCn1c(-c2ccsc2)nc2c1CN(C(=O)c1ccoc1)C2

>  <score_type>  (28) 
oracle

>  <origin>  (28) 
adg

>  <m_score__min__energy>  (28) 
-7.2199999999999998

>  <m_primary>  (28) 
energy

$$$$
28:0
     RDKit          3D

 34 37  0  0  0  0  0  0  0  0999 V2000
   61.5140   34.1960   49.4080 C   0  0  0  0  0  0  0  0  0  0  0  0
   60.2570   34.5930   48.8670 O   0  0  0  0  0  0  0  0  0  0  0  0
   59.7570   34.1770   47.6240 C   0  0  0  0  0  0  0  0  0  0  0  0
   59.6430   35.1310   46.6130 C   0  0  0  0  0  0  0  0  0  0  0  0
   59.1530   34.7760   45.3590 C   0  0  0  0  0  0  0  0  0  0  0  0
   58.7650   33.4540   45.0950 C   0  0  0  0  0  0  0  0  0  0  0  0
   58.2770   33.1240   43.8290 C   0  0  0  0  0  0  0  0  0  0  0  0
   57.8870   31.8530   43.5230 N   0  0  0  0  0  0  0  0  0  0  0  0
   57.3840   31.5990   42.1610 C   0  0  0  0  0  0  0  0  0  0  0  0
   57.9650   30.8490   44.4630 C   0  0  0  0  0  0  0  0  0  0  0  0
   57.5590   29.5210   44.1460 C   0  0  0  0  0  0  0  0  0  0  0  0
   57.6540   28.5410   45.1200 C   0  0  0  0  0  0  0  0  0  0  0  0
   58.1180   28.8050   46.3570 C   0  0  0  0  0  0  0  0  0  0  0  0
   58.5320   30.0720   46.7380 C   0  0  0  0  0  0  0  0  0  0  0  0
   58.4630   31.1330   45.7870 C   0  0  0  0  0  0  0  0  0  0  0  0
   58.8660   32.4610   46.0970 C   0  0  0  0  0  0  0  0  0  0  0  0
   59.3690   32.8480   47.3670 C   0  0  0  0  0  0  0  0  0  0  0  0
   58.1020   27.6480   47.1140 O   0  0  0  0  0  0  0  0  0  0  0  0
   57.5930   26.5900   46.2920 C   0  0  0  0  0  0  0  0  0  0  0  0
   57.3190   27.2040   45.0260 O   0  0  0  0  0  0  0  0  0  0  0  0
   61.4620   34.2124   50.5066 H   0  0  0  0  0  0  0  0  0  0  0  0
   61.7547   33.1781   49.0675 H   0  0  0  0  0  0  0  0  0  0  0  0
   62.2957   34.8910   49.0675 H   0  0  0  0  0  0  0  0  0  0  0  0
   59.9424   36.1714   46.8077 H   0  0  0  0  0  0  0  0  0  0  0  0
   59.0695   35.5376   44.5697 H   0  0  0  0  0  0  0  0  0  0  0  0
   58.2053   33.9074   43.0602 H   0  0  0  0  0  0  0  0  0  0  0  0
   56.4034   31.1038   42.2187 H   0  0  0  0  0  0  0  0  0  0  0  0
   57.2817   32.5535   41.6239 H   0  0  0  0  0  0  0  0  0  0  0  0
   58.0914   30.9501   41.6239 H   0  0  0  0  0  0  0  0  0  0  0  0
   57.1762   29.2778   43.1438 H   0  0  0  0  0  0  0  0  0  0  0  0
   58.9071   30.2559   47.7556 H   0  0  0  0  0  0  0  0  0  0  0  0
   59.4572   32.0959   48.1648 H   0  0  0  0  0  0  0  0  0  0  0  0
   58.3420   25.7921   46.1808 H   0  0  0  0  0  0  0  0  0  0  0  0
   56.6975   26.1224   46.7273 H   0  0  0  0  0  0  0  0  0  0  0  0
  1  2  1  0
  2  3  1  0
  3  4  2  0
  4  5  1  0
  5  6  2  0
  6  7  1  0
  7  8  2  0
  8  9  1  0
  8 10  1  0
 10 11  2  0
 11 12  1  0
 12 13  2  0
 13 14  1  0
 14 15  2  0
 15 16  1  0
 16 17  2  0
 13 18  1  0
 18 19  1  0
 19 20  1  0
 17  3  1  0
 16  6  1  0
 15 10  1  0
 20 12  1  0
  1 21  1  0
  1 22  1  0
  1 23  1  0
  4 24  1  0
  5 25  1  0
  7 26  1  0
  9 27  1  0
  9 28  1  0
  9 29  1  0
 11 30  1  0
 14 31  1  0
 17 32  1  0
 19 33  1  0
 19 34  1  0
M  CHG  1   8   1
M  END
>  <UniqueID>  (29) 
28

>  <SMILES>  (29) 
COc1ccc2c[n+](C)c3cc4c(cc3c2c1)OCO4

>  <Energy>  (29) 
80.44708724673343

>  <Genealogy>  (29) 
COc1ccc2c[n+](C)c3cc4c(cc3c2c1)OCO4 (3D coordinates assigned)
COc1ccc2c[n+](C)c3cc4c(cc3c2c1)OCO4 (nonaromatic ring conformer: 80.44708724673343 kcal/mol)

>  <smiles>  (29) 
COc1ccc2c[n+](C)c3cc4c(cc3c2c1)OCO4

>  <score_type>  (29) 
oracle

>  <origin>  (29) 
adg

>  <m_score__min__energy>  (29) 
-4.7000000000000002

>  <m_primary>  (29) 
energy

$$$$
29:0
     RDKit          3D

 48 50  0  0  0  0  0  0  0  0999 V2000
   63.4320   24.9120   51.6940 C   0  0  0  0  0  0  0  0  0  0  0  0
   62.1640   25.6500   52.1080 C   0  0  0  0  0  0  0  0  0  0  0  0
   62.2970   27.0540   51.8840 O   0  0  0  0  0  0  0  0  0  0  0  0
   61.5870   27.8000   50.9290 C   0  0  0  0  0  0  0  0  0  0  0  0
   61.7520   29.1900   50.9230 C   0  0  0  0  0  0  0  0  0  0  0  0
   61.0710   29.9840   49.9960 C   0  0  0  0  0  0  0  0  0  0  0  0
   60.2000   29.3990   49.0670 C   0  0  0  0  0  0  0  0  0  0  0  0
   59.5210   30.2230   48.1020 N   0  0  0  0  0  0  0  0  0  0  0  0
   58.9540   31.3750   48.4230 N   0  0  0  0  0  0  0  0  0  0  0  0
   58.4120   31.8960   47.3060 C   0  0  0  0  0  0  0  0  0  0  0  0
   58.6640   31.0610   46.2290 C   0  0  0  0  0  0  0  0  0  0  0  0
   59.3260   29.9690   46.7850 C   0  0  0  0  0  0  0  0  0  0  0  0
   59.6530   28.6710   46.1020 C   0  0  0  0  0  0  0  0  0  0  0  0
   58.1180   31.2810   44.8390 C   0  0  1  0  0  0  0  0  0  0  0  0
   56.6630   31.1690   44.7900 N   0  0  0  0  0  0  0  0  0  0  0  0
   55.9770   30.0540   44.2130 C   0  0  0  0  0  0  0  0  0  0  0  0
   56.1620   29.7410   42.7660 C   0  0  0  0  0  0  0  0  0  0  0  0
   55.1780   29.3660   44.9050 O   0  0  0  0  0  0  0  0  0  0  0  0
   58.5590   32.6500   44.2910 C   0  0  0  0  0  0  0  0  0  0  0  0
   57.7150   33.8470   44.7950 C   0  0  0  0  0  0  0  0  0  0  0  0
   57.9980   34.2290   46.2620 C   0  0  0  0  0  0  0  0  0  0  0  0
   57.5840   33.1570   47.3050 C   0  0  0  0  0  0  0  0  0  0  0  0
   60.0500   28.0040   49.0530 C   0  0  0  0  0  0  0  0  0  0  0  0
   60.7320   27.2080   49.9780 C   0  0  0  0  0  0  0  0  0  0  0  0
   63.9804   24.5928   52.5925 H   0  0  0  0  0  0  0  0  0  0  0  0
   63.1635   24.0291   51.0954 H   0  0  0  0  0  0  0  0  0  0  0  0
   64.0671   25.5816   51.0954 H   0  0  0  0  0  0  0  0  0  0  0  0
   61.3168   25.2696   51.5184 H   0  0  0  0  0  0  0  0  0  0  0  0
   61.9918   25.4794   53.1810 H   0  0  0  0  0  0  0  0  0  0  0  0
   62.4241   29.6620   51.6549 H   0  0  0  0  0  0  0  0  0  0  0  0
   61.2195   31.0739   49.9956 H   0  0  0  0  0  0  0  0  0  0  0  0
   59.8479   27.8972   46.8591 H   0  0  0  0  0  0  0  0  0  0  0  0
   58.8043   28.3634   45.4735 H   0  0  0  0  0  0  0  0  0  0  0  0
   60.5461   28.8022   45.4735 H   0  0  0  0  0  0  0  0  0  0  0  0
   58.5339   30.4844   44.2046 H   0  0  0  0  0  0  0  0  0  0  0  0
   56.7192   28.7982   42.6631 H   0  0  0  0  0  0  0  0  0  0  0  0
   55.1784   29.6400   42.2840 H   0  0  0  0  0  0  0  0  0  0  0  0
   56.7248   30.5540   42.2840 H   0  0  0  0  0  0  0  0  0  0  0  0
   59.6048   32.8180   44.5879 H   0  0  0  0  0  0  0  0  0  0  0  0
   58.4223   32.6086   43.2003 H   0  0  0  0  0  0  0  0  0  0  0  0
   57.9341   34.7184   44.1605 H   0  0  0  0  0  0  0  0  0  0  0  0
   56.6593   33.5430   44.7392 H   0  0  0  0  0  0  0  0  0  0  0  0
   59.0781   34.4090   46.3665 H   0  0  0  0  0  0  0  0  0  0  0  0
   57.3873   35.1191   46.4736 H   0  0  0  0  0  0  0  0  0  0  0  0
   57.6571   33.6109   48.3043 H   0  0  0  0  0  0  0  0  0  0  0  0
   56.5645   32.8479   47.0310 H   0  0  0  0  0  0  0  0  0  0  0  0
   59.3909   27.5332   48.3087 H   0  0  0  0  0  0  0  0  0  0  0  0
   60.6008   26.1159   49.9635 H   0  0  0  0  0  0  0  0  0  0  0  0
  1  2  1  0
  2  3  1  0
  3  4  1  0
  4  5  2  0
  5  6  1  0
  6  7  2  0
  7  8  1  0
  8  9  1  0
  9 10  2  0
 10 11  1  0
 11 12  2  0
 12 13  1  0
 11 14  1  0
 14 15  1  0
 15 16  1  0
 16 17  1  0
 16 18  2  0
 14 19  1  0
 19 20  1  0
 20 21  1  0
 21 22  1  0
  7 23  1  0
 23 24  2  0
 24  4  1  0
 12  8  1  0
 22 10  1  0
  1 25  1  0
  1 26  1  0
  1 27  1  0
  2 28  1  0
  2 29  1  0
  5 30  1  0
  6 31  1  0
 13 32  1  0
 13 33  1  0
 13 34  1  0
 14 35  1  6
 17 36  1  0
 17 37  1  0
 17 38  1  0
 19 39  1  0
 19 40  1  0
 20 41  1  0
 20 42  1  0
 21 43  1  0
 21 44  1  0
 22 45  1  0
 22 46  1  0
 23 47  1  0
 24 48  1  0
M  CHG  1  15  -1
M  END
>  <UniqueID>  (30) 
29

>  <SMILES>  (30) 
CCOc1ccc(-n2nc3c(c2C)[C@@H]([N-]C(C)=O)CCCC3)cc1

>  <Energy>  (30) 
85.58621916881614

>  <Genealogy>  (30) 
CCOc1ccc(-n2nc3c(c2C)C([N-]C(C)=O)CCCC3)cc1 (protonated)
CCOc1ccc(-n2nc3c(c2C)[C@@H]([N-]C(C)=O)CCCC3)cc1 (chirality)
CCOc1ccc(-n2nc3c(c2C)[C@@H]([N-]C(C)=O)CCCC3)cc1 (3D coordinates assigned)
CCOc1ccc(-n2nc3c(c2C)[C@@H]([N-]C(C)=O)CCCC3)cc1 (nonaromatic ring conformer: 85.58621916881614 kcal/mol)

>  <smiles>  (30) 
CCOc1ccc(-n2nc3c(c2C)C(NC(C)=O)CCCC3)cc1

>  <score_type>  (30) 
oracle

>  <origin>  (30) 
adg

>  <m_score__min__energy>  (30) 
-7.8499999999999996

>  <m_primary>  (30) 
energy

$$$$
30:0
     RDKit          3D

 41 43  0  0  0  0  0  0  0  0999 V2000
   63.3030   33.8570   46.4100 C   0  0  0  0  0  0  0  0  0  0  0  0
   63.2820   32.9290   47.6210 C   0  0  0  0  0  0  0  0  0  0  0  0
   62.0240   32.2890   47.7250 O   0  0  0  0  0  0  0  0  0  0  0  0
   61.6790   32.0920   49.0800 C   0  0  0  0  0  0  0  0  0  0  0  0
   60.2210   32.4910   49.2880 C   0  0  0  0  0  0  0  0  0  0  0  0
   59.4880   32.4170   48.0230 N   0  0  0  0  0  0  0  0  0  0  0  0
   58.8590   31.3210   47.5400 C   0  0  0  0  0  0  0  0  0  0  0  0
   58.3270   31.5820   46.2790 C   0  0  0  0  0  0  0  0  0  0  0  0
   57.6150   30.6210   45.4070 C   0  0  0  0  0  0  0  0  0  0  0  0
   56.6670   31.0300   44.6850 O   0  0  0  0  0  0  0  0  0  0  0  0
   58.0020   29.1910   45.3460 C   0  0  0  0  0  0  0  0  0  0  0  0
   59.3580   28.8170   45.3840 C   0  0  0  0  0  0  0  0  0  0  0  0
   59.7220   27.4690   45.3430 C   0  0  0  0  0  0  0  0  0  0  0  0
   58.7400   26.4790   45.2740 C   0  0  0  0  0  0  0  0  0  0  0  0
   57.3900   26.8370   45.2490 C   0  0  0  0  0  0  0  0  0  0  0  0
   57.0170   28.1840   45.2890 C   0  0  0  0  0  0  0  0  0  0  0  0
   55.6990   28.5040   45.2490 F   0  0  0  0  0  0  0  0  0  0  0  0
   58.6770   32.8940   45.9920 C   0  0  0  0  0  0  0  0  0  0  0  0
   58.4280   33.6940   44.8720 C   0  0  0  0  0  0  0  0  0  0  0  0
   58.9320   35.0070   44.8750 C   0  0  0  0  0  0  0  0  0  0  0  0
   59.6650   35.4900   45.9790 C   0  0  0  0  0  0  0  0  0  0  0  0
   59.8990   34.6680   47.0940 C   0  0  0  0  0  0  0  0  0  0  0  0
   59.3830   33.3680   47.0730 C   0  0  0  0  0  0  0  0  0  0  0  0
   63.3267   34.9029   46.7499 H   0  0  0  0  0  0  0  0  0  0  0  0
   64.1967   33.6482   45.8035 H   0  0  0  0  0  0  0  0  0  0  0  0
   62.4008   33.6889   45.8035 H   0  0  0  0  0  0  0  0  0  0  0  0
   64.0685   32.1682   47.5093 H   0  0  0  0  0  0  0  0  0  0  0  0
   63.4592   33.5219   48.5304 H   0  0  0  0  0  0  0  0  0  0  0  0
   61.8119   31.0323   49.3435 H   0  0  0  0  0  0  0  0  0  0  0  0
   62.3266   32.7089   49.7204 H   0  0  0  0  0  0  0  0  0  0  0  0
   59.7583   31.8082   50.0158 H   0  0  0  0  0  0  0  0  0  0  0  0
   60.1831   33.5243   49.6633 H   0  0  0  0  0  0  0  0  0  0  0  0
   58.7789   30.3595   48.0683 H   0  0  0  0  0  0  0  0  0  0  0  0
   60.1367   29.5914   45.4464 H   0  0  0  0  0  0  0  0  0  0  0  0
   60.7850   27.1868   45.3651 H   0  0  0  0  0  0  0  0  0  0  0  0
   59.0291   25.4182   45.2394 H   0  0  0  0  0  0  0  0  0  0  0  0
   56.6171   26.0560   45.1976 H   0  0  0  0  0  0  0  0  0  0  0  0
   57.8558   33.3082   44.0154 H   0  0  0  0  0  0  0  0  0  0  0  0
   58.7532   35.6623   44.0097 H   0  0  0  0  0  0  0  0  0  0  0  0
   60.0564   36.5180   45.9669 H   0  0  0  0  0  0  0  0  0  0  0  0
   60.4713   35.0359   47.9583 H   0  0  0  0  0  0  0  0  0  0  0  0
  1  2  1  0
  2  3  1  0
  3  4  1  0
  4  5  1  0
  5  6  1  0
  6  7  1  0
  7  8  2  0
  8  9  1  0
  9 10  2  0
  9 11  1  0
 11 12  2  0
 12 13  1  0
 13 14  2  0
 14 15  1  0
 15 16  2  0
 16 17  1  0
  8 18  1  0
 18 19  2  0
 19 20  1  0
 20 21  2  0
 21 22  1  0
 22 23  2  0
 23  6  1  0
 16 11  1  0
 23 18  1  0
  1 24  1  0
  1 25  1  0
  1 26  1  0
  2 27  1  0
  2 28  1  0
  4 29  1  0
  4 30  1  0
  5 31  1  0
  5 32  1  0
  7 33  1  0
 12 34  1  0
 13 35  1  0
 14 36  1  0
 15 37  1  0
 19 38  1  0
 20 39  1  0
 21 40  1  0
 22 41  1  0
M  END
>  <UniqueID>  (31) 
30

>  <SMILES>  (31) 
CCOCCn1cc(C(=O)c2ccccc2F)c2ccccc21

>  <Energy>  (31) 
79.29268858782363

>  <Genealogy>  (31) 
CCOCCn1cc(C(=O)c2ccccc2F)c2ccccc21 (3D coordinates assigned)
CCOCCn1cc(C(=O)c2ccccc2F)c2ccccc21 (optimized conformer: 79.29268858782363 kcal/mol)

>  <smiles>  (31) 
CCOCCn1cc(C(=O)c2ccccc2F)c2ccccc21

>  <score_type>  (31) 
oracle

>  <origin>  (31) 
adg

>  <m_score__min__energy>  (31) 
-7.3899999999999997

>  <m_primary>  (31) 
energy

$$$$
31:0
     RDKit          3D

 63 65  0  0  0  0  0  0  0  0999 V2000
   68.1650   34.2380   51.2470 C   0  0  0  0  0  0  0  0  0  0  0  0
   66.9730   33.6570   51.7640 O   0  0  0  0  0  0  0  0  0  0  0  0
   65.7580   33.5880   51.0660 C   0  0  0  0  0  0  0  0  0  0  0  0
   64.5990   34.2560   51.5020 C   0  0  0  0  0  0  0  0  0  0  0  0
   63.4110   34.1560   50.7710 C   0  0  0  0  0  0  0  0  0  0  0  0
   63.3580   33.3910   49.5910 C   0  0  0  0  0  0  0  0  0  0  0  0
   62.1340   33.2930   48.8320 N   0  0  0  0  0  0  0  0  0  0  0  0
   61.9430   32.2230   47.8450 C   0  0  0  0  0  0  0  0  0  0  0  0
   61.0180   32.7100   46.7230 C   0  0  0  0  0  0  0  0  0  0  0  0
   59.6990   33.1920   47.2170 N   0  0  0  0  0  0  0  0  0  0  0  0
   59.1390   34.2510   46.3460 C   0  0  0  0  0  0  0  0  0  0  0  0
   57.6500   34.0090   46.0160 C   0  0  2  0  0  0  0  0  0  0  0  0
   57.0130   33.4690   47.1430 O   0  0  0  0  0  0  0  0  0  0  0  0
   57.4930   33.0510   44.8240 C   0  0  0  0  0  0  0  0  0  0  0  0
   57.0380   31.7680   45.2570 O   0  0  0  0  0  0  0  0  0  0  0  0
   57.8120   30.5970   45.3740 C   0  0  0  0  0  0  0  0  0  0  0  0
   58.7290   30.4130   46.4290 C   0  0  0  0  0  0  0  0  0  0  0  0
   59.4930   29.2420   46.5210 C   0  0  0  0  0  0  0  0  0  0  0  0
   60.4330   29.0390   47.6720 C   0  0  0  0  0  0  0  0  0  0  0  0
   59.3210   28.2320   45.5710 C   0  0  0  0  0  0  0  0  0  0  0  0
   58.4240   28.4020   44.5180 C   0  0  0  0  0  0  0  0  0  0  0  0
   57.6670   29.5830   44.3980 C   0  0  0  0  0  0  0  0  0  0  0  0
   56.6880   29.7410   43.2420 C   0  0  0  0  0  0  0  0  0  0  0  0
   55.2360   29.7460   43.7380 C   0  0  0  0  0  0  0  0  0  0  0  0
   56.9970   31.0060   42.4310 C   0  0  0  0  0  0  0  0  0  0  0  0
   59.6970   33.6060   48.6430 C   0  0  0  0  0  0  0  0  0  0  0  0
   61.0280   34.2280   49.0810 C   0  0  0  0  0  0  0  0  0  0  0  0
   64.5200   32.7260   49.1630 C   0  0  0  0  0  0  0  0  0  0  0  0
   65.7060   32.8260   49.8950 C   0  0  0  0  0  0  0  0  0  0  0  0
   68.8107   34.5527   52.0801 H   0  0  0  0  0  0  0  0  0  0  0  0
   68.6963   33.4978   50.6307 H   0  0  0  0  0  0  0  0  0  0  0  0
   67.9093   35.1125   50.6307 H   0  0  0  0  0  0  0  0  0  0  0  0
   64.6274   34.8592   52.4214 H   0  0  0  0  0  0  0  0  0  0  0  0
   62.5097   34.6801   51.1216 H   0  0  0  0  0  0  0  0  0  0  0  0
   62.9171   31.9413   47.4187 H   0  0  0  0  0  0  0  0  0  0  0  0
   61.4880   31.3513   48.3380 H   0  0  0  0  0  0  0  0  0  0  0  0
   61.5158   33.5357   46.1934 H   0  0  0  0  0  0  0  0  0  0  0  0
   60.8255   31.8515   46.0628 H   0  0  0  0  0  0  0  0  0  0  0  0
   59.2352   35.2192   46.8592 H   0  0  0  0  0  0  0  0  0  0  0  0
   59.7001   34.2415   45.3999 H   0  0  0  0  0  0  0  0  0  0  0  0
   57.1895   34.9700   45.7431 H   0  0  0  0  0  0  0  0  0  0  0  0
   57.4170   32.5770   47.3020 H   0  0  0  0  0  0  0  0  0  0  0  0
   56.7629   33.4723   44.1172 H   0  0  0  0  0  0  0  0  0  0  0  0
   58.4728   32.9308   44.3386 H   0  0  0  0  0  0  0  0  0  0  0  0
   58.8462   31.1989   47.1897 H   0  0  0  0  0  0  0  0  0  0  0  0
   59.8849   29.1574   48.6183 H   0  0  0  0  0  0  0  0  0  0  0  0
   60.8622   28.0275   47.6209 H   0  0  0  0  0  0  0  0  0  0  0  0
   61.2414   29.7833   47.6209 H   0  0  0  0  0  0  0  0  0  0  0  0
   59.8963   27.2982   45.6546 H   0  0  0  0  0  0  0  0  0  0  0  0
   58.3059   27.6032   43.7710 H   0  0  0  0  0  0  0  0  0  0  0  0
   56.8105   28.8726   42.5781 H   0  0  0  0  0  0  0  0  0  0  0  0
   55.2243   29.7460   44.8379 H   0  0  0  0  0  0  0  0  0  0  0  0
   54.7245   30.6459   43.3658 H   0  0  0  0  0  0  0  0  0  0  0  0
   54.7183   28.8496   43.3658 H   0  0  0  0  0  0  0  0  0  0  0  0
   57.2010   31.8409   43.1175 H   0  0  0  0  0  0  0  0  0  0  0  0
   57.8783   30.8289   41.7970 H   0  0  0  0  0  0  0  0  0  0  0  0
   56.1333   31.2552   41.7970 H   0  0  0  0  0  0  0  0  0  0  0  0
   58.8967   34.3455   48.7935 H   0  0  0  0  0  0  0  0  0  0  0  0
   59.5366   32.7032   49.2506 H   0  0  0  0  0  0  0  0  0  0  0  0
   61.2005   35.1538   48.5125 H   0  0  0  0  0  0  0  0  0  0  0  0
   60.9824   34.4499   50.1574 H   0  0  0  0  0  0  0  0  0  0  0  0
   64.4955   32.1218   48.2441 H   0  0  0  0  0  0  0  0  0  0  0  0
   66.6072   32.3002   49.5466 H   0  0  0  0  0  0  0  0  0  0  0  0
  1  2  1  0
  2  3  1  0
  3  4  2  0
  4  5  1  0
  5  6  2  0
  6  7  1  0
  7  8  1  0
  8  9  1  0
  9 10  1  0
 10 11  1  0
 11 12  1  0
 12 13  1  0
 12 14  1  0
 14 15  1  0
 15 16  1  0
 16 17  2  0
 17 18  1  0
 18 19  1  0
 18 20  2  0
 20 21  1  0
 21 22  2  0
 22 23  1  0
 23 24  1  0
 23 25  1  0
 10 26  1  0
 26 27  1  0
  6 28  1  0
 28 29  2  0
 29  3  1  0
 27  7  1  0
 22 16  1  0
  1 30  1  0
  1 31  1  0
  1 32  1  0
  4 33  1  0
  5 34  1  0
  8 35  1  0
  8 36  1  0
  9 37  1  0
  9 38  1  0
 11 39  1  0
 11 40  1  0
 12 41  1  6
 13 42  1  0
 14 43  1  0
 14 44  1  0
 17 45  1  0
 19 46  1  0
 19 47  1  0
 19 48  1  0
 20 49  1  0
 21 50  1  0
 23 51  1  0
 24 52  1  0
 24 53  1  0
 24 54  1  0
 25 55  1  0
 25 56  1  0
 25 57  1  0
 26 58  1  0
 26 59  1  0
 27 60  1  0
 27 61  1  0
 28 62  1  0
 29 63  1  0
M  END
>  <UniqueID>  (32) 
31

>  <SMILES>  (32) 
COc1ccc(N2CCN(C[C@H](O)COc3cc(C)ccc3C(C)C)CC2)cc1

>  <Energy>  (32) 
69.95736537518287

>  <Genealogy>  (32) 
COc1ccc(N2CCN(C[C@H](O)COc3cc(C)ccc3C(C)C)CC2)cc1 (chirality)
COc1ccc(N2CCN(C[C@H](O)COc3cc(C)ccc3C(C)C)CC2)cc1 (3D coordinates assigned)
COc1ccc(N2CCN(C[C@H](O)COc3cc(C)ccc3C(C)C)CC2)cc1 (nonaromatic ring conformer: 69.95736537518287 kcal/mol)

>  <smiles>  (32) 
COc1ccc(N2CCN(CC(O)COc3cc(C)ccc3C(C)C)CC2)cc1

>  <score_type>  (32) 
oracle

>  <origin>  (32) 
adg

>  <m_score__min__energy>  (32) 
-8.4000000000000004

>  <m_primary>  (32) 
energy

$$$$
32:0
     RDKit          3D

 52 55  0  0  0  0  0  0  0  0999 V2000
   56.6230   29.6680   42.9510 C   0  0  0  0  0  0  0  0  0  0  0  0
   55.9840   30.4600   44.0900 C   0  0  0  0  0  0  0  0  0  0  0  0
   57.0220   31.0670   44.9520 N   0  0  0  0  0  0  0  0  0  0  0  0
   56.9880   32.5380   44.8540 C   0  0  0  0  0  0  0  0  0  0  0  0
   58.3730   30.5810   44.5980 C   0  0  0  0  0  0  0  0  0  0  0  0
   59.0180   29.8710   45.7630 C   0  0  0  0  0  0  0  0  0  0  0  0
   59.6790   30.4380   46.8570 C   0  0  0  0  0  0  0  0  0  0  0  0
   59.9860   31.8650   47.0860 C   0  0  0  0  0  0  0  0  0  0  0  0
   61.3100   32.3360   47.0790 C   0  0  0  0  0  0  0  0  0  0  0  0
   61.5790   33.6870   47.3230 C   0  0  0  0  0  0  0  0  0  0  0  0
   60.5330   34.5730   47.5920 C   0  0  0  0  0  0  0  0  0  0  0  0
   59.2150   34.1070   47.6250 C   0  0  0  0  0  0  0  0  0  0  0  0
   58.9420   32.7580   47.3810 C   0  0  0  0  0  0  0  0  0  0  0  0
   59.9730   29.4770   47.7670 N   0  0  0  0  0  0  0  0  0  0  0  0
   59.4930   28.3520   47.2040 C   0  0  0  0  0  0  0  0  0  0  0  0
   59.5280   27.0800   47.7610 C   0  0  0  0  0  0  0  0  0  0  0  0
   58.9570   26.0590   47.0630 N   0  0  0  0  0  0  0  0  0  0  0  0
   58.3540   26.2510   45.8470 C   0  0  0  0  0  0  0  0  0  0  0  0
   57.7450   25.0940   45.1400 C   0  0  0  0  0  0  0  0  0  0  0  0
   57.3800   25.1740   43.7830 C   0  0  0  0  0  0  0  0  0  0  0  0
   56.8150   24.0720   43.1340 C   0  0  0  0  0  0  0  0  0  0  0  0
   56.6100   22.8700   43.8200 C   0  0  0  0  0  0  0  0  0  0  0  0
   56.0390   21.7950   43.1230 O   0  0  0  0  0  0  0  0  0  0  0  0
   56.6410   20.5120   42.9920 C   0  0  0  0  0  0  0  0  0  0  0  0
   56.9820   22.7810   45.1730 C   0  0  0  0  0  0  0  0  0  0  0  0
   57.5480   23.8810   45.8230 C   0  0  0  0  0  0  0  0  0  0  0  0
   58.3130   27.5560   45.3080 C   0  0  0  0  0  0  0  0  0  0  0  0
   58.9080   28.5530   46.0140 N   0  0  0  0  0  0  0  0  0  0  0  0
   57.2620   28.8760   43.3685 H   0  0  0  0  0  0  0  0  0  0  0  0
   55.8346   29.2149   42.3321 H   0  0  0  0  0  0  0  0  0  0  0  0
   57.2326   30.3428   42.3321 H   0  0  0  0  0  0  0  0  0  0  0  0
   55.3547   31.2569   43.6670 H   0  0  0  0  0  0  0  0  0  0  0  0
   55.3752   29.7752   44.6986 H   0  0  0  0  0  0  0  0  0  0  0  0
   56.9780   32.9727   45.8644 H   0  0  0  0  0  0  0  0  0  0  0  0
   57.8782   32.8901   44.3122 H   0  0  0  0  0  0  0  0  0  0  0  0
   56.0824   32.8486   44.3122 H   0  0  0  0  0  0  0  0  0  0  0  0
   58.2933   29.8831   43.7515 H   0  0  0  0  0  0  0  0  0  0  0  0
   58.9959   31.4466   44.3283 H   0  0  0  0  0  0  0  0  0  0  0  0
   62.1381   31.6396   46.8809 H   0  0  0  0  0  0  0  0  0  0  0  0
   62.6163   34.0524   47.3030 H   0  0  0  0  0  0  0  0  0  0  0  0
   60.7459   35.6361   47.7777 H   0  0  0  0  0  0  0  0  0  0  0  0
   58.3917   34.8031   47.8433 H   0  0  0  0  0  0  0  0  0  0  0  0
   57.9048   32.3937   47.4201 H   0  0  0  0  0  0  0  0  0  0  0  0
   60.0029   26.9023   48.7372 H   0  0  0  0  0  0  0  0  0  0  0  0
   57.5405   26.1106   43.2289 H   0  0  0  0  0  0  0  0  0  0  0  0
   56.5291   24.1507   42.0747 H   0  0  0  0  0  0  0  0  0  0  0  0
   56.8366   20.0951   43.9909 H   0  0  0  0  0  0  0  0  0  0  0  0
   55.9627   19.8432   42.4419 H   0  0  0  0  0  0  0  0  0  0  0  0
   57.5889   20.6062   42.4419 H   0  0  0  0  0  0  0  0  0  0  0  0
   56.8267   21.8409   45.7226 H   0  0  0  0  0  0  0  0  0  0  0  0
   57.8423   23.7970   46.8796 H   0  0  0  0  0  0  0  0  0  0  0  0
   57.8156   27.7586   44.3480 H   0  0  0  0  0  0  0  0  0  0  0  0
  1  2  1  0
  2  3  1  0
  3  4  1  0
  3  5  1  0
  5  6  1  0
  6  7  2  0
  7  8  1  0
  8  9  2  0
  9 10  1  0
 10 11  2  0
 11 12  1  0
 12 13  2  0
  7 14  1  0
 14 15  2  0
 15 16  1  0
 16 17  2  0
 17 18  1  0
 18 19  1  0
 19 20  2  0
 20 21  1  0
 21 22  2  0
 22 23  1  0
 23 24  1  0
 22 25  1  0
 25 26  2  0
 18 27  2  0
 27 28  1  0
 28  6  1  0
 13  8  1  0
 28 15  1  0
 26 19  1  0
  1 29  1  0
  1 30  1  0
  1 31  1  0
  2 32  1  0
  2 33  1  0
  4 34  1  0
  4 35  1  0
  4 36  1  0
  5 37  1  0
  5 38  1  0
  9 39  1  0
 10 40  1  0
 11 41  1  0
 12 42  1  0
 13 43  1  0
 16 44  1  0
 20 45  1  0
 21 46  1  0
 24 47  1  0
 24 48  1  0
 24 49  1  0
 25 50  1  0
 26 51  1  0
 27 52  1  0
M  END
>  <UniqueID>  (33) 
32

>  <SMILES>  (33) 
CCN(C)Cc1c(-c2ccccc2)nc2cnc(-c3ccc(OC)cc3)cn12

>  <Energy>  (33) 
99.54434721499308

>  <Genealogy>  (33) 
CCN(C)Cc1c(-c2ccccc2)nc2cnc(-c3ccc(OC)cc3)cn12 (3D coordinates assigned)
CCN(C)Cc1c(-c2ccccc2)nc2cnc(-c3ccc(OC)cc3)cn12 (optimized conformer: 99.54434721499308 kcal/mol)

>  <smiles>  (33) 
CCN(C)Cc1c(-c2ccccc2)nc2cnc(-c3ccc(OC)cc3)cn12

>  <score_type>  (33) 
oracle

>  <origin>  (33) 
adg

>  <m_score__min__energy>  (33) 
-8.4100000000000001

>  <m_primary>  (33) 
energy

$$$$
33:0
     RDKit          3D

 44 45  0  0  0  0  0  0  0  0999 V2000
   56.5580   29.3420   42.7000 C   0  0  0  0  0  0  0  0  0  0  0  0
   55.7370   30.0610   43.7690 C   0  0  0  0  0  0  0  0  0  0  0  0
   56.5100   31.1180   44.4410 N   0  0  0  0  0  0  0  0  0  0  0  0
   57.5370   31.7690   43.6040 C   0  0  0  0  0  0  0  0  0  0  0  0
   58.0210   33.1410   44.1150 C   0  0  0  0  0  0  0  0  0  0  0  0
   57.2080   33.6630   45.3160 C   0  0  0  0  0  0  0  0  0  0  0  0
   57.3100   32.7750   46.4860 N   0  0  0  0  0  0  0  0  0  0  0  0
   58.6700   32.3340   46.7140 C   0  0  0  0  0  0  0  0  0  0  0  0
   59.6640   33.2810   47.0190 C   0  0  0  0  0  0  0  0  0  0  0  0
   60.9920   32.8970   47.2310 C   0  0  0  0  0  0  0  0  0  0  0  0
   61.9310   33.8950   47.5310 O   0  0  0  0  0  0  0  0  0  0  0  0
   63.3400   33.7430   47.3950 C   0  0  0  0  0  0  0  0  0  0  0  0
   61.3420   31.5380   47.1350 C   0  0  0  0  0  0  0  0  0  0  0  0
   60.3690   30.5780   46.8300 C   0  0  0  0  0  0  0  0  0  0  0  0
   60.7030   29.2210   46.7260 C   0  0  0  0  0  0  0  0  0  0  0  0
   59.7190   28.2820   46.4140 C   0  0  0  0  0  0  0  0  0  0  0  0
   58.4030   28.7070   46.2060 C   0  0  0  0  0  0  0  0  0  0  0  0
   57.3310   27.7180   45.8750 C   0  0  0  0  0  0  0  0  0  0  0  0
   58.0930   30.0280   46.3170 N   0  0  0  0  0  0  0  0  0  0  0  0
   59.0280   30.9720   46.6190 C   0  0  0  0  0  0  0  0  0  0  0  0
   57.3010   28.6913   43.1843 H   0  0  0  0  0  0  0  0  0  0  0  0
   55.8904   28.7328   42.0730 H   0  0  0  0  0  0  0  0  0  0  0  0
   57.0738   30.0842   42.0730 H   0  0  0  0  0  0  0  0  0  0  0  0
   54.8546   30.5142   43.2937 H   0  0  0  0  0  0  0  0  0  0  0  0
   55.4445   29.3201   44.5276 H   0  0  0  0  0  0  0  0  0  0  0  0
   56.9570   30.7210   45.2980 H   0  0  0  0  0  0  0  0  0  0  0  0
   58.4076   31.0988   43.5493 H   0  0  0  0  0  0  0  0  0  0  0  0
   57.0657   31.9537   42.6274 H   0  0  0  0  0  0  0  0  0  0  0  0
   59.0741   33.0491   44.4192 H   0  0  0  0  0  0  0  0  0  0  0  0
   57.8894   33.8607   43.2936 H   0  0  0  0  0  0  0  0  0  0  0  0
   57.5852   34.6585   45.5931 H   0  0  0  0  0  0  0  0  0  0  0  0
   56.1507   33.7044   45.0152 H   0  0  0  0  0  0  0  0  0  0  0  0
   56.6550   31.9660   46.3780 H   0  0  0  0  0  0  0  0  0  0  0  0
   56.9860   33.3040   47.3300 H   0  0  0  0  0  0  0  0  0  0  0  0
   59.3917   34.3442   47.0922 H   0  0  0  0  0  0  0  0  0  0  0  0
   63.8014   33.6932   48.3923 H   0  0  0  0  0  0  0  0  0  0  0  0
   63.5573   32.8162   46.8438 H   0  0  0  0  0  0  0  0  0  0  0  0
   63.7500   34.6021   46.8438 H   0  0  0  0  0  0  0  0  0  0  0  0
   62.3844   31.2279   47.3002 H   0  0  0  0  0  0  0  0  0  0  0  0
   61.7410   28.8960   46.8903 H   0  0  0  0  0  0  0  0  0  0  0  0
   59.9765   27.2157   46.3323 H   0  0  0  0  0  0  0  0  0  0  0  0
   56.8995   27.3199   46.8052 H   0  0  0  0  0  0  0  0  0  0  0  0
   56.5435   28.2135   45.2882 H   0  0  0  0  0  0  0  0  0  0  0  0
   57.7616   26.8932   45.2882 H   0  0  0  0  0  0  0  0  0  0  0  0
  1  2  1  0
  2  3  1  0
  3  4  1  0
  4  5  1  0
  5  6  1  0
  6  7  1  0
  7  8  1  0
  8  9  2  0
  9 10  1  0
 10 11  1  0
 11 12  1  0
 10 13  2  0
 13 14  1  0
 14 15  2  0
 15 16  1  0
 16 17  2  0
 17 18  1  0
 17 19  1  0
 19 20  2  0
 20  8  1  0
 20 14  1  0
  1 21  1  0
  1 22  1  0
  1 23  1  0
  2 24  1  0
  2 25  1  0
  3 26  1  0
  4 27  1  0
  4 28  1  0
  5 29  1  0
  5 30  1  0
  6 31  1  0
  6 32  1  0
  7 33  1  0
  7 34  1  0
  9 35  1  0
 12 36  1  0
 12 37  1  0
 12 38  1  0
 13 39  1  0
 15 40  1  0
 16 41  1  0
 18 42  1  0
 18 43  1  0
 18 44  1  0
M  CHG  1   7   1
M  END
>  <UniqueID>  (34) 
33

>  <SMILES>  (34) 
CCNCCC[NH2+]c1cc(OC)cc2ccc(C)nc12

>  <Energy>  (34) 
44.27057243254532

>  <Genealogy>  (34) 
CCNCCC[NH2+]c1cc(OC)cc2ccc(C)nc12 (protonated)
CCNCCC[NH2+]c1cc(OC)cc2ccc(C)nc12 (3D coordinates assigned)
CCNCCC[NH2+]c1cc(OC)cc2ccc(C)nc12 (optimized conformer: 44.27057243254532 kcal/mol)

>  <smiles>  (34) 
CCNCCCNc1cc(OC)cc2ccc(C)nc12

>  <score_type>  (34) 
oracle

>  <origin>  (34) 
adg

>  <m_score__min__energy>  (34) 
-4.75

>  <m_primary>  (34) 
energy

$$$$
34:0
     RDKit          3D

 25 27  0  0  0  0  0  0  0  0999 V2000
   56.2820   33.6420   45.2410 F   0  0  0  0  0  0  0  0  0  0  0  0
   57.5300   33.3710   45.6980 C   0  0  0  0  0  0  0  0  0  0  0  0
   58.3570   34.3930   46.1930 C   0  0  0  0  0  0  0  0  0  0  0  0
   59.6510   34.0930   46.6630 C   0  0  0  0  0  0  0  0  0  0  0  0
   60.1070   32.7670   46.6320 C   0  0  0  0  0  0  0  0  0  0  0  0
   59.2720   31.8140   46.1450 N   0  0  0  0  0  0  0  0  0  0  0  0
   59.4590   30.4950   46.0070 C   0  0  0  0  0  0  0  0  0  0  0  0
   58.2900   29.9750   45.4550 C   0  0  0  0  0  0  0  0  0  0  0  0
   58.0210   28.5550   45.1190 C   0  0  0  0  0  0  0  0  0  0  0  0
   57.4050   27.6870   46.0420 C   0  0  0  0  0  0  0  0  0  0  0  0
   57.1620   26.3520   45.7050 C   0  0  0  0  0  0  0  0  0  0  0  0
   57.5270   25.8660   44.4470 C   0  0  0  0  0  0  0  0  0  0  0  0
   57.2190   24.1900   44.0280 Cl  0  0  0  0  0  0  0  0  0  0  0  0
   58.1390   26.7170   43.5240 C   0  0  0  0  0  0  0  0  0  0  0  0
   58.3850   28.0530   43.8560 C   0  0  0  0  0  0  0  0  0  0  0  0
   57.3900   30.9730   45.2550 N   0  0  0  0  0  0  0  0  0  0  0  0
   58.0360   32.0720   45.6910 C   0  0  0  0  0  0  0  0  0  0  0  0
   57.9932   35.4309   46.2138 H   0  0  0  0  0  0  0  0  0  0  0  0
   60.2987   34.8928   47.0513 H   0  0  0  0  0  0  0  0  0  0  0  0
   61.1132   32.5066   46.9923 H   0  0  0  0  0  0  0  0  0  0  0  0
   60.3631   29.9299   46.2778 H   0  0  0  0  0  0  0  0  0  0  0  0
   57.1134   28.0620   47.0341 H   0  0  0  0  0  0  0  0  0  0  0  0
   56.6816   25.6818   46.4331 H   0  0  0  0  0  0  0  0  0  0  0  0
   58.4282   26.3355   42.5336 H   0  0  0  0  0  0  0  0  0  0  0  0
   58.8672   28.7171   43.1235 H   0  0  0  0  0  0  0  0  0  0  0  0
  1  2  1  0
  2  3  2  0
  3  4  1  0
  4  5  2  0
  5  6  1  0
  6  7  1  0
  7  8  2  0
  8  9  1  0
  9 10  2  0
 10 11  1  0
 11 12  2  0
 12 13  1  0
 12 14  1  0
 14 15  2  0
  8 16  1  0
 16 17  2  0
 17  2  1  0
 17  6  1  0
 15  9  1  0
  3 18  1  0
  4 19  1  0
  5 20  1  0
  7 21  1  0
 10 22  1  0
 11 23  1  0
 14 24  1  0
 15 25  1  0
M  END
>  <UniqueID>  (35) 
34

>  <SMILES>  (35) 
Fc1cccn2cc(-c3ccc(Cl)cc3)nc12

>  <Energy>  (35) 
63.86867461089705

>  <Genealogy>  (35) 
Fc1cccn2cc(-c3ccc(Cl)cc3)nc12 (3D coordinates assigned)
Fc1cccn2cc(-c3ccc(Cl)cc3)nc12 (optimized conformer: 63.86867461089705 kcal/mol)

>  <smiles>  (35) 
Fc1cccn2cc(-c3ccc(Cl)cc3)nc12

>  <score_type>  (35) 
oracle

>  <origin>  (35) 
adg

>  <m_score__min__energy>  (35) 
-5.9699999999999998

>  <m_primary>  (35) 
energy

$$$$
35:0
     RDKit          3D

 60 62  0  0  0  0  0  0  0  0999 V2000
   57.0810   31.1320   43.0520 C   0  0  0  0  0  0  0  0  0  0  0  0
   56.4990   29.7410   43.2650 C   0  0  0  0  0  0  0  0  0  0  0  0
   56.2810   29.4920   44.6530 O   0  0  0  0  0  0  0  0  0  0  0  0
   57.2830   29.3280   45.6210 C   0  0  0  0  0  0  0  0  0  0  0  0
   57.4410   28.0630   46.1970 C   0  0  0  0  0  0  0  0  0  0  0  0
   58.4360   27.8350   47.1510 C   0  0  0  0  0  0  0  0  0  0  0  0
   59.2910   28.8740   47.5430 C   0  0  0  0  0  0  0  0  0  0  0  0
   60.3960   28.6110   48.5380 C   0  0  0  0  0  0  0  0  0  0  0  0
   60.8150   29.8360   49.2430 N   0  0  0  0  0  0  0  0  0  0  0  0
   59.8940   30.2650   50.3150 C   0  0  0  0  0  0  0  0  0  0  0  0
   59.9610   31.7710   50.6470 C   0  0  0  0  0  0  0  0  0  0  0  0
   59.1510   32.6990   49.7190 C   0  0  0  0  0  0  0  0  0  0  0  0
   59.9930   33.6060   48.7780 C   0  0  2  0  0  0  0  0  0  0  0  0
   59.2700   33.8550   47.4550 C   0  0  0  0  0  0  0  0  0  0  0  0
   59.8800   34.6590   46.4720 C   0  0  0  0  0  0  0  0  0  0  0  0
   59.2460   34.8980   45.2490 C   0  0  0  0  0  0  0  0  0  0  0  0
   57.9920   34.3430   44.9910 C   0  0  0  0  0  0  0  0  0  0  0  0
   57.3700   33.5470   45.9550 C   0  0  0  0  0  0  0  0  0  0  0  0
   58.0000   33.3030   47.1790 C   0  0  0  0  0  0  0  0  0  0  0  0
   61.4620   33.1120   48.6100 C   0  0  0  0  0  0  0  0  0  0  0  0
   62.5160   34.2110   48.6970 C   0  0  0  0  0  0  0  0  0  0  0  0
   63.7680   33.6060   48.0720 C   0  0  0  0  0  0  0  0  0  0  0  0
   63.3010   32.4540   47.1800 C   0  0  0  0  0  0  0  0  0  0  0  0
   61.7840   32.3880   47.3070 C   0  0  0  0  0  0  0  0  0  0  0  0
   59.1320   30.1450   46.9740 C   0  0  0  0  0  0  0  0  0  0  0  0
   58.1360   30.3750   46.0210 C   0  0  0  0  0  0  0  0  0  0  0  0
   57.2771   31.6007   44.0276 H   0  0  0  0  0  0  0  0  0  0  0  0
   58.0217   31.0534   42.4873 H   0  0  0  0  0  0  0  0  0  0  0  0
   56.3646   31.7467   42.4873 H   0  0  0  0  0  0  0  0  0  0  0  0
   55.5410   29.6647   42.7297 H   0  0  0  0  0  0  0  0  0  0  0  0
   57.2119   28.9969   42.8802 H   0  0  0  0  0  0  0  0  0  0  0  0
   56.7758   27.2403   45.8961 H   0  0  0  0  0  0  0  0  0  0  0  0
   58.5488   26.8356   47.5964 H   0  0  0  0  0  0  0  0  0  0  0  0
   60.0388   27.8807   49.2790 H   0  0  0  0  0  0  0  0  0  0  0  0
   61.2649   28.2271   47.9834 H   0  0  0  0  0  0  0  0  0  0  0  0
   61.7750   29.6930   49.6310 H   0  0  0  0  0  0  0  0  0  0  0  0
   60.8900   30.6160   48.5500 H   0  0  0  0  0  0  0  0  0  0  0  0
   58.8667   30.0269   50.0020 H   0  0  0  0  0  0  0  0  0  0  0  0
   60.1996   29.7285   51.2254 H   0  0  0  0  0  0  0  0  0  0  0  0
   59.5861   31.9077   51.6720 H   0  0  0  0  0  0  0  0  0  0  0  0
   61.0140   32.0600   50.5138 H   0  0  0  0  0  0  0  0  0  0  0  0
   58.5029   32.0692   49.0918 H   0  0  0  0  0  0  0  0  0  0  0  0
   58.5991   33.3817   50.3819 H   0  0  0  0  0  0  0  0  0  0  0  0
   60.0893   34.5863   49.2677 H   0  0  0  0  0  0  0  0  0  0  0  0
   60.8665   35.1039   46.6690 H   0  0  0  0  0  0  0  0  0  0  0  0
   59.7364   35.5243   44.4892 H   0  0  0  0  0  0  0  0  0  0  0  0
   57.4937   34.5324   44.0288 H   0  0  0  0  0  0  0  0  0  0  0  0
   56.3812   33.1105   45.7507 H   0  0  0  0  0  0  0  0  0  0  0  0
   57.5022   32.6758   47.9332 H   0  0  0  0  0  0  0  0  0  0  0  0
   61.5115   32.4173   49.4614 H   0  0  0  0  0  0  0  0  0  0  0  0
   62.1945   35.1005   48.1354 H   0  0  0  0  0  0  0  0  0  0  0  0
   62.6877   34.5382   49.7331 H   0  0  0  0  0  0  0  0  0  0  0  0
   64.2947   34.3617   47.4707 H   0  0  0  0  0  0  0  0  0  0  0  0
   64.4643   33.2503   48.8457 H   0  0  0  0  0  0  0  0  0  0  0  0
   63.5858   32.6446   46.1348 H   0  0  0  0  0  0  0  0  0  0  0  0
   63.7649   31.5045   47.4853 H   0  0  0  0  0  0  0  0  0  0  0  0
   61.3030   32.8924   46.4560 H   0  0  0  0  0  0  0  0  0  0  0  0
   61.4156   31.3515   47.3097 H   0  0  0  0  0  0  0  0  0  0  0  0
   59.7958   30.9672   47.2797 H   0  0  0  0  0  0  0  0  0  0  0  0
   58.0179   31.3767   45.5820 H   0  0  0  0  0  0  0  0  0  0  0  0
  1  2  1  0
  2  3  1  0
  3  4  1  0
  4  5  2  0
  5  6  1  0
  6  7  2  0
  7  8  1  0
  8  9  1  0
  9 10  1  0
 10 11  1  0
 11 12  1  0
 12 13  1  0
 13 14  1  0
 14 15  2  0
 15 16  1  0
 16 17  2  0
 17 18  1  0
 18 19  2  0
 13 20  1  0
 20 21  1  0
 21 22  1  0
 22 23  1  0
 23 24  1  0
  7 25  1  0
 25 26  2  0
 26  4  1  0
 19 14  1  0
 24 20  1  0
  1 27  1  0
  1 28  1  0
  1 29  1  0
  2 30  1  0
  2 31  1  0
  5 32  1  0
  6 33  1  0
  8 34  1  0
  8 35  1  0
  9 36  1  0
  9 37  1  0
 10 38  1  0
 10 39  1  0
 11 40  1  0
 11 41  1  0
 12 42  1  0
 12 43  1  0
 13 44  1  1
 15 45  1  0
 16 46  1  0
 17 47  1  0
 18 48  1  0
 19 49  1  0
 20 50  1  0
 21 51  1  0
 21 52  1  0
 22 53  1  0
 22 54  1  0
 23 55  1  0
 23 56  1  0
 24 57  1  0
 24 58  1  0
 25 59  1  0
 26 60  1  0
M  CHG  1   9   1
M  END
>  <UniqueID>  (36) 
35

>  <SMILES>  (36) 
CCOc1ccc(C[NH2+]CCC[C@H](c2ccccc2)C2CCCC2)cc1

>  <Energy>  (36) 
61.40105944273894

>  <Genealogy>  (36) 
CCOc1ccc(C[NH2+]CCCC(c2ccccc2)C2CCCC2)cc1 (protonated)
CCOc1ccc(C[NH2+]CCC[C@H](c2ccccc2)C2CCCC2)cc1 (chirality)
CCOc1ccc(C[NH2+]CCC[C@H](c2ccccc2)C2CCCC2)cc1 (3D coordinates assigned)
CCOc1ccc(C[NH2+]CCC[C@H](c2ccccc2)C2CCCC2)cc1 (nonaromatic ring conformer: 61.40105944273894 kcal/mol)

>  <smiles>  (36) 
CCOc1ccc(CNCCCC(c2ccccc2)C2CCCC2)cc1

>  <score_type>  (36) 
oracle

>  <origin>  (36) 
adg

>  <m_score__min__energy>  (36) 
-7.1600000000000001

>  <m_primary>  (36) 
energy

$$$$
36:0
     RDKit          3D

 49 52  0  0  0  0  0  0  0  0999 V2000
   59.6970   34.2150   48.9690 C   0  0  0  0  0  0  0  0  0  0  0  0
   61.0620   33.8080   48.4970 C   0  0  0  0  0  0  0  0  0  0  0  0
   62.1360   34.4930   48.9790 N   0  0  0  0  0  0  0  0  0  0  0  0
   63.4080   34.2210   48.5880 C   0  0  0  0  0  0  0  0  0  0  0  0
   63.6500   33.2140   47.6570 C   0  0  0  0  0  0  0  0  0  0  0  0
   62.5790   32.4840   47.1480 C   0  0  0  0  0  0  0  0  0  0  0  0
   61.2660   32.7550   47.5690 C   0  0  0  0  0  0  0  0  0  0  0  0
   60.1560   31.9360   47.0260 C   0  0  0  0  0  0  0  0  0  0  0  0
   59.2800   32.3270   46.0160 C   0  0  0  0  0  0  0  0  0  0  0  0
   58.3780   31.3260   45.6360 C   0  0  0  0  0  0  0  0  0  0  0  0
   58.5420   30.1390   46.3430 C   0  0  0  0  0  0  0  0  0  0  0  0
   57.7880   28.8890   46.1450 C   0  0  0  0  0  0  0  0  0  0  0  0
   56.6350   28.9440   45.6390 O   0  0  0  0  0  0  0  0  0  0  0  0
   58.3450   27.6130   46.5090 N   0  0  0  0  0  0  0  0  0  0  0  0
   57.4930   26.5970   47.1360 C   0  0  0  0  0  0  0  0  0  0  0  0
   57.4630   25.3400   46.2640 C   0  0  0  0  0  0  0  0  0  0  0  0
   58.8220   24.9370   45.8580 N   0  0  0  0  0  0  0  0  0  0  0  0
   59.0360   23.6170   45.3240 C   0  0  0  0  0  0  0  0  0  0  0  0
   60.0530   22.9610   45.6790 O   0  0  0  0  0  0  0  0  0  0  0  0
   58.0940   23.0170   44.3540 C   0  0  0  0  0  0  0  0  0  0  0  0
   58.0000   21.6200   44.2340 C   0  0  0  0  0  0  0  0  0  0  0  0
   57.0960   21.0480   43.3340 C   0  0  0  0  0  0  0  0  0  0  0  0
   56.2750   21.8630   42.5520 C   0  0  0  0  0  0  0  0  0  0  0  0
   56.3520   23.2520   42.6720 C   0  0  0  0  0  0  0  0  0  0  0  0
   57.2520   23.8320   43.5730 C   0  0  0  0  0  0  0  0  0  0  0  0
   57.3150   25.1850   43.6630 F   0  0  0  0  0  0  0  0  0  0  0  0
   59.9800   25.7540   46.2460 C   0  0  0  0  0  0  0  0  0  0  0  0
   59.6840   27.2440   46.0220 C   0  0  0  0  0  0  0  0  0  0  0  0
   59.8250   30.3290   47.4130 S   0  0  0  0  0  0  0  0  0  0  0  0
   59.6761   34.2212   50.0688 H   0  0  0  0  0  0  0  0  0  0  0  0
   59.4638   35.2218   48.5921 H   0  0  0  0  0  0  0  0  0  0  0  0
   58.9505   33.5004   48.5921 H   0  0  0  0  0  0  0  0  0  0  0  0
   64.2470   34.7961   49.0067 H   0  0  0  0  0  0  0  0  0  0  0  0
   64.6768   32.9975   47.3271 H   0  0  0  0  0  0  0  0  0  0  0  0
   62.7622   31.6888   46.4104 H   0  0  0  0  0  0  0  0  0  0  0  0
   59.2955   33.3279   45.5600 H   0  0  0  0  0  0  0  0  0  0  0  0
   57.6151   31.4643   44.8557 H   0  0  0  0  0  0  0  0  0  0  0  0
   57.8950   26.3443   48.1282 H   0  0  0  0  0  0  0  0  0  0  0  0
   56.4718   26.9921   47.2411 H   0  0  0  0  0  0  0  0  0  0  0  0
   57.0011   24.5199   46.8333 H   0  0  0  0  0  0  0  0  0  0  0  0
   56.8808   25.5604   45.3571 H   0  0  0  0  0  0  0  0  0  0  0  0
   58.6409   20.9733   44.8513 H   0  0  0  0  0  0  0  0  0  0  0  0
   57.0313   19.9538   43.2417 H   0  0  0  0  0  0  0  0  0  0  0  0
   55.5675   21.4108   41.8414 H   0  0  0  0  0  0  0  0  0  0  0  0
   55.7032   23.8923   42.0564 H   0  0  0  0  0  0  0  0  0  0  0  0
   60.2027   25.5848   47.3099 H   0  0  0  0  0  0  0  0  0  0  0  0
   60.8431   25.4652   45.6282 H   0  0  0  0  0  0  0  0  0  0  0  0
   60.4356   27.8413   46.5590 H   0  0  0  0  0  0  0  0  0  0  0  0
   59.7218   27.4420   44.9406 H   0  0  0  0  0  0  0  0  0  0  0  0
  1  2  1  0
  2  3  2  0
  3  4  1  0
  4  5  2  0
  5  6  1  0
  6  7  2  0
  7  8  1  0
  8  9  2  0
  9 10  1  0
 10 11  2  0
 11 12  1  0
 12 13  2  0
 12 14  1  0
 14 15  1  0
 15 16  1  0
 16 17  1  0
 17 18  1  0
 18 19  2  0
 18 20  1  0
 20 21  2  0
 21 22  1  0
 22 23  2  0
 23 24  1  0
 24 25  2  0
 25 26  1  0
 17 27  1  0
 27 28  1  0
 11 29  1  0
  7  2  1  0
 29  8  1  0
 28 14  1  0
 25 20  1  0
  1 30  1  0
  1 31  1  0
  1 32  1  0
  4 33  1  0
  5 34  1  0
  6 35  1  0
  9 36  1  0
 10 37  1  0
 15 38  1  0
 15 39  1  0
 16 40  1  0
 16 41  1  0
 21 42  1  0
 22 43  1  0
 23 44  1  0
 24 45  1  0
 27 46  1  0
 27 47  1  0
 28 48  1  0
 28 49  1  0
M  END
>  <UniqueID>  (37) 
36

>  <SMILES>  (37) 
Cc1ncccc1-c1ccc(C(=O)N2CCN(C(=O)c3ccccc3F)CC2)s1

>  <Energy>  (37) 
94.63100536794086

>  <Genealogy>  (37) 
Cc1ncccc1-c1ccc(C(=O)N2CCN(C(=O)c3ccccc3F)CC2)s1 (3D coordinates assigned)
Cc1ncccc1-c1ccc(C(=O)N2CCN(C(=O)c3ccccc3F)CC2)s1 (nonaromatic ring conformer: 94.63100536794086 kcal/mol)

>  <smiles>  (37) 
Cc1ncccc1-c1ccc(C(=O)N2CCN(C(=O)c3ccccc3F)CC2)s1

>  <score_type>  (37) 
oracle

>  <origin>  (37) 
adg

>  <m_score__min__energy>  (37) 
-8.0600000000000005

>  <m_primary>  (37) 
energy

$$$$
37:0
     RDKit          3D

 46 48  0  0  0  0  0  0  0  0999 V2000
   58.1380   27.0730   42.6450 C   0  0  0  0  0  0  0  0  0  0  0  0
   58.6250   27.5620   44.0060 C   0  0  0  0  0  0  0  0  0  0  0  0
   57.4940   27.5370   45.0400 C   0  0  0  0  0  0  0  0  0  0  0  0
   56.8460   28.8920   45.1710 C   0  0  0  0  0  0  0  0  0  0  0  0
   55.6050   28.9780   44.9570 O   0  0  0  0  0  0  0  0  0  0  0  0
   57.6130   30.1140   45.5590 C   0  0  0  0  0  0  0  0  0  0  0  0
   58.5010   30.0810   46.6460 C   0  0  0  0  0  0  0  0  0  0  0  0
   59.2140   31.1850   47.0330 N   0  0  0  0  0  0  0  0  0  0  0  0
   60.0980   31.0410   48.2090 C   0  0  0  0  0  0  0  0  0  0  0  0
   59.3540   31.3420   49.4880 C   0  0  0  0  0  0  0  0  0  0  0  0
   59.4560   32.6090   50.0840 C   0  0  0  0  0  0  0  0  0  0  0  0
   58.7610   32.8930   51.2600 C   0  0  0  0  0  0  0  0  0  0  0  0
   57.9510   31.9200   51.8490 C   0  0  0  0  0  0  0  0  0  0  0  0
   57.8200   30.6560   51.2630 C   0  0  0  0  0  0  0  0  0  0  0  0
   56.9890   29.7150   51.8890 O   0  0  0  0  0  0  0  0  0  0  0  0
   55.8160   30.0420   52.6260 C   0  0  0  0  0  0  0  0  0  0  0  0
   58.5200   30.3730   50.0730 C   0  0  0  0  0  0  0  0  0  0  0  0
   59.0740   32.3790   46.3530 C   0  0  0  0  0  0  0  0  0  0  0  0
   59.7850   33.5450   46.7280 C   0  0  0  0  0  0  0  0  0  0  0  0
   59.6250   34.7410   46.0270 C   0  0  0  0  0  0  0  0  0  0  0  0
   58.7590   34.8070   44.9400 C   0  0  0  0  0  0  0  0  0  0  0  0
   58.0450   33.6770   44.5480 C   0  0  0  0  0  0  0  0  0  0  0  0
   58.1910   32.4580   45.2420 C   0  0  0  0  0  0  0  0  0  0  0  0
   57.4630   31.3210   44.8540 C   0  0  0  0  0  0  0  0  0  0  0  0
   56.6620   31.3880   43.8800 O   0  0  0  0  0  0  0  0  0  0  0  0
   57.3683   26.3001   42.7870 H   0  0  0  0  0  0  0  0  0  0  0  0
   57.7110   27.9170   42.0835 H   0  0  0  0  0  0  0  0  0  0  0  0
   58.9837   26.6494   42.0835 H   0  0  0  0  0  0  0  0  0  0  0  0
   59.4411   26.9100   44.3508 H   0  0  0  0  0  0  0  0  0  0  0  0
   58.9766   28.5988   43.8987 H   0  0  0  0  0  0  0  0  0  0  0  0
   56.7355   26.8054   44.7247 H   0  0  0  0  0  0  0  0  0  0  0  0
   57.9194   27.2582   46.0154 H   0  0  0  0  0  0  0  0  0  0  0  0
   58.6280   29.1411   47.2033 H   0  0  0  0  0  0  0  0  0  0  0  0
   60.4781   30.0095   48.2486 H   0  0  0  0  0  0  0  0  0  0  0  0
   60.9287   31.7555   48.1114 H   0  0  0  0  0  0  0  0  0  0  0  0
   60.0872   33.3820   49.6213 H   0  0  0  0  0  0  0  0  0  0  0  0
   58.8514   33.8861   51.7244 H   0  0  0  0  0  0  0  0  0  0  0  0
   57.4120   32.1487   52.7802 H   0  0  0  0  0  0  0  0  0  0  0  0
   56.0311   29.9820   53.7031 H   0  0  0  0  0  0  0  0  0  0  0  0
   55.4964   31.0635   52.3722 H   0  0  0  0  0  0  0  0  0  0  0  0
   55.0140   29.3332   52.3722 H   0  0  0  0  0  0  0  0  0  0  0  0
   58.4130   29.3865   49.5983 H   0  0  0  0  0  0  0  0  0  0  0  0
   60.4738   33.5073   47.5848 H   0  0  0  0  0  0  0  0  0  0  0  0
   60.1860   35.6356   46.3352 H   0  0  0  0  0  0  0  0  0  0  0  0
   58.6381   35.7519   44.3900 H   0  0  0  0  0  0  0  0  0  0  0  0
   57.3607   33.7360   43.6888 H   0  0  0  0  0  0  0  0  0  0  0  0
  1  2  1  0
  2  3  1  0
  3  4  1  0
  4  5  2  0
  4  6  1  0
  6  7  2  0
  7  8  1  0
  8  9  1  0
  9 10  1  0
 10 11  2  0
 11 12  1  0
 12 13  2  0
 13 14  1  0
 14 15  1  0
 15 16  1  0
 14 17  2  0
  8 18  1  0
 18 19  2  0
 19 20  1  0
 20 21  2  0
 21 22  1  0
 22 23  2  0
 23 24  1  0
 24 25  2  0
 24  6  1  0
 17 10  1  0
 23 18  1  0
  1 26  1  0
  1 27  1  0
  1 28  1  0
  2 29  1  0
  2 30  1  0
  3 31  1  0
  3 32  1  0
  7 33  1  0
  9 34  1  0
  9 35  1  0
 11 36  1  0
 12 37  1  0
 13 38  1  0
 16 39  1  0
 16 40  1  0
 16 41  1  0
 17 42  1  0
 19 43  1  0
 20 44  1  0
 21 45  1  0
 22 46  1  0
M  END
>  <UniqueID>  (38) 
37

>  <SMILES>  (38) 
CCCC(=O)c1cn(Cc2cccc(OC)c2)c2ccccc2c1=O

>  <Energy>  (38) 
54.912962876634445

>  <Genealogy>  (38) 
CCCC(=O)c1cn(Cc2cccc(OC)c2)c2ccccc2c1=O (3D coordinates assigned)
CCCC(=O)c1cn(Cc2cccc(OC)c2)c2ccccc2c1=O (optimized conformer: 54.912962876634445 kcal/mol)

>  <smiles>  (38) 
CCCC(=O)c1cn(Cc2cccc(OC)c2)c2ccccc2c1=O

>  <score_type>  (38) 
oracle

>  <origin>  (38) 
adg

>  <m_score__min__energy>  (38) 
-8.4299999999999997

>  <m_primary>  (38) 
energy

$$$$
38:0
     RDKit          3D

 64 65  0  0  0  0  0  0  0  0999 V2000
   64.3880   32.3470   49.2930 C   0  0  0  0  0  0  0  0  0  0  0  0
   63.9190   33.4820   48.3950 C   0  0  0  0  0  0  0  0  0  0  0  0
   63.8380   33.0190   47.0630 O   0  0  0  0  0  0  0  0  0  0  0  0
   62.9770   33.8460   46.3010 C   0  0  0  0  0  0  0  0  0  0  0  0
   61.5650   33.8110   46.8770 C   0  0  0  0  0  0  0  0  0  0  0  0
   60.6420   34.1300   45.8570 O   0  0  0  0  0  0  0  0  0  0  0  0
   59.7020   35.0820   46.3220 C   0  0  0  0  0  0  0  0  0  0  0  0
   58.9660   34.5140   47.5350 C   0  0  0  0  0  0  0  0  0  0  0  0
   58.2860   33.3160   47.1990 O   0  0  0  0  0  0  0  0  0  0  0  0
   57.3760   33.5380   46.1400 C   0  0  0  0  0  0  0  0  0  0  0  0
   57.7590   32.6590   44.9600 C   0  0  0  0  0  0  0  0  0  0  0  0
   56.9420   31.5080   44.9470 O   0  0  0  0  0  0  0  0  0  0  0  0
   57.0070   30.8660   43.6900 C   0  0  0  0  0  0  0  0  0  0  0  0
   56.5500   29.4170   43.8360 C   0  0  0  0  0  0  0  0  0  0  0  0
   56.2850   29.1290   45.1960 O   0  0  0  0  0  0  0  0  0  0  0  0
   56.8130   27.8710   45.5620 C   0  0  0  0  0  0  0  0  0  0  0  0
   58.0340   28.0730   46.4560 C   0  0  0  0  0  0  0  0  0  0  0  0
   58.1590   29.4930   46.8160 N   0  0  0  0  0  0  0  0  0  0  0  0
   59.8060   29.9180   47.1940 S   0  0  0  0  0  0  0  0  0  0  0  0
   60.6290   28.6840   47.4480 O   0  0  0  0  0  0  0  0  0  0  0  0
   60.4120   30.6790   46.0470 O   0  0  0  0  0  0  0  0  0  0  0  0
   59.8020   30.9190   48.6400 C   0  0  0  0  0  0  0  0  0  0  0  0
   60.9310   31.6780   48.9720 C   0  0  0  0  0  0  0  0  0  0  0  0
   60.9010   32.5500   50.0640 C   0  0  0  0  0  0  0  0  0  0  0  0
   59.7350   32.6710   50.8360 C   0  0  0  0  0  0  0  0  0  0  0  0
   59.6820   33.5610   51.9220 C   0  0  0  0  0  0  0  0  0  0  0  0
   58.5090   33.6790   52.6770 C   0  0  0  0  0  0  0  0  0  0  0  0
   57.3860   32.9100   52.3570 C   0  0  0  0  0  0  0  0  0  0  0  0
   57.4260   32.0210   51.2800 C   0  0  0  0  0  0  0  0  0  0  0  0
   58.5960   31.8930   50.5140 C   0  0  0  0  0  0  0  0  0  0  0  0
   58.6430   31.0140   49.4230 C   0  0  0  0  0  0  0  0  0  0  0  0
   64.2673   32.6392   50.3466 H   0  0  0  0  0  0  0  0  0  0  0  0
   63.7879   31.4476   49.0908 H   0  0  0  0  0  0  0  0  0  0  0  0
   65.4480   32.1336   49.0908 H   0  0  0  0  0  0  0  0  0  0  0  0
   62.9280   33.8267   48.7253 H   0  0  0  0  0  0  0  0  0  0  0  0
   64.6327   34.3170   48.4526 H   0  0  0  0  0  0  0  0  0  0  0  0
   63.3527   34.8796   46.3233 H   0  0  0  0  0  0  0  0  0  0  0  0
   62.9506   33.4776   45.2649 H   0  0  0  0  0  0  0  0  0  0  0  0
   61.3507   32.8047   47.2662 H   0  0  0  0  0  0  0  0  0  0  0  0
   61.4803   34.5413   47.6952 H   0  0  0  0  0  0  0  0  0  0  0  0
   60.2258   36.0056   46.6093 H   0  0  0  0  0  0  0  0  0  0  0  0
   58.9790   35.3062   45.5239 H   0  0  0  0  0  0  0  0  0  0  0  0
   59.6943   34.3033   48.3320 H   0  0  0  0  0  0  0  0  0  0  0  0
   58.2268   35.2539   47.8757 H   0  0  0  0  0  0  0  0  0  0  0  0
   56.3576   33.2864   46.4710 H   0  0  0  0  0  0  0  0  0  0  0  0
   57.4092   34.5956   45.8395 H   0  0  0  0  0  0  0  0  0  0  0  0
   57.6180   33.2195   44.0241 H   0  0  0  0  0  0  0  0  0  0  0  0
   58.8134   32.3596   45.0523 H   0  0  0  0  0  0  0  0  0  0  0  0
   56.3512   31.3875   42.9773 H   0  0  0  0  0  0  0  0  0  0  0  0
   58.0423   30.8889   43.3190 H   0  0  0  0  0  0  0  0  0  0  0  0
   55.6349   29.2622   43.2456 H   0  0  0  0  0  0  0  0  0  0  0  0
   57.3449   28.7488   43.4731 H   0  0  0  0  0  0  0  0  0  0  0  0
   56.0495   27.2975   46.1080 H   0  0  0  0  0  0  0  0  0  0  0  0
   57.1079   27.3194   44.6571 H   0  0  0  0  0  0  0  0  0  0  0  0
   57.9198   27.4731   47.3709 H   0  0  0  0  0  0  0  0  0  0  0  0
   58.9370   27.7551   45.9143 H   0  0  0  0  0  0  0  0  0  0  0  0
   57.8790   30.0730   45.9910 H   0  0  0  0  0  0  0  0  0  0  0  0
   61.8470   31.5874   48.3698 H   0  0  0  0  0  0  0  0  0  0  0  0
   61.7923   33.1422   50.3187 H   0  0  0  0  0  0  0  0  0  0  0  0
   60.5638   34.1661   52.1794 H   0  0  0  0  0  0  0  0  0  0  0  0
   58.4707   34.3790   53.5247 H   0  0  0  0  0  0  0  0  0  0  0  0
   56.4679   33.0053   52.9553 H   0  0  0  0  0  0  0  0  0  0  0  0
   56.5389   31.4199   51.0315 H   0  0  0  0  0  0  0  0  0  0  0  0
   57.7662   30.3958   49.1801 H   0  0  0  0  0  0  0  0  0  0  0  0
  1  2  1  0
  2  3  1  0
  3  4  1  0
  4  5  1  0
  5  6  1  0
  6  7  1  0
  7  8  1  0
  8  9  1  0
  9 10  1  0
 10 11  1  0
 11 12  1  0
 12 13  1  0
 13 14  1  0
 14 15  1  0
 15 16  1  0
 16 17  1  0
 17 18  1  0
 18 19  1  0
 19 20  2  0
 19 21  2  0
 19 22  1  0
 22 23  2  0
 23 24  1  0
 24 25  2  0
 25 26  1  0
 26 27  2  0
 27 28  1  0
 28 29  2  0
 29 30  1  0
 30 31  2  0
 31 22  1  0
 30 25  1  0
  1 32  1  0
  1 33  1  0
  1 34  1  0
  2 35  1  0
  2 36  1  0
  4 37  1  0
  4 38  1  0
  5 39  1  0
  5 40  1  0
  7 41  1  0
  7 42  1  0
  8 43  1  0
  8 44  1  0
 10 45  1  0
 10 46  1  0
 11 47  1  0
 11 48  1  0
 13 49  1  0
 13 50  1  0
 14 51  1  0
 14 52  1  0
 16 53  1  0
 16 54  1  0
 17 55  1  0
 17 56  1  0
 18 57  1  0
 23 58  1  0
 24 59  1  0
 26 60  1  0
 27 61  1  0
 28 62  1  0
 29 63  1  0
 31 64  1  0
M  END
>  <UniqueID>  (39) 
38

>  <SMILES>  (39) 
CCOCCOCCOCCOCCOCCNS(=O)(=O)c1ccc2ccccc2c1

>  <Energy>  (39) 
56.173805628066354

>  <Genealogy>  (39) 
CCOCCOCCOCCOCCOCCNS(=O)(=O)c1ccc2ccccc2c1 (3D coordinates assigned)
CCOCCOCCOCCOCCOCCNS(=O)(=O)c1ccc2ccccc2c1 (optimized conformer: 56.173805628066354 kcal/mol)

>  <smiles>  (39) 
CCOCCOCCOCCOCCOCCNS(=O)(=O)c1ccc2ccccc2c1

>  <score_type>  (39) 
oracle

>  <origin>  (39) 
adg

>  <m_score__min__energy>  (39) 
-8.4199999999999999

>  <m_primary>  (39) 
energy

$$$$
39:0
     RDKit          3D

 27 28  0  0  0  0  0  0  0  0999 V2000
   56.8740   26.2270   45.9400 C   0  0  0  0  0  0  0  0  0  0  0  0
   56.1250   27.4370   45.9880 O   0  0  0  0  0  0  0  0  0  0  0  0
   56.6320   28.6980   45.6410 C   0  0  0  0  0  0  0  0  0  0  0  0
   57.8100   29.2180   46.2090 C   0  0  0  0  0  0  0  0  0  0  0  0
   58.2840   30.4850   45.8340 C   0  0  0  0  0  0  0  0  0  0  0  0
   59.5220   31.0020   46.4480 C   0  0  0  0  0  0  0  0  0  0  0  0
   60.7460   30.3410   46.2330 C   0  0  0  0  0  0  0  0  0  0  0  0
   60.8600   28.7610   45.1490 Br  0  0  0  0  0  0  0  0  0  0  0  0
   61.9170   30.8330   46.8130 C   0  0  0  0  0  0  0  0  0  0  0  0
   61.8880   31.9790   47.6120 C   0  0  0  0  0  0  0  0  0  0  0  0
   63.5370   32.5910   48.3720 Br  0  0  0  0  0  0  0  0  0  0  0  0
   60.6690   32.6480   47.8370 C   0  0  0  0  0  0  0  0  0  0  0  0
   60.6060   33.7950   48.6300 O   0  0  0  0  0  0  0  0  0  0  0  0
   59.4890   32.1570   47.2560 C   0  0  0  0  0  0  0  0  0  0  0  0
   57.8340   33.0850   47.5770 Br  0  0  0  0  0  0  0  0  0  0  0  0
   57.5740   31.2410   44.8830 C   0  0  0  0  0  0  0  0  0  0  0  0
   58.1720   32.9770   44.3310 Br  0  0  0  0  0  0  0  0  0  0  0  0
   56.4040   30.7240   44.3190 C   0  0  0  0  0  0  0  0  0  0  0  0
   55.9350   29.4620   44.6950 C   0  0  0  0  0  0  0  0  0  0  0  0
   54.7690   28.9650   44.1220 O   0  0  0  0  0  0  0  0  0  0  0  0
   57.0853   25.8857   46.9641 H   0  0  0  0  0  0  0  0  0  0  0  0
   56.2940   25.4575   45.4094 H   0  0  0  0  0  0  0  0  0  0  0  0
   57.8214   26.4030   45.4094 H   0  0  0  0  0  0  0  0  0  0  0  0
   58.3639   28.6267   46.9530 H   0  0  0  0  0  0  0  0  0  0  0  0
   62.8710   30.3137   46.6393 H   0  0  0  0  0  0  0  0  0  0  0  0
   60.7930   33.7890   49.6240 H   0  0  0  0  0  0  0  0  0  0  0  0
   55.8490   31.3139   43.5747 H   0  0  0  0  0  0  0  0  0  0  0  0
  1  2  1  0
  2  3  1  0
  3  4  2  0
  4  5  1  0
  5  6  1  0
  6  7  2  0
  7  8  1  0
  7  9  1  0
  9 10  2  0
 10 11  1  0
 10 12  1  0
 12 13  1  0
 12 14  2  0
 14 15  1  0
  5 16  2  0
 16 17  1  0
 16 18  1  0
 18 19  2  0
 19 20  1  0
 19  3  1  0
 14  6  1  0
  1 21  1  0
  1 22  1  0
  1 23  1  0
  4 24  1  0
  9 25  1  0
 13 26  1  0
 18 27  1  0
M  CHG  1  20  -1
M  END
>  <UniqueID>  (40) 
39

>  <SMILES>  (40) 
COc1cc(-c2c(Br)cc(Br)c(O)c2Br)c(Br)cc1[O-]

>  <Energy>  (40) 
38.319216090932876

>  <Genealogy>  (40) 
COc1cc(-c2c(Br)cc(Br)c(O)c2Br)c(Br)cc1[O-] (protonated)
COc1cc(-c2c(Br)cc(Br)c(O)c2Br)c(Br)cc1[O-] (3D coordinates assigned)
COc1cc(-c2c(Br)cc(Br)c(O)c2Br)c(Br)cc1[O-] (optimized conformer: 38.319216090932876 kcal/mol)

>  <smiles>  (40) 
COc1cc(-c2c(Br)cc(Br)c(O)c2Br)c(Br)cc1O

>  <score_type>  (40) 
oracle

>  <origin>  (40) 
adg

>  <m_score__min__energy>  (40) 
-9.7200000000000006

>  <m_primary>  (40) 
energy

$$$$
40:0
     RDKit          3D

 58 61  0  0  0  0  0  0  0  0999 V2000
   59.2600   35.3670   44.8720 C   0  0  0  0  0  0  0  0  0  0  0  0
   58.5030   34.2250   44.5370 O   0  0  0  0  0  0  0  0  0  0  0  0
   57.2640   34.2690   45.2110 C   0  0  0  0  0  0  0  0  0  0  0  0
   57.3540   33.4590   46.5090 C   0  0  0  0  0  0  0  0  0  0  0  0
   58.7190   32.9200   46.7080 N   0  0  0  0  0  0  0  0  0  0  0  0
   59.1270   31.7150   46.1290 C   0  0  0  0  0  0  0  0  0  0  0  0
   58.1600   30.8560   45.3040 C   0  0  1  0  0  0  0  0  0  0  0  0
   57.8230   31.4540   43.9180 C   0  0  0  0  0  0  0  0  0  0  0  0
   58.6330   29.4470   45.2370 N   0  0  0  0  0  0  0  0  0  0  0  0
   58.5570   28.7220   46.5300 C   0  0  0  0  0  0  0  0  0  0  0  0
   57.4830   27.6270   46.5350 C   0  0  0  0  0  0  0  0  0  0  0  0
   57.6930   26.6990   45.4160 N   0  0  0  0  0  0  0  0  0  0  0  0
   57.2300   25.3330   45.5000 C   0  0  0  0  0  0  0  0  0  0  0  0
   56.8490   24.7800   46.7370 C   0  0  0  0  0  0  0  0  0  0  0  0
   56.4000   23.4580   46.8160 C   0  0  0  0  0  0  0  0  0  0  0  0
   56.3270   22.6720   45.6640 C   0  0  0  0  0  0  0  0  0  0  0  0
   56.7020   23.2070   44.4290 C   0  0  0  0  0  0  0  0  0  0  0  0
   56.6130   22.2170   42.9830 Cl  0  0  0  0  0  0  0  0  0  0  0  0
   57.1510   24.5290   44.3450 C   0  0  0  0  0  0  0  0  0  0  0  0
   58.3790   27.1810   44.2100 C   0  0  0  0  0  0  0  0  0  0  0  0
   58.1670   28.6890   44.0480 C   0  0  0  0  0  0  0  0  0  0  0  0
   60.3930   31.2350   46.3770 N   0  0  0  0  0  0  0  0  0  0  0  0
   61.2400   31.9620   47.1350 C   0  0  0  0  0  0  0  0  0  0  0  0
   62.4740   31.6490   47.4480 O   0  0  0  0  0  0  0  0  0  0  0  0
   62.9350   32.6310   48.2040 C   0  0  0  0  0  0  0  0  0  0  0  0
   64.3150   32.6700   48.7650 C   0  0  0  0  0  0  0  0  0  0  0  0
   61.9660   33.6160   48.3830 C   0  0  0  0  0  0  0  0  0  0  0  0
   60.8810   33.1460   47.6770 C   0  0  0  0  0  0  0  0  0  0  0  0
   59.6070   33.6470   47.4760 C   0  0  0  0  0  0  0  0  0  0  0  0
   59.2800   34.7480   47.9990 O   0  0  0  0  0  0  0  0  0  0  0  0
   59.3207   35.4586   45.9665 H   0  0  0  0  0  0  0  0  0  0  0  0
   60.2734   35.2703   44.4554 H   0  0  0  0  0  0  0  0  0  0  0  0
   58.7762   36.2628   44.4554 H   0  0  0  0  0  0  0  0  0  0  0  0
   57.0135   35.3135   45.4482 H   0  0  0  0  0  0  0  0  0  0  0  0
   56.4829   33.8395   44.5665 H   0  0  0  0  0  0  0  0  0  0  0  0
   57.0979   34.1105   47.3575 H   0  0  0  0  0  0  0  0  0  0  0  0
   56.6515   32.6151   46.4434 H   0  0  0  0  0  0  0  0  0  0  0  0
   57.1971   30.8566   45.8358 H   0  0  0  0  0  0  0  0  0  0  0  0
   57.2868   32.4054   44.0497 H   0  0  0  0  0  0  0  0  0  0  0  0
   58.7537   31.6319   43.3593 H   0  0  0  0  0  0  0  0  0  0  0  0
   57.1888   30.7500   43.3593 H   0  0  0  0  0  0  0  0  0  0  0  0
   59.5337   28.2573   46.7303 H   0  0  0  0  0  0  0  0  0  0  0  0
   58.2870   29.4544   47.3051 H   0  0  0  0  0  0  0  0  0  0  0  0
   57.5370   27.0706   47.4824 H   0  0  0  0  0  0  0  0  0  0  0  0
   56.4940   28.0966   46.4284 H   0  0  0  0  0  0  0  0  0  0  0  0
   56.9049   25.3926   47.6489 H   0  0  0  0  0  0  0  0  0  0  0  0
   56.1036   23.0363   47.7878 H   0  0  0  0  0  0  0  0  0  0  0  0
   55.9744   21.6321   45.7289 H   0  0  0  0  0  0  0  0  0  0  0  0
   57.4448   24.9445   43.3698 H   0  0  0  0  0  0  0  0  0  0  0  0
   59.4556   26.9727   44.2966 H   0  0  0  0  0  0  0  0  0  0  0  0
   57.9659   26.6640   43.3313 H   0  0  0  0  0  0  0  0  0  0  0  0
   58.7262   29.0335   43.1656 H   0  0  0  0  0  0  0  0  0  0  0  0
   57.0883   28.8699   43.9309 H   0  0  0  0  0  0  0  0  0  0  0  0
   60.7250   30.3170   46.0100 H   0  0  0  0  0  0  0  0  0  0  0  0
   64.2643   32.6686   49.8638 H   0  0  0  0  0  0  0  0  0  0  0  0
   64.8751   31.7873   48.4226 H   0  0  0  0  0  0  0  0  0  0  0  0
   64.8243   33.5829   48.4226 H   0  0  0  0  0  0  0  0  0  0  0  0
   62.0485   34.5518   48.9553 H   0  0  0  0  0  0  0  0  0  0  0  0
  1  2  1  0
  2  3  1  0
  3  4  1  0
  4  5  1  0
  5  6  1  0
  6  7  1  0
  7  8  1  0
  7  9  1  0
  9 10  1  0
 10 11  1  0
 11 12  1  0
 12 13  1  0
 13 14  2  0
 14 15  1  0
 15 16  2  0
 16 17  1  0
 17 18  1  0
 17 19  2  0
 12 20  1  0
 20 21  1  0
  6 22  2  0
 22 23  1  0
 23 24  1  0
 24 25  1  0
 25 26  1  0
 25 27  2  0
 27 28  1  0
 28 29  1  0
 29 30  2  0
 29  5  1  0
 21  9  1  0
 28 23  2  0
 19 13  1  0
  1 31  1  0
  1 32  1  0
  1 33  1  0
  3 34  1  0
  3 35  1  0
  4 36  1  0
  4 37  1  0
  7 38  1  1
  8 39  1  0
  8 40  1  0
  8 41  1  0
 10 42  1  0
 10 43  1  0
 11 44  1  0
 11 45  1  0
 14 46  1  0
 15 47  1  0
 16 48  1  0
 19 49  1  0
 20 50  1  0
 20 51  1  0
 21 52  1  0
 21 53  1  0
 22 54  1  0
 26 55  1  0
 26 56  1  0
 26 57  1  0
 27 58  1  0
M  CHG  1  22   1
M  END
>  <UniqueID>  (41) 
40

>  <SMILES>  (41) 
COCCn1c([C@@H](C)N2CCN(c3cccc(Cl)c3)CC2)[nH+]c2oc(C)cc2c1=O

>  <Energy>  (41) 
114.0661084845812

>  <Genealogy>  (41) 
COCCn1c(C(C)N2CCN(c3cccc(Cl)c3)CC2)[nH+]c2oc(C)cc2c1=O (protonated)
COCCn1c([C@@H](C)N2CCN(c3cccc(Cl)c3)CC2)[nH+]c2oc(C)cc2c1=O (chirality)
COCCn1c([C@@H](C)N2CCN(c3cccc(Cl)c3)CC2)[nH+]c2oc(C)cc2c1=O (3D coordinates assigned)
COCCn1c([C@@H](C)N2CCN(c3cccc(Cl)c3)CC2)[nH+]c2oc(C)cc2c1=O (nonaromatic ring conformer: 114.0661084845812 kcal/mol)

>  <smiles>  (41) 
COCCn1c(C(C)N2CCN(c3cccc(Cl)c3)CC2)nc2oc(C)cc2c1=O

>  <score_type>  (41) 
oracle

>  <origin>  (41) 
adg

>  <m_score__min__energy>  (41) 
-6.3899999999999997

>  <m_primary>  (41) 
energy

$$$$
