0:0
     RDKit          3D

 57 59  0  0  0  0  0  0  0  0999 V2000
   56.2110   29.8980   43.4380 C   0  0  0  0  0  0  0  0  0  0  0  0
   56.2160   29.8570   44.8600 O   0  0  0  0  0  0  0  0  0  0  0  0
   57.3750   29.7870   45.6460 C   0  0  0  0  0  0  0  0  0  0  0  0
   58.1590   30.9380   45.7800 C   0  0  0  0  0  0  0  0  0  0  0  0
   59.3210   30.9200   46.5560 C   0  0  0  0  0  0  0  0  0  0  0  0
   59.7240   29.7410   47.2010 C   0  0  0  0  0  0  0  0  0  0  0  0
   60.9590   29.7280   48.0600 C   0  0  0  0  0  0  0  0  0  0  0  0
   60.6540   29.1170   49.4320 C   0  0  0  0  0  0  0  0  0  0  0  0
   60.3460   30.1660   50.4010 N   0  0  0  0  0  0  0  0  0  0  0  0
   59.0790   30.2530   51.0670 C   0  0  0  0  0  0  0  0  0  0  0  0
   58.1810   29.3960   50.8480 O   0  0  0  0  0  0  0  0  0  0  0  0
   58.8100   31.3780   52.0230 C   0  0  0  0  0  0  0  0  0  0  0  0
   58.3290   32.5840   51.3110 N   0  0  0  0  0  0  0  0  0  0  0  0
   59.1340   33.7930   51.6110 C   0  0  0  0  0  0  0  0  0  0  0  0
   60.4980   33.7660   50.9070 C   0  0  0  0  0  0  0  0  0  0  0  0
   60.3500   33.3700   49.5050 N   0  0  0  0  0  0  0  0  0  0  0  0
   61.5170   33.2510   48.6730 C   0  0  0  0  0  0  0  0  0  0  0  0
   61.5470   33.8930   47.4250 C   0  0  0  0  0  0  0  0  0  0  0  0
   62.6740   33.7960   46.6070 C   0  0  0  0  0  0  0  0  0  0  0  0
   63.7780   33.0520   47.0240 C   0  0  0  0  0  0  0  0  0  0  0  0
   63.7600   32.4020   48.2600 C   0  0  0  0  0  0  0  0  0  0  0  0
   62.6290   32.4930   49.0970 C   0  0  0  0  0  0  0  0  0  0  0  0
   62.5710   31.8390   50.3380 O   0  0  0  0  0  0  0  0  0  0  0  0
   63.6420   31.0960   50.9090 C   0  0  0  0  0  0  0  0  0  0  0  0
   59.0080   33.2130   48.9370 C   0  0  0  0  0  0  0  0  0  0  0  0
   58.1450   32.3290   49.8540 C   0  0  0  0  0  0  0  0  0  0  0  0
   58.9340   28.5880   47.0800 C   0  0  0  0  0  0  0  0  0  0  0  0
   57.7710   28.6060   46.3050 C   0  0  0  0  0  0  0  0  0  0  0  0
   56.0842   30.9376   43.1016 H   0  0  0  0  0  0  0  0  0  0  0  0
   57.1640   29.5028   43.0564 H   0  0  0  0  0  0  0  0  0  0  0  0
   55.3809   29.2853   43.0564 H   0  0  0  0  0  0  0  0  0  0  0  0
   57.8581   31.8651   45.2701 H   0  0  0  0  0  0  0  0  0  0  0  0
   59.9227   31.8347   46.6617 H   0  0  0  0  0  0  0  0  0  0  0  0
   61.7386   29.1315   47.5636 H   0  0  0  0  0  0  0  0  0  0  0  0
   61.3044   30.7628   48.2010 H   0  0  0  0  0  0  0  0  0  0  0  0
   59.7909   28.4408   49.3436 H   0  0  0  0  0  0  0  0  0  0  0  0
   61.5372   28.5603   49.7783 H   0  0  0  0  0  0  0  0  0  0  0  0
   61.0570   30.9140   50.5670 H   0  0  0  0  0  0  0  0  0  0  0  0
   58.0445   31.0591   52.7457 H   0  0  0  0  0  0  0  0  0  0  0  0
   59.7493   31.6293   52.5374 H   0  0  0  0  0  0  0  0  0  0  0  0
   58.5789   34.6814   51.2754 H   0  0  0  0  0  0  0  0  0  0  0  0
   59.3126   33.8212   52.6960 H   0  0  0  0  0  0  0  0  0  0  0  0
   60.9480   34.7687   50.9533 H   0  0  0  0  0  0  0  0  0  0  0  0
   61.1432   33.0339   51.4147 H   0  0  0  0  0  0  0  0  0  0  0  0
   60.6768   34.4763   47.0895 H   0  0  0  0  0  0  0  0  0  0  0  0
   62.6916   34.3066   45.6328 H   0  0  0  0  0  0  0  0  0  0  0  0
   64.6649   32.9771   46.3777 H   0  0  0  0  0  0  0  0  0  0  0  0
   64.6331   31.8157   48.5823 H   0  0  0  0  0  0  0  0  0  0  0  0
   63.5760   31.1418   52.0061 H   0  0  0  0  0  0  0  0  0  0  0  0
   63.5770   30.0480   50.5812 H   0  0  0  0  0  0  0  0  0  0  0  0
   64.6009   31.5239   50.5812 H   0  0  0  0  0  0  0  0  0  0  0  0
   58.5372   34.2022   48.8374 H   0  0  0  0  0  0  0  0  0  0  0  0
   59.0890   32.7354   47.9494 H   0  0  0  0  0  0  0  0  0  0  0  0
   57.0881   32.5051   49.6053 H   0  0  0  0  0  0  0  0  0  0  0  0
   58.4619   31.2908   49.6759 H   0  0  0  0  0  0  0  0  0  0  0  0
   59.2316   27.6644   47.5981 H   0  0  0  0  0  0  0  0  0  0  0  0
   57.1624   27.6947   46.2091 H   0  0  0  0  0  0  0  0  0  0  0  0
  1  2  1  0
  2  3  1  0
  3  4  2  0
  4  5  1  0
  5  6  2  0
  6  7  1  0
  7  8  1  0
  8  9  1  0
  9 10  1  0
 10 11  2  0
 10 12  1  0
 12 13  1  0
 13 14  1  0
 14 15  1  0
 15 16  1  0
 16 17  1  0
 17 18  2  0
 18 19  1  0
 19 20  2  0
 20 21  1  0
 21 22  2  0
 22 23  1  0
 23 24  1  0
 16 25  1  0
 25 26  1  0
  6 27  1  0
 27 28  2  0
 28  3  1  0
 26 13  1  0
 22 17  1  0
  1 29  1  0
  1 30  1  0
  1 31  1  0
  4 32  1  0
  5 33  1  0
  7 34  1  0
  7 35  1  0
  8 36  1  0
  8 37  1  0
  9 38  1  0
 12 39  1  0
 12 40  1  0
 14 41  1  0
 14 42  1  0
 15 43  1  0
 15 44  1  0
 18 45  1  0
 19 46  1  0
 20 47  1  0
 21 48  1  0
 24 49  1  0
 24 50  1  0
 24 51  1  0
 25 52  1  0
 25 53  1  0
 26 54  1  0
 26 55  1  0
 27 56  1  0
 28 57  1  0
M  END
>  <UniqueID>  (1) 
1

>  <SMILES>  (1) 
COc1ccc(CCNC(=O)CN2CCN(c3ccccc3OC)CC2)cc1

>  <Energy>  (1) 
64.3831050216894

>  <Genealogy>  (1) 
COc1ccc(CCNC(=O)CN2CCN(c3ccccc3OC)CC2)cc1 (3D coordinates assigned)
COc1ccc(CCNC(=O)CN2CCN(c3ccccc3OC)CC2)cc1 (nonaromatic ring conformer: 64.3831050216894 kcal/mol)

>  <smiles>  (1) 
COc1ccc(CCNC(=O)CN2CCN(c3ccccc3OC)CC2)cc1

>  <score_type>  (1) 
oracle

>  <origin>  (1) 
adg

>  <m_score__min__energy>  (1) 
-7.9500000000000002

>  <m_primary>  (1) 
energy

$$$$
1:0
     RDKit          3D

 57 60  0  0  0  0  0  0  0  0999 V2000
   63.3870   31.9590   47.1470 C   0  0  0  0  0  0  0  0  0  0  0  0
   63.3760   32.7600   48.3800 N   0  0  0  0  0  0  0  0  0  0  0  0
   64.5030   32.7690   49.1570 C   0  0  0  0  0  0  0  0  0  0  0  0
   64.5430   33.4870   50.3530 C   0  0  0  0  0  0  0  0  0  0  0  0
   63.4240   34.2100   50.7540 C   0  0  0  0  0  0  0  0  0  0  0  0
   62.2860   34.2210   49.9540 C   0  0  0  0  0  0  0  0  0  0  0  0
   62.2730   33.5030   48.7480 C   0  0  0  0  0  0  0  0  0  0  0  0
   61.0560   33.5730   47.9040 C   0  0  0  0  0  0  0  0  0  0  0  0
   61.1110   34.1310   46.6220 C   0  0  0  0  0  0  0  0  0  0  0  0
   59.9500   34.1960   45.8480 C   0  0  0  0  0  0  0  0  0  0  0  0
   58.7600   33.7360   46.3400 N   0  0  0  0  0  0  0  0  0  0  0  0
   57.5580   33.7820   45.4980 C   0  0  0  0  0  0  0  0  0  0  0  0
   57.8720   33.2560   44.0960 C   0  0  0  0  0  0  0  0  0  0  0  0
   57.7170   31.7970   44.0520 N   0  0  0  0  0  0  0  0  0  0  0  0
   56.9980   31.2230   43.0420 C   0  0  0  0  0  0  0  0  0  0  0  0
   56.8020   29.8440   43.0090 C   0  0  0  0  0  0  0  0  0  0  0  0
   57.3430   29.0480   44.0170 C   0  0  0  0  0  0  0  0  0  0  0  0
   58.0900   29.6310   45.0560 C   0  0  0  0  0  0  0  0  0  0  0  0
   58.6740   28.8230   46.2130 C   0  0  2  0  0  0  0  0  0  0  0  0
   59.0980   29.6180   47.4490 C   0  0  0  0  0  0  0  0  0  0  0  0
   60.1380   28.7360   48.1230 C   0  0  0  0  0  0  0  0  0  0  0  0
   60.4190   27.5950   47.1440 C   0  0  0  0  0  0  0  0  0  0  0  0
   59.8120   27.9520   45.8490 N   0  0  2  0  0  0  0  0  0  0  0  0
   60.8090   28.5990   44.9710 C   0  0  0  0  0  0  0  0  0  0  0  0
   58.2430   31.0300   45.0550 C   0  0  0  0  0  0  0  0  0  0  0  0
   58.6910   33.1890   47.5910 C   0  0  0  0  0  0  0  0  0  0  0  0
   59.8320   33.1070   48.3930 C   0  0  0  0  0  0  0  0  0  0  0  0
   63.4017   30.8897   47.4045 H   0  0  0  0  0  0  0  0  0  0  0  0
   62.4857   32.1817   46.5570 H   0  0  0  0  0  0  0  0  0  0  0  0
   64.2818   32.2064   46.5570 H   0  0  0  0  0  0  0  0  0  0  0  0
   65.3890   32.2026   48.8343 H   0  0  0  0  0  0  0  0  0  0  0  0
   65.4514   33.4814   50.9733 H   0  0  0  0  0  0  0  0  0  0  0  0
   63.4391   34.7709   51.7002 H   0  0  0  0  0  0  0  0  0  0  0  0
   61.3984   34.7911   50.2658 H   0  0  0  0  0  0  0  0  0  0  0  0
   62.0624   34.5160   46.2262 H   0  0  0  0  0  0  0  0  0  0  0  0
   59.9934   34.6208   44.8343 H   0  0  0  0  0  0  0  0  0  0  0  0
   56.7729   33.1594   45.9518 H   0  0  0  0  0  0  0  0  0  0  0  0
   57.2146   34.8242   45.4208 H   0  0  0  0  0  0  0  0  0  0  0  0
   57.1823   33.7160   43.3731 H   0  0  0  0  0  0  0  0  0  0  0  0
   58.9110   33.5130   43.8421 H   0  0  0  0  0  0  0  0  0  0  0  0
   56.5707   31.8543   42.2490 H   0  0  0  0  0  0  0  0  0  0  0  0
   56.2240   29.3864   42.1926 H   0  0  0  0  0  0  0  0  0  0  0  0
   57.1851   27.9595   43.9998 H   0  0  0  0  0  0  0  0  0  0  0  0
   57.7948   28.2147   46.4719 H   0  0  0  0  0  0  0  0  0  0  0  0
   59.5354   30.5849   47.1595 H   0  0  0  0  0  0  0  0  0  0  0  0
   58.2507   29.8504   48.1109 H   0  0  0  0  0  0  0  0  0  0  0  0
   61.0570   29.3084   48.3172 H   0  0  0  0  0  0  0  0  0  0  0  0
   59.7796   28.3576   49.0917 H   0  0  0  0  0  0  0  0  0  0  0  0
   61.5045   27.4632   47.0247 H   0  0  0  0  0  0  0  0  0  0  0  0
   59.9943   26.6527   47.5204 H   0  0  0  0  0  0  0  0  0  0  0  0
   59.4590   27.0870   45.3730 H   0  0  0  0  0  0  0  0  0  0  0  0
   61.5733   29.0950   45.5873 H   0  0  0  0  0  0  0  0  0  0  0  0
   61.2869   27.8384   44.3361 H   0  0  0  0  0  0  0  0  0  0  0  0
   60.3090   29.3452   44.3361 H   0  0  0  0  0  0  0  0  0  0  0  0
   58.7946   31.5145   45.8741 H   0  0  0  0  0  0  0  0  0  0  0  0
   57.7298   32.8106   47.9690 H   0  0  0  0  0  0  0  0  0  0  0  0
   59.7676   32.6780   49.4039 H   0  0  0  0  0  0  0  0  0  0  0  0
  1  2  1  0
  2  3  2  0
  3  4  1  0
  4  5  2  0
  5  6  1  0
  6  7  2  0
  7  8  1  0
  8  9  2  0
  9 10  1  0
 10 11  2  0
 11 12  1  0
 12 13  1  0
 13 14  1  0
 14 15  2  0
 15 16  1  0
 16 17  2  0
 17 18  1  0
 18 19  1  0
 19 20  1  0
 20 21  1  0
 21 22  1  0
 22 23  1  0
 23 24  1  0
 18 25  2  0
 11 26  1  0
 26 27  2  0
  7  2  1  0
 27  8  1  0
 25 14  1  0
 23 19  1  0
  1 28  1  0
  1 29  1  0
  1 30  1  0
  3 31  1  0
  4 32  1  0
  5 33  1  0
  6 34  1  0
  9 35  1  0
 10 36  1  0
 12 37  1  0
 12 38  1  0
 13 39  1  0
 13 40  1  0
 15 41  1  0
 16 42  1  0
 17 43  1  0
 19 44  1  1
 20 45  1  0
 20 46  1  0
 21 47  1  0
 21 48  1  0
 22 49  1  0
 22 50  1  0
 23 51  1  6
 24 52  1  0
 24 53  1  0
 24 54  1  0
 25 55  1  0
 26 56  1  0
 27 57  1  0
M  CHG  4   2   1  11   1  14   1  23   1
M  END
>  <UniqueID>  (2) 
2

>  <SMILES>  (2) 
C[n+]1ccccc1-c1cc[n+](CC[n+]2cccc([C@@H]3CCC[N@@H+]3C)c2)cc1

>  <Energy>  (2) 
77.97269178069976

>  <Genealogy>  (2) 
C[n+]1ccccc1-c1cc[n+](CC[n+]2cccc(C3CCC[NH+]3C)c2)cc1 (protonated)
C[n+]1ccccc1-c1cc[n+](CC[n+]2cccc([C@@H]3CCC[N@@H+]3C)c2)cc1 (chirality)
C[n+]1ccccc1-c1cc[n+](CC[n+]2cccc([C@@H]3CCC[N@@H+]3C)c2)cc1 (3D coordinates assigned)
C[n+]1ccccc1-c1cc[n+](CC[n+]2cccc([C@@H]3CCC[N@@H+]3C)c2)cc1 (nonaromatic ring conformer: 77.97269178069976 kcal/mol)

>  <smiles>  (2) 
CN1CCCC1c1ccc[n+](CC[n+]2ccc(-c3cccc[n+]3C)cc2)c1

>  <score_type>  (2) 
oracle

>  <origin>  (2) 
adg

>  <m_score__min__energy>  (2) 
-2.8300000000000001

>  <m_primary>  (2) 
energy

$$$$
2:0
     RDKit          3D

 68 71  0  0  0  0  0  0  0  0999 V2000
   60.5540   34.1710   49.7310 C   0  0  0  0  0  0  0  0  0  0  0  0
   59.3310   33.3430   49.3460 C   0  0  0  0  0  0  0  0  0  0  0  0
   59.0810   33.4710   47.8930 N   0  0  0  0  0  0  0  0  0  0  0  0
   59.4190   34.8240   47.3990 C   0  0  0  0  0  0  0  0  0  0  0  0
   60.1490   34.7740   46.0330 C   0  0  0  0  0  0  0  0  0  0  0  0
   59.2480   34.3340   44.8570 C   0  0  0  0  0  0  0  0  0  0  0  0
   58.3640   33.1640   45.1330 N   0  0  0  0  0  0  0  0  0  0  0  0
   57.8090   32.5890   43.8860 C   0  0  0  0  0  0  0  0  0  0  0  0
   57.5630   31.0750   44.0100 C   0  0  0  0  0  0  0  0  0  0  0  0
   58.7910   30.3140   44.5380 C   0  0  0  0  0  0  0  0  0  0  0  0
   59.0320   30.6200   45.9490 N   0  0  0  0  0  0  0  0  0  0  0  0
   59.3920   29.6090   46.9000 C   0  0  0  0  0  0  0  0  0  0  0  0
   59.1600   28.3930   46.6540 O   0  0  0  0  0  0  0  0  0  0  0  0
   60.0130   29.9820   48.1870 C   0  0  0  0  0  0  0  0  0  0  0  0
   59.4350   29.5080   49.3700 C   0  0  0  0  0  0  0  0  0  0  0  0
   59.9570   29.8280   50.5900 N   0  0  0  0  0  0  0  0  0  0  0  0
   59.3550   29.2550   51.7620 C   0  0  0  0  0  0  0  0  0  0  0  0
   60.1350   28.3790   52.5360 C   0  0  0  0  0  0  0  0  0  0  0  0
   59.6080   27.7630   53.6720 C   0  0  0  0  0  0  0  0  0  0  0  0
   58.2890   28.0170   54.0480 C   0  0  0  0  0  0  0  0  0  0  0  0
   57.4980   28.8850   53.2910 C   0  0  0  0  0  0  0  0  0  0  0  0
   58.0090   29.5230   52.1500 C   0  0  0  0  0  0  0  0  0  0  0  0
   57.1240   30.3850   51.4770 O   0  0  0  0  0  0  0  0  0  0  0  0
   56.3700   31.4600   52.0300 C   0  0  0  0  0  0  0  0  0  0  0  0
   61.1000   30.5740   50.6960 C   0  0  0  0  0  0  0  0  0  0  0  0
   61.5940   30.8040   51.8350 O   0  0  0  0  0  0  0  0  0  0  0  0
   61.7230   31.0840   49.5400 C   0  0  0  0  0  0  0  0  0  0  0  0
   62.8900   31.8680   49.6310 C   0  0  0  0  0  0  0  0  0  0  0  0
   63.5110   32.3480   48.4770 C   0  0  0  0  0  0  0  0  0  0  0  0
   62.9900   32.0420   47.2220 C   0  0  0  0  0  0  0  0  0  0  0  0
   61.8400   31.2600   47.1100 C   0  0  0  0  0  0  0  0  0  0  0  0
   61.1780   30.7830   48.2650 C   0  0  0  0  0  0  0  0  0  0  0  0
   57.2800   33.4020   46.1190 C   0  0  0  0  0  0  0  0  0  0  0  0
   57.6950   33.0780   47.5660 C   0  0  0  0  0  0  0  0  0  0  0  0
   60.6312   34.2233   50.8270 H   0  0  0  0  0  0  0  0  0  0  0  0
   61.4596   33.6995   49.3217 H   0  0  0  0  0  0  0  0  0  0  0  0
   60.4526   35.1870   49.3217 H   0  0  0  0  0  0  0  0  0  0  0  0
   59.5112   32.2867   49.5946 H   0  0  0  0  0  0  0  0  0  0  0  0
   58.4540   33.7079   49.9007 H   0  0  0  0  0  0  0  0  0  0  0  0
   58.4909   35.4034   47.2854 H   0  0  0  0  0  0  0  0  0  0  0  0
   60.0934   35.2952   48.1292 H   0  0  0  0  0  0  0  0  0  0  0  0
   60.5404   35.7781   45.8125 H   0  0  0  0  0  0  0  0  0  0  0  0
   60.9455   34.0208   46.1241 H   0  0  0  0  0  0  0  0  0  0  0  0
   58.6084   35.1856   44.5820 H   0  0  0  0  0  0  0  0  0  0  0  0
   59.9297   34.0169   44.0541 H   0  0  0  0  0  0  0  0  0  0  0  0
   56.8546   33.0867   43.6593 H   0  0  0  0  0  0  0  0  0  0  0  0
   58.5419   32.7498   43.0816 H   0  0  0  0  0  0  0  0  0  0  0  0
   56.7234   30.9106   44.7014 H   0  0  0  0  0  0  0  0  0  0  0  0
   57.3427   30.6912   43.0029 H   0  0  0  0  0  0  0  0  0  0  0  0
   58.6185   29.2331   44.4289 H   0  0  0  0  0  0  0  0  0  0  0  0
   59.6719   30.6247   43.9570 H   0  0  0  0  0  0  0  0  0  0  0  0
   59.1130   31.6220   46.2420 H   0  0  0  0  0  0  0  0  0  0  0  0
   58.5436   28.8657   49.3158 H   0  0  0  0  0  0  0  0  0  0  0  0
   61.1755   28.1760   52.2424 H   0  0  0  0  0  0  0  0  0  0  0  0
   60.2304   27.0798   54.2686 H   0  0  0  0  0  0  0  0  0  0  0  0
   57.8706   27.5328   54.9427 H   0  0  0  0  0  0  0  0  0  0  0  0
   56.4572   29.0715   53.5943 H   0  0  0  0  0  0  0  0  0  0  0  0
   56.4071   31.4071   53.1281 H   0  0  0  0  0  0  0  0  0  0  0  0
   56.7957   32.4172   51.6944 H   0  0  0  0  0  0  0  0  0  0  0  0
   55.3251   31.3857   51.6944 H   0  0  0  0  0  0  0  0  0  0  0  0
   63.3145   32.1034   50.6181 H   0  0  0  0  0  0  0  0  0  0  0  0
   64.4147   32.9699   48.5588 H   0  0  0  0  0  0  0  0  0  0  0  0
   63.4871   32.4183   46.3158 H   0  0  0  0  0  0  0  0  0  0  0  0
   61.4445   31.0122   46.1139 H   0  0  0  0  0  0  0  0  0  0  0  0
   56.9872   34.4611   46.0680 H   0  0  0  0  0  0  0  0  0  0  0  0
   56.4483   32.7307   45.8591 H   0  0  0  0  0  0  0  0  0  0  0  0
   57.0144   33.6081   48.2485 H   0  0  0  0  0  0  0  0  0  0  0  0
   57.6380   31.9852   47.6776 H   0  0  0  0  0  0  0  0  0  0  0  0
  1  2  1  0
  2  3  1  0
  3  4  1  0
  4  5  1  0
  5  6  1  0
  6  7  1  0
  7  8  1  0
  8  9  1  0
  9 10  1  0
 10 11  1  0
 11 12  1  0
 12 13  2  0
 12 14  1  0
 14 15  2  0
 15 16  1  0
 16 17  1  0
 17 18  2  0
 18 19  1  0
 19 20  2  0
 20 21  1  0
 21 22  2  0
 22 23  1  0
 23 24  1  0
 16 25  1  0
 25 26  2  0
 25 27  1  0
 27 28  2  0
 28 29  1  0
 29 30  2  0
 30 31  1  0
 31 32  2  0
  7 33  1  0
 33 34  1  0
 34  3  1  0
 32 14  1  0
 22 17  1  0
 32 27  1  0
  1 35  1  0
  1 36  1  0
  1 37  1  0
  2 38  1  0
  2 39  1  0
  4 40  1  0
  4 41  1  0
  5 42  1  0
  5 43  1  0
  6 44  1  0
  6 45  1  0
  8 46  1  0
  8 47  1  0
  9 48  1  0
  9 49  1  0
 10 50  1  0
 10 51  1  0
 11 52  1  0
 15 53  1  0
 18 54  1  0
 19 55  1  0
 20 56  1  0
 21 57  1  0
 24 58  1  0
 24 59  1  0
 24 60  1  0
 28 61  1  0
 29 62  1  0
 30 63  1  0
 31 64  1  0
 33 65  1  0
 33 66  1  0
 34 67  1  0
 34 68  1  0
M  END
>  <UniqueID>  (3) 
3

>  <SMILES>  (3) 
CCN1CCCN(CCCNC(=O)c2cn(-c3ccccc3OC)c(=O)c3ccccc23)CC1

>  <Energy>  (3) 
105.2717435795467

>  <Genealogy>  (3) 
CCN1CCCN(CCCNC(=O)c2cn(-c3ccccc3OC)c(=O)c3ccccc23)CC1 (3D coordinates assigned)
CCN1CCCN(CCCNC(=O)c2cn(-c3ccccc3OC)c(=O)c3ccccc23)CC1 (nonaromatic ring conformer: 105.2717435795467 kcal/mol)

>  <smiles>  (3) 
CCN1CCCN(CCCNC(=O)c2cn(-c3ccccc3OC)c(=O)c3ccccc23)CC1

>  <score_type>  (3) 
oracle

>  <origin>  (3) 
adg

>  <m_score__min__energy>  (3) 
-7.21

>  <m_primary>  (3) 
energy

$$$$
3:0
     RDKit          3D

 45 46  0  0  0  0  0  0  0  0999 V2000
   60.7270   26.8820   49.1150 C   0  0  0  0  0  0  0  0  0  0  0  0
   60.4260   27.2290   47.6600 C   0  0  0  0  0  0  0  0  0  0  0  0
   59.5680   28.4350   47.5860 N   0  0  0  0  0  0  0  0  0  0  0  0
   58.1660   28.0520   47.3360 C   0  0  0  0  0  0  0  0  0  0  0  0
   59.6580   29.2350   48.8260 C   0  0  0  0  0  0  0  0  0  0  0  0
   60.5840   30.4440   48.6210 C   0  0  0  0  0  0  0  0  0  0  0  0
   60.7360   30.7970   47.1970 N   0  0  0  0  0  0  0  0  0  0  0  0
   60.8280   32.2250   46.9910 C   0  0  0  0  0  0  0  0  0  0  0  0
   59.7700   33.0910   46.7410 C   0  0  0  0  0  0  0  0  0  0  0  0
   58.3020   32.7800   46.6130 C   0  0  0  0  0  0  0  0  0  0  0  0
   58.0040   32.0930   45.3160 C   0  0  0  0  0  0  0  0  0  0  0  0
   57.9560   32.7020   44.0690 C   0  0  0  0  0  0  0  0  0  0  0  0
   57.6340   31.8130   43.0380 C   0  0  0  0  0  0  0  0  0  0  0  0
   57.5330   32.3360   41.2070 Br  0  0  0  0  0  0  0  0  0  0  0  0
   57.4050   30.5110   43.4650 C   0  0  0  0  0  0  0  0  0  0  0  0
   57.6070   30.4660   45.1340 S   0  0  0  0  0  0  0  0  0  0  0  0
   60.3740   34.3310   46.5990 C   0  0  0  0  0  0  0  0  0  0  0  0
   59.6940   35.6230   46.2780 C   0  0  0  0  0  0  0  0  0  0  0  0
   61.7110   34.2070   46.7150 N   0  0  0  0  0  0  0  0  0  0  0  0
   61.9830   32.9300   46.9390 N   0  0  0  0  0  0  0  0  0  0  0  0
   63.3460   32.4370   47.1160 C   0  0  0  0  0  0  0  0  0  0  0  0
   60.1513   27.5457   49.7769 H   0  0  0  0  0  0  0  0  0  0  0  0
   60.4449   25.8366   49.3085 H   0  0  0  0  0  0  0  0  0  0  0  0
   61.8018   27.0136   49.3085 H   0  0  0  0  0  0  0  0  0  0  0  0
   61.3704   27.4224   47.1302 H   0  0  0  0  0  0  0  0  0  0  0  0
   59.8979   26.3848   47.1926 H   0  0  0  0  0  0  0  0  0  0  0  0
   57.6478   27.9104   48.2959 H   0  0  0  0  0  0  0  0  0  0  0  0
   57.6655   28.8463   46.7628 H   0  0  0  0  0  0  0  0  0  0  0  0
   58.1389   27.1135   46.7628 H   0  0  0  0  0  0  0  0  0  0  0  0
   58.6540   29.5906   49.1009 H   0  0  0  0  0  0  0  0  0  0  0  0
   60.0696   28.6037   49.6273 H   0  0  0  0  0  0  0  0  0  0  0  0
   60.1624   31.3074   49.1565 H   0  0  0  0  0  0  0  0  0  0  0  0
   61.5778   30.1767   49.0096 H   0  0  0  0  0  0  0  0  0  0  0  0
   61.6080   30.3520   46.8280 H   0  0  0  0  0  0  0  0  0  0  0  0
   59.9370   30.3960   46.6560 H   0  0  0  0  0  0  0  0  0  0  0  0
   58.0005   32.1247   47.4435 H   0  0  0  0  0  0  0  0  0  0  0  0
   57.7421   33.7264   46.6421 H   0  0  0  0  0  0  0  0  0  0  0  0
   58.1510   33.7726   43.9085 H   0  0  0  0  0  0  0  0  0  0  0  0
   57.1381   29.6583   42.8234 H   0  0  0  0  0  0  0  0  0  0  0  0
   59.4235   36.1370   47.2122 H   0  0  0  0  0  0  0  0  0  0  0  0
   60.3739   36.2597   45.6928 H   0  0  0  0  0  0  0  0  0  0  0  0
   58.7843   35.4231   45.6928 H   0  0  0  0  0  0  0  0  0  0  0  0
   63.5700   32.3560   48.1899 H   0  0  0  0  0  0  0  0  0  0  0  0
   63.4419   31.4472   46.6457 H   0  0  0  0  0  0  0  0  0  0  0  0
   64.0529   33.1364   46.6457 H   0  0  0  0  0  0  0  0  0  0  0  0
  1  2  1  0
  2  3  1  0
  3  4  1  0
  3  5  1  0
  5  6  1  0
  6  7  1  0
  7  8  1  0
  8  9  2  0
  9 10  1  0
 10 11  1  0
 11 12  2  0
 12 13  1  0
 13 14  1  0
 13 15  2  0
 15 16  1  0
  9 17  1  0
 17 18  1  0
 17 19  2  0
 19 20  1  0
 20 21  1  0
 20  8  1  0
 16 11  1  0
  1 22  1  0
  1 23  1  0
  1 24  1  0
  2 25  1  0
  2 26  1  0
  4 27  1  0
  4 28  1  0
  4 29  1  0
  5 30  1  0
  5 31  1  0
  6 32  1  0
  6 33  1  0
  7 34  1  0
  7 35  1  0
 10 36  1  0
 10 37  1  0
 12 38  1  0
 15 39  1  0
 18 40  1  0
 18 41  1  0
 18 42  1  0
 21 43  1  0
 21 44  1  0
 21 45  1  0
M  CHG  1   7   1
M  END
>  <UniqueID>  (4) 
4

>  <SMILES>  (4) 
CCN(C)CC[NH2+]c1c(Cc2cc(Br)cs2)c(C)nn1C

>  <Energy>  (4) 
93.7249497144734

>  <Genealogy>  (4) 
CCN(C)CC[NH2+]c1c(Cc2cc(Br)cs2)c(C)nn1C (protonated)
CCN(C)CC[NH2+]c1c(Cc2cc(Br)cs2)c(C)nn1C (3D coordinates assigned)
CCN(C)CC[NH2+]c1c(Cc2cc(Br)cs2)c(C)nn1C (optimized conformer: 93.7249497144734 kcal/mol)

>  <smiles>  (4) 
CCN(C)CCNc1c(Cc2cc(Br)cs2)c(C)nn1C

>  <score_type>  (4) 
oracle

>  <origin>  (4) 
adg

>  <m_score__min__energy>  (4) 
-5.1799999999999997

>  <m_primary>  (4) 
energy

$$$$
4:0
     RDKit          3D

 58 61  0  0  0  0  0  0  0  0999 V2000
   59.1670   30.3060   47.3280 C   0  0  0  0  0  0  0  0  0  0  0  0
   59.6920   30.3320   46.1010 C   0  0  0  0  0  0  0  0  0  0  0  0
   59.3020   29.3220   45.0590 C   0  0  0  0  0  0  0  0  0  0  0  0
   57.8570   29.3760   44.8010 N   0  0  0  0  0  0  0  0  0  0  0  0
   57.1280   30.4370   44.3990 C   0  0  0  0  0  0  0  0  0  0  0  0
   57.8050   32.0260   43.9050 S   0  0  0  0  0  0  0  0  0  0  0  0
   57.0180   32.9580   45.2630 C   0  0  0  0  0  0  0  0  0  0  0  0
   57.2520   34.4250   45.0880 C   0  0  0  0  0  0  0  0  0  0  0  0
   56.2870   35.1790   44.7990 O   0  0  0  0  0  0  0  0  0  0  0  0
   58.5830   34.9450   45.1790 N   0  0  0  0  0  0  0  0  0  0  0  0
   59.5320   34.6400   46.2090 C   0  0  0  0  0  0  0  0  0  0  0  0
   59.2610   34.8960   47.5640 C   0  0  0  0  0  0  0  0  0  0  0  0
   60.2110   34.5870   48.5430 C   0  0  0  0  0  0  0  0  0  0  0  0
   61.4420   34.0080   48.1870 C   0  0  0  0  0  0  0  0  0  0  0  0
   62.4870   33.7340   49.2550 C   0  0  0  0  0  0  0  0  0  0  0  0
   62.0660   32.5900   50.2280 C   0  0  0  0  0  0  0  0  0  0  0  0
   62.9050   31.3130   50.0470 C   0  0  0  0  0  0  0  0  0  0  0  0
   64.4120   31.5900   50.2080 C   0  0  0  0  0  0  0  0  0  0  0  0
   64.8630   32.9470   49.6290 C   0  0  0  0  0  0  0  0  0  0  0  0
   63.8680   33.4980   48.6010 C   0  0  0  0  0  0  0  0  0  0  0  0
   61.7030   33.7480   46.8290 C   0  0  0  0  0  0  0  0  0  0  0  0
   60.7470   34.0440   45.8530 C   0  0  0  0  0  0  0  0  0  0  0  0
   55.8080   30.1760   44.4430 N   0  0  0  0  0  0  0  0  0  0  0  0
   55.6740   28.9340   44.8840 N   0  0  0  0  0  0  0  0  0  0  0  0
   56.9130   28.4520   45.0910 C   0  0  0  0  0  0  0  0  0  0  0  0
   57.1780   27.1210   45.6670 C   0  0  0  0  0  0  0  0  0  0  0  0
   58.5060   26.6970   45.8370 C   0  0  0  0  0  0  0  0  0  0  0  0
   58.7770   25.4260   46.3530 C   0  0  0  0  0  0  0  0  0  0  0  0
   57.7260   24.5750   46.7100 C   0  0  0  0  0  0  0  0  0  0  0  0
   56.4030   25.0020   46.5700 C   0  0  0  0  0  0  0  0  0  0  0  0
   56.1230   26.2760   46.0670 C   0  0  0  0  0  0  0  0  0  0  0  0
   54.8010   26.7060   45.9960 O   0  0  0  0  0  0  0  0  0  0  0  0
   59.4701   31.0575   48.0719 H   0  0  0  0  0  0  0  0  0  0  0  0
   58.4313   29.5331   47.5952 H   0  0  0  0  0  0  0  0  0  0  0  0
   60.4267   31.1103   45.8469 H   0  0  0  0  0  0  0  0  0  0  0  0
   59.8439   29.5373   44.1263 H   0  0  0  0  0  0  0  0  0  0  0  0
   59.5592   28.3173   45.4256 H   0  0  0  0  0  0  0  0  0  0  0  0
   55.9360   32.7600   45.2599 H   0  0  0  0  0  0  0  0  0  0  0  0
   57.4565   32.6368   46.2193 H   0  0  0  0  0  0  0  0  0  0  0  0
   58.2983   35.3410   47.8557 H   0  0  0  0  0  0  0  0  0  0  0  0
   59.9933   34.7987   49.6003 H   0  0  0  0  0  0  0  0  0  0  0  0
   62.5688   34.6278   49.8910 H   0  0  0  0  0  0  0  0  0  0  0  0
   62.1866   32.9460   51.2618 H   0  0  0  0  0  0  0  0  0  0  0  0
   61.0202   32.3332   50.0037 H   0  0  0  0  0  0  0  0  0  0  0  0
   62.5963   30.5744   50.8014 H   0  0  0  0  0  0  0  0  0  0  0  0
   62.7343   30.9336   49.0287 H   0  0  0  0  0  0  0  0  0  0  0  0
   64.6547   31.5732   51.2808 H   0  0  0  0  0  0  0  0  0  0  0  0
   64.9425   30.8094   49.6430 H   0  0  0  0  0  0  0  0  0  0  0  0
   64.9577   33.6697   50.4529 H   0  0  0  0  0  0  0  0  0  0  0  0
   65.8252   32.7931   49.1185 H   0  0  0  0  0  0  0  0  0  0  0  0
   64.2481   34.4510   48.2044 H   0  0  0  0  0  0  0  0  0  0  0  0
   63.7555   32.7660   47.7876 H   0  0  0  0  0  0  0  0  0  0  0  0
   62.6669   33.3084   46.5330 H   0  0  0  0  0  0  0  0  0  0  0  0
   60.9511   33.8069   44.7984 H   0  0  0  0  0  0  0  0  0  0  0  0
   59.3350   27.3664   45.5636 H   0  0  0  0  0  0  0  0  0  0  0  0
   59.8185   25.0949   46.4784 H   0  0  0  0  0  0  0  0  0  0  0  0
   57.9410   23.5696   47.1010 H   0  0  0  0  0  0  0  0  0  0  0  0
   55.5783   24.3329   46.8568 H   0  0  0  0  0  0  0  0  0  0  0  0
  1  2  2  0
  2  3  1  0
  3  4  1  0
  4  5  1  0
  5  6  1  0
  6  7  1  0
  7  8  1  0
  8  9  2  0
  8 10  1  0
 10 11  1  0
 11 12  2  0
 12 13  1  0
 13 14  2  0
 14 15  1  0
 15 16  1  0
 16 17  1  0
 17 18  1  0
 18 19  1  0
 19 20  1  0
 14 21  1  0
 21 22  2  0
  5 23  2  0
 23 24  1  0
 24 25  2  0
 25 26  1  0
 26 27  2  0
 27 28  1  0
 28 29  2  0
 29 30  1  0
 30 31  2  0
 31 32  1  0
 25  4  1  0
 31 26  1  0
 22 11  1  0
 20 15  1  0
  1 33  1  0
  1 34  1  0
  2 35  1  0
  3 36  1  0
  3 37  1  0
  7 38  1  0
  7 39  1  0
 12 40  1  0
 13 41  1  0
 15 42  1  0
 16 43  1  0
 16 44  1  0
 17 45  1  0
 17 46  1  0
 18 47  1  0
 18 48  1  0
 19 49  1  0
 19 50  1  0
 20 51  1  0
 20 52  1  0
 21 53  1  0
 22 54  1  0
 27 55  1  0
 28 56  1  0
 29 57  1  0
 30 58  1  0
M  CHG  2  10  -1  32  -1
M  END
>  <UniqueID>  (5) 
5

>  <SMILES>  (5) 
C=CCn1c(SCC(=O)[N-]c2ccc(C3CCCCC3)cc2)nnc1-c1ccccc1[O-]

>  <Energy>  (5) 
101.76718223190747

>  <Genealogy>  (5) 
C=CCn1c(SCC(=O)[N-]c2ccc(C3CCCCC3)cc2)nnc1-c1ccccc1[O-] (protonated)
C=CCn1c(SCC(=O)[N-]c2ccc(C3CCCCC3)cc2)nnc1-c1ccccc1[O-] (3D coordinates assigned)
C=CCn1c(SCC(=O)[N-]c2ccc(C3CCCCC3)cc2)nnc1-c1ccccc1[O-] (nonaromatic ring conformer: 101.76718223190747 kcal/mol)

>  <smiles>  (5) 
C=CCn1c(SCC(=O)Nc2ccc(C3CCCCC3)cc2)nnc1-c1ccccc1O

>  <score_type>  (5) 
oracle

>  <origin>  (5) 
adg

>  <m_score__min__energy>  (5) 
-15.380000000000001

>  <m_primary>  (5) 
energy

$$$$
5:0
     RDKit          3D

 41 44  0  0  0  0  0  0  0  0999 V2000
   63.5440   24.5870   54.4830 C   0  0  0  0  0  0  0  0  0  0  0  0
   62.1920   24.7220   54.9100 O   0  0  0  0  0  0  0  0  0  0  0  0
   61.3100   25.7130   54.4550 C   0  0  0  0  0  0  0  0  0  0  0  0
   61.7500   26.8410   53.7490 C   0  0  0  0  0  0  0  0  0  0  0  0
   60.8350   27.7980   53.3130 C   0  0  0  0  0  0  0  0  0  0  0  0
   59.4560   27.6510   53.5670 C   0  0  0  0  0  0  0  0  0  0  0  0
   58.5480   28.6340   53.1270 C   0  0  0  0  0  0  0  0  0  0  0  0
   59.0720   29.7950   52.5460 O   0  0  0  0  0  0  0  0  0  0  0  0
   57.1500   28.4380   53.3100 C   0  0  0  0  0  0  0  0  0  0  0  0
   56.1570   29.2800   52.7430 C   0  0  0  0  0  0  0  0  0  0  0  0
   56.4660   30.2250   51.9700 O   0  0  0  0  0  0  0  0  0  0  0  0
   54.7980   29.0490   53.0260 C   0  0  0  0  0  0  0  0  0  0  0  0
   53.7210   29.9100   52.4760 C   0  0  0  0  0  0  0  0  0  0  0  0
   53.3810   29.8520   51.1120 C   0  0  0  0  0  0  0  0  0  0  0  0
   52.3570   30.6590   50.6040 C   0  0  0  0  0  0  0  0  0  0  0  0
   51.6610   31.5240   51.4520 C   0  0  0  0  0  0  0  0  0  0  0  0
   50.6440   32.3250   50.9450 O   0  0  0  0  0  0  0  0  0  0  0  0
   51.9860   31.5830   52.8100 C   0  0  0  0  0  0  0  0  0  0  0  0
   53.0080   30.7770   53.3230 C   0  0  0  0  0  0  0  0  0  0  0  0
   54.4680   27.9650   53.8390 C   0  0  0  0  0  0  0  0  0  0  0  0
   55.4060   27.1570   54.3060 O   0  0  0  0  0  0  0  0  0  0  0  0
   56.7050   27.3260   54.0690 C   0  0  0  0  0  0  0  0  0  0  0  0
   57.6200   26.3790   54.5750 C   0  0  0  0  0  0  0  0  0  0  0  0
   57.1130   25.2050   55.3890 C   0  0  0  0  0  0  0  0  0  0  0  0
   59.0010   26.5200   54.2900 C   0  0  0  0  0  0  0  0  0  0  0  0
   59.9470   25.5610   54.7200 C   0  0  0  0  0  0  0  0  0  0  0  0
   64.2015   24.5214   55.3625 H   0  0  0  0  0  0  0  0  0  0  0  0
   63.6481   23.6740   53.8784 H   0  0  0  0  0  0  0  0  0  0  0  0
   63.8266   25.4614   53.8784 H   0  0  0  0  0  0  0  0  0  0  0  0
   62.8217   26.9716   53.5381 H   0  0  0  0  0  0  0  0  0  0  0  0
   61.1940   28.6804   52.7630 H   0  0  0  0  0  0  0  0  0  0  0  0
   58.5180   30.4850   52.0600 H   0  0  0  0  0  0  0  0  0  0  0  0
   53.9229   29.1688   50.4415 H   0  0  0  0  0  0  0  0  0  0  0  0
   52.0997   30.6123   49.5355 H   0  0  0  0  0  0  0  0  0  0  0  0
   51.4372   32.2644   53.4767 H   0  0  0  0  0  0  0  0  0  0  0  0
   53.2550   30.8217   54.3940 H   0  0  0  0  0  0  0  0  0  0  0  0
   53.4145   27.7793   54.0953 H   0  0  0  0  0  0  0  0  0  0  0  0
   57.2112   25.4323   56.4608 H   0  0  0  0  0  0  0  0  0  0  0  0
   56.0554   25.0215   55.1484 H   0  0  0  0  0  0  0  0  0  0  0  0
   57.7045   24.3093   55.1484 H   0  0  0  0  0  0  0  0  0  0  0  0
   59.6021   24.6762   55.2752 H   0  0  0  0  0  0  0  0  0  0  0  0
  1  2  1  0
  2  3  1  0
  3  4  2  0
  4  5  1  0
  5  6  2  0
  6  7  1  0
  7  8  1  0
  7  9  2  0
  9 10  1  0
 10 11  2  0
 10 12  1  0
 12 13  1  0
 13 14  2  0
 14 15  1  0
 15 16  2  0
 16 17  1  0
 16 18  1  0
 18 19  2  0
 12 20  2  0
 20 21  1  0
 21 22  1  0
 22 23  2  0
 23 24  1  0
 23 25  1  0
 25 26  2  0
 26  3  1  0
 25  6  1  0
 22  9  1  0
 19 13  1  0
  1 27  1  0
  1 28  1  0
  1 29  1  0
  4 30  1  0
  5 31  1  0
  8 32  1  0
 14 33  1  0
 15 34  1  0
 18 35  1  0
 19 36  1  0
 20 37  1  0
 24 38  1  0
 24 39  1  0
 24 40  1  0
 26 41  1  0
M  CHG  1  17  -1
M  END
>  <UniqueID>  (6) 
6

>  <SMILES>  (6) 
COc1ccc2c(O)c3c(=O)c(-c4ccc([O-])cc4)coc3c(C)c2c1

>  <Energy>  (6) 
72.77196945245859

>  <Genealogy>  (6) 
COc1ccc2c(O)c3c(=O)c(-c4ccc([O-])cc4)coc3c(C)c2c1 (protonated)
COc1ccc2c(O)c3c(=O)c(-c4ccc([O-])cc4)coc3c(C)c2c1 (3D coordinates assigned)
COc1ccc2c(O)c3c(=O)c(-c4ccc([O-])cc4)coc3c(C)c2c1 (optimized conformer: 72.77196945245859 kcal/mol)

>  <smiles>  (6) 
COc1ccc2c(O)c3c(=O)c(-c4ccc(O)cc4)coc3c(C)c2c1

>  <score_type>  (6) 
oracle

>  <origin>  (6) 
adg

>  <m_score__min__energy>  (6) 
-9.3300000000000001

>  <m_primary>  (6) 
energy

$$$$
6:0
     RDKit          3D

 44 46  0  0  0  0  0  0  0  0999 V2000
   55.8640   25.8020   45.9450 C   0  0  0  0  0  0  0  0  0  0  0  0
   55.8260   27.1880   45.6220 O   0  0  0  0  0  0  0  0  0  0  0  0
   56.9470   27.9480   45.2590 C   0  0  0  0  0  0  0  0  0  0  0  0
   58.1650   27.3580   44.8730 C   0  0  0  0  0  0  0  0  0  0  0  0
   59.2540   28.1590   44.5220 C   0  0  0  0  0  0  0  0  0  0  0  0
   59.1410   29.5510   44.5510 C   0  0  0  0  0  0  0  0  0  0  0  0
   57.9320   30.1550   44.9310 C   0  0  0  0  0  0  0  0  0  0  0  0
   57.8160   31.6260   44.9920 C   0  0  0  0  0  0  0  0  0  0  0  0
   58.8670   32.4630   44.8600 N   0  0  0  0  0  0  0  0  0  0  0  0
   58.3160   33.6780   45.0450 C   0  0  0  0  0  0  0  0  0  0  0  0
   59.0850   34.9690   45.0460 C   0  0  0  0  0  0  0  0  0  0  0  0
   60.2000   34.9600   46.0090 N   0  0  0  0  0  0  0  0  0  0  0  0
   59.8030   34.5940   47.3800 C   0  0  0  0  0  0  0  0  0  0  0  0
   59.9680   33.1140   47.6600 C   0  0  0  0  0  0  0  0  0  0  0  0
   58.9070   32.3960   48.2390 C   0  0  0  0  0  0  0  0  0  0  0  0
   59.0100   31.0190   48.4410 C   0  0  0  0  0  0  0  0  0  0  0  0
   60.1740   30.3450   48.0740 C   0  0  0  0  0  0  0  0  0  0  0  0
   61.2440   31.0450   47.5130 C   0  0  0  0  0  0  0  0  0  0  0  0
   61.1550   32.4370   47.3030 C   0  0  0  0  0  0  0  0  0  0  0  0
   62.2140   33.1670   46.7400 O   0  0  0  0  0  0  0  0  0  0  0  0
   63.5750   33.0540   47.1390 C   0  0  0  0  0  0  0  0  0  0  0  0
   56.9620   33.5430   45.2490 C   0  0  0  0  0  0  0  0  0  0  0  0
   56.6870   32.2620   45.2150 O   0  0  0  0  0  0  0  0  0  0  0  0
   56.8410   29.3450   45.2860 C   0  0  0  0  0  0  0  0  0  0  0  0
   55.8673   25.6802   47.0382 H   0  0  0  0  0  0  0  0  0  0  0  0
   54.9792   25.3028   45.5232 H   0  0  0  0  0  0  0  0  0  0  0  0
   56.7748   25.3520   45.5232 H   0  0  0  0  0  0  0  0  0  0  0  0
   58.2596   26.2624   44.8477 H   0  0  0  0  0  0  0  0  0  0  0  0
   60.2037   27.6922   44.2218 H   0  0  0  0  0  0  0  0  0  0  0  0
   60.0028   30.1764   44.2750 H   0  0  0  0  0  0  0  0  0  0  0  0
   59.4908   35.1388   44.0378 H   0  0  0  0  0  0  0  0  0  0  0  0
   58.3927   35.7705   45.3432 H   0  0  0  0  0  0  0  0  0  0  0  0
   60.9840   34.3560   45.6690 H   0  0  0  0  0  0  0  0  0  0  0  0
   60.4261   35.1582   48.0895 H   0  0  0  0  0  0  0  0  0  0  0  0
   58.7363   34.8372   47.4936 H   0  0  0  0  0  0  0  0  0  0  0  0
   57.9884   32.9238   48.5351 H   0  0  0  0  0  0  0  0  0  0  0  0
   58.1724   30.4651   48.8900 H   0  0  0  0  0  0  0  0  0  0  0  0
   60.2497   29.2583   48.2269 H   0  0  0  0  0  0  0  0  0  0  0  0
   62.1621   30.5076   47.2331 H   0  0  0  0  0  0  0  0  0  0  0  0
   63.6359   33.0489   48.2373 H   0  0  0  0  0  0  0  0  0  0  0  0
   63.9964   32.1178   46.7441 H   0  0  0  0  0  0  0  0  0  0  0  0
   64.1450   33.9079   46.7441 H   0  0  0  0  0  0  0  0  0  0  0  0
   56.2430   34.3596   45.4108 H   0  0  0  0  0  0  0  0  0  0  0  0
   55.8924   29.8126   45.5887 H   0  0  0  0  0  0  0  0  0  0  0  0
  1  2  1  0
  2  3  1  0
  3  4  2  0
  4  5  1  0
  5  6  2  0
  6  7  1  0
  7  8  1  0
  8  9  2  0
  9 10  1  0
 10 11  1  0
 11 12  1  0
 12 13  1  0
 13 14  1  0
 14 15  2  0
 15 16  1  0
 16 17  2  0
 17 18  1  0
 18 19  2  0
 19 20  1  0
 20 21  1  0
 10 22  2  0
 22 23  1  0
  7 24  2  0
 24  3  1  0
 23  8  1  0
 19 14  1  0
  1 25  1  0
  1 26  1  0
  1 27  1  0
  4 28  1  0
  5 29  1  0
  6 30  1  0
 11 31  1  0
 11 32  1  0
 12 33  1  0
 13 34  1  0
 13 35  1  0
 15 36  1  0
 16 37  1  0
 17 38  1  0
 18 39  1  0
 21 40  1  0
 21 41  1  0
 21 42  1  0
 22 43  1  0
 24 44  1  0
M  END
>  <UniqueID>  (7) 
7

>  <SMILES>  (7) 
COc1cccc(-c2nc(CNCc3ccccc3OC)co2)c1

>  <Energy>  (7) 
72.40238661082493

>  <Genealogy>  (7) 
COc1cccc(-c2nc(CNCc3ccccc3OC)co2)c1 (3D coordinates assigned)
COc1cccc(-c2nc(CNCc3ccccc3OC)co2)c1 (optimized conformer: 72.40238661082493 kcal/mol)

>  <smiles>  (7) 
COc1cccc(-c2nc(CNCc3ccccc3OC)co2)c1

>  <score_type>  (7) 
oracle

>  <origin>  (7) 
adg

>  <m_score__min__energy>  (7) 
-7.25

>  <m_primary>  (7) 
energy

$$$$
7:0
     RDKit          3D

 70 72  0  0  0  0  0  0  0  0999 V2000
   55.8875   25.2391   46.7797 H   0  0  0  0  0  0  0  0  0  0  0  0
   56.7580   25.6890   46.2800 C   0  0  0  0  0  0  0  0  0  0  0  0
   56.6920   26.9370   45.9150 N   0  0  0  0  0  0  0  0  0  0  0  0
   57.5730   27.9830   46.3600 C   0  0  0  0  0  0  0  0  0  0  0  0
   58.3430   27.7680   47.5030 C   0  0  0  0  0  0  0  0  0  0  0  0
   58.2286   26.8325   48.0702 H   0  0  0  0  0  0  0  0  0  0  0  0
   59.2500   28.7230   47.9290 C   0  0  0  0  0  0  0  0  0  0  0  0
   59.9210   28.5009   48.7719 H   0  0  0  0  0  0  0  0  0  0  0  0
   59.3200   29.9720   47.2940 C   0  0  0  0  0  0  0  0  0  0  0  0
   60.3610   30.9150   47.6480 N   0  0  0  0  0  0  0  0  0  0  0  0
   60.3230   31.3690   48.5900 H   0  0  0  0  0  0  0  0  0  0  0  0
   61.4220   31.3750   46.7490 C   0  0  0  0  0  0  0  0  0  0  0  0
   61.1414   31.1397   45.7118 H   0  0  0  0  0  0  0  0  0  0  0  0
   62.3572   30.8640   47.0214 H   0  0  0  0  0  0  0  0  0  0  0  0
   61.6370   32.8870   46.8790 C   0  0  0  0  0  0  0  0  0  0  0  0
   61.2965   33.3822   45.9577 H   0  0  0  0  0  0  0  0  0  0  0  0
   62.7074   33.0830   47.0396 H   0  0  0  0  0  0  0  0  0  0  0  0
   60.8790   33.4150   48.0210 N   0  0  0  0  0  0  0  0  0  0  0  0
   60.0590   32.7880   48.1960 H   0  0  0  0  0  0  0  0  0  0  0  0
   61.7110   33.4160   49.2300 C   0  0  0  0  0  0  0  0  0  0  0  0
   62.1080   34.4285   49.3949 H   0  0  0  0  0  0  0  0  0  0  0  0
   62.5362   32.7016   49.0935 H   0  0  0  0  0  0  0  0  0  0  0  0
   60.8840   32.9910   50.4560 C   0  0  0  0  0  0  0  0  0  0  0  0
   60.8285   33.8392   51.1542 H   0  0  0  0  0  0  0  0  0  0  0  0
   61.3845   32.1227   50.9094 H   0  0  0  0  0  0  0  0  0  0  0  0
   59.5120   32.5800   50.1030 N   0  0  0  0  0  0  0  0  0  0  0  0
   59.1550   33.1610   49.3090 H   0  0  0  0  0  0  0  0  0  0  0  0
   58.5780   32.6870   51.2350 C   0  0  0  0  0  0  0  0  0  0  0  0
   58.0001   33.6184   51.1424 H   0  0  0  0  0  0  0  0  0  0  0  0
   59.1512   32.6923   52.1738 H   0  0  0  0  0  0  0  0  0  0  0  0
   57.6210   31.4990   51.2430 C   0  0  0  0  0  0  0  0  0  0  0  0
   57.3944   31.2177   52.2820 H   0  0  0  0  0  0  0  0  0  0  0  0
   56.6898   31.7748   50.7264 H   0  0  0  0  0  0  0  0  0  0  0  0
   58.0887   30.6479   50.7264 H   0  0  0  0  0  0  0  0  0  0  0  0
   58.4000   30.2820   46.2450 C   0  0  0  0  0  0  0  0  0  0  0  0
   57.6400   29.2260   45.6720 C   0  0  0  0  0  0  0  0  0  0  0  0
   57.0220   29.3090   44.4140 C   0  0  0  0  0  0  0  0  0  0  0  0
   56.1946   28.6108   44.2190 H   0  0  0  0  0  0  0  0  0  0  0  0
   57.3560   30.1890   43.3920 C   0  0  0  0  0  0  0  0  0  0  0  0
   57.1669   29.8274   42.3705 H   0  0  0  0  0  0  0  0  0  0  0  0
   57.8980   31.4670   43.4890 C   0  0  0  0  0  0  0  0  0  0  0  0
   58.1920   32.0290   42.3970 O   0  0  0  0  0  0  0  0  0  0  0  0
   57.9930   32.2120   44.6810 C   0  0  0  0  0  0  0  0  0  0  0  0
   57.9680   33.6260   44.5650 C   0  0  0  0  0  0  0  0  0  0  0  0
   57.9846   34.0826   43.5644 H   0  0  0  0  0  0  0  0  0  0  0  0
   57.9230   34.4500   45.6870 C   0  0  0  0  0  0  0  0  0  0  0  0
   57.9081   35.5433   45.5671 H   0  0  0  0  0  0  0  0  0  0  0  0
   57.8970   33.8910   46.9540 C   0  0  0  0  0  0  0  0  0  0  0  0
   57.8125   34.5369   47.8404 H   0  0  0  0  0  0  0  0  0  0  0  0
   57.9780   32.5110   47.1020 C   0  0  0  0  0  0  0  0  0  0  0  0
   57.9483   32.0783   48.1129 H   0  0  0  0  0  0  0  0  0  0  0  0
   58.0980   31.6460   45.9840 C   0  0  0  0  0  0  0  0  0  0  0  0
   57.9840   24.8310   46.0450 C   0  0  0  0  0  0  0  0  0  0  0  0
   58.8237   25.4881   45.7744 H   0  0  0  0  0  0  0  0  0  0  0  0
   58.1764   24.2751   46.9745 H   0  0  0  0  0  0  0  0  0  0  0  0
   57.8010   23.8330   44.9660 N   0  0  0  0  0  0  0  0  0  0  0  0
   57.1110   24.3920   43.7840 C   0  0  0  0  0  0  0  0  0  0  0  0
   56.4346   25.1976   44.1056 H   0  0  0  0  0  0  0  0  0  0  0  0
   57.8619   24.7883   43.0846 H   0  0  0  0  0  0  0  0  0  0  0  0
   56.3020   23.3050   43.0820 C   0  0  0  0  0  0  0  0  0  0  0  0
   55.8228   22.6611   43.8342 H   0  0  0  0  0  0  0  0  0  0  0  0
   55.5295   23.7714   42.4529 H   0  0  0  0  0  0  0  0  0  0  0  0
   56.9705   22.6989   42.4529 H   0  0  0  0  0  0  0  0  0  0  0  0
   57.1890   22.5740   45.4530 C   0  0  0  0  0  0  0  0  0  0  0  0
   56.8482   22.7109   46.4899 H   0  0  0  0  0  0  0  0  0  0  0  0
   56.3330   22.3149   44.8125 H   0  0  0  0  0  0  0  0  0  0  0  0
   58.2150   21.4470   45.4020 C   0  0  0  0  0  0  0  0  0  0  0  0
   58.4850   21.1504   46.4262 H   0  0  0  0  0  0  0  0  0  0  0  0
   57.7859   20.5842   44.8715 H   0  0  0  0  0  0  0  0  0  0  0  0
   59.1142   21.7935   44.8715 H   0  0  0  0  0  0  0  0  0  0  0  0
  1  2  1  0
  2  3  2  0
  3  4  1  0
  4  5  2  0
  5  6  1  0
  5  7  1  0
  7  8  1  0
  7  9  2  0
  9 10  1  0
 10 11  1  0
 10 12  1  0
 12 13  1  0
 12 14  1  0
 12 15  1  0
 15 16  1  0
 15 17  1  0
 15 18  1  0
 18 19  1  0
 18 20  1  0
 20 21  1  0
 20 22  1  0
 20 23  1  0
 23 24  1  0
 23 25  1  0
 23 26  1  0
 26 27  1  0
 26 28  1  0
 28 29  1  0
 28 30  1  0
 28 31  1  0
 31 32  1  0
 31 33  1  0
 31 34  1  0
  9 35  1  0
 35 36  2  0
 36 37  1  0
 37 38  1  0
 37 39  2  0
 39 40  1  0
 39 41  1  0
 41 42  2  0
 41 43  1  0
 43 44  2  0
 44 45  1  0
 44 46  1  0
 46 47  1  0
 46 48  2  0
 48 49  1  0
 48 50  1  0
 50 51  1  0
 50 52  2  0
  2 53  1  0
 53 54  1  0
 53 55  1  0
 53 56  1  0
 56 57  1  0
 57 58  1  0
 57 59  1  0
 57 60  1  0
 60 61  1  0
 60 62  1  0
 60 63  1  0
 56 64  1  0
 64 65  1  0
 64 66  1  0
 64 67  1  0
 67 68  1  0
 67 69  1  0
 67 70  1  0
 36  4  1  0
 52 43  1  0
 52 35  1  0
M  END
>  <UniqueID>  (8) 
8

>  <SMILES>  (8) 
CCNCCNCCNc1ccc(/N=C\CN(CC)CC)c2ccc(=O)c3ccccc3c12

>  <Energy>  (8) 
129.58201005838043

>  <Genealogy>  (8) 
CCNCCNCCNc1ccc(/N=C\CN(CC)CC)c2ccc(=O)c3ccccc3c12 (cis-trans isomerization)
CCNCCNCCNc1ccc(/N=C\CN(CC)CC)c2ccc(=O)c3ccccc3c12 (3D coordinates assigned)
CCNCCNCCNc1ccc(/N=C\CN(CC)CC)c2ccc(=O)c3ccccc3c12 (optimized conformer: 129.58201005838043 kcal/mol)

>  <smiles>  (8) 
CCNCCNCCNc1ccc(N=CCN(CC)CC)c2ccc(=O)c3ccccc3c12

>  <score_type>  (8) 
oracle

>  <origin>  (8) 
adg

>  <m_score__min__energy>  (8) 
-7.7800000000000002

>  <m_primary>  (8) 
energy

$$$$
8:0
     RDKit          3D

 45 48  0  0  0  0  0  0  0  0999 V2000
   60.6051   35.4839   46.2874 H   0  0  0  0  0  0  0  0  0  0  0  0
   60.4630   34.5890   46.9110 C   0  0  0  0  0  0  0  0  0  0  0  0
   59.2280   34.0690   46.9780 C   0  0  0  0  0  0  0  0  0  0  0  0
   58.4808   34.5970   47.5886 H   0  0  0  0  0  0  0  0  0  0  0  0
   58.8060   32.8360   46.2870 C   0  0  0  0  0  0  0  0  0  0  0  0
   58.0690   32.8510   45.1450 N   0  0  0  0  0  0  0  0  0  0  0  0
   57.8820   31.5450   44.8860 C   0  0  0  0  0  0  0  0  0  0  0  0
   57.2010   30.9870   43.8070 C   0  0  0  0  0  0  0  0  0  0  0  0
   56.7254   31.6217   43.0448 H   0  0  0  0  0  0  0  0  0  0  0  0
   57.1420   29.5830   43.7250 C   0  0  0  0  0  0  0  0  0  0  0  0
   56.4890   28.9950   42.6920 F   0  0  0  0  0  0  0  0  0  0  0  0
   57.7580   28.7830   44.7130 C   0  0  0  0  0  0  0  0  0  0  0  0
   57.7045   27.6868   44.6396 H   0  0  0  0  0  0  0  0  0  0  0  0
   58.4400   29.3790   45.7910 C   0  0  0  0  0  0  0  0  0  0  0  0
   58.9237   28.7672   46.5667 H   0  0  0  0  0  0  0  0  0  0  0  0
   58.4810   30.7760   45.8410 C   0  0  0  0  0  0  0  0  0  0  0  0
   59.0650   31.5810   46.7480 N   0  0  0  0  0  0  0  0  0  0  0  0
   59.9590   31.2000   47.8470 C   0  0  0  0  0  0  0  0  0  0  0  0
   60.2947   30.1628   47.7002 H   0  0  0  0  0  0  0  0  0  0  0  0
   60.8267   31.8760   47.8566 H   0  0  0  0  0  0  0  0  0  0  0  0
   59.2340   31.3080   49.1650 C   0  0  0  0  0  0  0  0  0  0  0  0
   59.1610   32.5510   49.8220 C   0  0  0  0  0  0  0  0  0  0  0  0
   59.6678   33.4268   49.3907 H   0  0  0  0  0  0  0  0  0  0  0  0
   58.4490   32.6810   51.0190 C   0  0  0  0  0  0  0  0  0  0  0  0
   58.4058   33.6537   51.5308 H   0  0  0  0  0  0  0  0  0  0  0  0
   57.7930   31.5750   51.5640 C   0  0  0  0  0  0  0  0  0  0  0  0
   57.0920   31.7040   52.7190 F   0  0  0  0  0  0  0  0  0  0  0  0
   57.8590   30.3330   50.9200 C   0  0  0  0  0  0  0  0  0  0  0  0
   57.3439   29.4632   51.3537 H   0  0  0  0  0  0  0  0  0  0  0  0
   58.5770   30.1940   49.7280 C   0  0  0  0  0  0  0  0  0  0  0  0
   58.6360   28.9750   49.1330 F   0  0  0  0  0  0  0  0  0  0  0  0
   61.6480   34.0490   47.6130 C   0  0  0  0  0  0  0  0  0  0  0  0
   61.7280   34.1510   49.0070 C   0  0  0  0  0  0  0  0  0  0  0  0
   60.9297   34.6599   49.5671 H   0  0  0  0  0  0  0  0  0  0  0  0
   62.8190   33.6080   49.6870 C   0  0  0  0  0  0  0  0  0  0  0  0
   62.8946   33.7059   50.7800 H   0  0  0  0  0  0  0  0  0  0  0  0
   63.8180   32.9370   48.9680 C   0  0  0  0  0  0  0  0  0  0  0  0
   65.0020   32.3690   49.6940 C   0  0  0  0  0  0  0  0  0  0  0  0
   64.8389   32.4472   50.7790 H   0  0  0  0  0  0  0  0  0  0  0  0
   65.1291   31.3119   49.4176 H   0  0  0  0  0  0  0  0  0  0  0  0
   65.9060   32.9315   49.4176 H   0  0  0  0  0  0  0  0  0  0  0  0
   63.7180   32.8300   47.6110 N   0  0  0  0  0  0  0  0  0  0  0  0
   64.4590   32.3280   47.0710 H   0  0  0  0  0  0  0  0  0  0  0  0
   62.6610   33.3520   46.9300 C   0  0  0  0  0  0  0  0  0  0  0  0
   62.5988   33.2279   45.8388 H   0  0  0  0  0  0  0  0  0  0  0  0
  1  2  1  0
  2  3  2  0
  3  4  1  0
  3  5  1  0
  5  6  2  0
  6  7  1  0
  7  8  2  0
  8  9  1  0
  8 10  1  0
 10 11  1  0
 10 12  2  0
 12 13  1  0
 12 14  1  0
 14 15  1  0
 14 16  2  0
 16 17  1  0
 17 18  1  0
 18 19  1  0
 18 20  1  0
 18 21  1  0
 21 22  2  0
 22 23  1  0
 22 24  1  0
 24 25  1  0
 24 26  2  0
 26 27  1  0
 26 28  1  0
 28 29  1  0
 28 30  2  0
 30 31  1  0
  2 32  1  0
 32 33  2  0
 33 34  1  0
 33 35  1  0
 35 36  1  0
 35 37  2  0
 37 38  1  0
 38 39  1  0
 38 40  1  0
 38 41  1  0
 37 42  1  0
 42 43  1  0
 42 44  2  0
 44 45  1  0
 17  5  1  0
 30 21  1  0
 44 32  1  0
 16  7  1  0
M  CHG  1  42   1
M  END
>  <UniqueID>  (9) 
9

>  <SMILES>  (9) 
Cc1ccc(/C=C\c2nc3cc(F)ccc3n2Cc2ccc(F)cc2F)c[nH+]1

>  <Energy>  (9) 
92.67796831701804

>  <Genealogy>  (9) 
Cc1ccc(C=Cc2nc3cc(F)ccc3n2Cc2ccc(F)cc2F)c[nH+]1 (protonated)
Cc1ccc(/C=C\c2nc3cc(F)ccc3n2Cc2ccc(F)cc2F)c[nH+]1 (cis-trans isomerization)
Cc1ccc(/C=C\c2nc3cc(F)ccc3n2Cc2ccc(F)cc2F)c[nH+]1 (3D coordinates assigned)
Cc1ccc(/C=C\c2nc3cc(F)ccc3n2Cc2ccc(F)cc2F)c[nH+]1 (optimized conformer: 92.67796831701804 kcal/mol)

>  <smiles>  (9) 
Cc1ccc(C=Cc2nc3cc(F)ccc3n2Cc2ccc(F)cc2F)cn1

>  <score_type>  (9) 
oracle

>  <origin>  (9) 
adg

>  <m_score__min__energy>  (9) 
-6.8300000000000001

>  <m_primary>  (9) 
energy

$$$$
9:0
     RDKit          3D

 25 27  0  0  0  0  0  0  0  0999 V2000
   60.4110   27.0380   48.6050 C   0  0  0  0  0  0  0  0  0  0  0  0
   59.5300   26.7700   47.5190 O   0  0  0  0  0  0  0  0  0  0  0  0
   58.8140   27.7540   46.8180 C   0  0  0  0  0  0  0  0  0  0  0  0
   59.1280   29.1310   46.9340 C   0  0  0  0  0  0  0  0  0  0  0  0
   58.3650   30.0360   46.2020 C   0  0  0  0  0  0  0  0  0  0  0  0
   57.3330   29.6350   45.3830 C   0  0  0  0  0  0  0  0  0  0  0  0
   57.0000   28.2920   45.2470 C   0  0  0  0  0  0  0  0  0  0  0  0
   57.7500   27.3460   45.9720 C   0  0  0  0  0  0  0  0  0  0  0  0
   57.3090   25.4910   45.8000 Br  0  0  0  0  0  0  0  0  0  0  0  0
   56.7610   30.6670   44.7970 O   0  0  0  0  0  0  0  0  0  0  0  0
   57.4010   31.7400   45.2180 C   0  0  0  0  0  0  0  0  0  0  0  0
   57.1530   33.0660   44.8720 C   0  0  0  0  0  0  0  0  0  0  0  0
   57.9680   34.0610   45.4460 C   0  0  0  0  0  0  0  0  0  0  0  0
   59.0020   33.7130   46.3460 C   0  0  0  0  0  0  0  0  0  0  0  0
   60.0040   34.9670   47.0510 Cl  0  0  0  0  0  0  0  0  0  0  0  0
   59.2330   32.3640   46.6810 C   0  0  0  0  0  0  0  0  0  0  0  0
   58.4100   31.4050   46.0950 C   0  0  0  0  0  0  0  0  0  0  0  0
   59.8811   26.8768   49.5554 H   0  0  0  0  0  0  0  0  0  0  0  0
   61.2776   26.3629   48.5493 H   0  0  0  0  0  0  0  0  0  0  0  0
   60.7549   28.0814   48.5493 H   0  0  0  0  0  0  0  0  0  0  0  0
   59.9484   29.4736   47.5818 H   0  0  0  0  0  0  0  0  0  0  0  0
   56.1743   27.9774   44.5918 H   0  0  0  0  0  0  0  0  0  0  0  0
   56.3458   33.3281   44.1722 H   0  0  0  0  0  0  0  0  0  0  0  0
   57.7988   35.1179   45.1921 H   0  0  0  0  0  0  0  0  0  0  0  0
   60.0336   32.0787   47.3794 H   0  0  0  0  0  0  0  0  0  0  0  0
  1  2  1  0
  2  3  1  0
  3  4  2  0
  4  5  1  0
  5  6  2  0
  6  7  1  0
  7  8  2  0
  8  9  1  0
  6 10  1  0
 10 11  1  0
 11 12  2  0
 12 13  1  0
 13 14  2  0
 14 15  1  0
 14 16  1  0
 16 17  2  0
  8  3  1  0
 17 11  1  0
 17  5  1  0
  1 18  1  0
  1 19  1  0
  1 20  1  0
  4 21  1  0
  7 22  1  0
 12 23  1  0
 13 24  1  0
 16 25  1  0
M  END
>  <UniqueID>  (10) 
10

>  <SMILES>  (10) 
COc1cc2c(cc1Br)oc1ccc(Cl)cc12

>  <Energy>  (10) 
68.79257831000109

>  <Genealogy>  (10) 
COc1cc2c(cc1Br)oc1ccc(Cl)cc12 (3D coordinates assigned)
COc1cc2c(cc1Br)oc1ccc(Cl)cc12 (optimized conformer: 68.79257831000109 kcal/mol)

>  <smiles>  (10) 
COc1cc2c(cc1Br)oc1ccc(Cl)cc12

>  <score_type>  (10) 
oracle

>  <origin>  (10) 
adg

>  <m_score__min__energy>  (10) 
-6.5499999999999998

>  <m_primary>  (10) 
energy

$$$$
10:0
     RDKit          3D

 38 40  0  0  0  0  0  0  0  0999 V2000
   54.9170   23.9400   45.9420 C   0  0  0  0  0  0  0  0  0  0  0  0
   55.5330   24.9610   46.7200 O   0  0  0  0  0  0  0  0  0  0  0  0
   56.6520   25.7020   46.3110 C   0  0  0  0  0  0  0  0  0  0  0  0
   57.9560   25.1780   46.3450 C   0  0  0  0  0  0  0  0  0  0  0  0
   59.0360   25.9570   45.9260 C   0  0  0  0  0  0  0  0  0  0  0  0
   58.8310   27.2610   45.4730 C   0  0  0  0  0  0  0  0  0  0  0  0
   57.5330   27.8070   45.4330 C   0  0  0  0  0  0  0  0  0  0  0  0
   57.2990   29.1520   44.9670 N   0  0  0  0  0  0  0  0  0  0  0  0
   58.2010   30.0330   44.4890 C   0  0  0  0  0  0  0  0  0  0  0  0
   57.4970   31.1760   44.1820 C   0  0  0  0  0  0  0  0  0  0  0  0
   58.0650   32.4720   43.6910 C   0  0  0  0  0  0  0  0  0  0  0  0
   57.4750   33.6010   44.4230 N   0  0  0  0  0  0  0  0  0  0  0  0
   58.2220   33.8490   45.6310 C   0  0  0  0  0  0  0  0  0  0  0  0
   59.2750   34.7830   45.6400 C   0  0  0  0  0  0  0  0  0  0  0  0
   60.0160   35.0010   46.8040 C   0  0  0  0  0  0  0  0  0  0  0  0
   59.7220   34.2840   47.9660 C   0  0  0  0  0  0  0  0  0  0  0  0
   58.6870   33.3450   47.9650 C   0  0  0  0  0  0  0  0  0  0  0  0
   57.9420   33.1230   46.8040 C   0  0  0  0  0  0  0  0  0  0  0  0
   56.2020   30.9770   44.4950 N   0  0  0  0  0  0  0  0  0  0  0  0
   56.1120   29.7420   44.9620 N   0  0  0  0  0  0  0  0  0  0  0  0
   56.4510   27.0100   45.8550 C   0  0  0  0  0  0  0  0  0  0  0  0
   54.4656   23.1918   46.6102 H   0  0  0  0  0  0  0  0  0  0  0  0
   54.1357   24.3836   45.3074 H   0  0  0  0  0  0  0  0  0  0  0  0
   55.6738   23.4557   45.3074 H   0  0  0  0  0  0  0  0  0  0  0  0
   58.1258   24.1517   46.7026 H   0  0  0  0  0  0  0  0  0  0  0  0
   60.0539   25.5408   45.9530 H   0  0  0  0  0  0  0  0  0  0  0  0
   59.6887   27.8666   45.1450 H   0  0  0  0  0  0  0  0  0  0  0  0
   59.2823   29.8711   44.3685 H   0  0  0  0  0  0  0  0  0  0  0  0
   59.1544   32.4710   43.8435 H   0  0  0  0  0  0  0  0  0  0  0  0
   57.8327   32.5804   42.6213 H   0  0  0  0  0  0  0  0  0  0  0  0
   57.4860   34.4580   43.8190 H   0  0  0  0  0  0  0  0  0  0  0  0
   56.4790   33.3870   44.6620 H   0  0  0  0  0  0  0  0  0  0  0  0
   59.5158   35.3445   44.7252 H   0  0  0  0  0  0  0  0  0  0  0  0
   60.8322   35.7384   46.8054 H   0  0  0  0  0  0  0  0  0  0  0  0
   60.3053   34.4585   48.8822 H   0  0  0  0  0  0  0  0  0  0  0  0
   58.4583   32.7794   48.8803 H   0  0  0  0  0  0  0  0  0  0  0  0
   57.1331   32.3776   46.8066 H   0  0  0  0  0  0  0  0  0  0  0  0
   55.4316   27.4222   45.8257 H   0  0  0  0  0  0  0  0  0  0  0  0
  1  2  1  0
  2  3  1  0
  3  4  2  0
  4  5  1  0
  5  6  2  0
  6  7  1  0
  7  8  1  0
  8  9  1  0
  9 10  2  0
 10 11  1  0
 11 12  1  0
 12 13  1  0
 13 14  2  0
 14 15  1  0
 15 16  2  0
 16 17  1  0
 17 18  2  0
 10 19  1  0
 19 20  2  0
  7 21  2  0
 21  3  1  0
 20  8  1  0
 18 13  1  0
  1 22  1  0
  1 23  1  0
  1 24  1  0
  4 25  1  0
  5 26  1  0
  6 27  1  0
  9 28  1  0
 11 29  1  0
 11 30  1  0
 12 31  1  0
 12 32  1  0
 14 33  1  0
 15 34  1  0
 16 35  1  0
 17 36  1  0
 18 37  1  0
 21 38  1  0
M  CHG  1  12   1
M  END
>  <UniqueID>  (11) 
11

>  <SMILES>  (11) 
COc1cccc(-n2cc(C[NH2+]c3ccccc3)nn2)c1

>  <Energy>  (11) 
76.59188648761763

>  <Genealogy>  (11) 
COc1cccc(-n2cc(C[NH2+]c3ccccc3)nn2)c1 (protonated)
COc1cccc(-n2cc(C[NH2+]c3ccccc3)nn2)c1 (3D coordinates assigned)
COc1cccc(-n2cc(C[NH2+]c3ccccc3)nn2)c1 (optimized conformer: 76.59188648761763 kcal/mol)

>  <smiles>  (11) 
COc1cccc(-n2cc(CNc3ccccc3)nn2)c1

>  <score_type>  (11) 
oracle

>  <origin>  (11) 
adg

>  <m_score__min__energy>  (11) 
-6.4000000000000004

>  <m_primary>  (11) 
energy

$$$$
11:0
     RDKit          3D

 52 55  0  0  0  0  0  0  0  0999 V2000
   57.0080   31.2490   52.0100 C   0  0  0  0  0  0  0  0  0  0  0  0
   57.6510   30.0870   51.4970 O   0  0  0  0  0  0  0  0  0  0  0  0
   58.4980   30.0800   50.3790 C   0  0  0  0  0  0  0  0  0  0  0  0
   58.5050   31.2000   49.5410 C   0  0  0  0  0  0  0  0  0  0  0  0
   59.3220   31.2360   48.4080 C   0  0  0  0  0  0  0  0  0  0  0  0
   60.1500   30.1460   48.0920 C   0  0  0  0  0  0  0  0  0  0  0  0
   60.9620   30.1490   46.8530 C   0  0  0  0  0  0  0  0  0  0  0  0
   62.0160   30.8400   46.7900 O   0  0  0  0  0  0  0  0  0  0  0  0
   60.5870   29.3350   45.7340 N   0  0  0  0  0  0  0  0  0  0  0  0
   59.4240   28.4930   45.7470 C   0  0  0  0  0  0  0  0  0  0  0  0
   59.5470   27.1790   46.2150 C   0  0  0  0  0  0  0  0  0  0  0  0
   58.4190   26.3630   46.3270 C   0  0  0  0  0  0  0  0  0  0  0  0
   57.1620   26.8510   45.9660 C   0  0  0  0  0  0  0  0  0  0  0  0
   57.0310   28.1500   45.4650 C   0  0  0  0  0  0  0  0  0  0  0  0
   58.1610   28.9720   45.3240 C   0  0  0  0  0  0  0  0  0  0  0  0
   58.0240   30.2940   44.6840 C   0  0  0  0  0  0  0  0  0  0  0  0
   58.2360   31.4660   45.3240 N   0  0  0  0  0  0  0  0  0  0  0  0
   58.0570   32.3800   44.3490 C   0  0  0  0  0  0  0  0  0  0  0  0
   58.2850   33.8500   44.5300 C   0  0  0  0  0  0  0  0  0  0  0  0
   59.5300   34.0840   45.2610 N   0  0  0  0  0  0  0  0  0  0  0  0
   59.5900   34.0740   46.6960 C   0  0  0  0  0  0  0  0  0  0  0  0
   58.5240   34.0790   47.3700 O   0  0  0  0  0  0  0  0  0  0  0  0
   60.8870   34.0470   47.3940 C   0  0  0  0  0  0  0  0  0  0  0  0
   61.0720   34.1690   48.7670 C   0  0  0  0  0  0  0  0  0  0  0  0
   62.4150   34.0860   49.1550 C   0  0  0  0  0  0  0  0  0  0  0  0
   63.2920   33.8950   48.0950 C   0  0  0  0  0  0  0  0  0  0  0  0
   62.3930   33.8280   46.6760 S   0  0  0  0  0  0  0  0  0  0  0  0
   57.7340   31.7350   43.1740 C   0  0  0  0  0  0  0  0  0  0  0  0
   57.5040   32.3430   41.8290 C   0  0  0  0  0  0  0  0  0  0  0  0
   57.7210   30.4510   43.4140 O   0  0  0  0  0  0  0  0  0  0  0  0
   60.1480   29.0240   48.9390 C   0  0  0  0  0  0  0  0  0  0  0  0
   59.3340   28.9910   50.0730 C   0  0  0  0  0  0  0  0  0  0  0  0
   57.0233   31.2213   53.1095 H   0  0  0  0  0  0  0  0  0  0  0  0
   57.5378   32.1466   51.6584 H   0  0  0  0  0  0  0  0  0  0  0  0
   55.9661   31.2769   51.6584 H   0  0  0  0  0  0  0  0  0  0  0  0
   57.8613   32.0605   49.7761 H   0  0  0  0  0  0  0  0  0  0  0  0
   59.3168   32.1241   47.7589 H   0  0  0  0  0  0  0  0  0  0  0  0
   60.5361   26.7878   46.4956 H   0  0  0  0  0  0  0  0  0  0  0  0
   58.5214   25.3334   46.7005 H   0  0  0  0  0  0  0  0  0  0  0  0
   56.2729   26.2126   46.0758 H   0  0  0  0  0  0  0  0  0  0  0  0
   56.0387   28.5296   45.1801 H   0  0  0  0  0  0  0  0  0  0  0  0
   58.3475   34.3318   43.5431 H   0  0  0  0  0  0  0  0  0  0  0  0
   57.4478   34.2741   45.1038 H   0  0  0  0  0  0  0  0  0  0  0  0
   60.4060   34.2110   44.7070 H   0  0  0  0  0  0  0  0  0  0  0  0
   60.2454   34.3161   49.4777 H   0  0  0  0  0  0  0  0  0  0  0  0
   62.7446   34.1647   50.2015 H   0  0  0  0  0  0  0  0  0  0  0  0
   64.3856   33.8034   48.1709 H   0  0  0  0  0  0  0  0  0  0  0  0
   57.1172   33.3656   41.9502 H   0  0  0  0  0  0  0  0  0  0  0  0
   58.4528   32.3733   41.2732 H   0  0  0  0  0  0  0  0  0  0  0  0
   56.7727   31.7378   41.2732 H   0  0  0  0  0  0  0  0  0  0  0  0
   60.7935   28.1643   48.7063 H   0  0  0  0  0  0  0  0  0  0  0  0
   59.3466   28.1090   50.7303 H   0  0  0  0  0  0  0  0  0  0  0  0
  1  2  1  0
  2  3  1  0
  3  4  2  0
  4  5  1  0
  5  6  2  0
  6  7  1  0
  7  8  2  0
  7  9  1  0
  9 10  1  0
 10 11  2  0
 11 12  1  0
 12 13  2  0
 13 14  1  0
 14 15  2  0
 15 16  1  0
 16 17  2  0
 17 18  1  0
 18 19  1  0
 19 20  1  0
 20 21  1  0
 21 22  2  0
 21 23  1  0
 23 24  2  0
 24 25  1  0
 25 26  2  0
 26 27  1  0
 18 28  2  0
 28 29  1  0
 28 30  1  0
  6 31  1  0
 31 32  2  0
 32  3  1  0
 15 10  1  0
 30 16  1  0
 27 23  1  0
  1 33  1  0
  1 34  1  0
  1 35  1  0
  4 36  1  0
  5 37  1  0
 11 38  1  0
 12 39  1  0
 13 40  1  0
 14 41  1  0
 19 42  1  0
 19 43  1  0
 20 44  1  0
 24 45  1  0
 25 46  1  0
 26 47  1  0
 29 48  1  0
 29 49  1  0
 29 50  1  0
 31 51  1  0
 32 52  1  0
M  CHG  1   9  -1
M  END
>  <UniqueID>  (12) 
12

>  <SMILES>  (12) 
COc1ccc(C(=O)[N-]c2ccccc2-c2nc(CNC(=O)c3cccs3)c(C)o2)cc1

>  <Energy>  (12) 
111.41304715565644

>  <Genealogy>  (12) 
COc1ccc(C(=O)[N-]c2ccccc2-c2nc(CNC(=O)c3cccs3)c(C)o2)cc1 (protonated)
COc1ccc(C(=O)[N-]c2ccccc2-c2nc(CNC(=O)c3cccs3)c(C)o2)cc1 (3D coordinates assigned)
COc1ccc(C(=O)[N-]c2ccccc2-c2nc(CNC(=O)c3cccs3)c(C)o2)cc1 (optimized conformer: 111.41304715565644 kcal/mol)

>  <smiles>  (12) 
COc1ccc(C(=O)Nc2ccccc2-c2nc(CNC(=O)c3cccs3)c(C)o2)cc1

>  <score_type>  (12) 
oracle

>  <origin>  (12) 
adg

>  <m_score__min__energy>  (12) 
-10.06

>  <m_primary>  (12) 
energy

$$$$
12:0
     RDKit          3D

 60 62  0  0  0  0  0  0  0  0999 V2000
   59.0412   34.2963   46.2848 H   0  0  0  0  0  0  0  0  0  0  0  0
   59.3060   33.2320   46.3700 C   0  0  0  0  0  0  0  0  0  0  0  0
   60.5840   32.9830   46.8780 C   0  0  0  0  0  0  0  0  0  0  0  0
   61.1656   33.8846   47.1205 H   0  0  0  0  0  0  0  0  0  0  0  0
   61.2510   31.7660   47.1310 C   0  0  0  0  0  0  0  0  0  0  0  0
   62.4710   31.7770   47.5980 N   0  0  0  0  0  0  0  0  0  0  0  0
   63.6430   32.4820   47.0770 C   0  0  0  0  0  0  0  0  0  0  0  0
   63.5151   32.6500   45.9975 H   0  0  0  0  0  0  0  0  0  0  0  0
   64.5389   31.8704   47.2598 H   0  0  0  0  0  0  0  0  0  0  0  0
   63.8090   33.8330   47.7830 C   0  0  0  0  0  0  0  0  0  0  0  0
   63.4982   34.6305   47.0921 H   0  0  0  0  0  0  0  0  0  0  0  0
   64.8669   33.9282   48.0689 H   0  0  0  0  0  0  0  0  0  0  0  0
   62.9690   33.9440   49.0730 C   0  0  0  0  0  0  0  0  0  0  0  0
   62.0379   33.3743   48.9369 H   0  0  0  0  0  0  0  0  0  0  0  0
   62.7703   35.0114   49.2496 H   0  0  0  0  0  0  0  0  0  0  0  0
   63.7090   33.3940   50.3160 C   0  0  0  0  0  0  0  0  0  0  0  0
   63.1033   33.6063   51.2093 H   0  0  0  0  0  0  0  0  0  0  0  0
   64.6907   33.8877   50.3651 H   0  0  0  0  0  0  0  0  0  0  0  0
   63.9450   31.9290   50.2380 N   0  0  2  0  0  0  0  0  0  0  0  0
   63.7080   31.6020   49.2710 H   0  0  0  0  0  0  0  0  0  0  0  0
   63.0350   31.2370   51.1740 C   0  0  0  0  0  0  0  0  0  0  0  0
   63.3321   31.4630   52.2087 H   0  0  0  0  0  0  0  0  0  0  0  0
   62.0040   31.5813   51.0051 H   0  0  0  0  0  0  0  0  0  0  0  0
   63.0913   30.1515   51.0051 H   0  0  0  0  0  0  0  0  0  0  0  0
   65.3610   31.6020   50.5430 C   0  0  0  0  0  0  0  0  0  0  0  0
   65.6332   30.6814   50.0060 H   0  0  0  0  0  0  0  0  0  0  0  0
   65.4462   31.4773   51.6326 H   0  0  0  0  0  0  0  0  0  0  0  0
   66.3280   32.7170   50.1270 C   0  0  0  0  0  0  0  0  0  0  0  0
   66.7436   33.1962   51.0257 H   0  0  0  0  0  0  0  0  0  0  0  0
   67.1456   32.2889   49.5284 H   0  0  0  0  0  0  0  0  0  0  0  0
   65.7885   33.4658   49.5284 H   0  0  0  0  0  0  0  0  0  0  0  0
   60.7190   30.4930   46.9210 C   0  0  0  0  0  0  0  0  0  0  0  0
   61.3717   29.6507   47.1939 H   0  0  0  0  0  0  0  0  0  0  0  0
   59.4720   30.1510   46.4120 C   0  0  0  0  0  0  0  0  0  0  0  0
   58.4140   30.9530   45.9820 C   0  0  0  0  0  0  0  0  0  0  0  0
   57.4170   30.1900   45.5630 O   0  0  0  0  0  0  0  0  0  0  0  0
   57.7700   28.9380   45.6970 C   0  0  0  0  0  0  0  0  0  0  0  0
   57.0180   27.8110   45.3750 C   0  0  0  0  0  0  0  0  0  0  0  0
   56.0073   27.9117   44.9528 H   0  0  0  0  0  0  0  0  0  0  0  0
   57.5830   26.5320   45.6030 C   0  0  0  0  0  0  0  0  0  0  0  0
   56.8390   25.3290   45.2850 N   0  0  0  0  0  0  0  0  0  0  0  0
   56.9990   24.6780   43.9790 C   0  0  0  0  0  0  0  0  0  0  0  0
   57.2592   23.6194   44.1264 H   0  0  0  0  0  0  0  0  0  0  0  0
   56.0567   24.7490   43.4160 H   0  0  0  0  0  0  0  0  0  0  0  0
   57.8010   25.1777   43.4160 H   0  0  0  0  0  0  0  0  0  0  0  0
   55.9190   24.7420   46.2660 C   0  0  0  0  0  0  0  0  0  0  0  0
   56.2736   24.9682   47.2824 H   0  0  0  0  0  0  0  0  0  0  0  0
   54.9138   25.1660   46.1255 H   0  0  0  0  0  0  0  0  0  0  0  0
   55.8800   23.6517   46.1255 H   0  0  0  0  0  0  0  0  0  0  0  0
   58.8960   26.4510   46.1490 C   0  0  0  0  0  0  0  0  0  0  0  0
   59.3463   25.4640   46.3311 H   0  0  0  0  0  0  0  0  0  0  0  0
   59.6260   27.6120   46.4590 C   0  0  0  0  0  0  0  0  0  0  0  0
   60.6405   27.5470   46.8792 H   0  0  0  0  0  0  0  0  0  0  0  0
   59.0260   28.8510   46.2180 C   0  0  0  0  0  0  0  0  0  0  0  0
   58.3060   32.3390   45.9510 C   0  0  0  0  0  0  0  0  0  0  0  0
   57.0820   32.8280   45.4540 O   0  0  0  0  0  0  0  0  0  0  0  0
   56.7480   34.2000   45.2590 C   0  0  0  0  0  0  0  0  0  0  0  0
   56.6285   34.6908   46.2362 H   0  0  0  0  0  0  0  0  0  0  0  0
   57.5515   34.6964   44.6952 H   0  0  0  0  0  0  0  0  0  0  0  0
   55.8062   34.2716   44.6952 H   0  0  0  0  0  0  0  0  0  0  0  0
  1  2  1  0
  2  3  2  0
  3  4  1  0
  3  5  1  0
  5  6  2  0
  6  7  1  0
  7  8  1  0
  7  9  1  0
  7 10  1  0
 10 11  1  0
 10 12  1  0
 10 13  1  0
 13 14  1  0
 13 15  1  0
 13 16  1  0
 16 17  1  0
 16 18  1  0
 16 19  1  0
 19 20  1  6
 19 21  1  0
 21 22  1  0
 21 23  1  0
 21 24  1  0
 19 25  1  0
 25 26  1  0
 25 27  1  0
 25 28  1  0
 28 29  1  0
 28 30  1  0
 28 31  1  0
  5 32  1  0
 32 33  1  0
 32 34  2  0
 34 35  1  0
 35 36  1  0
 36 37  1  0
 37 38  2  0
 38 39  1  0
 38 40  1  0
 40 41  1  0
 41 42  1  0
 42 43  1  0
 42 44  1  0
 42 45  1  0
 41 46  1  0
 46 47  1  0
 46 48  1  0
 46 49  1  0
 40 50  2  0
 50 51  1  0
 50 52  1  0
 52 53  1  0
 52 54  2  0
 35 55  2  0
 55 56  1  0
 56 57  1  0
 57 58  1  0
 57 59  1  0
 57 60  1  0
 55  2  1  0
 54 34  1  0
 54 37  1  0
M  CHG  1  19   1
M  END
>  <UniqueID>  (13) 
13

>  <SMILES>  (13) 
CC[N@@H+](C)CCCC/N=c1\ccc(OC)c2oc3cc(N(C)C)ccc3c2c1

>  <Energy>  (13) 
114.9948833665553

>  <Genealogy>  (13) 
CC[NH+](C)CCCCN=c1ccc(OC)c2oc3cc(N(C)C)ccc3c2c1 (protonated)
CC[N@@H+](C)CCCCN=c1ccc(OC)c2oc3cc(N(C)C)ccc3c2c1 (chirality)
CC[N@@H+](C)CCCC/N=c1\ccc(OC)c2oc3cc(N(C)C)ccc3c2c1 (cis-trans isomerization)
CC[N@@H+](C)CCCC/N=c1\ccc(OC)c2oc3cc(N(C)C)ccc3c2c1 (3D coordinates assigned)
CC[N@@H+](C)CCCC/N=c1\ccc(OC)c2oc3cc(N(C)C)ccc3c2c1 (optimized conformer: 114.9948833665553 kcal/mol)

>  <smiles>  (13) 
CCN(C)CCCCN=c1ccc(OC)c2oc3cc(N(C)C)ccc3c2c1

>  <score_type>  (13) 
oracle

>  <origin>  (13) 
adg

>  <m_score__min__energy>  (13) 
-5.9400000000000004

>  <m_primary>  (13) 
energy

$$$$
13:0
     RDKit          3D

 50 52  0  0  0  0  0  0  0  0999 V2000
   58.9120   32.7870   48.2280 C   0  0  0  0  0  0  0  0  0  0  0  0
   58.3120   33.8920   47.4590 N   0  0  0  0  0  0  0  0  0  0  0  0
   57.0100   33.5170   46.8580 C   0  0  0  0  0  0  0  0  0  0  0  0
   57.1230   33.0600   45.3900 C   0  0  0  0  0  0  0  0  0  0  0  0
   58.4460   32.4570   45.1570 N   0  0  0  0  0  0  0  0  0  0  0  0
   58.5220   31.7860   43.8420 C   0  0  0  0  0  0  0  0  0  0  0  0
   57.1260   31.4010   43.3200 C   0  0  0  0  0  0  0  0  0  0  0  0
   56.4970   30.1780   44.0250 C   0  0  0  0  0  0  0  0  0  0  0  0
   57.0320   29.9150   45.3700 N   0  0  0  0  0  0  0  0  0  0  0  0
   57.8410   28.6930   45.4260 C   0  0  0  0  0  0  0  0  0  0  0  0
   59.0540   28.9400   46.2640 C   0  0  0  0  0  0  0  0  0  0  0  0
   59.7660   27.9990   46.9750 C   0  0  0  0  0  0  0  0  0  0  0  0
   60.7050   28.6310   47.6400 O   0  0  0  0  0  0  0  0  0  0  0  0
   60.5880   29.9160   47.3750 C   0  0  0  0  0  0  0  0  0  0  0  0
   61.4750   30.9510   47.9560 C   0  0  0  0  0  0  0  0  0  0  0  0
   61.9710   31.9800   47.1350 C   0  0  0  0  0  0  0  0  0  0  0  0
   62.8090   32.9680   47.6610 C   0  0  0  0  0  0  0  0  0  0  0  0
   63.1610   32.9410   49.0120 C   0  0  0  0  0  0  0  0  0  0  0  0
   63.9740   33.8990   49.5210 F   0  0  0  0  0  0  0  0  0  0  0  0
   62.6750   31.9260   49.8390 C   0  0  0  0  0  0  0  0  0  0  0  0
   61.8370   30.9350   49.3170 C   0  0  0  0  0  0  0  0  0  0  0  0
   59.5660   30.1560   46.5250 N   0  0  0  0  0  0  0  0  0  0  0  0
   59.5060   33.4790   45.2850 C   0  0  0  0  0  0  0  0  0  0  0  0
   59.2500   34.4470   46.4630 C   0  0  0  0  0  0  0  0  0  0  0  0
   58.8031   32.9876   49.3040 H   0  0  0  0  0  0  0  0  0  0  0  0
   58.4011   31.8458   47.9769 H   0  0  0  0  0  0  0  0  0  0  0  0
   59.9797   32.7029   47.9769 H   0  0  0  0  0  0  0  0  0  0  0  0
   56.5779   32.6946   47.4470 H   0  0  0  0  0  0  0  0  0  0  0  0
   56.3753   34.4154   46.8708 H   0  0  0  0  0  0  0  0  0  0  0  0
   56.3402   32.3170   45.1773 H   0  0  0  0  0  0  0  0  0  0  0  0
   56.9978   33.9294   44.7278 H   0  0  0  0  0  0  0  0  0  0  0  0
   58.9973   32.4671   43.1208 H   0  0  0  0  0  0  0  0  0  0  0  0
   59.1111   30.8646   43.9598 H   0  0  0  0  0  0  0  0  0  0  0  0
   56.4561   32.2620   43.4613 H   0  0  0  0  0  0  0  0  0  0  0  0
   57.2509   31.1246   42.2626 H   0  0  0  0  0  0  0  0  0  0  0  0
   55.4140   30.3496   44.1122 H   0  0  0  0  0  0  0  0  0  0  0  0
   56.7416   29.2990   43.4105 H   0  0  0  0  0  0  0  0  0  0  0  0
   57.6020   30.7300   45.6960 H   0  0  0  0  0  0  0  0  0  0  0  0
   57.2477   27.8798   45.8695 H   0  0  0  0  0  0  0  0  0  0  0  0
   58.1482   28.4082   44.4089 H   0  0  0  0  0  0  0  0  0  0  0  0
   59.5812   26.9147   46.9839 H   0  0  0  0  0  0  0  0  0  0  0  0
   61.6972   32.0076   46.0700 H   0  0  0  0  0  0  0  0  0  0  0  0
   63.1915   33.7676   47.0096 H   0  0  0  0  0  0  0  0  0  0  0  0
   62.9518   31.9058   50.9034 H   0  0  0  0  0  0  0  0  0  0  0  0
   61.4583   30.1380   49.9738 H   0  0  0  0  0  0  0  0  0  0  0  0
   59.2200   31.0680   46.1540 H   0  0  0  0  0  0  0  0  0  0  0  0
   60.4685   32.9717   45.4470 H   0  0  0  0  0  0  0  0  0  0  0  0
   59.5148   34.0720   44.3586 H   0  0  0  0  0  0  0  0  0  0  0  0
   60.2081   34.6581   46.9604 H   0  0  0  0  0  0  0  0  0  0  0  0
   58.7972   35.3611   46.0514 H   0  0  0  0  0  0  0  0  0  0  0  0
  1  2  1  0
  2  3  1  0
  3  4  1  0
  4  5  1  0
  5  6  1  0
  6  7  1  0
  7  8  1  0
  8  9  1  0
  9 10  1  0
 10 11  1  0
 11 12  2  0
 12 13  1  0
 13 14  1  0
 14 15  1  0
 15 16  2  0
 16 17  1  0
 17 18  2  0
 18 19  1  0
 18 20  1  0
 20 21  2  0
 14 22  2  0
  5 23  1  0
 23 24  1  0
 24  2  1  0
 22 11  1  0
 21 15  1  0
  1 25  1  0
  1 26  1  0
  1 27  1  0
  3 28  1  0
  3 29  1  0
  4 30  1  0
  4 31  1  0
  6 32  1  0
  6 33  1  0
  7 34  1  0
  7 35  1  0
  8 36  1  0
  8 37  1  0
  9 38  1  0
 10 39  1  0
 10 40  1  0
 12 41  1  0
 16 42  1  0
 17 43  1  0
 20 44  1  0
 21 45  1  0
 22 46  1  0
 23 47  1  0
 23 48  1  0
 24 49  1  0
 24 50  1  0
M  CHG  1  22   1
M  END
>  <UniqueID>  (14) 
14

>  <SMILES>  (14) 
CN1CCN(CCCNCc2coc(-c3ccc(F)cc3)[nH+]2)CC1

>  <Energy>  (14) 
90.11711782287672

>  <Genealogy>  (14) 
CN1CCN(CCCNCc2coc(-c3ccc(F)cc3)[nH+]2)CC1 (protonated)
CN1CCN(CCCNCc2coc(-c3ccc(F)cc3)[nH+]2)CC1 (3D coordinates assigned)
CN1CCN(CCCNCc2coc(-c3ccc(F)cc3)[nH+]2)CC1 (nonaromatic ring conformer: 90.11711782287672 kcal/mol)

>  <smiles>  (14) 
CN1CCN(CCCNCc2coc(-c3ccc(F)cc3)n2)CC1

>  <score_type>  (14) 
oracle

>  <origin>  (14) 
adg

>  <m_score__min__energy>  (14) 
-6.5700000000000003

>  <m_primary>  (14) 
energy

$$$$
14:0
     RDKit          3D

 29 30  0  0  0  0  0  0  0  0999 V2000
   55.5910   29.7530   46.0150 H   0  0  0  0  0  0  0  0  0  0  0  0
   55.8300   29.9470   45.0490 O   0  0  0  0  0  0  0  0  0  0  0  0
   56.6330   31.0140   44.7040 N   0  0  0  0  0  0  0  0  0  0  0  0
   57.8090   31.1790   45.2210 C   0  0  0  0  0  0  0  0  0  0  0  0
   58.3891   30.3049   45.5518 H   0  0  0  0  0  0  0  0  0  0  0  0
   58.3730   32.5310   45.3680 C   0  0  0  0  0  0  0  0  0  0  0  0
   57.9280   33.8430   44.4130 S   0  0  0  0  0  0  0  0  0  0  0  0
   58.8890   34.9400   45.2430 C   0  0  0  0  0  0  0  0  0  0  0  0
   58.9861   36.0134   45.0228 H   0  0  0  0  0  0  0  0  0  0  0  0
   59.5400   34.2500   46.2580 C   0  0  0  0  0  0  0  0  0  0  0  0
   60.2227   34.7458   46.9637 H   0  0  0  0  0  0  0  0  0  0  0  0
   59.2720   32.9130   46.3170 N   0  0  0  0  0  0  0  0  0  0  0  0
   59.8730   32.0320   47.3290 C   0  0  0  0  0  0  0  0  0  0  0  0
   60.0107   31.0319   46.8922 H   0  0  0  0  0  0  0  0  0  0  0  0
   59.1957   31.9987   48.1951 H   0  0  0  0  0  0  0  0  0  0  0  0
   61.2200   32.5480   47.8070 C   0  0  0  0  0  0  0  0  0  0  0  0
   62.3810   32.1250   47.1320 C   0  0  0  0  0  0  0  0  0  0  0  0
   62.2935   31.4278   46.2857 H   0  0  0  0  0  0  0  0  0  0  0  0
   63.6410   32.5790   47.5230 C   0  0  0  0  0  0  0  0  0  0  0  0
   64.5375   32.2459   46.9795 H   0  0  0  0  0  0  0  0  0  0  0  0
   63.7660   33.4530   48.6000 C   0  0  0  0  0  0  0  0  0  0  0  0
   64.7593   33.8200   48.8977 H   0  0  0  0  0  0  0  0  0  0  0  0
   62.6330   33.8630   49.3010 C   0  0  0  0  0  0  0  0  0  0  0  0
   62.7393   34.5538   50.1504 H   0  0  0  0  0  0  0  0  0  0  0  0
   61.3550   33.4030   48.9340 C   0  0  0  0  0  0  0  0  0  0  0  0
   60.1690   33.8680   49.7370 C   0  0  0  0  0  0  0  0  0  0  0  0
   60.3951   33.7794   50.8099 H   0  0  0  0  0  0  0  0  0  0  0  0
   59.9506   34.9183   49.4939 H   0  0  0  0  0  0  0  0  0  0  0  0
   59.2949   33.2460   49.4939 H   0  0  0  0  0  0  0  0  0  0  0  0
  1  2  1  0
  2  3  1  0
  3  4  2  0
  4  5  1  0
  4  6  1  0
  6  7  1  0
  7  8  1  0
  8  9  1  0
  8 10  2  0
 10 11  1  0
 10 12  1  0
 12 13  1  0
 13 14  1  0
 13 15  1  0
 13 16  1  0
 16 17  2  0
 17 18  1  0
 17 19  1  0
 19 20  1  0
 19 21  2  0
 21 22  1  0
 21 23  1  0
 23 24  1  0
 23 25  2  0
 25 26  1  0
 26 27  1  0
 26 28  1  0
 26 29  1  0
 12  6  2  0
 25 16  1  0
M  CHG  1  12   1
M  END
>  <UniqueID>  (15) 
15

>  <SMILES>  (15) 
Cc1ccccc1C[n+]1ccsc1/C=N/O

>  <Energy>  (15) 
59.06091942267579

>  <Genealogy>  (15) 
Cc1ccccc1C[n+]1ccsc1/C=N/O (cis-trans isomerization)
Cc1ccccc1C[n+]1ccsc1/C=N/O (3D coordinates assigned)
Cc1ccccc1C[n+]1ccsc1/C=N/O (optimized conformer: 59.06091942267579 kcal/mol)

>  <smiles>  (15) 
Cc1ccccc1C[n+]1ccsc1C=NO

>  <score_type>  (15) 
oracle

>  <origin>  (15) 
adg

>  <m_score__min__energy>  (15) 
-5.8700000000000001

>  <m_primary>  (15) 
energy

$$$$
15:0
     RDKit          3D

 39 41  0  0  0  0  0  0  0  0999 V2000
   58.6420   32.3930   48.6750 C   0  0  0  0  0  0  0  0  0  0  0  0
   58.6280   33.1860   47.3950 C   0  0  0  0  0  0  0  0  0  0  0  0
   57.3940   33.4580   46.7780 C   0  0  0  0  0  0  0  0  0  0  0  0
   57.3400   34.1700   45.5780 C   0  0  0  0  0  0  0  0  0  0  0  0
   58.5160   34.6240   44.9810 C   0  0  0  0  0  0  0  0  0  0  0  0
   59.7490   34.3810   45.5890 C   0  0  0  0  0  0  0  0  0  0  0  0
   59.8210   33.6770   46.8040 C   0  0  0  0  0  0  0  0  0  0  0  0
   61.1480   33.4680   47.4240 C   0  0  0  0  0  0  0  0  0  0  0  0
   62.1470   32.7310   46.7460 C   0  0  0  0  0  0  0  0  0  0  0  0
   63.4060   32.5190   47.3340 C   0  0  0  0  0  0  0  0  0  0  0  0
   63.6500   33.0420   48.6030 C   0  0  0  0  0  0  0  0  0  0  0  0
   64.8210   32.9050   49.2760 N   0  0  0  0  0  0  0  0  0  0  0  0
   64.7600   33.5130   50.4870 C   0  0  0  0  0  0  0  0  0  0  0  0
   65.9030   33.5220   51.4640 C   0  0  0  0  0  0  0  0  0  0  0  0
   67.1240   32.8490   50.9600 N   0  0  0  0  0  0  0  0  0  0  0  0
   68.2600   33.7790   50.8350 C   0  0  0  0  0  0  0  0  0  0  0  0
   67.4940   31.6790   51.7750 C   0  0  0  0  0  0  0  0  0  0  0  0
   63.2540   34.2440   50.7610 S   0  0  0  0  0  0  0  0  0  0  0  0
   62.6670   33.7540   49.2680 C   0  0  0  0  0  0  0  0  0  0  0  0
   61.4110   33.9800   48.7120 C   0  0  0  0  0  0  0  0  0  0  0  0
   58.6298   33.0813   49.5329 H   0  0  0  0  0  0  0  0  0  0  0  0
   57.7552   31.7433   48.7136 H   0  0  0  0  0  0  0  0  0  0  0  0
   59.5512   31.7750   48.7136 H   0  0  0  0  0  0  0  0  0  0  0  0
   56.4622   33.1065   47.2452 H   0  0  0  0  0  0  0  0  0  0  0  0
   56.3689   34.3731   45.1029 H   0  0  0  0  0  0  0  0  0  0  0  0
   58.4718   35.1744   44.0296 H   0  0  0  0  0  0  0  0  0  0  0  0
   60.6723   34.7435   45.1134 H   0  0  0  0  0  0  0  0  0  0  0  0
   61.9364   32.3194   45.7479 H   0  0  0  0  0  0  0  0  0  0  0  0
   64.1841   31.9511   46.8028 H   0  0  0  0  0  0  0  0  0  0  0  0
   66.1535   34.5678   51.6956 H   0  0  0  0  0  0  0  0  0  0  0  0
   65.5713   32.9631   52.3515 H   0  0  0  0  0  0  0  0  0  0  0  0
   66.9030   32.4990   49.9970 H   0  0  0  0  0  0  0  0  0  0  0  0
   68.6108   34.0662   51.8372 H   0  0  0  0  0  0  0  0  0  0  0  0
   69.0776   33.2876   50.2872 H   0  0  0  0  0  0  0  0  0  0  0  0
   67.9397   34.6775   50.2872 H   0  0  0  0  0  0  0  0  0  0  0  0
   67.4131   31.9349   52.8418 H   0  0  0  0  0  0  0  0  0  0  0  0
   66.8163   30.8434   51.5459 H   0  0  0  0  0  0  0  0  0  0  0  0
   68.5289   31.3851   51.5459 H   0  0  0  0  0  0  0  0  0  0  0  0
   60.6433   34.5433   49.2628 H   0  0  0  0  0  0  0  0  0  0  0  0
  1  2  1  0
  2  3  2  0
  3  4  1  0
  4  5  2  0
  5  6  1  0
  6  7  2  0
  7  8  1  0
  8  9  2  0
  9 10  1  0
 10 11  2  0
 11 12  1  0
 12 13  2  0
 13 14  1  0
 14 15  1  0
 15 16  1  0
 15 17  1  0
 13 18  1  0
 18 19  1  0
 19 20  2  0
  7  2  1  0
 20  8  1  0
 19 11  1  0
  1 21  1  0
  1 22  1  0
  1 23  1  0
  3 24  1  0
  4 25  1  0
  5 26  1  0
  6 27  1  0
  9 28  1  0
 10 29  1  0
 14 30  1  0
 14 31  1  0
 15 32  1  0
 16 33  1  0
 16 34  1  0
 16 35  1  0
 17 36  1  0
 17 37  1  0
 17 38  1  0
 20 39  1  0
M  CHG  1  15   1
M  END
>  <UniqueID>  (16) 
16

>  <SMILES>  (16) 
Cc1ccccc1-c1ccc2nc(C[NH+](C)C)sc2c1

>  <Energy>  (16) 
83.19025235384862

>  <Genealogy>  (16) 
Cc1ccccc1-c1ccc2nc(C[NH+](C)C)sc2c1 (protonated)
Cc1ccccc1-c1ccc2nc(C[NH+](C)C)sc2c1 (3D coordinates assigned)
Cc1ccccc1-c1ccc2nc(C[NH+](C)C)sc2c1 (optimized conformer: 83.19025235384862 kcal/mol)

>  <smiles>  (16) 
Cc1ccccc1-c1ccc2nc(CN(C)C)sc2c1

>  <score_type>  (16) 
oracle

>  <origin>  (16) 
adg

>  <m_score__min__energy>  (16) 
-5.6799999999999997

>  <m_primary>  (16) 
energy

$$$$
16:0
     RDKit          3D

 37 39  0  0  0  0  0  0  0  0999 V2000
   56.9660   29.8730   43.5600 C   0  0  0  0  0  0  0  0  0  0  0  0
   56.7640   30.5510   44.7950 O   0  0  0  0  0  0  0  0  0  0  0  0
   57.4200   31.7330   45.1640 C   0  0  0  0  0  0  0  0  0  0  0  0
   57.7540   32.7430   44.2190 C   0  0  0  0  0  0  0  0  0  0  0  0
   58.4470   33.8980   44.6220 C   0  0  0  0  0  0  0  0  0  0  0  0
   58.7810   34.0240   45.9680 C   0  0  0  0  0  0  0  0  0  0  0  0
   58.4480   33.0670   46.8830 C   0  0  0  0  0  0  0  0  0  0  0  0
   57.7690   31.9070   46.5170 C   0  0  0  0  0  0  0  0  0  0  0  0
   59.0530   33.4550   48.1490 C   0  0  0  0  0  0  0  0  0  0  0  0
   58.8960   32.8310   49.2330 O   0  0  0  0  0  0  0  0  0  0  0  0
   59.8650   34.6410   48.0260 N   0  0  1  0  0  0  0  0  0  0  0  0
   61.2980   34.3370   48.2240 C   0  0  0  0  0  0  0  0  0  0  0  0
   61.8170   33.5420   47.1500 O   0  0  0  0  0  0  0  0  0  0  0  0
   62.3580   32.2640   47.3320 C   0  0  0  0  0  0  0  0  0  0  0  0
   63.6100   32.1100   47.3700 O   0  0  0  0  0  0  0  0  0  0  0  0
   61.4580   31.1110   47.5430 C   0  0  0  0  0  0  0  0  0  0  0  0
   60.8770   30.4540   46.4420 C   0  0  0  0  0  0  0  0  0  0  0  0
   59.9580   29.4200   46.6390 C   0  0  0  0  0  0  0  0  0  0  0  0
   59.6110   29.0270   47.9330 C   0  0  0  0  0  0  0  0  0  0  0  0
   60.1870   29.6650   49.0350 C   0  0  0  0  0  0  0  0  0  0  0  0
   59.8460   29.2850   50.2910 F   0  0  0  0  0  0  0  0  0  0  0  0
   61.1060   30.7020   48.8430 C   0  0  0  0  0  0  0  0  0  0  0  0
   59.5990   35.0110   46.6570 C   0  0  0  0  0  0  0  0  0  0  0  0
   60.0430   36.0640   46.1240 O   0  0  0  0  0  0  0  0  0  0  0  0
   57.2750   28.8359   43.7573 H   0  0  0  0  0  0  0  0  0  0  0  0
   56.0288   29.8731   42.9841 H   0  0  0  0  0  0  0  0  0  0  0  0
   57.7503   30.3860   42.9841 H   0  0  0  0  0  0  0  0  0  0  0  0
   57.4676   32.6191   43.1642 H   0  0  0  0  0  0  0  0  0  0  0  0
   58.7173   34.6788   43.8958 H   0  0  0  0  0  0  0  0  0  0  0  0
   57.5115   31.1449   47.2673 H   0  0  0  0  0  0  0  0  0  0  0  0
   59.5320   35.3850   48.6830 H   0  0  0  0  0  0  0  0  0  0  0  0
   61.8605   35.2810   48.2748 H   0  0  0  0  0  0  0  0  0  0  0  0
   61.4053   33.7680   49.1593 H   0  0  0  0  0  0  0  0  0  0  0  0
   61.1482   30.7566   45.4198 H   0  0  0  0  0  0  0  0  0  0  0  0
   59.5068   28.9144   45.7725 H   0  0  0  0  0  0  0  0  0  0  0  0
   58.8843   28.2153   48.0851 H   0  0  0  0  0  0  0  0  0  0  0  0
   61.5565   31.2011   49.7136 H   0  0  0  0  0  0  0  0  0  0  0  0
  1  2  1  0
  2  3  1  0
  3  4  2  0
  4  5  1  0
  5  6  2  0
  6  7  1  0
  7  8  2  0
  7  9  1  0
  9 10  2  0
  9 11  1  0
 11 12  1  0
 12 13  1  0
 13 14  1  0
 14 15  2  0
 14 16  1  0
 16 17  2  0
 17 18  1  0
 18 19  2  0
 19 20  1  0
 20 21  1  0
 20 22  2  0
 11 23  1  0
 23 24  2  0
  8  3  1  0
 22 16  1  0
 23  6  1  0
  1 25  1  0
  1 26  1  0
  1 27  1  0
  4 28  1  0
  5 29  1  0
  8 30  1  0
 11 31  1  1
 12 32  1  0
 12 33  1  0
 17 34  1  0
 18 35  1  0
 19 36  1  0
 22 37  1  0
M  CHG  1  11   1
M  END
>  <UniqueID>  (17) 
17

>  <SMILES>  (17) 
COc1ccc2c(c1)C(=O)[N@@H+](COC(=O)c1cccc(F)c1)C2=O

>  <Energy>  (17) 
63.41289569135446

>  <Genealogy>  (17) 
COc1ccc2c(c1)C(=O)[NH+](COC(=O)c1cccc(F)c1)C2=O (protonated)
COc1ccc2c(c1)C(=O)[N@@H+](COC(=O)c1cccc(F)c1)C2=O (chirality)
COc1ccc2c(c1)C(=O)[N@@H+](COC(=O)c1cccc(F)c1)C2=O (3D coordinates assigned)
COc1ccc2c(c1)C(=O)[N@@H+](COC(=O)c1cccc(F)c1)C2=O (nonaromatic ring conformer: 63.41289569135446 kcal/mol)

>  <smiles>  (17) 
COc1ccc2c(c1)C(=O)N(COC(=O)c1cccc(F)c1)C2=O

>  <score_type>  (17) 
oracle

>  <origin>  (17) 
adg

>  <m_score__min__energy>  (17) 
-5.7000000000000002

>  <m_primary>  (17) 
energy

$$$$
17:0
     RDKit          3D

 43 45  0  0  0  0  0  0  0  0999 V2000
   63.3360   33.8740   46.3650 C   0  0  0  0  0  0  0  0  0  0  0  0
   63.2230   32.7880   47.4410 C   0  0  0  0  0  0  0  0  0  0  0  0
   61.8590   32.7120   48.0250 N   0  0  1  0  0  0  0  0  0  0  0  0
   61.5960   31.3950   48.6390 C   0  0  0  0  0  0  0  0  0  0  0  0
   61.5770   33.8340   48.9590 C   0  0  0  0  0  0  0  0  0  0  0  0
   60.0790   34.1170   49.2360 C   0  0  0  0  0  0  0  0  0  0  0  0
   59.3960   34.6990   48.0800 N   0  0  0  0  0  0  0  0  0  0  0  0
   58.9850   33.9630   46.9120 C   0  0  0  0  0  0  0  0  0  0  0  0
   58.8050   34.6620   45.6910 C   0  0  0  0  0  0  0  0  0  0  0  0
   58.4100   33.9900   44.5220 C   0  0  0  0  0  0  0  0  0  0  0  0
   58.1950   32.6180   44.6000 C   0  0  0  0  0  0  0  0  0  0  0  0
   57.8060   31.7050   43.6310 C   0  0  0  0  0  0  0  0  0  0  0  0
   57.5220   31.9730   42.2440 C   0  0  0  0  0  0  0  0  0  0  0  0
   57.2930   32.1900   41.1320 N   0  0  0  0  0  0  0  0  0  0  0  0
   57.7510   30.4780   44.2830 C   0  0  0  0  0  0  0  0  0  0  0  0
   57.4120   29.2290   43.7620 C   0  0  0  0  0  0  0  0  0  0  0  0
   57.4320   28.1300   44.6330 C   0  0  0  0  0  0  0  0  0  0  0  0
   57.7840   28.2990   45.9850 C   0  0  0  0  0  0  0  0  0  0  0  0
   58.1160   29.5750   46.4600 C   0  0  0  0  0  0  0  0  0  0  0  0
   58.0850   30.6180   45.5870 N   0  0  0  0  0  0  0  0  0  0  0  0
   58.3570   31.9250   45.7790 C   0  0  0  0  0  0  0  0  0  0  0  0
   58.7480   32.5670   46.9570 C   0  0  0  0  0  0  0  0  0  0  0  0
   63.4384   34.8578   46.8463 H   0  0  0  0  0  0  0  0  0  0  0  0
   64.2187   33.6788   45.7383 H   0  0  0  0  0  0  0  0  0  0  0  0
   62.4320   33.8647   45.7383 H   0  0  0  0  0  0  0  0  0  0  0  0
   63.4690   31.8157   46.9893 H   0  0  0  0  0  0  0  0  0  0  0  0
   63.9220   33.0432   48.2511 H   0  0  0  0  0  0  0  0  0  0  0  0
   61.1700   32.8230   47.2440 H   0  0  0  0  0  0  0  0  0  0  0  0
   61.6151   31.4909   49.7346 H   0  0  0  0  0  0  0  0  0  0  0  0
   60.6077   31.0324   48.3199 H   0  0  0  0  0  0  0  0  0  0  0  0
   62.3692   30.6807   48.3199 H   0  0  0  0  0  0  0  0  0  0  0  0
   62.0608   33.6038   49.9197 H   0  0  0  0  0  0  0  0  0  0  0  0
   61.9673   34.7379   48.4685 H   0  0  0  0  0  0  0  0  0  0  0  0
   59.5838   33.1706   49.4987 H   0  0  0  0  0  0  0  0  0  0  0  0
   60.0227   34.8447   50.0590 H   0  0  0  0  0  0  0  0  0  0  0  0
   59.1880   35.7240   48.1180 H   0  0  0  0  0  0  0  0  0  0  0  0
   58.9775   35.7479   45.6588 H   0  0  0  0  0  0  0  0  0  0  0  0
   58.2750   34.5321   43.5745 H   0  0  0  0  0  0  0  0  0  0  0  0
   57.1381   29.1102   42.7033 H   0  0  0  0  0  0  0  0  0  0  0  0
   57.1709   27.1297   44.2570 H   0  0  0  0  0  0  0  0  0  0  0  0
   57.7985   27.4345   46.6651 H   0  0  0  0  0  0  0  0  0  0  0  0
   58.3948   29.7295   47.5128 H   0  0  0  0  0  0  0  0  0  0  0  0
   58.8685   32.0036   47.8940 H   0  0  0  0  0  0  0  0  0  0  0  0
  1  2  1  0
  2  3  1  0
  3  4  1  0
  3  5  1  0
  5  6  1  0
  6  7  1  0
  7  8  1  0
  8  9  2  0
  9 10  1  0
 10 11  2  0
 11 12  1  0
 12 13  1  0
 13 14  3  0
 12 15  2  0
 15 16  1  0
 16 17  2  0
 17 18  1  0
 18 19  2  0
 19 20  1  0
 20 21  1  0
 21 22  2  0
 22  8  1  0
 21 11  1  0
 20 15  1  0
  1 23  1  0
  1 24  1  0
  1 25  1  0
  2 26  1  0
  2 27  1  0
  3 28  1  6
  4 29  1  0
  4 30  1  0
  4 31  1  0
  5 32  1  0
  5 33  1  0
  6 34  1  0
  6 35  1  0
  7 36  1  0
  9 37  1  0
 10 38  1  0
 16 39  1  0
 17 40  1  0
 18 41  1  0
 19 42  1  0
 22 43  1  0
M  CHG  1   3   1
M  END
>  <UniqueID>  (18) 
18

>  <SMILES>  (18) 
CC[N@@H+](C)CCNc1ccc2c(C#N)c3ccccn3c2c1

>  <Energy>  (18) 
86.40737328723044

>  <Genealogy>  (18) 
CC[NH+](C)CCNc1ccc2c(C#N)c3ccccn3c2c1 (protonated)
CC[N@@H+](C)CCNc1ccc2c(C#N)c3ccccn3c2c1 (chirality)
CC[N@@H+](C)CCNc1ccc2c(C#N)c3ccccn3c2c1 (3D coordinates assigned)
CC[N@@H+](C)CCNc1ccc2c(C#N)c3ccccn3c2c1 (optimized conformer: 86.40737328723044 kcal/mol)

>  <smiles>  (18) 
CCN(C)CCNc1ccc2c(C#N)c3ccccn3c2c1

>  <score_type>  (18) 
oracle

>  <origin>  (18) 
adg

>  <m_score__min__energy>  (18) 
-5.8099999999999996

>  <m_primary>  (18) 
energy

$$$$
18:0
     RDKit          3D

 40 42  0  0  0  0  0  0  0  0999 V2000
   60.4236   31.8022   47.4625 H   0  0  0  0  0  0  0  0  0  0  0  0
   59.7100   32.2680   46.7670 C   0  0  0  0  0  0  0  0  0  0  0  0
   59.0000   31.4740   45.8630 C   0  0  0  0  0  0  0  0  0  0  0  0
   59.1694   30.3874   45.8387 H   0  0  0  0  0  0  0  0  0  0  0  0
   58.0710   32.0560   44.9850 C   0  0  0  0  0  0  0  0  0  0  0  0
   57.3060   31.1960   43.9980 C   0  0  0  0  0  0  0  0  0  0  0  0
   58.0320   30.6821   43.3508 H   0  0  0  0  0  0  0  0  0  0  0  0
   56.6416   31.8687   43.4358 H   0  0  0  0  0  0  0  0  0  0  0  0
   56.4450   30.1750   44.6350 N   0  0  0  0  0  0  0  0  0  0  0  0
   57.2090   29.0280   45.1490 C   0  0  0  0  0  0  0  0  0  0  0  0
   57.1985   29.0437   46.2488 H   0  0  0  0  0  0  0  0  0  0  0  0
   56.7524   28.0934   44.7913 H   0  0  0  0  0  0  0  0  0  0  0  0
   58.2474   29.0892   44.7913 H   0  0  0  0  0  0  0  0  0  0  0  0
   55.3520   29.7270   43.7570 C   0  0  0  0  0  0  0  0  0  0  0  0
   54.5073   29.3808   44.3706 H   0  0  0  0  0  0  0  0  0  0  0  0
   55.0253   30.5638   43.1221 H   0  0  0  0  0  0  0  0  0  0  0  0
   55.7066   28.9017   43.1221 H   0  0  0  0  0  0  0  0  0  0  0  0
   57.8480   33.4410   45.0430 C   0  0  0  0  0  0  0  0  0  0  0  0
   57.1097   33.9049   44.3724 H   0  0  0  0  0  0  0  0  0  0  0  0
   58.5590   34.2330   45.9480 C   0  0  0  0  0  0  0  0  0  0  0  0
   58.3649   35.3146   45.9978 H   0  0  0  0  0  0  0  0  0  0  0  0
   59.5160   33.6590   46.7910 C   0  0  0  0  0  0  0  0  0  0  0  0
   60.1950   34.4880   47.7480 N   0  0  0  0  0  0  0  0  0  0  0  0
   60.5600   34.1730   48.9640 C   0  0  0  0  0  0  0  0  0  0  0  0
   59.6430   34.1380   50.0330 C   0  0  0  0  0  0  0  0  0  0  0  0
   58.5861   34.3881   49.8585 H   0  0  0  0  0  0  0  0  0  0  0  0
   60.0730   33.7870   51.3110 C   0  0  0  0  0  0  0  0  0  0  0  0
   59.3534   33.7706   52.1428 H   0  0  0  0  0  0  0  0  0  0  0  0
   61.3720   33.4650   51.5390 N   0  0  0  0  0  0  0  0  0  0  0  0
   61.6550   33.2060   52.5120 H   0  0  0  0  0  0  0  0  0  0  0  0
   62.2930   33.4650   50.5330 C   0  0  0  0  0  0  0  0  0  0  0  0
   63.6270   33.1140   50.8010 C   0  0  0  0  0  0  0  0  0  0  0  0
   63.9269   32.8420   51.8238 H   0  0  0  0  0  0  0  0  0  0  0  0
   64.5740   33.1090   49.7740 C   0  0  0  0  0  0  0  0  0  0  0  0
   66.2380   32.6690   50.1190 Cl  0  0  0  0  0  0  0  0  0  0  0  0
   64.1990   33.4530   48.4740 C   0  0  0  0  0  0  0  0  0  0  0  0
   64.9481   33.4469   47.6685 H   0  0  0  0  0  0  0  0  0  0  0  0
   62.8770   33.8050   48.1910 C   0  0  0  0  0  0  0  0  0  0  0  0
   62.5915   34.0761   47.1639 H   0  0  0  0  0  0  0  0  0  0  0  0
   61.9060   33.8150   49.2140 C   0  0  0  0  0  0  0  0  0  0  0  0
  1  2  1  0
  2  3  2  0
  3  4  1  0
  3  5  1  0
  5  6  1  0
  6  7  1  0
  6  8  1  0
  6  9  1  0
  9 10  1  0
 10 11  1  0
 10 12  1  0
 10 13  1  0
  9 14  1  0
 14 15  1  0
 14 16  1  0
 14 17  1  0
  5 18  2  0
 18 19  1  0
 18 20  1  0
 20 21  1  0
 20 22  2  0
 22 23  1  0
 23 24  2  0
 24 25  1  0
 25 26  1  0
 25 27  2  0
 27 28  1  0
 27 29  1  0
 29 30  1  0
 29 31  1  0
 31 32  2  0
 32 33  1  0
 32 34  1  0
 34 35  1  0
 34 36  2  0
 36 37  1  0
 36 38  1  0
 38 39  1  0
 38 40  2  0
 22  2  1  0
 40 24  1  0
 40 31  1  0
M  END
>  <UniqueID>  (19) 
19

>  <SMILES>  (19) 
CN(C)Cc1ccc(/N=c2\cc[nH]c3cc(Cl)ccc23)cc1

>  <Energy>  (19) 
58.58074395365214

>  <Genealogy>  (19) 
CN(C)Cc1ccc(/N=c2\cc[nH]c3cc(Cl)ccc23)cc1 (cis-trans isomerization)
CN(C)Cc1ccc(/N=c2\cc[nH]c3cc(Cl)ccc23)cc1 (3D coordinates assigned)
CN(C)Cc1ccc(/N=c2\cc[nH]c3cc(Cl)ccc23)cc1 (optimized conformer: 58.58074395365214 kcal/mol)

>  <smiles>  (19) 
CN(C)Cc1ccc(N=c2cc[nH]c3cc(Cl)ccc23)cc1

>  <score_type>  (19) 
oracle

>  <origin>  (19) 
adg

>  <m_score__min__energy>  (19) 
-7.4400000000000004

>  <m_primary>  (19) 
energy

$$$$
19:0
     RDKit          3D

 62 65  0  0  0  0  0  0  0  0999 V2000
   65.5470   33.0910   49.7740 C   0  0  0  0  0  0  0  0  0  0  0  0
   64.4540   32.0890   49.3780 C   0  0  0  0  0  0  0  0  0  0  0  0
   63.3030   32.6960   48.6630 N   0  0  0  0  0  0  0  0  0  0  0  0
   63.3320   32.5010   47.1940 C   0  0  0  0  0  0  0  0  0  0  0  0
   63.3600   33.8310   46.4400 C   0  0  0  0  0  0  0  0  0  0  0  0
   63.1060   34.1190   49.0230 C   0  0  0  0  0  0  0  0  0  0  0  0
   62.3780   34.2220   50.3610 C   0  0  0  0  0  0  0  0  0  0  0  0
   62.1870   32.9180   50.8800 O   0  0  0  0  0  0  0  0  0  0  0  0
   60.8900   32.7640   51.4180 C   0  0  0  0  0  0  0  0  0  0  0  0
   59.9580   32.1650   50.3650 C   0  0  0  0  0  0  0  0  0  0  0  0
   60.6480   32.0240   49.0840 N   0  0  0  0  0  0  0  0  0  0  0  0
   59.9430   31.6150   47.8980 C   0  0  0  0  0  0  0  0  0  0  0  0
   59.4610   32.5790   46.9940 C   0  0  0  0  0  0  0  0  0  0  0  0
   59.6820   33.9570   47.2080 C   0  0  0  0  0  0  0  0  0  0  0  0
   59.2100   34.9020   46.3000 C   0  0  0  0  0  0  0  0  0  0  0  0
   58.5200   34.4940   45.1640 C   0  0  0  0  0  0  0  0  0  0  0  0
   58.3230   33.1360   44.9140 C   0  0  0  0  0  0  0  0  0  0  0  0
   58.8020   32.1520   45.8120 C   0  0  0  0  0  0  0  0  0  0  0  0
   58.6670   30.8060   45.5420 N   0  0  0  0  0  0  0  0  0  0  0  0
   58.5280   30.3860   44.1280 C   0  0  0  0  0  0  0  0  0  0  0  0
   58.9020   29.8710   46.5350 C   0  0  0  0  0  0  0  0  0  0  0  0
   59.6850   30.2510   47.6600 C   0  0  0  0  0  0  0  0  0  0  0  0
   60.1870   29.2600   48.5250 C   0  0  0  0  0  0  0  0  0  0  0  0
   59.8710   27.9220   48.3380 C   0  0  0  0  0  0  0  0  0  0  0  0
   58.9600   27.5460   47.3500 C   0  0  0  0  0  0  0  0  0  0  0  0
   58.5500   26.2050   47.2600 C   0  0  0  0  0  0  0  0  0  0  0  0
   57.5330   25.8380   46.3770 C   0  0  0  0  0  0  0  0  0  0  0  0
   56.9010   26.8080   45.6050 C   0  0  0  0  0  0  0  0  0  0  0  0
   57.3180   28.1400   45.6680 C   0  0  0  0  0  0  0  0  0  0  0  0
   58.4120   28.5250   46.4780 C   0  0  0  0  0  0  0  0  0  0  0  0
   65.6109   33.1496   50.8706 H   0  0  0  0  0  0  0  0  0  0  0  0
   66.5137   32.7588   49.3676 H   0  0  0  0  0  0  0  0  0  0  0  0
   65.2998   34.0828   49.3676 H   0  0  0  0  0  0  0  0  0  0  0  0
   64.9042   31.3279   48.7238 H   0  0  0  0  0  0  0  0  0  0  0  0
   64.0583   31.6664   50.3133 H   0  0  0  0  0  0  0  0  0  0  0  0
   64.2306   31.9241   46.9300 H   0  0  0  0  0  0  0  0  0  0  0  0
   62.4159   31.9654   46.9042 H   0  0  0  0  0  0  0  0  0  0  0  0
   63.3775   34.6612   47.1614 H   0  0  0  0  0  0  0  0  0  0  0  0
   64.2593   33.8754   45.8081 H   0  0  0  0  0  0  0  0  0  0  0  0
   62.4634   33.9132   45.8081 H   0  0  0  0  0  0  0  0  0  0  0  0
   64.0852   34.6140   49.1018 H   0  0  0  0  0  0  0  0  0  0  0  0
   62.5026   34.6087   48.2445 H   0  0  0  0  0  0  0  0  0  0  0  0
   62.9805   34.8151   51.0647 H   0  0  0  0  0  0  0  0  0  0  0  0
   61.4041   34.7134   50.2190 H   0  0  0  0  0  0  0  0  0  0  0  0
   60.9338   32.0944   52.2896 H   0  0  0  0  0  0  0  0  0  0  0  0
   60.5056   33.7481   51.7242 H   0  0  0  0  0  0  0  0  0  0  0  0
   59.6197   31.1747   50.7038 H   0  0  0  0  0  0  0  0  0  0  0  0
   59.0976   32.8372   50.2310 H   0  0  0  0  0  0  0  0  0  0  0  0
   61.6920   31.9770   49.0880 H   0  0  0  0  0  0  0  0  0  0  0  0
   60.2326   34.2877   48.1010 H   0  0  0  0  0  0  0  0  0  0  0  0
   59.3835   35.9729   46.4820 H   0  0  0  0  0  0  0  0  0  0  0  0
   58.1286   35.2439   44.4608 H   0  0  0  0  0  0  0  0  0  0  0  0
   57.7872   32.8248   44.0051 H   0  0  0  0  0  0  0  0  0  0  0  0
   58.1826   29.3424   44.0877 H   0  0  0  0  0  0  0  0  0  0  0  0
   57.7964   31.0341   43.6232 H   0  0  0  0  0  0  0  0  0  0  0  0
   59.5018   30.4697   43.6232 H   0  0  0  0  0  0  0  0  0  0  0  0
   60.8394   29.5509   49.3615 H   0  0  0  0  0  0  0  0  0  0  0  0
   60.3404   27.1546   48.9710 H   0  0  0  0  0  0  0  0  0  0  0  0
   59.0324   25.4414   47.8879 H   0  0  0  0  0  0  0  0  0  0  0  0
   57.2316   24.7835   46.2916 H   0  0  0  0  0  0  0  0  0  0  0  0
   56.0698   26.5250   44.9425 H   0  0  0  0  0  0  0  0  0  0  0  0
   56.7870   28.9017   45.0782 H   0  0  0  0  0  0  0  0  0  0  0  0
  1  2  1  0
  2  3  1  0
  3  4  1  0
  4  5  1  0
  3  6  1  0
  6  7  1  0
  7  8  1  0
  8  9  1  0
  9 10  1  0
 10 11  1  0
 11 12  1  0
 12 13  2  0
 13 14  1  0
 14 15  2  0
 15 16  1  0
 16 17  2  0
 17 18  1  0
 18 19  2  0
 19 20  1  0
 19 21  1  0
 21 22  2  0
 22 23  1  0
 23 24  2  0
 24 25  1  0
 25 26  2  0
 26 27  1  0
 27 28  2  0
 28 29  1  0
 29 30  2  0
 22 12  1  0
 30 25  1  0
 18 13  1  0
 30 21  1  0
  1 31  1  0
  1 32  1  0
  1 33  1  0
  2 34  1  0
  2 35  1  0
  4 36  1  0
  4 37  1  0
  5 38  1  0
  5 39  1  0
  5 40  1  0
  6 41  1  0
  6 42  1  0
  7 43  1  0
  7 44  1  0
  9 45  1  0
  9 46  1  0
 10 47  1  0
 10 48  1  0
 11 49  1  0
 14 50  1  0
 15 51  1  0
 16 52  1  0
 17 53  1  0
 20 54  1  0
 20 55  1  0
 20 56  1  0
 23 57  1  0
 24 58  1  0
 26 59  1  0
 27 60  1  0
 28 61  1  0
 29 62  1  0
M  CHG  1  19   1
M  END
>  <UniqueID>  (20) 
20

>  <SMILES>  (20) 
CCN(CC)CCOCCNc1c2ccccc2[n+](C)c2c1ccc1ccccc12

>  <Energy>  (20) 
107.81201067973923

>  <Genealogy>  (20) 
CCN(CC)CCOCCNc1c2ccccc2[n+](C)c2c1ccc1ccccc12 (3D coordinates assigned)
CCN(CC)CCOCCNc1c2ccccc2[n+](C)c2c1ccc1ccccc12 (optimized conformer: 107.81201067973923 kcal/mol)

>  <smiles>  (20) 
CCN(CC)CCOCCNc1c2ccccc2[n+](C)c2c1ccc1ccccc12

>  <score_type>  (20) 
oracle

>  <origin>  (20) 
adg

>  <m_score__min__energy>  (20) 
-6.8700000000000001

>  <m_primary>  (20) 
energy

$$$$
20:0
     RDKit          3D

 57 59  0  0  0  0  0  0  0  0999 V2000
   58.5270   26.1340   46.9830 C   0  0  0  0  0  0  0  0  0  0  0  0
   57.2950   26.9330   46.5670 C   0  0  0  0  0  0  0  0  0  0  0  0
   56.7190   26.3770   45.3210 N   0  0  0  0  0  0  0  0  0  0  0  0
   55.8190   25.2500   45.6250 C   0  0  0  0  0  0  0  0  0  0  0  0
   57.7720   25.9440   44.3760 C   0  0  0  0  0  0  0  0  0  0  0  0
   58.2230   27.1010   43.4610 C   0  0  0  0  0  0  0  0  0  0  0  0
   57.2200   28.1790   43.3580 N   0  0  0  0  0  0  0  0  0  0  0  0
   57.6530   29.3830   44.0300 C   0  0  0  0  0  0  0  0  0  0  0  0
   57.1320   30.6230   43.6570 C   0  0  0  0  0  0  0  0  0  0  0  0
   57.5660   31.7930   44.2740 C   0  0  0  0  0  0  0  0  0  0  0  0
   58.5520   31.7670   45.2920 C   0  0  0  0  0  0  0  0  0  0  0  0
   59.0770   30.5000   45.6850 C   0  0  0  0  0  0  0  0  0  0  0  0
   58.6070   29.3260   45.0530 C   0  0  0  0  0  0  0  0  0  0  0  0
   60.0660   30.4280   46.6930 C   0  0  0  0  0  0  0  0  0  0  0  0
   60.6570   29.1110   47.1430 C   0  0  0  0  0  0  0  0  0  0  0  0
   60.5290   31.6000   47.2960 C   0  0  0  0  0  0  0  0  0  0  0  0
   60.0350   32.8640   46.9310 C   0  0  0  0  0  0  0  0  0  0  0  0
   60.5230   34.0450   47.5550 C   0  0  0  0  0  0  0  0  0  0  0  0
   61.6010   34.0330   48.6230 C   0  0  0  0  0  0  0  0  0  0  0  0
   62.7930   33.2940   48.1560 N   0  0  0  0  0  0  0  0  0  0  0  0
   63.8680   33.3890   49.1560 C   0  0  0  0  0  0  0  0  0  0  0  0
   63.2690   33.8260   46.8680 C   0  0  0  0  0  0  0  0  0  0  0  0
   60.0070   35.2820   47.1540 C   0  0  0  0  0  0  0  0  0  0  0  0
   59.0560   35.3510   46.1960 N   0  0  0  0  0  0  0  0  0  0  0  0
   58.5660   34.2470   45.5820 C   0  0  0  0  0  0  0  0  0  0  0  0
   59.0360   32.9570   45.9220 C   0  0  0  0  0  0  0  0  0  0  0  0
   58.5858   26.0959   48.0808 H   0  0  0  0  0  0  0  0  0  0  0  0
   58.4529   25.1116   46.5840 H   0  0  0  0  0  0  0  0  0  0  0  0
   59.4303   26.6187   46.5840 H   0  0  0  0  0  0  0  0  0  0  0  0
   56.5428   26.8837   47.3681 H   0  0  0  0  0  0  0  0  0  0  0  0
   57.5890   27.9782   46.3903 H   0  0  0  0  0  0  0  0  0  0  0  0
   55.7286   25.1368   46.7154 H   0  0  0  0  0  0  0  0  0  0  0  0
   54.8266   25.4465   45.1932 H   0  0  0  0  0  0  0  0  0  0  0  0
   56.2302   24.3256   45.1932 H   0  0  0  0  0  0  0  0  0  0  0  0
   58.6390   25.5826   44.9484 H   0  0  0  0  0  0  0  0  0  0  0  0
   57.3592   25.1449   43.7428 H   0  0  0  0  0  0  0  0  0  0  0  0
   59.1537   27.5255   43.8655 H   0  0  0  0  0  0  0  0  0  0  0  0
   58.3655   26.6864   42.4521 H   0  0  0  0  0  0  0  0  0  0  0  0
   56.2960   27.8530   43.7290 H   0  0  0  0  0  0  0  0  0  0  0  0
   57.0740   28.4010   42.3460 H   0  0  0  0  0  0  0  0  0  0  0  0
   56.3694   30.6764   42.8661 H   0  0  0  0  0  0  0  0  0  0  0  0
   57.1352   32.7569   43.9654 H   0  0  0  0  0  0  0  0  0  0  0  0
   58.9986   28.3486   45.3713 H   0  0  0  0  0  0  0  0  0  0  0  0
   60.6740   29.0732   48.2422 H   0  0  0  0  0  0  0  0  0  0  0  0
   60.0441   28.2831   46.7571 H   0  0  0  0  0  0  0  0  0  0  0  0
   61.6829   29.0185   46.7571 H   0  0  0  0  0  0  0  0  0  0  0  0
   61.3005   31.5317   48.0771 H   0  0  0  0  0  0  0  0  0  0  0  0
   61.8877   35.0687   48.8579 H   0  0  0  0  0  0  0  0  0  0  0  0
   61.2045   33.5333   49.5192 H   0  0  0  0  0  0  0  0  0  0  0  0
   63.4337   33.3506   50.1659 H   0  0  0  0  0  0  0  0  0  0  0  0
   64.5661   32.5490   49.0249 H   0  0  0  0  0  0  0  0  0  0  0  0
   64.4079   34.3384   49.0249 H   0  0  0  0  0  0  0  0  0  0  0  0
   63.9924   34.6345   47.0500 H   0  0  0  0  0  0  0  0  0  0  0  0
   63.7544   33.0216   46.2959 H   0  0  0  0  0  0  0  0  0  0  0  0
   62.4158   34.2193   46.2959 H   0  0  0  0  0  0  0  0  0  0  0  0
   60.3781   36.2057   47.6220 H   0  0  0  0  0  0  0  0  0  0  0  0
   57.7918   34.3555   44.8082 H   0  0  0  0  0  0  0  0  0  0  0  0
  1  2  1  0
  2  3  1  0
  3  4  1  0
  3  5  1  0
  5  6  1  0
  6  7  1  0
  7  8  1  0
  8  9  2  0
  9 10  1  0
 10 11  2  0
 11 12  1  0
 12 13  2  0
 12 14  1  0
 14 15  1  0
 14 16  2  0
 16 17  1  0
 17 18  2  0
 18 19  1  0
 19 20  1  0
 20 21  1  0
 20 22  1  0
 18 23  1  0
 23 24  2  0
 24 25  1  0
 25 26  2  0
 13  8  1  0
 26 17  1  0
 26 11  1  0
  1 27  1  0
  1 28  1  0
  1 29  1  0
  2 30  1  0
  2 31  1  0
  4 32  1  0
  4 33  1  0
  4 34  1  0
  5 35  1  0
  5 36  1  0
  6 37  1  0
  6 38  1  0
  7 39  1  0
  7 40  1  0
  9 41  1  0
 10 42  1  0
 13 43  1  0
 15 44  1  0
 15 45  1  0
 15 46  1  0
 16 47  1  0
 19 48  1  0
 19 49  1  0
 21 50  1  0
 21 51  1  0
 21 52  1  0
 22 53  1  0
 22 54  1  0
 22 55  1  0
 23 56  1  0
 25 57  1  0
M  CHG  1   7   1
M  END
>  <UniqueID>  (21) 
21

>  <SMILES>  (21) 
CCN(C)CC[NH2+]c1ccc2c(c1)c(C)cc1c(CN(C)C)cncc12

>  <Energy>  (21) 
72.1501743545446

>  <Genealogy>  (21) 
CCN(C)CC[NH2+]c1ccc2c(c1)c(C)cc1c(CN(C)C)cncc12 (protonated)
CCN(C)CC[NH2+]c1ccc2c(c1)c(C)cc1c(CN(C)C)cncc12 (3D coordinates assigned)
CCN(C)CC[NH2+]c1ccc2c(c1)c(C)cc1c(CN(C)C)cncc12 (optimized conformer: 72.1501743545446 kcal/mol)

>  <smiles>  (21) 
CCN(C)CCNc1ccc2c(c1)c(C)cc1c(CN(C)C)cncc12

>  <score_type>  (21) 
oracle

>  <origin>  (21) 
adg

>  <m_score__min__energy>  (21) 
-6.7599999999999998

>  <m_primary>  (21) 
energy

$$$$
21:0
     RDKit          3D

106110  0  0  0  0  0  0  0  0999 V2000
   57.2552   31.5704   53.7934 H   0  0  0  0  0  0  0  0  0  0  0  0
   57.9140   30.9450   53.1730 C   0  0  0  0  0  0  0  0  0  0  0  0
   59.0110   30.3020   53.7490 C   0  0  0  0  0  0  0  0  0  0  0  0
   59.2133   30.4200   54.8238 H   0  0  0  0  0  0  0  0  0  0  0  0
   59.8530   29.5090   52.9650 C   0  0  0  0  0  0  0  0  0  0  0  0
   60.7170   29.0091   53.4272 H   0  0  0  0  0  0  0  0  0  0  0  0
   59.6040   29.3430   51.5800 C   0  0  0  0  0  0  0  0  0  0  0  0
   60.4520   28.5580   50.7540 C   0  0  0  0  0  0  0  0  0  0  0  0
   61.5410   28.0940   51.3200 N   0  0  0  0  0  0  0  0  0  0  0  0
   62.7960   28.7050   51.7440 C   0  0  0  0  0  0  0  0  0  0  0  0
   62.5861   29.6509   52.2647 H   0  0  0  0  0  0  0  0  0  0  0  0
   63.4238   28.9038   50.8629 H   0  0  0  0  0  0  0  0  0  0  0  0
   63.5310   27.7530   52.6910 C   0  0  0  0  0  0  0  0  0  0  0  0
   63.1852   27.9381   53.7187 H   0  0  0  0  0  0  0  0  0  0  0  0
   64.6099   27.9434   52.5923 H   0  0  0  0  0  0  0  0  0  0  0  0
   63.2770   26.2790   52.3410 C   0  0  0  0  0  0  0  0  0  0  0  0
   62.5070   26.2197   51.5577 H   0  0  0  0  0  0  0  0  0  0  0  0
   62.9380   25.7506   53.2443 H   0  0  0  0  0  0  0  0  0  0  0  0
   64.5140   25.6480   51.8540 N   0  0  0  0  0  0  0  0  0  0  0  0
   64.5480   24.6580   52.1910 H   0  0  0  0  0  0  0  0  0  0  0  0
   65.7310   26.3630   52.2780 C   0  0  0  0  0  0  0  0  0  0  0  0
   66.4564   25.6296   52.6599 H   0  0  0  0  0  0  0  0  0  0  0  0
   65.4413   27.0861   53.0547 H   0  0  0  0  0  0  0  0  0  0  0  0
   66.3830   27.1490   51.1250 C   0  0  0  0  0  0  0  0  0  0  0  0
   65.6327   27.3302   50.3413 H   0  0  0  0  0  0  0  0  0  0  0  0
   67.2193   26.5590   50.7220 H   0  0  0  0  0  0  0  0  0  0  0  0
   66.9240   28.4960   51.6270 C   0  0  0  0  0  0  0  0  0  0  0  0
   67.9181   28.6625   51.1866 H   0  0  0  0  0  0  0  0  0  0  0  0
   66.9694   28.4483   52.7250 H   0  0  0  0  0  0  0  0  0  0  0  0
   66.0130   29.6780   51.2490 C   0  0  0  0  0  0  0  0  0  0  0  0
   65.3569   29.9079   52.1014 H   0  0  0  0  0  0  0  0  0  0  0  0
   65.4274   29.3873   50.3644 H   0  0  0  0  0  0  0  0  0  0  0  0
   66.7880   30.8820   50.9070 N   0  0  0  0  0  0  0  0  0  0  0  0
   67.7030   30.5860   50.4880 H   0  0  0  0  0  0  0  0  0  0  0  0
   67.0390   31.7640   52.0580 C   0  0  0  0  0  0  0  0  0  0  0  0
   68.0746   31.6141   52.3972 H   0  0  0  0  0  0  0  0  0  0  0  0
   66.3128   31.5028   52.8419 H   0  0  0  0  0  0  0  0  0  0  0  0
   66.8420   33.2550   51.7180 C   0  0  0  0  0  0  0  0  0  0  0  0
   67.6755   33.5883   51.0823 H   0  0  0  0  0  0  0  0  0  0  0  0
   66.8137   33.8198   52.6615 H   0  0  0  0  0  0  0  0  0  0  0  0
   65.5160   33.5020   50.9720 C   0  0  0  0  0  0  0  0  0  0  0  0
   65.4773   34.5564   50.6611 H   0  0  0  0  0  0  0  0  0  0  0  0
   64.6944   33.2525   51.6595 H   0  0  0  0  0  0  0  0  0  0  0  0
   65.3730   32.6480   49.7720 N   0  0  0  0  0  0  0  0  0  0  0  0
   64.9440   31.7380   50.0530 H   0  0  0  0  0  0  0  0  0  0  0  0
   66.3120   32.4130   49.3770 H   0  0  0  0  0  0  0  0  0  0  0  0
   64.5680   33.2870   48.7080 C   0  0  0  0  0  0  0  0  0  0  0  0
   65.2482   33.6991   47.9480 H   0  0  0  0  0  0  0  0  0  0  0  0
   63.9609   34.0782   49.1722 H   0  0  0  0  0  0  0  0  0  0  0  0
   63.6000   32.2820   48.0220 C   0  0  1  0  0  0  0  0  0  0  0  0
   64.2646   31.8210   47.2765 H   0  0  0  0  0  0  0  0  0  0  0  0
   63.0600   31.2130   48.8930 N   0  0  0  0  0  0  0  0  0  0  0  0
   62.6150   31.6820   50.2310 C   0  0  0  0  0  0  0  0  0  0  0  0
   63.4960   31.8248   50.8739 H   0  0  0  0  0  0  0  0  0  0  0  0
   61.9428   30.9259   50.6628 H   0  0  0  0  0  0  0  0  0  0  0  0
   61.8500   33.0150   50.1200 C   0  0  0  0  0  0  0  0  0  0  0  0
   61.1947   32.9712   49.2376 H   0  0  0  0  0  0  0  0  0  0  0  0
   62.5969   33.8182   50.0358 H   0  0  0  0  0  0  0  0  0  0  0  0
   60.9870   33.3150   51.3580 C   0  0  0  0  0  0  0  0  0  0  0  0
   61.3997   34.2030   51.8592 H   0  0  0  0  0  0  0  0  0  0  0  0
   61.0181   32.4156   51.9905 H   0  0  0  0  0  0  0  0  0  0  0  0
   59.5020   33.5840   51.0430 C   0  0  0  0  0  0  0  0  0  0  0  0
   59.2257   34.5694   51.4463 H   0  0  0  0  0  0  0  0  0  0  0  0
   58.9050   32.7845   51.5061 H   0  0  0  0  0  0  0  0  0  0  0  0
   59.2370   33.5710   49.5950 N   0  0  0  0  0  0  0  0  0  0  0  0
   59.6900   34.5980   48.8150 C   0  0  0  0  0  0  0  0  0  0  0  0
   60.2578   35.4208   49.2739 H   0  0  0  0  0  0  0  0  0  0  0  0
   59.4390   34.6130   47.4410 C   0  0  0  0  0  0  0  0  0  0  0  0
   59.8088   35.4458   46.8248 H   0  0  0  0  0  0  0  0  0  0  0  0
   58.7140   33.5650   46.8430 C   0  0  0  0  0  0  0  0  0  0  0  0
   58.4470   33.5600   45.4150 N   0  0  0  0  0  0  0  0  0  0  0  0
   57.4470   32.6480   44.8460 C   0  0  0  0  0  0  0  0  0  0  0  0
   56.9003   32.1494   45.6599 H   0  0  0  0  0  0  0  0  0  0  0  0
   56.7405   33.2193   44.2259 H   0  0  0  0  0  0  0  0  0  0  0  0
   57.9510   31.8920   44.2259 H   0  0  0  0  0  0  0  0  0  0  0  0
   59.1710   34.4680   44.5180 C   0  0  0  0  0  0  0  0  0  0  0  0
   59.7471   35.1906   45.1146 H   0  0  0  0  0  0  0  0  0  0  0  0
   59.8565   33.8871   43.8835 H   0  0  0  0  0  0  0  0  0  0  0  0
   58.4521   35.0070   43.8835 H   0  0  0  0  0  0  0  0  0  0  0  0
   58.2620   32.5200   47.6700 C   0  0  0  0  0  0  0  0  0  0  0  0
   57.6915   31.6850   47.2372 H   0  0  0  0  0  0  0  0  0  0  0  0
   58.5360   32.5410   49.0370 C   0  0  0  0  0  0  0  0  0  0  0  0
   58.1827   31.7168   49.6741 H   0  0  0  0  0  0  0  0  0  0  0  0
   61.9100   30.7100   48.1160 C   0  0  0  0  0  0  0  0  0  0  0  0
   62.2397   29.9093   47.4376 H   0  0  0  0  0  0  0  0  0  0  0  0
   61.1425   30.3030   48.7907 H   0  0  0  0  0  0  0  0  0  0  0  0
   61.3410   31.8720   47.3070 C   0  0  0  0  0  0  0  0  0  0  0  0
   61.1494   31.5609   46.2694 H   0  0  0  0  0  0  0  0  0  0  0  0
   60.3833   32.2251   47.7171 H   0  0  0  0  0  0  0  0  0  0  0  0
   62.4050   32.9530   47.3490 C   0  0  0  0  0  0  0  0  0  0  0  0
   62.6652   33.2830   46.3325 H   0  0  0  0  0  0  0  0  0  0  0  0
   62.0696   33.8514   47.8879 H   0  0  0  0  0  0  0  0  0  0  0  0
   60.0940   28.3880   49.3690 C   0  0  0  0  0  0  0  0  0  0  0  0
   60.7430   27.5120   48.4620 C   0  0  0  0  0  0  0  0  0  0  0  0
   61.5661   26.8768   48.8212 H   0  0  0  0  0  0  0  0  0  0  0  0
   60.3570   27.4400   47.1200 C   0  0  0  0  0  0  0  0  0  0  0  0
   60.8888   26.7642   46.4341 H   0  0  0  0  0  0  0  0  0  0  0  0
   59.3040   28.2180   46.6460 C   0  0  0  0  0  0  0  0  0  0  0  0
   58.8230   28.1170   44.9610 Cl  0  0  0  0  0  0  0  0  0  0  0  0
   58.6070   29.0450   47.5230 C   0  0  0  0  0  0  0  0  0  0  0  0
   57.7615   29.6443   47.1542 H   0  0  0  0  0  0  0  0  0  0  0  0
   58.9760   29.1180   48.8710 C   0  0  0  0  0  0  0  0  0  0  0  0
   58.2270   29.8850   49.6960 N   0  0  0  0  0  0  0  0  0  0  0  0
   58.4900   30.0040   51.0160 C   0  0  0  0  0  0  0  0  0  0  0  0
   57.6530   30.7950   51.8120 C   0  0  0  0  0  0  0  0  0  0  0  0
   56.7859   31.3002   51.3616 H   0  0  0  0  0  0  0  0  0  0  0  0
  1  2  1  0
  2  3  2  0
  3  4  1  0
  3  5  1  0
  5  6  1  0
  5  7  2  0
  7  8  1  0
  8  9  2  0
  9 10  1  0
 10 11  1  0
 10 12  1  0
 10 13  1  0
 13 14  1  0
 13 15  1  0
 13 16  1  0
 16 17  1  0
 16 18  1  0
 16 19  1  0
 19 20  1  0
 19 21  1  0
 21 22  1  0
 21 23  1  0
 21 24  1  0
 24 25  1  0
 24 26  1  0
 24 27  1  0
 27 28  1  0
 27 29  1  0
 27 30  1  0
 30 31  1  0
 30 32  1  0
 30 33  1  0
 33 34  1  0
 33 35  1  0
 35 36  1  0
 35 37  1  0
 35 38  1  0
 38 39  1  0
 38 40  1  0
 38 41  1  0
 41 42  1  0
 41 43  1  0
 41 44  1  0
 44 45  1  0
 44 46  1  0
 44 47  1  0
 47 48  1  0
 47 49  1  0
 47 50  1  0
 50 51  1  6
 50 52  1  0
 52 53  1  0
 53 54  1  0
 53 55  1  0
 53 56  1  0
 56 57  1  0
 56 58  1  0
 56 59  1  0
 59 60  1  0
 59 61  1  0
 59 62  1  0
 62 63  1  0
 62 64  1  0
 62 65  1  0
 65 66  2  0
 66 67  1  0
 66 68  1  0
 68 69  1  0
 68 70  2  0
 70 71  1  0
 71 72  1  0
 72 73  1  0
 72 74  1  0
 72 75  1  0
 71 76  1  0
 76 77  1  0
 76 78  1  0
 76 79  1  0
 70 80  1  0
 80 81  1  0
 80 82  2  0
 82 83  1  0
 52 84  1  0
 84 85  1  0
 84 86  1  0
 84 87  1  0
 87 88  1  0
 87 89  1  0
 87 90  1  0
 90 91  1  0
 90 92  1  0
  8 93  1  0
 93 94  2  0
 94 95  1  0
 94 96  1  0
 96 97  1  0
 96 98  2  0
 98 99  1  0
 98100  1  0
100101  1  0
100102  2  0
102103  1  0
103104  1  0
104105  2  0
105106  1  0
105  2  1  0
104  7  1  0
 90 50  1  0
102 93  1  0
 82 65  1  0
M  CHG  3  44   1  65   1 103  -1
M  END
>  <UniqueID>  (22) 
22

>  <SMILES>  (22) 
CN(C)c1cc[n+](CCCCN2CCC[C@H]2C[NH2+]CCCNCCCCNCCC/N=c2/c3ccccc3[n-]c3cc(Cl)ccc23)cc1

>  <Energy>  (22) 
132.6860965684997

>  <Genealogy>  (22) 
CN(C)c1cc[n+](CCCCN2CCCC2C[NH2+]CCCNCCCCNCCCN=c2c3ccccc3[n-]c3cc(Cl)ccc23)cc1 (protonated)
CN(C)c1cc[n+](CCCCN2CCC[C@H]2C[NH2+]CCCNCCCCNCCCN=c2c3ccccc3[n-]c3cc(Cl)ccc23)cc1 (chirality)
CN(C)c1cc[n+](CCCCN2CCC[C@H]2C[NH2+]CCCNCCCCNCCC/N=c2/c3ccccc3[n-]c3cc(Cl)ccc23)cc1 (cis-trans isomerization)
CN(C)c1cc[n+](CCCCN2CCC[C@H]2C[NH2+]CCCNCCCCNCCC/N=c2/c3ccccc3[n-]c3cc(Cl)ccc23)cc1 (3D coordinates assigned)
CN(C)c1cc[n+](CCCCN2CCC[C@H]2C[NH2+]CCCNCCCCNCCC/N=c2/c3ccccc3[n-]c3cc(Cl)ccc23)cc1 (nonaromatic ring conformer: 132.6860965684997 kcal/mol)

>  <smiles>  (22) 
CN(C)c1cc[n+](CCCCN2CCCC2CNCCCNCCCCNCCCN=c2c3ccccc3[nH]c3cc(Cl)ccc23)cc1

>  <score_type>  (22) 
oracle

>  <origin>  (22) 
adg

>  <m_score__min__energy>  (22) 
-7.1399999999999997

>  <m_primary>  (22) 
energy

$$$$
22:0
     RDKit          3D

 52 52  0  0  0  0  0  0  0  0999 V2000
   63.2420   33.8260   46.7360 C   0  0  0  0  0  0  0  0  0  0  0  0
   63.1810   32.5620   47.5980 C   0  0  0  0  0  0  0  0  0  0  0  0
   62.5550   32.8030   48.9220 N   0  0  2  0  0  0  0  0  0  0  0  0
   62.6150   34.2250   49.3150 C   0  0  0  0  0  0  0  0  0  0  0  0
   63.0990   31.9140   49.9850 C   0  0  0  0  0  0  0  0  0  0  0  0
   62.3090   30.6150   50.2570 C   0  0  0  0  0  0  0  0  0  0  0  0
   61.3060   30.4030   49.2870 O   0  0  0  0  0  0  0  0  0  0  0  0
   60.2910   29.5720   49.8140 C   0  0  0  0  0  0  0  0  0  0  0  0
   58.9150   30.1080   49.4160 C   0  0  0  0  0  0  0  0  0  0  0  0
   58.8120   31.5490   49.6900 N   0  0  0  0  0  0  0  0  0  0  0  0
   58.0540   31.9940   50.8680 C   0  0  0  0  0  0  0  0  0  0  0  0
   57.9120   30.8530   51.8790 C   0  0  0  0  0  0  0  0  0  0  0  0
   56.7360   30.1110   51.6150 O   0  0  0  0  0  0  0  0  0  0  0  0
   55.5960   30.8380   52.0100 C   0  0  0  0  0  0  0  0  0  0  0  0
   59.4880   32.5150   48.8590 C   0  0  0  0  0  0  0  0  0  0  0  0
   59.6770   33.6850   49.2870 O   0  0  0  0  0  0  0  0  0  0  0  0
   59.8880   32.1610   47.5260 N   0  0  0  0  0  0  0  0  0  0  0  0
   59.0820   32.1480   46.3380 C   0  0  0  0  0  0  0  0  0  0  0  0
   58.4510   30.9780   45.8720 C   0  0  0  0  0  0  0  0  0  0  0  0
   57.6480   31.0170   44.7310 C   0  0  0  0  0  0  0  0  0  0  0  0
   57.4490   32.2200   44.0530 C   0  0  0  0  0  0  0  0  0  0  0  0
   58.0480   33.3910   44.5190 C   0  0  0  0  0  0  0  0  0  0  0  0
   58.8580   33.3600   45.6600 C   0  0  0  0  0  0  0  0  0  0  0  0
   59.6450   34.9920   46.2790 Br  0  0  0  0  0  0  0  0  0  0  0  0
   63.2848   34.7119   47.3867 H   0  0  0  0  0  0  0  0  0  0  0  0
   64.1396   33.7938   46.1010 H   0  0  0  0  0  0  0  0  0  0  0  0
   62.3454   33.8804   46.1010 H   0  0  0  0  0  0  0  0  0  0  0  0
   62.5941   31.7998   47.0644 H   0  0  0  0  0  0  0  0  0  0  0  0
   64.2145   32.2290   47.7741 H   0  0  0  0  0  0  0  0  0  0  0  0
   61.5370   32.5630   48.8440 H   0  0  0  0  0  0  0  0  0  0  0  0
   62.6183   34.3023   50.4123 H   0  0  0  0  0  0  0  0  0  0  0  0
   63.5331   34.6782   48.9128 H   0  0  0  0  0  0  0  0  0  0  0  0
   61.7384   34.7539   48.9128 H   0  0  0  0  0  0  0  0  0  0  0  0
   64.1215   31.6306   49.6949 H   0  0  0  0  0  0  0  0  0  0  0  0
   63.0379   32.4965   50.9161 H   0  0  0  0  0  0  0  0  0  0  0  0
   63.0057   29.7639   50.2417 H   0  0  0  0  0  0  0  0  0  0  0  0
   61.8228   30.7078   51.2394 H   0  0  0  0  0  0  0  0  0  0  0  0
   60.4130   28.5529   49.4184 H   0  0  0  0  0  0  0  0  0  0  0  0
   60.3692   29.5590   50.9111 H   0  0  0  0  0  0  0  0  0  0  0  0
   58.7581   29.9340   48.3412 H   0  0  0  0  0  0  0  0  0  0  0  0
   58.1499   29.5831   50.0068 H   0  0  0  0  0  0  0  0  0  0  0  0
   58.5829   32.8338   51.3424 H   0  0  0  0  0  0  0  0  0  0  0  0
   57.0507   32.3099   50.5460 H   0  0  0  0  0  0  0  0  0  0  0  0
   58.7856   30.1890   51.8029 H   0  0  0  0  0  0  0  0  0  0  0  0
   57.8500   31.2763   52.8924 H   0  0  0  0  0  0  0  0  0  0  0  0
   55.5445   30.8709   53.1083 H   0  0  0  0  0  0  0  0  0  0  0  0
   55.6596   31.8627   51.6151 H   0  0  0  0  0  0  0  0  0  0  0  0
   54.6937   30.3482   51.6151 H   0  0  0  0  0  0  0  0  0  0  0  0
   58.5918   30.0289   46.4100 H   0  0  0  0  0  0  0  0  0  0  0  0
   57.1704   30.0961   44.3651 H   0  0  0  0  0  0  0  0  0  0  0  0
   56.8199   32.2454   43.1510 H   0  0  0  0  0  0  0  0  0  0  0  0
   57.8832   34.3404   43.9885 H   0  0  0  0  0  0  0  0  0  0  0  0
  1  2  1  0
  2  3  1  0
  3  4  1  0
  3  5  1  0
  5  6  1  0
  6  7  1  0
  7  8  1  0
  8  9  1  0
  9 10  1  0
 10 11  1  0
 11 12  1  0
 12 13  1  0
 13 14  1  0
 10 15  1  0
 15 16  2  0
 15 17  1  0
 17 18  1  0
 18 19  2  0
 19 20  1  0
 20 21  2  0
 21 22  1  0
 22 23  2  0
 23 24  1  0
 23 18  1  0
  1 25  1  0
  1 26  1  0
  1 27  1  0
  2 28  1  0
  2 29  1  0
  3 30  1  6
  4 31  1  0
  4 32  1  0
  4 33  1  0
  5 34  1  0
  5 35  1  0
  6 36  1  0
  6 37  1  0
  8 38  1  0
  8 39  1  0
  9 40  1  0
  9 41  1  0
 11 42  1  0
 11 43  1  0
 12 44  1  0
 12 45  1  0
 14 46  1  0
 14 47  1  0
 14 48  1  0
 19 49  1  0
 20 50  1  0
 21 51  1  0
 22 52  1  0
M  CHG  2   3   1  17  -1
M  END
>  <UniqueID>  (23) 
23

>  <SMILES>  (23) 
CC[N@H+](C)CCOCCN(CCOC)C(=O)[N-]c1ccccc1Br

>  <Energy>  (23) 
49.81857890172771

>  <Genealogy>  (23) 
CC[NH+](C)CCOCCN(CCOC)C(=O)[N-]c1ccccc1Br (protonated)
CC[N@H+](C)CCOCCN(CCOC)C(=O)[N-]c1ccccc1Br (chirality)
CC[N@H+](C)CCOCCN(CCOC)C(=O)[N-]c1ccccc1Br (3D coordinates assigned)
CC[N@H+](C)CCOCCN(CCOC)C(=O)[N-]c1ccccc1Br (optimized conformer: 49.81857890172771 kcal/mol)

>  <smiles>  (23) 
CCN(C)CCOCCN(CCOC)C(=O)Nc1ccccc1Br

>  <score_type>  (23) 
oracle

>  <origin>  (23) 
adg

>  <m_score__min__energy>  (23) 
-5.3799999999999999

>  <m_primary>  (23) 
energy

$$$$
23:0
     RDKit          3D

 35 36  0  0  0  0  0  0  0  0999 V2000
   61.5890   34.2390   48.9350 C   0  0  0  0  0  0  0  0  0  0  0  0
   60.4790   34.2380   47.9680 N   0  0  0  0  0  0  0  0  0  0  0  0
   59.3480   33.4420   48.4870 C   0  0  0  0  0  0  0  0  0  0  0  0
   58.2810   33.1940   47.4010 C   0  0  0  0  0  0  0  0  0  0  0  0
   58.4930   34.0990   46.2550 N   0  0  0  0  0  0  0  0  0  0  0  0
   57.4080   33.9690   45.2620 C   0  0  0  0  0  0  0  0  0  0  0  0
   57.5180   32.6650   44.5370 C   0  0  0  0  0  0  0  0  0  0  0  0
   57.7640   32.6530   43.3000 O   0  0  0  0  0  0  0  0  0  0  0  0
   57.3940   31.4390   45.2660 N   0  0  0  0  0  0  0  0  0  0  0  0
   57.8370   30.1650   44.7850 C   0  0  0  0  0  0  0  0  0  0  0  0
   59.1250   29.7290   45.1150 C   0  0  0  0  0  0  0  0  0  0  0  0
   59.5830   28.4930   44.6630 C   0  0  0  0  0  0  0  0  0  0  0  0
   58.7380   27.6890   43.8970 C   0  0  0  0  0  0  0  0  0  0  0  0
   57.4750   28.1060   43.6090 N   0  0  0  0  0  0  0  0  0  0  0  0
   57.0010   29.3090   44.0370 C   0  0  0  0  0  0  0  0  0  0  0  0
   55.3190   29.7170   43.7170 Cl  0  0  0  0  0  0  0  0  0  0  0  0
   59.8020   33.8200   45.6230 C   0  0  0  0  0  0  0  0  0  0  0  0
   60.9290   33.7070   46.6700 C   0  0  0  0  0  0  0  0  0  0  0  0
   61.1842   34.2386   49.9578 H   0  0  0  0  0  0  0  0  0  0  0  0
   62.2069   33.3414   48.7849 H   0  0  0  0  0  0  0  0  0  0  0  0
   62.2053   35.1377   48.7849 H   0  0  0  0  0  0  0  0  0  0  0  0
   59.7274   32.4726   48.8424 H   0  0  0  0  0  0  0  0  0  0  0  0
   58.8790   34.0055   49.3071 H   0  0  0  0  0  0  0  0  0  0  0  0
   58.3496   32.1514   47.0570 H   0  0  0  0  0  0  0  0  0  0  0  0
   57.2858   33.3865   47.8282 H   0  0  0  0  0  0  0  0  0  0  0  0
   56.4374   34.0164   45.7774 H   0  0  0  0  0  0  0  0  0  0  0  0
   57.4901   34.7898   44.5343 H   0  0  0  0  0  0  0  0  0  0  0  0
   59.7776   30.3635   45.7327 H   0  0  0  0  0  0  0  0  0  0  0  0
   60.6006   28.1544   44.9076 H   0  0  0  0  0  0  0  0  0  0  0  0
   59.0933   26.7166   43.5254 H   0  0  0  0  0  0  0  0  0  0  0  0
   56.8530   27.4750   43.0550 H   0  0  0  0  0  0  0  0  0  0  0  0
   59.7350   32.8728   45.0678 H   0  0  0  0  0  0  0  0  0  0  0  0
   60.0425   34.6558   44.9495 H   0  0  0  0  0  0  0  0  0  0  0  0
   61.2092   32.6499   46.7883 H   0  0  0  0  0  0  0  0  0  0  0  0
   61.7952   34.2914   46.3263 H   0  0  0  0  0  0  0  0  0  0  0  0
  1  2  1  0
  2  3  1  0
  3  4  1  0
  4  5  1  0
  5  6  1  0
  6  7  1  0
  7  8  2  0
  7  9  1  0
  9 10  1  0
 10 11  2  0
 11 12  1  0
 12 13  2  0
 13 14  1  0
 14 15  2  0
 15 16  1  0
  5 17  1  0
 17 18  1  0
 18  2  1  0
 15 10  1  0
  1 19  1  0
  1 20  1  0
  1 21  1  0
  3 22  1  0
  3 23  1  0
  4 24  1  0
  4 25  1  0
  6 26  1  0
  6 27  1  0
 11 28  1  0
 12 29  1  0
 13 30  1  0
 14 31  1  0
 17 32  1  0
 17 33  1  0
 18 34  1  0
 18 35  1  0
M  CHG  2   9  -1  14   1
M  END
>  <UniqueID>  (24) 
24

>  <SMILES>  (24) 
CN1CCN(CC(=O)[N-]c2ccc[nH+]c2Cl)CC1

>  <Energy>  (24) 
47.67273419665355

>  <Genealogy>  (24) 
CN1CCN(CC(=O)[N-]c2ccc[nH+]c2Cl)CC1 (protonated)
CN1CCN(CC(=O)[N-]c2ccc[nH+]c2Cl)CC1 (3D coordinates assigned)
CN1CCN(CC(=O)[N-]c2ccc[nH+]c2Cl)CC1 (nonaromatic ring conformer: 47.67273419665355 kcal/mol)

>  <smiles>  (24) 
CN1CCN(CC(=O)Nc2cccnc2Cl)CC1

>  <score_type>  (24) 
oracle

>  <origin>  (24) 
adg

>  <m_score__min__energy>  (24) 
-7.1200000000000001

>  <m_primary>  (24) 
energy

$$$$
24:0
     RDKit          3D

 46 48  0  0  0  0  0  0  0  0999 V2000
   57.0550   31.5930   43.7050 C   0  0  0  0  0  0  0  0  0  0  0  0
   58.0860   31.4600   44.7570 N   0  0  0  0  0  0  0  0  0  0  0  0
   58.7130   32.5870   45.2550 C   0  0  0  0  0  0  0  0  0  0  0  0
   58.6260   33.8420   44.5980 C   0  0  0  0  0  0  0  0  0  0  0  0
   59.2080   34.9830   45.1470 C   0  0  0  0  0  0  0  0  0  0  0  0
   59.8970   34.9080   46.3510 C   0  0  0  0  0  0  0  0  0  0  0  0
   60.0390   33.6820   46.9970 C   0  0  0  0  0  0  0  0  0  0  0  0
   59.4770   32.5080   46.4510 C   0  0  0  0  0  0  0  0  0  0  0  0
   59.6450   31.2630   47.0830 C   0  0  0  0  0  0  0  0  0  0  0  0
   60.3510   31.1730   48.3350 N   0  0  0  0  0  0  0  0  0  0  0  0
   61.7800   30.8650   48.3950 C   0  0  0  0  0  0  0  0  0  0  0  0
   62.5030   31.3530   47.1250 C   0  0  0  0  0  0  0  0  0  0  0  0
   63.6020   32.3060   47.4230 N   0  0  0  0  0  0  0  0  0  0  0  0
   63.3920   33.5980   46.7400 C   0  0  0  0  0  0  0  0  0  0  0  0
   63.7060   32.5300   48.8750 C   0  0  0  0  0  0  0  0  0  0  0  0
   59.1740   30.0990   46.4490 C   0  0  0  0  0  0  0  0  0  0  0  0
   59.4840   28.8210   46.9580 C   0  0  0  0  0  0  0  0  0  0  0  0
   59.0510   27.6680   46.3090 C   0  0  0  0  0  0  0  0  0  0  0  0
   58.3230   27.7610   45.1240 C   0  0  0  0  0  0  0  0  0  0  0  0
   57.9090   26.5730   44.4420 N   0  0  0  0  0  0  0  0  0  0  0  0
   58.0140   29.0200   44.5980 C   0  0  0  0  0  0  0  0  0  0  0  0
   58.4080   30.2130   45.2580 C   0  0  0  0  0  0  0  0  0  0  0  0
   56.0678   31.7204   44.1731 H   0  0  0  0  0  0  0  0  0  0  0  0
   57.2801   32.4695   43.0797 H   0  0  0  0  0  0  0  0  0  0  0  0
   57.0503   30.6880   43.0797 H   0  0  0  0  0  0  0  0  0  0  0  0
   58.0905   33.9152   43.6399 H   0  0  0  0  0  0  0  0  0  0  0  0
   59.1215   35.9472   44.6247 H   0  0  0  0  0  0  0  0  0  0  0  0
   60.3304   35.8167   46.7942 H   0  0  0  0  0  0  0  0  0  0  0  0
   60.5959   33.6282   47.9441 H   0  0  0  0  0  0  0  0  0  0  0  0
   59.8010   31.1360   49.2230 H   0  0  0  0  0  0  0  0  0  0  0  0
   62.2188   31.3624   49.2725 H   0  0  0  0  0  0  0  0  0  0  0  0
   61.9009   29.7743   48.4703 H   0  0  0  0  0  0  0  0  0  0  0  0
   62.9246   30.4814   46.6029 H   0  0  0  0  0  0  0  0  0  0  0  0
   61.7644   31.8806   46.5036 H   0  0  0  0  0  0  0  0  0  0  0  0
   64.5170   31.9160   47.0990 H   0  0  0  0  0  0  0  0  0  0  0  0
   63.2629   34.3924   47.4898 H   0  0  0  0  0  0  0  0  0  0  0  0
   64.2648   33.8262   46.1107 H   0  0  0  0  0  0  0  0  0  0  0  0
   62.4918   33.5380   46.1107 H   0  0  0  0  0  0  0  0  0  0  0  0
   63.3013   31.6584   49.4104 H   0  0  0  0  0  0  0  0  0  0  0  0
   64.7618   32.6712   49.1495 H   0  0  0  0  0  0  0  0  0  0  0  0
   63.1325   33.4277   49.1495 H   0  0  0  0  0  0  0  0  0  0  0  0
   60.0763   28.7339   47.8808 H   0  0  0  0  0  0  0  0  0  0  0  0
   59.2842   26.6801   46.7329 H   0  0  0  0  0  0  0  0  0  0  0  0
   57.0250   26.5540   43.8870 H   0  0  0  0  0  0  0  0  0  0  0  0
   58.4830   25.7020   44.4900 H   0  0  0  0  0  0  0  0  0  0  0  0
   57.4542   29.0866   43.6535 H   0  0  0  0  0  0  0  0  0  0  0  0
  1  2  1  0
  2  3  2  0
  3  4  1  0
  4  5  2  0
  5  6  1  0
  6  7  2  0
  7  8  1  0
  8  9  2  0
  9 10  1  0
 10 11  1  0
 11 12  1  0
 12 13  1  0
 13 14  1  0
 13 15  1  0
  9 16  1  0
 16 17  2  0
 17 18  1  0
 18 19  2  0
 19 20  1  0
 19 21  1  0
 21 22  2  0
 22  2  1  0
  8  3  1  0
 22 16  1  0
  1 23  1  0
  1 24  1  0
  1 25  1  0
  4 26  1  0
  5 27  1  0
  6 28  1  0
  7 29  1  0
 10 30  1  0
 11 31  1  0
 11 32  1  0
 12 33  1  0
 12 34  1  0
 13 35  1  0
 14 36  1  0
 14 37  1  0
 14 38  1  0
 15 39  1  0
 15 40  1  0
 15 41  1  0
 17 42  1  0
 18 43  1  0
 20 44  1  0
 20 45  1  0
 21 46  1  0
M  CHG  2   2   1  13   1
M  END
>  <UniqueID>  (25) 
25

>  <SMILES>  (25) 
C[n+]1c2ccccc2c(NCC[NH+](C)C)c2ccc(N)cc21

>  <Energy>  (25) 
72.05821588493285

>  <Genealogy>  (25) 
C[n+]1c2ccccc2c(NCC[NH+](C)C)c2ccc(N)cc21 (protonated)
C[n+]1c2ccccc2c(NCC[NH+](C)C)c2ccc(N)cc21 (3D coordinates assigned)
C[n+]1c2ccccc2c(NCC[NH+](C)C)c2ccc(N)cc21 (optimized conformer: 72.05821588493285 kcal/mol)

>  <smiles>  (25) 
CN(C)CCNc1c2ccccc2[n+](C)c2cc(N)ccc12

>  <score_type>  (25) 
oracle

>  <origin>  (25) 
adg

>  <m_score__min__energy>  (25) 
-4.2599999999999998

>  <m_primary>  (25) 
energy

$$$$
25:0
     RDKit          3D

 51 50  0  0  0  0  0  0  0  0999 V2000
   56.8995   34.0859   44.9732 H   0  0  0  0  0  0  0  0  0  0  0  0
   57.8150   33.8880   45.5500 C   0  0  0  0  0  0  0  0  0  0  0  0
   58.9440   34.5420   45.2350 C   0  0  0  0  0  0  0  0  0  0  0  0
   59.0689   34.9373   44.2161 H   0  0  0  0  0  0  0  0  0  0  0  0
   60.0460   34.7480   46.2450 C   0  0  0  0  0  0  0  0  0  0  0  0
   60.6930   35.5685   45.9012 H   0  0  0  0  0  0  0  0  0  0  0  0
   59.5783   34.9857   47.2118 H   0  0  0  0  0  0  0  0  0  0  0  0
   60.8680   33.5390   46.4250 N   0  0  0  0  0  0  0  0  0  0  0  0
   60.6290   32.8790   45.6500 H   0  0  0  0  0  0  0  0  0  0  0  0
   60.6290   33.0780   47.3340 H   0  0  0  0  0  0  0  0  0  0  0  0
   62.3090   33.8470   46.3720 C   0  0  0  0  0  0  0  0  0  0  0  0
   62.7866   33.1857   45.6340 H   0  0  0  0  0  0  0  0  0  0  0  0
   62.4202   34.9043   46.0897 H   0  0  0  0  0  0  0  0  0  0  0  0
   62.9920   33.6450   47.7350 C   0  0  0  0  0  0  0  0  0  0  0  0
   63.8980   34.2678   47.7704 H   0  0  0  0  0  0  0  0  0  0  0  0
   62.2706   33.9321   48.5141 H   0  0  0  0  0  0  0  0  0  0  0  0
   63.3900   32.1840   47.9870 C   0  0  0  0  0  0  0  0  0  0  0  0
   64.4499   32.0498   47.7249 H   0  0  0  0  0  0  0  0  0  0  0  0
   63.2231   31.9542   49.0497 H   0  0  0  0  0  0  0  0  0  0  0  0
   62.5400   31.2280   47.1420 C   0  0  0  0  0  0  0  0  0  0  0  0
   62.3661   31.6731   46.1512 H   0  0  0  0  0  0  0  0  0  0  0  0
   63.0718   30.2715   47.0311 H   0  0  0  0  0  0  0  0  0  0  0  0
   61.2500   30.9910   47.8030 N   0  0  0  0  0  0  0  0  0  0  0  0
   60.6050   31.7920   47.6030 H   0  0  0  0  0  0  0  0  0  0  0  0
   61.3930   30.8190   49.2580 C   0  0  0  0  0  0  0  0  0  0  0  0
   60.8255   29.9285   49.5663 H   0  0  0  0  0  0  0  0  0  0  0  0
   62.4648   30.7094   49.4800 H   0  0  0  0  0  0  0  0  0  0  0  0
   60.8710   32.0360   50.0450 C   0  0  0  0  0  0  0  0  0  0  0  0
   60.4848   31.6970   51.0176 H   0  0  0  0  0  0  0  0  0  0  0  0
   61.7003   32.7447   50.1862 H   0  0  0  0  0  0  0  0  0  0  0  0
   59.7870   32.7190   49.3050 N   0  0  0  0  0  0  0  0  0  0  0  0
   58.4760   32.2740   49.8050 C   0  0  0  0  0  0  0  0  0  0  0  0
   58.4830   32.2764   50.9050 H   0  0  0  0  0  0  0  0  0  0  0  0
   57.6940   32.9570   49.4418 H   0  0  0  0  0  0  0  0  0  0  0  0
   58.2713   31.2560   49.4418 H   0  0  0  0  0  0  0  0  0  0  0  0
   59.8880   34.1830   49.4420 C   0  0  0  0  0  0  0  0  0  0  0  0
   59.9065   34.4510   50.5087 H   0  0  0  0  0  0  0  0  0  0  0  0
   60.8125   34.5335   48.9598 H   0  0  0  0  0  0  0  0  0  0  0  0
   59.0204   34.6571   48.9598 H   0  0  0  0  0  0  0  0  0  0  0  0
   57.7750   32.8920   46.6730 C   0  0  0  0  0  0  0  0  0  0  0  0
   56.8257   32.3376   46.6349 H   0  0  0  0  0  0  0  0  0  0  0  0
   57.8569   33.4247   47.6319 H   0  0  0  0  0  0  0  0  0  0  0  0
   58.8940   31.9500   46.5470 N   0  0  0  0  0  0  0  0  0  0  0  0
   59.2070   31.6550   47.5020 H   0  0  0  0  0  0  0  0  0  0  0  0
   58.5300   30.7540   45.7700 C   0  0  0  0  0  0  0  0  0  0  0  0
   59.2479   30.6383   44.9446 H   0  0  0  0  0  0  0  0  0  0  0  0
   57.5044   30.8975   45.3990 H   0  0  0  0  0  0  0  0  0  0  0  0
   58.5430   29.4760   46.6140 C   0  0  0  0  0  0  0  0  0  0  0  0
   58.5403   29.7415   47.6815 H   0  0  0  0  0  0  0  0  0  0  0  0
   57.6509   28.8752   46.3833 H   0  0  0  0  0  0  0  0  0  0  0  0
   59.4471   28.8934   46.3833 H   0  0  0  0  0  0  0  0  0  0  0  0
  1  2  1  0
  2  3  2  0
  3  4  1  0
  3  5  1  0
  5  6  1  0
  5  7  1  0
  5  8  1  0
  8  9  1  0
  8 10  1  0
  8 11  1  0
 11 12  1  0
 11 13  1  0
 11 14  1  0
 14 15  1  0
 14 16  1  0
 14 17  1  0
 17 18  1  0
 17 19  1  0
 17 20  1  0
 20 21  1  0
 20 22  1  0
 20 23  1  0
 23 24  1  0
 23 25  1  0
 25 26  1  0
 25 27  1  0
 25 28  1  0
 28 29  1  0
 28 30  1  0
 28 31  1  0
 31 32  1  0
 32 33  1  0
 32 34  1  0
 32 35  1  0
 31 36  1  0
 36 37  1  0
 36 38  1  0
 36 39  1  0
  2 40  1  0
 40 41  1  0
 40 42  1  0
 40 43  1  0
 43 44  1  0
 43 45  1  0
 45 46  1  0
 45 47  1  0
 45 48  1  0
 48 49  1  0
 48 50  1  0
 48 51  1  0
M  CHG  1   8   1
M  END
>  <UniqueID>  (26) 
26

>  <SMILES>  (26) 
CCNC/C=C/C[NH2+]CCCCNCCN(C)C

>  <Energy>  (26) 
32.96981827791933

>  <Genealogy>  (26) 
CCNCC=CC[NH2+]CCCCNCCN(C)C (protonated)
CCNC/C=C/C[NH2+]CCCCNCCN(C)C (cis-trans isomerization)
CCNC/C=C/C[NH2+]CCCCNCCN(C)C (3D coordinates assigned)
CCNC/C=C/C[NH2+]CCCCNCCN(C)C (optimized conformer: 32.96981827791933 kcal/mol)

>  <smiles>  (26) 
CCNCC=CCNCCCCNCCN(C)C

>  <score_type>  (26) 
oracle

>  <origin>  (26) 
adg

>  <m_score__min__energy>  (26) 
-1.5900000000000001

>  <m_primary>  (26) 
energy

$$$$
26:0
     RDKit          3D

 43 45  0  0  0  0  0  0  0  0999 V2000
   59.9150   27.1420   46.3890 C   0  0  0  0  0  0  0  0  0  0  0  0
   59.4560   28.2970   45.5980 N   0  0  0  0  0  0  0  0  0  0  0  0
   60.5870   28.9450   44.9100 C   0  0  0  0  0  0  0  0  0  0  0  0
   58.3490   27.9540   44.6730 C   0  0  0  0  0  0  0  0  0  0  0  0
   56.9390   28.0480   45.2960 C   0  0  0  0  0  0  0  0  0  0  0  0
   56.4900   29.4410   45.3290 N   0  0  0  0  0  0  0  0  0  0  0  0
   57.0530   30.4830   44.5070 C   0  0  0  0  0  0  0  0  0  0  0  0
   56.7370   30.5400   43.1380 C   0  0  0  0  0  0  0  0  0  0  0  0
   57.1960   31.5880   42.3450 C   0  0  0  0  0  0  0  0  0  0  0  0
   57.9640   32.6060   42.9040 C   0  0  0  0  0  0  0  0  0  0  0  0
   58.3010   32.5750   44.2670 C   0  0  0  0  0  0  0  0  0  0  0  0
   57.8700   31.4970   45.0730 C   0  0  0  0  0  0  0  0  0  0  0  0
   58.3570   31.4290   46.4780 C   0  0  0  0  0  0  0  0  0  0  0  0
   58.4520   30.3120   47.0530 O   0  0  0  0  0  0  0  0  0  0  0  0
   58.8790   32.6520   47.1430 C   0  0  0  0  0  0  0  0  0  0  0  0
   59.0150   32.7540   48.5540 C   0  0  0  0  0  0  0  0  0  0  0  0
   58.4630   31.7750   49.4460 N   0  0  0  0  0  0  0  0  0  0  0  0
   59.6570   33.8720   49.1070 C   0  0  0  0  0  0  0  0  0  0  0  0
   60.1190   34.9020   48.2920 C   0  0  0  0  0  0  0  0  0  0  0  0
   59.9360   34.8380   46.9130 C   0  0  0  0  0  0  0  0  0  0  0  0
   59.3130   33.7230   46.3280 C   0  0  0  0  0  0  0  0  0  0  0  0
   59.1030   33.6700   44.8620 C   0  0  0  0  0  0  0  0  0  0  0  0
   59.5890   34.5690   44.1220 O   0  0  0  0  0  0  0  0  0  0  0  0
   59.8236   27.3720   47.4608 H   0  0  0  0  0  0  0  0  0  0  0  0
   59.2974   26.2641   46.1484 H   0  0  0  0  0  0  0  0  0  0  0  0
   60.9667   26.9275   46.1484 H   0  0  0  0  0  0  0  0  0  0  0  0
   59.0720   28.9970   46.2770 H   0  0  0  0  0  0  0  0  0  0  0  0
   61.2884   29.3469   45.6560 H   0  0  0  0  0  0  0  0  0  0  0  0
   61.1048   28.2066   44.2803 H   0  0  0  0  0  0  0  0  0  0  0  0
   60.2118   29.7652   44.2803 H   0  0  0  0  0  0  0  0  0  0  0  0
   58.3921   28.6422   43.8160 H   0  0  0  0  0  0  0  0  0  0  0  0
   58.4949   26.9015   44.3885 H   0  0  0  0  0  0  0  0  0  0  0  0
   56.2358   27.4542   44.6936 H   0  0  0  0  0  0  0  0  0  0  0  0
   56.9756   27.6594   46.3244 H   0  0  0  0  0  0  0  0  0  0  0  0
   55.7240   29.6850   45.9960 H   0  0  0  0  0  0  0  0  0  0  0  0
   56.1203   29.7477   42.6887 H   0  0  0  0  0  0  0  0  0  0  0  0
   56.9511   31.6120   41.2729 H   0  0  0  0  0  0  0  0  0  0  0  0
   58.3088   33.4394   42.2743 H   0  0  0  0  0  0  0  0  0  0  0  0
   57.9820   32.0740   50.3240 H   0  0  0  0  0  0  0  0  0  0  0  0
   58.3680   30.7740   49.1720 H   0  0  0  0  0  0  0  0  0  0  0  0
   59.7969   33.9356   50.1962 H   0  0  0  0  0  0  0  0  0  0  0  0
   60.6296   35.7681   48.7383 H   0  0  0  0  0  0  0  0  0  0  0  0
   60.2817   35.6664   46.2772 H   0  0  0  0  0  0  0  0  0  0  0  0
  1  2  1  0
  2  3  1  0
  2  4  1  0
  4  5  1  0
  5  6  1  0
  6  7  1  0
  7  8  2  0
  8  9  1  0
  9 10  2  0
 10 11  1  0
 11 12  2  0
 12 13  1  0
 13 14  2  0
 13 15  1  0
 15 16  2  0
 16 17  1  0
 16 18  1  0
 18 19  2  0
 19 20  1  0
 20 21  2  0
 21 22  1  0
 22 23  2  0
 12  7  1  0
 21 15  1  0
 22 11  1  0
  1 24  1  0
  1 25  1  0
  1 26  1  0
  2 27  1  0
  3 28  1  0
  3 29  1  0
  3 30  1  0
  4 31  1  0
  4 32  1  0
  5 33  1  0
  5 34  1  0
  6 35  1  0
  8 36  1  0
  9 37  1  0
 10 38  1  0
 17 39  1  0
 17 40  1  0
 18 41  1  0
 19 42  1  0
 20 43  1  0
M  CHG  1   2   1
M  END
>  <UniqueID>  (27) 
27

>  <SMILES>  (27) 
C[NH+](C)CCNc1cccc2c1C(=O)c1c(N)cccc1C2=O

>  <Energy>  (27) 
60.98700508351087

>  <Genealogy>  (27) 
C[NH+](C)CCNc1cccc2c1C(=O)c1c(N)cccc1C2=O (protonated)
C[NH+](C)CCNc1cccc2c1C(=O)c1c(N)cccc1C2=O (3D coordinates assigned)
C[NH+](C)CCNc1cccc2c1C(=O)c1c(N)cccc1C2=O (nonaromatic ring conformer: 60.98700508351087 kcal/mol)

>  <smiles>  (27) 
CN(C)CCNc1cccc2c1C(=O)c1c(N)cccc1C2=O

>  <score_type>  (27) 
oracle

>  <origin>  (27) 
adg

>  <m_score__min__energy>  (27) 
-5.9199999999999999

>  <m_primary>  (27) 
energy

$$$$
27:0
     RDKit          3D

 51 53  0  0  0  0  0  0  0  0999 V2000
   63.3650   33.9990   46.3880 C   0  0  0  0  0  0  0  0  0  0  0  0
   63.0740   33.6190   47.8430 C   0  0  0  0  0  0  0  0  0  0  0  0
   63.5680   32.2720   48.1830 N   0  0  0  0  0  0  0  0  0  0  0  0
   62.6520   31.2120   47.7300 C   0  0  0  0  0  0  0  0  0  0  0  0
   61.2200   31.6590   47.8730 C   0  0  0  0  0  0  0  0  0  0  0  0
   60.4190   31.8310   46.7360 C   0  0  0  0  0  0  0  0  0  0  0  0
   59.0790   32.2240   46.8640 C   0  0  0  0  0  0  0  0  0  0  0  0
   58.2230   32.3830   45.6340 C   0  0  0  0  0  0  0  0  0  0  0  0
   57.3030   31.2370   45.4880 N   0  0  0  0  0  0  0  0  0  0  0  0
   56.6730   31.2200   44.1490 C   0  0  0  0  0  0  0  0  0  0  0  0
   55.9490   29.8840   43.8920 C   0  0  0  0  0  0  0  0  0  0  0  0
   55.7810   29.1620   45.0940 O   0  0  0  0  0  0  0  0  0  0  0  0
   57.0470   28.7770   45.6000 C   0  0  0  0  0  0  0  0  0  0  0  0
   58.0180   29.9710   45.7240 C   0  0  0  0  0  0  0  0  0  0  0  0
   58.5330   32.4140   48.1420 C   0  0  0  0  0  0  0  0  0  0  0  0
   59.3140   32.2140   49.2920 C   0  0  0  0  0  0  0  0  0  0  0  0
   58.7430   32.4120   50.6010 N   0  0  0  0  0  0  0  0  0  0  0  0
   58.8930   33.6200   51.3950 C   0  0  0  0  0  0  0  0  0  0  0  0
   58.3270   33.2880   52.7890 C   0  0  0  0  0  0  0  0  0  0  0  0
   57.5650   31.9630   52.6610 C   0  0  0  0  0  0  0  0  0  0  0  0
   57.9370   31.4870   51.3140 C   0  0  0  0  0  0  0  0  0  0  0  0
   57.5220   30.4040   50.8230 O   0  0  0  0  0  0  0  0  0  0  0  0
   60.6630   31.8440   49.1470 C   0  0  0  0  0  0  0  0  0  0  0  0
   64.0336   34.8721   46.3638 H   0  0  0  0  0  0  0  0  0  0  0  0
   63.8483   33.1528   45.8777 H   0  0  0  0  0  0  0  0  0  0  0  0
   62.4221   34.2450   45.8777 H   0  0  0  0  0  0  0  0  0  0  0  0
   63.5619   34.3510   48.5034 H   0  0  0  0  0  0  0  0  0  0  0  0
   61.9822   33.6190   47.9771 H   0  0  0  0  0  0  0  0  0  0  0  0
   64.4920   32.1410   47.7070 H   0  0  0  0  0  0  0  0  0  0  0  0
   63.7200   32.1970   49.2160 H   0  0  0  0  0  0  0  0  0  0  0  0
   62.8565   30.9832   46.6737 H   0  0  0  0  0  0  0  0  0  0  0  0
   62.8096   30.3159   48.3482 H   0  0  0  0  0  0  0  0  0  0  0  0
   60.8442   31.6566   45.7366 H   0  0  0  0  0  0  0  0  0  0  0  0
   57.6357   33.3091   45.7198 H   0  0  0  0  0  0  0  0  0  0  0  0
   58.8770   32.4269   44.7506 H   0  0  0  0  0  0  0  0  0  0  0  0
   55.9443   32.0415   44.0846 H   0  0  0  0  0  0  0  0  0  0  0  0
   57.4610   31.3411   43.3911 H   0  0  0  0  0  0  0  0  0  0  0  0
   54.9610   30.0884   43.4536 H   0  0  0  0  0  0  0  0  0  0  0  0
   56.5583   29.2813   43.2025 H   0  0  0  0  0  0  0  0  0  0  0  0
   56.9086   28.3292   46.5951 H   0  0  0  0  0  0  0  0  0  0  0  0
   57.4869   28.0584   44.8928 H   0  0  0  0  0  0  0  0  0  0  0  0
   58.4523   29.9823   46.7346 H   0  0  0  0  0  0  0  0  0  0  0  0
   58.8147   29.8642   44.9731 H   0  0  0  0  0  0  0  0  0  0  0  0
   57.4822   32.7228   48.2446 H   0  0  0  0  0  0  0  0  0  0  0  0
   59.9546   33.8980   51.4703 H   0  0  0  0  0  0  0  0  0  0  0  0
   58.3639   34.4694   50.9383 H   0  0  0  0  0  0  0  0  0  0  0  0
   59.1473   33.1833   53.5144 H   0  0  0  0  0  0  0  0  0  0  0  0
   57.6625   34.0898   53.1435 H   0  0  0  0  0  0  0  0  0  0  0  0
   57.8844   31.2483   53.4338 H   0  0  0  0  0  0  0  0  0  0  0  0
   56.4788   32.0762   52.7932 H   0  0  0  0  0  0  0  0  0  0  0  0
   61.2872   31.6983   50.0410 H   0  0  0  0  0  0  0  0  0  0  0  0
  1  2  1  0
  2  3  1  0
  3  4  1  0
  4  5  1  0
  5  6  2  0
  6  7  1  0
  7  8  1  0
  8  9  1  0
  9 10  1  0
 10 11  1  0
 11 12  1  0
 12 13  1  0
 13 14  1  0
  7 15  2  0
 15 16  1  0
 16 17  1  0
 17 18  1  0
 18 19  1  0
 19 20  1  0
 20 21  1  0
 21 22  2  0
 16 23  2  0
 23  5  1  0
 14  9  1  0
 21 17  1  0
  1 24  1  0
  1 25  1  0
  1 26  1  0
  2 27  1  0
  2 28  1  0
  3 29  1  0
  3 30  1  0
  4 31  1  0
  4 32  1  0
  6 33  1  0
  8 34  1  0
  8 35  1  0
 10 36  1  0
 10 37  1  0
 11 38  1  0
 11 39  1  0
 13 40  1  0
 13 41  1  0
 14 42  1  0
 14 43  1  0
 15 44  1  0
 18 45  1  0
 18 46  1  0
 19 47  1  0
 19 48  1  0
 20 49  1  0
 20 50  1  0
 23 51  1  0
M  CHG  1   3   1
M  END
>  <UniqueID>  (28) 
28

>  <SMILES>  (28) 
CC[NH2+]Cc1cc(CN2CCOCC2)cc(N2CCCC2=O)c1

>  <Energy>  (28) 
66.74628532951705

>  <Genealogy>  (28) 
CC[NH2+]Cc1cc(CN2CCOCC2)cc(N2CCCC2=O)c1 (protonated)
CC[NH2+]Cc1cc(CN2CCOCC2)cc(N2CCCC2=O)c1 (3D coordinates assigned)
CC[NH2+]Cc1cc(CN2CCOCC2)cc(N2CCCC2=O)c1 (nonaromatic ring conformer: 66.74628532951705 kcal/mol)

>  <smiles>  (28) 
CCNCc1cc(CN2CCOCC2)cc(N2CCCC2=O)c1

>  <score_type>  (28) 
oracle

>  <origin>  (28) 
adg

>  <m_score__min__energy>  (28) 
-6.5099999999999998

>  <m_primary>  (28) 
energy

$$$$
28:0
     RDKit          3D

 66 69  0  0  0  0  0  0  0  0999 V2000
   57.4110   31.8240   44.8490 C   0  0  0  0  0  0  0  0  0  0  0  0
   57.3890   30.7860   43.7300 C   0  0  0  0  0  0  0  0  0  0  0  0
   56.8860   29.4330   44.2400 C   0  0  0  0  0  0  0  0  0  0  0  0
   57.4380   28.3470   43.4190 N   0  0  0  0  0  0  0  0  0  0  0  0
   58.7110   27.8460   43.9700 C   0  0  0  0  0  0  0  0  0  0  0  0
   58.5070   27.1530   45.3300 C   0  0  0  0  0  0  0  0  0  0  0  0
   59.0230   27.9600   46.4630 N   0  0  0  0  0  0  0  0  0  0  0  0
   59.8900   27.1220   47.3100 C   0  0  0  0  0  0  0  0  0  0  0  0
   60.2630   27.8730   48.6000 C   0  0  0  0  0  0  0  0  0  0  0  0
   60.3160   29.3470   48.4300 N   0  0  0  0  0  0  0  0  0  0  0  0
   59.0980   30.0450   48.9020 C   0  0  0  0  0  0  0  0  0  0  0  0
   59.4720   31.3710   49.5920 C   0  0  0  0  0  0  0  0  0  0  0  0
   60.6150   32.0530   48.9200 N   0  0  0  0  0  0  0  0  0  0  0  0
   60.2440   33.1080   47.9650 C   0  0  0  0  0  0  0  0  0  0  0  0
   59.0450   33.8530   48.1390 C   0  0  0  0  0  0  0  0  0  0  0  0
   58.4810   34.5810   47.0870 C   0  0  0  0  0  0  0  0  0  0  0  0
   59.1050   34.6140   45.8450 C   0  0  0  0  0  0  0  0  0  0  0  0
   60.3310   33.9760   45.6760 C   0  0  0  0  0  0  0  0  0  0  0  0
   60.9190   33.2700   46.7340 C   0  0  0  0  0  0  0  0  0  0  0  0
   62.2760   32.9040   46.5870 N   0  0  0  0  0  0  0  0  0  0  0  0
   63.1890   33.2150   47.6290 C   0  0  0  0  0  0  0  0  0  0  0  0
   64.1310   34.0180   47.3940 O   0  0  0  0  0  0  0  0  0  0  0  0
   63.1240   32.4950   48.9120 C   0  0  0  0  0  0  0  0  0  0  0  0
   64.3200   32.3800   49.6370 C   0  0  0  0  0  0  0  0  0  0  0  0
   64.4680   31.4090   50.6240 C   0  0  0  0  0  0  0  0  0  0  0  0
   66.0860   31.4150   51.6490 Br  0  0  0  0  0  0  0  0  0  0  0  0
   63.4360   30.4790   50.8060 C   0  0  0  0  0  0  0  0  0  0  0  0
   63.5530   29.3660   51.6600 O   0  0  0  0  0  0  0  0  0  0  0  0
   63.2950   29.3860   53.0550 C   0  0  0  0  0  0  0  0  0  0  0  0
   62.2530   30.6590   50.1510 N   0  0  0  0  0  0  0  0  0  0  0  0
   62.0030   31.7200   49.3090 C   0  0  0  0  0  0  0  0  0  0  0  0
   60.7090   29.7330   47.0600 C   0  0  0  0  0  0  0  0  0  0  0  0
   59.7570   29.1600   45.9910 C   0  0  0  0  0  0  0  0  0  0  0  0
   57.4002   31.3132   45.8232 H   0  0  0  0  0  0  0  0  0  0  0  0
   58.3223   32.4343   44.7651 H   0  0  0  0  0  0  0  0  0  0  0  0
   56.5264   32.4724   44.7651 H   0  0  0  0  0  0  0  0  0  0  0  0
   56.7232   31.1372   42.9278 H   0  0  0  0  0  0  0  0  0  0  0  0
   58.4147   30.6572   43.3541 H   0  0  0  0  0  0  0  0  0  0  0  0
   57.2035   29.2970   45.2844 H   0  0  0  0  0  0  0  0  0  0  0  0
   55.7881   29.4099   44.1765 H   0  0  0  0  0  0  0  0  0  0  0  0
   56.7570   27.5510   43.4480 H   0  0  0  0  0  0  0  0  0  0  0  0
   59.1462   27.1241   43.2633 H   0  0  0  0  0  0  0  0  0  0  0  0
   59.3827   28.7043   44.1188 H   0  0  0  0  0  0  0  0  0  0  0  0
   57.4309   26.9816   45.4805 H   0  0  0  0  0  0  0  0  0  0  0  0
   59.0688   26.2075   45.3105 H   0  0  0  0  0  0  0  0  0  0  0  0
   59.3569   26.1957   47.5706 H   0  0  0  0  0  0  0  0  0  0  0  0
   60.8099   26.8842   46.7557 H   0  0  0  0  0  0  0  0  0  0  0  0
   59.5133   27.6375   49.3697 H   0  0  0  0  0  0  0  0  0  0  0  0
   61.2721   27.5429   48.8876 H   0  0  0  0  0  0  0  0  0  0  0  0
   58.4448   30.2554   48.0424 H   0  0  0  0  0  0  0  0  0  0  0  0
   58.5756   29.4015   49.6252 H   0  0  0  0  0  0  0  0  0  0  0  0
   58.5988   32.0397   49.5713 H   0  0  0  0  0  0  0  0  0  0  0  0
   59.7757   31.1407   50.6239 H   0  0  0  0  0  0  0  0  0  0  0  0
   58.5511   33.8565   49.1219 H   0  0  0  0  0  0  0  0  0  0  0  0
   57.5403   35.1296   47.2425 H   0  0  0  0  0  0  0  0  0  0  0  0
   58.6335   35.1403   45.0020 H   0  0  0  0  0  0  0  0  0  0  0  0
   60.8425   34.0266   44.7035 H   0  0  0  0  0  0  0  0  0  0  0  0
   65.1523   33.0666   49.4226 H   0  0  0  0  0  0  0  0  0  0  0  0
   64.2450   29.3124   53.6047 H   0  0  0  0  0  0  0  0  0  0  0  0
   62.7894   30.3260   53.3209 H   0  0  0  0  0  0  0  0  0  0  0  0
   62.6506   28.5351   53.3209 H   0  0  0  0  0  0  0  0  0  0  0  0
   61.5580   29.8940   50.2970 H   0  0  0  0  0  0  0  0  0  0  0  0
   60.7025   30.8305   46.9868 H   0  0  0  0  0  0  0  0  0  0  0  0
   61.7116   29.3219   46.8707 H   0  0  0  0  0  0  0  0  0  0  0  0
   59.0258   29.9354   45.7187 H   0  0  0  0  0  0  0  0  0  0  0  0
   60.3690   28.8576   45.1284 H   0  0  0  0  0  0  0  0  0  0  0  0
  1  2  1  0
  2  3  1  0
  3  4  1  0
  4  5  1  0
  5  6  1  0
  6  7  1  0
  7  8  1  0
  8  9  1  0
  9 10  1  0
 10 11  1  0
 11 12  1  0
 12 13  1  0
 13 14  1  0
 14 15  2  0
 15 16  1  0
 16 17  2  0
 17 18  1  0
 18 19  2  0
 19 20  1  0
 20 21  1  0
 21 22  2  0
 21 23  1  0
 23 24  2  0
 24 25  1  0
 25 26  1  0
 25 27  2  0
 27 28  1  0
 28 29  1  0
 27 30  1  0
 30 31  2  0
 10 32  1  0
 32 33  1  0
 33  7  1  0
 31 13  1  0
 19 14  1  0
 31 23  1  0
  1 34  1  0
  1 35  1  0
  1 36  1  0
  2 37  1  0
  2 38  1  0
  3 39  1  0
  3 40  1  0
  4 41  1  0
  5 42  1  0
  5 43  1  0
  6 44  1  0
  6 45  1  0
  8 46  1  0
  8 47  1  0
  9 48  1  0
  9 49  1  0
 11 50  1  0
 11 51  1  0
 12 52  1  0
 12 53  1  0
 15 54  1  0
 16 55  1  0
 17 56  1  0
 18 57  1  0
 24 58  1  0
 29 59  1  0
 29 60  1  0
 29 61  1  0
 30 62  1  0
 32 63  1  0
 32 64  1  0
 33 65  1  0
 33 66  1  0
M  CHG  2  20  -1  30   1
M  END
>  <UniqueID>  (29) 
29

>  <SMILES>  (29) 
CCCNCCN1CCN(CCN2c3ccccc3[N-]C(=O)c3cc(Br)c(OC)[nH+]c32)CC1

>  <Energy>  (29) 
130.94421210111528

>  <Genealogy>  (29) 
CCCNCCN1CCN(CCN2c3ccccc3[N-]C(=O)c3cc(Br)c(OC)[nH+]c32)CC1 (protonated)
CCCNCCN1CCN(CCN2c3ccccc3[N-]C(=O)c3cc(Br)c(OC)[nH+]c32)CC1 (3D coordinates assigned)
CCCNCCN1CCN(CCN2c3ccccc3[N-]C(=O)c3cc(Br)c(OC)[nH+]c32)CC1 (nonaromatic ring conformer: 130.94421210111528 kcal/mol)

>  <smiles>  (29) 
CCCNCCN1CCN(CCN2c3ccccc3NC(=O)c3cc(Br)c(OC)nc32)CC1

>  <score_type>  (29) 
oracle

>  <origin>  (29) 
adg

>  <m_score__min__energy>  (29) 
-8.6899999999999995

>  <m_primary>  (29) 
energy

$$$$
29:0
     RDKit          3D

 48 49  0  0  0  0  0  0  0  0999 V2000
   60.6320   28.9520   45.2930 C   0  0  0  0  0  0  0  0  0  0  0  0
   60.1100   27.8330   46.1850 C   0  0  0  0  0  0  0  0  0  0  0  0
   59.4430   28.4010   47.3640 N   0  0  0  0  0  0  0  0  0  0  0  0
   60.1540   28.0550   48.6030 C   0  0  0  0  0  0  0  0  0  0  0  0
   59.6820   28.9690   49.7430 C   0  0  0  0  0  0  0  0  0  0  0  0
   58.9250   30.1350   49.2480 N   0  0  0  0  0  0  0  0  0  0  0  0
   59.7480   31.3530   49.1840 C   0  0  0  0  0  0  0  0  0  0  0  0
   58.8780   32.5810   48.8680 C   0  0  0  0  0  0  0  0  0  0  0  0
   59.0100   32.9980   47.4600 N   0  0  0  0  0  0  0  0  0  0  0  0
   59.8720   34.1570   47.1620 C   0  0  0  0  0  0  0  0  0  0  0  0
   61.2810   33.9050   47.6320 C   0  0  0  0  0  0  0  0  0  0  0  0
   61.6520   34.2040   48.9550 C   0  0  0  0  0  0  0  0  0  0  0  0
   62.9410   33.9100   49.4080 C   0  0  0  0  0  0  0  0  0  0  0  0
   63.8740   33.3290   48.5430 C   0  0  0  0  0  0  0  0  0  0  0  0
   65.1200   33.0340   48.9860 F   0  0  0  0  0  0  0  0  0  0  0  0
   63.5180   33.0450   47.2230 C   0  0  0  0  0  0  0  0  0  0  0  0
   62.2270   33.3300   46.7670 C   0  0  0  0  0  0  0  0  0  0  0  0
   58.3840   32.2570   46.3760 C   0  0  0  0  0  0  0  0  0  0  0  0
   58.0160   32.8750   45.1630 C   0  0  0  0  0  0  0  0  0  0  0  0
   57.4010   32.1230   44.1590 C   0  0  0  0  0  0  0  0  0  0  0  0
   57.1530   30.7620   44.3610 C   0  0  0  0  0  0  0  0  0  0  0  0
   56.3140   29.7230   42.9960 Br  0  0  0  0  0  0  0  0  0  0  0  0
   57.5430   30.1720   45.5610 C   0  0  0  0  0  0  0  0  0  0  0  0
   58.1340   30.9240   46.5260 N   0  0  0  0  0  0  0  0  0  0  0  0
   61.0144   29.7717   45.9190 H   0  0  0  0  0  0  0  0  0  0  0  0
   61.4432   28.5665   44.6579 H   0  0  0  0  0  0  0  0  0  0  0  0
   59.8153   29.3259   44.6579 H   0  0  0  0  0  0  0  0  0  0  0  0
   59.3918   27.2212   45.6195 H   0  0  0  0  0  0  0  0  0  0  0  0
   60.9542   27.2088   46.5131 H   0  0  0  0  0  0  0  0  0  0  0  0
   59.4520   29.4430   47.2610 H   0  0  0  0  0  0  0  0  0  0  0  0
   59.9449   27.0071   48.8641 H   0  0  0  0  0  0  0  0  0  0  0  0
   61.2353   28.1895   48.4522 H   0  0  0  0  0  0  0  0  0  0  0  0
   59.0360   28.3882   50.4179 H   0  0  0  0  0  0  0  0  0  0  0  0
   60.5744   29.3439   50.2656 H   0  0  0  0  0  0  0  0  0  0  0  0
   58.5310   29.9300   48.3000 H   0  0  0  0  0  0  0  0  0  0  0  0
   60.2464   31.5033   50.1530 H   0  0  0  0  0  0  0  0  0  0  0  0
   60.4947   31.2336   48.3851 H   0  0  0  0  0  0  0  0  0  0  0  0
   57.8253   32.3327   49.0686 H   0  0  0  0  0  0  0  0  0  0  0  0
   59.2163   33.4124   49.5039 H   0  0  0  0  0  0  0  0  0  0  0  0
   59.8791   34.3325   46.0761 H   0  0  0  0  0  0  0  0  0  0  0  0
   59.4753   35.0382   47.6874 H   0  0  0  0  0  0  0  0  0  0  0  0
   60.9251   34.6710   49.6358 H   0  0  0  0  0  0  0  0  0  0  0  0
   63.2224   34.1360   50.4471 H   0  0  0  0  0  0  0  0  0  0  0  0
   64.2546   32.5961   46.5404 H   0  0  0  0  0  0  0  0  0  0  0  0
   61.9511   33.1030   45.7266 H   0  0  0  0  0  0  0  0  0  0  0  0
   58.2126   33.9461   45.0078 H   0  0  0  0  0  0  0  0  0  0  0  0
   57.1124   32.6009   43.2112 H   0  0  0  0  0  0  0  0  0  0  0  0
   57.3726   29.0981   45.7273 H   0  0  0  0  0  0  0  0  0  0  0  0
  1  2  1  0
  2  3  1  0
  3  4  1  0
  4  5  1  0
  5  6  1  0
  6  7  1  0
  7  8  1  0
  8  9  1  0
  9 10  1  0
 10 11  1  0
 11 12  2  0
 12 13  1  0
 13 14  2  0
 14 15  1  0
 14 16  1  0
 16 17  2  0
  9 18  1  0
 18 19  2  0
 19 20  1  0
 20 21  2  0
 21 22  1  0
 21 23  1  0
 23 24  2  0
 17 11  1  0
 24 18  1  0
  1 25  1  0
  1 26  1  0
  1 27  1  0
  2 28  1  0
  2 29  1  0
  3 30  1  0
  4 31  1  0
  4 32  1  0
  5 33  1  0
  5 34  1  0
  6 35  1  0
  7 36  1  0
  7 37  1  0
  8 38  1  0
  8 39  1  0
 10 40  1  0
 10 41  1  0
 12 42  1  0
 13 43  1  0
 16 44  1  0
 17 45  1  0
 19 46  1  0
 20 47  1  0
 23 48  1  0
M  END
>  <UniqueID>  (30) 
30

>  <SMILES>  (30) 
CCNCCNCCN(Cc1ccc(F)cc1)c1ccc(Br)cn1

>  <Energy>  (30) 
43.5758660973983

>  <Genealogy>  (30) 
CCNCCNCCN(Cc1ccc(F)cc1)c1ccc(Br)cn1 (3D coordinates assigned)
CCNCCNCCN(Cc1ccc(F)cc1)c1ccc(Br)cn1 (optimized conformer: 43.5758660973983 kcal/mol)

>  <smiles>  (30) 
CCNCCNCCN(Cc1ccc(F)cc1)c1ccc(Br)cn1

>  <score_type>  (30) 
oracle

>  <origin>  (30) 
adg

>  <m_score__min__energy>  (30) 
-6.9000000000000004

>  <m_primary>  (30) 
energy

$$$$
30:0
     RDKit          3D

 37 39  0  0  0  0  0  0  0  0999 V2000
   57.7460   31.9700   42.5420 C   0  0  0  0  0  0  0  0  0  0  0  0
   56.9690   30.6830   42.7880 C   0  0  0  0  0  0  0  0  0  0  0  0
   57.4370   30.0360   44.0120 N   0  0  0  0  0  0  0  0  0  0  0  0
   58.6980   30.0480   44.4160 N   0  0  0  0  0  0  0  0  0  0  0  0
   58.7440   29.4130   45.6070 C   0  0  0  0  0  0  0  0  0  0  0  0
   59.9870   29.2690   46.4260 C   0  0  0  0  0  0  0  0  0  0  0  0
   59.9720   30.2500   47.5990 C   0  0  0  0  0  0  0  0  0  0  0  0
   60.2830   31.6020   47.1300 N   0  0  0  0  0  0  0  0  0  0  0  0
   61.5010   32.2170   47.0860 C   0  0  0  0  0  0  0  0  0  0  0  0
   62.7680   31.6120   47.6050 C   0  0  0  0  0  0  0  0  0  0  0  0
   61.4440   33.4500   46.5200 N   0  0  0  0  0  0  0  0  0  0  0  0
   60.1520   33.5920   46.1900 C   0  0  0  0  0  0  0  0  0  0  0  0
   59.5830   34.6500   45.5640 N   0  0  0  0  0  0  0  0  0  0  0  0
   58.2440   34.6050   45.2820 C   0  0  0  0  0  0  0  0  0  0  0  0
   57.4740   33.4700   45.6310 C   0  0  0  0  0  0  0  0  0  0  0  0
   58.0850   32.3790   46.2760 C   0  0  0  0  0  0  0  0  0  0  0  0
   59.4470   32.4830   46.5460 C   0  0  0  0  0  0  0  0  0  0  0  0
   57.4730   29.0090   45.9890 C   0  0  0  0  0  0  0  0  0  0  0  0
   56.6830   29.4290   44.9460 C   0  0  0  0  0  0  0  0  0  0  0  0
   55.4330   29.2860   44.8710 O   0  0  0  0  0  0  0  0  0  0  0  0
   58.0196   32.4231   43.5063 H   0  0  0  0  0  0  0  0  0  0  0  0
   58.6586   31.7439   41.9710 H   0  0  0  0  0  0  0  0  0  0  0  0
   57.1209   32.6723   41.9710 H   0  0  0  0  0  0  0  0  0  0  0  0
   55.8991   30.9181   42.8877 H   0  0  0  0  0  0  0  0  0  0  0  0
   57.1266   30.0012   41.9393 H   0  0  0  0  0  0  0  0  0  0  0  0
   60.0478   28.2415   46.8141 H   0  0  0  0  0  0  0  0  0  0  0  0
   60.8586   29.4867   45.7912 H   0  0  0  0  0  0  0  0  0  0  0  0
   58.9747   30.2466   48.0631 H   0  0  0  0  0  0  0  0  0  0  0  0
   60.7291   29.9418   48.3351 H   0  0  0  0  0  0  0  0  0  0  0  0
   62.7539   31.6187   48.7049 H   0  0  0  0  0  0  0  0  0  0  0  0
   62.8536   30.5758   47.2458 H   0  0  0  0  0  0  0  0  0  0  0  0
   63.6276   32.1968   47.2458 H   0  0  0  0  0  0  0  0  0  0  0  0
   62.2250   34.1260   46.3630 H   0  0  0  0  0  0  0  0  0  0  0  0
   57.7630   35.4576   44.7803 H   0  0  0  0  0  0  0  0  0  0  0  0
   56.3993   33.4408   45.3983 H   0  0  0  0  0  0  0  0  0  0  0  0
   57.5115   31.4827   46.5549 H   0  0  0  0  0  0  0  0  0  0  0  0
   57.1707   28.4804   46.9051 H   0  0  0  0  0  0  0  0  0  0  0  0
  1  2  1  0
  2  3  1  0
  3  4  1  0
  4  5  1  0
  5  6  1  0
  6  7  1  0
  7  8  1  0
  8  9  1  0
  9 10  1  0
  9 11  2  0
 11 12  1  0
 12 13  2  0
 13 14  1  0
 14 15  2  0
 15 16  1  0
 16 17  2  0
  5 18  2  0
 18 19  1  0
 19 20  2  0
 19  3  1  0
 17  8  1  0
 17 12  1  0
  1 21  1  0
  1 22  1  0
  1 23  1  0
  2 24  1  0
  2 25  1  0
  6 26  1  0
  6 27  1  0
  7 28  1  0
  7 29  1  0
 10 30  1  0
 10 31  1  0
 10 32  1  0
 11 33  1  0
 14 34  1  0
 15 35  1  0
 16 36  1  0
 18 37  1  0
M  CHG  2   4  -1  11   1
M  END
>  <UniqueID>  (31) 
31

>  <SMILES>  (31) 
CCn1[n-]c(CCn2c(C)[nH+]c3ncccc32)cc1=O

>  <Energy>  (31) 
102.63136030085259

>  <Genealogy>  (31) 
CCn1[n-]c(CCn2c(C)[nH+]c3ncccc32)cc1=O (protonated)
CCn1[n-]c(CCn2c(C)[nH+]c3ncccc32)cc1=O (3D coordinates assigned)
CCn1[n-]c(CCn2c(C)[nH+]c3ncccc32)cc1=O (optimized conformer: 102.63136030085259 kcal/mol)

>  <smiles>  (31) 
CCn1[nH]c(CCn2c(C)nc3ncccc32)cc1=O

>  <score_type>  (31) 
oracle

>  <origin>  (31) 
adg

>  <m_score__min__energy>  (31) 
-6.5700000000000003

>  <m_primary>  (31) 
energy

$$$$
31:0
     RDKit          3D

 40 42  0  0  0  0  0  0  0  0999 V2000
   56.7460   20.6910   42.9960 C   0  0  0  0  0  0  0  0  0  0  0  0
   55.9230   21.8400   43.1650 O   0  0  0  0  0  0  0  0  0  0  0  0
   56.3470   23.0380   43.7570 C   0  0  0  0  0  0  0  0  0  0  0  0
   56.9970   24.0530   43.0290 C   0  0  0  0  0  0  0  0  0  0  0  0
   57.4030   25.2290   43.6660 C   0  0  0  0  0  0  0  0  0  0  0  0
   57.1790   25.4070   45.0420 C   0  0  0  0  0  0  0  0  0  0  0  0
   57.6130   26.6800   45.7280 C   0  0  0  0  0  0  0  0  0  0  0  0
   58.6110   27.5030   44.8870 C   0  0  0  0  0  0  0  0  0  0  0  0
   57.9560   28.3650   43.8850 N   0  0  0  0  0  0  0  0  0  0  0  0
   57.7490   29.7120   44.3760 C   0  0  0  0  0  0  0  0  0  0  0  0
   58.8060   30.4170   44.9730 C   0  0  0  0  0  0  0  0  0  0  0  0
   58.6010   31.7180   45.4380 C   0  0  0  0  0  0  0  0  0  0  0  0
   59.6370   32.4590   46.0260 C   0  0  0  0  0  0  0  0  0  0  0  0
   59.3920   33.7610   46.4780 C   0  0  0  0  0  0  0  0  0  0  0  0
   58.1180   34.3240   46.3450 C   0  0  0  0  0  0  0  0  0  0  0  0
   57.0820   33.5880   45.7610 C   0  0  0  0  0  0  0  0  0  0  0  0
   57.3170   32.2850   45.3070 C   0  0  0  0  0  0  0  0  0  0  0  0
   56.3300   31.5850   44.7580 O   0  0  0  0  0  0  0  0  0  0  0  0
   56.4890   30.3460   44.3030 C   0  0  0  0  0  0  0  0  0  0  0  0
   55.4950   29.7440   43.8180 O   0  0  0  0  0  0  0  0  0  0  0  0
   56.5130   24.4030   45.7600 C   0  0  0  0  0  0  0  0  0  0  0  0
   56.1080   23.2270   45.1230 C   0  0  0  0  0  0  0  0  0  0  0  0
   57.0297   20.2949   43.9822 H   0  0  0  0  0  0  0  0  0  0  0  0
   56.1920   19.9221   42.4376 H   0  0  0  0  0  0  0  0  0  0  0  0
   57.6523   20.9681   42.4376 H   0  0  0  0  0  0  0  0  0  0  0  0
   57.1862   23.9197   41.9536 H   0  0  0  0  0  0  0  0  0  0  0  0
   57.9011   26.0203   43.0866 H   0  0  0  0  0  0  0  0  0  0  0  0
   56.7227   27.2969   45.9197 H   0  0  0  0  0  0  0  0  0  0  0  0
   58.1218   26.3961   46.6610 H   0  0  0  0  0  0  0  0  0  0  0  0
   59.1978   28.1397   45.5654 H   0  0  0  0  0  0  0  0  0  0  0  0
   59.2433   26.7886   44.3395 H   0  0  0  0  0  0  0  0  0  0  0  0
   57.0180   27.9560   43.6640 H   0  0  0  0  0  0  0  0  0  0  0  0
   58.5030   28.3550   42.9950 H   0  0  0  0  0  0  0  0  0  0  0  0
   59.7946   29.9454   45.0745 H   0  0  0  0  0  0  0  0  0  0  0  0
   60.6392   32.0180   46.1316 H   0  0  0  0  0  0  0  0  0  0  0  0
   60.2034   34.3432   46.9391 H   0  0  0  0  0  0  0  0  0  0  0  0
   57.9308   35.3480   46.7006 H   0  0  0  0  0  0  0  0  0  0  0  0
   56.0815   34.0336   45.6584 H   0  0  0  0  0  0  0  0  0  0  0  0
   56.3081   24.5422   46.8317 H   0  0  0  0  0  0  0  0  0  0  0  0
   55.5967   22.4427   45.7004 H   0  0  0  0  0  0  0  0  0  0  0  0
  1  2  1  0
  2  3  1  0
  3  4  2  0
  4  5  1  0
  5  6  2  0
  6  7  1  0
  7  8  1  0
  8  9  1  0
  9 10  1  0
 10 11  2  0
 11 12  1  0
 12 13  2  0
 13 14  1  0
 14 15  2  0
 15 16  1  0
 16 17  2  0
 17 18  1  0
 18 19  1  0
 19 20  2  0
  6 21  1  0
 21 22  2  0
 22  3  1  0
 19 10  1  0
 17 12  1  0
  1 23  1  0
  1 24  1  0
  1 25  1  0
  4 26  1  0
  5 27  1  0
  7 28  1  0
  7 29  1  0
  8 30  1  0
  8 31  1  0
  9 32  1  0
  9 33  1  0
 11 34  1  0
 13 35  1  0
 14 36  1  0
 15 37  1  0
 16 38  1  0
 21 39  1  0
 22 40  1  0
M  CHG  1   9   1
M  END
>  <UniqueID>  (32) 
32

>  <SMILES>  (32) 
COc1ccc(CC[NH2+]c2cc3ccccc3oc2=O)cc1

>  <Energy>  (32) 
47.072002683564264

>  <Genealogy>  (32) 
COc1ccc(CC[NH2+]c2cc3ccccc3oc2=O)cc1 (protonated)
COc1ccc(CC[NH2+]c2cc3ccccc3oc2=O)cc1 (3D coordinates assigned)
COc1ccc(CC[NH2+]c2cc3ccccc3oc2=O)cc1 (optimized conformer: 47.072002683564264 kcal/mol)

>  <smiles>  (32) 
COc1ccc(CCNc2cc3ccccc3oc2=O)cc1

>  <score_type>  (32) 
oracle

>  <origin>  (32) 
adg

>  <m_score__min__energy>  (32) 
-6.7000000000000002

>  <m_primary>  (32) 
energy

$$$$
32:0
     RDKit          3D

 63 67  0  0  0  0  0  0  0  0999 V2000
   69.3620   34.2610   50.8200 F   0  0  0  0  0  0  0  0  0  0  0  0
   68.5380   33.2350   51.1470 C   0  0  0  0  0  0  0  0  0  0  0  0
   68.9540   32.2830   52.0730 C   0  0  0  0  0  0  0  0  0  0  0  0
   68.1080   31.2300   52.4130 C   0  0  0  0  0  0  0  0  0  0  0  0
   66.8440   31.1210   51.8250 C   0  0  0  0  0  0  0  0  0  0  0  0
   66.3880   32.0760   50.8760 C   0  0  0  0  0  0  0  0  0  0  0  0
   67.2780   33.1360   50.5510 C   0  0  0  0  0  0  0  0  0  0  0  0
   65.0860   31.8740   50.2060 N   0  0  2  0  0  0  0  0  0  0  0  0
   64.4970   33.1410   49.6320 C   0  0  0  0  0  0  0  0  0  0  0  0
   63.4440   33.8470   50.5390 C   0  0  0  0  0  0  0  0  0  0  0  0
   62.6650   34.9030   49.7440 C   0  0  0  0  0  0  0  0  0  0  0  0
   61.8610   34.3090   48.6410 N   0  0  0  0  0  0  0  0  0  0  0  0
   60.4220   34.2740   48.9800 C   0  0  0  0  0  0  0  0  0  0  0  0
   59.5880   33.9910   47.7570 C   0  0  0  0  0  0  0  0  0  0  0  0
   58.5540   33.0450   47.8020 C   0  0  0  0  0  0  0  0  0  0  0  0
   57.8320   32.7340   46.6470 C   0  0  0  0  0  0  0  0  0  0  0  0
   58.1500   33.3450   45.4220 C   0  0  0  0  0  0  0  0  0  0  0  0
   57.4040   32.9660   44.1560 C   0  0  0  0  0  0  0  0  0  0  0  0
   57.9200   31.7510   43.4750 N   0  0  0  0  0  0  0  0  0  0  0  0
   58.1870   30.6260   44.3790 C   0  0  0  0  0  0  0  0  0  0  0  0
   57.0260   29.6470   44.2650 C   0  0  0  0  0  0  0  0  0  0  0  0
   56.2830   30.0340   42.9980 C   0  0  0  0  0  0  0  0  0  0  0  0
   57.0330   31.2310   42.4280 C   0  0  0  0  0  0  0  0  0  0  0  0
   59.1580   34.3230   45.3910 C   0  0  0  0  0  0  0  0  0  0  0  0
   59.8780   34.6350   46.5460 C   0  0  0  0  0  0  0  0  0  0  0  0
   62.3430   32.9730   48.2070 C   0  0  0  0  0  0  0  0  0  0  0  0
   63.8740   32.8940   48.2160 C   0  0  0  0  0  0  0  0  0  0  0  0
   64.1590   31.1740   51.1410 C   0  0  0  0  0  0  0  0  0  0  0  0
   64.7570   29.8470   51.6180 C   0  0  0  0  0  0  0  0  0  0  0  0
   66.0180   30.0710   52.2230 O   0  0  0  0  0  0  0  0  0  0  0  0
   69.9489   32.3620   52.5355 H   0  0  0  0  0  0  0  0  0  0  0  0
   68.4360   30.4802   53.1480 H   0  0  0  0  0  0  0  0  0  0  0  0
   66.9685   33.8933   49.8157 H   0  0  0  0  0  0  0  0  0  0  0  0
   65.2540   31.2110   49.4110 H   0  0  0  0  0  0  0  0  0  0  0  0
   65.3560   33.8243   49.5591 H   0  0  0  0  0  0  0  0  0  0  0  0
   62.7405   33.0959   50.9276 H   0  0  0  0  0  0  0  0  0  0  0  0
   63.9681   34.3441   51.3686 H   0  0  0  0  0  0  0  0  0  0  0  0
   61.9865   35.4312   50.4300 H   0  0  0  0  0  0  0  0  0  0  0  0
   63.3974   35.5879   49.2918 H   0  0  0  0  0  0  0  0  0  0  0  0
   60.2468   33.4847   49.7259 H   0  0  0  0  0  0  0  0  0  0  0  0
   60.1321   35.2553   49.3837 H   0  0  0  0  0  0  0  0  0  0  0  0
   58.3101   32.5454   48.7511 H   0  0  0  0  0  0  0  0  0  0  0  0
   57.0090   32.0059   46.6968 H   0  0  0  0  0  0  0  0  0  0  0  0
   56.3501   32.7911   44.4180 H   0  0  0  0  0  0  0  0  0  0  0  0
   57.5406   33.8000   43.4519 H   0  0  0  0  0  0  0  0  0  0  0  0
   59.1247   30.1288   44.0899 H   0  0  0  0  0  0  0  0  0  0  0  0
   58.2867   30.9826   45.4148 H   0  0  0  0  0  0  0  0  0  0  0  0
   57.4005   28.6154   44.1898 H   0  0  0  0  0  0  0  0  0  0  0  0
   56.3714   29.6898   45.1480 H   0  0  0  0  0  0  0  0  0  0  0  0
   56.2893   29.2005   42.2802 H   0  0  0  0  0  0  0  0  0  0  0  0
   55.2298   30.2758   43.2035 H   0  0  0  0  0  0  0  0  0  0  0  0
   57.6272   30.9187   41.5565 H   0  0  0  0  0  0  0  0  0  0  0  0
   56.3241   32.0084   42.1069 H   0  0  0  0  0  0  0  0  0  0  0  0
   59.3817   34.8468   44.4500 H   0  0  0  0  0  0  0  0  0  0  0  0
   60.6769   35.3900   46.5055 H   0  0  0  0  0  0  0  0  0  0  0  0
   61.9423   32.2098   48.8904 H   0  0  0  0  0  0  0  0  0  0  0  0
   61.9960   32.8003   47.1775 H   0  0  0  0  0  0  0  0  0  0  0  0
   64.1744   31.8934   47.8717 H   0  0  0  0  0  0  0  0  0  0  0  0
   64.2460   33.6885   47.5524 H   0  0  0  0  0  0  0  0  0  0  0  0
   63.9733   31.8186   52.0128 H   0  0  0  0  0  0  0  0  0  0  0  0
   63.2192   30.9633   50.6095 H   0  0  0  0  0  0  0  0  0  0  0  0
   64.0790   29.3848   52.3505 H   0  0  0  0  0  0  0  0  0  0  0  0
   64.8859   29.1788   50.7538 H   0  0  0  0  0  0  0  0  0  0  0  0
  1  2  1  0
  2  3  2  0
  3  4  1  0
  4  5  2  0
  5  6  1  0
  6  7  2  0
  6  8  1  0
  8  9  1  0
  9 10  1  0
 10 11  1  0
 11 12  1  0
 12 13  1  0
 13 14  1  0
 14 15  2  0
 15 16  1  0
 16 17  2  0
 17 18  1  0
 18 19  1  0
 19 20  1  0
 20 21  1  0
 21 22  1  0
 22 23  1  0
 17 24  1  0
 24 25  2  0
 12 26  1  0
 26 27  1  0
  8 28  1  0
 28 29  1  0
 29 30  1  0
  7  2  1  0
 27  9  1  0
 30  5  1  0
 25 14  1  0
 23 19  1  0
  3 31  1  0
  4 32  1  0
  7 33  1  0
  8 34  1  6
  9 35  1  0
 10 36  1  0
 10 37  1  0
 11 38  1  0
 11 39  1  0
 13 40  1  0
 13 41  1  0
 15 42  1  0
 16 43  1  0
 18 44  1  0
 18 45  1  0
 20 46  1  0
 20 47  1  0
 21 48  1  0
 21 49  1  0
 22 50  1  0
 22 51  1  0
 23 52  1  0
 23 53  1  0
 24 54  1  0
 25 55  1  0
 26 56  1  0
 26 57  1  0
 27 58  1  0
 27 59  1  0
 28 60  1  0
 28 61  1  0
 29 62  1  0
 29 63  1  0
M  CHG  1   8   1
M  END
>  <UniqueID>  (33) 
33

>  <SMILES>  (33) 
Fc1ccc2c(c1)[N@H+](C1CCN(Cc3ccc(CN4CCCC4)cc3)CC1)CCO2

>  <Energy>  (33) 
101.31307344582859

>  <Genealogy>  (33) 
Fc1ccc2c(c1)[NH+](C1CCN(Cc3ccc(CN4CCCC4)cc3)CC1)CCO2 (protonated)
Fc1ccc2c(c1)[N@H+](C1CCN(Cc3ccc(CN4CCCC4)cc3)CC1)CCO2 (chirality)
Fc1ccc2c(c1)[N@H+](C1CCN(Cc3ccc(CN4CCCC4)cc3)CC1)CCO2 (3D coordinates assigned)
Fc1ccc2c(c1)[N@H+](C1CCN(Cc3ccc(CN4CCCC4)cc3)CC1)CCO2 (nonaromatic ring conformer: 101.31307344582859 kcal/mol)

>  <smiles>  (33) 
Fc1ccc2c(c1)N(C1CCN(Cc3ccc(CN4CCCC4)cc3)CC1)CCO2

>  <score_type>  (33) 
oracle

>  <origin>  (33) 
adg

>  <m_score__min__energy>  (33) 
-7.4400000000000004

>  <m_primary>  (33) 
energy

$$$$
33:0
     RDKit          3D

 47 47  0  0  0  0  0  0  0  0999 V2000
   58.8500   31.9290   49.2300 C   0  0  0  0  0  0  0  0  0  0  0  0
   58.9030   30.4740   48.7760 C   0  0  0  0  0  0  0  0  0  0  0  0
   59.5940   30.3710   47.4710 N   0  0  0  0  0  0  0  0  0  0  0  0
   60.4570   31.5490   47.2220 C   0  0  0  0  0  0  0  0  0  0  0  0
   61.9170   31.1980   47.4910 C   0  0  0  0  0  0  0  0  0  0  0  0
   60.3640   29.1100   47.3660 C   0  0  0  0  0  0  0  0  0  0  0  0
   59.6050   28.0750   46.5320 C   0  0  0  0  0  0  0  0  0  0  0  0
   59.4790   28.6050   44.8350 S   0  0  0  0  0  0  0  0  0  0  0  0
   59.6430   30.2740   44.7330 O   0  0  0  0  0  0  0  0  0  0  0  0
   57.9420   28.1000   44.0960 C   0  0  0  0  0  0  0  0  0  0  0  0
   56.8250   28.7320   44.8540 C   0  0  0  0  0  0  0  0  0  0  0  0
   55.8570   28.0280   45.2510 O   0  0  0  0  0  0  0  0  0  0  0  0
   56.9160   30.1120   45.2190 N   0  0  0  0  0  0  0  0  0  0  0  0
   56.7980   31.1950   44.2510 C   0  0  0  0  0  0  0  0  0  0  0  0
   57.5260   32.4060   44.7660 C   0  0  0  0  0  0  0  0  0  0  0  0
   58.4350   33.0810   43.9380 C   0  0  0  0  0  0  0  0  0  0  0  0
   59.1800   34.1560   44.4330 C   0  0  0  0  0  0  0  0  0  0  0  0
   59.0390   34.5560   45.7700 C   0  0  0  0  0  0  0  0  0  0  0  0
   59.8280   35.7120   46.3100 C   0  0  0  0  0  0  0  0  0  0  0  0
   58.1250   33.8870   46.5980 C   0  0  0  0  0  0  0  0  0  0  0  0
   57.3790   32.8130   46.1020 C   0  0  0  0  0  0  0  0  0  0  0  0
   58.8485   31.9703   50.3292 H   0  0  0  0  0  0  0  0  0  0  0  0
   59.7292   32.4658   48.8441 H   0  0  0  0  0  0  0  0  0  0  0  0
   57.9341   32.4004   48.8441 H   0  0  0  0  0  0  0  0  0  0  0  0
   59.4483   29.8796   49.5239 H   0  0  0  0  0  0  0  0  0  0  0  0
   57.8764   30.0933   48.6698 H   0  0  0  0  0  0  0  0  0  0  0  0
   60.3464   31.8657   46.1744 H   0  0  0  0  0  0  0  0  0  0  0  0
   60.1539   32.3649   47.8946 H   0  0  0  0  0  0  0  0  0  0  0  0
   62.0901   31.1564   48.5765 H   0  0  0  0  0  0  0  0  0  0  0  0
   62.1469   30.2190   47.0452 H   0  0  0  0  0  0  0  0  0  0  0  0
   62.5668   31.9655   47.0452 H   0  0  0  0  0  0  0  0  0  0  0  0
   61.3324   29.3180   46.8876 H   0  0  0  0  0  0  0  0  0  0  0  0
   60.5146   28.7046   48.3774 H   0  0  0  0  0  0  0  0  0  0  0  0
   60.1412   27.1154   46.5719 H   0  0  0  0  0  0  0  0  0  0  0  0
   58.5913   27.9627   46.9441 H   0  0  0  0  0  0  0  0  0  0  0  0
   59.0030   30.6260   45.4020 H   0  0  0  0  0  0  0  0  0  0  0  0
   57.9098   28.4264   43.0460 H   0  0  0  0  0  0  0  0  0  0  0  0
   57.8488   27.0045   44.1292 H   0  0  0  0  0  0  0  0  0  0  0  0
   57.2391   30.8812   43.2934 H   0  0  0  0  0  0  0  0  0  0  0  0
   55.7362   31.4403   44.1014 H   0  0  0  0  0  0  0  0  0  0  0  0
   58.5626   32.7628   42.8928 H   0  0  0  0  0  0  0  0  0  0  0  0
   59.8787   34.6895   43.7718 H   0  0  0  0  0  0  0  0  0  0  0  0
   59.8104   35.6862   47.4096 H   0  0  0  0  0  0  0  0  0  0  0  0
   60.8679   35.6424   45.9582 H   0  0  0  0  0  0  0  0  0  0  0  0
   59.3842   36.6550   45.9582 H   0  0  0  0  0  0  0  0  0  0  0  0
   57.9946   34.2086   47.6418 H   0  0  0  0  0  0  0  0  0  0  0  0
   56.6742   32.2849   46.7611 H   0  0  0  0  0  0  0  0  0  0  0  0
  1  2  1  0
  2  3  1  0
  3  4  1  0
  4  5  1  0
  3  6  1  0
  6  7  1  0
  7  8  1  0
  8  9  1  1
  8 10  1  0
 10 11  1  0
 11 12  2  0
 11 13  1  0
 13 14  1  0
 14 15  1  0
 15 16  2  0
 16 17  1  0
 17 18  2  0
 18 19  1  0
 18 20  1  0
 20 21  2  0
 21 15  1  0
  1 22  1  0
  1 23  1  0
  1 24  1  0
  2 25  1  0
  2 26  1  0
  4 27  1  0
  4 28  1  0
  5 29  1  0
  5 30  1  0
  5 31  1  0
  6 32  1  0
  6 33  1  0
  7 34  1  0
  7 35  1  0
  9 36  1  0
 10 37  1  0
 10 38  1  0
 14 39  1  0
 14 40  1  0
 16 41  1  0
 17 42  1  0
 19 43  1  0
 19 44  1  0
 19 45  1  0
 20 46  1  0
 21 47  1  0
M  CHG  2   8   1  13  -1
M  END
>  <UniqueID>  (34) 
34

>  <SMILES>  (34) 
CCN(CC)CC[S@+](O)CC(=O)[N-]Cc1ccc(C)cc1

>  <Energy>  (34) 
26.850225399857617

>  <Genealogy>  (34) 
CCN(CC)CC[S+](O)CC(=O)[N-]Cc1ccc(C)cc1 (protonated)
CCN(CC)CC[S@+](O)CC(=O)[N-]Cc1ccc(C)cc1 (chirality)
CCN(CC)CC[S@+](O)CC(=O)[N-]Cc1ccc(C)cc1 (3D coordinates assigned)
CCN(CC)CC[S@+](O)CC(=O)[N-]Cc1ccc(C)cc1 (optimized conformer: 26.850225399857617 kcal/mol)

>  <smiles>  (34) 
CCN(CC)CC[S+]([O-])CC(=O)NCc1ccc(C)cc1

>  <score_type>  (34) 
oracle

>  <origin>  (34) 
adg

>  <m_score__min__energy>  (34) 
-7.4299999999999997

>  <m_primary>  (34) 
energy

$$$$
34:0
     RDKit          3D

 55 59  0  0  0  0  0  0  0  0999 V2000
   55.8930   19.5970   44.0210 C   0  0  0  0  0  0  0  0  0  0  0  0
   56.4300   20.9310   44.4490 C   0  0  0  0  0  0  0  0  0  0  0  0
   56.6780   21.9310   43.4990 C   0  0  0  0  0  0  0  0  0  0  0  0
   57.1440   23.1870   43.8980 C   0  0  0  0  0  0  0  0  0  0  0  0
   57.3560   23.4730   45.2610 C   0  0  0  0  0  0  0  0  0  0  0  0
   57.8510   24.8040   45.6980 C   0  0  0  0  0  0  0  0  0  0  0  0
   59.0870   25.0750   46.3050 C   0  0  0  0  0  0  0  0  0  0  0  0
   59.2510   26.4300   46.5970 C   0  0  0  0  0  0  0  0  0  0  0  0
   60.3440   26.9750   47.1850 N   0  0  0  0  0  0  0  0  0  0  0  0
   60.3840   28.3190   47.4200 C   0  0  0  0  0  0  0  0  0  0  0  0
   59.3320   29.1310   47.0620 N   0  0  0  0  0  0  0  0  0  0  0  0
   59.4190   30.5440   47.3260 C   0  0  0  0  0  0  0  0  0  0  0  0
   60.0900   31.0170   48.4840 C   0  0  0  0  0  0  0  0  0  0  0  0
   60.1830   32.3960   48.7490 C   0  0  0  0  0  0  0  0  0  0  0  0
   59.5910   33.2740   47.8450 C   0  0  0  0  0  0  0  0  0  0  0  0
   59.5890   34.6180   47.9000 N   0  0  0  0  0  0  0  0  0  0  0  0
   58.9260   35.0360   46.7970 C   0  0  0  0  0  0  0  0  0  0  0  0
   58.4920   33.9450   46.0490 C   0  0  0  0  0  0  0  0  0  0  0  0
   57.8070   33.9980   44.7140 C   0  0  0  0  0  0  0  0  0  0  0  0
   58.4790   33.0540   43.7100 C   0  0  0  0  0  0  0  0  0  0  0  0
   57.4680   32.3150   42.9210 N   0  0  0  0  0  0  0  0  0  0  0  0
   57.7990   32.3320   41.4860 C   0  0  0  0  0  0  0  0  0  0  0  0
   57.3610   30.9240   43.3880 C   0  0  0  0  0  0  0  0  0  0  0  0
   58.9350   32.8270   46.7290 C   0  0  0  0  0  0  0  0  0  0  0  0
   58.8270   31.4680   46.4370 C   0  0  0  0  0  0  0  0  0  0  0  0
   58.2150   28.5880   46.4700 C   0  0  0  0  0  0  0  0  0  0  0  0
   57.2240   29.3050   46.1590 O   0  0  0  0  0  0  0  0  0  0  0  0
   58.1870   27.2200   46.2350 C   0  0  0  0  0  0  0  0  0  0  0  0
   56.9960   26.2660   45.5390 S   0  0  0  0  0  0  0  0  0  0  0  0
   57.0900   22.4680   46.2100 C   0  0  0  0  0  0  0  0  0  0  0  0
   56.6240   21.2130   45.8080 C   0  0  0  0  0  0  0  0  0  0  0  0
   55.6513   18.9966   44.9104 H   0  0  0  0  0  0  0  0  0  0  0  0
   54.9838   19.7436   43.4194 H   0  0  0  0  0  0  0  0  0  0  0  0
   56.6502   19.0728   43.4194 H   0  0  0  0  0  0  0  0  0  0  0  0
   56.5048   21.7261   42.4322 H   0  0  0  0  0  0  0  0  0  0  0  0
   57.3470   23.9589   43.1410 H   0  0  0  0  0  0  0  0  0  0  0  0
   59.8418   24.3059   46.5258 H   0  0  0  0  0  0  0  0  0  0  0  0
   61.2693   28.7592   47.9022 H   0  0  0  0  0  0  0  0  0  0  0  0
   60.5425   30.2974   49.1822 H   0  0  0  0  0  0  0  0  0  0  0  0
   60.7067   32.7683   49.6418 H   0  0  0  0  0  0  0  0  0  0  0  0
   60.0290   35.2210   48.6300 H   0  0  0  0  0  0  0  0  0  0  0  0
   58.7542   36.0890   46.5292 H   0  0  0  0  0  0  0  0  0  0  0  0
   56.7552   33.7007   44.8380 H   0  0  0  0  0  0  0  0  0  0  0  0
   57.8757   35.0254   44.3270 H   0  0  0  0  0  0  0  0  0  0  0  0
   59.1082   33.6435   43.0270 H   0  0  0  0  0  0  0  0  0  0  0  0
   59.0905   32.3278   44.2656 H   0  0  0  0  0  0  0  0  0  0  0  0
   58.8906   32.3881   41.3621 H   0  0  0  0  0  0  0  0  0  0  0  0
   57.4229   31.4134   41.0120 H   0  0  0  0  0  0  0  0  0  0  0  0
   57.3308   33.2073   41.0120 H   0  0  0  0  0  0  0  0  0  0  0  0
   57.3596   30.9056   44.4878 H   0  0  0  0  0  0  0  0  0  0  0  0
   56.4262   30.4821   43.0127 H   0  0  0  0  0  0  0  0  0  0  0  0
   58.2172   30.3443   43.0127 H   0  0  0  0  0  0  0  0  0  0  0  0
   58.2947   31.1245   45.5378 H   0  0  0  0  0  0  0  0  0  0  0  0
   57.2505   22.6724   47.2789 H   0  0  0  0  0  0  0  0  0  0  0  0
   56.4083   20.4423   46.5626 H   0  0  0  0  0  0  0  0  0  0  0  0
  1  2  1  0
  2  3  2  0
  3  4  1  0
  4  5  2  0
  5  6  1  0
  6  7  2  0
  7  8  1  0
  8  9  1  0
  9 10  2  0
 10 11  1  0
 11 12  1  0
 12 13  2  0
 13 14  1  0
 14 15  2  0
 15 16  1  0
 16 17  1  0
 17 18  2  0
 18 19  1  0
 19 20  1  0
 20 21  1  0
 21 22  1  0
 21 23  1  0
 18 24  1  0
 24 25  2  0
 11 26  1  0
 26 27  2  0
 26 28  1  0
 28 29  1  0
  5 30  1  0
 30 31  2  0
 31  2  1  0
 29  6  1  0
 28  8  2  0
 25 12  1  0
 24 15  1  0
  1 32  1  0
  1 33  1  0
  1 34  1  0
  3 35  1  0
  4 36  1  0
  7 37  1  0
 10 38  1  0
 13 39  1  0
 14 40  1  0
 16 41  1  0
 17 42  1  0
 19 43  1  0
 19 44  1  0
 20 45  1  0
 20 46  1  0
 22 47  1  0
 22 48  1  0
 22 49  1  0
 23 50  1  0
 23 51  1  0
 23 52  1  0
 25 53  1  0
 30 54  1  0
 31 55  1  0
M  END
>  <UniqueID>  (35) 
35

>  <SMILES>  (35) 
Cc1ccc(-c2cc3ncn(-c4ccc5[nH]cc(CCN(C)C)c5c4)c(=O)c3s2)cc1

>  <Energy>  (35) 
133.61259533797855

>  <Genealogy>  (35) 
Cc1ccc(-c2cc3ncn(-c4ccc5[nH]cc(CCN(C)C)c5c4)c(=O)c3s2)cc1 (3D coordinates assigned)
Cc1ccc(-c2cc3ncn(-c4ccc5[nH]cc(CCN(C)C)c5c4)c(=O)c3s2)cc1 (optimized conformer: 133.61259533797855 kcal/mol)

>  <smiles>  (35) 
Cc1ccc(-c2cc3ncn(-c4ccc5[nH]cc(CCN(C)C)c5c4)c(=O)c3s2)cc1

>  <score_type>  (35) 
oracle

>  <origin>  (35) 
adg

>  <m_score__min__energy>  (35) 
-8.6099999999999994

>  <m_primary>  (35) 
energy

$$$$
35:0
     RDKit          3D

 36 37  0  0  0  0  0  0  0  0999 V2000
   56.2640   29.6700   42.6880 C   0  0  0  0  0  0  0  0  0  0  0  0
   55.8830   30.0490   44.1160 C   0  0  0  0  0  0  0  0  0  0  0  0
   57.0450   30.6430   44.8100 N   0  0  0  0  0  0  0  0  0  0  0  0
   57.7780   31.5910   43.9550 C   0  0  0  0  0  0  0  0  0  0  0  0
   57.9280   29.6370   45.4510 C   0  0  0  0  0  0  0  0  0  0  0  0
   58.7150   30.1630   46.6730 C   0  0  0  0  0  0  0  0  0  0  0  0
   58.1470   31.4340   47.1410 N   0  0  0  0  0  0  0  0  0  0  0  0
   59.1290   32.4770   47.0340 C   0  0  0  0  0  0  0  0  0  0  0  0
   60.3430   32.4030   47.5160 O   0  0  0  0  0  0  0  0  0  0  0  0
   60.9400   33.5310   47.1910 C   0  0  0  0  0  0  0  0  0  0  0  0
   62.3590   33.8460   47.5420 C   0  0  0  0  0  0  0  0  0  0  0  0
   63.3300   32.6920   47.3430 C   0  0  0  0  0  0  0  0  0  0  0  0
   63.3160   33.8520   46.3610 C   0  0  0  0  0  0  0  0  0  0  0  0
   60.1480   34.3670   46.4790 N   0  0  0  0  0  0  0  0  0  0  0  0
   58.9920   33.6830   46.3860 C   0  0  0  0  0  0  0  0  0  0  0  0
   57.8270   34.1620   45.6920 C   0  0  0  0  0  0  0  0  0  0  0  0
   56.8910   34.5460   45.1330 N   0  0  0  0  0  0  0  0  0  0  0  0
   57.0437   28.8944   42.7101 H   0  0  0  0  0  0  0  0  0  0  0  0
   55.3781   29.2844   42.1622 H   0  0  0  0  0  0  0  0  0  0  0  0
   56.6449   30.5579   42.1622 H   0  0  0  0  0  0  0  0  0  0  0  0
   55.0610   30.7796   44.0917 H   0  0  0  0  0  0  0  0  0  0  0  0
   55.5640   29.1453   44.6559 H   0  0  0  0  0  0  0  0  0  0  0  0
   58.3290   32.3036   44.5863 H   0  0  0  0  0  0  0  0  0  0  0  0
   58.4869   31.0395   43.3199 H   0  0  0  0  0  0  0  0  0  0  0  0
   57.0658   32.1383   43.3199 H   0  0  0  0  0  0  0  0  0  0  0  0
   57.3047   28.7928   45.7809 H   0  0  0  0  0  0  0  0  0  0  0  0
   58.6754   29.3499   44.6967 H   0  0  0  0  0  0  0  0  0  0  0  0
   58.6619   29.4220   47.4843 H   0  0  0  0  0  0  0  0  0  0  0  0
   59.7620   30.3277   46.3785 H   0  0  0  0  0  0  0  0  0  0  0  0
   57.3070   31.6880   46.5710 H   0  0  0  0  0  0  0  0  0  0  0  0
   57.8640   31.3460   48.1460 H   0  0  0  0  0  0  0  0  0  0  0  0
   62.1296   34.5403   48.3638 H   0  0  0  0  0  0  0  0  0  0  0  0
   64.1794   32.5631   48.0300 H   0  0  0  0  0  0  0  0  0  0  0  0
   63.2331   31.5996   47.2580 H   0  0  0  0  0  0  0  0  0  0  0  0
   64.1555   34.5624   46.3372 H   0  0  0  0  0  0  0  0  0  0  0  0
   63.2049   33.9464   45.2707 H   0  0  0  0  0  0  0  0  0  0  0  0
  1  2  1  0
  2  3  1  0
  3  4  1  0
  3  5  1  0
  5  6  1  0
  6  7  1  0
  7  8  1  0
  8  9  1  0
  9 10  1  0
 10 11  1  0
 11 12  1  0
 12 13  1  0
 10 14  2  0
 14 15  1  0
 15 16  1  0
 16 17  3  0
 15  8  2  0
 13 11  1  0
  1 18  1  0
  1 19  1  0
  1 20  1  0
  2 21  1  0
  2 22  1  0
  4 23  1  0
  4 24  1  0
  4 25  1  0
  5 26  1  0
  5 27  1  0
  6 28  1  0
  6 29  1  0
  7 30  1  0
  7 31  1  0
 11 32  1  0
 12 33  1  0
 12 34  1  0
 13 35  1  0
 13 36  1  0
M  CHG  1   7   1
M  END
>  <UniqueID>  (36) 
36

>  <SMILES>  (36) 
CCN(C)CC[NH2+]c1oc(C2CC2)nc1C#N

>  <Energy>  (36) 
328.0845050397298

>  <Genealogy>  (36) 
CCN(C)CC[NH2+]c1oc(C2CC2)nc1C#N (protonated)
CCN(C)CC[NH2+]c1oc(C2CC2)nc1C#N (3D coordinates assigned)
CCN(C)CC[NH2+]c1oc(C2CC2)nc1C#N (nonaromatic ring conformer: 328.0845050397298 kcal/mol)

>  <smiles>  (36) 
CCN(C)CCNc1oc(C2CC2)nc1C#N

>  <score_type>  (36) 
oracle

>  <origin>  (36) 
adg

>  <m_score__min__energy>  (36) 
-3.6099999999999999

>  <m_primary>  (36) 
energy

$$$$
36:0
     RDKit          3D

 49 50  0  0  0  0  0  0  0  0999 V2000
   62.3560   32.4880   47.5210 C   0  0  0  0  0  0  0  0  0  0  0  0
   62.3340   31.0820   47.3020 O   0  0  0  0  0  0  0  0  0  0  0  0
   61.1650   30.3160   47.1900 C   0  0  0  0  0  0  0  0  0  0  0  0
   60.3380   30.1990   48.3130 C   0  0  0  0  0  0  0  0  0  0  0  0
   59.1620   29.4470   48.2520 C   0  0  0  0  0  0  0  0  0  0  0  0
   58.7990   28.8090   47.0640 C   0  0  0  0  0  0  0  0  0  0  0  0
   59.6060   28.9260   45.9210 C   0  0  0  0  0  0  0  0  0  0  0  0
   59.2150   28.2320   44.6410 C   0  0  0  0  0  0  0  0  0  0  0  0
   57.7390   28.4550   44.2270 C   0  0  0  0  0  0  0  0  0  0  0  0
   57.4410   29.6800   43.4380 N   0  0  1  0  0  0  0  0  0  0  0  0
   56.2600   29.5430   42.5670 C   0  0  0  0  0  0  0  0  0  0  0  0
   57.3610   30.8850   44.2480 C   0  0  0  0  0  0  0  0  0  0  0  0
   56.6510   30.9070   45.2440 O   0  0  0  0  0  0  0  0  0  0  0  0
   58.0550   32.1670   43.8150 C   0  0  0  0  0  0  0  0  0  0  0  0
   58.3520   33.1040   44.9210 N   0  0  0  0  0  0  0  0  0  0  0  0
   59.2680   34.1930   44.5500 C   0  0  0  0  0  0  0  0  0  0  0  0
   59.3210   35.2380   45.6860 C   0  0  0  0  0  0  0  0  0  0  0  0
   58.7710   34.7560   46.9020 O   0  0  0  0  0  0  0  0  0  0  0  0
   59.2880   33.4730   47.1980 C   0  0  1  0  0  0  0  0  0  0  0  0
   58.8950   33.0910   48.6250 C   0  0  0  0  0  0  0  0  0  0  0  0
   58.7610   32.4380   46.1730 C   0  0  0  0  0  0  0  0  0  0  0  0
   60.7990   29.6650   45.9950 C   0  0  0  0  0  0  0  0  0  0  0  0
   62.3592   32.6907   48.6022 H   0  0  0  0  0  0  0  0  0  0  0  0
   63.2610   32.9160   47.0651 H   0  0  0  0  0  0  0  0  0  0  0  0
   61.4649   32.9441   47.0651 H   0  0  0  0  0  0  0  0  0  0  0  0
   60.6159   30.7028   49.2505 H   0  0  0  0  0  0  0  0  0  0  0  0
   58.5209   29.3574   49.1414 H   0  0  0  0  0  0  0  0  0  0  0  0
   57.8761   28.2118   47.0235 H   0  0  0  0  0  0  0  0  0  0  0  0
   59.8609   28.6069   43.8334 H   0  0  0  0  0  0  0  0  0  0  0  0
   59.3364   27.1527   44.8151 H   0  0  0  0  0  0  0  0  0  0  0  0
   57.4275   27.5881   43.6258 H   0  0  0  0  0  0  0  0  0  0  0  0
   57.1911   28.5815   45.1724 H   0  0  0  0  0  0  0  0  0  0  0  0
   58.2510   29.7840   42.7820 H   0  0  0  0  0  0  0  0  0  0  0  0
   55.3574   29.4383   43.1869 H   0  0  0  0  0  0  0  0  0  0  0  0
   56.1671   30.4364   41.9320 H   0  0  0  0  0  0  0  0  0  0  0  0
   56.3741   28.6521   41.9320 H   0  0  0  0  0  0  0  0  0  0  0  0
   59.0039   31.8972   43.3283 H   0  0  0  0  0  0  0  0  0  0  0  0
   57.3601   32.6879   43.1399 H   0  0  0  0  0  0  0  0  0  0  0  0
   60.2750   33.7830   44.3830 H   0  0  0  0  0  0  0  0  0  0  0  0
   58.9078   34.6742   43.6287 H   0  0  0  0  0  0  0  0  0  0  0  0
   60.3713   35.5146   45.8605 H   0  0  0  0  0  0  0  0  0  0  0  0
   58.7188   36.1024   45.3695 H   0  0  0  0  0  0  0  0  0  0  0  0
   60.3856   33.4856   47.1267 H   0  0  0  0  0  0  0  0  0  0  0  0
   59.4950   33.6742   49.3391 H   0  0  0  0  0  0  0  0  0  0  0  0
   57.8276   33.3060   48.7814 H   0  0  0  0  0  0  0  0  0  0  0  0
   59.0796   32.0179   48.7814 H   0  0  0  0  0  0  0  0  0  0  0  0
   59.5568   31.7115   45.9520 H   0  0  0  0  0  0  0  0  0  0  0  0
   57.8867   31.9279   46.6037 H   0  0  0  0  0  0  0  0  0  0  0  0
   61.4524   29.7359   45.1130 H   0  0  0  0  0  0  0  0  0  0  0  0
  1  2  1  0
  2  3  1  0
  3  4  2  0
  4  5  1  0
  5  6  2  0
  6  7  1  0
  7  8  1  0
  8  9  1  0
  9 10  1  0
 10 11  1  0
 10 12  1  0
 12 13  2  0
 12 14  1  0
 14 15  1  0
 15 16  1  0
 16 17  1  0
 17 18  1  0
 18 19  1  0
 19 20  1  0
 19 21  1  0
  7 22  2  0
 22  3  1  0
 21 15  1  0
  1 23  1  0
  1 24  1  0
  1 25  1  0
  4 26  1  0
  5 27  1  0
  6 28  1  0
  8 29  1  0
  8 30  1  0
  9 31  1  0
  9 32  1  0
 10 33  1  6
 11 34  1  0
 11 35  1  0
 11 36  1  0
 14 37  1  0
 14 38  1  0
 16 39  1  0
 16 40  1  0
 17 41  1  0
 17 42  1  0
 19 43  1  1
 20 44  1  0
 20 45  1  0
 20 46  1  0
 21 47  1  0
 21 48  1  0
 22 49  1  0
M  CHG  1  10   1
M  END
>  <UniqueID>  (37) 
37

>  <SMILES>  (37) 
COc1cccc(CC[N@@H+](C)C(=O)CN2CCO[C@@H](C)C2)c1

>  <Energy>  (37) 
61.39894920492174

>  <Genealogy>  (37) 
COc1cccc(CC[NH+](C)C(=O)CN2CCOC(C)C2)c1 (protonated)
COc1cccc(CC[N@@H+](C)C(=O)CN2CCO[C@@H](C)C2)c1 (chirality)
COc1cccc(CC[N@@H+](C)C(=O)CN2CCO[C@@H](C)C2)c1 (3D coordinates assigned)
COc1cccc(CC[N@@H+](C)C(=O)CN2CCO[C@@H](C)C2)c1 (nonaromatic ring conformer: 61.39894920492174 kcal/mol)

>  <smiles>  (37) 
COc1cccc(CCN(C)C(=O)CN2CCOC(C)C2)c1

>  <score_type>  (37) 
oracle

>  <origin>  (37) 
adg

>  <m_score__min__energy>  (37) 
-6.4500000000000002

>  <m_primary>  (37) 
energy

$$$$
