0:0
     RDKit          3D

 41 43  0  0  0  0  0  0  0  0999 V2000
   58.9840   32.7860   49.7950 C   0  0  0  0  0  0  0  0  0  0  0  0
   59.6470   34.1540   49.6240 C   0  0  0  0  0  0  0  0  0  0  0  0
   60.7920   34.0880   48.6820 N   0  0  0  0  0  0  0  0  0  0  0  0
   60.6000   34.3900   47.3420 C   0  0  0  0  0  0  0  0  0  0  0  0
   59.2640   34.9070   46.8100 C   0  0  0  0  0  0  0  0  0  0  0  0
   58.3950   33.8330   46.2960 N   0  0  0  0  0  0  0  0  0  0  0  0
   58.5040   33.6520   44.8380 C   0  0  0  0  0  0  0  0  0  0  0  0
   57.8430   32.3790   44.3630 C   0  0  0  0  0  0  0  0  0  0  0  0
   57.6370   32.1470   42.9940 C   0  0  0  0  0  0  0  0  0  0  0  0
   57.0320   30.9630   42.5700 C   0  0  0  0  0  0  0  0  0  0  0  0
   56.6310   30.0210   43.5210 C   0  0  0  0  0  0  0  0  0  0  0  0
   56.8280   30.2620   44.8430 N   0  0  0  0  0  0  0  0  0  0  0  0
   57.4150   31.4080   45.2810 C   0  0  0  0  0  0  0  0  0  0  0  0
   61.6230   34.1260   46.4170 C   0  0  0  0  0  0  0  0  0  0  0  0
   62.8640   33.6800   46.8390 C   0  0  0  0  0  0  0  0  0  0  0  0
   63.7660   33.4680   45.9820 O   0  0  0  0  0  0  0  0  0  0  0  0
   63.1020   33.4800   48.2020 C   0  0  0  0  0  0  0  0  0  0  0  0
   64.3710   33.0610   48.6510 C   0  0  0  0  0  0  0  0  0  0  0  0
   64.6120   32.8620   50.0080 C   0  0  0  0  0  0  0  0  0  0  0  0
   66.1990   32.3450   50.5530 Cl  0  0  0  0  0  0  0  0  0  0  0  0
   63.5960   33.0810   50.9330 C   0  0  0  0  0  0  0  0  0  0  0  0
   62.3320   33.4910   50.5090 C   0  0  0  0  0  0  0  0  0  0  0  0
   62.0470   33.6930   49.1320 C   0  0  0  0  0  0  0  0  0  0  0  0
   58.8756   32.5624   50.8666 H   0  0  0  0  0  0  0  0  0  0  0  0
   57.9916   32.7977   49.3207 H   0  0  0  0  0  0  0  0  0  0  0  0
   59.6080   32.0142   49.3207 H   0  0  0  0  0  0  0  0  0  0  0  0
   58.9039   34.8654   49.2345 H   0  0  0  0  0  0  0  0  0  0  0  0
   60.0242   34.4804   50.6044 H   0  0  0  0  0  0  0  0  0  0  0  0
   58.7377   35.4234   47.6263 H   0  0  0  0  0  0  0  0  0  0  0  0
   59.4833   35.5833   45.9706 H   0  0  0  0  0  0  0  0  0  0  0  0
   57.4040   34.0550   46.5470 H   0  0  0  0  0  0  0  0  0  0  0  0
   58.0234   34.5066   44.3393 H   0  0  0  0  0  0  0  0  0  0  0  0
   59.5732   33.5874   44.5878 H   0  0  0  0  0  0  0  0  0  0  0  0
   57.9525   32.8985   42.2553 H   0  0  0  0  0  0  0  0  0  0  0  0
   56.8725   30.7733   41.4983 H   0  0  0  0  0  0  0  0  0  0  0  0
   56.1552   29.0831   43.1985 H   0  0  0  0  0  0  0  0  0  0  0  0
   57.5548   31.5743   46.3593 H   0  0  0  0  0  0  0  0  0  0  0  0
   61.4360   34.2754   45.3434 H   0  0  0  0  0  0  0  0  0  0  0  0
   65.1778   32.8898   47.9231 H   0  0  0  0  0  0  0  0  0  0  0  0
   63.7907   32.9299   52.0050 H   0  0  0  0  0  0  0  0  0  0  0  0
   61.5413   33.6611   51.2546 H   0  0  0  0  0  0  0  0  0  0  0  0
  1  2  1  0
  2  3  1  0
  3  4  1  0
  4  5  1  0
  5  6  1  0
  6  7  1  0
  7  8  1  0
  8  9  2  0
  9 10  1  0
 10 11  2  0
 11 12  1  0
 12 13  2  0
  4 14  2  0
 14 15  1  0
 15 16  2  0
 15 17  1  0
 17 18  2  0
 18 19  1  0
 19 20  1  0
 19 21  2  0
 21 22  1  0
 22 23  2  0
 23  3  1  0
 13  8  1  0
 23 17  1  0
  1 24  1  0
  1 25  1  0
  1 26  1  0
  2 27  1  0
  2 28  1  0
  5 29  1  0
  5 30  1  0
  6 31  1  0
  7 32  1  0
  7 33  1  0
  9 34  1  0
 10 35  1  0
 11 36  1  0
 13 37  1  0
 14 38  1  0
 18 39  1  0
 21 40  1  0
 22 41  1  0
M  END
>  <UniqueID>  (1) 
1

>  <SMILES>  (1) 
CCn1c(CNCc2cccnc2)cc(=O)c2cc(Cl)ccc21

>  <Energy>  (1) 
58.28280951084777

>  <Genealogy>  (1) 
CCn1c(CNCc2cccnc2)cc(=O)c2cc(Cl)ccc21 (3D coordinates assigned)
CCn1c(CNCc2cccnc2)cc(=O)c2cc(Cl)ccc21 (optimized conformer: 58.28280951084777 kcal/mol)

>  <smiles>  (1) 
CCn1c(CNCc2cccnc2)cc(=O)c2cc(Cl)ccc21

>  <score_type>  (1) 
oracle

>  <origin>  (1) 
adg

>  <m_score__min__energy>  (1) 
-7.9000000000000004

>  <m_primary>  (1) 
energy

$$$$
1:0
     RDKit          3D

 50 52  0  0  0  0  0  0  0  0999 V2000
   57.7650   25.7520   44.0380 C   0  0  0  0  0  0  0  0  0  0  0  0
   58.2100   27.0040   44.7360 C   0  0  0  0  0  0  0  0  0  0  0  0
   58.9270   26.9200   45.9260 C   0  0  0  0  0  0  0  0  0  0  0  0
   59.2850   28.0740   46.6390 C   0  0  0  0  0  0  0  0  0  0  0  0
   59.8690   27.8700   48.0170 C   0  0  0  0  0  0  0  0  0  0  0  0
   58.9870   29.3620   46.0920 C   0  0  0  0  0  0  0  0  0  0  0  0
   59.4330   30.5690   46.6820 C   0  0  0  0  0  0  0  0  0  0  0  0
   60.5690   30.5860   47.5600 N   0  0  0  0  0  0  0  0  0  0  0  0
   61.8560   31.1460   47.1360 C   0  0  0  0  0  0  0  0  0  0  0  0
   62.7230   31.5810   48.3380 C   0  0  0  0  0  0  0  0  0  0  0  0
   63.8410   32.4780   47.9430 N   0  0  0  0  0  0  0  0  0  0  0  0
   64.4740   33.0670   49.1350 C   0  0  0  0  0  0  0  0  0  0  0  0
   63.3710   33.5530   47.0490 C   0  0  0  0  0  0  0  0  0  0  0  0
   58.8620   31.7870   46.2850 C   0  0  0  0  0  0  0  0  0  0  0  0
   59.1190   32.9740   47.0050 C   0  0  0  0  0  0  0  0  0  0  0  0
   58.5180   34.1740   46.6320 C   0  0  0  0  0  0  0  0  0  0  0  0
   57.6480   34.2100   45.5490 C   0  0  0  0  0  0  0  0  0  0  0  0
   57.3940   33.0510   44.8150 C   0  0  0  0  0  0  0  0  0  0  0  0
   58.0230   31.8230   45.1470 C   0  0  0  0  0  0  0  0  0  0  0  0
   57.8500   30.6850   44.3860 N   0  0  0  0  0  0  0  0  0  0  0  0
   57.3050   30.7940   43.0150 C   0  0  0  0  0  0  0  0  0  0  0  0
   58.2090   29.4500   44.8990 C   0  0  0  0  0  0  0  0  0  0  0  0
   57.8100   28.2520   44.2600 C   0  0  0  0  0  0  0  0  0  0  0  0
   57.4948   24.9917   44.7856 H   0  0  0  0  0  0  0  0  0  0  0  0
   56.8908   25.9742   43.4084 H   0  0  0  0  0  0  0  0  0  0  0  0
   58.5833   25.3726   43.4084 H   0  0  0  0  0  0  0  0  0  0  0  0
   59.2177   25.9325   46.3138 H   0  0  0  0  0  0  0  0  0  0  0  0
   59.1176   28.1325   48.7762 H   0  0  0  0  0  0  0  0  0  0  0  0
   60.1612   26.8166   48.1391 H   0  0  0  0  0  0  0  0  0  0  0  0
   60.7536   28.5124   48.1391 H   0  0  0  0  0  0  0  0  0  0  0  0
   60.4130   30.4290   48.5810 H   0  0  0  0  0  0  0  0  0  0  0  0
   62.4027   30.3838   46.5614 H   0  0  0  0  0  0  0  0  0  0  0  0
   61.6532   32.0371   46.5238 H   0  0  0  0  0  0  0  0  0  0  0  0
   62.0840   32.1114   49.0594 H   0  0  0  0  0  0  0  0  0  0  0  0
   63.1636   30.6733   48.7762 H   0  0  0  0  0  0  0  0  0  0  0  0
   64.5790   31.9400   47.4330 H   0  0  0  0  0  0  0  0  0  0  0  0
   64.0170   32.6418   50.0407 H   0  0  0  0  0  0  0  0  0  0  0  0
   65.5507   32.8421   49.1273 H   0  0  0  0  0  0  0  0  0  0  0  0
   64.3271   34.1571   49.1273 H   0  0  0  0  0  0  0  0  0  0  0  0
   63.0024   34.3961   47.6517 H   0  0  0  0  0  0  0  0  0  0  0  0
   64.2030   33.8921   46.4143 H   0  0  0  0  0  0  0  0  0  0  0  0
   62.5571   33.1725   46.4143 H   0  0  0  0  0  0  0  0  0  0  0  0
   59.8001   32.9510   47.8685 H   0  0  0  0  0  0  0  0  0  0  0  0
   58.7323   35.0942   47.1954 H   0  0  0  0  0  0  0  0  0  0  0  0
   57.1584   35.1546   45.2697 H   0  0  0  0  0  0  0  0  0  0  0  0
   56.6956   33.0897   43.9661 H   0  0  0  0  0  0  0  0  0  0  0  0
   56.2275   31.0095   43.0648 H   0  0  0  0  0  0  0  0  0  0  0  0
   57.8173   31.6075   42.4804 H   0  0  0  0  0  0  0  0  0  0  0  0
   57.4650   29.8461   42.4804 H   0  0  0  0  0  0  0  0  0  0  0  0
   57.1696   28.3066   43.3673 H   0  0  0  0  0  0  0  0  0  0  0  0
  1  2  1  0
  2  3  2  0
  3  4  1  0
  4  5  1  0
  4  6  2  0
  6  7  1  0
  7  8  1  0
  8  9  1  0
  9 10  1  0
 10 11  1  0
 11 12  1  0
 11 13  1  0
  7 14  2  0
 14 15  1  0
 15 16  2  0
 16 17  1  0
 17 18  2  0
 18 19  1  0
 19 20  2  0
 20 21  1  0
 20 22  1  0
 22 23  2  0
 23  2  1  0
 22  6  1  0
 19 14  1  0
  1 24  1  0
  1 25  1  0
  1 26  1  0
  3 27  1  0
  5 28  1  0
  5 29  1  0
  5 30  1  0
  8 31  1  0
  9 32  1  0
  9 33  1  0
 10 34  1  0
 10 35  1  0
 11 36  1  0
 12 37  1  0
 12 38  1  0
 12 39  1  0
 13 40  1  0
 13 41  1  0
 13 42  1  0
 15 43  1  0
 16 44  1  0
 17 45  1  0
 18 46  1  0
 21 47  1  0
 21 48  1  0
 21 49  1  0
 23 50  1  0
M  CHG  2  11   1  20   1
M  END
>  <UniqueID>  (2) 
2

>  <SMILES>  (2) 
Cc1cc(C)c2c(NCC[NH+](C)C)c3ccccc3[n+](C)c2c1

>  <Energy>  (2) 
84.84135753119942

>  <Genealogy>  (2) 
Cc1cc(C)c2c(NCC[NH+](C)C)c3ccccc3[n+](C)c2c1 (protonated)
Cc1cc(C)c2c(NCC[NH+](C)C)c3ccccc3[n+](C)c2c1 (3D coordinates assigned)
Cc1cc(C)c2c(NCC[NH+](C)C)c3ccccc3[n+](C)c2c1 (optimized conformer: 84.84135753119942 kcal/mol)

>  <smiles>  (2) 
Cc1cc(C)c2c(NCCN(C)C)c3ccccc3[n+](C)c2c1

>  <score_type>  (2) 
oracle

>  <origin>  (2) 
adg

>  <m_score__min__energy>  (2) 
-4.96

>  <m_primary>  (2) 
energy

$$$$
2:0
     RDKit          3D

 63 66  0  0  0  0  0  0  0  0999 V2000
   55.0780   30.7370   51.9640 C   0  0  0  0  0  0  0  0  0  0  0  0
   56.4070   30.1400   52.4520 C   0  0  0  0  0  0  0  0  0  0  0  0
   57.5070   30.1990   51.4630 N   0  0  0  0  0  0  0  0  0  0  0  0
   57.7580   31.5310   50.8720 C   0  0  0  0  0  0  0  0  0  0  0  0
   57.9000   32.6070   51.9480 C   0  0  0  0  0  0  0  0  0  0  0  0
   58.6940   29.3660   51.7730 C   0  0  0  0  0  0  0  0  0  0  0  0
   60.0590   30.0400   51.4830 C   0  0  0  0  0  0  0  0  0  0  0  0
   60.7820   29.4080   50.3590 N   0  0  0  0  0  0  0  0  0  0  0  0
   60.0980   29.6200   49.0960 C   0  0  0  0  0  0  0  0  0  0  0  0
   59.3010   28.5940   48.5790 C   0  0  0  0  0  0  0  0  0  0  0  0
   58.6090   28.7590   47.3890 C   0  0  0  0  0  0  0  0  0  0  0  0
   58.6380   29.9860   46.6940 C   0  0  0  0  0  0  0  0  0  0  0  0
   59.3430   31.0780   47.2580 C   0  0  0  0  0  0  0  0  0  0  0  0
   60.1720   30.8520   48.3910 C   0  0  0  0  0  0  0  0  0  0  0  0
   61.1450   31.9130   48.8250 C   0  0  0  0  0  0  0  0  0  0  0  0
   61.3200   32.9670   47.7360 C   0  0  0  0  0  0  0  0  0  0  0  0
   60.0190   33.5050   47.2390 N   0  0  0  0  0  0  0  0  0  0  0  0
   60.3860   34.5180   46.2060 C   0  0  0  0  0  0  0  0  0  0  0  0
   59.3070   34.1640   48.3700 C   0  0  0  0  0  0  0  0  0  0  0  0
   59.2110   32.3850   46.6860 C   0  0  0  0  0  0  0  0  0  0  0  0
   58.2860   32.5500   45.6550 N   0  0  0  0  0  0  0  0  0  0  0  0
   57.6390   33.8460   45.3640 C   0  0  0  0  0  0  0  0  0  0  0  0
   57.8730   31.4590   44.9170 C   0  0  0  0  0  0  0  0  0  0  0  0
   57.2890   31.6200   43.6320 C   0  0  0  0  0  0  0  0  0  0  0  0
   56.8380   30.5230   42.9020 C   0  0  0  0  0  0  0  0  0  0  0  0
   56.9690   29.2430   43.4200 C   0  0  0  0  0  0  0  0  0  0  0  0
   57.5590   29.0500   44.6670 C   0  0  0  0  0  0  0  0  0  0  0  0
   58.0170   30.1490   45.4370 C   0  0  0  0  0  0  0  0  0  0  0  0
   54.4604   31.0144   52.8309 H   0  0  0  0  0  0  0  0  0  0  0  0
   55.2791   31.6313   51.3558 H   0  0  0  0  0  0  0  0  0  0  0  0
   54.5430   29.9927   51.3558 H   0  0  0  0  0  0  0  0  0  0  0  0
   56.7223   30.6919   53.3498 H   0  0  0  0  0  0  0  0  0  0  0  0
   56.2182   29.0739   52.6463 H   0  0  0  0  0  0  0  0  0  0  0  0
   58.6860   31.4908   50.2828 H   0  0  0  0  0  0  0  0  0  0  0  0
   56.8994   31.7922   50.2359 H   0  0  0  0  0  0  0  0  0  0  0  0
   57.8385   32.1413   52.9426 H   0  0  0  0  0  0  0  0  0  0  0  0
   58.8723   33.1096   51.8379 H   0  0  0  0  0  0  0  0  0  0  0  0
   57.0914   33.3446   51.8379 H   0  0  0  0  0  0  0  0  0  0  0  0
   58.6606   29.1082   52.8418 H   0  0  0  0  0  0  0  0  0  0  0  0
   58.6365   28.4893   51.1111 H   0  0  0  0  0  0  0  0  0  0  0  0
   59.8837   31.0979   51.2378 H   0  0  0  0  0  0  0  0  0  0  0  0
   60.6819   29.9278   52.3827 H   0  0  0  0  0  0  0  0  0  0  0  0
   60.9000   28.3840   50.5370 H   0  0  0  0  0  0  0  0  0  0  0  0
   61.7520   29.7890   50.3160 H   0  0  0  0  0  0  0  0  0  0  0  0
   59.2219   27.6420   49.1244 H   0  0  0  0  0  0  0  0  0  0  0  0
   58.0279   27.9193   46.9802 H   0  0  0  0  0  0  0  0  0  0  0  0
   60.7672   32.3970   49.7377 H   0  0  0  0  0  0  0  0  0  0  0  0
   62.1193   31.4400   49.0172 H   0  0  0  0  0  0  0  0  0  0  0  0
   61.9120   33.7995   48.1441 H   0  0  0  0  0  0  0  0  0  0  0  0
   61.8261   32.4854   46.8864 H   0  0  0  0  0  0  0  0  0  0  0  0
   60.7206   35.4417   46.7009 H   0  0  0  0  0  0  0  0  0  0  0  0
   61.1984   34.1235   45.5779 H   0  0  0  0  0  0  0  0  0  0  0  0
   59.5095   34.7354   45.5779 H   0  0  0  0  0  0  0  0  0  0  0  0
   59.7095   33.7915   49.3235 H   0  0  0  0  0  0  0  0  0  0  0  0
   59.4530   35.2527   48.3107 H   0  0  0  0  0  0  0  0  0  0  0  0
   58.2329   33.9344   48.3107 H   0  0  0  0  0  0  0  0  0  0  0  0
   57.3872   34.3504   46.3086 H   0  0  0  0  0  0  0  0  0  0  0  0
   58.3276   34.4774   44.7834 H   0  0  0  0  0  0  0  0  0  0  0  0
   56.7205   33.6751   44.7834 H   0  0  0  0  0  0  0  0  0  0  0  0
   57.1912   32.6294   43.2059 H   0  0  0  0  0  0  0  0  0  0  0  0
   56.3777   30.6718   41.9141 H   0  0  0  0  0  0  0  0  0  0  0  0
   56.6062   28.3784   42.8448 H   0  0  0  0  0  0  0  0  0  0  0  0
   57.6714   28.0290   45.0606 H   0  0  0  0  0  0  0  0  0  0  0  0
  1  2  1  0
  2  3  1  0
  3  4  1  0
  4  5  1  0
  3  6  1  0
  6  7  1  0
  7  8  1  0
  8  9  1  0
  9 10  2  0
 10 11  1  0
 11 12  2  0
 12 13  1  0
 13 14  2  0
 14 15  1  0
 15 16  1  0
 16 17  1  0
 17 18  1  0
 17 19  1  0
 17 20  1  0
 20 21  2  0
 21 22  1  0
 21 23  1  0
 23 24  2  0
 24 25  1  0
 25 26  2  0
 26 27  1  0
 27 28  2  0
 14  9  1  0
 28 23  1  0
 28 12  1  0
 20 13  1  0
  1 29  1  0
  1 30  1  0
  1 31  1  0
  2 32  1  0
  2 33  1  0
  4 34  1  0
  4 35  1  0
  5 36  1  0
  5 37  1  0
  5 38  1  0
  6 39  1  0
  6 40  1  0
  7 41  1  0
  7 42  1  0
  8 43  1  0
  8 44  1  0
 10 45  1  0
 11 46  1  0
 15 47  1  0
 15 48  1  0
 16 49  1  0
 16 50  1  0
 18 51  1  0
 18 52  1  0
 18 53  1  0
 19 54  1  0
 19 55  1  0
 19 56  1  0
 22 57  1  0
 22 58  1  0
 22 59  1  0
 24 60  1  0
 25 61  1  0
 26 62  1  0
 27 63  1  0
M  CHG  3   8   1  17   1  21   1
M  END
>  <UniqueID>  (3) 
3

>  <SMILES>  (3) 
CCN(CC)CC[NH2+]c1ccc2c3c1CC[N+](C)(C)c3[n+](C)c1ccccc21

>  <Energy>  (3) 
128.9855177254436

>  <Genealogy>  (3) 
CCN(CC)CC[NH2+]c1ccc2c3c1CC[N+](C)(C)c3[n+](C)c1ccccc21 (protonated)
CCN(CC)CC[NH2+]c1ccc2c3c1CC[N+](C)(C)c3[n+](C)c1ccccc21 (3D coordinates assigned)
CCN(CC)CC[NH2+]c1ccc2c3c1CC[N+](C)(C)c3[n+](C)c1ccccc21 (nonaromatic ring conformer: 128.9855177254436 kcal/mol)

>  <smiles>  (3) 
CCN(CC)CCNc1ccc2c3c1CC[N+](C)(C)c3[n+](C)c1ccccc21

>  <score_type>  (3) 
oracle

>  <origin>  (3) 
adg

>  <m_score__min__energy>  (3) 
-3.8199999999999998

>  <m_primary>  (3) 
energy

$$$$
3:0
     RDKit          3D

 36 38  0  0  0  0  0  0  0  0999 V2000
   56.3540   29.7170   42.8780 C   0  0  0  0  0  0  0  0  0  0  0  0
   55.8870   30.4580   44.1280 C   0  0  0  0  0  0  0  0  0  0  0  0
   57.0510   30.9970   44.8700 N   0  0  0  0  0  0  0  0  0  0  0  0
   58.2300   30.1180   44.7120 C   0  0  0  0  0  0  0  0  0  0  0  0
   58.8960   29.9110   46.0360 C   0  0  0  0  0  0  0  0  0  0  0  0
   59.9990   29.1160   46.2730 C   0  0  0  0  0  0  0  0  0  0  0  0
   60.2600   29.2380   47.6210 C   0  0  0  0  0  0  0  0  0  0  0  0
   59.3010   30.0980   48.1200 C   0  0  0  0  0  0  0  0  0  0  0  0
   58.5030   30.4820   47.1510 O   0  0  0  0  0  0  0  0  0  0  0  0
   57.3660   32.3740   44.4310 C   0  0  0  0  0  0  0  0  0  0  0  0
   58.1730   33.0730   45.4780 C   0  0  0  0  0  0  0  0  0  0  0  0
   59.4720   32.8040   45.7350 N   0  0  0  0  0  0  0  0  0  0  0  0
   59.7360   33.6840   46.7250 C   0  0  0  0  0  0  0  0  0  0  0  0
   61.0450   33.8100   47.3790 C   0  0  0  0  0  0  0  0  0  0  0  0
   62.2790   33.6140   46.7720 C   0  0  0  0  0  0  0  0  0  0  0  0
   63.3590   33.8040   47.6430 C   0  0  0  0  0  0  0  0  0  0  0  0
   62.9800   34.1500   48.9340 C   0  0  0  0  0  0  0  0  0  0  0  0
   61.3000   34.2170   48.9920 S   0  0  0  0  0  0  0  0  0  0  0  0
   58.6580   34.4280   47.0330 N   0  0  0  0  0  0  0  0  0  0  0  0
   57.7090   34.0290   46.2470 O   0  0  0  0  0  0  0  0  0  0  0  0
   56.9190   28.8204   43.1729 H   0  0  0  0  0  0  0  0  0  0  0  0
   55.4799   29.4194   42.2801 H   0  0  0  0  0  0  0  0  0  0  0  0
   56.9996   30.3771   42.2801 H   0  0  0  0  0  0  0  0  0  0  0  0
   55.2283   31.2882   43.8331 H   0  0  0  0  0  0  0  0  0  0  0  0
   55.3416   29.7572   44.7771 H   0  0  0  0  0  0  0  0  0  0  0  0
   57.9082   29.1458   44.3103 H   0  0  0  0  0  0  0  0  0  0  0  0
   58.9423   30.5907   44.0198 H   0  0  0  0  0  0  0  0  0  0  0  0
   60.5535   28.5117   45.5399 H   0  0  0  0  0  0  0  0  0  0  0  0
   61.0682   28.7495   48.1851 H   0  0  0  0  0  0  0  0  0  0  0  0
   59.2185   30.4134   49.1706 H   0  0  0  0  0  0  0  0  0  0  0  0
   57.9407   32.3350   43.4939 H   0  0  0  0  0  0  0  0  0  0  0  0
   56.4277   32.9253   44.2707 H   0  0  0  0  0  0  0  0  0  0  0  0
   62.3961   33.3374   45.7138 H   0  0  0  0  0  0  0  0  0  0  0  0
   64.4086   33.6900   47.3341 H   0  0  0  0  0  0  0  0  0  0  0  0
   63.6618   34.3465   49.7745 H   0  0  0  0  0  0  0  0  0  0  0  0
   58.5760   35.1800   47.7520 H   0  0  0  0  0  0  0  0  0  0  0  0
  1  2  1  0
  2  3  1  0
  3  4  1  0
  4  5  1  0
  5  6  2  0
  6  7  1  0
  7  8  2  0
  8  9  1  0
  3 10  1  0
 10 11  1  0
 11 12  2  0
 12 13  1  0
 13 14  1  0
 14 15  2  0
 15 16  1  0
 16 17  2  0
 17 18  1  0
 13 19  2  0
 19 20  1  0
  9  5  1  0
 20 11  1  0
 18 14  1  0
  1 21  1  0
  1 22  1  0
  1 23  1  0
  2 24  1  0
  2 25  1  0
  4 26  1  0
  4 27  1  0
  6 28  1  0
  7 29  1  0
  8 30  1  0
 10 31  1  0
 10 32  1  0
 15 33  1  0
 16 34  1  0
 17 35  1  0
 19 36  1  0
M  CHG  1  19   1
M  END
>  <UniqueID>  (4) 
4

>  <SMILES>  (4) 
CCN(Cc1ccco1)Cc1nc(-c2cccs2)[nH+]o1

>  <Energy>  (4) 
121.38934558724561

>  <Genealogy>  (4) 
CCN(Cc1ccco1)Cc1nc(-c2cccs2)[nH+]o1 (protonated)
CCN(Cc1ccco1)Cc1nc(-c2cccs2)[nH+]o1 (3D coordinates assigned)
CCN(Cc1ccco1)Cc1nc(-c2cccs2)[nH+]o1 (optimized conformer: 121.38934558724561 kcal/mol)

>  <smiles>  (4) 
CCN(Cc1ccco1)Cc1nc(-c2cccs2)no1

>  <score_type>  (4) 
oracle

>  <origin>  (4) 
adg

>  <m_score__min__energy>  (4) 
-5.6900000000000004

>  <m_primary>  (4) 
energy

$$$$
4:0
     RDKit          3D

 43 44  0  0  0  0  0  0  0  0999 V2000
   59.6430   33.5860   49.1090 C   0  0  0  0  0  0  0  0  0  0  0  0
   60.9100   34.2150   48.5480 C   0  0  0  0  0  0  0  0  0  0  0  0
   61.4980   33.3260   47.0620 S   0  0  0  0  0  0  0  0  0  0  0  0
   59.9010   33.3130   46.2390 C   0  0  0  0  0  0  0  0  0  0  0  0
   59.1990   34.4040   45.7310 C   0  0  0  0  0  0  0  0  0  0  0  0
   59.6790   35.8210   45.7090 C   0  0  0  0  0  0  0  0  0  0  0  0
   58.0580   33.9960   45.1300 N   0  0  0  0  0  0  0  0  0  0  0  0
   58.0280   32.6580   45.2650 C   0  0  0  0  0  0  0  0  0  0  0  0
   57.0490   31.7840   44.7980 C   0  0  0  0  0  0  0  0  0  0  0  0
   57.2140   30.4030   45.0460 C   0  0  0  0  0  0  0  0  0  0  0  0
   56.2000   29.4500   44.5600 C   0  0  0  0  0  0  0  0  0  0  0  0
   55.5410   29.7330   43.5240 O   0  0  0  0  0  0  0  0  0  0  0  0
   55.9080   28.2270   45.2480 N   0  0  0  0  0  0  0  0  0  0  0  0
   56.9060   27.3510   45.8490 C   0  0  0  0  0  0  0  0  0  0  0  0
   56.6300   25.9030   45.4430 C   0  0  0  0  0  0  0  0  0  0  0  0
   55.6210   25.2900   46.3340 N   0  0  0  0  0  0  0  0  0  0  0  0
   56.2780   24.4470   47.3450 C   0  0  0  0  0  0  0  0  0  0  0  0
   54.6620   24.4730   45.5670 C   0  0  0  0  0  0  0  0  0  0  0  0
   58.3760   29.9430   45.7180 C   0  0  0  0  0  0  0  0  0  0  0  0
   59.3490   30.8510   46.1720 C   0  0  0  0  0  0  0  0  0  0  0  0
   59.1380   32.2070   45.9320 C   0  0  0  0  0  0  0  0  0  0  0  0
   59.6802   33.6045   50.2082 H   0  0  0  0  0  0  0  0  0  0  0  0
   58.7671   34.1539   48.7622 H   0  0  0  0  0  0  0  0  0  0  0  0
   59.5659   32.5450   48.7622 H   0  0  0  0  0  0  0  0  0  0  0  0
   60.7011   35.2611   48.2795 H   0  0  0  0  0  0  0  0  0  0  0  0
   61.6939   34.1574   49.3175 H   0  0  0  0  0  0  0  0  0  0  0  0
   59.8015   36.1827   46.7406 H   0  0  0  0  0  0  0  0  0  0  0  0
   60.6448   35.8729   45.1851 H   0  0  0  0  0  0  0  0  0  0  0  0
   58.9435   36.4492   45.1851 H   0  0  0  0  0  0  0  0  0  0  0  0
   57.3550   34.5940   44.6400 H   0  0  0  0  0  0  0  0  0  0  0  0
   56.1713   32.1589   44.2510 H   0  0  0  0  0  0  0  0  0  0  0  0
   57.9074   27.6441   45.5008 H   0  0  0  0  0  0  0  0  0  0  0  0
   56.8562   27.4387   46.9444 H   0  0  0  0  0  0  0  0  0  0  0  0
   56.2567   25.8836   44.4085 H   0  0  0  0  0  0  0  0  0  0  0  0
   57.5656   25.3301   45.5237 H   0  0  0  0  0  0  0  0  0  0  0  0
   56.0036   24.7990   48.3504 H   0  0  0  0  0  0  0  0  0  0  0  0
   55.9524   23.4037   47.2203 H   0  0  0  0  0  0  0  0  0  0  0  0
   57.3692   24.5079   47.2203 H   0  0  0  0  0  0  0  0  0  0  0  0
   54.0131   23.9202   46.2622 H   0  0  0  0  0  0  0  0  0  0  0  0
   54.0464   25.1284   44.9334 H   0  0  0  0  0  0  0  0  0  0  0  0
   55.2113   23.7611   44.9334 H   0  0  0  0  0  0  0  0  0  0  0  0
   58.5171   28.8650   45.8855 H   0  0  0  0  0  0  0  0  0  0  0  0
   60.2485   30.5016   46.7001 H   0  0  0  0  0  0  0  0  0  0  0  0
  1  2  1  0
  2  3  1  0
  3  4  1  0
  4  5  2  0
  5  6  1  0
  5  7  1  0
  7  8  1  0
  8  9  2  0
  9 10  1  0
 10 11  1  0
 11 12  2  0
 11 13  1  0
 13 14  1  0
 14 15  1  0
 15 16  1  0
 16 17  1  0
 16 18  1  0
 10 19  2  0
 19 20  1  0
 20 21  2  0
 21  4  1  0
 21  8  1  0
  1 22  1  0
  1 23  1  0
  1 24  1  0
  2 25  1  0
  2 26  1  0
  6 27  1  0
  6 28  1  0
  6 29  1  0
  7 30  1  0
  9 31  1  0
 14 32  1  0
 14 33  1  0
 15 34  1  0
 15 35  1  0
 17 36  1  0
 17 37  1  0
 17 38  1  0
 18 39  1  0
 18 40  1  0
 18 41  1  0
 19 42  1  0
 20 43  1  0
M  CHG  1  13  -1
M  END
>  <UniqueID>  (5) 
5

>  <SMILES>  (5) 
CCSc1c(C)[nH]c2cc(C(=O)[N-]CCN(C)C)ccc12

>  <Energy>  (5) 
70.30258772119566

>  <Genealogy>  (5) 
CCSc1c(C)[nH]c2cc(C(=O)[N-]CCN(C)C)ccc12 (protonated)
CCSc1c(C)[nH]c2cc(C(=O)[N-]CCN(C)C)ccc12 (3D coordinates assigned)
CCSc1c(C)[nH]c2cc(C(=O)[N-]CCN(C)C)ccc12 (optimized conformer: 70.30258772119566 kcal/mol)

>  <smiles>  (5) 
CCSc1c(C)[nH]c2cc(C(=O)NCCN(C)C)ccc12

>  <score_type>  (5) 
oracle

>  <origin>  (5) 
adg

>  <m_score__min__energy>  (5) 
-8.9399999999999995

>  <m_primary>  (5) 
energy

$$$$
5:0
     RDKit          3D

 43 44  0  0  0  0  0  0  0  0999 V2000
   59.6310   35.3670   46.3070 C   0  0  0  0  0  0  0  0  0  0  0  0
   60.1960   34.1220   45.6310 C   0  0  0  0  0  0  0  0  0  0  0  0
   59.9650   32.9080   46.4460 N   0  0  0  0  0  0  0  0  0  0  0  0
   61.0060   32.3250   47.1460 C   0  0  0  0  0  0  0  0  0  0  0  0
   62.3820   32.9460   47.2120 C   0  0  0  0  0  0  0  0  0  0  0  0
   60.8260   31.0790   47.7660 C   0  0  0  0  0  0  0  0  0  0  0  0
   59.5980   30.4360   47.6900 C   0  0  0  0  0  0  0  0  0  0  0  0
   59.4410   29.3060   48.2240 O   0  0  0  0  0  0  0  0  0  0  0  0
   58.5420   31.0480   47.0280 C   0  0  0  0  0  0  0  0  0  0  0  0
   58.7170   32.3130   46.4530 C   0  0  0  0  0  0  0  0  0  0  0  0
   57.2720   33.0890   45.6860 S   0  0  0  0  0  0  0  0  0  0  0  0
   57.3960   32.2390   44.0680 C   0  0  0  0  0  0  0  0  0  0  0  0
   56.9140   30.8220   44.1220 C   0  0  0  0  0  0  0  0  0  0  0  0
   55.7550   30.5780   44.5560 O   0  0  0  0  0  0  0  0  0  0  0  0
   57.7730   29.7510   43.7060 N   0  0  0  0  0  0  0  0  0  0  0  0
   57.5020   28.3510   44.0350 C   0  0  0  0  0  0  0  0  0  0  0  0
   58.7870   27.6260   44.4520 C   0  0  2  0  0  0  0  0  0  0  0  0
   58.7070   27.1090   45.8770 C   0  0  0  0  0  0  0  0  0  0  0  0
   60.1430   27.1080   46.2990 C   0  0  0  0  0  0  0  0  0  0  0  0
   60.7760   28.1640   45.4090 C   0  0  0  0  0  0  0  0  0  0  0  0
   59.8880   28.5010   44.3650 O   0  0  0  0  0  0  0  0  0  0  0  0
   59.6851   35.2477   47.3992 H   0  0  0  0  0  0  0  0  0  0  0  0
   60.2181   36.2468   46.0047 H   0  0  0  0  0  0  0  0  0  0  0  0
   58.5823   35.5044   46.0047 H   0  0  0  0  0  0  0  0  0  0  0  0
   59.7083   33.9940   44.6534 H   0  0  0  0  0  0  0  0  0  0  0  0
   61.2814   34.2565   45.5135 H   0  0  0  0  0  0  0  0  0  0  0  0
   62.6746   33.0780   48.2641 H   0  0  0  0  0  0  0  0  0  0  0  0
   63.1060   32.2874   46.7100 H   0  0  0  0  0  0  0  0  0  0  0  0
   62.3671   33.9246   46.7100 H   0  0  0  0  0  0  0  0  0  0  0  0
   61.6584   30.6116   48.3125 H   0  0  0  0  0  0  0  0  0  0  0  0
   57.5691   30.5399   46.9553 H   0  0  0  0  0  0  0  0  0  0  0  0
   56.7895   32.7894   43.3337 H   0  0  0  0  0  0  0  0  0  0  0  0
   58.4584   32.2183   43.7837 H   0  0  0  0  0  0  0  0  0  0  0  0
   58.6980   29.9850   43.2800 H   0  0  0  0  0  0  0  0  0  0  0  0
   56.7803   28.3095   44.8641 H   0  0  0  0  0  0  0  0  0  0  0  0
   57.0930   27.8542   43.1429 H   0  0  0  0  0  0  0  0  0  0  0  0
   58.9108   26.7738   43.7675 H   0  0  0  0  0  0  0  0  0  0  0  0
   58.1065   27.7786   46.5103 H   0  0  0  0  0  0  0  0  0  0  0  0
   58.2233   26.1247   45.9612 H   0  0  0  0  0  0  0  0  0  0  0  0
   60.2408   27.3788   47.3607 H   0  0  0  0  0  0  0  0  0  0  0  0
   60.6184   26.1213   46.1970 H   0  0  0  0  0  0  0  0  0  0  0  0
   60.9958   29.0614   46.0060 H   0  0  0  0  0  0  0  0  0  0  0  0
   61.7084   27.7678   44.9804 H   0  0  0  0  0  0  0  0  0  0  0  0
  1  2  1  0
  2  3  1  0
  3  4  1  0
  4  5  1  0
  4  6  2  0
  6  7  1  0
  7  8  2  0
  7  9  1  0
  9 10  2  0
 10 11  1  0
 11 12  1  0
 12 13  1  0
 13 14  2  0
 13 15  1  0
 15 16  1  0
 16 17  1  0
 17 18  1  0
 18 19  1  0
 19 20  1  0
 20 21  1  0
 10  3  1  0
 21 17  1  0
  1 22  1  0
  1 23  1  0
  1 24  1  0
  2 25  1  0
  2 26  1  0
  5 27  1  0
  5 28  1  0
  5 29  1  0
  6 30  1  0
  9 31  1  0
 12 32  1  0
 12 33  1  0
 15 34  1  0
 16 35  1  0
 16 36  1  0
 17 37  1  6
 18 38  1  0
 18 39  1  0
 19 40  1  0
 19 41  1  0
 20 42  1  0
 20 43  1  0
M  END
>  <UniqueID>  (6) 
6

>  <SMILES>  (6) 
CCn1c(C)cc(=O)cc1SCC(=O)NC[C@@H]1CCCO1

>  <Energy>  (6) 
37.73431507605456

>  <Genealogy>  (6) 
CCn1c(C)cc(=O)cc1SCC(=O)NC[C@@H]1CCCO1 (chirality)
CCn1c(C)cc(=O)cc1SCC(=O)NC[C@@H]1CCCO1 (3D coordinates assigned)
CCn1c(C)cc(=O)cc1SCC(=O)NC[C@@H]1CCCO1 (nonaromatic ring conformer: 37.73431507605456 kcal/mol)

>  <smiles>  (6) 
CCn1c(C)cc(=O)cc1SCC(=O)NCC1CCCO1

>  <score_type>  (6) 
oracle

>  <origin>  (6) 
adg

>  <m_score__min__energy>  (6) 
-6.5300000000000002

>  <m_primary>  (6) 
energy

$$$$
6:0
     RDKit          3D

 58 60  0  0  0  0  0  0  0  0999 V2000
   57.2800   31.5200   51.6500 C   0  0  0  0  0  0  0  0  0  0  0  0
   58.4430   31.3760   50.6550 C   0  0  0  0  0  0  0  0  0  0  0  0
   59.7960   31.4810   51.2660 N   0  0  0  0  0  0  0  0  0  0  0  0
   60.4620   32.7850   51.0000 C   0  0  0  0  0  0  0  0  0  0  0  0
   59.6730   33.6760   50.0350 C   0  0  0  0  0  0  0  0  0  0  0  0
   60.6590   30.3430   50.8490 C   0  0  0  0  0  0  0  0  0  0  0  0
   59.9810   29.4030   49.8320 C   0  0  0  0  0  0  0  0  0  0  0  0
   60.6220   29.4760   48.5200 N   0  0  0  0  0  0  0  0  0  0  0  0
   60.3550   30.5850   47.6470 C   0  0  0  0  0  0  0  0  0  0  0  0
   61.2110   31.6980   47.6400 C   0  0  0  0  0  0  0  0  0  0  0  0
   62.3790   31.7160   48.4300 C   0  0  0  0  0  0  0  0  0  0  0  0
   63.2500   32.8030   48.3920 C   0  0  0  0  0  0  0  0  0  0  0  0
   64.8250   32.8020   49.4730 Br  0  0  0  0  0  0  0  0  0  0  0  0
   62.9820   33.8770   47.5490 C   0  0  0  0  0  0  0  0  0  0  0  0
   61.8350   33.8800   46.7560 C   0  0  0  0  0  0  0  0  0  0  0  0
   60.9080   32.8060   46.8050 C   0  0  0  0  0  0  0  0  0  0  0  0
   59.7480   32.8110   46.0530 N   0  0  0  0  0  0  0  0  0  0  0  0
   59.2830   34.0650   45.4190 C   0  0  0  0  0  0  0  0  0  0  0  0
   59.0060   31.6500   45.9180 C   0  0  0  0  0  0  0  0  0  0  0  0
   57.9760   31.5310   44.9520 C   0  0  0  0  0  0  0  0  0  0  0  0
   57.1790   30.3770   44.8680 C   0  0  0  0  0  0  0  0  0  0  0  0
   56.1430   30.2510   43.9270 O   0  0  0  0  0  0  0  0  0  0  0  0
   56.2930   29.6980   42.6230 C   0  0  0  0  0  0  0  0  0  0  0  0
   57.4080   29.3110   45.7410 C   0  0  0  0  0  0  0  0  0  0  0  0
   56.5770   28.1830   45.6440 O   0  0  0  0  0  0  0  0  0  0  0  0
   57.0410   26.8370   45.6060 C   0  0  0  0  0  0  0  0  0  0  0  0
   58.4550   29.3900   46.6720 C   0  0  0  0  0  0  0  0  0  0  0  0
   59.2740   30.5330   46.7490 C   0  0  0  0  0  0  0  0  0  0  0  0
   57.6688   31.4719   52.6779 H   0  0  0  0  0  0  0  0  0  0  0  0
   56.7799   32.4869   51.4920 H   0  0  0  0  0  0  0  0  0  0  0  0
   56.5592   30.7042   51.4920 H   0  0  0  0  0  0  0  0  0  0  0  0
   58.3605   30.3919   50.1705 H   0  0  0  0  0  0  0  0  0  0  0  0
   58.3541   32.2134   49.9473 H   0  0  0  0  0  0  0  0  0  0  0  0
   59.6420   31.4140   52.2990 H   0  0  0  0  0  0  0  0  0  0  0  0
   60.5789   33.3197   51.9542 H   0  0  0  0  0  0  0  0  0  0  0  0
   61.4318   32.5683   50.5284 H   0  0  0  0  0  0  0  0  0  0  0  0
   59.0512   34.3782   50.6096 H   0  0  0  0  0  0  0  0  0  0  0  0
   60.3731   34.2402   49.4013 H   0  0  0  0  0  0  0  0  0  0  0  0
   59.0283   33.0493   49.4013 H   0  0  0  0  0  0  0  0  0  0  0  0
   61.5746   30.7480   50.3933 H   0  0  0  0  0  0  0  0  0  0  0  0
   60.8717   29.7487   51.7499 H   0  0  0  0  0  0  0  0  0  0  0  0
   60.0451   28.3696   50.2034 H   0  0  0  0  0  0  0  0  0  0  0  0
   58.9325   29.7164   49.7202 H   0  0  0  0  0  0  0  0  0  0  0  0
   61.0800   28.6270   48.1180 H   0  0  0  0  0  0  0  0  0  0  0  0
   62.6053   30.8613   49.0844 H   0  0  0  0  0  0  0  0  0  0  0  0
   63.6782   34.7277   47.5079 H   0  0  0  0  0  0  0  0  0  0  0  0
   61.6455   34.7282   46.0817 H   0  0  0  0  0  0  0  0  0  0  0  0
   59.0134   34.7922   46.1991 H   0  0  0  0  0  0  0  0  0  0  0  0
   60.0871   34.4797   44.7934 H   0  0  0  0  0  0  0  0  0  0  0  0
   58.4029   33.8551   44.7934 H   0  0  0  0  0  0  0  0  0  0  0  0
   57.7965   32.3606   44.2523 H   0  0  0  0  0  0  0  0  0  0  0  0
   56.5802   28.6393   42.7045 H   0  0  0  0  0  0  0  0  0  0  0  0
   55.3405   29.7787   42.0787 H   0  0  0  0  0  0  0  0  0  0  0  0
   57.0742   30.2489   42.0787 H   0  0  0  0  0  0  0  0  0  0  0  0
   57.1695   26.4643   46.6329 H   0  0  0  0  0  0  0  0  0  0  0  0
   56.3068   26.2108   45.0779 H   0  0  0  0  0  0  0  0  0  0  0  0
   58.0051   26.7963   45.0779 H   0  0  0  0  0  0  0  0  0  0  0  0
   58.6389   28.5456   47.3525 H   0  0  0  0  0  0  0  0  0  0  0  0
  1  2  1  0
  2  3  1  0
  3  4  1  0
  4  5  1  0
  3  6  1  0
  6  7  1  0
  7  8  1  0
  8  9  1  0
  9 10  2  0
 10 11  1  0
 11 12  2  0
 12 13  1  0
 12 14  1  0
 14 15  2  0
 15 16  1  0
 16 17  2  0
 17 18  1  0
 17 19  1  0
 19 20  2  0
 20 21  1  0
 21 22  1  0
 22 23  1  0
 21 24  2  0
 24 25  1  0
 25 26  1  0
 24 27  1  0
 27 28  2  0
 28  9  1  0
 16 10  1  0
 28 19  1  0
  1 29  1  0
  1 30  1  0
  1 31  1  0
  2 32  1  0
  2 33  1  0
  3 34  1  0
  4 35  1  0
  4 36  1  0
  5 37  1  0
  5 38  1  0
  5 39  1  0
  6 40  1  0
  6 41  1  0
  7 42  1  0
  7 43  1  0
  8 44  1  0
 11 45  1  0
 14 46  1  0
 15 47  1  0
 18 48  1  0
 18 49  1  0
 18 50  1  0
 20 51  1  0
 23 52  1  0
 23 53  1  0
 23 54  1  0
 26 55  1  0
 26 56  1  0
 26 57  1  0
 27 58  1  0
M  CHG  2   3   1  17   1
M  END
>  <UniqueID>  (7) 
7

>  <SMILES>  (7) 
CC[NH+](CC)CCNc1c2cc(Br)ccc2[n+](C)c2cc(OC)c(OC)cc12

>  <Energy>  (7) 
85.14452046833625

>  <Genealogy>  (7) 
CC[NH+](CC)CCNc1c2cc(Br)ccc2[n+](C)c2cc(OC)c(OC)cc12 (protonated)
CC[NH+](CC)CCNc1c2cc(Br)ccc2[n+](C)c2cc(OC)c(OC)cc12 (3D coordinates assigned)
CC[NH+](CC)CCNc1c2cc(Br)ccc2[n+](C)c2cc(OC)c(OC)cc12 (optimized conformer: 85.14452046833625 kcal/mol)

>  <smiles>  (7) 
CCN(CC)CCNc1c2cc(Br)ccc2[n+](C)c2cc(OC)c(OC)cc12

>  <score_type>  (7) 
oracle

>  <origin>  (7) 
adg

>  <m_score__min__energy>  (7) 
-4.2199999999999998

>  <m_primary>  (7) 
energy

$$$$
7:0
     RDKit          3D

 36 35  0  0  0  0  0  0  0  0999 V2000
   57.5720   32.3480   41.2940 C   0  0  0  0  0  0  0  0  0  0  0  0
   58.1000   32.2070   42.7180 C   0  0  0  0  0  0  0  0  0  0  0  0
   57.5030   31.0420   43.3820 N   0  0  0  0  0  0  0  0  0  0  0  0
   56.5780   30.1910   42.6270 C   0  0  0  0  0  0  0  0  0  0  0  0
   57.7070   30.8400   44.8000 C   0  0  0  0  0  0  0  0  0  0  0  0
   56.9070   30.1010   45.4390 O   0  0  0  0  0  0  0  0  0  0  0  0
   58.8480   31.4970   45.5560 C   0  0  0  0  0  0  0  0  0  0  0  0
   58.4840   32.7900   46.2240 N   0  0  0  0  0  0  0  0  0  0  0  0
   58.5240   32.6140   47.7010 C   0  0  0  0  0  0  0  0  0  0  0  0
   59.4460   33.8940   45.8900 C   0  0  0  0  0  0  0  0  0  0  0  0
   59.6380   34.9620   46.9830 C   0  0  0  0  0  0  0  0  0  0  0  0
   57.1040   33.2160   45.8080 C   0  0  0  0  0  0  0  0  0  0  0  0
   57.0280   34.4560   44.8930 C   0  0  0  0  0  0  0  0  0  0  0  0
   56.5096   32.6317   41.3233 H   0  0  0  0  0  0  0  0  0  0  0  0
   58.1445   33.1247   40.7659 H   0  0  0  0  0  0  0  0  0  0  0  0
   57.6811   31.3893   40.7659 H   0  0  0  0  0  0  0  0  0  0  0  0
   59.1926   32.0839   42.6870 H   0  0  0  0  0  0  0  0  0  0  0  0
   57.8327   33.1112   43.2845 H   0  0  0  0  0  0  0  0  0  0  0  0
   55.9537   29.6166   43.3272 H   0  0  0  0  0  0  0  0  0  0  0  0
   55.9351   30.8199   41.9937 H   0  0  0  0  0  0  0  0  0  0  0  0
   57.1513   29.4980   41.9937 H   0  0  0  0  0  0  0  0  0  0  0  0
   59.1972   30.7966   46.3289 H   0  0  0  0  0  0  0  0  0  0  0  0
   59.6226   31.7346   44.8120 H   0  0  0  0  0  0  0  0  0  0  0  0
   58.3057   33.5745   48.1908 H   0  0  0  0  0  0  0  0  0  0  0  0
   57.7721   31.8697   48.0021 H   0  0  0  0  0  0  0  0  0  0  0  0
   59.5237   32.2677   48.0021 H   0  0  0  0  0  0  0  0  0  0  0  0
   60.4263   33.4386   45.6858 H   0  0  0  0  0  0  0  0  0  0  0  0
   59.0122   34.4207   45.0272 H   0  0  0  0  0  0  0  0  0  0  0  0
   59.5535   34.4919   47.9739 H   0  0  0  0  0  0  0  0  0  0  0  0
   60.6328   35.4195   46.8779 H   0  0  0  0  0  0  0  0  0  0  0  0
   58.8648   35.7374   46.8779 H   0  0  0  0  0  0  0  0  0  0  0  0
   56.6382   32.3745   45.2743 H   0  0  0  0  0  0  0  0  0  0  0  0
   56.5877   33.4998   46.7369 H   0  0  0  0  0  0  0  0  0  0  0  0
   56.9723   35.3646   45.5106 H   0  0  0  0  0  0  0  0  0  0  0  0
   57.9252   34.4987   44.2580 H   0  0  0  0  0  0  0  0  0  0  0  0
   56.1323   34.3888   44.2580 H   0  0  0  0  0  0  0  0  0  0  0  0
  1  2  1  0
  2  3  1  0
  3  4  1  0
  3  5  1  0
  5  6  2  0
  5  7  1  0
  7  8  1  0
  8  9  1  0
  8 10  1  0
 10 11  1  0
  8 12  1  0
 12 13  1  0
  1 14  1  0
  1 15  1  0
  1 16  1  0
  2 17  1  0
  2 18  1  0
  4 19  1  0
  4 20  1  0
  4 21  1  0
  7 22  1  0
  7 23  1  0
  9 24  1  0
  9 25  1  0
  9 26  1  0
 10 27  1  0
 10 28  1  0
 11 29  1  0
 11 30  1  0
 11 31  1  0
 12 32  1  0
 12 33  1  0
 13 34  1  0
 13 35  1  0
 13 36  1  0
M  CHG  1   8   1
M  END
>  <UniqueID>  (8) 
8

>  <SMILES>  (8) 
CCN(C)C(=O)C[N+](C)(CC)CC

>  <Energy>  (8) 
39.80026245967238

>  <Genealogy>  (8) 
CCN(C)C(=O)C[N+](C)(CC)CC (3D coordinates assigned)
CCN(C)C(=O)C[N+](C)(CC)CC (optimized conformer: 39.80026245967238 kcal/mol)

>  <smiles>  (8) 
CCN(C)C(=O)C[N+](C)(CC)CC

>  <score_type>  (8) 
oracle

>  <origin>  (8) 
adg

>  <m_score__min__energy>  (8) 
-2.8900000000000001

>  <m_primary>  (8) 
energy

$$$$
8:0
     RDKit          3D

 67 70  0  0  0  0  0  0  0  0999 V2000
   58.5110   34.2400   52.6680 C   0  0  0  0  0  0  0  0  0  0  0  0
   58.9580   32.8280   53.0740 C   0  0  0  0  0  0  0  0  0  0  0  0
   58.4920   31.7730   52.1390 N   0  0  0  0  0  0  0  0  0  0  0  0
   57.0810   31.9530   51.6890 C   0  0  0  0  0  0  0  0  0  0  0  0
   56.1360   30.7980   52.0460 C   0  0  0  0  0  0  0  0  0  0  0  0
   58.7670   30.4320   52.7260 C   0  0  0  0  0  0  0  0  0  0  0  0
   59.5490   29.4950   51.7920 C   0  0  0  0  0  0  0  0  0  0  0  0
   59.7740   30.1400   50.5550 O   0  0  0  0  0  0  0  0  0  0  0  0
   60.8610   29.5530   49.8660 C   0  0  0  0  0  0  0  0  0  0  0  0
   60.7270   29.7510   48.3550 C   0  0  0  0  0  0  0  0  0  0  0  0
   59.4430   30.3540   47.9670 N   0  0  0  0  0  0  0  0  0  0  0  0
   58.9360   30.4460   46.6130 C   0  0  0  0  0  0  0  0  0  0  0  0
   58.5600   29.2780   45.8880 C   0  0  0  0  0  0  0  0  0  0  0  0
   58.6300   27.9760   46.4420 C   0  0  0  0  0  0  0  0  0  0  0  0
   58.4520   26.8430   45.6540 C   0  0  0  0  0  0  0  0  0  0  0  0
   58.1370   26.9770   44.3110 C   0  0  0  0  0  0  0  0  0  0  0  0
   57.9060   28.2440   43.7780 C   0  0  0  0  0  0  0  0  0  0  0  0
   58.0360   29.4070   44.5770 C   0  0  0  0  0  0  0  0  0  0  0  0
   57.6080   30.6340   44.1230 N   0  0  0  0  0  0  0  0  0  0  0  0
   56.6550   30.7030   42.9890 C   0  0  0  0  0  0  0  0  0  0  0  0
   58.0120   31.7880   44.7640 C   0  0  0  0  0  0  0  0  0  0  0  0
   57.7530   33.0560   44.1800 C   0  0  0  0  0  0  0  0  0  0  0  0
   58.1050   34.2320   44.8170 C   0  0  0  0  0  0  0  0  0  0  0  0
   58.8000   34.1880   46.0090 C   0  0  0  0  0  0  0  0  0  0  0  0
   59.1600   32.9650   46.5940 C   0  0  0  0  0  0  0  0  0  0  0  0
   60.1210   33.0920   47.7060 C   0  0  0  0  0  0  0  0  0  0  0  0
   59.6670   33.4800   48.9800 C   0  0  0  0  0  0  0  0  0  0  0  0
   60.5810   33.8360   49.9770 C   0  0  0  0  0  0  0  0  0  0  0  0
   61.9500   33.8470   49.6970 C   0  0  0  0  0  0  0  0  0  0  0  0
   62.4060   33.4940   48.4230 C   0  0  0  0  0  0  0  0  0  0  0  0
   61.4970   33.1190   47.4290 C   0  0  0  0  0  0  0  0  0  0  0  0
   58.7220   31.7260   46.0090 C   0  0  0  0  0  0  0  0  0  0  0  0
   58.3215   34.8385   53.5713 H   0  0  0  0  0  0  0  0  0  0  0  0
   59.3019   34.7175   52.0710 H   0  0  0  0  0  0  0  0  0  0  0  0
   57.5894   34.1754   52.0710 H   0  0  0  0  0  0  0  0  0  0  0  0
   60.0573   32.8055   53.1060 H   0  0  0  0  0  0  0  0  0  0  0  0
   58.5103   32.6142   54.0558 H   0  0  0  0  0  0  0  0  0  0  0  0
   59.0890   31.8670   51.2860 H   0  0  0  0  0  0  0  0  0  0  0  0
   56.6892   32.8706   52.1522 H   0  0  0  0  0  0  0  0  0  0  0  0
   57.1113   31.9981   50.5903 H   0  0  0  0  0  0  0  0  0  0  0  0
   56.0630   30.7088   53.1399 H   0  0  0  0  0  0  0  0  0  0  0  0
   55.1387   30.9974   51.6270 H   0  0  0  0  0  0  0  0  0  0  0  0
   56.5289   29.8599   51.6270 H   0  0  0  0  0  0  0  0  0  0  0  0
   59.3514   30.5700   53.6476 H   0  0  0  0  0  0  0  0  0  0  0  0
   57.7922   29.9579   52.9129 H   0  0  0  0  0  0  0  0  0  0  0  0
   60.5146   29.2403   52.2533 H   0  0  0  0  0  0  0  0  0  0  0  0
   58.9676   28.5763   51.6250 H   0  0  0  0  0  0  0  0  0  0  0  0
   61.7969   30.0192   50.2078 H   0  0  0  0  0  0  0  0  0  0  0  0
   60.8669   28.4736   50.0777 H   0  0  0  0  0  0  0  0  0  0  0  0
   61.5404   30.4083   48.0139 H   0  0  0  0  0  0  0  0  0  0  0  0
   60.7791   28.7571   47.8866 H   0  0  0  0  0  0  0  0  0  0  0  0
   58.7820   30.6110   48.7330 H   0  0  0  0  0  0  0  0  0  0  0  0
   58.8292   27.8583   47.5174 H   0  0  0  0  0  0  0  0  0  0  0  0
   58.5612   25.8419   46.0966 H   0  0  0  0  0  0  0  0  0  0  0  0
   58.0696   26.0869   43.6682 H   0  0  0  0  0  0  0  0  0  0  0  0
   57.6184   28.3426   42.7209 H   0  0  0  0  0  0  0  0  0  0  0  0
   55.6283   30.7773   43.3769 H   0  0  0  0  0  0  0  0  0  0  0  0
   56.8797   31.5872   42.3745 H   0  0  0  0  0  0  0  0  0  0  0  0
   56.7500   29.7956   42.3745 H   0  0  0  0  0  0  0  0  0  0  0  0
   57.2606   33.1041   43.1975 H   0  0  0  0  0  0  0  0  0  0  0  0
   57.8315   35.2012   44.3744 H   0  0  0  0  0  0  0  0  0  0  0  0
   59.0762   35.1282   46.5086 H   0  0  0  0  0  0  0  0  0  0  0  0
   58.5881   33.5035   49.1929 H   0  0  0  0  0  0  0  0  0  0  0  0
   60.2224   34.1072   50.9809 H   0  0  0  0  0  0  0  0  0  0  0  0
   62.6690   34.1333   50.4787 H   0  0  0  0  0  0  0  0  0  0  0  0
   63.4835   33.5114   48.2021 H   0  0  0  0  0  0  0  0  0  0  0  0
   61.8608   32.8446   46.4278 H   0  0  0  0  0  0  0  0  0  0  0  0
  1  2  1  0
  2  3  1  0
  3  4  1  0
  4  5  1  0
  3  6  1  0
  6  7  1  0
  7  8  1  0
  8  9  1  0
  9 10  1  0
 10 11  1  0
 11 12  1  0
 12 13  2  0
 13 14  1  0
 14 15  2  0
 15 16  1  0
 16 17  2  0
 17 18  1  0
 18 19  2  0
 19 20  1  0
 19 21  1  0
 21 22  2  0
 22 23  1  0
 23 24  2  0
 24 25  1  0
 25 26  1  0
 26 27  2  0
 27 28  1  0
 28 29  2  0
 29 30  1  0
 30 31  2  0
 25 32  2  0
 32 12  1  0
 18 13  1  0
 32 21  1  0
 31 26  1  0
  1 33  1  0
  1 34  1  0
  1 35  1  0
  2 36  1  0
  2 37  1  0
  3 38  1  0
  4 39  1  0
  4 40  1  0
  5 41  1  0
  5 42  1  0
  5 43  1  0
  6 44  1  0
  6 45  1  0
  7 46  1  0
  7 47  1  0
  9 48  1  0
  9 49  1  0
 10 50  1  0
 10 51  1  0
 11 52  1  0
 14 53  1  0
 15 54  1  0
 16 55  1  0
 17 56  1  0
 20 57  1  0
 20 58  1  0
 20 59  1  0
 22 60  1  0
 23 61  1  0
 24 62  1  0
 27 63  1  0
 28 64  1  0
 29 65  1  0
 30 66  1  0
 31 67  1  0
M  CHG  2   3   1  19   1
M  END
>  <UniqueID>  (9) 
9

>  <SMILES>  (9) 
CC[NH+](CC)CCOCCNc1c2ccccc2[n+](C)c2cccc(-c3ccccc3)c12

>  <Energy>  (9) 
118.83590206476788

>  <Genealogy>  (9) 
CC[NH+](CC)CCOCCNc1c2ccccc2[n+](C)c2cccc(-c3ccccc3)c12 (protonated)
CC[NH+](CC)CCOCCNc1c2ccccc2[n+](C)c2cccc(-c3ccccc3)c12 (3D coordinates assigned)
CC[NH+](CC)CCOCCNc1c2ccccc2[n+](C)c2cccc(-c3ccccc3)c12 (optimized conformer: 118.83590206476788 kcal/mol)

>  <smiles>  (9) 
CCN(CC)CCOCCNc1c2ccccc2[n+](C)c2cccc(-c3ccccc3)c12

>  <score_type>  (9) 
oracle

>  <origin>  (9) 
adg

>  <m_score__min__energy>  (9) 
-5.6699999999999999

>  <m_primary>  (9) 
energy

$$$$
9:0
     RDKit          3D

 53 55  0  0  0  0  0  0  0  0999 V2000
   63.3880   33.4160   46.7750 C   0  0  0  0  0  0  0  0  0  0  0  0
   63.0290   32.0660   47.4000 C   0  0  0  0  0  0  0  0  0  0  0  0
   62.5230   32.2160   48.8000 N   0  0  0  0  0  0  0  0  0  0  0  0
   62.1450   33.6240   49.0880 C   0  0  0  0  0  0  0  0  0  0  0  0
   60.6710   33.7620   49.4870 C   0  0  0  0  0  0  0  0  0  0  0  0
   61.3560   31.3310   49.0450 C   0  0  0  0  0  0  0  0  0  0  0  0
   61.1180   30.3510   47.8820 C   0  0  0  0  0  0  0  0  0  0  0  0
   59.6880   30.0910   47.7110 N   0  0  0  0  0  0  0  0  0  0  0  0
   59.0640   30.1400   46.4180 C   0  0  0  0  0  0  0  0  0  0  0  0
   58.7320   28.9490   45.7520 C   0  0  0  0  0  0  0  0  0  0  0  0
   59.0870   27.6950   46.2940 C   0  0  0  0  0  0  0  0  0  0  0  0
   58.7900   26.5160   45.6140 C   0  0  0  0  0  0  0  0  0  0  0  0
   58.1470   26.5660   44.3830 C   0  0  0  0  0  0  0  0  0  0  0  0
   57.7730   27.7930   43.8350 C   0  0  0  0  0  0  0  0  0  0  0  0
   58.0250   29.0090   44.5220 C   0  0  0  0  0  0  0  0  0  0  0  0
   57.6110   30.2290   44.0200 N   0  0  0  0  0  0  0  0  0  0  0  0
   56.6330   30.2800   42.9110 C   0  0  0  0  0  0  0  0  0  0  0  0
   58.1000   31.4020   44.5650 C   0  0  0  0  0  0  0  0  0  0  0  0
   57.9350   32.6510   43.9180 C   0  0  0  0  0  0  0  0  0  0  0  0
   58.4070   33.8300   44.4920 C   0  0  0  0  0  0  0  0  0  0  0  0
   59.0650   33.8090   45.7250 C   0  0  0  0  0  0  0  0  0  0  0  0
   59.6250   35.0810   46.3130 C   0  0  0  0  0  0  0  0  0  0  0  0
   59.5770   36.0810   45.3600 F   0  0  0  0  0  0  0  0  0  0  0  0
   58.8910   35.4760   47.4180 F   0  0  0  0  0  0  0  0  0  0  0  0
   60.9380   34.8990   46.7110 F   0  0  0  0  0  0  0  0  0  0  0  0
   59.2990   32.5760   46.3480 C   0  0  0  0  0  0  0  0  0  0  0  0
   58.8150   31.3730   45.7920 C   0  0  0  0  0  0  0  0  0  0  0  0
   63.5829   34.1488   47.5719 H   0  0  0  0  0  0  0  0  0  0  0  0
   64.2876   33.3040   46.1519 H   0  0  0  0  0  0  0  0  0  0  0  0
   62.5516   33.7656   46.1519 H   0  0  0  0  0  0  0  0  0  0  0  0
   62.2491   31.5876   46.7894 H   0  0  0  0  0  0  0  0  0  0  0  0
   63.9409   31.4516   47.4312 H   0  0  0  0  0  0  0  0  0  0  0  0
   63.2620   31.9490   49.4940 H   0  0  0  0  0  0  0  0  0  0  0  0
   62.7708   33.9965   49.9124 H   0  0  0  0  0  0  0  0  0  0  0  0
   62.3005   34.2084   48.1691 H   0  0  0  0  0  0  0  0  0  0  0  0
   60.5872   33.7698   50.5838 H   0  0  0  0  0  0  0  0  0  0  0  0
   60.2679   34.7018   49.0817 H   0  0  0  0  0  0  0  0  0  0  0  0
   60.1004   32.9133   49.0817 H   0  0  0  0  0  0  0  0  0  0  0  0
   61.5353   30.7538   49.9641 H   0  0  0  0  0  0  0  0  0  0  0  0
   60.4632   31.9665   49.1405 H   0  0  0  0  0  0  0  0  0  0  0  0
   61.5196   30.7860   46.9549 H   0  0  0  0  0  0  0  0  0  0  0  0
   61.6260   29.4020   48.1087 H   0  0  0  0  0  0  0  0  0  0  0  0
   59.0940   29.9290   48.5560 H   0  0  0  0  0  0  0  0  0  0  0  0
   59.6038   27.6482   47.2639 H   0  0  0  0  0  0  0  0  0  0  0  0
   59.0646   25.5449   46.0517 H   0  0  0  0  0  0  0  0  0  0  0  0
   57.9322   25.6345   43.8388 H   0  0  0  0  0  0  0  0  0  0  0  0
   57.2747   27.8185   42.8546 H   0  0  0  0  0  0  0  0  0  0  0  0
   55.6143   30.3331   43.3226 H   0  0  0  0  0  0  0  0  0  0  0  0
   56.8256   31.1693   42.2929 H   0  0  0  0  0  0  0  0  0  0  0  0
   56.7320   29.3755   42.2929 H   0  0  0  0  0  0  0  0  0  0  0  0
   57.4248   32.6913   42.9443 H   0  0  0  0  0  0  0  0  0  0  0  0
   58.2602   34.7868   43.9694 H   0  0  0  0  0  0  0  0  0  0  0  0
   59.8703   32.5454   47.2875 H   0  0  0  0  0  0  0  0  0  0  0  0
  1  2  1  0
  2  3  1  0
  3  4  1  0
  4  5  1  0
  3  6  1  0
  6  7  1  0
  7  8  1  0
  8  9  1  0
  9 10  2  0
 10 11  1  0
 11 12  2  0
 12 13  1  0
 13 14  2  0
 14 15  1  0
 15 16  2  0
 16 17  1  0
 16 18  1  0
 18 19  2  0
 19 20  1  0
 20 21  2  0
 21 22  1  0
 22 23  1  0
 22 24  1  0
 22 25  1  0
 21 26  1  0
 26 27  2  0
 27  9  1  0
 15 10  1  0
 27 18  1  0
  1 28  1  0
  1 29  1  0
  1 30  1  0
  2 31  1  0
  2 32  1  0
  3 33  1  0
  4 34  1  0
  4 35  1  0
  5 36  1  0
  5 37  1  0
  5 38  1  0
  6 39  1  0
  6 40  1  0
  7 41  1  0
  7 42  1  0
  8 43  1  0
 11 44  1  0
 12 45  1  0
 13 46  1  0
 14 47  1  0
 17 48  1  0
 17 49  1  0
 17 50  1  0
 19 51  1  0
 20 52  1  0
 26 53  1  0
M  CHG  2   3   1  16   1
M  END
>  <UniqueID>  (10) 
10

>  <SMILES>  (10) 
CC[NH+](CC)CCNc1c2ccccc2[n+](C)c2ccc(C(F)(F)F)cc12

>  <Energy>  (10) 
81.59499059572701

>  <Genealogy>  (10) 
CC[NH+](CC)CCNc1c2ccccc2[n+](C)c2ccc(C(F)(F)F)cc12 (protonated)
CC[NH+](CC)CCNc1c2ccccc2[n+](C)c2ccc(C(F)(F)F)cc12 (3D coordinates assigned)
CC[NH+](CC)CCNc1c2ccccc2[n+](C)c2ccc(C(F)(F)F)cc12 (optimized conformer: 81.59499059572701 kcal/mol)

>  <smiles>  (10) 
CCN(CC)CCNc1c2ccccc2[n+](C)c2ccc(C(F)(F)F)cc12

>  <score_type>  (10) 
oracle

>  <origin>  (10) 
adg

>  <m_score__min__energy>  (10) 
-4.6100000000000003

>  <m_primary>  (10) 
energy

$$$$
10:0
     RDKit          3D

 46 49  0  0  0  0  0  0  0  0999 V2000
   56.2260   29.7120   42.9930 C   0  0  0  0  0  0  0  0  0  0  0  0
   55.8640   29.3590   44.4320 C   0  0  0  0  0  0  0  0  0  0  0  0
   57.0710   29.2600   45.2580 N   0  0  0  0  0  0  0  0  0  0  0  0
   57.8850   30.2600   45.6780 C   0  0  0  0  0  0  0  0  0  0  0  0
   58.9760   29.7450   46.3430 C   0  0  0  0  0  0  0  0  0  0  0  0
   58.8450   28.3710   46.3320 C   0  0  0  0  0  0  0  0  0  0  0  0
   59.7600   27.3990   46.8730 C   0  0  0  0  0  0  0  0  0  0  0  0
   60.4940   26.6170   47.3050 N   0  0  0  0  0  0  0  0  0  0  0  0
   57.6680   28.1120   45.6550 C   0  0  0  0  0  0  0  0  0  0  0  0
   57.1710   26.8020   45.3570 N   0  0  0  0  0  0  0  0  0  0  0  0
   57.9340   25.9040   44.4940 C   0  0  0  0  0  0  0  0  0  0  0  0
   58.1080   24.5460   45.1890 C   0  0  0  0  0  0  0  0  0  0  0  0
   56.8660   24.0230   45.8250 N   0  0  0  0  0  0  0  0  0  0  0  0
   57.0780   23.6950   47.2460 C   0  0  0  0  0  0  0  0  0  0  0  0
   55.6660   24.8730   45.6360 C   0  0  0  0  0  0  0  0  0  0  0  0
   55.9380   26.3400   45.9950 C   0  0  0  0  0  0  0  0  0  0  0  0
   60.0300   30.5990   46.9030 C   0  0  0  0  0  0  0  0  0  0  0  0
   61.0160   30.0930   47.5050 O   0  0  0  0  0  0  0  0  0  0  0  0
   59.8960   32.0730   46.7400 C   0  0  0  0  0  0  0  0  0  0  0  0
   60.8680   32.9400   47.2680 C   0  0  0  0  0  0  0  0  0  0  0  0
   60.7360   34.3230   47.1230 C   0  0  0  0  0  0  0  0  0  0  0  0
   59.6380   34.8580   46.4490 C   0  0  0  0  0  0  0  0  0  0  0  0
   58.6610   34.0130   45.9160 C   0  0  0  0  0  0  0  0  0  0  0  0
   58.7740   32.6170   46.0530 C   0  0  0  0  0  0  0  0  0  0  0  0
   57.7300   31.7170   45.4870 C   0  0  0  0  0  0  0  0  0  0  0  0
   56.7420   32.1880   44.8630 O   0  0  0  0  0  0  0  0  0  0  0  0
   57.0135   30.4800   42.9909 H   0  0  0  0  0  0  0  0  0  0  0  0
   56.5898   28.8123   42.4752 H   0  0  0  0  0  0  0  0  0  0  0  0
   55.3357   30.0983   42.4752 H   0  0  0  0  0  0  0  0  0  0  0  0
   55.2084   30.1412   44.8422 H   0  0  0  0  0  0  0  0  0  0  0  0
   55.3481   28.3875   44.4399 H   0  0  0  0  0  0  0  0  0  0  0  0
   57.3958   25.7633   43.5450 H   0  0  0  0  0  0  0  0  0  0  0  0
   58.9233   26.3418   44.2949 H   0  0  0  0  0  0  0  0  0  0  0  0
   58.4460   23.8154   44.4394 H   0  0  0  0  0  0  0  0  0  0  0  0
   58.8389   24.6954   45.9974 H   0  0  0  0  0  0  0  0  0  0  0  0
   56.5879   24.4532   47.8744 H   0  0  0  0  0  0  0  0  0  0  0  0
   56.6479   22.7059   47.4621 H   0  0  0  0  0  0  0  0  0  0  0  0
   58.1565   23.6810   47.4621 H   0  0  0  0  0  0  0  0  0  0  0  0
   55.3536   24.8172   44.5828 H   0  0  0  0  0  0  0  0  0  0  0  0
   54.8768   24.5002   46.3055 H   0  0  0  0  0  0  0  0  0  0  0  0
   55.0972   26.9594   45.6495 H   0  0  0  0  0  0  0  0  0  0  0  0
   56.0476   26.4255   47.0862 H   0  0  0  0  0  0  0  0  0  0  0  0
   61.7383   32.5268   47.7989 H   0  0  0  0  0  0  0  0  0  0  0  0
   61.5011   34.9931   47.5421 H   0  0  0  0  0  0  0  0  0  0  0  0
   59.5410   35.9480   46.3368 H   0  0  0  0  0  0  0  0  0  0  0  0
   57.7979   34.4419   45.3858 H   0  0  0  0  0  0  0  0  0  0  0  0
  1  2  1  0
  2  3  1  0
  3  4  1  0
  4  5  2  0
  5  6  1  0
  6  7  1  0
  7  8  3  0
  6  9  2  0
  9 10  1  0
 10 11  1  0
 11 12  1  0
 12 13  1  0
 13 14  1  0
 13 15  1  0
 15 16  1  0
  5 17  1  0
 17 18  2  0
 17 19  1  0
 19 20  2  0
 20 21  1  0
 21 22  2  0
 22 23  1  0
 23 24  2  0
 24 25  1  0
 25 26  2  0
  9  3  1  0
 16 10  1  0
 24 19  1  0
 25  4  1  0
  1 27  1  0
  1 28  1  0
  1 29  1  0
  2 30  1  0
  2 31  1  0
 11 32  1  0
 11 33  1  0
 12 34  1  0
 12 35  1  0
 14 36  1  0
 14 37  1  0
 14 38  1  0
 15 39  1  0
 15 40  1  0
 16 41  1  0
 16 42  1  0
 20 43  1  0
 21 44  1  0
 22 45  1  0
 23 46  1  0
M  END
>  <UniqueID>  (11) 
11

>  <SMILES>  (11) 
CCn1c2c(c(C#N)c1N1CCN(C)CC1)C(=O)c1ccccc1C2=O

>  <Energy>  (11) 
91.97757280813168

>  <Genealogy>  (11) 
CCn1c2c(c(C#N)c1N1CCN(C)CC1)C(=O)c1ccccc1C2=O (3D coordinates assigned)
CCn1c2c(c(C#N)c1N1CCN(C)CC1)C(=O)c1ccccc1C2=O (nonaromatic ring conformer: 91.97757280813168 kcal/mol)

>  <smiles>  (11) 
CCn1c2c(c(C#N)c1N1CCN(C)CC1)C(=O)c1ccccc1C2=O

>  <score_type>  (11) 
oracle

>  <origin>  (11) 
adg

>  <m_score__min__energy>  (11) 
-7.6399999999999997

>  <m_primary>  (11) 
energy

$$$$
11:0
     RDKit          3D

 38 39  0  0  0  0  0  0  0  0999 V2000
   55.5610   29.9630   44.1260 C   0  0  0  0  0  0  0  0  0  0  0  0
   56.6000   29.7830   43.0350 C   0  0  0  0  0  0  0  0  0  0  0  0
   57.3280   28.5700   43.1410 N   0  0  0  0  0  0  0  0  0  0  0  0
   57.8240   28.1830   44.4140 C   0  0  0  0  0  0  0  0  0  0  0  0
   59.2770   28.6200   44.6310 C   0  0  0  0  0  0  0  0  0  0  0  0
   59.5450   29.6350   45.4900 N   0  0  0  0  0  0  0  0  0  0  0  0
   59.8180   30.6680   46.3620 C   0  0  0  0  0  0  0  0  0  0  0  0
   60.7480   30.7590   47.3630 C   0  0  0  0  0  0  0  0  0  0  0  0
   61.0160   31.9250   48.0740 C   0  0  0  0  0  0  0  0  0  0  0  0
   60.3090   33.0070   47.7440 N   0  0  0  0  0  0  0  0  0  0  0  0
   60.5800   34.2280   48.4610 C   0  0  0  0  0  0  0  0  0  0  0  0
   59.3840   33.0290   46.7950 C   0  0  0  0  0  0  0  0  0  0  0  0
   58.6720   34.1840   46.5140 C   0  0  0  0  0  0  0  0  0  0  0  0
   57.6960   34.2060   45.5410 C   0  0  0  0  0  0  0  0  0  0  0  0
   57.4120   33.0510   44.8220 C   0  0  0  0  0  0  0  0  0  0  0  0
   58.1500   31.9350   45.1410 C   0  0  0  0  0  0  0  0  0  0  0  0
   59.1240   31.8810   46.0970 C   0  0  0  0  0  0  0  0  0  0  0  0
   56.0447   29.8792   45.1104 H   0  0  0  0  0  0  0  0  0  0  0  0
   55.0958   30.9551   44.0293 H   0  0  0  0  0  0  0  0  0  0  0  0
   54.7892   29.1852   44.0293 H   0  0  0  0  0  0  0  0  0  0  0  0
   56.0885   29.7981   42.0613 H   0  0  0  0  0  0  0  0  0  0  0  0
   57.3238   30.6047   43.1390 H   0  0  0  0  0  0  0  0  0  0  0  0
   58.1380   28.5670   42.4550 H   0  0  0  0  0  0  0  0  0  0  0  0
   56.6840   27.7960   42.7690 H   0  0  0  0  0  0  0  0  0  0  0  0
   57.1968   28.6422   45.1923 H   0  0  0  0  0  0  0  0  0  0  0  0
   57.7919   27.0848   44.4674 H   0  0  0  0  0  0  0  0  0  0  0  0
   59.8259   27.7388   44.9947 H   0  0  0  0  0  0  0  0  0  0  0  0
   59.5763   29.0223   43.6519 H   0  0  0  0  0  0  0  0  0  0  0  0
   60.7230   29.8310   44.8770 H   0  0  0  0  0  0  0  0  0  0  0  0
   61.3185   29.8546   47.6211 H   0  0  0  0  0  0  0  0  0  0  0  0
   61.7746   31.9530   48.8701 H   0  0  0  0  0  0  0  0  0  0  0  0
   60.5372   34.0350   49.5431 H   0  0  0  0  0  0  0  0  0  0  0  0
   61.5816   34.5957   48.1935 H   0  0  0  0  0  0  0  0  0  0  0  0
   59.8280   34.9849   48.1935 H   0  0  0  0  0  0  0  0  0  0  0  0
   58.8902   35.1022   47.0790 H   0  0  0  0  0  0  0  0  0  0  0  0
   57.1437   35.1346   45.3342 H   0  0  0  0  0  0  0  0  0  0  0  0
   56.6387   33.0305   44.0400 H   0  0  0  0  0  0  0  0  0  0  0  0
   57.9388   31.0119   44.5813 H   0  0  0  0  0  0  0  0  0  0  0  0
  1  2  1  0
  2  3  1  0
  3  4  1  0
  4  5  1  0
  5  6  1  0
  6  7  1  0
  7  8  2  0
  8  9  1  0
  9 10  2  0
 10 11  1  0
 10 12  1  0
 12 13  2  0
 13 14  1  0
 14 15  2  0
 15 16  1  0
 16 17  2  0
 17  7  1  0
 17 12  1  0
  1 18  1  0
  1 19  1  0
  1 20  1  0
  2 21  1  0
  2 22  1  0
  3 23  1  0
  3 24  1  0
  4 25  1  0
  4 26  1  0
  5 27  1  0
  5 28  1  0
  6 29  1  0
  8 30  1  0
  9 31  1  0
 11 32  1  0
 11 33  1  0
 11 34  1  0
 13 35  1  0
 14 36  1  0
 15 37  1  0
 16 38  1  0
M  CHG  2   3   1  10   1
M  END
>  <UniqueID>  (12) 
12

>  <SMILES>  (12) 
CC[NH2+]CCNc1cc[n+](C)c2ccccc12

>  <Energy>  (12) 
221.59946461441461

>  <Genealogy>  (12) 
CC[NH2+]CCNc1cc[n+](C)c2ccccc12 (protonated)
CC[NH2+]CCNc1cc[n+](C)c2ccccc12 (3D coordinates assigned)
CC[NH2+]CCNc1cc[n+](C)c2ccccc12 (optimized conformer: 221.59946461441461 kcal/mol)

>  <smiles>  (12) 
CCNCCNc1cc[n+](C)c2ccccc12

>  <score_type>  (12) 
oracle

>  <origin>  (12) 
adg

>  <m_score__min__energy>  (12) 
-3.2200000000000002

>  <m_primary>  (12) 
energy

$$$$
12:0
     RDKit          3D

 34 37  0  0  0  0  0  0  0  0999 V2000
   56.6440   29.8790   42.8910 C   0  0  0  0  0  0  0  0  0  0  0  0
   56.1170   29.9590   44.3220 C   0  0  0  0  0  0  0  0  0  0  0  0
   57.1990   29.7140   45.2850 N   0  0  0  0  0  0  0  0  0  0  0  0
   57.5110   28.4900   45.7900 C   0  0  0  0  0  0  0  0  0  0  0  0
   56.8170   27.2830   45.6210 C   0  0  0  0  0  0  0  0  0  0  0  0
   57.3410   26.1230   46.2200 C   0  0  0  0  0  0  0  0  0  0  0  0
   58.5380   26.1790   46.9630 C   0  0  0  0  0  0  0  0  0  0  0  0
   59.2210   27.3970   47.1200 C   0  0  0  0  0  0  0  0  0  0  0  0
   58.6720   28.5320   46.5230 C   0  0  0  0  0  0  0  0  0  0  0  0
   59.1040   29.8340   46.4890 C   0  0  0  0  0  0  0  0  0  0  0  0
   60.2600   30.3950   47.0180 C   0  0  0  0  0  0  0  0  0  0  0  0
   60.4920   31.7530   46.8010 C   0  0  0  0  0  0  0  0  0  0  0  0
   59.5530   32.5440   46.1050 C   0  0  0  0  0  0  0  0  0  0  0  0
   59.8010   33.9160   45.9410 C   0  0  0  0  0  0  0  0  0  0  0  0
   58.8610   34.7330   45.3170 C   0  0  0  0  0  0  0  0  0  0  0  0
   57.6530   34.1960   44.8760 C   0  0  0  0  0  0  0  0  0  0  0  0
   57.3880   32.8330   45.0230 C   0  0  0  0  0  0  0  0  0  0  0  0
   58.3450   31.9660   45.5930 C   0  0  0  0  0  0  0  0  0  0  0  0
   58.1710   30.5600   45.7560 C   0  0  0  0  0  0  0  0  0  0  0  0
   57.7314   29.7139   42.9094 H   0  0  0  0  0  0  0  0  0  0  0  0
   56.1553   29.0447   42.3664 H   0  0  0  0  0  0  0  0  0  0  0  0
   56.4249   30.8207   42.3664 H   0  0  0  0  0  0  0  0  0  0  0  0
   55.6968   30.9603   44.4972 H   0  0  0  0  0  0  0  0  0  0  0  0
   55.3405   29.1918   44.4577 H   0  0  0  0  0  0  0  0  0  0  0  0
   55.8868   27.2444   45.0351 H   0  0  0  0  0  0  0  0  0  0  0  0
   56.8127   25.1647   46.1078 H   0  0  0  0  0  0  0  0  0  0  0  0
   58.9396   25.2638   47.4225 H   0  0  0  0  0  0  0  0  0  0  0  0
   60.1573   27.4536   47.6945 H   0  0  0  0  0  0  0  0  0  0  0  0
   60.9726   29.7847   47.5922 H   0  0  0  0  0  0  0  0  0  0  0  0
   61.4178   32.2130   47.1768 H   0  0  0  0  0  0  0  0  0  0  0  0
   60.7436   34.3486   46.3076 H   0  0  0  0  0  0  0  0  0  0  0  0
   59.0724   35.8028   45.1722 H   0  0  0  0  0  0  0  0  0  0  0  0
   56.9027   34.8507   44.4087 H   0  0  0  0  0  0  0  0  0  0  0  0
   56.4204   32.4294   44.6901 H   0  0  0  0  0  0  0  0  0  0  0  0
  1  2  1  0
  2  3  1  0
  3  4  1  0
  4  5  2  0
  5  6  1  0
  6  7  2  0
  7  8  1  0
  8  9  2  0
  9 10  1  0
 10 11  2  0
 11 12  1  0
 12 13  2  0
 13 14  1  0
 14 15  2  0
 15 16  1  0
 16 17  2  0
 17 18  1  0
 18 19  2  0
 19  3  1  0
  9  4  1  0
 19 10  1  0
 18 13  1  0
  1 20  1  0
  1 21  1  0
  1 22  1  0
  2 23  1  0
  2 24  1  0
  5 25  1  0
  6 26  1  0
  7 27  1  0
  8 28  1  0
 11 29  1  0
 12 30  1  0
 14 31  1  0
 15 32  1  0
 16 33  1  0
 17 34  1  0
M  END
>  <UniqueID>  (13) 
13

>  <SMILES>  (13) 
CCn1c2ccccc2c2ccc3ccccc3c21

>  <Energy>  (13) 
89.29149202838289

>  <Genealogy>  (13) 
CCn1c2ccccc2c2ccc3ccccc3c21 (3D coordinates assigned)
CCn1c2ccccc2c2ccc3ccccc3c21 (optimized conformer: 89.29149202838289 kcal/mol)

>  <smiles>  (13) 
CCn1c2ccccc2c2ccc3ccccc3c21

>  <score_type>  (13) 
oracle

>  <origin>  (13) 
adg

>  <m_score__min__energy>  (13) 
-7.2599999999999998

>  <m_primary>  (13) 
energy

$$$$
13:0
     RDKit          3D

 85 88  0  0  0  0  0  0  0  0999 V2000
   59.6870   29.9660   52.4280 C   0  0  0  0  0  0  0  0  0  0  0  0
   58.2810   29.9050   51.8340 C   0  0  0  0  0  0  0  0  0  0  0  0
   57.9240   31.1980   51.2080 N   0  0  0  0  0  0  0  0  0  0  0  0
   56.7470   31.7780   51.8810 C   0  0  0  0  0  0  0  0  0  0  0  0
   59.0560   32.1530   51.2370 C   0  0  0  0  0  0  0  0  0  0  0  0
   59.3920   32.6100   49.8110 C   0  0  0  0  0  0  0  0  0  0  0  0
   58.3470   32.2290   48.8570 N   0  0  0  0  0  0  0  0  0  0  0  0
   58.6110   32.1420   47.4480 C   0  0  0  0  0  0  0  0  0  0  0  0
   58.9040   33.3120   46.7310 C   0  0  0  0  0  0  0  0  0  0  0  0
   59.3030   34.4870   47.4010 C   0  0  0  0  0  0  0  0  0  0  0  0
   59.6330   35.6350   46.6850 C   0  0  0  0  0  0  0  0  0  0  0  0
   59.5850   35.6260   45.2950 C   0  0  0  0  0  0  0  0  0  0  0  0
   59.1870   34.4760   44.6150 C   0  0  0  0  0  0  0  0  0  0  0  0
   58.8090   33.3040   45.3190 C   0  0  0  0  0  0  0  0  0  0  0  0
   58.3450   32.1770   44.6680 N   0  0  0  0  0  0  0  0  0  0  0  0
   57.9090   32.2700   43.2570 C   0  0  0  0  0  0  0  0  0  0  0  0
   58.2740   30.9700   45.3420 C   0  0  0  0  0  0  0  0  0  0  0  0
   58.0500   29.7570   44.6510 C   0  0  0  0  0  0  0  0  0  0  0  0
   57.9500   28.5480   45.3260 C   0  0  0  0  0  0  0  0  0  0  0  0
   58.1450   28.4840   46.7090 C   0  0  0  0  0  0  0  0  0  0  0  0
   58.1370   27.2630   47.4050 O   0  0  0  0  0  0  0  0  0  0  0  0
   58.7890   26.0600   46.9980 C   0  0  0  0  0  0  0  0  0  0  0  0
   57.9840   25.3210   45.9170 C   0  0  0  0  0  0  0  0  0  0  0  0
   56.7160   24.6370   46.4570 C   0  0  0  0  0  0  0  0  0  0  0  0
   55.4220   25.2040   45.8600 C   0  0  0  0  0  0  0  0  0  0  0  0
   55.2790   26.6110   46.2200 N   0  0  0  0  0  0  0  0  0  0  0  0
   58.3960   29.6660   47.4290 C   0  0  0  0  0  0  0  0  0  0  0  0
   58.8480   29.5400   48.7850 N   0  0  0  0  0  0  0  0  0  0  0  0
   60.1470   28.9610   49.1290 C   0  0  0  0  0  0  0  0  0  0  0  0
   61.2290   30.0470   49.1790 C   0  0  0  0  0  0  0  0  0  0  0  0
   61.5310   30.6220   47.7860 C   0  0  0  0  0  0  0  0  0  0  0  0
   62.7580   31.4510   47.7820 N   0  0  0  0  0  0  0  0  0  0  0  0
   62.5330   32.7610   47.1240 C   0  0  0  0  0  0  0  0  0  0  0  0
   62.3350   33.8920   48.1500 C   0  0  0  0  0  0  0  0  0  0  0  0
   63.4370   34.0650   49.0310 O   0  0  0  0  0  0  0  0  0  0  0  0
   64.1750   32.8730   49.2630 C   0  0  0  0  0  0  0  0  0  0  0  0
   63.3300   31.5930   49.1430 C   0  0  0  0  0  0  0  0  0  0  0  0
   58.4350   30.9230   46.7560 C   0  0  0  0  0  0  0  0  0  0  0  0
   59.6216   29.9632   53.5261 H   0  0  0  0  0  0  0  0  0  0  0  0
   60.2649   29.0921   52.0928 H   0  0  0  0  0  0  0  0  0  0  0  0
   60.1870   30.8867   52.0928 H   0  0  0  0  0  0  0  0  0  0  0  0
   58.2443   29.1121   51.0724 H   0  0  0  0  0  0  0  0  0  0  0  0
   57.5640   29.6911   52.6404 H   0  0  0  0  0  0  0  0  0  0  0  0
   56.8789   31.7130   52.9711 H   0  0  0  0  0  0  0  0  0  0  0  0
   56.6391   32.8325   51.5869 H   0  0  0  0  0  0  0  0  0  0  0  0
   55.8451   31.2212   51.5869 H   0  0  0  0  0  0  0  0  0  0  0  0
   58.7797   33.0275   51.8445 H   0  0  0  0  0  0  0  0  0  0  0  0
   59.9355   31.6582   51.6749 H   0  0  0  0  0  0  0  0  0  0  0  0
   59.4987   33.7048   49.8038 H   0  0  0  0  0  0  0  0  0  0  0  0
   60.3283   32.1195   49.5065 H   0  0  0  0  0  0  0  0  0  0  0  0
   57.4280   31.8990   49.2260 H   0  0  0  0  0  0  0  0  0  0  0  0
   59.3541   34.4969   48.4998 H   0  0  0  0  0  0  0  0  0  0  0  0
   59.9317   36.5492   47.2189 H   0  0  0  0  0  0  0  0  0  0  0  0
   59.8618   36.5288   44.7307 H   0  0  0  0  0  0  0  0  0  0  0  0
   59.1657   34.4774   43.5152 H   0  0  0  0  0  0  0  0  0  0  0  0
   56.8338   32.4993   43.2198 H   0  0  0  0  0  0  0  0  0  0  0  0
   58.4719   33.0683   42.7511 H   0  0  0  0  0  0  0  0  0  0  0  0
   58.0972   31.3115   42.7511 H   0  0  0  0  0  0  0  0  0  0  0  0
   57.9529   29.7715   43.5554 H   0  0  0  0  0  0  0  0  0  0  0  0
   57.7148   27.6305   44.7667 H   0  0  0  0  0  0  0  0  0  0  0  0
   59.7819   26.3100   46.5960 H   0  0  0  0  0  0  0  0  0  0  0  0
   58.8760   25.4010   47.8745 H   0  0  0  0  0  0  0  0  0  0  0  0
   57.6866   26.0476   45.1466 H   0  0  0  0  0  0  0  0  0  0  0  0
   58.6328   24.5290   45.5148 H   0  0  0  0  0  0  0  0  0  0  0  0
   56.7696   23.5642   46.2198 H   0  0  0  0  0  0  0  0  0  0  0  0
   56.6829   24.8196   47.5412 H   0  0  0  0  0  0  0  0  0  0  0  0
   55.4549   25.1101   44.7645 H   0  0  0  0  0  0  0  0  0  0  0  0
   54.5647   24.6413   46.2579 H   0  0  0  0  0  0  0  0  0  0  0  0
   56.0460   26.8570   46.8870 H   0  0  0  0  0  0  0  0  0  0  0  0
   54.3830   26.7150   46.7490 H   0  0  0  0  0  0  0  0  0  0  0  0
   58.2050   29.8690   49.5400 H   0  0  0  0  0  0  0  0  0  0  0  0
   60.0766   28.4759   50.1137 H   0  0  0  0  0  0  0  0  0  0  0  0
   60.4207   28.2245   48.3592 H   0  0  0  0  0  0  0  0  0  0  0  0
   60.8846   30.8619   49.8327 H   0  0  0  0  0  0  0  0  0  0  0  0
   62.1519   29.5902   49.5659 H   0  0  0  0  0  0  0  0  0  0  0  0
   61.6626   29.7895   47.0791 H   0  0  0  0  0  0  0  0  0  0  0  0
   60.6868   31.2633   47.4929 H   0  0  0  0  0  0  0  0  0  0  0  0
   63.4049   32.9984   46.4968 H   0  0  0  0  0  0  0  0  0  0  0  0
   61.6178   32.6858   46.5184 H   0  0  0  0  0  0  0  0  0  0  0  0
   62.1769   34.8331   47.6029 H   0  0  0  0  0  0  0  0  0  0  0  0
   61.4691   33.6154   48.7695 H   0  0  0  0  0  0  0  0  0  0  0  0
   64.9917   32.8209   48.5280 H   0  0  0  0  0  0  0  0  0  0  0  0
   64.5460   32.9192   50.2975 H   0  0  0  0  0  0  0  0  0  0  0  0
   63.9667   30.7219   49.3569 H   0  0  0  0  0  0  0  0  0  0  0  0
   62.5011   31.6552   49.8634 H   0  0  0  0  0  0  0  0  0  0  0  0
  1  2  1  0
  2  3  1  0
  3  4  1  0
  3  5  1  0
  5  6  1  0
  6  7  1  0
  7  8  1  0
  8  9  2  0
  9 10  1  0
 10 11  2  0
 11 12  1  0
 12 13  2  0
 13 14  1  0
 14 15  2  0
 15 16  1  0
 15 17  1  0
 17 18  2  0
 18 19  1  0
 19 20  2  0
 20 21  1  0
 21 22  1  0
 22 23  1  0
 23 24  1  0
 24 25  1  0
 25 26  1  0
 20 27  1  0
 27 28  1  0
 28 29  1  0
 29 30  1  0
 30 31  1  0
 31 32  1  0
 32 33  1  0
 33 34  1  0
 34 35  1  0
 35 36  1  0
 36 37  1  0
 27 38  2  0
 38  8  1  0
 14  9  1  0
 38 17  1  0
 37 32  1  0
  1 39  1  0
  1 40  1  0
  1 41  1  0
  2 42  1  0
  2 43  1  0
  4 44  1  0
  4 45  1  0
  4 46  1  0
  5 47  1  0
  5 48  1  0
  6 49  1  0
  6 50  1  0
  7 51  1  0
 10 52  1  0
 11 53  1  0
 12 54  1  0
 13 55  1  0
 16 56  1  0
 16 57  1  0
 16 58  1  0
 18 59  1  0
 19 60  1  0
 22 61  1  0
 22 62  1  0
 23 63  1  0
 23 64  1  0
 24 65  1  0
 24 66  1  0
 25 67  1  0
 25 68  1  0
 26 69  1  0
 26 70  1  0
 28 71  1  0
 29 72  1  0
 29 73  1  0
 30 74  1  0
 30 75  1  0
 31 76  1  0
 31 77  1  0
 33 78  1  0
 33 79  1  0
 34 80  1  0
 34 81  1  0
 36 82  1  0
 36 83  1  0
 37 84  1  0
 37 85  1  0
M  CHG  1  15   1
M  END
>  <UniqueID>  (14) 
14

>  <SMILES>  (14) 
CCN(C)CCNc1c2ccccc2[n+](C)c2ccc(OCCCCN)c(NCCCN3CCOCC3)c12

>  <Energy>  (14) 
123.63416198558838

>  <Genealogy>  (14) 
CCN(C)CCNc1c2ccccc2[n+](C)c2ccc(OCCCCN)c(NCCCN3CCOCC3)c12 (3D coordinates assigned)
CCN(C)CCNc1c2ccccc2[n+](C)c2ccc(OCCCCN)c(NCCCN3CCOCC3)c12 (nonaromatic ring conformer: 123.63416198558838 kcal/mol)

>  <smiles>  (14) 
CCN(C)CCNc1c2ccccc2[n+](C)c2ccc(OCCCCN)c(NCCCN3CCOCC3)c12

>  <score_type>  (14) 
oracle

>  <origin>  (14) 
adg

>  <m_score__min__energy>  (14) 
-6.6200000000000001

>  <m_primary>  (14) 
energy

$$$$
14:0
     RDKit          3D

 68 70  0  0  0  0  0  0  0  0999 V2000
   63.2370   33.8380   46.4760 C   0  0  0  0  0  0  0  0  0  0  0  0
   63.3140   32.4580   47.1300 C   0  0  0  0  0  0  0  0  0  0  0  0
   62.6890   32.4790   48.4720 N   0  0  0  0  0  0  0  0  0  0  0  0
   63.6140   31.9420   49.4990 C   0  0  0  0  0  0  0  0  0  0  0  0
   64.8550   32.8250   49.6000 C   0  0  0  0  0  0  0  0  0  0  0  0
   62.2370   33.8460   48.8340 C   0  0  0  0  0  0  0  0  0  0  0  0
   61.3150   33.8180   50.0650 C   0  0  0  0  0  0  0  0  0  0  0  0
   59.9040   33.7240   49.6900 N   0  0  0  0  0  0  0  0  0  0  0  0
   59.5310   33.0570   48.4730 C   0  0  0  0  0  0  0  0  0  0  0  0
   59.4380   33.7830   47.2680 C   0  0  0  0  0  0  0  0  0  0  0  0
   59.7050   35.1670   47.2490 C   0  0  0  0  0  0  0  0  0  0  0  0
   59.6570   35.8890   46.0590 C   0  0  0  0  0  0  0  0  0  0  0  0
   59.3520   35.2430   44.8670 C   0  0  0  0  0  0  0  0  0  0  0  0
   59.0640   33.8780   44.8610 C   0  0  0  0  0  0  0  0  0  0  0  0
   59.0690   33.1250   46.0620 C   0  0  0  0  0  0  0  0  0  0  0  0
   58.7290   31.7430   46.0860 C   0  0  0  0  0  0  0  0  0  0  0  0
   58.1460   31.0570   44.8600 C   0  0  0  0  0  0  0  0  0  0  0  0
   57.0240   30.1990   45.2640 N   0  0  0  0  0  0  0  0  0  0  0  0
   56.5330   29.3290   44.1780 C   0  0  1  0  0  0  0  0  0  0  0  0
   56.3550   30.1300   42.8750 C   0  0  0  0  0  0  0  0  0  0  0  0
   57.5480   28.1640   44.0200 C   0  0  0  0  0  0  0  0  0  0  0  0
   58.5140   27.9700   45.1280 N   0  0  0  0  0  0  0  0  0  0  0  0
   59.9170   28.2540   44.7830 C   0  0  0  0  0  0  0  0  0  0  0  0
   58.3630   26.7040   45.8590 C   0  0  0  0  0  0  0  0  0  0  0  0
   58.9280   30.9980   47.2820 C   0  0  0  0  0  0  0  0  0  0  0  0
   58.7850   29.6300   47.3050 N   0  0  0  0  0  0  0  0  0  0  0  0
   58.9390   28.9070   48.4440 C   0  0  0  0  0  0  0  0  0  0  0  0
   59.2590   29.5350   49.6390 C   0  0  0  0  0  0  0  0  0  0  0  0
   59.4440   30.9130   49.6560 C   0  0  0  0  0  0  0  0  0  0  0  0
   59.2950   31.6680   48.4770 C   0  0  0  0  0  0  0  0  0  0  0  0
   63.1938   34.6118   47.2566 H   0  0  0  0  0  0  0  0  0  0  0  0
   64.1276   33.9975   45.8505 H   0  0  0  0  0  0  0  0  0  0  0  0
   62.3341   33.8974   45.8505 H   0  0  0  0  0  0  0  0  0  0  0  0
   62.7866   31.7288   46.4975 H   0  0  0  0  0  0  0  0  0  0  0  0
   64.3718   32.1760   47.2370 H   0  0  0  0  0  0  0  0  0  0  0  0
   63.1031   31.9197   50.4729 H   0  0  0  0  0  0  0  0  0  0  0  0
   63.9184   30.9244   49.2127 H   0  0  0  0  0  0  0  0  0  0  0  0
   65.0972   32.9973   50.6591 H   0  0  0  0  0  0  0  0  0  0  0  0
   65.7018   32.3252   49.1069 H   0  0  0  0  0  0  0  0  0  0  0  0
   64.6604   33.7888   49.1069 H   0  0  0  0  0  0  0  0  0  0  0  0
   63.1166   34.4673   49.0583 H   0  0  0  0  0  0  0  0  0  0  0  0
   61.6741   34.2633   47.9860 H   0  0  0  0  0  0  0  0  0  0  0  0
   61.5765   32.9479   50.6851 H   0  0  0  0  0  0  0  0  0  0  0  0
   61.4579   34.7578   50.6184 H   0  0  0  0  0  0  0  0  0  0  0  0
   59.1770   33.7910   50.4360 H   0  0  0  0  0  0  0  0  0  0  0  0
   59.9548   35.6840   48.1873 H   0  0  0  0  0  0  0  0  0  0  0  0
   59.8604   36.9700   46.0626 H   0  0  0  0  0  0  0  0  0  0  0  0
   59.3376   35.8101   43.9246 H   0  0  0  0  0  0  0  0  0  0  0  0
   58.8294   33.3783   43.9096 H   0  0  0  0  0  0  0  0  0  0  0  0
   57.7886   31.8174   44.1500 H   0  0  0  0  0  0  0  0  0  0  0  0
   58.9223   30.4426   44.3806 H   0  0  0  0  0  0  0  0  0  0  0  0
   57.3120   29.6200   46.0880 H   0  0  0  0  0  0  0  0  0  0  0  0
   55.5411   28.9192   44.4195 H   0  0  0  0  0  0  0  0  0  0  0  0
   56.1222   31.1774   43.1174 H   0  0  0  0  0  0  0  0  0  0  0  0
   57.2846   30.0872   42.2884 H   0  0  0  0  0  0  0  0  0  0  0  0
   55.5310   29.6976   42.2884 H   0  0  0  0  0  0  0  0  0  0  0  0
   56.9728   27.2326   43.9119 H   0  0  0  0  0  0  0  0  0  0  0  0
   58.1598   28.4291   43.1451 H   0  0  0  0  0  0  0  0  0  0  0  0
   60.5045   28.3729   45.7053 H   0  0  0  0  0  0  0  0  0  0  0  0
   60.3255   27.4203   44.1930 H   0  0  0  0  0  0  0  0  0  0  0  0
   59.9691   29.1809   44.1930 H   0  0  0  0  0  0  0  0  0  0  0  0
   58.3864   26.9004   46.9411 H   0  0  0  0  0  0  0  0  0  0  0  0
   57.4030   26.2384   45.5915 H   0  0  0  0  0  0  0  0  0  0  0  0
   59.1866   26.0257   45.5915 H   0  0  0  0  0  0  0  0  0  0  0  0
   58.5890   29.0830   46.4400 H   0  0  0  0  0  0  0  0  0  0  0  0
   58.8090   27.8150   48.4190 H   0  0  0  0  0  0  0  0  0  0  0  0
   59.3653   28.9487   50.5637 H   0  0  0  0  0  0  0  0  0  0  0  0
   59.7087   31.4169   50.5973 H   0  0  0  0  0  0  0  0  0  0  0  0
  1  2  1  0
  2  3  1  0
  3  4  1  0
  4  5  1  0
  3  6  1  0
  6  7  1  0
  7  8  1  0
  8  9  1  0
  9 10  2  0
 10 11  1  0
 11 12  2  0
 12 13  1  0
 13 14  2  0
 14 15  1  0
 15 16  2  0
 16 17  1  0
 17 18  1  0
 18 19  1  0
 19 20  1  0
 19 21  1  0
 21 22  1  0
 22 23  1  0
 22 24  1  0
 16 25  1  0
 25 26  2  0
 26 27  1  0
 27 28  2  0
 28 29  1  0
 29 30  2  0
 30  9  1  0
 15 10  1  0
 30 25  1  0
  1 31  1  0
  1 32  1  0
  1 33  1  0
  2 34  1  0
  2 35  1  0
  4 36  1  0
  4 37  1  0
  5 38  1  0
  5 39  1  0
  5 40  1  0
  6 41  1  0
  6 42  1  0
  7 43  1  0
  7 44  1  0
  8 45  1  0
 11 46  1  0
 12 47  1  0
 13 48  1  0
 14 49  1  0
 17 50  1  0
 17 51  1  0
 18 52  1  0
 19 53  1  1
 20 54  1  0
 20 55  1  0
 20 56  1  0
 21 57  1  0
 21 58  1  0
 23 59  1  0
 23 60  1  0
 23 61  1  0
 24 62  1  0
 24 63  1  0
 24 64  1  0
 26 65  1  0
 27 66  1  0
 28 67  1  0
 29 68  1  0
M  CHG  1  26   1
M  END
>  <UniqueID>  (15) 
15

>  <SMILES>  (15) 
CCN(CC)CCNc1c2ccccc2c(CN[C@@H](C)CN(C)C)c2[nH+]cccc12

>  <Energy>  (15) 
95.08456830028075

>  <Genealogy>  (15) 
CCN(CC)CCNc1c2ccccc2c(CNC(C)CN(C)C)c2[nH+]cccc12 (protonated)
CCN(CC)CCNc1c2ccccc2c(CN[C@@H](C)CN(C)C)c2[nH+]cccc12 (chirality)
CCN(CC)CCNc1c2ccccc2c(CN[C@@H](C)CN(C)C)c2[nH+]cccc12 (3D coordinates assigned)
CCN(CC)CCNc1c2ccccc2c(CN[C@@H](C)CN(C)C)c2[nH+]cccc12 (optimized conformer: 95.08456830028075 kcal/mol)

>  <smiles>  (15) 
CCN(CC)CCNc1c2ccccc2c(CNC(C)CN(C)C)c2ncccc12

>  <score_type>  (15) 
oracle

>  <origin>  (15) 
adg

>  <m_score__min__energy>  (15) 
-6.4299999999999997

>  <m_primary>  (15) 
energy

$$$$
15:0
     RDKit          3D

 48 49  0  0  0  0  0  0  0  0999 V2000
   56.8510   22.8510   43.8490 C   0  0  0  0  0  0  0  0  0  0  0  0
   57.4520   23.5310   45.0910 C   0  0  0  0  0  0  0  0  0  0  0  0
   57.7140   24.9820   44.9420 N   0  0  0  0  0  0  0  0  0  0  0  0
   57.3850   25.5270   43.6100 C   0  0  0  0  0  0  0  0  0  0  0  0
   58.1540   26.8190   43.3440 C   0  0  0  0  0  0  0  0  0  0  0  0
   57.0310   25.9140   46.2640 S   0  0  0  0  0  0  0  0  0  0  0  0
   55.5670   26.1370   45.9970 O   0  0  0  0  0  0  0  0  0  0  0  0
   57.1390   25.1450   47.5510 O   0  0  0  0  0  0  0  0  0  0  0  0
   57.8130   27.4800   46.4790 C   0  0  0  0  0  0  0  0  0  0  0  0
   58.9050   27.6070   47.3500 C   0  0  0  0  0  0  0  0  0  0  0  0
   59.5240   28.8460   47.5280 C   0  0  0  0  0  0  0  0  0  0  0  0
   59.0610   29.9690   46.8360 C   0  0  0  0  0  0  0  0  0  0  0  0
   59.6640   31.1370   47.0090 O   0  0  0  0  0  0  0  0  0  0  0  0
   59.2910   32.2560   46.3920 C   0  0  0  0  0  0  0  0  0  0  0  0
   60.0980   33.4760   46.6580 C   0  0  0  0  0  0  0  0  0  0  0  0
   59.8220   34.5560   46.0630 O   0  0  0  0  0  0  0  0  0  0  0  0
   61.2670   33.4040   47.5080 N   0  0  0  0  0  0  0  0  0  0  0  0
   62.4590   33.8210   46.7550 C   0  0  0  0  0  0  0  0  0  0  0  0
   61.0910   34.2400   48.7080 C   0  0  0  0  0  0  0  0  0  0  0  0
   58.1710   32.2400   45.5190 C   0  0  0  0  0  0  0  0  0  0  0  0
   57.6680   33.4980   44.8490 C   0  0  0  0  0  0  0  0  0  0  0  0
   57.5230   31.0080   45.2910 C   0  0  0  0  0  0  0  0  0  0  0  0
   56.5470   30.9410   44.4920 O   0  0  0  0  0  0  0  0  0  0  0  0
   57.9660   29.8550   45.9570 C   0  0  0  0  0  0  0  0  0  0  0  0
   57.3490   28.6020   45.7790 C   0  0  0  0  0  0  0  0  0  0  0  0
   56.1532   22.0615   44.1648 H   0  0  0  0  0  0  0  0  0  0  0  0
   56.3120   23.5974   43.2470 H   0  0  0  0  0  0  0  0  0  0  0  0
   57.6580   22.4078   43.2470 H   0  0  0  0  0  0  0  0  0  0  0  0
   56.7516   23.3943   45.9281 H   0  0  0  0  0  0  0  0  0  0  0  0
   58.4299   23.0565   45.2600 H   0  0  0  0  0  0  0  0  0  0  0  0
   57.6504   24.7855   42.8420 H   0  0  0  0  0  0  0  0  0  0  0  0
   56.3076   25.7464   43.5767 H   0  0  0  0  0  0  0  0  0  0  0  0
   58.4311   27.2845   44.3014 H   0  0  0  0  0  0  0  0  0  0  0  0
   59.0642   26.5923   42.7695 H   0  0  0  0  0  0  0  0  0  0  0  0
   57.5207   27.5110   42.7695 H   0  0  0  0  0  0  0  0  0  0  0  0
   59.2755   26.7265   47.8954 H   0  0  0  0  0  0  0  0  0  0  0  0
   60.3783   28.9386   48.2147 H   0  0  0  0  0  0  0  0  0  0  0  0
   61.4090   32.4190   47.8340 H   0  0  0  0  0  0  0  0  0  0  0  0
   63.2576   34.1004   47.4580 H   0  0  0  0  0  0  0  0  0  0  0  0
   62.8022   32.9895   46.1218 H   0  0  0  0  0  0  0  0  0  0  0  0
   62.2090   34.6851   46.1218 H   0  0  0  0  0  0  0  0  0  0  0  0
   61.2212   33.6214   49.6082 H   0  0  0  0  0  0  0  0  0  0  0  0
   61.8390   35.0465   48.7060 H   0  0  0  0  0  0  0  0  0  0  0  0
   60.0813   34.6764   48.7060 H   0  0  0  0  0  0  0  0  0  0  0  0
   57.3753   34.2300   45.6161 H   0  0  0  0  0  0  0  0  0  0  0  0
   58.4653   33.9232   44.2216 H   0  0  0  0  0  0  0  0  0  0  0  0
   56.7974   33.2563   44.2216 H   0  0  0  0  0  0  0  0  0  0  0  0
   56.4992   28.5033   45.0876 H   0  0  0  0  0  0  0  0  0  0  0  0
  1  2  1  0
  2  3  1  0
  3  4  1  0
  4  5  1  0
  3  6  1  0
  6  7  2  0
  6  8  2  0
  6  9  1  0
  9 10  2  0
 10 11  1  0
 11 12  2  0
 12 13  1  0
 13 14  1  0
 14 15  1  0
 15 16  2  0
 15 17  1  0
 17 18  1  0
 17 19  1  0
 14 20  2  0
 20 21  1  0
 20 22  1  0
 22 23  2  0
 22 24  1  0
 24 25  2  0
 25  9  1  0
 24 12  1  0
  1 26  1  0
  1 27  1  0
  1 28  1  0
  2 29  1  0
  2 30  1  0
  4 31  1  0
  4 32  1  0
  5 33  1  0
  5 34  1  0
  5 35  1  0
 10 36  1  0
 11 37  1  0
 17 38  1  0
 18 39  1  0
 18 40  1  0
 18 41  1  0
 19 42  1  0
 19 43  1  0
 19 44  1  0
 21 45  1  0
 21 46  1  0
 21 47  1  0
 25 48  1  0
M  CHG  1  17   1
M  END
>  <UniqueID>  (16) 
16

>  <SMILES>  (16) 
CCN(CC)S(=O)(=O)c1ccc2oc(C(=O)[NH+](C)C)c(C)c(=O)c2c1

>  <Energy>  (16) 
60.101285686606936

>  <Genealogy>  (16) 
CCN(CC)S(=O)(=O)c1ccc2oc(C(=O)[NH+](C)C)c(C)c(=O)c2c1 (protonated)
CCN(CC)S(=O)(=O)c1ccc2oc(C(=O)[NH+](C)C)c(C)c(=O)c2c1 (3D coordinates assigned)
CCN(CC)S(=O)(=O)c1ccc2oc(C(=O)[NH+](C)C)c(C)c(=O)c2c1 (optimized conformer: 60.101285686606936 kcal/mol)

>  <smiles>  (16) 
CCN(CC)S(=O)(=O)c1ccc2oc(C(=O)N(C)C)c(C)c(=O)c2c1

>  <score_type>  (16) 
oracle

>  <origin>  (16) 
adg

>  <m_score__min__energy>  (16) 
-7.5

>  <m_primary>  (16) 
energy

$$$$
16:0
     RDKit          3D

 63 66  0  0  0  0  0  0  0  0999 V2000
   61.2630   30.6400   49.1110 C   0  0  0  0  0  0  0  0  0  0  0  0
   62.4240   31.5050   48.6170 C   0  0  0  0  0  0  0  0  0  0  0  0
   61.9960   32.9170   48.4440 N   0  0  0  0  0  0  0  0  0  0  0  0
   63.1210   33.8440   48.1680 C   0  0  0  0  0  0  0  0  0  0  0  0
   63.3990   33.9080   46.6680 C   0  0  0  0  0  0  0  0  0  0  0  0
   61.1090   33.4050   49.5300 C   0  0  0  0  0  0  0  0  0  0  0  0
   59.7470   33.9710   49.0460 C   0  0  0  0  0  0  0  0  0  0  0  0
   59.8150   34.3950   47.6390 N   0  0  0  0  0  0  0  0  0  0  0  0
   59.1480   33.4290   46.7980 C   0  0  0  0  0  0  0  0  0  0  0  0
   58.0380   33.8070   46.0240 C   0  0  0  0  0  0  0  0  0  0  0  0
   57.4240   32.8860   45.1770 C   0  0  0  0  0  0  0  0  0  0  0  0
   57.9160   31.5760   45.0760 C   0  0  0  0  0  0  0  0  0  0  0  0
   59.0500   31.2020   45.8120 C   0  0  0  0  0  0  0  0  0  0  0  0
   59.6460   32.1210   46.6880 C   0  0  0  0  0  0  0  0  0  0  0  0
   59.6190   29.8520   45.6860 C   0  0  0  0  0  0  0  0  0  0  0  0
   60.8100   29.7470   45.2860 O   0  0  0  0  0  0  0  0  0  0  0  0
   58.8140   28.6180   45.9170 C   0  0  0  0  0  0  0  0  0  0  0  0
   59.4680   27.5440   46.5520 C   0  0  0  0  0  0  0  0  0  0  0  0
   58.8440   26.3060   46.7070 C   0  0  0  0  0  0  0  0  0  0  0  0
   57.5570   26.0990   46.2160 C   0  0  0  0  0  0  0  0  0  0  0  0
   56.9580   24.7980   46.3280 N   0  0  0  0  0  0  0  0  0  0  0  0
   56.9260   23.8300   45.2610 C   0  0  0  0  0  0  0  0  0  0  0  0
   55.9070   23.8520   44.2880 C   0  0  0  0  0  0  0  0  0  0  0  0
   55.9060   22.9230   43.2440 C   0  0  0  0  0  0  0  0  0  0  0  0
   56.9300   21.9790   43.1470 C   0  0  0  0  0  0  0  0  0  0  0  0
   57.9570   21.9620   44.0930 C   0  0  0  0  0  0  0  0  0  0  0  0
   57.9620   22.8860   45.1430 C   0  0  0  0  0  0  0  0  0  0  0  0
   58.9660   22.8450   46.0540 F   0  0  0  0  0  0  0  0  0  0  0  0
   56.8620   27.1740   45.6440 C   0  0  0  0  0  0  0  0  0  0  0  0
   57.4560   28.4430   45.5010 C   0  0  0  0  0  0  0  0  0  0  0  0
   56.5730   29.5090   44.8660 C   0  0  0  0  0  0  0  0  0  0  0  0
   57.3050   30.6100   44.1040 C   0  0  0  0  0  0  0  0  0  0  0  0
   61.2533   30.6328   50.2109 H   0  0  0  0  0  0  0  0  0  0  0  0
   60.3138   31.0528   48.7386 H   0  0  0  0  0  0  0  0  0  0  0  0
   61.3870   29.6124   48.7386 H   0  0  0  0  0  0  0  0  0  0  0  0
   63.2419   31.4639   49.3515 H   0  0  0  0  0  0  0  0  0  0  0  0
   62.7618   31.1181   47.6442 H   0  0  0  0  0  0  0  0  0  0  0  0
   62.8609   34.8489   48.5321 H   0  0  0  0  0  0  0  0  0  0  0  0
   64.0211   33.4778   48.6835 H   0  0  0  0  0  0  0  0  0  0  0  0
   64.4586   34.1519   46.5016 H   0  0  0  0  0  0  0  0  0  0  0  0
   63.1708   32.9338   46.2109 H   0  0  0  0  0  0  0  0  0  0  0  0
   62.7678   34.6843   46.2109 H   0  0  0  0  0  0  0  0  0  0  0  0
   60.9089   32.5660   50.2127 H   0  0  0  0  0  0  0  0  0  0  0  0
   61.6387   34.2384   50.0146 H   0  0  0  0  0  0  0  0  0  0  0  0
   58.9779   33.1913   49.1487 H   0  0  0  0  0  0  0  0  0  0  0  0
   59.4964   34.8476   49.6615 H   0  0  0  0  0  0  0  0  0  0  0  0
   60.8150   34.4940   47.3460 H   0  0  0  0  0  0  0  0  0  0  0  0
   59.3520   35.3290   47.5360 H   0  0  0  0  0  0  0  0  0  0  0  0
   57.6516   34.8350   46.0868 H   0  0  0  0  0  0  0  0  0  0  0  0
   56.5482   33.1881   44.5840 H   0  0  0  0  0  0  0  0  0  0  0  0
   60.5112   31.8142   47.2941 H   0  0  0  0  0  0  0  0  0  0  0  0
   60.4904   27.6842   46.9329 H   0  0  0  0  0  0  0  0  0  0  0  0
   59.3715   25.4883   47.2201 H   0  0  0  0  0  0  0  0  0  0  0  0
   56.5680   24.5210   47.2570 H   0  0  0  0  0  0  0  0  0  0  0  0
   55.1075   24.6049   44.3506 H   0  0  0  0  0  0  0  0  0  0  0  0
   55.0977   22.9356   42.4980 H   0  0  0  0  0  0  0  0  0  0  0  0
   56.9278   21.2482   42.3249 H   0  0  0  0  0  0  0  0  0  0  0  0
   58.7646   21.2196   44.0122 H   0  0  0  0  0  0  0  0  0  0  0  0
   55.8286   27.0227   45.2988 H   0  0  0  0  0  0  0  0  0  0  0  0
   55.8914   29.0078   44.1630 H   0  0  0  0  0  0  0  0  0  0  0  0
   56.0637   30.0117   45.7014 H   0  0  0  0  0  0  0  0  0  0  0  0
   58.0973   30.1625   43.4859 H   0  0  0  0  0  0  0  0  0  0  0  0
   56.5913   31.1437   43.4592 H   0  0  0  0  0  0  0  0  0  0  0  0
  1  2  1  0
  2  3  1  0
  3  4  1  0
  4  5  1  0
  3  6  1  0
  6  7  1  0
  7  8  1  0
  8  9  1  0
  9 10  2  0
 10 11  1  0
 11 12  2  0
 12 13  1  0
 13 14  2  0
 13 15  1  0
 15 16  2  0
 15 17  1  0
 17 18  2  0
 18 19  1  0
 19 20  2  0
 20 21  1  0
 21 22  1  0
 22 23  2  0
 23 24  1  0
 24 25  2  0
 25 26  1  0
 26 27  2  0
 27 28  1  0
 20 29  1  0
 29 30  2  0
 30 31  1  0
 31 32  1  0
 14  9  1  0
 30 17  1  0
 32 12  1  0
 27 22  1  0
  1 33  1  0
  1 34  1  0
  1 35  1  0
  2 36  1  0
  2 37  1  0
  4 38  1  0
  4 39  1  0
  5 40  1  0
  5 41  1  0
  5 42  1  0
  6 43  1  0
  6 44  1  0
  7 45  1  0
  7 46  1  0
  8 47  1  0
  8 48  1  0
 10 49  1  0
 11 50  1  0
 14 51  1  0
 18 52  1  0
 19 53  1  0
 21 54  1  0
 23 55  1  0
 24 56  1  0
 25 57  1  0
 26 58  1  0
 29 59  1  0
 31 60  1  0
 31 61  1  0
 32 62  1  0
 32 63  1  0
M  CHG  1   8   1
M  END
>  <UniqueID>  (17) 
17

>  <SMILES>  (17) 
CCN(CC)CC[NH2+]c1ccc2c(c1)C(=O)c1ccc(Nc3ccccc3F)cc1CC2

>  <Energy>  (17) 
94.46432400544633

>  <Genealogy>  (17) 
CCN(CC)CC[NH2+]c1ccc2c(c1)C(=O)c1ccc(Nc3ccccc3F)cc1CC2 (protonated)
CCN(CC)CC[NH2+]c1ccc2c(c1)C(=O)c1ccc(Nc3ccccc3F)cc1CC2 (3D coordinates assigned)
CCN(CC)CC[NH2+]c1ccc2c(c1)C(=O)c1ccc(Nc3ccccc3F)cc1CC2 (nonaromatic ring conformer: 94.46432400544633 kcal/mol)

>  <smiles>  (17) 
CCN(CC)CCNc1ccc2c(c1)C(=O)c1ccc(Nc3ccccc3F)cc1CC2

>  <score_type>  (17) 
oracle

>  <origin>  (17) 
adg

>  <m_score__min__energy>  (17) 
-5.2300000000000004

>  <m_primary>  (17) 
energy

$$$$
17:0
     RDKit          3D

 69 72  0  0  0  0  0  0  0  0999 V2000
   56.2390   31.0470   52.0150 C   0  0  0  0  0  0  0  0  0  0  0  0
   57.6040   30.3780   52.1710 C   0  0  0  0  0  0  0  0  0  0  0  0
   58.5900   30.9580   51.2300 N   0  0  0  0  0  0  0  0  0  0  0  0
   58.3360   32.3420   50.7540 C   0  0  0  0  0  0  0  0  0  0  0  0
   58.8940   33.4560   51.6570 C   0  0  0  0  0  0  0  0  0  0  0  0
   59.0690   30.0180   50.1910 C   0  0  0  0  0  0  0  0  0  0  0  0
   60.5240   29.5590   50.4040 C   0  0  0  0  0  0  0  0  0  0  0  0
   61.1920   30.2850   51.5090 N   0  0  0  0  0  0  0  0  0  0  0  0
   62.5120   30.7710   51.1270 C   0  0  0  0  0  0  0  0  0  0  0  0
   63.6770   30.0560   51.5280 C   0  0  0  0  0  0  0  0  0  0  0  0
   63.5900   28.8120   52.2090 C   0  0  0  0  0  0  0  0  0  0  0  0
   64.7330   28.0950   52.5500 C   0  0  0  0  0  0  0  0  0  0  0  0
   65.9870   28.5900   52.2220 C   0  0  0  0  0  0  0  0  0  0  0  0
   66.1070   29.8140   51.5690 C   0  0  0  0  0  0  0  0  0  0  0  0
   64.9640   30.5840   51.2330 C   0  0  0  0  0  0  0  0  0  0  0  0
   65.0850   31.8080   50.6090 N   0  0  0  0  0  0  0  0  0  0  0  0
   66.3950   32.5000   50.5890 C   0  0  0  0  0  0  0  0  0  0  0  0
   63.9880   32.3930   50.0130 C   0  0  0  0  0  0  0  0  0  0  0  0
   64.1400   33.4540   49.0880 C   0  0  0  0  0  0  0  0  0  0  0  0
   63.0420   34.0730   48.5070 C   0  0  0  0  0  0  0  0  0  0  0  0
   61.7450   33.6670   48.8290 C   0  0  0  0  0  0  0  0  0  0  0  0
   60.5870   34.2800   48.2280 N   0  0  0  0  0  0  0  0  0  0  0  0
   60.4140   34.4870   46.7890 C   0  0  0  0  0  0  0  0  0  0  0  0
   59.3990   33.5280   46.2230 C   0  0  0  0  0  0  0  0  0  0  0  0
   59.4110   32.1730   46.5870 C   0  0  0  0  0  0  0  0  0  0  0  0
   58.4440   31.2980   46.0850 C   0  0  0  0  0  0  0  0  0  0  0  0
   57.4320   31.7650   45.2380 C   0  0  0  0  0  0  0  0  0  0  0  0
   56.4660   30.8540   44.7840 O   0  0  0  0  0  0  0  0  0  0  0  0
   56.5510   30.1350   43.5570 C   0  0  0  0  0  0  0  0  0  0  0  0
   57.4110   33.1270   44.8800 C   0  0  0  0  0  0  0  0  0  0  0  0
   58.3890   33.9980   45.3700 C   0  0  0  0  0  0  0  0  0  0  0  0
   61.5710   32.6080   49.7290 C   0  0  0  0  0  0  0  0  0  0  0  0
   62.6750   31.9210   50.2990 C   0  0  0  0  0  0  0  0  0  0  0  0
   55.8164   31.2541   53.0092 H   0  0  0  0  0  0  0  0  0  0  0  0
   56.3543   31.9907   51.4617 H   0  0  0  0  0  0  0  0  0  0  0  0
   55.5637   30.3777   51.4617 H   0  0  0  0  0  0  0  0  0  0  0  0
   57.9607   30.5243   53.2012 H   0  0  0  0  0  0  0  0  0  0  0  0
   57.4963   29.3060   51.9491 H   0  0  0  0  0  0  0  0  0  0  0  0
   58.7926   32.4492   49.7590 H   0  0  0  0  0  0  0  0  0  0  0  0
   57.2434   32.4690   50.7509 H   0  0  0  0  0  0  0  0  0  0  0  0
   58.7544   33.1773   52.7119 H   0  0  0  0  0  0  0  0  0  0  0  0
   59.9663   33.5913   51.4523 H   0  0  0  0  0  0  0  0  0  0  0  0
   58.3602   34.3958   51.4523 H   0  0  0  0  0  0  0  0  0  0  0  0
   58.4191   29.1306   50.1976 H   0  0  0  0  0  0  0  0  0  0  0  0
   59.0347   30.5519   49.2299 H   0  0  0  0  0  0  0  0  0  0  0  0
   60.5242   28.4840   50.6373 H   0  0  0  0  0  0  0  0  0  0  0  0
   61.0805   29.7724   49.4794 H   0  0  0  0  0  0  0  0  0  0  0  0
   61.2930   29.6420   52.3270 H   0  0  0  0  0  0  0  0  0  0  0  0
   60.5820   31.0320   51.9040 H   0  0  0  0  0  0  0  0  0  0  0  0
   62.6010   28.4082   52.4715 H   0  0  0  0  0  0  0  0  0  0  0  0
   64.6422   27.1353   53.0799 H   0  0  0  0  0  0  0  0  0  0  0  0
   66.8885   28.0142   52.4784 H   0  0  0  0  0  0  0  0  0  0  0  0
   67.1071   30.1910   51.3088 H   0  0  0  0  0  0  0  0  0  0  0  0
   66.7316   32.6778   51.6210 H   0  0  0  0  0  0  0  0  0  0  0  0
   67.1325   31.8738   50.0656 H   0  0  0  0  0  0  0  0  0  0  0  0
   66.2935   33.4621   50.0656 H   0  0  0  0  0  0  0  0  0  0  0  0
   65.1516   33.7956   48.8237 H   0  0  0  0  0  0  0  0  0  0  0  0
   63.1946   34.8903   47.7868 H   0  0  0  0  0  0  0  0  0  0  0  0
   59.7660   34.4970   48.8350 H   0  0  0  0  0  0  0  0  0  0  0  0
   60.0725   35.5176   46.6125 H   0  0  0  0  0  0  0  0  0  0  0  0
   61.3788   34.3098   46.2913 H   0  0  0  0  0  0  0  0  0  0  0  0
   60.1859   31.7974   47.2714 H   0  0  0  0  0  0  0  0  0  0  0  0
   58.4783   30.2329   46.3578 H   0  0  0  0  0  0  0  0  0  0  0  0
   56.6777   29.0629   43.7683 H   0  0  0  0  0  0  0  0  0  0  0  0
   55.6285   30.2880   42.9777 H   0  0  0  0  0  0  0  0  0  0  0  0
   57.4124   30.4989   42.9777 H   0  0  0  0  0  0  0  0  0  0  0  0
   56.6230   33.5066   44.2130 H   0  0  0  0  0  0  0  0  0  0  0  0
   58.3664   35.0601   45.0845 H   0  0  0  0  0  0  0  0  0  0  0  0
   60.5508   32.3001   50.0017 H   0  0  0  0  0  0  0  0  0  0  0  0
  1  2  1  0
  2  3  1  0
  3  4  1  0
  4  5  1  0
  3  6  1  0
  6  7  1  0
  7  8  1  0
  8  9  1  0
  9 10  2  0
 10 11  1  0
 11 12  2  0
 12 13  1  0
 13 14  2  0
 14 15  1  0
 15 16  2  0
 16 17  1  0
 16 18  1  0
 18 19  2  0
 19 20  1  0
 20 21  2  0
 21 22  1  0
 22 23  1  0
 23 24  1  0
 24 25  2  0
 25 26  1  0
 26 27  2  0
 27 28  1  0
 28 29  1  0
 27 30  1  0
 30 31  2  0
 21 32  1  0
 32 33  2  0
 33  9  1  0
 15 10  1  0
 33 18  1  0
 31 24  1  0
  1 34  1  0
  1 35  1  0
  1 36  1  0
  2 37  1  0
  2 38  1  0
  4 39  1  0
  4 40  1  0
  5 41  1  0
  5 42  1  0
  5 43  1  0
  6 44  1  0
  6 45  1  0
  7 46  1  0
  7 47  1  0
  8 48  1  0
  8 49  1  0
 11 50  1  0
 12 51  1  0
 13 52  1  0
 14 53  1  0
 17 54  1  0
 17 55  1  0
 17 56  1  0
 19 57  1  0
 20 58  1  0
 22 59  1  0
 23 60  1  0
 23 61  1  0
 25 62  1  0
 26 63  1  0
 29 64  1  0
 29 65  1  0
 29 66  1  0
 30 67  1  0
 31 68  1  0
 32 69  1  0
M  CHG  2   8   1  16   1
M  END
>  <UniqueID>  (18) 
18

>  <SMILES>  (18) 
CCN(CC)CC[NH2+]c1c2ccccc2[n+](C)c2ccc(NCc3ccc(OC)cc3)cc12

>  <Energy>  (18) 
106.8119802719508

>  <Genealogy>  (18) 
CCN(CC)CC[NH2+]c1c2ccccc2[n+](C)c2ccc(NCc3ccc(OC)cc3)cc12 (protonated)
CCN(CC)CC[NH2+]c1c2ccccc2[n+](C)c2ccc(NCc3ccc(OC)cc3)cc12 (3D coordinates assigned)
CCN(CC)CC[NH2+]c1c2ccccc2[n+](C)c2ccc(NCc3ccc(OC)cc3)cc12 (optimized conformer: 106.8119802719508 kcal/mol)

>  <smiles>  (18) 
CCN(CC)CCNc1c2ccccc2[n+](C)c2ccc(NCc3ccc(OC)cc3)cc12

>  <score_type>  (18) 
oracle

>  <origin>  (18) 
adg

>  <m_score__min__energy>  (18) 
-5.8899999999999997

>  <m_primary>  (18) 
energy

$$$$
18:0
     RDKit          3D

 49 50  0  0  0  0  0  0  0  0999 V2000
   63.2920   31.8700   47.2560 C   0  0  0  0  0  0  0  0  0  0  0  0
   63.2960   33.3800   47.4670 C   0  0  0  0  0  0  0  0  0  0  0  0
   62.1720   33.8130   48.4120 C   0  0  0  0  0  0  0  0  0  0  0  0
   60.9030   33.8980   47.6890 N   0  0  0  0  0  0  0  0  0  0  0  0
   60.7640   34.5860   46.5670 N   0  0  0  0  0  0  0  0  0  0  0  0
   59.4990   34.4230   46.1350 C   0  0  0  0  0  0  0  0  0  0  0  0
   58.9830   35.0290   44.8700 C   0  0  0  0  0  0  0  0  0  0  0  0
   58.8180   33.5680   46.9920 C   0  0  0  0  0  0  0  0  0  0  0  0
   57.3990   33.0650   46.8630 C   0  0  0  0  0  0  0  0  0  0  0  0
   57.0840   32.5570   45.5160 N   0  0  0  0  0  0  0  0  0  0  0  0
   58.2230   31.9050   44.8480 C   0  0  0  0  0  0  0  0  0  0  0  0
   58.4540   30.4920   45.3430 C   0  0  0  0  0  0  0  0  0  0  0  0
   59.7140   30.1140   45.8440 C   0  0  0  0  0  0  0  0  0  0  0  0
   59.9330   28.8170   46.3090 C   0  0  0  0  0  0  0  0  0  0  0  0
   58.8920   27.8900   46.3060 C   0  0  0  0  0  0  0  0  0  0  0  0
   57.6240   28.2610   45.8550 C   0  0  0  0  0  0  0  0  0  0  0  0
   57.3860   29.5700   45.3900 C   0  0  0  0  0  0  0  0  0  0  0  0
   56.1070   29.9850   44.9790 O   0  0  0  0  0  0  0  0  0  0  0  0
   55.5550   29.7540   43.6870 C   0  0  0  0  0  0  0  0  0  0  0  0
   56.6150   30.0200   42.6290 C   0  0  0  0  0  0  0  0  0  0  0  0
   59.7380   33.2740   47.9880 C   0  0  0  0  0  0  0  0  0  0  0  0
   59.5210   32.3510   49.1550 C   0  0  0  0  0  0  0  0  0  0  0  0
   63.2907   31.3633   48.2324 H   0  0  0  0  0  0  0  0  0  0  0  0
   62.3931   31.5810   46.6917 H   0  0  0  0  0  0  0  0  0  0  0  0
   64.1894   31.5762   46.6917 H   0  0  0  0  0  0  0  0  0  0  0  0
   64.2624   33.6788   47.8992 H   0  0  0  0  0  0  0  0  0  0  0  0
   63.1377   33.8669   46.4934 H   0  0  0  0  0  0  0  0  0  0  0  0
   62.0778   33.0774   49.2244 H   0  0  0  0  0  0  0  0  0  0  0  0
   62.4145   34.8032   48.8252 H   0  0  0  0  0  0  0  0  0  0  0  0
   58.2873   35.8460   45.1120 H   0  0  0  0  0  0  0  0  0  0  0  0
   59.8248   35.4258   44.2835 H   0  0  0  0  0  0  0  0  0  0  0  0
   58.4571   34.2612   44.2835 H   0  0  0  0  0  0  0  0  0  0  0  0
   57.2492   32.2510   47.5876 H   0  0  0  0  0  0  0  0  0  0  0  0
   56.7309   33.9174   47.0557 H   0  0  0  0  0  0  0  0  0  0  0  0
   56.7570   33.3480   44.9170 H   0  0  0  0  0  0  0  0  0  0  0  0
   58.0260   31.8721   43.7663 H   0  0  0  0  0  0  0  0  0  0  0  0
   59.1252   32.4912   45.0769 H   0  0  0  0  0  0  0  0  0  0  0  0
   60.5332   30.8477   45.8691 H   0  0  0  0  0  0  0  0  0  0  0  0
   60.9275   28.5258   46.6781 H   0  0  0  0  0  0  0  0  0  0  0  0
   59.0700   26.8638   46.6598 H   0  0  0  0  0  0  0  0  0  0  0  0
   56.8050   27.5267   45.8626 H   0  0  0  0  0  0  0  0  0  0  0  0
   55.2174   28.7097   43.6137 H   0  0  0  0  0  0  0  0  0  0  0  0
   54.6999   30.4273   43.5274 H   0  0  0  0  0  0  0  0  0  0  0  0
   57.5702   30.2597   43.1191 H   0  0  0  0  0  0  0  0  0  0  0  0
   56.7393   29.1252   42.0014 H   0  0  0  0  0  0  0  0  0  0  0  0
   56.3021   30.8675   42.0014 H   0  0  0  0  0  0  0  0  0  0  0  0
   59.6523   32.9095   50.0935 H   0  0  0  0  0  0  0  0  0  0  0  0
   58.5017   31.9397   49.1126 H   0  0  0  0  0  0  0  0  0  0  0  0
   60.2503   31.5286   49.1126 H   0  0  0  0  0  0  0  0  0  0  0  0
  1  2  1  0
  2  3  1  0
  3  4  1  0
  4  5  1  0
  5  6  2  0
  6  7  1  0
  6  8  1  0
  8  9  1  0
  9 10  1  0
 10 11  1  0
 11 12  1  0
 12 13  2  0
 13 14  1  0
 14 15  2  0
 15 16  1  0
 16 17  2  0
 17 18  1  0
 18 19  1  0
 19 20  1  0
  8 21  2  0
 21 22  1  0
 21  4  1  0
 17 12  1  0
  1 23  1  0
  1 24  1  0
  1 25  1  0
  2 26  1  0
  2 27  1  0
  3 28  1  0
  3 29  1  0
  7 30  1  0
  7 31  1  0
  7 32  1  0
  9 33  1  0
  9 34  1  0
 10 35  1  0
 11 36  1  0
 11 37  1  0
 13 38  1  0
 14 39  1  0
 15 40  1  0
 16 41  1  0
 19 42  1  0
 19 43  1  0
 20 44  1  0
 20 45  1  0
 20 46  1  0
 22 47  1  0
 22 48  1  0
 22 49  1  0
M  END
>  <UniqueID>  (19) 
19

>  <SMILES>  (19) 
CCCn1nc(C)c(CNCc2ccccc2OCC)c1C

>  <Energy>  (19) 
67.22525460667283

>  <Genealogy>  (19) 
CCCn1nc(C)c(CNCc2ccccc2OCC)c1C (3D coordinates assigned)
CCCn1nc(C)c(CNCc2ccccc2OCC)c1C (optimized conformer: 67.22525460667283 kcal/mol)

>  <smiles>  (19) 
CCCn1nc(C)c(CNCc2ccccc2OCC)c1C

>  <score_type>  (19) 
oracle

>  <origin>  (19) 
adg

>  <m_score__min__energy>  (19) 
-7.1200000000000001

>  <m_primary>  (19) 
energy

$$$$
19:0
     RDKit          3D

 49 51  0  0  0  0  0  0  0  0999 V2000
   58.1320   27.5150   43.4380 C   0  0  0  0  0  0  0  0  0  0  0  0
   58.3020   26.6520   44.6860 C   0  0  0  0  0  0  0  0  0  0  0  0
   57.3470   27.0880   45.7990 C   0  0  0  0  0  0  0  0  0  0  0  0
   58.1160   27.5840   46.9480 N   0  0  0  0  0  0  0  0  0  0  0  0
   59.5490   27.2800   46.8090 C   0  0  0  0  0  0  0  0  0  0  0  0
   60.3930   28.4900   47.2370 C   0  0  0  0  0  0  0  0  0  0  0  0
   59.5870   29.5490   47.8820 N   0  0  0  0  0  0  0  0  0  0  0  0
   59.8030   30.8610   47.2820 C   0  0  0  0  0  0  0  0  0  0  0  0
   60.8720   31.7040   47.7040 C   0  0  0  0  0  0  0  0  0  0  0  0
   61.8300   31.2880   48.6660 C   0  0  0  0  0  0  0  0  0  0  0  0
   62.8970   32.1070   49.0270 C   0  0  0  0  0  0  0  0  0  0  0  0
   63.0500   33.3510   48.4380 C   0  0  0  0  0  0  0  0  0  0  0  0
   62.1200   33.7990   47.5070 C   0  0  0  0  0  0  0  0  0  0  0  0
   60.9950   33.0100   47.1480 C   0  0  0  0  0  0  0  0  0  0  0  0
   60.0440   33.4880   46.2720 N   0  0  0  0  0  0  0  0  0  0  0  0
   59.9850   34.9360   45.9650 C   0  0  0  0  0  0  0  0  0  0  0  0
   59.1280   32.6270   45.7070 C   0  0  0  0  0  0  0  0  0  0  0  0
   58.3470   33.0190   44.5910 C   0  0  0  0  0  0  0  0  0  0  0  0
   57.3700   32.1840   44.0600 C   0  0  0  0  0  0  0  0  0  0  0  0
   57.1430   30.9210   44.6080 C   0  0  0  0  0  0  0  0  0  0  0  0
   56.1210   30.0610   44.0660 N   0  0  0  0  0  0  0  0  0  0  0  0
   56.0280   29.8820   42.8340 O   0  0  0  0  0  0  0  0  0  0  0  0
   55.2200   29.4310   44.8950 O   0  0  0  0  0  0  0  0  0  0  0  0
   57.9370   30.4940   45.6810 C   0  0  0  0  0  0  0  0  0  0  0  0
   58.9560   31.3160   46.2290 C   0  0  0  0  0  0  0  0  0  0  0  0
   57.9273   28.5540   43.7358 H   0  0  0  0  0  0  0  0  0  0  0  0
   59.0543   27.4800   42.8396 H   0  0  0  0  0  0  0  0  0  0  0  0
   57.2919   27.1328   42.8396 H   0  0  0  0  0  0  0  0  0  0  0  0
   58.0951   25.6031   44.4270 H   0  0  0  0  0  0  0  0  0  0  0  0
   59.3338   26.7674   45.0495 H   0  0  0  0  0  0  0  0  0  0  0  0
   56.6916   27.8884   45.4252 H   0  0  0  0  0  0  0  0  0  0  0  0
   56.7383   26.2274   46.1134 H   0  0  0  0  0  0  0  0  0  0  0  0
   57.7670   27.0850   47.8000 H   0  0  0  0  0  0  0  0  0  0  0  0
   59.8008   26.4184   47.4448 H   0  0  0  0  0  0  0  0  0  0  0  0
   59.7654   27.0464   45.7561 H   0  0  0  0  0  0  0  0  0  0  0  0
   61.1605   28.1499   47.9478 H   0  0  0  0  0  0  0  0  0  0  0  0
   60.8411   28.9202   46.3292 H   0  0  0  0  0  0  0  0  0  0  0  0
   58.5750   29.3000   47.8080 H   0  0  0  0  0  0  0  0  0  0  0  0
   59.7310   29.5430   48.9140 H   0  0  0  0  0  0  0  0  0  0  0  0
   61.7273   30.2986   49.1357 H   0  0  0  0  0  0  0  0  0  0  0  0
   63.6202   31.7649   49.7820 H   0  0  0  0  0  0  0  0  0  0  0  0
   63.9078   33.9849   48.7070 H   0  0  0  0  0  0  0  0  0  0  0  0
   62.2582   34.7847   47.0388 H   0  0  0  0  0  0  0  0  0  0  0  0
   59.9616   35.5092   46.9036 H   0  0  0  0  0  0  0  0  0  0  0  0
   60.8722   35.2236   45.3817 H   0  0  0  0  0  0  0  0  0  0  0  0
   59.0774   35.1505   45.3817 H   0  0  0  0  0  0  0  0  0  0  0  0
   58.5175   34.0054   44.1349 H   0  0  0  0  0  0  0  0  0  0  0  0
   56.7714   32.5218   43.2012 H   0  0  0  0  0  0  0  0  0  0  0  0
   57.7659   29.4955   46.1097 H   0  0  0  0  0  0  0  0  0  0  0  0
  1  2  1  0
  2  3  1  0
  3  4  1  0
  4  5  1  0
  5  6  1  0
  6  7  1  0
  7  8  1  0
  8  9  2  0
  9 10  1  0
 10 11  2  0
 11 12  1  0
 12 13  2  0
 13 14  1  0
 14 15  2  0
 15 16  1  0
 15 17  1  0
 17 18  2  0
 18 19  1  0
 19 20  2  0
 20 21  1  0
 21 22  2  0
 21 23  1  0
 20 24  1  0
 24 25  2  0
 25  8  1  0
 14  9  1  0
 25 17  1  0
  1 26  1  0
  1 27  1  0
  1 28  1  0
  2 29  1  0
  2 30  1  0
  3 31  1  0
  3 32  1  0
  4 33  1  0
  5 34  1  0
  5 35  1  0
  6 36  1  0
  6 37  1  0
  7 38  1  0
  7 39  1  0
 10 40  1  0
 11 41  1  0
 12 42  1  0
 13 43  1  0
 16 44  1  0
 16 45  1  0
 16 46  1  0
 18 47  1  0
 19 48  1  0
 24 49  1  0
M  CHG  4   7   1  15   1  21   1  23  -1
M  END
>  <UniqueID>  (20) 
20

>  <SMILES>  (20) 
CCCNCC[NH2+]c1c2ccccc2[n+](C)c2ccc([N+](=O)[O-])cc12

>  <Energy>  (20) 
75.09983762801356

>  <Genealogy>  (20) 
CCCNCC[NH2+]c1c2ccccc2[n+](C)c2ccc([N+](=O)[O-])cc12 (protonated)
CCCNCC[NH2+]c1c2ccccc2[n+](C)c2ccc([N+](=O)[O-])cc12 (3D coordinates assigned)
CCCNCC[NH2+]c1c2ccccc2[n+](C)c2ccc([N+](=O)[O-])cc12 (optimized conformer: 75.09983762801356 kcal/mol)

>  <smiles>  (20) 
CCCNCCNc1c2ccccc2[n+](C)c2ccc([N+](=O)[O-])cc12

>  <score_type>  (20) 
oracle

>  <origin>  (20) 
adg

>  <m_score__min__energy>  (20) 
-4.9699999999999998

>  <m_primary>  (20) 
energy

$$$$
20:0
     RDKit          3D

 56 58  0  0  0  0  0  0  0  0999 V2000
   60.7040   33.8890   49.4670 C   0  0  0  0  0  0  0  0  0  0  0  0
   62.1490   33.7270   48.9740 C   0  0  0  0  0  0  0  0  0  0  0  0
   62.4030   32.4550   48.2500 N   0  0  0  0  0  0  0  0  0  0  0  0
   63.4720   32.6000   47.2360 C   0  0  0  0  0  0  0  0  0  0  0  0
   63.2340   33.8400   46.3800 C   0  0  0  0  0  0  0  0  0  0  0  0
   62.6510   31.2940   49.1380 C   0  0  0  0  0  0  0  0  0  0  0  0
   61.3430   30.6690   49.6570 C   0  0  0  0  0  0  0  0  0  0  0  0
   60.5030   30.0310   48.5310 C   0  0  0  0  0  0  0  0  0  0  0  0
   60.9380   30.4130   47.1670 N   0  0  0  0  0  0  0  0  0  0  0  0
   59.8420   30.4680   46.2050 C   0  0  0  0  0  0  0  0  0  0  0  0
   59.2850   29.2810   45.6420 C   0  0  0  0  0  0  0  0  0  0  0  0
   59.7200   27.9820   46.0150 C   0  0  0  0  0  0  0  0  0  0  0  0
   59.1180   26.8380   45.5010 C   0  0  0  0  0  0  0  0  0  0  0  0
   58.0620   26.9470   44.6120 C   0  0  0  0  0  0  0  0  0  0  0  0
   57.6220   28.2000   44.2060 C   0  0  0  0  0  0  0  0  0  0  0  0
   58.2420   29.3890   44.6740 C   0  0  0  0  0  0  0  0  0  0  0  0
   57.8390   30.6240   44.2160 N   0  0  0  0  0  0  0  0  0  0  0  0
   57.0080   30.7240   42.9930 C   0  0  0  0  0  0  0  0  0  0  0  0
   58.2350   31.7700   44.8700 C   0  0  0  0  0  0  0  0  0  0  0  0
   57.6110   33.0170   44.6070 C   0  0  0  0  0  0  0  0  0  0  0  0
   58.0600   34.1910   45.2000 C   0  0  0  0  0  0  0  0  0  0  0  0
   59.1300   34.1640   46.0890 C   0  0  0  0  0  0  0  0  0  0  0  0
   59.6500   35.4400   46.6870 C   0  0  0  0  0  0  0  0  0  0  0  0
   59.7440   32.9450   46.3890 C   0  0  0  0  0  0  0  0  0  0  0  0
   59.2830   31.7240   45.8310 C   0  0  0  0  0  0  0  0  0  0  0  0
   60.6898   33.8906   50.5669 H   0  0  0  0  0  0  0  0  0  0  0  0
   60.2935   34.8388   49.0936 H   0  0  0  0  0  0  0  0  0  0  0  0
   60.0934   33.0537   49.0936 H   0  0  0  0  0  0  0  0  0  0  0  0
   62.3786   34.5623   48.2961 H   0  0  0  0  0  0  0  0  0  0  0  0
   62.7902   33.7172   49.8677 H   0  0  0  0  0  0  0  0  0  0  0  0
   64.4429   32.6926   47.7447 H   0  0  0  0  0  0  0  0  0  0  0  0
   63.4669   31.7131   46.5854 H   0  0  0  0  0  0  0  0  0  0  0  0
   63.0671   34.7096   47.0327 H   0  0  0  0  0  0  0  0  0  0  0  0
   64.1137   34.0216   45.7450 H   0  0  0  0  0  0  0  0  0  0  0  0
   62.3496   33.6830   45.7450 H   0  0  0  0  0  0  0  0  0  0  0  0
   63.2096   30.5311   48.5760 H   0  0  0  0  0  0  0  0  0  0  0  0
   63.2235   31.6499   50.0073 H   0  0  0  0  0  0  0  0  0  0  0  0
   61.5922   29.8917   50.3943 H   0  0  0  0  0  0  0  0  0  0  0  0
   60.7430   31.4751   50.1045 H   0  0  0  0  0  0  0  0  0  0  0  0
   60.5738   28.9372   48.6234 H   0  0  0  0  0  0  0  0  0  0  0  0
   59.4737   30.3995   48.6527 H   0  0  0  0  0  0  0  0  0  0  0  0
   61.3910   31.3530   47.2100 H   0  0  0  0  0  0  0  0  0  0  0  0
   61.7320   29.8150   46.8640 H   0  0  0  0  0  0  0  0  0  0  0  0
   60.5522   27.8777   46.7268 H   0  0  0  0  0  0  0  0  0  0  0  0
   59.4818   25.8444   45.8016 H   0  0  0  0  0  0  0  0  0  0  0  0
   57.5715   26.0407   44.2272 H   0  0  0  0  0  0  0  0  0  0  0  0
   56.7756   28.2732   43.5073 H   0  0  0  0  0  0  0  0  0  0  0  0
   55.9527   30.8510   43.2761 H   0  0  0  0  0  0  0  0  0  0  0  0
   57.3346   31.5893   42.3975 H   0  0  0  0  0  0  0  0  0  0  0  0
   57.1200   29.8059   42.3975 H   0  0  0  0  0  0  0  0  0  0  0  0
   56.7535   33.0553   43.9190 H   0  0  0  0  0  0  0  0  0  0  0  0
   57.5671   35.1460   44.9654 H   0  0  0  0  0  0  0  0  0  0  0  0
   59.6211   35.3691   47.7843 H   0  0  0  0  0  0  0  0  0  0  0  0
   60.6866   35.6037   46.3573 H   0  0  0  0  0  0  0  0  0  0  0  0
   59.0231   36.2816   46.3573 H   0  0  0  0  0  0  0  0  0  0  0  0
   60.6048   32.9314   47.0737 H   0  0  0  0  0  0  0  0  0  0  0  0
  1  2  1  0
  2  3  1  0
  3  4  1  0
  4  5  1  0
  3  6  1  0
  6  7  1  0
  7  8  1  0
  8  9  1  0
  9 10  1  0
 10 11  2  0
 11 12  1  0
 12 13  2  0
 13 14  1  0
 14 15  2  0
 15 16  1  0
 16 17  2  0
 17 18  1  0
 17 19  1  0
 19 20  2  0
 20 21  1  0
 21 22  2  0
 22 23  1  0
 22 24  1  0
 24 25  2  0
 25 10  1  0
 16 11  1  0
 25 19  1  0
  1 26  1  0
  1 27  1  0
  1 28  1  0
  2 29  1  0
  2 30  1  0
  4 31  1  0
  4 32  1  0
  5 33  1  0
  5 34  1  0
  5 35  1  0
  6 36  1  0
  6 37  1  0
  7 38  1  0
  7 39  1  0
  8 40  1  0
  8 41  1  0
  9 42  1  0
  9 43  1  0
 12 44  1  0
 13 45  1  0
 14 46  1  0
 15 47  1  0
 18 48  1  0
 18 49  1  0
 18 50  1  0
 20 51  1  0
 21 52  1  0
 23 53  1  0
 23 54  1  0
 23 55  1  0
 24 56  1  0
M  CHG  2   9   1  17   1
M  END
>  <UniqueID>  (21) 
21

>  <SMILES>  (21) 
CCN(CC)CCC[NH2+]c1c2ccccc2[n+](C)c2ccc(C)cc12

>  <Energy>  (21) 
85.43819850410512

>  <Genealogy>  (21) 
CCN(CC)CCC[NH2+]c1c2ccccc2[n+](C)c2ccc(C)cc12 (protonated)
CCN(CC)CCC[NH2+]c1c2ccccc2[n+](C)c2ccc(C)cc12 (3D coordinates assigned)
CCN(CC)CCC[NH2+]c1c2ccccc2[n+](C)c2ccc(C)cc12 (optimized conformer: 85.43819850410512 kcal/mol)

>  <smiles>  (21) 
CCN(CC)CCCNc1c2ccccc2[n+](C)c2ccc(C)cc12

>  <score_type>  (21) 
oracle

>  <origin>  (21) 
adg

>  <m_score__min__energy>  (21) 
-4.3499999999999996

>  <m_primary>  (21) 
energy

$$$$
21:0
     RDKit          3D

 54 56  0  0  0  0  0  0  0  0999 V2000
   57.0020   21.2840   43.0560 C   0  0  0  0  0  0  0  0  0  0  0  0
   56.5390   22.7170   42.7860 C   0  0  0  0  0  0  0  0  0  0  0  0
   56.5980   23.5180   44.0320 N   0  0  0  0  0  0  0  0  0  0  0  0
   57.2650   22.7700   45.1240 C   0  0  0  0  0  0  0  0  0  0  0  0
   58.7240   23.2080   45.2550 C   0  0  0  0  0  0  0  0  0  0  0  0
   55.2480   23.9750   44.4440 C   0  0  0  0  0  0  0  0  0  0  0  0
   55.1900   24.1020   45.9620 C   0  0  0  0  0  0  0  0  0  0  0  0
   55.2060   25.4680   46.3200 O   0  0  0  0  0  0  0  0  0  0  0  0
   56.5220   25.8800   46.6430 C   0  0  0  0  0  0  0  0  0  0  0  0
   57.1360   26.6370   45.4690 C   0  0  0  0  0  0  0  0  0  0  0  0
   56.4100   27.8420   45.2450 O   0  0  0  0  0  0  0  0  0  0  0  0
   56.9710   29.1270   45.3010 C   0  0  0  0  0  0  0  0  0  0  0  0
   56.6910   30.1130   44.3440 C   0  0  0  0  0  0  0  0  0  0  0  0
   57.2700   31.3800   44.4370 C   0  0  0  0  0  0  0  0  0  0  0  0
   58.1520   31.7020   45.4960 C   0  0  0  0  0  0  0  0  0  0  0  0
   58.4350   30.6950   46.4590 C   0  0  0  0  0  0  0  0  0  0  0  0
   57.8400   29.4260   46.3520 C   0  0  0  0  0  0  0  0  0  0  0  0
   59.3100   30.9530   47.5220 C   0  0  0  0  0  0  0  0  0  0  0  0
   59.9160   32.2050   47.6640 C   0  0  0  0  0  0  0  0  0  0  0  0
   60.8500   32.4560   48.8180 C   0  0  0  0  0  0  0  0  0  0  0  0
   59.6480   33.2200   46.7280 C   0  0  0  0  0  0  0  0  0  0  0  0
   60.2390   34.4390   46.8740 N   0  0  0  0  0  0  0  0  0  0  0  0
   60.0230   35.4610   46.0100 C   0  0  0  0  0  0  0  0  0  0  0  0
   59.1700   35.2850   44.9270 C   0  0  0  0  0  0  0  0  0  0  0  0
   58.5420   34.0540   44.7370 C   0  0  0  0  0  0  0  0  0  0  0  0
   58.7650   32.9840   45.6360 C   0  0  0  0  0  0  0  0  0  0  0  0
   57.0567   21.1147   44.1415 H   0  0  0  0  0  0  0  0  0  0  0  0
   56.2865   20.5774   42.6103 H   0  0  0  0  0  0  0  0  0  0  0  0
   57.9957   21.1296   42.6103 H   0  0  0  0  0  0  0  0  0  0  0  0
   57.1937   23.1738   42.0292 H   0  0  0  0  0  0  0  0  0  0  0  0
   55.5012   22.6960   42.4219 H   0  0  0  0  0  0  0  0  0  0  0  0
   56.7409   22.9666   46.0710 H   0  0  0  0  0  0  0  0  0  0  0  0
   57.2342   21.6953   44.8915 H   0  0  0  0  0  0  0  0  0  0  0  0
   58.9888   23.2875   46.3197 H   0  0  0  0  0  0  0  0  0  0  0  0
   59.3747   22.4656   44.7698 H   0  0  0  0  0  0  0  0  0  0  0  0
   58.8582   24.1860   44.7698 H   0  0  0  0  0  0  0  0  0  0  0  0
   55.0377   24.9532   43.9869 H   0  0  0  0  0  0  0  0  0  0  0  0
   54.4979   23.2427   44.1106 H   0  0  0  0  0  0  0  0  0  0  0  0
   54.2657   23.6360   46.3341 H   0  0  0  0  0  0  0  0  0  0  0  0
   56.0597   23.5958   46.4063 H   0  0  0  0  0  0  0  0  0  0  0  0
   56.4917   26.5375   47.5243 H   0  0  0  0  0  0  0  0  0  0  0  0
   57.1347   24.9926   46.8599 H   0  0  0  0  0  0  0  0  0  0  0  0
   58.1846   26.8785   45.6973 H   0  0  0  0  0  0  0  0  0  0  0  0
   57.0906   26.0101   44.5663 H   0  0  0  0  0  0  0  0  0  0  0  0
   56.0084   29.8859   43.5118 H   0  0  0  0  0  0  0  0  0  0  0  0
   57.0372   32.1393   43.6759 H   0  0  0  0  0  0  0  0  0  0  0  0
   58.0622   28.6576   47.1071 H   0  0  0  0  0  0  0  0  0  0  0  0
   59.5231   30.1604   48.2544 H   0  0  0  0  0  0  0  0  0  0  0  0
   60.3098   32.3108   49.7652 H   0  0  0  0  0  0  0  0  0  0  0  0
   61.6944   31.7529   48.7660 H   0  0  0  0  0  0  0  0  0  0  0  0
   61.2282   33.4876   48.7660 H   0  0  0  0  0  0  0  0  0  0  0  0
   60.5224   36.4286   46.1659 H   0  0  0  0  0  0  0  0  0  0  0  0
   58.9911   36.1117   44.2237 H   0  0  0  0  0  0  0  0  0  0  0  0
   57.8668   33.9136   43.8800 H   0  0  0  0  0  0  0  0  0  0  0  0
  1  2  1  0
  2  3  1  0
  3  4  1  0
  4  5  1  0
  3  6  1  0
  6  7  1  0
  7  8  1  0
  8  9  1  0
  9 10  1  0
 10 11  1  0
 11 12  1  0
 12 13  2  0
 13 14  1  0
 14 15  2  0
 15 16  1  0
 16 17  2  0
 16 18  1  0
 18 19  2  0
 19 20  1  0
 19 21  1  0
 21 22  2  0
 22 23  1  0
 23 24  2  0
 24 25  1  0
 25 26  2  0
 17 12  1  0
 26 21  1  0
 26 15  1  0
  1 27  1  0
  1 28  1  0
  1 29  1  0
  2 30  1  0
  2 31  1  0
  4 32  1  0
  4 33  1  0
  5 34  1  0
  5 35  1  0
  5 36  1  0
  6 37  1  0
  6 38  1  0
  7 39  1  0
  7 40  1  0
  9 41  1  0
  9 42  1  0
 10 43  1  0
 10 44  1  0
 13 45  1  0
 14 46  1  0
 17 47  1  0
 18 48  1  0
 20 49  1  0
 20 50  1  0
 20 51  1  0
 23 52  1  0
 24 53  1  0
 25 54  1  0
M  END
>  <UniqueID>  (22) 
22

>  <SMILES>  (22) 
CCN(CC)CCOCCOc1ccc2c(c1)cc(C)c1ncccc12

>  <Energy>  (22) 
63.85147762077582

>  <Genealogy>  (22) 
CCN(CC)CCOCCOc1ccc2c(c1)cc(C)c1ncccc12 (3D coordinates assigned)
CCN(CC)CCOCCOc1ccc2c(c1)cc(C)c1ncccc12 (optimized conformer: 63.85147762077582 kcal/mol)

>  <smiles>  (22) 
CCN(CC)CCOCCOc1ccc2c(c1)cc(C)c1ncccc12

>  <score_type>  (22) 
oracle

>  <origin>  (22) 
adg

>  <m_score__min__energy>  (22) 
-7.2199999999999998

>  <m_primary>  (22) 
energy

$$$$
22:0
     RDKit          3D

 37 39  0  0  0  0  0  0  0  0999 V2000
   58.8030   33.5090   47.0330 C   0  0  0  0  0  0  0  0  0  0  0  0
   58.3140   32.9580   45.7350 C   0  0  0  0  0  0  0  0  0  0  0  0
   57.4050   31.8920   45.6140 C   0  0  0  0  0  0  0  0  0  0  0  0
   57.2090   31.6010   44.2720 C   0  0  0  0  0  0  0  0  0  0  0  0
   56.4620   30.7560   43.4770 C   0  0  0  0  0  0  0  0  0  0  0  0
   55.4610   29.7380   43.9250 C   0  0  0  0  0  0  0  0  0  0  0  0
   55.8200   29.2250   45.2420 N   0  0  0  0  0  0  0  0  0  0  0  0
   56.6680   28.0910   45.4460 C   0  0  0  0  0  0  0  0  0  0  0  0
   56.2120   27.0360   45.9630 O   0  0  0  0  0  0  0  0  0  0  0  0
   58.1140   28.1720   45.0700 C   0  0  0  0  0  0  0  0  0  0  0  0
   58.9680   28.3330   46.3030 C   0  0  0  0  0  0  0  0  0  0  0  0
   59.3590   29.6220   46.7070 C   0  0  0  0  0  0  0  0  0  0  0  0
   60.1230   29.8030   47.8630 C   0  0  0  0  0  0  0  0  0  0  0  0
   60.4990   28.7000   48.6330 C   0  0  0  0  0  0  0  0  0  0  0  0
   61.2370   28.8770   49.7560 F   0  0  0  0  0  0  0  0  0  0  0  0
   60.1070   27.4140   48.2500 C   0  0  0  0  0  0  0  0  0  0  0  0
   59.3400   27.2220   47.0930 C   0  0  0  0  0  0  0  0  0  0  0  0
   58.8630   25.5780   46.6750 Cl  0  0  0  0  0  0  0  0  0  0  0  0
   56.7300   31.0520   42.1730 N   0  0  0  0  0  0  0  0  0  0  0  0
   57.6360   32.0300   42.1510 N   0  0  0  0  0  0  0  0  0  0  0  0
   58.1270   32.6850   40.9470 C   0  0  0  0  0  0  0  0  0  0  0  0
   57.9060   32.3540   43.4220 C   0  0  0  0  0  0  0  0  0  0  0  0
   58.8590   33.4920   44.1950 S   0  0  0  0  0  0  0  0  0  0  0  0
   58.3244   32.9698   47.8638 H   0  0  0  0  0  0  0  0  0  0  0  0
   59.8942   33.3855   47.0959 H   0  0  0  0  0  0  0  0  0  0  0  0
   58.5507   34.5778   47.0959 H   0  0  0  0  0  0  0  0  0  0  0  0
   56.9237   31.3696   46.4539 H   0  0  0  0  0  0  0  0  0  0  0  0
   54.4660   30.2044   43.9755 H   0  0  0  0  0  0  0  0  0  0  0  0
   55.4492   28.9054   43.2062 H   0  0  0  0  0  0  0  0  0  0  0  0
   58.4046   27.2499   44.5453 H   0  0  0  0  0  0  0  0  0  0  0  0
   58.2648   29.0424   44.4145 H   0  0  0  0  0  0  0  0  0  0  0  0
   59.0609   30.4951   46.1080 H   0  0  0  0  0  0  0  0  0  0  0  0
   60.4286   30.8151   48.1668 H   0  0  0  0  0  0  0  0  0  0  0  0
   60.4023   26.5478   48.8603 H   0  0  0  0  0  0  0  0  0  0  0  0
   58.7651   33.5362   41.2269 H   0  0  0  0  0  0  0  0  0  0  0  0
   58.7121   31.9681   40.3522 H   0  0  0  0  0  0  0  0  0  0  0  0
   57.2748   33.0455   40.3522 H   0  0  0  0  0  0  0  0  0  0  0  0
  1  2  1  0
  2  3  2  0
  3  4  1  0
  4  5  1  0
  5  6  1  0
  6  7  1  0
  7  8  1  0
  8  9  2  0
  8 10  1  0
 10 11  1  0
 11 12  2  0
 12 13  1  0
 13 14  2  0
 14 15  1  0
 14 16  1  0
 16 17  2  0
 17 18  1  0
  5 19  2  0
 19 20  1  0
 20 21  1  0
 20 22  1  0
 22 23  1  0
 23  2  1  0
 22  4  2  0
 17 11  1  0
  1 24  1  0
  1 25  1  0
  1 26  1  0
  3 27  1  0
  6 28  1  0
  6 29  1  0
 10 30  1  0
 10 31  1  0
 12 32  1  0
 13 33  1  0
 16 34  1  0
 21 35  1  0
 21 36  1  0
 21 37  1  0
M  CHG  1   7  -1
M  END
>  <UniqueID>  (23) 
23

>  <SMILES>  (23) 
Cc1cc2c(C[N-]C(=O)Cc3ccc(F)cc3Cl)nn(C)c2s1

>  <Energy>  (23) 
114.5660236197426

>  <Genealogy>  (23) 
Cc1cc2c(C[N-]C(=O)Cc3ccc(F)cc3Cl)nn(C)c2s1 (protonated)
Cc1cc2c(C[N-]C(=O)Cc3ccc(F)cc3Cl)nn(C)c2s1 (3D coordinates assigned)
Cc1cc2c(C[N-]C(=O)Cc3ccc(F)cc3Cl)nn(C)c2s1 (optimized conformer: 114.5660236197426 kcal/mol)

>  <smiles>  (23) 
Cc1cc2c(CNC(=O)Cc3ccc(F)cc3Cl)nn(C)c2s1

>  <score_type>  (23) 
oracle

>  <origin>  (23) 
adg

>  <m_score__min__energy>  (23) 
-10.43

>  <m_primary>  (23) 
energy

$$$$
23:0
     RDKit          3D

 64 67  0  0  0  0  0  0  0  0999 V2000
   65.3050   32.4310   50.0430 C   0  0  0  0  0  0  0  0  0  0  0  0
   63.8460   32.0360   49.7960 C   0  0  0  0  0  0  0  0  0  0  0  0
   62.9660   33.1760   49.4630 N   0  0  0  0  0  0  0  0  0  0  0  0
   63.2180   33.8050   48.1400 C   0  0  0  0  0  0  0  0  0  0  0  0
   63.4060   32.8160   46.9780 C   0  0  0  0  0  0  0  0  0  0  0  0
   62.6940   34.0850   50.5990 C   0  0  0  0  0  0  0  0  0  0  0  0
   62.1710   33.2980   51.8150 C   0  0  0  0  0  0  0  0  0  0  0  0
   61.3760   32.1990   51.4030 O   0  0  0  0  0  0  0  0  0  0  0  0
   60.0000   32.5100   51.4960 C   0  0  0  0  0  0  0  0  0  0  0  0
   59.3790   32.5000   50.0940 C   0  0  0  0  0  0  0  0  0  0  0  0
   60.4210   32.5580   49.0520 N   0  0  0  0  0  0  0  0  0  0  0  0
   59.8660   32.2570   47.7420 C   0  0  0  0  0  0  0  0  0  0  0  0
   59.5560   30.9200   47.3740 C   0  0  0  0  0  0  0  0  0  0  0  0
   58.8610   30.6680   46.1630 C   0  0  0  0  0  0  0  0  0  0  0  0
   58.3850   31.7330   45.4200 N   0  0  0  0  0  0  0  0  0  0  0  0
   57.2560   31.5560   44.4810 C   0  0  0  0  0  0  0  0  0  0  0  0
   58.9120   32.9910   45.6110 C   0  0  0  0  0  0  0  0  0  0  0  0
   58.7410   34.0130   44.6430 C   0  0  0  0  0  0  0  0  0  0  0  0
   59.2230   35.3030   44.8640 C   0  0  0  0  0  0  0  0  0  0  0  0
   59.9030   35.6000   46.0380 C   0  0  0  0  0  0  0  0  0  0  0  0
   60.1240   34.6060   46.9900 C   0  0  0  0  0  0  0  0  0  0  0  0
   59.6450   33.2870   46.7910 C   0  0  0  0  0  0  0  0  0  0  0  0
   58.7120   29.2320   45.7140 C   0  0  0  0  0  0  0  0  0  0  0  0
   58.0140   28.9030   44.5900 N   0  0  0  0  0  0  0  0  0  0  0  0
   57.8870   27.6260   44.1460 C   0  0  0  0  0  0  0  0  0  0  0  0
   58.5040   26.5860   44.8350 C   0  0  0  0  0  0  0  0  0  0  0  0
   59.2590   26.8770   45.9670 C   0  0  0  0  0  0  0  0  0  0  0  0
   59.3700   28.2000   46.4180 C   0  0  0  0  0  0  0  0  0  0  0  0
   60.3000   28.5230   47.5470 C   0  0  0  0  0  0  0  0  0  0  0  0
   59.8280   29.7530   48.3080 C   0  0  0  0  0  0  0  0  0  0  0  0
   65.4928   32.4819   51.1256 H   0  0  0  0  0  0  0  0  0  0  0  0
   65.9697   31.6805   49.5904 H   0  0  0  0  0  0  0  0  0  0  0  0
   65.5003   33.4144   49.5904 H   0  0  0  0  0  0  0  0  0  0  0  0
   63.8173   31.3206   48.9609 H   0  0  0  0  0  0  0  0  0  0  0  0
   63.4684   31.6041   50.7346 H   0  0  0  0  0  0  0  0  0  0  0  0
   62.3622   34.4536   47.9015 H   0  0  0  0  0  0  0  0  0  0  0  0
   64.1669   34.3532   48.2349 H   0  0  0  0  0  0  0  0  0  0  0  0
   63.5972   31.8101   47.3800 H   0  0  0  0  0  0  0  0  0  0  0  0
   62.4953   32.7974   46.3613 H   0  0  0  0  0  0  0  0  0  0  0  0
   64.2600   33.1329   46.3613 H   0  0  0  0  0  0  0  0  0  0  0  0
   63.6237   34.6030   50.8772 H   0  0  0  0  0  0  0  0  0  0  0  0
   61.9276   34.8124   50.2932 H   0  0  0  0  0  0  0  0  0  0  0  0
   63.0263   32.9253   52.3976 H   0  0  0  0  0  0  0  0  0  0  0  0
   61.5516   33.9693   52.4279 H   0  0  0  0  0  0  0  0  0  0  0  0
   59.4965   31.7616   52.1256 H   0  0  0  0  0  0  0  0  0  0  0  0
   59.8784   33.5071   51.9443 H   0  0  0  0  0  0  0  0  0  0  0  0
   58.7943   31.5770   49.9665 H   0  0  0  0  0  0  0  0  0  0  0  0
   58.7326   33.3841   49.9916 H   0  0  0  0  0  0  0  0  0  0  0  0
   61.1990   31.8990   49.2790 H   0  0  0  0  0  0  0  0  0  0  0  0
   60.8840   33.4960   49.0490 H   0  0  0  0  0  0  0  0  0  0  0  0
   56.3257   31.4101   45.0495 H   0  0  0  0  0  0  0  0  0  0  0  0
   57.1622   32.4504   43.8476 H   0  0  0  0  0  0  0  0  0  0  0  0
   57.4405   30.6758   43.8476 H   0  0  0  0  0  0  0  0  0  0  0  0
   58.2194   33.7845   43.7019 H   0  0  0  0  0  0  0  0  0  0  0  0
   59.0644   36.0859   44.1078 H   0  0  0  0  0  0  0  0  0  0  0  0
   60.2681   36.6221   46.2170 H   0  0  0  0  0  0  0  0  0  0  0  0
   60.6780   34.8488   47.9088 H   0  0  0  0  0  0  0  0  0  0  0  0
   57.2968   27.4137   43.2423 H   0  0  0  0  0  0  0  0  0  0  0  0
   58.3962   25.5474   44.4891 H   0  0  0  0  0  0  0  0  0  0  0  0
   59.7698   26.0676   46.5091 H   0  0  0  0  0  0  0  0  0  0  0  0
   60.3396   27.6668   48.2365 H   0  0  0  0  0  0  0  0  0  0  0  0
   61.2972   28.7297   47.1311 H   0  0  0  0  0  0  0  0  0  0  0  0
   58.9023   29.5050   48.8479 H   0  0  0  0  0  0  0  0  0  0  0  0
   60.6235   30.0507   49.0069 H   0  0  0  0  0  0  0  0  0  0  0  0
  1  2  1  0
  2  3  1  0
  3  4  1  0
  4  5  1  0
  3  6  1  0
  6  7  1  0
  7  8  1  0
  8  9  1  0
  9 10  1  0
 10 11  1  0
 11 12  1  0
 12 13  2  0
 13 14  1  0
 14 15  2  0
 15 16  1  0
 15 17  1  0
 17 18  2  0
 18 19  1  0
 19 20  2  0
 20 21  1  0
 21 22  2  0
 14 23  1  0
 23 24  2  0
 24 25  1  0
 25 26  2  0
 26 27  1  0
 27 28  2  0
 28 29  1  0
 29 30  1  0
 22 12  1  0
 28 23  1  0
 30 13  1  0
 22 17  1  0
  1 31  1  0
  1 32  1  0
  1 33  1  0
  2 34  1  0
  2 35  1  0
  4 36  1  0
  4 37  1  0
  5 38  1  0
  5 39  1  0
  5 40  1  0
  6 41  1  0
  6 42  1  0
  7 43  1  0
  7 44  1  0
  9 45  1  0
  9 46  1  0
 10 47  1  0
 10 48  1  0
 11 49  1  0
 11 50  1  0
 16 51  1  0
 16 52  1  0
 16 53  1  0
 18 54  1  0
 19 55  1  0
 20 56  1  0
 21 57  1  0
 25 58  1  0
 26 59  1  0
 27 60  1  0
 29 61  1  0
 29 62  1  0
 30 63  1  0
 30 64  1  0
M  CHG  2  11   1  15   1
M  END
>  <UniqueID>  (24) 
24

>  <SMILES>  (24) 
CCN(CC)CCOCC[NH2+]c1c2c([n+](C)c3ccccc13)-c1ncccc1CC2

>  <Energy>  (24) 
104.18106272071492

>  <Genealogy>  (24) 
CCN(CC)CCOCC[NH2+]c1c2c([n+](C)c3ccccc13)-c1ncccc1CC2 (protonated)
CCN(CC)CCOCC[NH2+]c1c2c([n+](C)c3ccccc13)-c1ncccc1CC2 (3D coordinates assigned)
CCN(CC)CCOCC[NH2+]c1c2c([n+](C)c3ccccc13)-c1ncccc1CC2 (nonaromatic ring conformer: 104.18106272071492 kcal/mol)

>  <smiles>  (24) 
CCN(CC)CCOCCNc1c2c([n+](C)c3ccccc13)-c1ncccc1CC2

>  <score_type>  (24) 
oracle

>  <origin>  (24) 
adg

>  <m_score__min__energy>  (24) 
-4.9100000000000001

>  <m_primary>  (24) 
energy

$$$$
24:0
     RDKit          3D

 63 64  0  0  0  0  0  0  0  0999 V2000
   60.7280   29.5980   48.2180 C   0  0  0  0  0  0  0  0  0  0  0  0
   59.9370   30.6570   49.0000 C   0  0  0  0  0  0  0  0  0  0  0  0
   60.6500   31.2040   50.1810 N   0  0  0  0  0  0  0  0  0  0  0  0
   59.8260   32.1050   51.0190 C   0  0  0  0  0  0  0  0  0  0  0  0
   58.3410   31.9990   50.6750 C   0  0  0  0  0  0  0  0  0  0  0  0
   61.2960   30.1440   50.9890 C   0  0  0  0  0  0  0  0  0  0  0  0
   62.7600   30.4950   51.2530 C   0  0  0  0  0  0  0  0  0  0  0  0
   63.3320   31.0240   50.0720 O   0  0  0  0  0  0  0  0  0  0  0  0
   64.5930   31.6090   50.3420 C   0  0  0  0  0  0  0  0  0  0  0  0
   64.6910   33.0040   49.7040 C   0  0  0  0  0  0  0  0  0  0  0  0
   63.9620   33.0750   48.3430 C   0  0  0  0  0  0  0  0  0  0  0  0
   62.4860   32.9630   48.4760 N   0  0  0  0  0  0  0  0  0  0  0  0
   61.8300   32.7100   47.1620 C   0  0  0  0  0  0  0  0  0  0  0  0
   61.2760   33.9950   46.5170 C   0  0  0  0  0  0  0  0  0  0  0  0
   60.2860   34.7010   47.3810 N   0  0  0  0  0  0  0  0  0  0  0  0
   58.8860   34.5260   46.8850 C   0  0  0  0  0  0  0  0  0  0  0  0
   58.2810   33.1930   47.4370 C   0  0  0  0  0  0  0  0  0  0  0  0
   58.1530   32.0940   46.3750 C   0  0  0  0  0  0  0  0  0  0  0  0
   57.2600   32.5410   45.2060 C   0  0  0  0  0  0  0  0  0  0  0  0
   57.4280   34.0290   44.8490 C   0  0  0  0  0  0  0  0  0  0  0  0
   58.7710   34.5880   45.3320 C   0  0  0  0  0  0  0  0  0  0  0  0
   60.4630   34.3770   48.8200 C   0  0  0  0  0  0  0  0  0  0  0  0
   61.9440   34.1650   49.1580 C   0  0  0  0  0  0  0  0  0  0  0  0
   61.2329   28.9221   48.9239 H   0  0  0  0  0  0  0  0  0  0  0  0
   60.0393   29.0192   47.5850 H   0  0  0  0  0  0  0  0  0  0  0  0
   61.4784   30.0942   47.5850 H   0  0  0  0  0  0  0  0  0  0  0  0
   59.7099   31.4901   48.3185 H   0  0  0  0  0  0  0  0  0  0  0  0
   59.0340   30.1576   49.3810 H   0  0  0  0  0  0  0  0  0  0  0  0
   59.9667   31.8357   52.0762 H   0  0  0  0  0  0  0  0  0  0  0  0
   60.1483   33.1393   50.8283 H   0  0  0  0  0  0  0  0  0  0  0  0
   57.7518   31.9569   51.6029 H   0  0  0  0  0  0  0  0  0  0  0  0
   58.0371   32.8777   50.0872 H   0  0  0  0  0  0  0  0  0  0  0  0
   58.1650   31.0860   50.0872 H   0  0  0  0  0  0  0  0  0  0  0  0
   60.7675   30.0468   51.9488 H   0  0  0  0  0  0  0  0  0  0  0  0
   61.2503   29.1946   50.4353 H   0  0  0  0  0  0  0  0  0  0  0  0
   62.8197   31.2427   52.0576 H   0  0  0  0  0  0  0  0  0  0  0  0
   63.3080   29.5906   51.5559 H   0  0  0  0  0  0  0  0  0  0  0  0
   64.7238   31.6995   51.4304 H   0  0  0  0  0  0  0  0  0  0  0  0
   65.3792   30.9685   49.9158 H   0  0  0  0  0  0  0  0  0  0  0  0
   64.2392   33.7386   50.3868 H   0  0  0  0  0  0  0  0  0  0  0  0
   65.7550   33.2220   49.5294 H   0  0  0  0  0  0  0  0  0  0  0  0
   64.2003   34.0371   47.8660 H   0  0  0  0  0  0  0  0  0  0  0  0
   64.3064   32.2240   47.7370 H   0  0  0  0  0  0  0  0  0  0  0  0
   62.2690   32.1450   49.0950 H   0  0  0  0  0  0  0  0  0  0  0  0
   62.5688   32.2641   46.4798 H   0  0  0  0  0  0  0  0  0  0  0  0
   60.9804   32.0342   47.3393 H   0  0  0  0  0  0  0  0  0  0  0  0
   62.1157   34.6768   46.3169 H   0  0  0  0  0  0  0  0  0  0  0  0
   60.7560   33.7015   45.5931 H   0  0  0  0  0  0  0  0  0  0  0  0
   58.3036   35.3774   47.2671 H   0  0  0  0  0  0  0  0  0  0  0  0
   58.9308   32.8235   48.2440 H   0  0  0  0  0  0  0  0  0  0  0  0
   57.2648   33.4209   47.7913 H   0  0  0  0  0  0  0  0  0  0  0  0
   59.1540   31.8526   45.9881 H   0  0  0  0  0  0  0  0  0  0  0  0
   57.6914   31.2127   46.8444 H   0  0  0  0  0  0  0  0  0  0  0  0
   57.5143   31.9384   44.3216 H   0  0  0  0  0  0  0  0  0  0  0  0
   56.2154   32.3958   45.5186 H   0  0  0  0  0  0  0  0  0  0  0  0
   57.3693   34.1407   43.7563 H   0  0  0  0  0  0  0  0  0  0  0  0
   56.6263   34.5910   45.3504 H   0  0  0  0  0  0  0  0  0  0  0  0
   59.5854   33.9962   44.8887 H   0  0  0  0  0  0  0  0  0  0  0  0
   58.8403   35.6409   45.0210 H   0  0  0  0  0  0  0  0  0  0  0  0
   60.0709   35.2068   49.4264 H   0  0  0  0  0  0  0  0  0  0  0  0
   59.9171   33.4476   49.0395 H   0  0  0  0  0  0  0  0  0  0  0  0
   62.5151   35.0481   48.8355 H   0  0  0  0  0  0  0  0  0  0  0  0
   62.0347   34.0184   50.2444 H   0  0  0  0  0  0  0  0  0  0  0  0
  1  2  1  0
  2  3  1  0
  3  4  1  0
  4  5  1  0
  3  6  1  0
  6  7  1  0
  7  8  1  0
  8  9  1  0
  9 10  1  0
 10 11  1  0
 11 12  1  0
 12 13  1  0
 13 14  1  0
 14 15  1  0
 15 16  1  0
 16 17  1  0
 17 18  1  0
 18 19  1  0
 19 20  1  0
 20 21  1  0
 15 22  1  0
 22 23  1  0
 23 12  1  0
 21 16  1  0
  1 24  1  0
  1 25  1  0
  1 26  1  0
  2 27  1  0
  2 28  1  0
  4 29  1  0
  4 30  1  0
  5 31  1  0
  5 32  1  0
  5 33  1  0
  6 34  1  0
  6 35  1  0
  7 36  1  0
  7 37  1  0
  9 38  1  0
  9 39  1  0
 10 40  1  0
 10 41  1  0
 11 42  1  0
 11 43  1  0
 12 44  1  0
 13 45  1  0
 13 46  1  0
 14 47  1  0
 14 48  1  0
 16 49  1  0
 17 50  1  0
 17 51  1  0
 18 52  1  0
 18 53  1  0
 19 54  1  0
 19 55  1  0
 20 56  1  0
 20 57  1  0
 21 58  1  0
 21 59  1  0
 22 60  1  0
 22 61  1  0
 23 62  1  0
 23 63  1  0
M  CHG  1  12   1
M  END
>  <UniqueID>  (25) 
25

>  <SMILES>  (25) 
CCN(CC)CCOCCC[NH+]1CCN(C2CCCCC2)CC1

>  <Energy>  (25) 
83.22476348418019

>  <Genealogy>  (25) 
CCN(CC)CCOCCC[NH+]1CCN(C2CCCCC2)CC1 (protonated)
CCN(CC)CCOCCC[NH+]1CCN(C2CCCCC2)CC1 (3D coordinates assigned)
CCN(CC)CCOCCC[NH+]1CCN(C2CCCCC2)CC1 (nonaromatic ring conformer: 83.22476348418019 kcal/mol)

>  <smiles>  (25) 
CCN(CC)CCOCCCN1CCN(C2CCCCC2)CC1

>  <score_type>  (25) 
oracle

>  <origin>  (25) 
adg

>  <m_score__min__energy>  (25) 
-5.79

>  <m_primary>  (25) 
energy

$$$$
25:0
     RDKit          3D

 65 68  0  0  0  0  0  0  0  0999 V2000
   59.9560   34.8900   46.2920 C   0  0  0  0  0  0  0  0  0  0  0  0
   59.0070   34.3860   47.3840 C   0  0  0  0  0  0  0  0  0  0  0  0
   57.8560   33.6410   46.8150 N   0  0  0  0  0  0  0  0  0  0  0  0
   57.5050   34.1670   45.4800 C   0  0  0  0  0  0  0  0  0  0  0  0
   58.1760   32.1950   46.7290 C   0  0  0  0  0  0  0  0  0  0  0  0
   57.9170   31.6600   45.3130 C   0  0  0  0  0  0  0  0  0  0  0  0
   57.0600   30.5320   45.3760 O   0  0  0  0  0  0  0  0  0  0  0  0
   57.6560   29.4150   44.7450 C   0  0  0  0  0  0  0  0  0  0  0  0
   58.7840   28.8920   45.6270 C   0  0  0  0  0  0  0  0  0  0  0  0
   58.2370   28.1700   46.7150 O   0  0  0  0  0  0  0  0  0  0  0  0
   59.2350   27.4700   47.4360 C   0  0  0  0  0  0  0  0  0  0  0  0
   59.5970   28.2050   48.7340 C   0  0  0  0  0  0  0  0  0  0  0  0
   58.6910   29.3290   48.9760 N   0  0  0  0  0  0  0  0  0  0  0  0
   59.1720   30.5270   49.6000 C   0  0  0  0  0  0  0  0  0  0  0  0
   60.2840   31.1900   49.0900 C   0  0  0  0  0  0  0  0  0  0  0  0
   60.7720   32.3300   49.7040 C   0  0  0  0  0  0  0  0  0  0  0  0
   60.2520   32.7960   50.8880 N   0  0  0  0  0  0  0  0  0  0  0  0
   60.9850   33.8060   51.6690 C   0  0  0  0  0  0  0  0  0  0  0  0
   59.0680   32.2440   51.3530 C   0  0  0  0  0  0  0  0  0  0  0  0
   58.3520   32.8180   52.4310 C   0  0  0  0  0  0  0  0  0  0  0  0
   57.1860   32.2230   52.9160 C   0  0  0  0  0  0  0  0  0  0  0  0
   56.6970   31.0580   52.3330 C   0  0  0  0  0  0  0  0  0  0  0  0
   57.3560   30.4880   51.2460 C   0  0  0  0  0  0  0  0  0  0  0  0
   58.5290   31.0720   50.7310 C   0  0  0  0  0  0  0  0  0  0  0  0
   61.9240   32.7990   48.9230 C   0  0  0  0  0  0  0  0  0  0  0  0
   62.6480   34.0000   48.9590 C   0  0  0  0  0  0  0  0  0  0  0  0
   63.6730   34.2000   48.0210 C   0  0  0  0  0  0  0  0  0  0  0  0
   63.9370   33.2320   47.0380 C   0  0  0  0  0  0  0  0  0  0  0  0
   63.1580   32.0670   46.9680 C   0  0  0  0  0  0  0  0  0  0  0  0
   62.1490   31.8760   47.9140 C   0  0  0  0  0  0  0  0  0  0  0  0
   61.1350   30.7790   47.9250 C   0  0  0  0  0  0  0  0  0  0  0  0
   60.8360   35.3573   46.7580 H   0  0  0  0  0  0  0  0  0  0  0  0
   60.2780   34.0440   45.6669 H   0  0  0  0  0  0  0  0  0  0  0  0
   59.4354   35.6305   45.6669 H   0  0  0  0  0  0  0  0  0  0  0  0
   59.5636   33.7194   48.0592 H   0  0  0  0  0  0  0  0  0  0  0  0
   58.6144   35.2596   47.9249 H   0  0  0  0  0  0  0  0  0  0  0  0
   56.8976   35.0772   45.5926 H   0  0  0  0  0  0  0  0  0  0  0  0
   58.4251   34.4063   44.9266 H   0  0  0  0  0  0  0  0  0  0  0  0
   56.9309   33.4092   44.9266 H   0  0  0  0  0  0  0  0  0  0  0  0
   59.2358   32.0449   46.9825 H   0  0  0  0  0  0  0  0  0  0  0  0
   57.5315   31.6497   47.4342 H   0  0  0  0  0  0  0  0  0  0  0  0
   57.4427   32.4457   44.7066 H   0  0  0  0  0  0  0  0  0  0  0  0
   58.8728   31.3654   44.8551 H   0  0  0  0  0  0  0  0  0  0  0  0
   56.9028   28.6261   44.6027 H   0  0  0  0  0  0  0  0  0  0  0  0
   58.0570   29.7114   43.7645 H   0  0  0  0  0  0  0  0  0  0  0  0
   59.4336   28.2290   45.0367 H   0  0  0  0  0  0  0  0  0  0  0  0
   59.3735   29.7387   46.0085 H   0  0  0  0  0  0  0  0  0  0  0  0
   58.8611   26.4657   47.6841 H   0  0  0  0  0  0  0  0  0  0  0  0
   60.1366   27.4030   46.8093 H   0  0  0  0  0  0  0  0  0  0  0  0
   59.5282   27.5008   49.5763 H   0  0  0  0  0  0  0  0  0  0  0  0
   60.6205   28.5967   48.6387 H   0  0  0  0  0  0  0  0  0  0  0  0
   57.7700   29.3720   48.4850 H   0  0  0  0  0  0  0  0  0  0  0  0
   60.8444   33.6123   52.7426 H   0  0  0  0  0  0  0  0  0  0  0  0
   62.0560   33.7527   51.4240 H   0  0  0  0  0  0  0  0  0  0  0  0
   60.6023   34.8077   51.4240 H   0  0  0  0  0  0  0  0  0  0  0  0
   58.7197   33.7461   52.8930 H   0  0  0  0  0  0  0  0  0  0  0  0
   56.6512   32.6773   53.7631 H   0  0  0  0  0  0  0  0  0  0  0  0
   55.7871   30.5856   52.7317 H   0  0  0  0  0  0  0  0  0  0  0  0
   56.9559   29.5726   50.7855 H   0  0  0  0  0  0  0  0  0  0  0  0
   62.4167   34.7710   49.7087 H   0  0  0  0  0  0  0  0  0  0  0  0
   64.2735   35.1210   48.0560 H   0  0  0  0  0  0  0  0  0  0  0  0
   64.7567   33.3876   46.3211 H   0  0  0  0  0  0  0  0  0  0  0  0
   63.3388   31.3183   46.1826 H   0  0  0  0  0  0  0  0  0  0  0  0
   60.5559   30.7544   46.9901 H   0  0  0  0  0  0  0  0  0  0  0  0
   61.5605   29.7680   48.0077 H   0  0  0  0  0  0  0  0  0  0  0  0
  1  2  1  0
  2  3  1  0
  3  4  1  0
  3  5  1  0
  5  6  1  0
  6  7  1  0
  7  8  1  0
  8  9  1  0
  9 10  1  0
 10 11  1  0
 11 12  1  0
 12 13  1  0
 13 14  1  0
 14 15  2  0
 15 16  1  0
 16 17  2  0
 17 18  1  0
 17 19  1  0
 19 20  2  0
 20 21  1  0
 21 22  2  0
 22 23  1  0
 23 24  2  0
 16 25  1  0
 25 26  2  0
 26 27  1  0
 27 28  2  0
 28 29  1  0
 29 30  2  0
 30 31  1  0
 24 14  1  0
 30 25  1  0
 31 15  1  0
 24 19  1  0
  1 32  1  0
  1 33  1  0
  1 34  1  0
  2 35  1  0
  2 36  1  0
  4 37  1  0
  4 38  1  0
  4 39  1  0
  5 40  1  0
  5 41  1  0
  6 42  1  0
  6 43  1  0
  8 44  1  0
  8 45  1  0
  9 46  1  0
  9 47  1  0
 11 48  1  0
 11 49  1  0
 12 50  1  0
 12 51  1  0
 13 52  1  0
 18 53  1  0
 18 54  1  0
 18 55  1  0
 20 56  1  0
 21 57  1  0
 22 58  1  0
 23 59  1  0
 26 60  1  0
 27 61  1  0
 28 62  1  0
 29 63  1  0
 31 64  1  0
 31 65  1  0
M  CHG  1  17   1
M  END
>  <UniqueID>  (26) 
26

>  <SMILES>  (26) 
CCN(C)CCOCCOCCNc1c2c([n+](C)c3ccccc13)-c1ccccc1C2

>  <Energy>  (26) 
112.0352345690735

>  <Genealogy>  (26) 
CCN(C)CCOCCOCCNc1c2c([n+](C)c3ccccc13)-c1ccccc1C2 (3D coordinates assigned)
CCN(C)CCOCCOCCNc1c2c([n+](C)c3ccccc13)-c1ccccc1C2 (nonaromatic ring conformer: 112.0352345690735 kcal/mol)

>  <smiles>  (26) 
CCN(C)CCOCCOCCNc1c2c([n+](C)c3ccccc13)-c1ccccc1C2

>  <score_type>  (26) 
oracle

>  <origin>  (26) 
adg

>  <m_score__min__energy>  (26) 
-6.5899999999999999

>  <m_primary>  (26) 
energy

$$$$
26:0
     RDKit          3D

 53 55  0  0  0  0  0  0  0  0999 V2000
   64.8620   32.3380   49.7460 C   0  0  0  0  0  0  0  0  0  0  0  0
   63.4780   31.6900   49.7190 C   0  0  0  0  0  0  0  0  0  0  0  0
   62.6020   32.3980   48.7480 N   0  0  0  0  0  0  0  0  0  0  0  0
   63.0860   32.2250   47.3600 C   0  0  0  0  0  0  0  0  0  0  0  0
   63.3580   33.5910   46.7120 C   0  0  0  0  0  0  0  0  0  0  0  0
   62.4750   33.8380   49.0870 C   0  0  0  0  0  0  0  0  0  0  0  0
   61.0080   34.2170   49.3010 C   0  0  0  0  0  0  0  0  0  0  0  0
   60.3230   33.1790   50.0800 N   0  0  0  0  0  0  0  0  0  0  0  0
   59.0830   32.7420   49.4250 C   0  0  0  0  0  0  0  0  0  0  0  0
   59.3030   31.3910   48.7810 C   0  0  0  0  0  0  0  0  0  0  0  0
   59.6010   30.2880   49.6000 C   0  0  0  0  0  0  0  0  0  0  0  0
   59.8610   29.0340   49.0480 C   0  0  0  0  0  0  0  0  0  0  0  0
   59.8310   28.8530   47.6590 C   0  0  0  0  0  0  0  0  0  0  0  0
   60.0910   27.5870   47.1110 C   0  0  0  0  0  0  0  0  0  0  0  0
   60.0530   27.3960   45.7270 C   0  0  0  0  0  0  0  0  0  0  0  0
   59.7620   28.4670   44.8800 C   0  0  0  0  0  0  0  0  0  0  0  0
   59.5080   29.7380   45.4090 C   0  0  0  0  0  0  0  0  0  0  0  0
   59.5360   29.9520   46.8050 C   0  0  0  0  0  0  0  0  0  0  0  0
   59.2770   31.2280   47.3700 C   0  0  0  0  0  0  0  0  0  0  0  0
   58.9740   32.3900   46.5040 C   0  0  0  0  0  0  0  0  0  0  0  0
   57.7050   32.5170   45.9240 C   0  0  0  0  0  0  0  0  0  0  0  0
   57.4060   33.6340   45.1330 C   0  0  0  0  0  0  0  0  0  0  0  0
   58.3740   34.6230   44.9230 C   0  0  0  0  0  0  0  0  0  0  0  0
   59.6430   34.4960   45.4960 C   0  0  0  0  0  0  0  0  0  0  0  0
   59.9470   33.3810   46.2810 C   0  0  0  0  0  0  0  0  0  0  0  0
   65.1774   32.4857   50.7894 H   0  0  0  0  0  0  0  0  0  0  0  0
   65.5832   31.6839   49.2340 H   0  0  0  0  0  0  0  0  0  0  0  0
   64.8215   33.3107   49.2340 H   0  0  0  0  0  0  0  0  0  0  0  0
   63.5754   30.6359   49.4200 H   0  0  0  0  0  0  0  0  0  0  0  0
   63.0303   31.7543   50.7217 H   0  0  0  0  0  0  0  0  0  0  0  0
   64.0161   31.6378   47.3713 H   0  0  0  0  0  0  0  0  0  0  0  0
   62.3146   31.7012   46.7764 H   0  0  0  0  0  0  0  0  0  0  0  0
   63.5084   34.3461   47.4976 H   0  0  0  0  0  0  0  0  0  0  0  0
   64.2611   33.5271   46.0872 H   0  0  0  0  0  0  0  0  0  0  0  0
   62.4994   33.8779   46.0872 H   0  0  0  0  0  0  0  0  0  0  0  0
   63.0389   34.0428   50.0090 H   0  0  0  0  0  0  0  0  0  0  0  0
   62.8758   34.4337   48.2536 H   0  0  0  0  0  0  0  0  0  0  0  0
   60.9553   35.1723   49.8438 H   0  0  0  0  0  0  0  0  0  0  0  0
   60.5163   34.3128   48.3217 H   0  0  0  0  0  0  0  0  0  0  0  0
   60.9710   32.3580   50.1620 H   0  0  0  0  0  0  0  0  0  0  0  0
   58.2803   32.6654   50.1732 H   0  0  0  0  0  0  0  0  0  0  0  0
   58.7972   33.4736   48.6548 H   0  0  0  0  0  0  0  0  0  0  0  0
   59.6295   30.4159   50.6922 H   0  0  0  0  0  0  0  0  0  0  0  0
   60.0907   28.1831   49.7062 H   0  0  0  0  0  0  0  0  0  0  0  0
   60.3258   26.7413   47.7740 H   0  0  0  0  0  0  0  0  0  0  0  0
   60.2527   26.4002   45.3044 H   0  0  0  0  0  0  0  0  0  0  0  0
   59.7322   28.3114   43.7915 H   0  0  0  0  0  0  0  0  0  0  0  0
   59.2850   30.5763   44.7326 H   0  0  0  0  0  0  0  0  0  0  0  0
   56.9440   31.7402   46.0896 H   0  0  0  0  0  0  0  0  0  0  0  0
   56.4101   33.7338   44.6768 H   0  0  0  0  0  0  0  0  0  0  0  0
   58.1358   35.5019   44.3059 H   0  0  0  0  0  0  0  0  0  0  0  0
   60.4022   35.2742   45.3287 H   0  0  0  0  0  0  0  0  0  0  0  0
   60.9481   33.2780   46.7250 H   0  0  0  0  0  0  0  0  0  0  0  0
  1  2  1  0
  2  3  1  0
  3  4  1  0
  4  5  1  0
  3  6  1  0
  6  7  1  0
  7  8  1  0
  8  9  1  0
  9 10  1  0
 10 11  2  0
 11 12  1  0
 12 13  2  0
 13 14  1  0
 14 15  2  0
 15 16  1  0
 16 17  2  0
 17 18  1  0
 18 19  2  0
 19 20  1  0
 20 21  2  0
 21 22  1  0
 22 23  2  0
 23 24  1  0
 24 25  2  0
 19 10  1  0
 25 20  1  0
 18 13  1  0
  1 26  1  0
  1 27  1  0
  1 28  1  0
  2 29  1  0
  2 30  1  0
  4 31  1  0
  4 32  1  0
  5 33  1  0
  5 34  1  0
  5 35  1  0
  6 36  1  0
  6 37  1  0
  7 38  1  0
  7 39  1  0
  8 40  1  0
  9 41  1  0
  9 42  1  0
 11 43  1  0
 12 44  1  0
 14 45  1  0
 15 46  1  0
 16 47  1  0
 17 48  1  0
 21 49  1  0
 22 50  1  0
 23 51  1  0
 24 52  1  0
 25 53  1  0
M  END
>  <UniqueID>  (27) 
27

>  <SMILES>  (27) 
CCN(CC)CCNCc1ccc2ccccc2c1-c1ccccc1

>  <Energy>  (27) 
61.808108491087374

>  <Genealogy>  (27) 
CCN(CC)CCNCc1ccc2ccccc2c1-c1ccccc1 (3D coordinates assigned)
CCN(CC)CCNCc1ccc2ccccc2c1-c1ccccc1 (optimized conformer: 61.808108491087374 kcal/mol)

>  <smiles>  (27) 
CCN(CC)CCNCc1ccc2ccccc2c1-c1ccccc1

>  <score_type>  (27) 
oracle

>  <origin>  (27) 
adg

>  <m_score__min__energy>  (27) 
-8.0700000000000003

>  <m_primary>  (27) 
energy

$$$$
27:0
     RDKit          3D

 50 52  0  0  0  0  0  0  0  0999 V2000
   56.6410   27.0680   45.8300 C   0  0  0  0  0  0  0  0  0  0  0  0
   56.8660   28.4530   45.2330 C   0  0  0  0  0  0  0  0  0  0  0  0
   55.6280   29.0500   44.8830 O   0  0  0  0  0  0  0  0  0  0  0  0
   55.7070   29.7210   43.6360 C   0  0  0  0  0  0  0  0  0  0  0  0
   56.6690   30.9040   43.7310 C   0  0  0  0  0  0  0  0  0  0  0  0
   56.7280   31.3660   45.0640 O   0  0  0  0  0  0  0  0  0  0  0  0
   57.2670   32.6710   45.0850 C   0  0  0  0  0  0  0  0  0  0  0  0
   58.7860   32.6020   45.2370 C   0  0  0  0  0  0  0  0  0  0  0  0
   59.1650   31.6220   46.2610 N   0  0  0  0  0  0  0  0  0  0  0  0
   59.1030   31.7550   47.6160 C   0  0  0  0  0  0  0  0  0  0  0  0
   58.7370   33.0230   48.3340 C   0  0  0  0  0  0  0  0  0  0  0  0
   59.9090   33.7500   48.7020 O   0  0  0  0  0  0  0  0  0  0  0  0
   61.1980   33.5240   48.1940 C   0  0  0  0  0  0  0  0  0  0  0  0
   62.1810   32.8080   48.9100 C   0  0  0  0  0  0  0  0  0  0  0  0
   63.4480   32.6040   48.3530 C   0  0  0  0  0  0  0  0  0  0  0  0
   63.7460   33.1110   47.0860 C   0  0  0  0  0  0  0  0  0  0  0  0
   62.7800   33.8270   46.3740 C   0  0  0  0  0  0  0  0  0  0  0  0
   61.5120   34.0350   46.9260 C   0  0  0  0  0  0  0  0  0  0  0  0
   60.5810   34.7280   46.2240 F   0  0  0  0  0  0  0  0  0  0  0  0
   59.4500   30.6150   48.2670 N   0  0  0  0  0  0  0  0  0  0  0  0
   59.7340   29.7440   47.2860 C   0  0  0  0  0  0  0  0  0  0  0  0
   60.1380   28.4170   47.4070 C   0  0  0  0  0  0  0  0  0  0  0  0
   60.3710   27.6960   46.2210 C   0  0  0  0  0  0  0  0  0  0  0  0
   60.2000   28.3150   44.9620 C   0  0  0  0  0  0  0  0  0  0  0  0
   59.7900   29.6590   44.8750 C   0  0  0  0  0  0  0  0  0  0  0  0
   59.5630   30.3460   46.0710 C   0  0  0  0  0  0  0  0  0  0  0  0
   56.6520   27.1357   46.9279 H   0  0  0  0  0  0  0  0  0  0  0  0
   55.6678   26.6786   45.4964 H   0  0  0  0  0  0  0  0  0  0  0  0
   57.4409   26.3906   45.4964 H   0  0  0  0  0  0  0  0  0  0  0  0
   57.3775   29.0871   45.9721 H   0  0  0  0  0  0  0  0  0  0  0  0
   57.4821   28.3542   44.3271 H   0  0  0  0  0  0  0  0  0  0  0  0
   56.0682   29.0202   42.8690 H   0  0  0  0  0  0  0  0  0  0  0  0
   54.7077   30.0930   43.3657 H   0  0  0  0  0  0  0  0  0  0  0  0
   57.6719   30.5860   43.4099 H   0  0  0  0  0  0  0  0  0  0  0  0
   56.3119   31.7159   43.0804 H   0  0  0  0  0  0  0  0  0  0  0  0
   57.0171   33.1843   44.1448 H   0  0  0  0  0  0  0  0  0  0  0  0
   56.8421   33.2255   45.9347 H   0  0  0  0  0  0  0  0  0  0  0  0
   59.2314   32.3084   44.2750 H   0  0  0  0  0  0  0  0  0  0  0  0
   59.1541   33.5920   45.5442 H   0  0  0  0  0  0  0  0  0  0  0  0
   58.1178   33.6468   47.6726 H   0  0  0  0  0  0  0  0  0  0  0  0
   58.1796   32.7648   49.2465 H   0  0  0  0  0  0  0  0  0  0  0  0
   61.9503   32.4092   49.9089 H   0  0  0  0  0  0  0  0  0  0  0  0
   64.2106   32.0435   48.9136 H   0  0  0  0  0  0  0  0  0  0  0  0
   64.7417   32.9465   46.6484 H   0  0  0  0  0  0  0  0  0  0  0  0
   63.0174   34.2278   45.3775 H   0  0  0  0  0  0  0  0  0  0  0  0
   59.4870   30.4490   49.2970 H   0  0  0  0  0  0  0  0  0  0  0  0
   60.2703   27.9492   48.3937 H   0  0  0  0  0  0  0  0  0  0  0  0
   60.6882   26.6441   46.2743 H   0  0  0  0  0  0  0  0  0  0  0  0
   60.3889   27.7418   44.0423 H   0  0  0  0  0  0  0  0  0  0  0  0
   59.6532   30.1509   43.9007 H   0  0  0  0  0  0  0  0  0  0  0  0
  1  2  1  0
  2  3  1  0
  3  4  1  0
  4  5  1  0
  5  6  1  0
  6  7  1  0
  7  8  1  0
  8  9  1  0
  9 10  1  0
 10 11  1  0
 11 12  1  0
 12 13  1  0
 13 14  2  0
 14 15  1  0
 15 16  2  0
 16 17  1  0
 17 18  2  0
 18 19  1  0
 10 20  2  0
 20 21  1  0
 21 22  2  0
 22 23  1  0
 23 24  2  0
 24 25  1  0
 25 26  2  0
 26  9  1  0
 18 13  1  0
 26 21  1  0
  1 27  1  0
  1 28  1  0
  1 29  1  0
  2 30  1  0
  2 31  1  0
  4 32  1  0
  4 33  1  0
  5 34  1  0
  5 35  1  0
  7 36  1  0
  7 37  1  0
  8 38  1  0
  8 39  1  0
 11 40  1  0
 11 41  1  0
 14 42  1  0
 15 43  1  0
 16 44  1  0
 17 45  1  0
 20 46  1  0
 22 47  1  0
 23 48  1  0
 24 49  1  0
 25 50  1  0
M  CHG  1  20   1
M  END
>  <UniqueID>  (28) 
28

>  <SMILES>  (28) 
CCOCCOCCn1c(COc2ccccc2F)[nH+]c2ccccc21

>  <Energy>  (28) 
84.59463632639388

>  <Genealogy>  (28) 
CCOCCOCCn1c(COc2ccccc2F)[nH+]c2ccccc21 (protonated)
CCOCCOCCn1c(COc2ccccc2F)[nH+]c2ccccc21 (3D coordinates assigned)
CCOCCOCCn1c(COc2ccccc2F)[nH+]c2ccccc21 (optimized conformer: 84.59463632639388 kcal/mol)

>  <smiles>  (28) 
CCOCCOCCn1c(COc2ccccc2F)nc2ccccc21

>  <score_type>  (28) 
oracle

>  <origin>  (28) 
adg

>  <m_score__min__energy>  (28) 
-5.3200000000000003

>  <m_primary>  (28) 
energy

$$$$
28:0
     RDKit          3D

 29 30  0  0  0  0  0  0  0  0999 V2000
   58.5196   34.5099   47.8288 H   0  0  0  0  0  0  0  0  0  0  0  0
   58.8020   34.2620   46.7950 C   0  0  0  0  0  0  0  0  0  0  0  0
   59.8474   34.3684   46.4698 H   0  0  0  0  0  0  0  0  0  0  0  0
   57.8760   33.8320   45.9350 C   0  0  0  0  0  0  0  0  0  0  0  0
   56.8331   33.7287   46.2692 H   0  0  0  0  0  0  0  0  0  0  0  0
   58.2360   33.4870   44.5180 C   0  0  0  0  0  0  0  0  0  0  0  0
   57.3446   33.5946   43.8826 H   0  0  0  0  0  0  0  0  0  0  0  0
   59.0307   34.1680   44.1794 H   0  0  0  0  0  0  0  0  0  0  0  0
   58.7140   32.1450   44.4310 O   0  0  0  0  0  0  0  0  0  0  0  0
   57.9480   30.9950   44.6870 C   0  0  0  0  0  0  0  0  0  0  0  0
   56.6420   30.8140   44.1620 C   0  0  0  0  0  0  0  0  0  0  0  0
   56.1979   31.5946   43.5268 H   0  0  0  0  0  0  0  0  0  0  0  0
   55.9100   29.6480   44.4450 C   0  0  0  0  0  0  0  0  0  0  0  0
   54.8971   29.5103   44.0387 H   0  0  0  0  0  0  0  0  0  0  0  0
   56.4910   28.6690   45.2500 C   0  0  0  0  0  0  0  0  0  0  0  0
   55.8870   27.5020   45.5920 N   0  0  0  0  0  0  0  0  0  0  0  0
   56.6960   26.7570   46.3820 C   0  0  0  0  0  0  0  0  0  0  0  0
   56.3350   25.5910   46.8300 N   0  0  0  0  0  0  0  0  0  0  0  0
   55.9990   24.4350   46.0010 C   0  0  0  0  0  0  0  0  0  0  0  0
   56.2339   23.5137   46.5542 H   0  0  0  0  0  0  0  0  0  0  0  0
   54.9264   24.4730   45.7599 H   0  0  0  0  0  0  0  0  0  0  0  0
   56.7950   24.4540   44.6990 C   0  0  0  0  0  0  0  0  0  0  0  0
   57.8707   24.4797   44.9273 H   0  0  0  0  0  0  0  0  0  0  0  0
   56.5654   23.5501   44.1157 H   0  0  0  0  0  0  0  0  0  0  0  0
   56.5226   25.3459   44.1157 H   0  0  0  0  0  0  0  0  0  0  0  0
   58.1910   27.5110   46.6810 S   0  0  0  0  0  0  0  0  0  0  0  0
   57.7670   28.8480   45.7590 C   0  0  0  0  0  0  0  0  0  0  0  0
   58.5130   29.9920   45.4950 C   0  0  0  0  0  0  0  0  0  0  0  0
   59.5249   30.1099   45.9100 H   0  0  0  0  0  0  0  0  0  0  0  0
  1  2  1  0
  2  3  1  0
  2  4  2  0
  4  5  1  0
  4  6  1  0
  6  7  1  0
  6  8  1  0
  6  9  1  0
  9 10  1  0
 10 11  2  0
 11 12  1  0
 11 13  1  0
 13 14  1  0
 13 15  2  0
 15 16  1  0
 16 17  1  0
 17 18  2  0
 18 19  1  0
 19 20  1  0
 19 21  1  0
 19 22  1  0
 22 23  1  0
 22 24  1  0
 22 25  1  0
 17 26  1  0
 26 27  1  0
 27 28  2  0
 28 29  1  0
 28 10  1  0
 27 15  1  0
M  CHG  1  16  -1
M  END
>  <UniqueID>  (29) 
29

>  <SMILES>  (29) 
C=CCOc1ccc2[n-]/c(=N/CC)sc2c1

>  <Energy>  (29) 
58.59627193815262

>  <Genealogy>  (29) 
C=CCOc1ccc2[n-]c(=NCC)sc2c1 (protonated)
C=CCOc1ccc2[n-]/c(=N/CC)sc2c1 (cis-trans isomerization)
C=CCOc1ccc2[n-]/c(=N/CC)sc2c1 (3D coordinates assigned)
C=CCOc1ccc2[n-]/c(=N/CC)sc2c1 (optimized conformer: 58.59627193815262 kcal/mol)

>  <smiles>  (29) 
C=CCOc1ccc2[nH]c(=NCC)sc2c1

>  <score_type>  (29) 
oracle

>  <origin>  (29) 
adg

>  <m_score__min__energy>  (29) 
-7.1699999999999999

>  <m_primary>  (29) 
energy

$$$$
29:0
     RDKit          3D

 61 63  0  0  0  0  0  0  0  0999 V2000
   56.2880   29.7750   42.6670 C   0  0  0  0  0  0  0  0  0  0  0  0
   55.8010   30.1200   44.0750 C   0  0  0  0  0  0  0  0  0  0  0  0
   56.8670   30.7640   44.8760 N   0  0  0  0  0  0  0  0  0  0  0  0
   57.9840   29.8200   45.1030 C   0  0  0  0  0  0  0  0  0  0  0  0
   57.4670   28.4820   45.6260 C   0  0  0  0  0  0  0  0  0  0  0  0
   57.3370   32.0330   44.2580 C   0  0  0  0  0  0  0  0  0  0  0  0
   58.3450   32.7110   45.1900 C   0  0  0  0  0  0  0  0  0  0  0  0
   57.6750   33.4390   46.2010 O   0  0  0  0  0  0  0  0  0  0  0  0
   58.6060   33.9820   47.1160 C   0  0  0  0  0  0  0  0  0  0  0  0
   60.0250   33.5690   46.7130 C   0  0  0  0  0  0  0  0  0  0  0  0
   60.9680   34.5910   46.9760 O   0  0  0  0  0  0  0  0  0  0  0  0
   62.0960   34.0990   47.6780 C   0  0  0  0  0  0  0  0  0  0  0  0
   63.1640   33.6570   46.6760 C   0  0  0  0  0  0  0  0  0  0  0  0
   64.0430   32.6330   47.2620 N   0  0  0  0  0  0  0  0  0  0  0  0
   63.4270   32.0430   48.4350 C   0  0  0  0  0  0  0  0  0  0  0  0
   62.2910   31.1920   48.3570 C   0  0  0  0  0  0  0  0  0  0  0  0
   61.6700   30.9040   47.1200 C   0  0  0  0  0  0  0  0  0  0  0  0
   60.5270   30.1140   47.0610 C   0  0  0  0  0  0  0  0  0  0  0  0
   59.9720   29.5970   48.2240 C   0  0  0  0  0  0  0  0  0  0  0  0
   60.5640   29.8520   49.4590 C   0  0  0  0  0  0  0  0  0  0  0  0
   61.7440   30.6320   49.5610 C   0  0  0  0  0  0  0  0  0  0  0  0
   62.3450   30.8750   50.7880 N   0  0  0  0  0  0  0  0  0  0  0  0
   61.8890   30.1760   52.0070 C   0  0  0  0  0  0  0  0  0  0  0  0
   63.3700   31.7870   50.8580 C   0  0  0  0  0  0  0  0  0  0  0  0
   63.9880   32.2630   52.0360 C   0  0  0  0  0  0  0  0  0  0  0  0
   65.0020   33.1830   51.7920 C   0  0  0  0  0  0  0  0  0  0  0  0
   65.1360   33.4180   50.1320 S   0  0  0  0  0  0  0  0  0  0  0  0
   63.9040   32.3520   49.7100 C   0  0  0  0  0  0  0  0  0  0  0  0
   57.1839   29.1403   42.7342 H   0  0  0  0  0  0  0  0  0  0  0  0
   55.4960   29.2354   42.1270 H   0  0  0  0  0  0  0  0  0  0  0  0
   56.5344   30.7011   42.1270 H   0  0  0  0  0  0  0  0  0  0  0  0
   54.9462   30.8081   43.9988 H   0  0  0  0  0  0  0  0  0  0  0  0
   55.5087   29.1860   44.5773 H   0  0  0  0  0  0  0  0  0  0  0  0
   58.5150   29.6551   44.1539 H   0  0  0  0  0  0  0  0  0  0  0  0
   58.6633   30.2522   45.8525 H   0  0  0  0  0  0  0  0  0  0  0  0
   57.4709   28.4921   46.7259 H   0  0  0  0  0  0  0  0  0  0  0  0
   56.4410   28.3187   45.2644 H   0  0  0  0  0  0  0  0  0  0  0  0
   58.1166   27.6713   45.2644 H   0  0  0  0  0  0  0  0  0  0  0  0
   57.8185   31.8149   43.2933 H   0  0  0  0  0  0  0  0  0  0  0  0
   56.4791   32.7022   44.0962 H   0  0  0  0  0  0  0  0  0  0  0  0
   58.9791   31.9431   45.6571 H   0  0  0  0  0  0  0  0  0  0  0  0
   58.9615   33.4061   44.6011 H   0  0  0  0  0  0  0  0  0  0  0  0
   58.5284   35.0792   47.1091 H   0  0  0  0  0  0  0  0  0  0  0  0
   58.3887   33.6033   48.1256 H   0  0  0  0  0  0  0  0  0  0  0  0
   60.3080   32.6698   47.2799 H   0  0  0  0  0  0  0  0  0  0  0  0
   60.0281   33.3733   45.6306 H   0  0  0  0  0  0  0  0  0  0  0  0
   62.5027   34.8928   48.3218 H   0  0  0  0  0  0  0  0  0  0  0  0
   61.7974   33.2418   48.2993 H   0  0  0  0  0  0  0  0  0  0  0  0
   62.6713   33.2413   45.7847 H   0  0  0  0  0  0  0  0  0  0  0  0
   63.7748   34.5309   46.4054 H   0  0  0  0  0  0  0  0  0  0  0  0
   64.9530   33.0790   47.5190 H   0  0  0  0  0  0  0  0  0  0  0  0
   64.2850   31.8920   46.5670 H   0  0  0  0  0  0  0  0  0  0  0  0
   62.0969   31.3105   46.1912 H   0  0  0  0  0  0  0  0  0  0  0  0
   60.0605   29.8977   46.0886 H   0  0  0  0  0  0  0  0  0  0  0  0
   59.0607   28.9833   48.1700 H   0  0  0  0  0  0  0  0  0  0  0  0
   60.1079   29.4409   50.3716 H   0  0  0  0  0  0  0  0  0  0  0  0
   62.2434   30.7192   52.8954 H   0  0  0  0  0  0  0  0  0  0  0  0
   60.7898   30.1349   52.0166 H   0  0  0  0  0  0  0  0  0  0  0  0
   62.2943   29.1534   52.0166 H   0  0  0  0  0  0  0  0  0  0  0  0
   63.6962   31.9382   53.0456 H   0  0  0  0  0  0  0  0  0  0  0  0
   65.6162   33.6765   52.5596 H   0  0  0  0  0  0  0  0  0  0  0  0
  1  2  1  0
  2  3  1  0
  3  4  1  0
  4  5  1  0
  3  6  1  0
  6  7  1  0
  7  8  1  0
  8  9  1  0
  9 10  1  0
 10 11  1  0
 11 12  1  0
 12 13  1  0
 13 14  1  0
 14 15  1  0
 15 16  2  0
 16 17  1  0
 17 18  2  0
 18 19  1  0
 19 20  2  0
 20 21  1  0
 21 22  2  0
 22 23  1  0
 22 24  1  0
 24 25  1  0
 25 26  2  0
 26 27  1  0
 27 28  1  0
 28 15  1  0
 21 16  1  0
 28 24  2  0
  1 29  1  0
  1 30  1  0
  1 31  1  0
  2 32  1  0
  2 33  1  0
  4 34  1  0
  4 35  1  0
  5 36  1  0
  5 37  1  0
  5 38  1  0
  6 39  1  0
  6 40  1  0
  7 41  1  0
  7 42  1  0
  9 43  1  0
  9 44  1  0
 10 45  1  0
 10 46  1  0
 12 47  1  0
 12 48  1  0
 13 49  1  0
 13 50  1  0
 14 51  1  0
 14 52  1  0
 17 53  1  0
 18 54  1  0
 19 55  1  0
 20 56  1  0
 23 57  1  0
 23 58  1  0
 23 59  1  0
 25 60  1  0
 26 61  1  0
M  CHG  2  14   1  22   1
M  END
>  <UniqueID>  (30) 
30

>  <SMILES>  (30) 
CCN(CC)CCOCCOCC[NH2+]c1c2ccccc2[n+](C)c2ccsc12

>  <Energy>  (30) 
109.04136267828432

>  <Genealogy>  (30) 
CCN(CC)CCOCCOCC[NH2+]c1c2ccccc2[n+](C)c2ccsc12 (protonated)
CCN(CC)CCOCCOCC[NH2+]c1c2ccccc2[n+](C)c2ccsc12 (3D coordinates assigned)
CCN(CC)CCOCCOCC[NH2+]c1c2ccccc2[n+](C)c2ccsc12 (optimized conformer: 109.04136267828432 kcal/mol)

>  <smiles>  (30) 
CCN(CC)CCOCCOCCNc1c2ccccc2[n+](C)c2ccsc12

>  <score_type>  (30) 
oracle

>  <origin>  (30) 
adg

>  <m_score__min__energy>  (30) 
-4.46

>  <m_primary>  (30) 
energy

$$$$
30:0
     RDKit          3D

 61 63  0  0  0  0  0  0  0  0999 V2000
   58.8630   34.2260   45.9740 C   0  0  0  0  0  0  0  0  0  0  0  0
   60.3090   34.5780   46.3170 C   0  0  0  0  0  0  0  0  0  0  0  0
   60.7650   33.8100   47.4990 N   0  0  0  0  0  0  0  0  0  0  0  0
   59.8140   33.9430   48.6260 C   0  0  0  0  0  0  0  0  0  0  0  0
   60.5510   33.8400   49.9590 C   0  0  0  0  0  0  0  0  0  0  0  0
   62.1490   34.1790   47.8960 C   0  0  0  0  0  0  0  0  0  0  0  0
   63.1320   33.8390   46.7680 C   0  0  0  0  0  0  0  0  0  0  0  0
   64.0610   32.7660   47.1570 N   0  0  0  0  0  0  0  0  0  0  0  0
   63.5760   32.0810   48.3450 C   0  0  0  0  0  0  0  0  0  0  0  0
   64.1900   32.3000   49.6070 C   0  0  0  0  0  0  0  0  0  0  0  0
   65.3640   33.0850   49.7390 C   0  0  0  0  0  0  0  0  0  0  0  0
   65.9030   33.3700   50.9900 C   0  0  0  0  0  0  0  0  0  0  0  0
   65.2900   32.8890   52.1370 C   0  0  0  0  0  0  0  0  0  0  0  0
   64.1630   32.0780   52.0390 C   0  0  0  0  0  0  0  0  0  0  0  0
   63.6220   31.7200   50.7760 C   0  0  0  0  0  0  0  0  0  0  0  0
   62.5630   30.8380   50.6740 N   0  0  0  0  0  0  0  0  0  0  0  0
   62.1760   30.0140   51.8430 C   0  0  0  0  0  0  0  0  0  0  0  0
   61.9030   30.6800   49.4710 C   0  0  0  0  0  0  0  0  0  0  0  0
   60.6710   29.9790   49.3960 C   0  0  0  0  0  0  0  0  0  0  0  0
   60.0530   29.7240   48.1720 C   0  0  0  0  0  0  0  0  0  0  0  0
   58.5400   28.8270   48.1560 Cl  0  0  0  0  0  0  0  0  0  0  0  0
   60.6510   30.1590   46.9870 C   0  0  0  0  0  0  0  0  0  0  0  0
   60.0580   29.8740   45.7130 N   0  0  0  0  0  0  0  0  0  0  0  0
   60.5530   28.7400   44.9300 C   0  0  0  0  0  0  0  0  0  0  0  0
   58.9000   30.6490   45.2560 C   0  0  0  0  0  0  0  0  0  0  0  0
   57.9170   29.7520   44.5100 C   0  0  0  0  0  0  0  0  0  0  0  0
   61.8320   30.9010   47.0410 C   0  0  0  0  0  0  0  0  0  0  0  0
   62.4430   31.2270   48.2770 C   0  0  0  0  0  0  0  0  0  0  0  0
   58.2895   34.0864   46.9022 H   0  0  0  0  0  0  0  0  0  0  0  0
   58.4166   35.0417   45.3864 H   0  0  0  0  0  0  0  0  0  0  0  0
   58.8414   33.2964   45.3864 H   0  0  0  0  0  0  0  0  0  0  0  0
   60.9533   34.3372   45.4586 H   0  0  0  0  0  0  0  0  0  0  0  0
   60.3681   35.6521   46.5469 H   0  0  0  0  0  0  0  0  0  0  0  0
   59.3124   34.9200   48.5637 H   0  0  0  0  0  0  0  0  0  0  0  0
   59.0724   33.1329   48.5647 H   0  0  0  0  0  0  0  0  0  0  0  0
   59.8312   33.9406   50.7847 H   0  0  0  0  0  0  0  0  0  0  0  0
   61.0521   32.8631   50.0264 H   0  0  0  0  0  0  0  0  0  0  0  0
   61.3007   34.6421   50.0264 H   0  0  0  0  0  0  0  0  0  0  0  0
   62.1922   35.2586   48.1025 H   0  0  0  0  0  0  0  0  0  0  0  0
   62.4270   33.6129   48.7973 H   0  0  0  0  0  0  0  0  0  0  0  0
   62.5621   33.5137   45.8852 H   0  0  0  0  0  0  0  0  0  0  0  0
   63.7235   34.7397   46.5472 H   0  0  0  0  0  0  0  0  0  0  0  0
   64.1970   32.0920   46.3740 H   0  0  0  0  0  0  0  0  0  0  0  0
   65.0220   33.1470   47.3030 H   0  0  0  0  0  0  0  0  0  0  0  0
   65.8571   33.4754   48.8366 H   0  0  0  0  0  0  0  0  0  0  0  0
   66.8165   33.9776   51.0690 H   0  0  0  0  0  0  0  0  0  0  0  0
   65.6951   33.1488   53.1261 H   0  0  0  0  0  0  0  0  0  0  0  0
   63.6827   31.7077   52.9567 H   0  0  0  0  0  0  0  0  0  0  0  0
   62.4281   30.5507   52.7695 H   0  0  0  0  0  0  0  0  0  0  0  0
   61.0934   29.8216   51.8137 H   0  0  0  0  0  0  0  0  0  0  0  0
   62.7193   29.0580   51.8137 H   0  0  0  0  0  0  0  0  0  0  0  0
   60.1934   29.6294   50.3232 H   0  0  0  0  0  0  0  0  0  0  0  0
   60.8988   27.9478   45.6103 H   0  0  0  0  0  0  0  0  0  0  0  0
   59.7429   28.3509   44.2957 H   0  0  0  0  0  0  0  0  0  0  0  0
   61.3892   29.0695   44.2957 H   0  0  0  0  0  0  0  0  0  0  0  0
   58.3955   31.0934   46.1266 H   0  0  0  0  0  0  0  0  0  0  0  0
   59.2476   31.4395   44.5746 H   0  0  0  0  0  0  0  0  0  0  0  0
   57.3061   29.1946   45.2353 H   0  0  0  0  0  0  0  0  0  0  0  0
   57.2626   30.3708   43.8784 H   0  0  0  0  0  0  0  0  0  0  0  0
   58.4734   29.0439   43.8784 H   0  0  0  0  0  0  0  0  0  0  0  0
   62.2982   31.2398   46.1041 H   0  0  0  0  0  0  0  0  0  0  0  0
  1  2  1  0
  2  3  1  0
  3  4  1  0
  4  5  1  0
  3  6  1  0
  6  7  1  0
  7  8  1  0
  8  9  1  0
  9 10  2  0
 10 11  1  0
 11 12  2  0
 12 13  1  0
 13 14  2  0
 14 15  1  0
 15 16  2  0
 16 17  1  0
 16 18  1  0
 18 19  2  0
 19 20  1  0
 20 21  1  0
 20 22  2  0
 22 23  1  0
 23 24  1  0
 23 25  1  0
 25 26  1  0
 22 27  1  0
 27 28  2  0
 28  9  1  0
 15 10  1  0
 28 18  1  0
  1 29  1  0
  1 30  1  0
  1 31  1  0
  2 32  1  0
  2 33  1  0
  4 34  1  0
  4 35  1  0
  5 36  1  0
  5 37  1  0
  5 38  1  0
  6 39  1  0
  6 40  1  0
  7 41  1  0
  7 42  1  0
  8 43  1  0
  8 44  1  0
 11 45  1  0
 12 46  1  0
 13 47  1  0
 14 48  1  0
 17 49  1  0
 17 50  1  0
 17 51  1  0
 19 52  1  0
 24 53  1  0
 24 54  1  0
 24 55  1  0
 25 56  1  0
 25 57  1  0
 26 58  1  0
 26 59  1  0
 26 60  1  0
 27 61  1  0
M  CHG  2   8   1  16   1
M  END
>  <UniqueID>  (31) 
31

>  <SMILES>  (31) 
CCN(CC)CC[NH2+]c1c2ccccc2[n+](C)c2cc(Cl)c(N(C)CC)cc12

>  <Energy>  (31) 
89.91826746056388

>  <Genealogy>  (31) 
CCN(CC)CC[NH2+]c1c2ccccc2[n+](C)c2cc(Cl)c(N(C)CC)cc12 (protonated)
CCN(CC)CC[NH2+]c1c2ccccc2[n+](C)c2cc(Cl)c(N(C)CC)cc12 (3D coordinates assigned)
CCN(CC)CC[NH2+]c1c2ccccc2[n+](C)c2cc(Cl)c(N(C)CC)cc12 (optimized conformer: 89.91826746056388 kcal/mol)

>  <smiles>  (31) 
CCN(CC)CCNc1c2ccccc2[n+](C)c2cc(Cl)c(N(C)CC)cc12

>  <score_type>  (31) 
oracle

>  <origin>  (31) 
adg

>  <m_score__min__energy>  (31) 
-4.4699999999999998

>  <m_primary>  (31) 
energy

$$$$
31:0
     RDKit          3D

 56 58  0  0  0  0  0  0  0  0999 V2000
   62.7660   34.5190   50.1310 C   0  0  0  0  0  0  0  0  0  0  0  0
   62.2810   33.8480   48.8350 C   0  0  0  0  0  0  0  0  0  0  0  0
   62.9840   32.5810   48.5070 N   0  0  0  0  0  0  0  0  0  0  0  0
   63.4360   32.5050   47.0990 C   0  0  0  0  0  0  0  0  0  0  0  0
   63.2880   33.8430   46.3760 C   0  0  0  0  0  0  0  0  0  0  0  0
   64.0870   32.2990   49.4560 C   0  0  0  0  0  0  0  0  0  0  0  0
   63.6600   31.2560   50.5030 C   0  0  0  0  0  0  0  0  0  0  0  0
   62.6280   30.4210   50.0130 O   0  0  0  0  0  0  0  0  0  0  0  0
   61.3860   30.7370   50.6190 C   0  0  0  0  0  0  0  0  0  0  0  0
   60.3060   30.8650   49.5290 C   0  0  0  0  0  0  0  0  0  0  0  0
   60.8230   30.5760   48.1790 N   0  0  0  0  0  0  0  0  0  0  0  0
   59.7620   30.2070   47.2690 C   0  0  0  0  0  0  0  0  0  0  0  0
   59.2830   28.9210   47.0530 C   0  0  0  0  0  0  0  0  0  0  0  0
   59.6910   27.6690   47.5100 C   0  0  0  0  0  0  0  0  0  0  0  0
   58.9350   26.5510   47.1110 C   0  0  0  0  0  0  0  0  0  0  0  0
   57.8050   26.7090   46.2740 C   0  0  0  0  0  0  0  0  0  0  0  0
   57.4180   27.9880   45.8280 C   0  0  0  0  0  0  0  0  0  0  0  0
   58.1870   29.0730   46.2440 C   0  0  0  0  0  0  0  0  0  0  0  0
   58.0080   30.3770   45.9830 N   0  0  0  0  0  0  0  0  0  0  0  0
   57.0210   30.9140   45.1860 O   0  0  0  0  0  0  0  0  0  0  0  0
   58.9600   31.0770   46.5920 N   0  0  0  0  0  0  0  0  0  0  0  0
   59.0810   32.5050   46.5080 C   0  0  0  0  0  0  0  0  0  0  0  0
   59.1700   33.2730   47.6810 C   0  0  0  0  0  0  0  0  0  0  0  0
   59.2770   34.6640   47.6030 C   0  0  0  0  0  0  0  0  0  0  0  0
   59.2840   35.2990   46.3570 C   0  0  0  0  0  0  0  0  0  0  0  0
   59.1790   34.5420   45.1880 C   0  0  0  0  0  0  0  0  0  0  0  0
   59.0720   33.1490   45.2610 C   0  0  0  0  0  0  0  0  0  0  0  0
   62.3697   33.9707   50.9983 H   0  0  0  0  0  0  0  0  0  0  0  0
   63.8655   34.5070   50.1608 H   0  0  0  0  0  0  0  0  0  0  0  0
   62.4097   35.5593   50.1608 H   0  0  0  0  0  0  0  0  0  0  0  0
   61.2078   33.6303   48.9396 H   0  0  0  0  0  0  0  0  0  0  0  0
   62.4947   34.5501   48.0156 H   0  0  0  0  0  0  0  0  0  0  0  0
   64.4949   32.2075   47.0817 H   0  0  0  0  0  0  0  0  0  0  0  0
   62.8063   31.7674   46.5799 H   0  0  0  0  0  0  0  0  0  0  0  0
   63.1985   34.6518   47.1162 H   0  0  0  0  0  0  0  0  0  0  0  0
   64.1722   34.0189   45.7457 H   0  0  0  0  0  0  0  0  0  0  0  0
   62.3868   33.8215   45.7457 H   0  0  0  0  0  0  0  0  0  0  0  0
   64.9528   31.9142   48.8972 H   0  0  0  0  0  0  0  0  0  0  0  0
   64.3484   33.2319   49.9769 H   0  0  0  0  0  0  0  0  0  0  0  0
   64.5294   30.6343   50.7633 H   0  0  0  0  0  0  0  0  0  0  0  0
   63.2812   31.7898   51.3870 H   0  0  0  0  0  0  0  0  0  0  0  0
   61.1061   29.9382   51.3216 H   0  0  0  0  0  0  0  0  0  0  0  0
   61.4736   31.6882   51.1645 H   0  0  0  0  0  0  0  0  0  0  0  0
   59.4938   30.1579   49.7536 H   0  0  0  0  0  0  0  0  0  0  0  0
   59.9516   31.9063   49.5331 H   0  0  0  0  0  0  0  0  0  0  0  0
   61.4890   29.7710   48.2430 H   0  0  0  0  0  0  0  0  0  0  0  0
   61.3590   31.4000   47.8280 H   0  0  0  0  0  0  0  0  0  0  0  0
   60.5722   27.5587   48.1591 H   0  0  0  0  0  0  0  0  0  0  0  0
   59.2248   25.5463   47.4525 H   0  0  0  0  0  0  0  0  0  0  0  0
   57.2241   25.8260   45.9692 H   0  0  0  0  0  0  0  0  0  0  0  0
   56.5424   28.1249   45.1764 H   0  0  0  0  0  0  0  0  0  0  0  0
   59.1554   32.7781   48.6633 H   0  0  0  0  0  0  0  0  0  0  0  0
   59.3559   35.2609   48.5236 H   0  0  0  0  0  0  0  0  0  0  0  0
   59.3721   36.3939   46.2977 H   0  0  0  0  0  0  0  0  0  0  0  0
   59.1804   35.0419   44.2082 H   0  0  0  0  0  0  0  0  0  0  0  0
   58.9806   32.5568   44.3385 H   0  0  0  0  0  0  0  0  0  0  0  0
  1  2  1  0
  2  3  1  0
  3  4  1  0
  4  5  1  0
  3  6  1  0
  6  7  1  0
  7  8  1  0
  8  9  1  0
  9 10  1  0
 10 11  1  0
 11 12  1  0
 12 13  2  0
 13 14  1  0
 14 15  2  0
 15 16  1  0
 16 17  2  0
 17 18  1  0
 18 19  2  0
 19 20  1  0
 19 21  1  0
 21 22  1  0
 22 23  2  0
 23 24  1  0
 24 25  2  0
 25 26  1  0
 26 27  2  0
 21 12  1  0
 27 22  1  0
 18 13  1  0
  1 28  1  0
  1 29  1  0
  1 30  1  0
  2 31  1  0
  2 32  1  0
  4 33  1  0
  4 34  1  0
  5 35  1  0
  5 36  1  0
  5 37  1  0
  6 38  1  0
  6 39  1  0
  7 40  1  0
  7 41  1  0
  9 42  1  0
  9 43  1  0
 10 44  1  0
 10 45  1  0
 11 46  1  0
 11 47  1  0
 14 48  1  0
 15 49  1  0
 16 50  1  0
 17 51  1  0
 23 52  1  0
 24 53  1  0
 25 54  1  0
 26 55  1  0
 27 56  1  0
M  CHG  3  11   1  19   1  20  -1
M  END
>  <UniqueID>  (32) 
32

>  <SMILES>  (32) 
CCN(CC)CCOCC[NH2+]c1c2ccccc2[n+]([O-])n1-c1ccccc1

>  <Energy>  (32) 
105.44693566138513

>  <Genealogy>  (32) 
CCN(CC)CCOCC[NH2+]c1c2ccccc2[n+]([O-])n1-c1ccccc1 (protonated)
CCN(CC)CCOCC[NH2+]c1c2ccccc2[n+]([O-])n1-c1ccccc1 (3D coordinates assigned)
CCN(CC)CCOCC[NH2+]c1c2ccccc2[n+]([O-])n1-c1ccccc1 (optimized conformer: 105.44693566138513 kcal/mol)

>  <smiles>  (32) 
CCN(CC)CCOCCNc1c2ccccc2[n+]([O-])n1-c1ccccc1

>  <score_type>  (32) 
oracle

>  <origin>  (32) 
adg

>  <m_score__min__energy>  (32) 
-6.5300000000000002

>  <m_primary>  (32) 
energy

$$$$
32:0
     RDKit          3D

 46 48  0  0  0  0  0  0  0  0999 V2000
   59.6800   34.1540   48.3530 C   0  0  0  0  0  0  0  0  0  0  0  0
   59.3750   33.8130   46.9200 C   0  0  0  0  0  0  0  0  0  0  0  0
   59.1130   34.8940   46.1390 N   0  0  0  0  0  0  0  0  0  0  0  0
   58.6470   34.7970   44.8790 C   0  0  0  0  0  0  0  0  0  0  0  0
   58.3170   33.5580   44.3660 C   0  0  0  0  0  0  0  0  0  0  0  0
   58.5360   32.3860   45.1230 C   0  0  0  0  0  0  0  0  0  0  0  0
   59.2310   32.4840   46.3680 C   0  0  0  0  0  0  0  0  0  0  0  0
   59.7590   31.2710   46.9390 C   0  0  0  0  0  0  0  0  0  0  0  0
   60.6920   31.2930   48.0550 N   0  0  0  0  0  0  0  0  0  0  0  0
   62.0400   30.8400   47.6500 C   0  0  0  0  0  0  0  0  0  0  0  0
   63.1030   31.8950   47.9940 C   0  0  0  0  0  0  0  0  0  0  0  0
   62.5660   33.2590   47.8030 N   0  0  0  0  0  0  0  0  0  0  0  0
   62.9810   34.1320   48.9130 C   0  0  0  0  0  0  0  0  0  0  0  0
   63.0290   33.8360   46.5290 C   0  0  0  0  0  0  0  0  0  0  0  0
   59.4760   30.0280   46.2920 C   0  0  0  0  0  0  0  0  0  0  0  0
   60.0190   28.7990   46.7560 C   0  0  0  0  0  0  0  0  0  0  0  0
   59.7490   27.5960   46.1110 C   0  0  0  0  0  0  0  0  0  0  0  0
   58.9520   27.5770   44.9800 C   0  0  0  0  0  0  0  0  0  0  0  0
   58.4100   28.7610   44.4920 C   0  0  0  0  0  0  0  0  0  0  0  0
   58.6380   30.0020   45.1450 C   0  0  0  0  0  0  0  0  0  0  0  0
   58.1000   31.1680   44.6520 N   0  0  0  0  0  0  0  0  0  0  0  0
   57.0280   31.1140   43.6320 C   0  0  0  0  0  0  0  0  0  0  0  0
   59.0957   33.5007   49.0177 H   0  0  0  0  0  0  0  0  0  0  0  0
   60.7531   34.0065   48.5446 H   0  0  0  0  0  0  0  0  0  0  0  0
   59.4142   35.2041   48.5446 H   0  0  0  0  0  0  0  0  0  0  0  0
   58.5299   35.7000   44.2618 H   0  0  0  0  0  0  0  0  0  0  0  0
   57.8799   33.4833   43.3593 H   0  0  0  0  0  0  0  0  0  0  0  0
   60.3260   30.7570   48.8630 H   0  0  0  0  0  0  0  0  0  0  0  0
   60.7530   32.2540   48.4570 H   0  0  0  0  0  0  0  0  0  0  0  0
   62.2783   29.9044   48.1770 H   0  0  0  0  0  0  0  0  0  0  0  0
   62.0436   30.6814   46.5615 H   0  0  0  0  0  0  0  0  0  0  0  0
   63.4087   31.7709   49.0434 H   0  0  0  0  0  0  0  0  0  0  0  0
   63.9664   31.7580   47.3264 H   0  0  0  0  0  0  0  0  0  0  0  0
   62.7486   33.6431   49.8706 H   0  0  0  0  0  0  0  0  0  0  0  0
   64.0634   34.3171   48.8490 H   0  0  0  0  0  0  0  0  0  0  0  0
   62.4411   35.0883   48.8490 H   0  0  0  0  0  0  0  0  0  0  0  0
   63.7055   34.6791   46.7327 H   0  0  0  0  0  0  0  0  0  0  0  0
   63.5641   33.0678   45.9515 H   0  0  0  0  0  0  0  0  0  0  0  0
   62.1631   34.1920   45.9515 H   0  0  0  0  0  0  0  0  0  0  0  0
   60.6671   28.7990   47.6448 H   0  0  0  0  0  0  0  0  0  0  0  0
   60.1702   26.6577   46.5012 H   0  0  0  0  0  0  0  0  0  0  0  0
   58.7472   26.6257   44.4671 H   0  0  0  0  0  0  0  0  0  0  0  0
   57.7923   28.7362   43.5821 H   0  0  0  0  0  0  0  0  0  0  0  0
   56.0490   31.0647   44.1312 H   0  0  0  0  0  0  0  0  0  0  0  0
   57.0741   32.0156   43.0035 H   0  0  0  0  0  0  0  0  0  0  0  0
   57.1645   30.2216   43.0035 H   0  0  0  0  0  0  0  0  0  0  0  0
  1  2  1  0
  2  3  2  0
  3  4  1  0
  4  5  2  0
  5  6  1  0
  6  7  2  0
  7  8  1  0
  8  9  1  0
  9 10  1  0
 10 11  1  0
 11 12  1  0
 12 13  1  0
 12 14  1  0
  8 15  2  0
 15 16  1  0
 16 17  2  0
 17 18  1  0
 18 19  2  0
 19 20  1  0
 20 21  2  0
 21 22  1  0
  7  2  1  0
 20 15  1  0
 21  6  1  0
  1 23  1  0
  1 24  1  0
  1 25  1  0
  4 26  1  0
  5 27  1  0
  9 28  1  0
  9 29  1  0
 10 30  1  0
 10 31  1  0
 11 32  1  0
 11 33  1  0
 13 34  1  0
 13 35  1  0
 13 36  1  0
 14 37  1  0
 14 38  1  0
 14 39  1  0
 16 40  1  0
 17 41  1  0
 18 42  1  0
 19 43  1  0
 22 44  1  0
 22 45  1  0
 22 46  1  0
M  CHG  2   9   1  21   1
M  END
>  <UniqueID>  (33) 
33

>  <SMILES>  (33) 
Cc1nccc2c1c([NH2+]CCN(C)C)c1ccccc1[n+]2C

>  <Energy>  (33) 
90.52301211385647

>  <Genealogy>  (33) 
Cc1nccc2c1c([NH2+]CCN(C)C)c1ccccc1[n+]2C (protonated)
Cc1nccc2c1c([NH2+]CCN(C)C)c1ccccc1[n+]2C (3D coordinates assigned)
Cc1nccc2c1c([NH2+]CCN(C)C)c1ccccc1[n+]2C (optimized conformer: 90.52301211385647 kcal/mol)

>  <smiles>  (33) 
Cc1nccc2c1c(NCCN(C)C)c1ccccc1[n+]2C

>  <score_type>  (33) 
oracle

>  <origin>  (33) 
adg

>  <m_score__min__energy>  (33) 
-3.6899999999999999

>  <m_primary>  (33) 
energy

$$$$
33:0
     RDKit          3D

 84 88  0  0  0  0  0  0  0  0999 V2000
   56.6820   24.7310   44.5180 C   0  0  0  0  0  0  0  0  0  0  0  0
   55.7820   25.2890   45.6170 C   0  0  0  0  0  0  0  0  0  0  0  0
   56.4370   25.1890   46.9490 N   0  0  0  0  0  0  0  0  0  0  0  0
   55.8520   24.0510   47.7040 C   0  0  0  0  0  0  0  0  0  0  0  0
   56.9380   23.3300   48.5000 C   0  0  0  0  0  0  0  0  0  0  0  0
   57.9020   25.0290   46.7730 C   0  0  0  0  0  0  0  0  0  0  0  0
   58.6710   26.3640   46.7290 C   0  0  0  0  0  0  0  0  0  0  0  0
   57.7860   27.5300   46.8090 N   0  0  0  0  0  0  0  0  0  0  0  0
   58.2140   28.8710   46.5090 C   0  0  0  0  0  0  0  0  0  0  0  0
   57.6990   29.5620   45.3970 C   0  0  0  0  0  0  0  0  0  0  0  0
   56.6450   29.0300   44.6240 C   0  0  0  0  0  0  0  0  0  0  0  0
   56.1670   29.7090   43.5050 C   0  0  0  0  0  0  0  0  0  0  0  0
   56.7160   30.9360   43.1480 C   0  0  0  0  0  0  0  0  0  0  0  0
   57.7070   31.5140   43.9370 C   0  0  0  0  0  0  0  0  0  0  0  0
   58.1900   30.8600   45.0980 C   0  0  0  0  0  0  0  0  0  0  0  0
   59.0930   31.4760   45.9430 N   0  0  0  0  0  0  0  0  0  0  0  0
   59.1520   32.9560   45.9390 C   0  0  0  0  0  0  0  0  0  0  0  0
   59.7230   30.7470   46.9390 C   0  0  0  0  0  0  0  0  0  0  0  0
   59.1750   29.4940   47.3260 C   0  0  0  0  0  0  0  0  0  0  0  0
   59.5830   28.8980   48.5330 C   0  0  0  0  0  0  0  0  0  0  0  0
   60.5640   29.4830   49.3230 C   0  0  0  0  0  0  0  0  0  0  0  0
   61.2570   30.6030   48.8630 C   0  0  0  0  0  0  0  0  0  0  0  0
   62.3500   31.0880   49.6000 C   0  0  0  0  0  0  0  0  0  0  0  0
   63.1440   32.1210   49.0970 C   0  0  0  0  0  0  0  0  0  0  0  0
   64.2120   32.5810   49.8810 O   0  0  0  0  0  0  0  0  0  0  0  0
   64.0720   33.4320   51.0170 C   0  0  0  0  0  0  0  0  0  0  0  0
   62.6510   33.9940   51.1020 C   0  0  0  0  0  0  0  0  0  0  0  0
   61.7280   33.4300   52.2260 C   0  0  0  0  0  0  0  0  0  0  0  0
   60.2760   33.1840   51.9030 N   0  0  0  0  0  0  0  0  0  0  0  0
   59.4280   33.8800   52.9140 C   0  0  0  0  0  0  0  0  0  0  0  0
   59.9600   33.6430   50.5060 C   0  0  0  0  0  0  0  0  0  0  0  0
   58.9400   32.7760   49.7290 C   0  0  0  0  0  0  0  0  0  0  0  0
   57.9230   32.1030   50.6360 C   0  0  0  0  0  0  0  0  0  0  0  0
   58.6110   31.2490   51.7100 C   0  0  0  0  0  0  0  0  0  0  0  0
   60.0550   31.7090   52.0290 C   0  0  0  0  0  0  0  0  0  0  0  0
   62.8640   32.6400   47.8240 C   0  0  0  0  0  0  0  0  0  0  0  0
   61.7750   32.1650   47.0900 C   0  0  0  0  0  0  0  0  0  0  0  0
   60.8920   31.2070   47.6320 C   0  0  0  0  0  0  0  0  0  0  0  0
   57.5329   24.2034   44.9736 H   0  0  0  0  0  0  0  0  0  0  0  0
   56.1076   24.0304   43.8942 H   0  0  0  0  0  0  0  0  0  0  0  0
   57.0541   25.5570   43.8942 H   0  0  0  0  0  0  0  0  0  0  0  0
   55.5654   26.3458   45.4018 H   0  0  0  0  0  0  0  0  0  0  0  0
   54.8530   24.7004   45.6398 H   0  0  0  0  0  0  0  0  0  0  0  0
   55.0858   24.4302   48.3962 H   0  0  0  0  0  0  0  0  0  0  0  0
   55.4000   23.3439   46.9929 H   0  0  0  0  0  0  0  0  0  0  0  0
   56.7484   23.4559   49.5762 H   0  0  0  0  0  0  0  0  0  0  0  0
   56.9271   22.2592   48.2485 H   0  0  0  0  0  0  0  0  0  0  0  0
   57.9206   23.7557   48.2485 H   0  0  0  0  0  0  0  0  0  0  0  0
   58.2894   24.4328   47.6123 H   0  0  0  0  0  0  0  0  0  0  0  0
   58.0569   24.5370   45.8014 H   0  0  0  0  0  0  0  0  0  0  0  0
   59.3711   26.3949   47.5769 H   0  0  0  0  0  0  0  0  0  0  0  0
   59.1976   26.4123   45.7644 H   0  0  0  0  0  0  0  0  0  0  0  0
   56.7920   27.3800   47.0970 H   0  0  0  0  0  0  0  0  0  0  0  0
   56.1952   28.0673   44.9084 H   0  0  0  0  0  0  0  0  0  0  0  0
   55.3550   29.2743   42.9036 H   0  0  0  0  0  0  0  0  0  0  0  0
   56.3667   31.4507   42.2408 H   0  0  0  0  0  0  0  0  0  0  0  0
   58.1214   32.4932   43.6550 H   0  0  0  0  0  0  0  0  0  0  0  0
   59.1667   33.3252   46.9751 H   0  0  0  0  0  0  0  0  0  0  0  0
   60.0640   33.2852   45.4195 H   0  0  0  0  0  0  0  0  0  0  0  0
   58.2691   33.3568   45.4195 H   0  0  0  0  0  0  0  0  0  0  0  0
   59.1182   27.9547   48.8559 H   0  0  0  0  0  0  0  0  0  0  0  0
   60.7949   29.0626   50.3129 H   0  0  0  0  0  0  0  0  0  0  0  0
   62.5826   30.6503   50.5820 H   0  0  0  0  0  0  0  0  0  0  0  0
   64.2870   32.8552   51.9286 H   0  0  0  0  0  0  0  0  0  0  0  0
   64.7778   34.2700   50.9194 H   0  0  0  0  0  0  0  0  0  0  0  0
   62.7332   35.0802   51.2551 H   0  0  0  0  0  0  0  0  0  0  0  0
   62.1693   33.6912   50.1606 H   0  0  0  0  0  0  0  0  0  0  0  0
   62.1570   32.4698   52.5483 H   0  0  0  0  0  0  0  0  0  0  0  0
   61.7060   34.2268   52.9841 H   0  0  0  0  0  0  0  0  0  0  0  0
   59.7628   33.6052   53.9251 H   0  0  0  0  0  0  0  0  0  0  0  0
   59.5178   34.9683   52.7812 H   0  0  0  0  0  0  0  0  0  0  0  0
   58.3781   33.5798   52.7812 H   0  0  0  0  0  0  0  0  0  0  0  0
   59.5566   34.6644   50.5690 H   0  0  0  0  0  0  0  0  0  0  0  0
   60.9038   33.5698   49.9458 H   0  0  0  0  0  0  0  0  0  0  0  0
   58.4031   33.4196   49.0166 H   0  0  0  0  0  0  0  0  0  0  0  0
   59.5037   31.9812   49.2186 H   0  0  0  0  0  0  0  0  0  0  0  0
   57.3152   32.8764   51.1284 H   0  0  0  0  0  0  0  0  0  0  0  0
   57.2921   31.4445   50.0210 H   0  0  0  0  0  0  0  0  0  0  0  0
   58.0156   31.3036   52.6333 H   0  0  0  0  0  0  0  0  0  0  0  0
   58.6759   30.2235   51.3174 H   0  0  0  0  0  0  0  0  0  0  0  0
   60.2901   31.4129   53.0620 H   0  0  0  0  0  0  0  0  0  0  0  0
   60.7088   31.2290   51.2860 H   0  0  0  0  0  0  0  0  0  0  0  0
   63.5066   33.4264   47.4012 H   0  0  0  0  0  0  0  0  0  0  0  0
   61.6026   32.5441   46.0719 H   0  0  0  0  0  0  0  0  0  0  0  0
  1  2  1  0
  2  3  1  0
  3  4  1  0
  4  5  1  0
  3  6  1  0
  6  7  1  0
  7  8  1  0
  8  9  1  0
  9 10  2  0
 10 11  1  0
 11 12  2  0
 12 13  1  0
 13 14  2  0
 14 15  1  0
 15 16  2  0
 16 17  1  0
 16 18  1  0
 18 19  2  0
 19 20  1  0
 20 21  2  0
 21 22  1  0
 22 23  2  0
 23 24  1  0
 24 25  1  0
 25 26  1  0
 26 27  1  0
 27 28  1  0
 28 29  1  0
 29 30  1  0
 29 31  1  0
 31 32  1  0
 32 33  1  0
 33 34  1  0
 34 35  1  0
 24 36  2  0
 36 37  1  0
 37 38  2  0
 19  9  1  0
 38 22  1  0
 15 10  1  0
 38 18  1  0
 35 29  1  0
  1 39  1  0
  1 40  1  0
  1 41  1  0
  2 42  1  0
  2 43  1  0
  4 44  1  0
  4 45  1  0
  5 46  1  0
  5 47  1  0
  5 48  1  0
  6 49  1  0
  6 50  1  0
  7 51  1  0
  7 52  1  0
  8 53  1  0
 11 54  1  0
 12 55  1  0
 13 56  1  0
 14 57  1  0
 17 58  1  0
 17 59  1  0
 17 60  1  0
 20 61  1  0
 21 62  1  0
 23 63  1  0
 26 64  1  0
 26 65  1  0
 27 66  1  0
 27 67  1  0
 28 68  1  0
 28 69  1  0
 30 70  1  0
 30 71  1  0
 30 72  1  0
 31 73  1  0
 31 74  1  0
 32 75  1  0
 32 76  1  0
 33 77  1  0
 33 78  1  0
 34 79  1  0
 34 80  1  0
 35 81  1  0
 35 82  1  0
 36 83  1  0
 37 84  1  0
M  CHG  2  16   1  29   1
M  END
>  <UniqueID>  (34) 
34

>  <SMILES>  (34) 
CCN(CC)CCNc1c2ccccc2[n+](C)c2c1ccc1cc(OCCC[N+]3(C)CCCCC3)ccc12

>  <Energy>  (34) 
146.7391412595758

>  <Genealogy>  (34) 
CCN(CC)CCNc1c2ccccc2[n+](C)c2c1ccc1cc(OCCC[N+]3(C)CCCCC3)ccc12 (3D coordinates assigned)
CCN(CC)CCNc1c2ccccc2[n+](C)c2c1ccc1cc(OCCC[N+]3(C)CCCCC3)ccc12 (nonaromatic ring conformer: 146.7391412595758 kcal/mol)

>  <smiles>  (34) 
CCN(CC)CCNc1c2ccccc2[n+](C)c2c1ccc1cc(OCCC[N+]3(C)CCCCC3)ccc12

>  <score_type>  (34) 
oracle

>  <origin>  (34) 
adg

>  <m_score__min__energy>  (34) 
-6.0199999999999996

>  <m_primary>  (34) 
energy

$$$$
