0:0
     RDKit          3D

 65 68  0  0  0  0  0  0  0  0999 V2000
   53.6950   30.8450   51.8320 C   0  0  0  0  0  0  0  0  0  0  0  0
   55.1140   30.2820   51.9900 C   0  0  0  0  0  0  0  0  0  0  0  0
   55.6180   30.2560   53.3890 N   0  0  0  0  0  0  0  0  0  0  0  0
   54.5460   30.0520   54.4000 C   0  0  0  0  0  0  0  0  0  0  0  0
   55.0630   30.0850   55.8430 C   0  0  0  0  0  0  0  0  0  0  0  0
   56.7030   29.2460   53.5570 C   0  0  0  0  0  0  0  0  0  0  0  0
   58.1050   29.8610   53.3790 C   0  0  0  0  0  0  0  0  0  0  0  0
   58.0130   31.2510   53.0610 O   0  0  0  0  0  0  0  0  0  0  0  0
   58.4230   31.8340   51.8520 C   0  0  0  0  0  0  0  0  0  0  0  0
   58.8920   33.1610   51.7680 C   0  0  0  0  0  0  0  0  0  0  0  0
   59.2910   33.6920   50.5380 C   0  0  0  0  0  0  0  0  0  0  0  0
   59.2530   32.9000   49.3850 C   0  0  0  0  0  0  0  0  0  0  0  0
   59.7140   33.4440   48.0960 C   0  0  0  0  0  0  0  0  0  0  0  0
   61.0270   33.6830   47.6920 C   0  0  0  0  0  0  0  0  0  0  0  0
   62.2550   33.6020   48.5170 C   0  0  0  0  0  0  0  0  0  0  0  0
   63.3340   32.7900   48.1410 C   0  0  0  0  0  0  0  0  0  0  0  0
   64.4750   32.7070   48.9450 C   0  0  0  0  0  0  0  0  0  0  0  0
   64.5650   33.4230   50.1570 C   0  0  0  0  0  0  0  0  0  0  0  0
   65.7500   33.3330   50.9960 N   0  0  0  0  0  0  0  0  0  0  0  0
   65.8180   34.0520   52.2760 C   0  0  0  0  0  0  0  0  0  0  0  0
   66.9070   32.5310   50.5770 C   0  0  0  0  0  0  0  0  0  0  0  0
   63.4650   34.2220   50.5340 C   0  0  0  0  0  0  0  0  0  0  0  0
   62.3260   34.3060   49.7280 C   0  0  0  0  0  0  0  0  0  0  0  0
   61.0450   34.0200   46.3790 N   0  0  0  0  0  0  0  0  0  0  0  0
   59.7470   33.9780   46.0200 C   0  0  0  0  0  0  0  0  0  0  0  0
   59.2520   34.2240   44.7400 C   0  0  0  0  0  0  0  0  0  0  0  0
   57.8690   34.0880   44.5380 C   0  0  0  0  0  0  0  0  0  0  0  0
   57.0270   33.7100   45.6040 C   0  0  0  0  0  0  0  0  0  0  0  0
   57.5820   33.4790   46.8720 C   0  0  0  0  0  0  0  0  0  0  0  0
   58.9240   33.6360   47.0260 N   0  0  0  0  0  0  0  0  0  0  0  0
   58.7850   31.5840   49.4630 C   0  0  0  0  0  0  0  0  0  0  0  0
   58.3590   31.0600   50.6870 C   0  0  0  0  0  0  0  0  0  0  0  0
   53.2568   31.0189   52.8258 H   0  0  0  0  0  0  0  0  0  0  0  0
   53.7368   31.7947   51.2785 H   0  0  0  0  0  0  0  0  0  0  0  0
   53.0744   30.1250   51.2785 H   0  0  0  0  0  0  0  0  0  0  0  0
   55.1192   29.2518   51.6043 H   0  0  0  0  0  0  0  0  0  0  0  0
   55.7804   30.9555   51.4312 H   0  0  0  0  0  0  0  0  0  0  0  0
   56.0270   31.2060   53.5580 H   0  0  0  0  0  0  0  0  0  0  0  0
   53.7955   30.8471   54.2792 H   0  0  0  0  0  0  0  0  0  0  0  0
   54.1201   29.0525   54.2280 H   0  0  0  0  0  0  0  0  0  0  0  0
   54.2125   30.0307   56.5385 H   0  0  0  0  0  0  0  0  0  0  0  0
   55.7309   29.2277   56.0129 H   0  0  0  0  0  0  0  0  0  0  0  0
   55.6165   31.0203   56.0129 H   0  0  0  0  0  0  0  0  0  0  0  0
   56.6314   28.8140   54.5661 H   0  0  0  0  0  0  0  0  0  0  0  0
   56.5711   28.4771   52.7815 H   0  0  0  0  0  0  0  0  0  0  0  0
   58.6724   29.7418   54.3138 H   0  0  0  0  0  0  0  0  0  0  0  0
   58.6146   29.3434   52.5529 H   0  0  0  0  0  0  0  0  0  0  0  0
   58.9442   33.7815   52.6748 H   0  0  0  0  0  0  0  0  0  0  0  0
   59.6356   34.7348   50.4763 H   0  0  0  0  0  0  0  0  0  0  0  0
   63.2827   32.2133   47.2057 H   0  0  0  0  0  0  0  0  0  0  0  0
   65.3160   32.0731   48.6272 H   0  0  0  0  0  0  0  0  0  0  0  0
   65.7499   33.3322   53.1050 H   0  0  0  0  0  0  0  0  0  0  0  0
   66.7716   34.5964   52.3405 H   0  0  0  0  0  0  0  0  0  0  0  0
   64.9833   34.7656   52.3405 H   0  0  0  0  0  0  0  0  0  0  0  0
   67.4390   32.1623   51.4664 H   0  0  0  0  0  0  0  0  0  0  0  0
   66.5626   31.6769   49.9754 H   0  0  0  0  0  0  0  0  0  0  0  0
   67.5859   33.1532   49.9754 H   0  0  0  0  0  0  0  0  0  0  0  0
   63.5043   34.7875   51.4767 H   0  0  0  0  0  0  0  0  0  0  0  0
   61.4778   34.9298   50.0464 H   0  0  0  0  0  0  0  0  0  0  0  0
   59.9215   34.5145   43.9170 H   0  0  0  0  0  0  0  0  0  0  0  0
   57.4402   34.2774   43.5429 H   0  0  0  0  0  0  0  0  0  0  0  0
   55.9447   33.5972   45.4431 H   0  0  0  0  0  0  0  0  0  0  0  0
   56.9480   33.1788   47.7193 H   0  0  0  0  0  0  0  0  0  0  0  0
   58.7521   30.9594   48.5581 H   0  0  0  0  0  0  0  0  0  0  0  0
   57.9706   30.0320   50.7352 H   0  0  0  0  0  0  0  0  0  0  0  0
  1  2  1  0
  2  3  1  0
  3  4  1  0
  4  5  1  0
  3  6  1  0
  6  7  1  0
  7  8  1  0
  8  9  1  0
  9 10  2  0
 10 11  1  0
 11 12  2  0
 12 13  1  0
 13 14  2  0
 14 15  1  0
 15 16  2  0
 16 17  1  0
 17 18  2  0
 18 19  1  0
 19 20  1  0
 19 21  1  0
 18 22  1  0
 22 23  2  0
 14 24  1  0
 24 25  2  0
 25 26  1  0
 26 27  2  0
 27 28  1  0
 28 29  2  0
 29 30  1  0
 12 31  1  0
 31 32  2  0
 32  9  1  0
 30 13  1  0
 23 15  1  0
 30 25  1  0
  1 33  1  0
  1 34  1  0
  1 35  1  0
  2 36  1  0
  2 37  1  0
  3 38  1  0
  4 39  1  0
  4 40  1  0
  5 41  1  0
  5 42  1  0
  5 43  1  0
  6 44  1  0
  6 45  1  0
  7 46  1  0
  7 47  1  0
 10 48  1  0
 11 49  1  0
 16 50  1  0
 17 51  1  0
 20 52  1  0
 20 53  1  0
 20 54  1  0
 21 55  1  0
 21 56  1  0
 21 57  1  0
 22 58  1  0
 23 59  1  0
 26 60  1  0
 27 61  1  0
 28 62  1  0
 29 63  1  0
 31 64  1  0
 32 65  1  0
M  CHG  1   3   1
M  END
>  <UniqueID>  (1) 
1

>  <SMILES>  (1) 
CC[NH+](CC)CCOc1ccc(-c2c(-c3ccc(N(C)C)cc3)nc3ccccn23)cc1

>  <Energy>  (1) 
117.44845048647359

>  <Genealogy>  (1) 
CC[NH+](CC)CCOc1ccc(-c2c(-c3ccc(N(C)C)cc3)nc3ccccn23)cc1 (protonated)
CC[NH+](CC)CCOc1ccc(-c2c(-c3ccc(N(C)C)cc3)nc3ccccn23)cc1 (3D coordinates assigned)
CC[NH+](CC)CCOc1ccc(-c2c(-c3ccc(N(C)C)cc3)nc3ccccn23)cc1 (optimized conformer: 117.44845048647359 kcal/mol)

>  <smiles>  (1) 
CCN(CC)CCOc1ccc(-c2c(-c3ccc(N(C)C)cc3)nc3ccccn23)cc1

>  <score_type>  (1) 
oracle

>  <origin>  (1) 
adg

>  <m_score__min__energy>  (1) 
-6.4400000000000004

>  <m_primary>  (1) 
energy

$$$$
1:0
     RDKit          3D

 38 41  0  0  0  0  0  0  0  0999 V2000
   55.0630   20.4660   46.1140 C   0  0  0  0  0  0  0  0  0  0  0  0
   54.4860   21.6690   45.6180 O   0  0  0  0  0  0  0  0  0  0  0  0
   55.1960   22.8610   45.4010 C   0  0  0  0  0  0  0  0  0  0  0  0
   55.1970   23.9110   46.3360 C   0  0  0  0  0  0  0  0  0  0  0  0
   55.9150   25.0820   46.0860 C   0  0  0  0  0  0  0  0  0  0  0  0
   56.6440   25.2260   44.8960 C   0  0  0  0  0  0  0  0  0  0  0  0
   57.4040   26.4620   44.6270 C   0  0  0  0  0  0  0  0  0  0  0  0
   58.4530   26.5470   43.7850 N   0  0  0  0  0  0  0  0  0  0  0  0
   58.8580   27.8070   43.8170 N   0  0  0  0  0  0  0  0  0  0  0  0
   58.0410   28.4440   44.6760 C   0  0  0  0  0  0  0  0  0  0  0  0
   58.1360   29.8670   45.0110 C   0  0  0  0  0  0  0  0  0  0  0  0
   58.8880   30.4090   46.0530 C   0  0  0  0  0  0  0  0  0  0  0  0
   58.7770   31.8010   46.1180 C   0  0  0  0  0  0  0  0  0  0  0  0
   59.4060   32.6370   47.0460 C   0  0  0  0  0  0  0  0  0  0  0  0
   59.1830   34.0230   46.9680 C   0  0  0  0  0  0  0  0  0  0  0  0
   58.3410   34.5560   45.9730 C   0  0  0  0  0  0  0  0  0  0  0  0
   57.7140   33.7090   45.0460 C   0  0  0  0  0  0  0  0  0  0  0  0
   57.9500   32.3390   45.1430 C   0  0  0  0  0  0  0  0  0  0  0  0
   57.3390   31.1080   44.1790 S   0  0  0  0  0  0  0  0  0  0  0  0
   57.1460   27.6260   45.1780 O   0  0  0  0  0  0  0  0  0  0  0  0
   56.6450   24.1800   43.9610 C   0  0  0  0  0  0  0  0  0  0  0  0
   55.9220   22.9960   44.2070 C   0  0  0  0  0  0  0  0  0  0  0  0
   55.9030   21.9310   43.2920 O   0  0  0  0  0  0  0  0  0  0  0  0
   57.0130   21.0850   43.0130 C   0  0  0  0  0  0  0  0  0  0  0  0
   55.0553   20.4820   47.2139 H   0  0  0  0  0  0  0  0  0  0  0  0
   54.4800   19.6048   45.7557 H   0  0  0  0  0  0  0  0  0  0  0  0
   56.0996   20.3816   45.7557 H   0  0  0  0  0  0  0  0  0  0  0  0
   54.6277   23.8091   47.2717 H   0  0  0  0  0  0  0  0  0  0  0  0
   55.9091   25.8959   46.8259 H   0  0  0  0  0  0  0  0  0  0  0  0
   59.4985   29.8098   46.7445 H   0  0  0  0  0  0  0  0  0  0  0  0
   60.0629   32.2180   47.8225 H   0  0  0  0  0  0  0  0  0  0  0  0
   59.6697   34.6958   47.6894 H   0  0  0  0  0  0  0  0  0  0  0  0
   58.1738   35.6420   45.9220 H   0  0  0  0  0  0  0  0  0  0  0  0
   57.0547   34.1152   44.2647 H   0  0  0  0  0  0  0  0  0  0  0  0
   57.2159   24.2853   43.0266 H   0  0  0  0  0  0  0  0  0  0  0  0
   57.4607   20.7438   43.9581 H   0  0  0  0  0  0  0  0  0  0  0  0
   56.6737   20.2143   42.4326 H   0  0  0  0  0  0  0  0  0  0  0  0
   57.7626   21.6430   42.4326 H   0  0  0  0  0  0  0  0  0  0  0  0
  1  2  1  0
  2  3  1  0
  3  4  2  0
  4  5  1  0
  5  6  2  0
  6  7  1  0
  7  8  2  0
  8  9  1  0
  9 10  2  0
 10 11  1  0
 11 12  2  0
 12 13  1  0
 13 14  2  0
 14 15  1  0
 15 16  2  0
 16 17  1  0
 17 18  2  0
 18 19  1  0
 10 20  1  0
  6 21  1  0
 21 22  2  0
 22 23  1  0
 23 24  1  0
 22  3  1  0
 20  7  1  0
 19 11  1  0
 18 13  1  0
  1 25  1  0
  1 26  1  0
  1 27  1  0
  4 28  1  0
  5 29  1  0
 12 30  1  0
 14 31  1  0
 15 32  1  0
 16 33  1  0
 17 34  1  0
 21 35  1  0
 24 36  1  0
 24 37  1  0
 24 38  1  0
M  END
>  <UniqueID>  (2) 
2

>  <SMILES>  (2) 
COc1ccc(-c2nnc(-c3cc4ccccc4s3)o2)cc1OC

>  <Energy>  (2) 
106.11767059168662

>  <Genealogy>  (2) 
COc1ccc(-c2nnc(-c3cc4ccccc4s3)o2)cc1OC (3D coordinates assigned)
COc1ccc(-c2nnc(-c3cc4ccccc4s3)o2)cc1OC (optimized conformer: 106.11767059168662 kcal/mol)

>  <smiles>  (2) 
COc1ccc(-c2nnc(-c3cc4ccccc4s3)o2)cc1OC

>  <score_type>  (2) 
oracle

>  <origin>  (2) 
adg

>  <m_score__min__energy>  (2) 
-7.2599999999999998

>  <m_primary>  (2) 
energy

$$$$
2:0
     RDKit          3D

 46 48  0  0  0  0  0  0  0  0999 V2000
   56.0590   30.1020   52.7530 C   0  0  0  0  0  0  0  0  0  0  0  0
   57.1350   29.6440   51.9410 O   0  0  0  0  0  0  0  0  0  0  0  0
   57.9110   30.4710   51.1150 C   0  0  0  0  0  0  0  0  0  0  0  0
   58.8540   29.8730   50.2710 C   0  0  0  0  0  0  0  0  0  0  0  0
   59.6510   30.6550   49.4300 C   0  0  0  0  0  0  0  0  0  0  0  0
   59.5180   32.0490   49.4280 C   0  0  0  0  0  0  0  0  0  0  0  0
   60.5160   33.0440   48.3730 S   0  0  0  0  0  0  0  0  0  0  0  0
   61.5370   32.1650   47.7080 O   0  0  0  0  0  0  0  0  0  0  0  0
   61.2210   34.0950   49.1890 O   0  0  0  0  0  0  0  0  0  0  0  0
   59.5000   33.7980   47.1660 N   0  0  0  0  0  0  0  0  0  0  0  0
   60.2580   34.2030   45.9870 C   0  0  0  0  0  0  0  0  0  0  0  0
   59.2570   34.6500   44.9350 C   0  0  0  0  0  0  0  0  0  0  0  0
   57.7130   33.7240   45.1890 S   0  0  0  0  0  0  0  0  0  0  0  0
   58.3520   32.9870   46.7270 C   0  0  1  0  0  0  0  0  0  0  0  0
   58.6840   31.5310   46.4780 C   0  0  0  0  0  0  0  0  0  0  0  0
   57.7970   30.6470   46.6370 O   0  0  0  0  0  0  0  0  0  0  0  0
   59.9960   31.1590   46.0320 N   0  0  0  0  0  0  0  0  0  0  0  0
   60.3360   29.7730   45.6980 C   0  0  0  0  0  0  0  0  0  0  0  0
   60.1590   28.8390   46.8890 C   0  0  0  0  0  0  0  0  0  0  0  0
   59.9190   27.4690   46.2770 C   0  0  0  0  0  0  0  0  0  0  0  0
   59.3030   27.7130   44.9020 C   0  0  0  0  0  0  0  0  0  0  0  0
   59.4120   29.2100   44.6240 C   0  0  0  0  0  0  0  0  0  0  0  0
   58.5720   32.6540   50.2660 C   0  0  0  0  0  0  0  0  0  0  0  0
   57.7740   31.8740   51.1060 C   0  0  0  0  0  0  0  0  0  0  0  0
   56.3261   29.9883   53.8140 H   0  0  0  0  0  0  0  0  0  0  0  0
   55.8615   31.1622   52.5362 H   0  0  0  0  0  0  0  0  0  0  0  0
   55.1580   29.5094   52.5362 H   0  0  0  0  0  0  0  0  0  0  0  0
   58.9688   28.7790   50.2695 H   0  0  0  0  0  0  0  0  0  0  0  0
   60.3853   30.1736   48.7674 H   0  0  0  0  0  0  0  0  0  0  0  0
   60.9328   35.0337   46.2409 H   0  0  0  0  0  0  0  0  0  0  0  0
   60.8688   33.3684   45.6123 H   0  0  0  0  0  0  0  0  0  0  0  0
   59.0655   35.7283   45.0377 H   0  0  0  0  0  0  0  0  0  0  0  0
   59.6538   34.4575   43.9273 H   0  0  0  0  0  0  0  0  0  0  0  0
   57.6109   32.9942   47.5399 H   0  0  0  0  0  0  0  0  0  0  0  0
   60.7020   31.9150   45.8810 H   0  0  0  0  0  0  0  0  0  0  0  0
   61.3831   29.8131   45.3633 H   0  0  0  0  0  0  0  0  0  0  0  0
   61.0648   28.8311   47.5130 H   0  0  0  0  0  0  0  0  0  0  0  0
   59.3313   29.1522   47.5423 H   0  0  0  0  0  0  0  0  0  0  0  0
   60.8699   26.9253   46.1768 H   0  0  0  0  0  0  0  0  0  0  0  0
   59.2552   26.8607   46.9090 H   0  0  0  0  0  0  0  0  0  0  0  0
   59.8518   27.1455   44.1360 H   0  0  0  0  0  0  0  0  0  0  0  0
   58.2535   27.3844   44.8779 H   0  0  0  0  0  0  0  0  0  0  0  0
   59.8382   29.3827   43.6248 H   0  0  0  0  0  0  0  0  0  0  0  0
   58.4255   29.6961   44.6473 H   0  0  0  0  0  0  0  0  0  0  0  0
   58.4573   33.7480   50.2623 H   0  0  0  0  0  0  0  0  0  0  0  0
   57.0356   32.3565   51.7632 H   0  0  0  0  0  0  0  0  0  0  0  0
  1  2  1  0
  2  3  1  0
  3  4  2  0
  4  5  1  0
  5  6  2  0
  6  7  1  0
  7  8  2  0
  7  9  2  0
  7 10  1  0
 10 11  1  0
 11 12  1  0
 12 13  1  0
 13 14  1  0
 14 15  1  0
 15 16  2  0
 15 17  1  0
 17 18  1  0
 18 19  1  0
 19 20  1  0
 20 21  1  0
 21 22  1  0
  6 23  1  0
 23 24  2  0
 24  3  1  0
 14 10  1  0
 22 18  1  0
  1 25  1  0
  1 26  1  0
  1 27  1  0
  4 28  1  0
  5 29  1  0
 11 30  1  0
 11 31  1  0
 12 32  1  0
 12 33  1  0
 14 34  1  1
 17 35  1  0
 18 36  1  0
 19 37  1  0
 19 38  1  0
 20 39  1  0
 20 40  1  0
 21 41  1  0
 21 42  1  0
 22 43  1  0
 22 44  1  0
 23 45  1  0
 24 46  1  0
M  END
>  <UniqueID>  (3) 
3

>  <SMILES>  (3) 
COc1ccc(S(=O)(=O)N2CCS[C@H]2C(=O)NC2CCCC2)cc1

>  <Energy>  (3) 
43.27608688794004

>  <Genealogy>  (3) 
COc1ccc(S(=O)(=O)N2CCS[C@H]2C(=O)NC2CCCC2)cc1 (chirality)
COc1ccc(S(=O)(=O)N2CCS[C@H]2C(=O)NC2CCCC2)cc1 (3D coordinates assigned)
COc1ccc(S(=O)(=O)N2CCS[C@H]2C(=O)NC2CCCC2)cc1 (nonaromatic ring conformer: 43.27608688794004 kcal/mol)

>  <smiles>  (3) 
COc1ccc(S(=O)(=O)N2CCSC2C(=O)NC2CCCC2)cc1

>  <score_type>  (3) 
oracle

>  <origin>  (3) 
adg

>  <m_score__min__energy>  (3) 
-7

>  <m_primary>  (3) 
energy

$$$$
3:0
     RDKit          3D

 47 48  0  0  0  0  0  0  0  0999 V2000
   55.9530   29.7450   43.4220 C   0  0  0  0  0  0  0  0  0  0  0  0
   56.2190   30.5410   44.5550 O   0  0  0  0  0  0  0  0  0  0  0  0
   57.2890   31.4170   44.2710 C   0  0  0  0  0  0  0  0  0  0  0  0
   57.9700   31.8520   45.5770 C   0  0  0  0  0  0  0  0  0  0  0  0
   59.1290   30.9910   45.9100 N   0  0  0  0  0  0  0  0  0  0  0  0
   59.0410   30.4620   47.2970 C   0  0  0  0  0  0  0  0  0  0  0  0
   59.8910   29.2000   47.4920 C   0  0  0  0  0  0  0  0  0  0  0  0
   59.4150   28.0490   46.5680 C   0  0  0  0  0  0  0  0  0  0  0  0
   58.4750   27.0700   47.3000 C   0  0  0  0  0  0  0  0  0  0  0  0
   57.0970   27.1980   46.8270 N   0  0  0  0  0  0  0  0  0  0  0  0
   56.3190   26.1510   46.2320 C   0  0  0  0  0  0  0  0  0  0  0  0
   55.1110   26.3720   45.9560 O   0  0  0  0  0  0  0  0  0  0  0  0
   56.8950   24.8240   45.9330 C   0  0  0  0  0  0  0  0  0  0  0  0
   56.7680   23.7880   46.8720 C   0  0  0  0  0  0  0  0  0  0  0  0
   57.3070   22.5140   46.6090 C   0  0  0  0  0  0  0  0  0  0  0  0
   57.1910   21.4480   47.5140 O   0  0  0  0  0  0  0  0  0  0  0  0
   57.1340   20.0760   47.1380 C   0  0  0  0  0  0  0  0  0  0  0  0
   57.9870   22.2940   45.4080 C   0  0  0  0  0  0  0  0  0  0  0  0
   58.1290   23.3230   44.4750 C   0  0  0  0  0  0  0  0  0  0  0  0
   57.5910   24.5880   44.7300 C   0  0  0  0  0  0  0  0  0  0  0  0
   57.7610   25.8380   43.5020 Cl  0  0  0  0  0  0  0  0  0  0  0  0
   58.7330   28.5870   45.2910 C   0  0  0  0  0  0  0  0  0  0  0  0
   59.3340   29.9370   44.8780 C   0  0  0  0  0  0  0  0  0  0  0  0
   55.6197   28.7476   43.7447 H   0  0  0  0  0  0  0  0  0  0  0  0
   55.1640   30.2179   42.8187 H   0  0  0  0  0  0  0  0  0  0  0  0
   56.8677   29.6485   42.8187 H   0  0  0  0  0  0  0  0  0  0  0  0
   58.0215   30.9026   43.6316 H   0  0  0  0  0  0  0  0  0  0  0  0
   56.9010   32.3057   43.7517 H   0  0  0  0  0  0  0  0  0  0  0  0
   58.3179   32.8898   45.4680 H   0  0  0  0  0  0  0  0  0  0  0  0
   57.2349   31.7631   46.3904 H   0  0  0  0  0  0  0  0  0  0  0  0
   59.3923   31.2367   47.9944 H   0  0  0  0  0  0  0  0  0  0  0  0
   57.9915   30.1949   47.4901 H   0  0  0  0  0  0  0  0  0  0  0  0
   60.9400   29.4355   47.2591 H   0  0  0  0  0  0  0  0  0  0  0  0
   59.7876   28.8708   48.5365 H   0  0  0  0  0  0  0  0  0  0  0  0
   60.3186   27.4958   46.2722 H   0  0  0  0  0  0  0  0  0  0  0  0
   58.8205   26.0411   47.1213 H   0  0  0  0  0  0  0  0  0  0  0  0
   58.4957   27.3081   48.3737 H   0  0  0  0  0  0  0  0  0  0  0  0
   56.2432   23.9730   47.8209 H   0  0  0  0  0  0  0  0  0  0  0  0
   57.1079   19.4490   48.0414 H   0  0  0  0  0  0  0  0  0  0  0  0
   56.2276   19.8968   46.5410 H   0  0  0  0  0  0  0  0  0  0  0  0
   58.0224   19.8222   46.5410 H   0  0  0  0  0  0  0  0  0  0  0  0
   58.4136   21.3025   45.1961 H   0  0  0  0  0  0  0  0  0  0  0  0
   58.6673   23.1373   43.5338 H   0  0  0  0  0  0  0  0  0  0  0  0
   58.8758   27.8640   44.4743 H   0  0  0  0  0  0  0  0  0  0  0  0
   57.6615   28.7269   45.4966 H   0  0  0  0  0  0  0  0  0  0  0  0
   60.4142   29.8075   44.7154 H   0  0  0  0  0  0  0  0  0  0  0  0
   58.8237   30.2637   43.9599 H   0  0  0  0  0  0  0  0  0  0  0  0
  1  2  1  0
  2  3  1  0
  3  4  1  0
  4  5  1  0
  5  6  1  0
  6  7  1  0
  7  8  1  0
  8  9  1  0
  9 10  1  0
 10 11  1  0
 11 12  2  0
 11 13  1  0
 13 14  2  0
 14 15  1  0
 15 16  1  0
 16 17  1  0
 15 18  2  0
 18 19  1  0
 19 20  2  0
 20 21  1  0
  8 22  1  0
 22 23  1  0
 23  5  1  0
 20 13  1  0
  1 24  1  0
  1 25  1  0
  1 26  1  0
  3 27  1  0
  3 28  1  0
  4 29  1  0
  4 30  1  0
  6 31  1  0
  6 32  1  0
  7 33  1  0
  7 34  1  0
  8 35  1  0
  9 36  1  0
  9 37  1  0
 14 38  1  0
 17 39  1  0
 17 40  1  0
 17 41  1  0
 18 42  1  0
 19 43  1  0
 22 44  1  0
 22 45  1  0
 23 46  1  0
 23 47  1  0
M  CHG  1  10  -1
M  END
>  <UniqueID>  (4) 
4

>  <SMILES>  (4) 
COCCN1CCC(C[N-]C(=O)c2cc(OC)ccc2Cl)CC1

>  <Energy>  (4) 
57.31450710296723

>  <Genealogy>  (4) 
COCCN1CCC(C[N-]C(=O)c2cc(OC)ccc2Cl)CC1 (protonated)
COCCN1CCC(C[N-]C(=O)c2cc(OC)ccc2Cl)CC1 (3D coordinates assigned)
COCCN1CCC(C[N-]C(=O)c2cc(OC)ccc2Cl)CC1 (nonaromatic ring conformer: 57.31450710296723 kcal/mol)

>  <smiles>  (4) 
COCCN1CCC(CNC(=O)c2cc(OC)ccc2Cl)CC1

>  <score_type>  (4) 
oracle

>  <origin>  (4) 
adg

>  <m_score__min__energy>  (4) 
-8.9600000000000009

>  <m_primary>  (4) 
energy

$$$$
4:0
     RDKit          3D

 40 41  0  0  0  0  0  0  0  0999 V2000
   58.8160   34.6290   45.0030 C   0  0  0  0  0  0  0  0  0  0  0  0
   57.3300   34.3950   45.2710 C   0  0  0  0  0  0  0  0  0  0  0  0
   57.1360   33.4770   46.4050 N   0  0  0  0  0  0  0  0  0  0  0  0
   57.8240   32.2160   46.2220 C   0  0  0  0  0  0  0  0  0  0  0  0
   57.3510   31.3020   45.3230 N   0  0  0  0  0  0  0  0  0  0  0  0
   57.9460   30.0970   45.1240 C   0  0  0  0  0  0  0  0  0  0  0  0
   59.0720   29.7450   45.8620 C   0  0  0  0  0  0  0  0  0  0  0  0
   59.5700   30.6360   46.8120 C   0  0  0  0  0  0  0  0  0  0  0  0
   58.9520   31.8780   47.0110 C   0  0  0  0  0  0  0  0  0  0  0  0
   59.4680   32.7800   48.0650 C   0  0  0  0  0  0  0  0  0  0  0  0
   58.6650   33.2080   48.9390 O   0  0  0  0  0  0  0  0  0  0  0  0
   60.8610   33.1610   48.1280 N   0  0  0  0  0  0  0  0  0  0  0  0
   61.6850   33.1850   46.9030 C   0  0  0  0  0  0  0  0  0  0  0  0
   63.1070   32.6250   47.1230 C   0  0  0  0  0  0  0  0  0  0  0  0
   64.0470   33.5250   47.9420 C   0  0  0  0  0  0  0  0  0  0  0  0
   63.9460   33.3090   49.4600 C   0  0  0  0  0  0  0  0  0  0  0  0
   62.5710   32.8370   49.9670 C   0  0  0  0  0  0  0  0  0  0  0  0
   61.3850   33.6520   49.4180 C   0  0  0  0  0  0  0  0  0  0  0  0
   59.3523   34.7134   45.9597 H   0  0  0  0  0  0  0  0  0  0  0  0
   59.2225   33.7838   44.4282 H   0  0  0  0  0  0  0  0  0  0  0  0
   58.9430   35.5582   44.4282 H   0  0  0  0  0  0  0  0  0  0  0  0
   56.8502   35.3577   45.5015 H   0  0  0  0  0  0  0  0  0  0  0  0
   56.8793   33.9442   44.3745 H   0  0  0  0  0  0  0  0  0  0  0  0
   57.5000   33.9490   47.2650 H   0  0  0  0  0  0  0  0  0  0  0  0
   56.1140   33.2810   46.5220 H   0  0  0  0  0  0  0  0  0  0  0  0
   57.5372   29.3988   44.3787 H   0  0  0  0  0  0  0  0  0  0  0  0
   59.5637   28.7748   45.6978 H   0  0  0  0  0  0  0  0  0  0  0  0
   60.4528   30.3625   47.4085 H   0  0  0  0  0  0  0  0  0  0  0  0
   61.1852   32.5801   46.1321 H   0  0  0  0  0  0  0  0  0  0  0  0
   61.7886   34.2362   46.5959 H   0  0  0  0  0  0  0  0  0  0  0  0
   63.0160   31.6622   47.6471 H   0  0  0  0  0  0  0  0  0  0  0  0
   63.5594   32.5412   46.1238 H   0  0  0  0  0  0  0  0  0  0  0  0
   65.0819   33.3199   47.6306 H   0  0  0  0  0  0  0  0  0  0  0  0
   63.7464   34.5648   47.7457 H   0  0  0  0  0  0  0  0  0  0  0  0
   64.6917   32.5526   49.7461 H   0  0  0  0  0  0  0  0  0  0  0  0
   64.1183   34.2934   49.9196 H   0  0  0  0  0  0  0  0  0  0  0  0
   62.4353   31.7866   49.6701 H   0  0  0  0  0  0  0  0  0  0  0  0
   62.5714   32.9732   51.0585 H   0  0  0  0  0  0  0  0  0  0  0  0
   60.5709   33.6176   50.1570 H   0  0  0  0  0  0  0  0  0  0  0  0
   61.7563   34.6723   49.2415 H   0  0  0  0  0  0  0  0  0  0  0  0
  1  2  1  0
  2  3  1  0
  3  4  1  0
  4  5  2  0
  5  6  1  0
  6  7  2  0
  7  8  1  0
  8  9  2  0
  9 10  1  0
 10 11  2  0
 10 12  1  0
 12 13  1  0
 13 14  1  0
 14 15  1  0
 15 16  1  0
 16 17  1  0
 17 18  1  0
  9  4  1  0
 18 12  1  0
  1 19  1  0
  1 20  1  0
  1 21  1  0
  2 22  1  0
  2 23  1  0
  3 24  1  0
  3 25  1  0
  6 26  1  0
  7 27  1  0
  8 28  1  0
 13 29  1  0
 13 30  1  0
 14 31  1  0
 14 32  1  0
 15 33  1  0
 15 34  1  0
 16 35  1  0
 16 36  1  0
 17 37  1  0
 17 38  1  0
 18 39  1  0
 18 40  1  0
M  CHG  1   3   1
M  END
>  <UniqueID>  (5) 
5

>  <SMILES>  (5) 
CC[NH2+]c1ncccc1C(=O)N1CCCCCC1

>  <Energy>  (5) 
50.54089077977216

>  <Genealogy>  (5) 
CC[NH2+]c1ncccc1C(=O)N1CCCCCC1 (protonated)
CC[NH2+]c1ncccc1C(=O)N1CCCCCC1 (3D coordinates assigned)
CC[NH2+]c1ncccc1C(=O)N1CCCCCC1 (nonaromatic ring conformer: 50.54089077977216 kcal/mol)

>  <smiles>  (5) 
CCNc1ncccc1C(=O)N1CCCCCC1

>  <score_type>  (5) 
oracle

>  <origin>  (5) 
adg

>  <m_score__min__energy>  (5) 
-2.5800000000000001

>  <m_primary>  (5) 
energy

$$$$
5:0
     RDKit          3D

 36 38  0  0  0  0  0  0  0  0999 V2000
   63.4930   33.9490   50.8040 C   0  0  0  0  0  0  0  0  0  0  0  0
   62.3110   34.5870   50.3330 O   0  0  0  0  0  0  0  0  0  0  0  0
   61.5310   34.1210   49.2640 C   0  0  0  0  0  0  0  0  0  0  0  0
   60.1270   34.2220   49.2530 C   0  0  0  0  0  0  0  0  0  0  0  0
   59.3940   33.7410   48.1640 C   0  0  0  0  0  0  0  0  0  0  0  0
   60.0460   33.1500   47.0680 C   0  0  0  0  0  0  0  0  0  0  0  0
   59.2670   32.6390   45.9110 C   0  0  0  0  0  0  0  0  0  0  0  0
   58.8780   33.5040   44.8750 C   0  0  0  0  0  0  0  0  0  0  0  0
   58.1390   33.0270   43.7920 C   0  0  0  0  0  0  0  0  0  0  0  0
   57.7670   31.6780   43.7240 C   0  0  0  0  0  0  0  0  0  0  0  0
   58.1760   30.7920   44.7420 C   0  0  0  0  0  0  0  0  0  0  0  0
   58.9050   31.2820   45.8360 C   0  0  0  0  0  0  0  0  0  0  0  0
   57.7510   29.3420   44.7200 C   0  0  0  0  0  0  0  0  0  0  0  0
   57.3900   28.8920   43.3670 N   0  0  0  0  0  0  0  0  0  0  0  0
   56.4040   29.7940   42.7560 C   0  0  0  0  0  0  0  0  0  0  0  0
   57.0170   31.1780   42.5160 C   0  0  0  0  0  0  0  0  0  0  0  0
   61.4480   33.0510   47.0840 C   0  0  0  0  0  0  0  0  0  0  0  0
   62.1800   33.5320   48.1740 C   0  0  0  0  0  0  0  0  0  0  0  0
   63.4955   33.9477   51.9040 H   0  0  0  0  0  0  0  0  0  0  0  0
   63.5219   32.9128   50.4360 H   0  0  0  0  0  0  0  0  0  0  0  0
   64.3751   34.4935   50.4360 H   0  0  0  0  0  0  0  0  0  0  0  0
   59.6043   34.6814   50.1049 H   0  0  0  0  0  0  0  0  0  0  0  0
   58.2973   33.8258   48.1649 H   0  0  0  0  0  0  0  0  0  0  0  0
   59.1584   34.5668   44.9179 H   0  0  0  0  0  0  0  0  0  0  0  0
   57.8462   33.7153   42.9854 H   0  0  0  0  0  0  0  0  0  0  0  0
   59.1971   30.5964   46.6451 H   0  0  0  0  0  0  0  0  0  0  0  0
   58.5818   28.7232   45.0898 H   0  0  0  0  0  0  0  0  0  0  0  0
   56.8619   29.2397   45.3596 H   0  0  0  0  0  0  0  0  0  0  0  0
   58.2480   28.8400   42.7690 H   0  0  0  0  0  0  0  0  0  0  0  0
   56.9750   27.9330   43.4320 H   0  0  0  0  0  0  0  0  0  0  0  0
   56.0749   29.3725   41.7947 H   0  0  0  0  0  0  0  0  0  0  0  0
   55.5474   29.8984   43.4382 H   0  0  0  0  0  0  0  0  0  0  0  0
   57.7126   31.1163   41.6661 H   0  0  0  0  0  0  0  0  0  0  0  0
   56.1979   31.8821   42.3080 H   0  0  0  0  0  0  0  0  0  0  0  0
   61.9729   32.5920   46.2333 H   0  0  0  0  0  0  0  0  0  0  0  0
   63.2767   33.4463   48.1742 H   0  0  0  0  0  0  0  0  0  0  0  0
  1  2  1  0
  2  3  1  0
  3  4  2  0
  4  5  1  0
  5  6  2  0
  6  7  1  0
  7  8  2  0
  8  9  1  0
  9 10  2  0
 10 11  1  0
 11 12  2  0
 11 13  1  0
 13 14  1  0
 14 15  1  0
 15 16  1  0
  6 17  1  0
 17 18  2  0
 18  3  1  0
 12  7  1  0
 16 10  1  0
  1 19  1  0
  1 20  1  0
  1 21  1  0
  4 22  1  0
  5 23  1  0
  8 24  1  0
  9 25  1  0
 12 26  1  0
 13 27  1  0
 13 28  1  0
 14 29  1  0
 14 30  1  0
 15 31  1  0
 15 32  1  0
 16 33  1  0
 16 34  1  0
 17 35  1  0
 18 36  1  0
M  CHG  1  14   1
M  END
>  <UniqueID>  (6) 
6

>  <SMILES>  (6) 
COc1ccc(-c2ccc3c(c2)C[NH2+]CC3)cc1

>  <Energy>  (6) 
43.77881842337649

>  <Genealogy>  (6) 
COc1ccc(-c2ccc3c(c2)C[NH2+]CC3)cc1 (protonated)
COc1ccc(-c2ccc3c(c2)C[NH2+]CC3)cc1 (3D coordinates assigned)
COc1ccc(-c2ccc3c(c2)C[NH2+]CC3)cc1 (nonaromatic ring conformer: 43.77881842337649 kcal/mol)

>  <smiles>  (6) 
COc1ccc(-c2ccc3c(c2)CNCC3)cc1

>  <score_type>  (6) 
oracle

>  <origin>  (6) 
adg

>  <m_score__min__energy>  (6) 
-5.6600000000000001

>  <m_primary>  (6) 
energy

$$$$
6:0
     RDKit          3D

 48 49  0  0  0  0  0  0  0  0999 V2000
   59.4800   29.2160   48.7720 C   0  0  0  0  0  0  0  0  0  0  0  0
   59.0020   29.0820   47.3280 C   0  0  0  0  0  0  0  0  0  0  0  0
   59.2930   27.7330   46.7960 N   0  0  0  0  0  0  0  0  0  0  0  0
   60.2230   27.6390   45.6430 C   0  0  0  0  0  0  0  0  0  0  0  0
   60.6160   28.9840   45.0150 C   0  0  0  0  0  0  0  0  0  0  0  0
   58.1300   26.8180   46.7470 C   0  0  0  0  0  0  0  0  0  0  0  0
   56.8960   27.3890   46.0280 C   0  0  0  0  0  0  0  0  0  0  0  0
   57.2720   28.3700   45.0100 N   0  0  0  0  0  0  0  0  0  0  0  0
   56.3840   29.4180   44.5910 C   0  0  0  0  0  0  0  0  0  0  0  0
   55.1570   29.3550   44.8780 O   0  0  0  0  0  0  0  0  0  0  0  0
   56.8970   30.5840   43.8330 C   0  0  0  0  0  0  0  0  0  0  0  0
   56.7660   30.6120   42.4330 C   0  0  0  0  0  0  0  0  0  0  0  0
   57.3130   31.6600   41.6880 C   0  0  0  0  0  0  0  0  0  0  0  0
   58.0080   32.6870   42.3300 C   0  0  0  0  0  0  0  0  0  0  0  0
   58.1450   32.6750   43.7180 C   0  0  0  0  0  0  0  0  0  0  0  0
   57.5800   31.6430   44.4800 C   0  0  0  0  0  0  0  0  0  0  0  0
   57.6950   31.6990   45.9080 N   0  0  0  0  0  0  0  0  0  0  0  0
   58.6510   32.5300   46.5940 C   0  0  0  0  0  0  0  0  0  0  0  0
   59.9720   32.0800   46.7420 C   0  0  0  0  0  0  0  0  0  0  0  0
   60.9280   32.8830   47.3710 C   0  0  0  0  0  0  0  0  0  0  0  0
   60.5750   34.1470   47.8490 C   0  0  0  0  0  0  0  0  0  0  0  0
   59.2640   34.6060   47.7070 C   0  0  0  0  0  0  0  0  0  0  0  0
   58.3030   33.8040   47.0840 C   0  0  0  0  0  0  0  0  0  0  0  0
   58.6504   28.9834   49.4559 H   0  0  0  0  0  0  0  0  0  0  0  0
   60.3094   28.5157   48.9502 H   0  0  0  0  0  0  0  0  0  0  0  0
   59.8245   30.2453   48.9502 H   0  0  0  0  0  0  0  0  0  0  0  0
   57.9166   29.2569   47.2907 H   0  0  0  0  0  0  0  0  0  0  0  0
   59.5333   29.8232   46.7129 H   0  0  0  0  0  0  0  0  0  0  0  0
   61.1420   27.1408   45.9856 H   0  0  0  0  0  0  0  0  0  0  0  0
   59.6882   27.0794   44.8615 H   0  0  0  0  0  0  0  0  0  0  0  0
   60.8288   29.7123   45.8114 H   0  0  0  0  0  0  0  0  0  0  0  0
   61.5125   28.8497   44.3918 H   0  0  0  0  0  0  0  0  0  0  0  0
   59.7883   29.3535   44.3918 H   0  0  0  0  0  0  0  0  0  0  0  0
   58.4374   25.9001   46.2245 H   0  0  0  0  0  0  0  0  0  0  0  0
   57.8288   26.6405   47.7900 H   0  0  0  0  0  0  0  0  0  0  0  0
   56.3509   26.5646   45.5452 H   0  0  0  0  0  0  0  0  0  0  0  0
   56.2650   27.8929   46.7750 H   0  0  0  0  0  0  0  0  0  0  0  0
   58.2720   28.4090   44.7120 H   0  0  0  0  0  0  0  0  0  0  0  0
   56.2280   29.8014   41.9197 H   0  0  0  0  0  0  0  0  0  0  0  0
   57.1960   31.6760   40.5944 H   0  0  0  0  0  0  0  0  0  0  0  0
   58.4475   33.5055   41.7411 H   0  0  0  0  0  0  0  0  0  0  0  0
   58.7007   33.4816   44.2185 H   0  0  0  0  0  0  0  0  0  0  0  0
   57.1430   31.0070   46.4650 H   0  0  0  0  0  0  0  0  0  0  0  0
   60.2572   31.0885   46.3604 H   0  0  0  0  0  0  0  0  0  0  0  0
   61.9592   32.5190   47.4896 H   0  0  0  0  0  0  0  0  0  0  0  0
   61.3298   34.7809   48.3373 H   0  0  0  0  0  0  0  0  0  0  0  0
   58.9867   35.6007   48.0861 H   0  0  0  0  0  0  0  0  0  0  0  0
   57.2711   34.1693   46.9761 H   0  0  0  0  0  0  0  0  0  0  0  0
  1  2  1  0
  2  3  1  0
  3  4  1  0
  4  5  1  0
  3  6  1  0
  6  7  1  0
  7  8  1  0
  8  9  1  0
  9 10  2  0
  9 11  1  0
 11 12  2  0
 12 13  1  0
 13 14  2  0
 14 15  1  0
 15 16  2  0
 16 17  1  0
 17 18  1  0
 18 19  2  0
 19 20  1  0
 20 21  2  0
 21 22  1  0
 22 23  2  0
 16 11  1  0
 23 18  1  0
  1 24  1  0
  1 25  1  0
  1 26  1  0
  2 27  1  0
  2 28  1  0
  4 29  1  0
  4 30  1  0
  5 31  1  0
  5 32  1  0
  5 33  1  0
  6 34  1  0
  6 35  1  0
  7 36  1  0
  7 37  1  0
  8 38  1  0
 12 39  1  0
 13 40  1  0
 14 41  1  0
 15 42  1  0
 17 43  1  0
 19 44  1  0
 20 45  1  0
 21 46  1  0
 22 47  1  0
 23 48  1  0
M  END
>  <UniqueID>  (7) 
7

>  <SMILES>  (7) 
CCN(CC)CCNC(=O)c1ccccc1Nc1ccccc1

>  <Energy>  (7) 
59.36360989035542

>  <Genealogy>  (7) 
CCN(CC)CCNC(=O)c1ccccc1Nc1ccccc1 (3D coordinates assigned)
CCN(CC)CCNC(=O)c1ccccc1Nc1ccccc1 (optimized conformer: 59.36360989035542 kcal/mol)

>  <smiles>  (7) 
CCN(CC)CCNC(=O)c1ccccc1Nc1ccccc1

>  <score_type>  (7) 
oracle

>  <origin>  (7) 
adg

>  <m_score__min__energy>  (7) 
-7.04

>  <m_primary>  (7) 
energy

$$$$
7:0
     RDKit          3D

 58 62  0  0  0  0  0  0  0  0999 V2000
   56.2580   30.0140   42.6630 C   0  0  0  0  0  0  0  0  0  0  0  0
   55.8430   30.0510   44.1250 C   0  0  0  0  0  0  0  0  0  0  0  0
   56.7410   30.8700   44.8750 O   0  0  0  0  0  0  0  0  0  0  0  0
   58.0740   31.0940   44.5060 C   0  0  0  0  0  0  0  0  0  0  0  0
   58.3450   31.6360   43.4050 O   0  0  0  0  0  0  0  0  0  0  0  0
   59.2010   30.7200   45.4420 C   0  0  1  0  0  0  0  0  0  0  0  0
   58.8660   30.9480   46.9180 C   0  0  2  0  0  0  0  0  0  0  0  0
   58.9560   32.3610   47.4880 C   0  0  0  0  0  0  0  0  0  0  0  0
   58.4770   32.3150   48.9520 C   0  0  0  0  0  0  0  0  0  0  0  0
   58.9430   31.0890   49.7320 C   0  0  0  0  0  0  0  0  0  0  0  0
   58.6930   31.0300   51.1110 C   0  0  0  0  0  0  0  0  0  0  0  0
   59.1730   29.9630   51.8800 C   0  0  0  0  0  0  0  0  0  0  0  0
   59.9600   28.9590   51.2870 C   0  0  0  0  0  0  0  0  0  0  0  0
   60.5050   27.9040   52.0230 O   0  0  0  0  0  0  0  0  0  0  0  0
   61.1500   26.7690   51.4460 C   0  0  0  0  0  0  0  0  0  0  0  0
   60.2040   29.0110   49.9100 C   0  0  0  0  0  0  0  0  0  0  0  0
   59.6030   30.0020   49.1050 C   0  0  0  0  0  0  0  0  0  0  0  0
   59.8760   30.0630   47.6180 C   0  0  1  0  0  0  0  0  0  0  0  0
   59.8090   28.8280   46.8400 N   0  0  0  0  0  0  0  0  0  0  0  0
   58.9180   27.7330   47.1250 C   0  0  0  0  0  0  0  0  0  0  0  0
   58.9390   27.0700   48.2030 O   0  0  0  0  0  0  0  0  0  0  0  0
   58.0640   27.3930   46.0440 N   0  0  0  0  0  0  0  0  0  0  0  0
   57.4700   26.1080   45.8190 C   0  0  0  0  0  0  0  0  0  0  0  0
   58.2530   25.0300   45.3820 C   0  0  0  0  0  0  0  0  0  0  0  0
   57.6640   23.7880   45.1300 C   0  0  0  0  0  0  0  0  0  0  0  0
   56.2900   23.6120   45.3340 C   0  0  0  0  0  0  0  0  0  0  0  0
   55.5080   24.6810   45.7810 C   0  0  0  0  0  0  0  0  0  0  0  0
   56.0950   25.9320   46.0120 C   0  0  0  0  0  0  0  0  0  0  0  0
   58.4740   28.2660   44.9980 C   0  0  0  0  0  0  0  0  0  0  0  0
   58.0550   28.1590   43.8120 O   0  0  0  0  0  0  0  0  0  0  0  0
   59.5890   29.1970   45.4280 C   0  0  1  0  0  0  0  0  0  0  0  0
   60.8620   28.9200   44.6120 C   0  0  0  0  0  0  0  0  0  0  0  0
   57.3515   29.9165   42.5946 H   0  0  0  0  0  0  0  0  0  0  0  0
   55.7816   29.1548   42.1683 H   0  0  0  0  0  0  0  0  0  0  0  0
   55.9411   30.9440   42.1683 H   0  0  0  0  0  0  0  0  0  0  0  0
   54.8258   30.4622   44.2031 H   0  0  0  0  0  0  0  0  0  0  0  0
   55.8685   29.0286   44.5300 H   0  0  0  0  0  0  0  0  0  0  0  0
   60.0082   31.3644   45.0635 H   0  0  0  0  0  0  0  0  0  0  0  0
   57.7976   30.7304   47.0635 H   0  0  0  0  0  0  0  0  0  0  0  0
   59.9968   32.7147   47.4466 H   0  0  0  0  0  0  0  0  0  0  0  0
   58.3297   33.0500   46.9024 H   0  0  0  0  0  0  0  0  0  0  0  0
   58.8536   33.2122   49.4651 H   0  0  0  0  0  0  0  0  0  0  0  0
   57.3785   32.2668   48.9204 H   0  0  0  0  0  0  0  0  0  0  0  0
   58.1135   31.8308   51.5935 H   0  0  0  0  0  0  0  0  0  0  0  0
   58.9337   29.9095   52.9523 H   0  0  0  0  0  0  0  0  0  0  0  0
   61.5228   26.1129   52.2463 H   0  0  0  0  0  0  0  0  0  0  0  0
   60.4313   26.2159   50.8235 H   0  0  0  0  0  0  0  0  0  0  0  0
   61.9930   27.1034   50.8235 H   0  0  0  0  0  0  0  0  0  0  0  0
   60.8731   28.2696   49.4490 H   0  0  0  0  0  0  0  0  0  0  0  0
   60.9183   30.4144   47.6319 H   0  0  0  0  0  0  0  0  0  0  0  0
   59.3353   25.1625   45.2369 H   0  0  0  0  0  0  0  0  0  0  0  0
   58.2792   22.9495   44.7717 H   0  0  0  0  0  0  0  0  0  0  0  0
   55.8262   22.6331   45.1426 H   0  0  0  0  0  0  0  0  0  0  0  0
   54.4305   24.5398   45.9516 H   0  0  0  0  0  0  0  0  0  0  0  0
   55.4745   26.7768   46.3454 H   0  0  0  0  0  0  0  0  0  0  0  0
   61.7036   28.7369   45.2963 H   0  0  0  0  0  0  0  0  0  0  0  0
   60.7057   28.0348   43.9779 H   0  0  0  0  0  0  0  0  0  0  0  0
   61.0876   29.7901   43.9779 H   0  0  0  0  0  0  0  0  0  0  0  0
  1  2  1  0
  2  3  1  0
  3  4  1  0
  4  5  2  0
  4  6  1  0
  6  7  1  0
  7  8  1  0
  8  9  1  0
  9 10  1  0
 10 11  2  0
 11 12  1  0
 12 13  2  0
 13 14  1  0
 14 15  1  0
 13 16  1  0
 16 17  2  0
 17 18  1  0
 18 19  1  0
 19 20  1  0
 20 21  2  0
 20 22  1  0
 22 23  1  0
 23 24  2  0
 24 25  1  0
 25 26  2  0
 26 27  1  0
 27 28  2  0
 22 29  1  0
 29 30  2  0
 29 31  1  0
 31 32  1  6
 31  6  1  0
 18  7  1  0
 31 19  1  0
 17 10  1  0
 28 23  1  0
  1 33  1  0
  1 34  1  0
  1 35  1  0
  2 36  1  0
  2 37  1  0
  6 38  1  6
  7 39  1  6
  8 40  1  0
  8 41  1  0
  9 42  1  0
  9 43  1  0
 11 44  1  0
 12 45  1  0
 15 46  1  0
 15 47  1  0
 15 48  1  0
 16 49  1  0
 18 50  1  1
 24 51  1  0
 25 52  1  0
 26 53  1  0
 27 54  1  0
 28 55  1  0
 32 56  1  0
 32 57  1  0
 32 58  1  0
M  END
>  <UniqueID>  (8) 
8

>  <SMILES>  (8) 
CCOC(=O)[C@H]1[C@@H]2CCc3ccc(OC)cc3C2N2C(=O)N(c3ccccc3)C(=O)C12C

>  <Energy>  (8) 
111.7049455549135

>  <Genealogy>  (8) 
CCOC(=O)[C@H]1[C@@H]2CCc3ccc(OC)cc3C2N2C(=O)N(c3ccccc3)C(=O)C12C (chirality)
CCOC(=O)[C@H]1[C@@H]2CCc3ccc(OC)cc3C2N2C(=O)N(c3ccccc3)C(=O)C12C (3D coordinates assigned)
CCOC(=O)[C@H]1[C@@H]2CCc3ccc(OC)cc3C2N2C(=O)N(c3ccccc3)C(=O)C12C (nonaromatic ring conformer: 111.7049455549135 kcal/mol)

>  <smiles>  (8) 
CCOC(=O)C1C2CCc3ccc(OC)cc3C2N2C(=O)N(c3ccccc3)C(=O)C12C

>  <score_type>  (8) 
oracle

>  <origin>  (8) 
adg

>  <m_score__min__energy>  (8) 
-7.7599999999999998

>  <m_primary>  (8) 
energy

$$$$
8:0
     RDKit          3D

 33 34  0  0  0  0  0  0  0  0999 V2000
   56.7790   34.5800   44.9050 C   0  0  0  0  0  0  0  0  0  0  0  0
   57.4980   33.7940   45.9360 C   0  0  0  0  0  0  0  0  0  0  0  0
   58.6020   32.9620   45.3510 N   0  0  0  0  0  0  0  0  0  0  0  0
   58.2490   32.3990   44.1080 C   0  0  0  0  0  0  0  0  0  0  0  0
   57.3290   31.3180   43.9260 C   0  0  0  0  0  0  0  0  0  0  0  0
   56.8910   30.7990   42.7130 C   0  0  0  0  0  0  0  0  0  0  0  0
   55.9980   29.8110   42.9340 N   0  0  0  0  0  0  0  0  0  0  0  0
   55.8760   29.7110   44.2610 C   0  0  0  0  0  0  0  0  0  0  0  0
   56.6640   30.6050   44.8950 N   0  0  0  0  0  0  0  0  0  0  0  0
   59.8040   32.9030   46.0850 C   0  0  0  0  0  0  0  0  0  0  0  0
   60.1570   31.7230   46.7480 C   0  0  0  0  0  0  0  0  0  0  0  0
   61.3600   31.6220   47.4600 C   0  0  0  0  0  0  0  0  0  0  0  0
   62.2480   32.6680   47.5450 C   0  0  0  0  0  0  0  0  0  0  0  0
   63.5140   32.5700   48.2890 C   0  0  0  0  0  0  0  0  0  0  0  0
   61.9130   33.8220   46.9030 C   0  0  0  0  0  0  0  0  0  0  0  0
   60.7160   33.9280   46.1910 C   0  0  0  0  0  0  0  0  0  0  0  0
   56.1143   35.3066   45.3952 H   0  0  0  0  0  0  0  0  0  0  0  0
   57.5073   35.1145   44.2774 H   0  0  0  0  0  0  0  0  0  0  0  0
   56.1819   33.9021   44.2774 H   0  0  0  0  0  0  0  0  0  0  0  0
   57.9300   34.4878   46.6723 H   0  0  0  0  0  0  0  0  0  0  0  0
   56.7739   33.1110   46.4042 H   0  0  0  0  0  0  0  0  0  0  0  0
   57.8438   33.2315   43.5140 H   0  0  0  0  0  0  0  0  0  0  0  0
   59.1932   31.9015   43.8415 H   0  0  0  0  0  0  0  0  0  0  0  0
   57.2224   31.1420   41.7218 H   0  0  0  0  0  0  0  0  0  0  0  0
   55.5100   29.2470   42.1830 H   0  0  0  0  0  0  0  0  0  0  0  0
   55.2178   28.9923   44.7712 H   0  0  0  0  0  0  0  0  0  0  0  0
   59.4780   30.8584   46.7099 H   0  0  0  0  0  0  0  0  0  0  0  0
   61.6012   30.6760   47.9668 H   0  0  0  0  0  0  0  0  0  0  0  0
   63.3067   32.5860   49.3692 H   0  0  0  0  0  0  0  0  0  0  0  0
   64.0215   31.6299   48.0270 H   0  0  0  0  0  0  0  0  0  0  0  0
   64.1601   33.4208   48.0270 H   0  0  0  0  0  0  0  0  0  0  0  0
   62.5957   34.6835   46.9460 H   0  0  0  0  0  0  0  0  0  0  0  0
   60.4906   34.8804   45.6889 H   0  0  0  0  0  0  0  0  0  0  0  0
  1  2  1  0
  2  3  1  0
  3  4  1  0
  4  5  1  0
  5  6  2  0
  6  7  1  0
  7  8  1  0
  8  9  2  0
  3 10  1  0
 10 11  2  0
 11 12  1  0
 12 13  2  0
 13 14  1  0
 13 15  1  0
 15 16  2  0
  9  5  1  0
 16 10  1  0
  1 17  1  0
  1 18  1  0
  1 19  1  0
  2 20  1  0
  2 21  1  0
  4 22  1  0
  4 23  1  0
  6 24  1  0
  7 25  1  0
  8 26  1  0
 11 27  1  0
 12 28  1  0
 14 29  1  0
 14 30  1  0
 14 31  1  0
 15 32  1  0
 16 33  1  0
M  END
>  <smiles>  (9) 
CCN(Cc1c[nH]cn1)c1ccc(C)cc1

>  <score_type>  (9) 
oracle

>  <origin>  (9) 
adg

>  <m_score__min__energy>  (9) 
-6.1399999999999997

>  <m_primary>  (9) 
energy

$$$$
9:0
     RDKit          3D

 36 38  0  0  0  0  0  0  0  0999 V2000
   59.6510   35.5960   45.7140 C   0  0  0  0  0  0  0  0  0  0  0  0
   59.2980   34.3760   44.8660 C   0  0  0  0  0  0  0  0  0  0  0  0
   57.9290   33.7790   45.2240 C   0  0  0  0  0  0  0  0  0  0  0  0
   58.0520   32.5120   45.9680 N   0  0  0  0  0  0  0  0  0  0  0  0
   58.5270   32.5870   47.3170 C   0  0  0  0  0  0  0  0  0  0  0  0
   57.7120   32.7370   48.2660 O   0  0  0  0  0  0  0  0  0  0  0  0
   59.9710   32.6220   47.5660 C   0  0  0  0  0  0  0  0  0  0  0  0
   60.5540   33.7410   48.1800 C   0  0  0  0  0  0  0  0  0  0  0  0
   61.9450   33.8460   48.2670 C   0  0  0  0  0  0  0  0  0  0  0  0
   62.7570   32.8370   47.7410 C   0  0  0  0  0  0  0  0  0  0  0  0
   62.1790   31.7090   47.1520 C   0  0  0  0  0  0  0  0  0  0  0  0
   60.7860   31.5970   47.0690 C   0  0  0  0  0  0  0  0  0  0  0  0
   60.0690   30.0810   46.5550 S   0  0  0  0  0  0  0  0  0  0  0  0
   59.6140   29.1860   47.9010 O   0  0  0  0  0  0  0  0  0  0  0  0
   58.7410   30.1570   45.4000 C   0  0  0  0  0  0  0  0  0  0  0  0
   58.5510   29.0220   44.5990 C   0  0  0  0  0  0  0  0  0  0  0  0
   57.4470   28.9210   43.7530 C   0  0  0  0  0  0  0  0  0  0  0  0
   56.5090   29.9490   43.7100 C   0  0  0  0  0  0  0  0  0  0  0  0
   56.6920   31.0950   44.4830 C   0  0  0  0  0  0  0  0  0  0  0  0
   57.8220   31.2410   45.3130 C   0  0  0  0  0  0  0  0  0  0  0  0
   59.5757   35.3357   46.7801 H   0  0  0  0  0  0  0  0  0  0  0  0
   60.6785   35.9159   45.4864 H   0  0  0  0  0  0  0  0  0  0  0  0
   58.9530   36.4152   45.4864 H   0  0  0  0  0  0  0  0  0  0  0  0
   59.2851   34.6754   43.8076 H   0  0  0  0  0  0  0  0  0  0  0  0
   60.0575   33.6049   45.0624 H   0  0  0  0  0  0  0  0  0  0  0  0
   57.3783   34.5019   45.8438 H   0  0  0  0  0  0  0  0  0  0  0  0
   57.3958   33.5692   44.2850 H   0  0  0  0  0  0  0  0  0  0  0  0
   59.9159   34.5361   48.5931 H   0  0  0  0  0  0  0  0  0  0  0  0
   62.4010   34.7230   48.7496 H   0  0  0  0  0  0  0  0  0  0  0  0
   63.8519   32.9309   47.7907 H   0  0  0  0  0  0  0  0  0  0  0  0
   62.8193   30.9084   46.7532 H   0  0  0  0  0  0  0  0  0  0  0  0
   60.4500   29.0790   48.4210 H   0  0  0  0  0  0  0  0  0  0  0  0
   59.2819   28.2009   44.6384 H   0  0  0  0  0  0  0  0  0  0  0  0
   57.3174   28.0304   43.1205 H   0  0  0  0  0  0  0  0  0  0  0  0
   55.6224   29.8570   43.0654 H   0  0  0  0  0  0  0  0  0  0  0  0
   55.9419   31.8987   44.4445 H   0  0  0  0  0  0  0  0  0  0  0  0
  1  2  1  0
  2  3  1  0
  3  4  1  0
  4  5  1  0
  5  6  2  0
  5  7  1  0
  7  8  2  0
  8  9  1  0
  9 10  2  0
 10 11  1  0
 11 12  2  0
 12 13  1  0
 13 14  1  1
 13 15  1  0
 15 16  2  0
 16 17  1  0
 17 18  2  0
 18 19  1  0
 19 20  2  0
 20  4  1  0
 12  7  1  0
 20 15  1  0
  1 21  1  0
  1 22  1  0
  1 23  1  0
  2 24  1  0
  2 25  1  0
  3 26  1  0
  3 27  1  0
  8 28  1  0
  9 29  1  0
 10 30  1  0
 11 31  1  0
 14 32  1  0
 16 33  1  0
 17 34  1  0
 18 35  1  0
 19 36  1  0
M  CHG  1  13   1
M  END
>  <UniqueID>  (10) 
9

>  <SMILES>  (10) 
CCCN1C(=O)c2ccccc2[S@@+](O)c2ccccc21

>  <Energy>  (10) 
59.353532466172254

>  <Genealogy>  (10) 
CCCN1C(=O)c2ccccc2[S+](O)c2ccccc21 (protonated)
CCCN1C(=O)c2ccccc2[S@@+](O)c2ccccc21 (chirality)
CCCN1C(=O)c2ccccc2[S@@+](O)c2ccccc21 (3D coordinates assigned)
CCCN1C(=O)c2ccccc2[S@@+](O)c2ccccc21 (nonaromatic ring conformer: 59.353532466172254 kcal/mol)

>  <smiles>  (10) 
CCCN1C(=O)c2ccccc2[S+]([O-])c2ccccc21

>  <score_type>  (10) 
oracle

>  <origin>  (10) 
adg

>  <m_score__min__energy>  (10) 
-5.7199999999999998

>  <m_primary>  (10) 
energy

$$$$
10:0
     RDKit          3D

 36 37  0  0  0  0  0  0  0  0999 V2000
   60.6800   25.9840   46.4300 C   0  0  0  0  0  0  0  0  0  0  0  0
   59.3250   26.3720   46.2350 O   0  0  0  0  0  0  0  0  0  0  0  0
   58.9170   27.6240   45.7440 C   0  0  0  0  0  0  0  0  0  0  0  0
   59.8420   28.6300   45.4100 C   0  0  0  0  0  0  0  0  0  0  0  0
   59.4020   29.8570   44.9120 C   0  0  0  0  0  0  0  0  0  0  0  0
   58.0330   30.1090   44.7460 C   0  0  0  0  0  0  0  0  0  0  0  0
   57.5740   31.4360   44.1910 C   0  0  0  0  0  0  0  0  0  0  0  0
   57.2810   32.3810   45.2860 N   0  0  0  0  0  0  0  0  0  0  0  0
   57.3730   33.7970   44.8480 C   0  0  0  0  0  0  0  0  0  0  0  0
   58.6320   34.4930   45.3930 C   0  0  0  0  0  0  0  0  0  0  0  0
   58.7080   34.4850   46.8110 O   0  0  0  0  0  0  0  0  0  0  0  0
   58.1770   33.3050   47.4060 C   0  0  0  0  0  0  0  0  0  0  0  0
   58.1260   32.0920   46.4640 C   0  0  0  0  0  0  0  0  0  0  0  0
   57.0990   29.1140   45.0970 C   0  0  0  0  0  0  0  0  0  0  0  0
   55.7310   29.3540   44.9390 O   0  0  0  0  0  0  0  0  0  0  0  0
   55.1770   29.7020   43.6760 C   0  0  0  0  0  0  0  0  0  0  0  0
   57.5450   27.8700   45.5820 C   0  0  0  0  0  0  0  0  0  0  0  0
   56.2810   26.4850   45.9880 Br  0  0  0  0  0  0  0  0  0  0  0  0
   60.8925   25.9231   47.5076 H   0  0  0  0  0  0  0  0  0  0  0  0
   60.8503   25.0010   45.9666 H   0  0  0  0  0  0  0  0  0  0  0  0
   61.3447   26.7279   45.9666 H   0  0  0  0  0  0  0  0  0  0  0  0
   60.9188   28.4482   45.5422 H   0  0  0  0  0  0  0  0  0  0  0  0
   60.1354   30.6329   44.6475 H   0  0  0  0  0  0  0  0  0  0  0  0
   58.3663   31.8552   43.5534 H   0  0  0  0  0  0  0  0  0  0  0  0
   56.6579   31.2779   43.6030 H   0  0  0  0  0  0  0  0  0  0  0  0
   57.3995   33.8268   43.7487 H   0  0  0  0  0  0  0  0  0  0  0  0
   56.4951   34.3301   45.2418 H   0  0  0  0  0  0  0  0  0  0  0  0
   59.5172   33.9770   44.9928 H   0  0  0  0  0  0  0  0  0  0  0  0
   58.5867   35.5450   45.0747 H   0  0  0  0  0  0  0  0  0  0  0  0
   58.8034   33.0434   48.2716 H   0  0  0  0  0  0  0  0  0  0  0  0
   57.1375   33.5322   47.6849 H   0  0  0  0  0  0  0  0  0  0  0  0
   59.1456   31.8531   46.1273 H   0  0  0  0  0  0  0  0  0  0  0  0
   57.6944   31.2391   47.0084 H   0  0  0  0  0  0  0  0  0  0  0  0
   54.2544   30.2815   43.8274 H   0  0  0  0  0  0  0  0  0  0  0  0
   55.9018   30.3073   43.1119 H   0  0  0  0  0  0  0  0  0  0  0  0
   54.9463   28.7862   43.1119 H   0  0  0  0  0  0  0  0  0  0  0  0
  1  2  1  0
  2  3  1  0
  3  4  2  0
  4  5  1  0
  5  6  2  0
  6  7  1  0
  7  8  1  0
  8  9  1  0
  9 10  1  0
 10 11  1  0
 11 12  1  0
 12 13  1  0
  6 14  1  0
 14 15  1  0
 15 16  1  0
 14 17  2  0
 17 18  1  0
 17  3  1  0
 13  8  1  0
  1 19  1  0
  1 20  1  0
  1 21  1  0
  4 22  1  0
  5 23  1  0
  7 24  1  0
  7 25  1  0
  9 26  1  0
  9 27  1  0
 10 28  1  0
 10 29  1  0
 12 30  1  0
 12 31  1  0
 13 32  1  0
 13 33  1  0
 16 34  1  0
 16 35  1  0
 16 36  1  0
M  END
>  <UniqueID>  (11) 
10

>  <SMILES>  (11) 
COc1ccc(CN2CCOCC2)c(OC)c1Br

>  <Energy>  (11) 
55.23777557880887

>  <Genealogy>  (11) 
COc1ccc(CN2CCOCC2)c(OC)c1Br (3D coordinates assigned)
COc1ccc(CN2CCOCC2)c(OC)c1Br (nonaromatic ring conformer: 55.23777557880887 kcal/mol)

>  <smiles>  (11) 
COc1ccc(CN2CCOCC2)c(OC)c1Br

>  <score_type>  (11) 
oracle

>  <origin>  (11) 
adg

>  <m_score__min__energy>  (11) 
-6.1699999999999999

>  <m_primary>  (11) 
energy

$$$$
11:0
     RDKit          3D

 37 38  0  0  0  0  0  0  0  0999 V2000
   55.3240   29.7160   43.7100 C   0  0  0  0  0  0  0  0  0  0  0  0
   55.7140   29.0520   44.9090 O   0  0  0  0  0  0  0  0  0  0  0  0
   57.0250   29.0160   45.4120 C   0  0  0  0  0  0  0  0  0  0  0  0
   57.8050   30.1850   45.5250 C   0  0  0  0  0  0  0  0  0  0  0  0
   59.1140   30.1190   46.0060 C   0  0  0  0  0  0  0  0  0  0  0  0
   59.6640   28.8930   46.3740 C   0  0  0  0  0  0  0  0  0  0  0  0
   58.9050   27.7260   46.2710 C   0  0  0  0  0  0  0  0  0  0  0  0
   57.5760   27.7760   45.8080 C   0  0  0  0  0  0  0  0  0  0  0  0
   56.7800   26.4910   45.6710 C   0  0  2  0  0  0  0  0  0  0  0  0
   55.4300   26.7150   45.9910 O   0  0  0  0  0  0  0  0  0  0  0  0
   57.3620   25.4140   46.5980 C   0  0  0  0  0  0  0  0  0  0  0  0
   56.2940   24.6700   47.2560 N   0  0  0  0  0  0  0  0  0  0  0  0
   56.2700   23.2440   47.3720 C   0  0  0  0  0  0  0  0  0  0  0  0
   56.9610   22.6590   48.2500 O   0  0  0  0  0  0  0  0  0  0  0  0
   55.3740   22.4480   46.4800 C   0  0  0  0  0  0  0  0  0  0  0  0
   55.9000   22.4590   45.1180 N   0  0  0  0  0  0  0  0  0  0  0  0
   55.6720   23.4030   44.1850 C   0  0  0  0  0  0  0  0  0  0  0  0
   56.2580   23.0270   42.9930 C   0  0  0  0  0  0  0  0  0  0  0  0
   56.8520   21.7990   43.2140 C   0  0  0  0  0  0  0  0  0  0  0  0
   56.6070   21.4730   44.5330 C   0  0  0  0  0  0  0  0  0  0  0  0
   54.7817   30.6393   43.9619 H   0  0  0  0  0  0  0  0  0  0  0  0
   56.2191   29.9655   43.1213 H   0  0  0  0  0  0  0  0  0  0  0  0
   54.6702   29.0558   43.1213 H   0  0  0  0  0  0  0  0  0  0  0  0
   57.3792   31.1560   45.2321 H   0  0  0  0  0  0  0  0  0  0  0  0
   59.7127   31.0375   46.0947 H   0  0  0  0  0  0  0  0  0  0  0  0
   60.6980   28.8445   46.7463 H   0  0  0  0  0  0  0  0  0  0  0  0
   59.3484   26.7598   46.5537 H   0  0  0  0  0  0  0  0  0  0  0  0
   56.8446   26.1464   44.6284 H   0  0  0  0  0  0  0  0  0  0  0  0
   55.1400   27.5070   45.4670 H   0  0  0  0  0  0  0  0  0  0  0  0
   57.9741   24.7189   46.0046 H   0  0  0  0  0  0  0  0  0  0  0  0
   57.9782   25.9035   47.3665 H   0  0  0  0  0  0  0  0  0  0  0  0
   55.3230   21.4112   46.8440 H   0  0  0  0  0  0  0  0  0  0  0  0
   54.3673   22.8912   46.4854 H   0  0  0  0  0  0  0  0  0  0  0  0
   55.1054   24.3317   44.3479 H   0  0  0  0  0  0  0  0  0  0  0  0
   56.2531   23.5944   42.0507 H   0  0  0  0  0  0  0  0  0  0  0  0
   57.4112   21.1982   42.4816 H   0  0  0  0  0  0  0  0  0  0  0  0
   56.9384   20.5494   45.0301 H   0  0  0  0  0  0  0  0  0  0  0  0
  1  2  1  0
  2  3  1  0
  3  4  2  0
  4  5  1  0
  5  6  2  0
  6  7  1  0
  7  8  2  0
  8  9  1  0
  9 10  1  0
  9 11  1  0
 11 12  1  0
 12 13  1  0
 13 14  2  0
 13 15  1  0
 15 16  1  0
 16 17  1  0
 17 18  2  0
 18 19  1  0
 19 20  2  0
  8  3  1  0
 20 16  1  0
  1 21  1  0
  1 22  1  0
  1 23  1  0
  4 24  1  0
  5 25  1  0
  6 26  1  0
  7 27  1  0
  9 28  1  6
 10 29  1  0
 11 30  1  0
 11 31  1  0
 15 32  1  0
 15 33  1  0
 17 34  1  0
 18 35  1  0
 19 36  1  0
 20 37  1  0
M  CHG  1  12  -1
M  END
>  <UniqueID>  (12) 
11

>  <SMILES>  (12) 
COc1ccccc1[C@H](O)C[N-]C(=O)Cn1cccc1

>  <Energy>  (12) 
57.391121145810146

>  <Genealogy>  (12) 
COc1ccccc1C(O)C[N-]C(=O)Cn1cccc1 (protonated)
COc1ccccc1[C@H](O)C[N-]C(=O)Cn1cccc1 (chirality)
COc1ccccc1[C@H](O)C[N-]C(=O)Cn1cccc1 (3D coordinates assigned)
COc1ccccc1[C@H](O)C[N-]C(=O)Cn1cccc1 (optimized conformer: 57.391121145810146 kcal/mol)

>  <smiles>  (12) 
COc1ccccc1C(O)CNC(=O)Cn1cccc1

>  <score_type>  (12) 
oracle

>  <origin>  (12) 
adg

>  <m_score__min__energy>  (12) 
-9.2100000000000009

>  <m_primary>  (12) 
energy

$$$$
12:0
     RDKit          3D

 49 53  0  0  0  0  0  0  0  0999 V2000
   58.1480   27.2970   43.1310 C   0  0  0  0  0  0  0  0  0  0  0  0
   57.4510   28.5300   43.2840 O   0  0  0  0  0  0  0  0  0  0  0  0
   57.7660   29.5050   44.2430 C   0  0  0  0  0  0  0  0  0  0  0  0
   57.7450   30.8820   43.9540 C   0  0  0  0  0  0  0  0  0  0  0  0
   58.0480   31.8260   44.9460 C   0  0  0  0  0  0  0  0  0  0  0  0
   58.3740   31.3920   46.2450 C   0  0  0  0  0  0  0  0  0  0  0  0
   58.6660   32.3200   47.2620 C   0  0  0  0  0  0  0  0  0  0  0  0
   59.1750   31.8810   48.4930 C   0  0  0  0  0  0  0  0  0  0  0  0
   59.2860   30.5070   48.7450 C   0  0  0  0  0  0  0  0  0  0  0  0
   58.9070   29.5760   47.7760 C   0  0  0  0  0  0  0  0  0  0  0  0
   58.4640   30.0070   46.5180 C   0  0  0  0  0  0  0  0  0  0  0  0
   58.1360   29.0780   45.5220 C   0  0  0  0  0  0  0  0  0  0  0  0
   59.6510   32.8660   49.5380 C   0  0  0  0  0  0  0  0  0  0  0  0
   59.6430   34.3640   49.1120 C   0  0  0  0  0  0  0  0  0  0  0  0
   59.4860   34.6080   47.6530 N   0  0  1  0  0  0  0  0  0  0  0  0
   60.7640   34.5910   46.8790 C   0  0  0  0  0  0  0  0  0  0  0  0
   61.8750   33.7260   47.4470 C   0  0  0  0  0  0  0  0  0  0  0  0
   62.7280   34.2170   48.4500 C   0  0  0  0  0  0  0  0  0  0  0  0
   63.7520   33.4170   48.9650 C   0  0  0  0  0  0  0  0  0  0  0  0
   63.9120   32.1060   48.5130 C   0  0  0  0  0  0  0  0  0  0  0  0
   63.0370   31.5880   47.5550 C   0  0  0  0  0  0  0  0  0  0  0  0
   62.0140   32.3870   47.0340 C   0  0  0  0  0  0  0  0  0  0  0  0
   58.3760   33.7870   47.1090 C   0  0  1  0  0  0  0  0  0  0  0  0
   57.8730   34.2260   45.7030 C   0  0  0  0  0  0  0  0  0  0  0  0
   58.2380   33.2710   44.5630 C   0  0  0  0  0  0  0  0  0  0  0  0
   58.3822   26.8827   44.1227 H   0  0  0  0  0  0  0  0  0  0  0  0
   57.5181   26.5861   42.5761 H   0  0  0  0  0  0  0  0  0  0  0  0
   59.0819   27.4701   42.5761 H   0  0  0  0  0  0  0  0  0  0  0  0
   57.4883   31.2215   42.9397 H   0  0  0  0  0  0  0  0  0  0  0  0
   59.6747   30.1593   49.7135 H   0  0  0  0  0  0  0  0  0  0  0  0
   58.9563   28.5003   48.0007 H   0  0  0  0  0  0  0  0  0  0  0  0
   58.1699   28.0021   45.7484 H   0  0  0  0  0  0  0  0  0  0  0  0
   59.0015   32.7626   50.4197 H   0  0  0  0  0  0  0  0  0  0  0  0
   60.7053   32.6150   49.7264 H   0  0  0  0  0  0  0  0  0  0  0  0
   58.8103   34.8608   49.6314 H   0  0  0  0  0  0  0  0  0  0  0  0
   60.6316   34.7631   49.3830 H   0  0  0  0  0  0  0  0  0  0  0  0
   59.1540   35.6020   47.5870 H   0  0  0  0  0  0  0  0  0  0  0  0
   60.5389   34.2270   45.8657 H   0  0  0  0  0  0  0  0  0  0  0  0
   61.1447   35.6225   46.9128 H   0  0  0  0  0  0  0  0  0  0  0  0
   62.5888   35.2388   48.8328 H   0  0  0  0  0  0  0  0  0  0  0  0
   64.4333   33.8214   49.7281 H   0  0  0  0  0  0  0  0  0  0  0  0
   64.7258   31.4817   48.9105 H   0  0  0  0  0  0  0  0  0  0  0  0
   63.1528   30.5500   47.2098 H   0  0  0  0  0  0  0  0  0  0  0  0
   61.3137   31.9668   46.2971 H   0  0  0  0  0  0  0  0  0  0  0  0
   57.4918   33.9883   47.7316 H   0  0  0  0  0  0  0  0  0  0  0  0
   56.7768   34.3088   45.7423 H   0  0  0  0  0  0  0  0  0  0  0  0
   58.3728   35.1801   45.4795 H   0  0  0  0  0  0  0  0  0  0  0  0
   57.5990   33.4943   43.6959 H   0  0  0  0  0  0  0  0  0  0  0  0
   59.3019   33.4198   44.3263 H   0  0  0  0  0  0  0  0  0  0  0  0
  1  2  1  0
  2  3  1  0
  3  4  2  0
  4  5  1  0
  5  6  2  0
  6  7  1  0
  7  8  2  0
  8  9  1  0
  9 10  2  0
 10 11  1  0
 11 12  2  0
  8 13  1  0
 13 14  1  0
 14 15  1  0
 15 16  1  0
 16 17  1  0
 17 18  2  0
 18 19  1  0
 19 20  2  0
 20 21  1  0
 21 22  2  0
 15 23  1  0
 23 24  1  0
 24 25  1  0
 12  3  1  0
 22 17  1  0
 25  5  1  0
 11  6  1  0
 23  7  1  0
  1 26  1  0
  1 27  1  0
  1 28  1  0
  4 29  1  0
  9 30  1  0
 10 31  1  0
 12 32  1  0
 13 33  1  0
 13 34  1  0
 14 35  1  0
 14 36  1  0
 15 37  1  1
 16 38  1  0
 16 39  1  0
 18 40  1  0
 19 41  1  0
 20 42  1  0
 21 43  1  0
 22 44  1  0
 23 45  1  1
 24 46  1  0
 24 47  1  0
 25 48  1  0
 25 49  1  0
M  CHG  1  15   1
M  END
>  <UniqueID>  (13) 
12

>  <SMILES>  (13) 
COc1cc2c3c4c(ccc3c1)CC[N@@H+](Cc1ccccc1)[C@H]4CC2

>  <Energy>  (13) 
80.68977000565079

>  <Genealogy>  (13) 
COc1cc2c3c4c(ccc3c1)CC[NH+](Cc1ccccc1)C4CC2 (protonated)
COc1cc2c3c4c(ccc3c1)CC[N@@H+](Cc1ccccc1)[C@H]4CC2 (chirality)
COc1cc2c3c4c(ccc3c1)CC[N@@H+](Cc1ccccc1)[C@H]4CC2 (3D coordinates assigned)
COc1cc2c3c4c(ccc3c1)CC[N@@H+](Cc1ccccc1)[C@H]4CC2 (nonaromatic ring conformer: 80.68977000565079 kcal/mol)

>  <smiles>  (13) 
COc1cc2c3c4c(ccc3c1)CCN(Cc1ccccc1)C4CC2

>  <score_type>  (13) 
oracle

>  <origin>  (13) 
adg

>  <m_score__min__energy>  (13) 
-6.8899999999999997

>  <m_primary>  (13) 
energy

$$$$
13:0
     RDKit          3D

 26 27  0  0  0  0  0  0  0  0999 V2000
   56.3090   30.0850   43.5370 C   0  0  0  0  0  0  0  0  0  0  0  0
   56.3890   30.5750   44.8560 O   0  0  0  0  0  0  0  0  0  0  0  0
   57.7440   30.7330   45.2140 C   0  0  0  0  0  0  0  0  0  0  0  0
   58.0560   32.1940   45.3020 C   0  0  0  0  0  0  0  0  0  0  0  0
   57.7740   33.1100   44.3620 C   0  0  0  0  0  0  0  0  0  0  0  0
   58.1310   34.4840   44.8730 C   0  0  0  0  0  0  0  0  0  0  0  0
   59.0090   34.1410   45.9820 N   0  0  0  0  0  0  0  0  0  0  0  0
   59.2680   34.9610   47.1470 C   0  0  0  0  0  0  0  0  0  0  0  0
   59.7730   33.9190   48.1760 C   0  0  0  0  0  0  0  0  0  0  0  0
   59.4080   32.5340   47.5770 C   0  0  0  0  0  0  0  0  0  0  0  0
   58.4140   32.9490   46.5260 C   0  0  2  0  0  0  0  0  0  0  0  0
   56.1318   28.9996   43.5592 H   0  0  0  0  0  0  0  0  0  0  0  0
   55.4800   30.5812   43.0112 H   0  0  0  0  0  0  0  0  0  0  0  0
   57.2528   30.2918   43.0112 H   0  0  0  0  0  0  0  0  0  0  0  0
   57.9260   30.2574   46.1890 H   0  0  0  0  0  0  0  0  0  0  0  0
   58.3867   30.2600   44.4568 H   0  0  0  0  0  0  0  0  0  0  0  0
   57.3481   32.8923   43.3714 H   0  0  0  0  0  0  0  0  0  0  0  0
   58.6558   35.0766   44.1092 H   0  0  0  0  0  0  0  0  0  0  0  0
   57.2673   35.1060   45.1506 H   0  0  0  0  0  0  0  0  0  0  0  0
   60.0366   35.7196   46.9377 H   0  0  0  0  0  0  0  0  0  0  0  0
   58.3914   35.5303   47.4896 H   0  0  0  0  0  0  0  0  0  0  0  0
   60.8615   34.0058   48.3084 H   0  0  0  0  0  0  0  0  0  0  0  0
   59.3169   34.0686   49.1657 H   0  0  0  0  0  0  0  0  0  0  0  0
   60.2846   32.0380   47.1348 H   0  0  0  0  0  0  0  0  0  0  0  0
   59.0290   31.8026   48.3059 H   0  0  0  0  0  0  0  0  0  0  0  0
   57.4748   32.9003   47.0965 H   0  0  0  0  0  0  0  0  0  0  0  0
  1  2  1  0
  2  3  1  0
  3  4  1  0
  4  5  2  0
  5  6  1  0
  6  7  1  0
  7  8  1  0
  8  9  1  0
  9 10  1  0
 10 11  1  0
 11  4  1  0
 11  7  1  0
  1 12  1  0
  1 13  1  0
  1 14  1  0
  3 15  1  0
  3 16  1  0
  5 17  1  0
  6 18  1  0
  6 19  1  0
  8 20  1  0
  8 21  1  0
  9 22  1  0
  9 23  1  0
 10 24  1  0
 10 25  1  0
 11 26  1  1
M  END
>  <UniqueID>  (14) 
13

>  <SMILES>  (14) 
COCC1=CCN2CCC[C@H]12

>  <Energy>  (14) 
64.67765438082652

>  <Genealogy>  (14) 
COCC1=CCN2CCC[C@H]12 (chirality)
COCC1=CCN2CCC[C@H]12 (3D coordinates assigned)
COCC1=CCN2CCC[C@H]12 (nonaromatic ring conformer: 64.67765438082652 kcal/mol)

>  <smiles>  (14) 
COCC1=CCN2CCCC12

>  <score_type>  (14) 
oracle

>  <origin>  (14) 
adg

>  <m_score__min__energy>  (14) 
-5.1799999999999997

>  <m_primary>  (14) 
energy

$$$$
14:0
     RDKit          3D

 54 56  0  0  0  0  0  0  0  0999 V2000
   57.5140   25.4970   44.3550 C   0  0  0  0  0  0  0  0  0  0  0  0
   57.1280   26.5890   45.1850 O   0  0  0  0  0  0  0  0  0  0  0  0
   57.9650   27.6610   45.5290 C   0  0  0  0  0  0  0  0  0  0  0  0
   58.9450   28.0580   44.6160 C   0  0  0  0  0  0  0  0  0  0  0  0
   59.8160   29.1040   44.9200 C   0  0  0  0  0  0  0  0  0  0  0  0
   59.7100   29.7850   46.1390 C   0  0  0  0  0  0  0  0  0  0  0  0
   60.6400   30.8340   46.4330 N   0  0  0  0  0  0  0  0  0  0  0  0
   61.5230   30.7970   47.5630 C   0  0  0  0  0  0  0  0  0  0  0  0
   61.5250   29.8010   48.3330 O   0  0  0  0  0  0  0  0  0  0  0  0
   62.4100   31.9760   47.8780 C   0  0  0  0  0  0  0  0  0  0  0  0
   61.9750   33.2320   47.2230 N   0  0  0  0  0  0  0  0  0  0  0  0
   63.0420   33.8060   46.3800 C   0  0  0  0  0  0  0  0  0  0  0  0
   61.4600   34.2120   48.2010 C   0  0  0  0  0  0  0  0  0  0  0  0
   60.0440   33.8940   48.6140 C   0  0  0  0  0  0  0  0  0  0  0  0
   59.8360   33.4150   49.7590 O   0  0  0  0  0  0  0  0  0  0  0  0
   58.9170   34.2670   47.8080 N   0  0  0  0  0  0  0  0  0  0  0  0
   58.5430   33.6910   46.5530 C   0  0  0  0  0  0  0  0  0  0  0  0
   58.9060   34.3440   45.3660 C   0  0  0  0  0  0  0  0  0  0  0  0
   58.5610   33.7990   44.1260 C   0  0  0  0  0  0  0  0  0  0  0  0
   57.8380   32.6070   44.0680 C   0  0  0  0  0  0  0  0  0  0  0  0
   57.4180   31.9830   45.2500 C   0  0  0  0  0  0  0  0  0  0  0  0
   57.7660   32.5220   46.4890 C   0  0  0  0  0  0  0  0  0  0  0  0
   56.6490   30.8200   45.1690 O   0  0  0  0  0  0  0  0  0  0  0  0
   56.0590   30.4120   43.9340 C   0  0  0  0  0  0  0  0  0  0  0  0
   57.0180   30.6850   42.7690 C   0  0  0  0  0  0  0  0  0  0  0  0
   57.5180   32.0230   42.8400 O   0  0  0  0  0  0  0  0  0  0  0  0
   58.7260   29.4010   47.0700 C   0  0  0  0  0  0  0  0  0  0  0  0
   58.6570   30.0790   48.3000 O   0  0  0  0  0  0  0  0  0  0  0  0
   58.9310   29.4900   49.5680 C   0  0  0  0  0  0  0  0  0  0  0  0
   57.8530   28.3410   46.7540 C   0  0  0  0  0  0  0  0  0  0  0  0
   57.8147   24.6464   44.9844 H   0  0  0  0  0  0  0  0  0  0  0  0
   56.6659   25.2015   43.7199 H   0  0  0  0  0  0  0  0  0  0  0  0
   58.3595   25.8001   43.7199 H   0  0  0  0  0  0  0  0  0  0  0  0
   59.0305   27.5411   43.6488 H   0  0  0  0  0  0  0  0  0  0  0  0
   60.5918   29.3962   44.1970 H   0  0  0  0  0  0  0  0  0  0  0  0
   60.5210   31.7390   45.9270 H   0  0  0  0  0  0  0  0  0  0  0  0
   62.4087   32.1321   48.9669 H   0  0  0  0  0  0  0  0  0  0  0  0
   63.4129   31.7396   47.4928 H   0  0  0  0  0  0  0  0  0  0  0  0
   63.8287   34.2292   47.0219 H   0  0  0  0  0  0  0  0  0  0  0  0
   63.4718   33.0173   45.7449 H   0  0  0  0  0  0  0  0  0  0  0  0
   62.6207   34.5992   45.7449 H   0  0  0  0  0  0  0  0  0  0  0  0
   62.1036   34.1979   49.0930 H   0  0  0  0  0  0  0  0  0  0  0  0
   61.4653   35.2051   47.7279 H   0  0  0  0  0  0  0  0  0  0  0  0
   59.4652   35.2902   45.4112 H   0  0  0  0  0  0  0  0  0  0  0  0
   58.8588   34.3087   43.1978 H   0  0  0  0  0  0  0  0  0  0  0  0
   57.4322   32.0319   47.4155 H   0  0  0  0  0  0  0  0  0  0  0  0
   55.8369   29.3355   43.9763 H   0  0  0  0  0  0  0  0  0  0  0  0
   55.1321   30.9826   43.7751 H   0  0  0  0  0  0  0  0  0  0  0  0
   57.8606   29.9797   42.8199 H   0  0  0  0  0  0  0  0  0  0  0  0
   56.4749   30.5561   41.8211 H   0  0  0  0  0  0  0  0  0  0  0  0
   58.6122   30.1753   50.3672 H   0  0  0  0  0  0  0  0  0  0  0  0
   58.3818   28.5411   49.6579 H   0  0  0  0  0  0  0  0  0  0  0  0
   60.0105   29.2988   49.6579 H   0  0  0  0  0  0  0  0  0  0  0  0
   57.0760   28.0427   47.4733 H   0  0  0  0  0  0  0  0  0  0  0  0
  1  2  1  0
  2  3  1  0
  3  4  2  0
  4  5  1  0
  5  6  2  0
  6  7  1  0
  7  8  1  0
  8  9  2  0
  8 10  1  0
 10 11  1  0
 11 12  1  0
 11 13  1  0
 13 14  1  0
 14 15  2  0
 14 16  1  0
 16 17  1  0
 17 18  2  0
 18 19  1  0
 19 20  2  0
 20 21  1  0
 21 22  2  0
 21 23  1  0
 23 24  1  0
 24 25  1  0
 25 26  1  0
  6 27  1  0
 27 28  1  0
 28 29  1  0
 27 30  2  0
 30  3  1  0
 22 17  1  0
 26 20  1  0
  1 31  1  0
  1 32  1  0
  1 33  1  0
  4 34  1  0
  5 35  1  0
  7 36  1  0
 10 37  1  0
 10 38  1  0
 12 39  1  0
 12 40  1  0
 12 41  1  0
 13 42  1  0
 13 43  1  0
 18 44  1  0
 19 45  1  0
 22 46  1  0
 24 47  1  0
 24 48  1  0
 25 49  1  0
 25 50  1  0
 29 51  1  0
 29 52  1  0
 29 53  1  0
 30 54  1  0
M  CHG  1  16  -1
M  END
>  <UniqueID>  (15) 
14

>  <SMILES>  (15) 
COc1ccc(NC(=O)CN(C)CC(=O)[N-]c2ccc3c(c2)OCCO3)c(OC)c1

>  <Energy>  (15) 
65.22500681028609

>  <Genealogy>  (15) 
COc1ccc(NC(=O)CN(C)CC(=O)[N-]c2ccc3c(c2)OCCO3)c(OC)c1 (protonated)
COc1ccc(NC(=O)CN(C)CC(=O)[N-]c2ccc3c(c2)OCCO3)c(OC)c1 (3D coordinates assigned)
COc1ccc(NC(=O)CN(C)CC(=O)[N-]c2ccc3c(c2)OCCO3)c(OC)c1 (nonaromatic ring conformer: 65.22500681028609 kcal/mol)

>  <smiles>  (15) 
COc1ccc(NC(=O)CN(C)CC(=O)Nc2ccc3c(c2)OCCO3)c(OC)c1

>  <score_type>  (15) 
oracle

>  <origin>  (15) 
adg

>  <m_score__min__energy>  (15) 
-9.4600000000000009

>  <m_primary>  (15) 
energy

$$$$
15:0
     RDKit          3D

 46 48  0  0  0  0  0  0  0  0999 V2000
   59.9700   30.6020   46.3520 C   0  0  0  0  0  0  0  0  0  0  0  0
   58.4860   30.9380   46.1690 C   0  0  0  0  0  0  0  0  0  0  0  0
   58.1750   31.8350   45.0220 N   0  0  0  0  0  0  0  0  0  0  0  0
   58.0960   31.1090   43.7210 C   0  0  0  0  0  0  0  0  0  0  0  0
   57.7450   31.9750   42.4970 C   0  0  0  0  0  0  0  0  0  0  0  0
   57.0330   32.7620   45.2510 C   0  0  0  0  0  0  0  0  0  0  0  0
   57.4690   34.2230   45.4640 C   0  0  0  0  0  0  0  0  0  0  0  0
   58.8870   34.3420   45.3350 O   0  0  0  0  0  0  0  0  0  0  0  0
   59.8120   34.2000   46.3830 C   0  0  0  0  0  0  0  0  0  0  0  0
   59.3670   34.4570   47.6980 C   0  0  0  0  0  0  0  0  0  0  0  0
   60.2380   34.3290   48.7920 C   0  0  0  0  0  0  0  0  0  0  0  0
   61.5530   33.9440   48.5450 C   0  0  0  0  0  0  0  0  0  0  0  0
   62.0080   33.6940   47.2650 C   0  0  0  0  0  0  0  0  0  0  0  0
   61.1590   33.8210   46.1660 C   0  0  0  0  0  0  0  0  0  0  0  0
   63.4630   33.3010   47.2660 C   0  0  2  0  0  0  0  0  0  0  0  0
   63.6530   32.0070   46.7500 O   0  0  0  0  0  0  0  0  0  0  0  0
   63.7670   33.3650   48.7400 C   0  0  0  0  0  0  0  0  0  0  0  0
   64.9820   33.1090   49.3760 C   0  0  0  0  0  0  0  0  0  0  0  0
   65.0480   33.2330   50.7750 C   0  0  0  0  0  0  0  0  0  0  0  0
   63.9080   33.6120   51.5110 C   0  0  0  0  0  0  0  0  0  0  0  0
   62.6930   33.8700   50.8560 C   0  0  0  0  0  0  0  0  0  0  0  0
   62.6520   33.7400   49.4680 C   0  0  0  0  0  0  0  0  0  0  0  0
   60.2043   30.5490   47.4255 H   0  0  0  0  0  0  0  0  0  0  0  0
   60.1871   29.6320   45.8810 H   0  0  0  0  0  0  0  0  0  0  0  0
   60.5838   31.3839   45.8810 H   0  0  0  0  0  0  0  0  0  0  0  0
   57.9394   29.9949   46.0212 H   0  0  0  0  0  0  0  0  0  0  0  0
   58.1833   31.4846   47.0743 H   0  0  0  0  0  0  0  0  0  0  0  0
   59.0210   32.4470   44.9320 H   0  0  0  0  0  0  0  0  0  0  0  0
   59.0736   30.6402   43.5350 H   0  0  0  0  0  0  0  0  0  0  0  0
   57.2711   30.3891   43.8273 H   0  0  0  0  0  0  0  0  0  0  0  0
   57.3518   32.9452   42.8349 H   0  0  0  0  0  0  0  0  0  0  0  0
   58.6486   32.1366   41.8909 H   0  0  0  0  0  0  0  0  0  0  0  0
   56.9839   31.4618   41.8909 H   0  0  0  0  0  0  0  0  0  0  0  0
   56.3681   32.7200   44.3757 H   0  0  0  0  0  0  0  0  0  0  0  0
   56.5271   32.4351   46.1714 H   0  0  0  0  0  0  0  0  0  0  0  0
   56.9816   34.8604   44.7116 H   0  0  0  0  0  0  0  0  0  0  0  0
   57.1742   34.5402   46.4752 H   0  0  0  0  0  0  0  0  0  0  0  0
   58.3238   34.7617   47.8679 H   0  0  0  0  0  0  0  0  0  0  0  0
   59.8907   34.5276   49.8167 H   0  0  0  0  0  0  0  0  0  0  0  0
   61.5294   33.6300   45.1480 H   0  0  0  0  0  0  0  0  0  0  0  0
   64.1080   33.9343   46.6391 H   0  0  0  0  0  0  0  0  0  0  0  0
   64.6300   31.8580   46.6460 H   0  0  0  0  0  0  0  0  0  0  0  0
   65.8693   32.8164   48.7954 H   0  0  0  0  0  0  0  0  0  0  0  0
   65.9950   33.0330   51.2978 H   0  0  0  0  0  0  0  0  0  0  0  0
   63.9701   33.7064   52.6052 H   0  0  0  0  0  0  0  0  0  0  0  0
   61.7978   34.1666   51.4223 H   0  0  0  0  0  0  0  0  0  0  0  0
  1  2  1  0
  2  3  1  0
  3  4  1  0
  4  5  1  0
  3  6  1  0
  6  7  1  0
  7  8  1  0
  8  9  1  0
  9 10  2  0
 10 11  1  0
 11 12  2  0
 12 13  1  0
 13 14  2  0
 13 15  1  0
 15 16  1  0
 15 17  1  0
 17 18  2  0
 18 19  1  0
 19 20  2  0
 20 21  1  0
 21 22  2  0
 14  9  1  0
 22 17  1  0
 22 12  1  0
  1 23  1  0
  1 24  1  0
  1 25  1  0
  2 26  1  0
  2 27  1  0
  3 28  1  0
  4 29  1  0
  4 30  1  0
  5 31  1  0
  5 32  1  0
  5 33  1  0
  6 34  1  0
  6 35  1  0
  7 36  1  0
  7 37  1  0
 10 38  1  0
 11 39  1  0
 14 40  1  0
 15 41  1  6
 16 42  1  0
 18 43  1  0
 19 44  1  0
 20 45  1  0
 21 46  1  0
M  CHG  1   3   1
M  END
>  <UniqueID>  (16) 
15

>  <SMILES>  (16) 
CC[NH+](CC)CCOc1ccc2c(c1)[C@H](O)c1ccccc1-2

>  <Energy>  (16) 
77.95558903641157

>  <Genealogy>  (16) 
CC[NH+](CC)CCOc1ccc2c(c1)C(O)c1ccccc1-2 (protonated)
CC[NH+](CC)CCOc1ccc2c(c1)[C@H](O)c1ccccc1-2 (chirality)
CC[NH+](CC)CCOc1ccc2c(c1)[C@H](O)c1ccccc1-2 (3D coordinates assigned)
CC[NH+](CC)CCOc1ccc2c(c1)[C@H](O)c1ccccc1-2 (nonaromatic ring conformer: 77.95558903641157 kcal/mol)

>  <smiles>  (16) 
CCN(CC)CCOc1ccc2c(c1)C(O)c1ccccc1-2

>  <score_type>  (16) 
oracle

>  <origin>  (16) 
adg

>  <m_score__min__energy>  (16) 
-5.3700000000000001

>  <m_primary>  (16) 
energy

$$$$
16:0
     RDKit          3D

 43 44  0  0  0  0  0  0  0  0999 V2000
   60.6380   30.1220   46.7350 C   0  0  0  0  0  0  0  0  0  0  0  0
   59.7770   29.9090   45.5580 N   0  0  0  0  0  0  0  0  0  0  0  0
   60.2630   28.7470   44.7950 C   0  0  0  0  0  0  0  0  0  0  0  0
   58.3600   29.7300   45.9570 C   0  0  0  0  0  0  0  0  0  0  0  0
   57.4290   30.1580   44.8140 C   0  0  0  0  0  0  0  0  0  0  0  0
   57.0700   31.5590   44.9150 N   0  0  0  0  0  0  0  0  0  0  0  0
   57.8690   32.5650   44.7590 C   0  0  0  0  0  0  0  0  0  0  0  0
   57.9380   33.7580   45.6880 C   0  0  1  0  0  0  0  0  0  0  0  0
   57.9920   33.2770   47.1190 C   0  0  0  0  0  0  0  0  0  0  0  0
   56.9510   33.0830   47.7290 O   0  0  0  0  0  0  0  0  0  0  0  0
   59.3100   32.9370   47.7680 C   0  0  0  0  0  0  0  0  0  0  0  0
   60.3520   34.0300   47.4720 C   0  0  1  0  0  0  0  0  0  0  0  0
   61.6910   33.6990   48.1070 C   0  0  0  0  0  0  0  0  0  0  0  0
   62.8130   33.3830   47.3170 C   0  0  0  0  0  0  0  0  0  0  0  0
   64.0400   33.0840   47.9190 C   0  0  0  0  0  0  0  0  0  0  0  0
   64.1620   33.0980   49.3110 C   0  0  0  0  0  0  0  0  0  0  0  0
   65.8390   32.6910   50.1290 Br  0  0  0  0  0  0  0  0  0  0  0  0
   63.0540   33.4100   50.1040 C   0  0  0  0  0  0  0  0  0  0  0  0
   61.8250   33.7080   49.5070 C   0  0  0  0  0  0  0  0  0  0  0  0
   60.4950   34.2570   45.9570 C   0  0  0  0  0  0  0  0  0  0  0  0
   59.1550   34.5840   45.3510 C   0  0  0  0  0  0  0  0  0  0  0  0
   59.0710   35.4770   44.5210 O   0  0  0  0  0  0  0  0  0  0  0  0
   60.0482   29.9761   47.6520 H   0  0  0  0  0  0  0  0  0  0  0  0
   61.4699   29.4026   46.7158 H   0  0  0  0  0  0  0  0  0  0  0  0
   61.0385   31.1463   46.7158 H   0  0  0  0  0  0  0  0  0  0  0  0
   60.5913   27.9619   45.4921 H   0  0  0  0  0  0  0  0  0  0  0  0
   59.4517   28.3590   44.1615 H   0  0  0  0  0  0  0  0  0  0  0  0
   61.1089   29.0521   44.1615 H   0  0  0  0  0  0  0  0  0  0  0  0
   58.1805   28.6711   46.1946 H   0  0  0  0  0  0  0  0  0  0  0  0
   58.1543   30.3532   46.8398 H   0  0  0  0  0  0  0  0  0  0  0  0
   57.9400   29.9886   43.8548 H   0  0  0  0  0  0  0  0  0  0  0  0
   56.5074   29.5609   44.8787 H   0  0  0  0  0  0  0  0  0  0  0  0
   58.5448   32.5522   43.8912 H   0  0  0  0  0  0  0  0  0  0  0  0
   57.0434   34.3859   45.5643 H   0  0  0  0  0  0  0  0  0  0  0  0
   59.1682   32.8566   48.8559 H   0  0  0  0  0  0  0  0  0  0  0  0
   59.6712   31.9806   47.3620 H   0  0  0  0  0  0  0  0  0  0  0  0
   59.9944   34.9681   47.9216 H   0  0  0  0  0  0  0  0  0  0  0  0
   62.7243   33.3712   46.2206 H   0  0  0  0  0  0  0  0  0  0  0  0
   64.9114   32.8371   47.2947 H   0  0  0  0  0  0  0  0  0  0  0  0
   63.1490   33.4211   51.1998 H   0  0  0  0  0  0  0  0  0  0  0  0
   60.9567   33.9512   50.1370 H   0  0  0  0  0  0  0  0  0  0  0  0
   61.1880   35.0924   45.7786 H   0  0  0  0  0  0  0  0  0  0  0  0
   60.8849   33.3396   45.4919 H   0  0  0  0  0  0  0  0  0  0  0  0
  1  2  1  0
  2  3  1  0
  2  4  1  0
  4  5  1  0
  5  6  1  0
  6  7  2  3
  7  8  1  0
  8  9  1  0
  9 10  2  0
  9 11  1  0
 11 12  1  0
 12 13  1  0
 13 14  2  0
 14 15  1  0
 15 16  2  0
 16 17  1  0
 16 18  1  0
 18 19  2  0
 12 20  1  0
 20 21  1  0
 21 22  2  0
 21  8  1  0
 19 13  1  0
  1 23  1  0
  1 24  1  0
  1 25  1  0
  3 26  1  0
  3 27  1  0
  3 28  1  0
  4 29  1  0
  4 30  1  0
  5 31  1  0
  5 32  1  0
  7 33  1  0
  8 34  1  1
 11 35  1  0
 11 36  1  0
 12 37  1  1
 14 38  1  0
 15 39  1  0
 18 40  1  0
 19 41  1  0
 20 42  1  0
 20 43  1  0
M  END
>  <UniqueID>  (17) 
16

>  <SMILES>  (17) 
CN(C)CCN=CC1C(=O)CC(c2ccc(Br)cc2)CC1=O

>  <Energy>  (17) 
41.95942400485105

>  <Genealogy>  (17) 
CN(C)CCN=CC1C(=O)CC(c2ccc(Br)cc2)CC1=O (3D coordinates assigned)
CN(C)CCN=CC1C(=O)CC(c2ccc(Br)cc2)CC1=O (nonaromatic ring conformer: 41.95942400485105 kcal/mol)

>  <smiles>  (17) 
CN(C)CCN=CC1C(=O)CC(c2ccc(Br)cc2)CC1=O

>  <score_type>  (17) 
oracle

>  <origin>  (17) 
adg

>  <m_score__min__energy>  (17) 
-8

>  <m_primary>  (17) 
energy

$$$$
17:0
     RDKit          3D

 60 61  0  0  0  0  0  0  0  0999 V2000
   65.2100   33.0060   50.0580 C   0  0  0  0  0  0  0  0  0  0  0  0
   64.0280   33.2490   50.9990 C   0  0  0  0  0  0  0  0  0  0  0  0
   62.9900   34.2430   50.4300 C   0  0  0  0  0  0  0  0  0  0  0  0
   62.0290   33.6410   49.4860 N   0  0  0  0  0  0  0  0  0  0  0  0
   62.5550   33.5520   48.1110 C   0  0  0  0  0  0  0  0  0  0  0  0
   61.4110   33.3910   47.1000 C   0  0  0  0  0  0  0  0  0  0  0  0
   60.2160   34.1550   47.5500 N   0  0  0  0  0  0  0  0  0  0  0  0
   59.9510   35.3330   46.6970 C   0  0  0  0  0  0  0  0  0  0  0  0
   59.5590   34.9400   45.2610 C   0  0  0  0  0  0  0  0  0  0  0  0
   58.7350   33.6760   45.1750 C   0  0  0  0  0  0  0  0  0  0  0  0
   58.2530   33.2850   43.9180 C   0  0  0  0  0  0  0  0  0  0  0  0
   57.5380   32.0860   43.7610 C   0  0  0  0  0  0  0  0  0  0  0  0
   57.0500   31.6670   42.5130 O   0  0  0  0  0  0  0  0  0  0  0  0
   57.3890   32.2700   41.2660 C   0  0  0  0  0  0  0  0  0  0  0  0
   57.2990   31.2710   44.8740 C   0  0  0  0  0  0  0  0  0  0  0  0
   56.5830   30.0770   44.6840 O   0  0  0  0  0  0  0  0  0  0  0  0
   57.0100   29.0040   43.8530 C   0  0  0  0  0  0  0  0  0  0  0  0
   57.7750   31.6630   46.1390 C   0  0  0  0  0  0  0  0  0  0  0  0
   58.5120   32.8530   46.3020 C   0  0  0  0  0  0  0  0  0  0  0  0
   58.9770   33.3430   47.6720 C   0  0  1  0  0  0  0  0  0  0  0  0
   59.1420   32.2560   48.7580 C   0  0  0  0  0  0  0  0  0  0  0  0
   59.6100   32.8390   49.9570 O   0  0  0  0  0  0  0  0  0  0  0  0
   59.2000   32.0820   51.0830 C   0  0  0  0  0  0  0  0  0  0  0  0
   58.1310   32.8250   51.9120 C   0  0  0  0  0  0  0  0  0  0  0  0
   58.6180   34.1900   52.4010 C   0  0  0  0  0  0  0  0  0  0  0  0
   66.1179   32.8194   50.6504 H   0  0  0  0  0  0  0  0  0  0  0  0
   65.0000   32.1322   49.4236 H   0  0  0  0  0  0  0  0  0  0  0  0
   65.3617   33.8917   49.4236 H   0  0  0  0  0  0  0  0  0  0  0  0
   63.5261   32.2880   51.1850 H   0  0  0  0  0  0  0  0  0  0  0  0
   64.4311   33.6907   51.9223 H   0  0  0  0  0  0  0  0  0  0  0  0
   62.4250   34.6707   51.2713 H   0  0  0  0  0  0  0  0  0  0  0  0
   63.5543   35.0003   49.8660 H   0  0  0  0  0  0  0  0  0  0  0  0
   61.7390   32.6930   49.8200 H   0  0  0  0  0  0  0  0  0  0  0  0
   61.1750   34.2490   49.4860 H   0  0  0  0  0  0  0  0  0  0  0  0
   63.1151   34.4698   47.8789 H   0  0  0  0  0  0  0  0  0  0  0  0
   63.2138   32.6739   48.0413 H   0  0  0  0  0  0  0  0  0  0  0  0
   61.7364   33.7696   46.1198 H   0  0  0  0  0  0  0  0  0  0  0  0
   61.1477   32.3258   47.0226 H   0  0  0  0  0  0  0  0  0  0  0  0
   59.1291   35.9135   47.1414 H   0  0  0  0  0  0  0  0  0  0  0  0
   60.8774   35.9236   46.6426 H   0  0  0  0  0  0  0  0  0  0  0  0
   58.9761   35.7638   44.8234 H   0  0  0  0  0  0  0  0  0  0  0  0
   60.4950   34.7485   44.7157 H   0  0  0  0  0  0  0  0  0  0  0  0
   58.4371   33.9256   43.0429 H   0  0  0  0  0  0  0  0  0  0  0  0
   57.9206   33.2156   41.4485 H   0  0  0  0  0  0  0  0  0  0  0  0
   58.0369   31.5896   40.6938 H   0  0  0  0  0  0  0  0  0  0  0  0
   56.4710   32.4699   40.6938 H   0  0  0  0  0  0  0  0  0  0  0  0
   57.3440   28.1647   44.4806 H   0  0  0  0  0  0  0  0  0  0  0  0
   56.1736   28.6768   43.2179 H   0  0  0  0  0  0  0  0  0  0  0  0
   57.8426   29.3410   43.2179 H   0  0  0  0  0  0  0  0  0  0  0  0
   57.5684   31.0302   47.0148 H   0  0  0  0  0  0  0  0  0  0  0  0
   58.1463   33.9673   48.0329 H   0  0  0  0  0  0  0  0  0  0  0  0
   58.1704   31.7743   48.9420 H   0  0  0  0  0  0  0  0  0  0  0  0
   59.8697   31.5071   48.4122 H   0  0  0  0  0  0  0  0  0  0  0  0
   58.7812   31.1258   50.7363 H   0  0  0  0  0  0  0  0  0  0  0  0
   60.0785   31.9182   51.7244 H   0  0  0  0  0  0  0  0  0  0  0  0
   57.2379   32.9716   51.2868 H   0  0  0  0  0  0  0  0  0  0  0  0
   57.9067   32.2118   52.7972 H   0  0  0  0  0  0  0  0  0  0  0  0
   58.6233   34.2049   53.5009 H   0  0  0  0  0  0  0  0  0  0  0  0
   59.6364   34.3716   52.0269 H   0  0  0  0  0  0  0  0  0  0  0  0
   57.9445   34.9752   52.0269 H   0  0  0  0  0  0  0  0  0  0  0  0
  1  2  1  0
  2  3  1  0
  3  4  1  0
  4  5  1  0
  5  6  1  0
  6  7  1  0
  7  8  1  0
  8  9  1  0
  9 10  1  0
 10 11  2  0
 11 12  1  0
 12 13  1  0
 13 14  1  0
 12 15  2  0
 15 16  1  0
 16 17  1  0
 15 18  1  0
 18 19  2  0
 19 20  1  0
 20 21  1  0
 21 22  1  0
 22 23  1  0
 23 24  1  0
 24 25  1  0
 20  7  1  0
 19 10  1  0
  1 26  1  0
  1 27  1  0
  1 28  1  0
  2 29  1  0
  2 30  1  0
  3 31  1  0
  3 32  1  0
  4 33  1  0
  4 34  1  0
  5 35  1  0
  5 36  1  0
  6 37  1  0
  6 38  1  0
  8 39  1  0
  8 40  1  0
  9 41  1  0
  9 42  1  0
 11 43  1  0
 14 44  1  0
 14 45  1  0
 14 46  1  0
 17 47  1  0
 17 48  1  0
 17 49  1  0
 18 50  1  0
 20 51  1  1
 21 52  1  0
 21 53  1  0
 23 54  1  0
 23 55  1  0
 24 56  1  0
 24 57  1  0
 25 58  1  0
 25 59  1  0
 25 60  1  0
M  CHG  1   4   1
M  END
>  <UniqueID>  (18) 
17

>  <SMILES>  (18) 
CCC[NH2+]CCN1CCc2cc(OC)c(OC)cc2[C@H]1COCCC

>  <Energy>  (18) 
65.29077737005622

>  <Genealogy>  (18) 
CCC[NH2+]CCN1CCc2cc(OC)c(OC)cc2C1COCCC (protonated)
CCC[NH2+]CCN1CCc2cc(OC)c(OC)cc2[C@H]1COCCC (chirality)
CCC[NH2+]CCN1CCc2cc(OC)c(OC)cc2[C@H]1COCCC (3D coordinates assigned)
CCC[NH2+]CCN1CCc2cc(OC)c(OC)cc2[C@H]1COCCC (nonaromatic ring conformer: 65.29077737005622 kcal/mol)

>  <smiles>  (18) 
CCCNCCN1CCc2cc(OC)c(OC)cc2C1COCCC

>  <score_type>  (18) 
oracle

>  <origin>  (18) 
adg

>  <m_score__min__energy>  (18) 
-4.9100000000000001

>  <m_primary>  (18) 
energy

$$$$
18:0
     RDKit          3D

 50 53  0  0  0  0  0  0  0  0999 V2000
   58.1040   33.3410   52.9780 C   0  0  0  0  0  0  0  0  0  0  0  0
   58.9930   33.2400   51.7790 C   0  0  0  0  0  0  0  0  0  0  0  0
   59.2670   34.2570   50.9430 N   0  0  0  0  0  0  0  0  0  0  0  0
   60.0480   33.7420   49.9630 C   0  0  0  0  0  0  0  0  0  0  0  0
   60.4120   34.5790   48.7630 C   0  0  0  0  0  0  0  0  0  0  0  0
   59.6240   34.1400   47.5550 C   0  0  0  0  0  0  0  0  0  0  0  0
   59.9960   34.5610   46.2660 C   0  0  0  0  0  0  0  0  0  0  0  0
   59.2690   34.1440   45.1480 C   0  0  0  0  0  0  0  0  0  0  0  0
   58.1550   33.3030   45.3000 C   0  0  0  0  0  0  0  0  0  0  0  0
   57.3860   32.8250   44.0960 C   0  0  0  0  0  0  0  0  0  0  0  0
   57.9800   31.5820   43.5510 N   0  0  0  0  0  0  0  0  0  0  0  0
   58.5140   30.7010   44.6160 C   0  0  0  0  0  0  0  0  0  0  0  0
   57.4920   29.6480   45.0890 C   0  0  0  0  0  0  0  0  0  0  0  0
   56.1740   30.0960   44.8630 O   0  0  0  0  0  0  0  0  0  0  0  0
   55.9150   30.1560   43.4710 C   0  0  0  0  0  0  0  0  0  0  0  0
   57.0490   30.8420   42.6720 C   0  0  0  0  0  0  0  0  0  0  0  0
   57.7800   32.8850   46.5850 C   0  0  0  0  0  0  0  0  0  0  0  0
   58.5070   33.3000   47.7030 C   0  0  0  0  0  0  0  0  0  0  0  0
   60.2770   32.4080   50.1550 N   0  0  0  0  0  0  0  0  0  0  0  0
   60.9840   31.4430   49.4740 C   0  0  0  0  0  0  0  0  0  0  0  0
   61.8350   31.7270   48.2690 C   0  0  0  0  0  0  0  0  0  0  0  0
   60.9520   30.1280   49.9840 C   0  0  0  0  0  0  0  0  0  0  0  0
   60.2490   29.8480   51.1180 N   0  0  0  0  0  0  0  0  0  0  0  0
   59.5690   30.8130   51.7910 C   0  0  0  0  0  0  0  0  0  0  0  0
   59.6030   32.1110   51.2870 C   0  0  0  0  0  0  0  0  0  0  0  0
   58.7120   33.2719   53.8921 H   0  0  0  0  0  0  0  0  0  0  0  0
   57.5746   34.3051   52.9617 H   0  0  0  0  0  0  0  0  0  0  0  0
   57.3718   32.5203   52.9617 H   0  0  0  0  0  0  0  0  0  0  0  0
   58.9090   35.2360   51.0100 H   0  0  0  0  0  0  0  0  0  0  0  0
   60.1889   35.6347   48.9768 H   0  0  0  0  0  0  0  0  0  0  0  0
   61.4845   34.4532   48.5534 H   0  0  0  0  0  0  0  0  0  0  0  0
   60.8650   35.2229   46.1369 H   0  0  0  0  0  0  0  0  0  0  0  0
   59.5709   34.4762   44.1438 H   0  0  0  0  0  0  0  0  0  0  0  0
   56.3440   32.6285   44.3885 H   0  0  0  0  0  0  0  0  0  0  0  0
   57.4259   33.6040   43.3204 H   0  0  0  0  0  0  0  0  0  0  0  0
   59.4018   30.1798   44.2286 H   0  0  0  0  0  0  0  0  0  0  0  0
   58.7584   31.3366   45.4799 H   0  0  0  0  0  0  0  0  0  0  0  0
   57.6552   28.7119   44.5348 H   0  0  0  0  0  0  0  0  0  0  0  0
   57.6290   29.4817   46.1677 H   0  0  0  0  0  0  0  0  0  0  0  0
   55.7915   29.1303   43.0933 H   0  0  0  0  0  0  0  0  0  0  0  0
   55.0050   30.7582   43.3321 H   0  0  0  0  0  0  0  0  0  0  0  0
   57.6135   30.0722   42.1254 H   0  0  0  0  0  0  0  0  0  0  0  0
   56.5882   31.5643   41.9822 H   0  0  0  0  0  0  0  0  0  0  0  0
   56.9083   32.2265   46.7132 H   0  0  0  0  0  0  0  0  0  0  0  0
   58.2032   32.9671   48.7064 H   0  0  0  0  0  0  0  0  0  0  0  0
   62.8318   32.0596   48.5942 H   0  0  0  0  0  0  0  0  0  0  0  0
   61.9325   30.8127   47.6652 H   0  0  0  0  0  0  0  0  0  0  0  0
   61.3638   32.5166   47.6652 H   0  0  0  0  0  0  0  0  0  0  0  0
   61.4964   29.3255   49.4647 H   0  0  0  0  0  0  0  0  0  0  0  0
   59.0081   30.5760   52.7071 H   0  0  0  0  0  0  0  0  0  0  0  0
  1  2  1  0
  2  3  1  0
  3  4  2  0
  4  5  1  0
  5  6  1  0
  6  7  2  0
  7  8  1  0
  8  9  2  0
  9 10  1  0
 10 11  1  0
 11 12  1  0
 12 13  1  0
 13 14  1  0
 14 15  1  0
 15 16  1  0
  9 17  1  0
 17 18  2  0
  4 19  1  0
 19 20  1  0
 20 21  1  0
 20 22  2  0
 22 23  1  0
 23 24  2  0
 24 25  1  0
 25  2  2  0
 18  6  1  0
 25 19  1  0
 16 11  1  0
  1 26  1  0
  1 27  1  0
  1 28  1  0
  3 29  1  0
  5 30  1  0
  5 31  1  0
  7 32  1  0
  8 33  1  0
 10 34  1  0
 10 35  1  0
 12 36  1  0
 12 37  1  0
 13 38  1  0
 13 39  1  0
 15 40  1  0
 15 41  1  0
 16 42  1  0
 16 43  1  0
 17 44  1  0
 18 45  1  0
 21 46  1  0
 21 47  1  0
 21 48  1  0
 22 49  1  0
 24 50  1  0
M  CHG  1   3   1
M  END
>  <UniqueID>  (19) 
18

>  <SMILES>  (19) 
Cc1[nH+]c(Cc2ccc(CN3CCOCC3)cc2)n2c(C)cncc12

>  <Energy>  (19) 
107.25770842819506

>  <Genealogy>  (19) 
Cc1[nH+]c(Cc2ccc(CN3CCOCC3)cc2)n2c(C)cncc12 (protonated)
Cc1[nH+]c(Cc2ccc(CN3CCOCC3)cc2)n2c(C)cncc12 (3D coordinates assigned)
Cc1[nH+]c(Cc2ccc(CN3CCOCC3)cc2)n2c(C)cncc12 (nonaromatic ring conformer: 107.25770842819506 kcal/mol)

>  <smiles>  (19) 
Cc1nc(Cc2ccc(CN3CCOCC3)cc2)n2c(C)cncc12

>  <score_type>  (19) 
oracle

>  <origin>  (19) 
adg

>  <m_score__min__energy>  (19) 
-7.0899999999999999

>  <m_primary>  (19) 
energy

$$$$
19:0
     RDKit          3D

 34 35  0  0  0  0  0  0  0  0999 V2000
   55.2290   29.7220   43.6230 C   0  0  0  0  0  0  0  0  0  0  0  0
   55.8700   29.6980   44.8940 O   0  0  0  0  0  0  0  0  0  0  0  0
   57.1280   29.1250   45.1430 C   0  0  0  0  0  0  0  0  0  0  0  0
   57.2580   27.8190   45.6590 C   0  0  0  0  0  0  0  0  0  0  0  0
   58.5230   27.2760   45.8980 C   0  0  0  0  0  0  0  0  0  0  0  0
   59.6690   28.0240   45.6260 C   0  0  0  0  0  0  0  0  0  0  0  0
   59.5540   29.3170   45.1140 C   0  0  0  0  0  0  0  0  0  0  0  0
   58.2890   29.8770   44.8660 C   0  0  0  0  0  0  0  0  0  0  0  0
   58.1890   31.2900   44.3350 C   0  0  0  0  0  0  0  0  0  0  0  0
   56.9560   31.9620   44.7820 N   0  0  0  0  0  0  0  0  0  0  0  0
   57.1350   33.4180   44.9050 C   0  0  0  0  0  0  0  0  0  0  0  0
   58.0980   33.7370   46.0200 C   0  0  0  0  0  0  0  0  0  0  0  0
   59.0970   34.7030   45.8390 C   0  0  0  0  0  0  0  0  0  0  0  0
   60.0010   34.9600   46.8720 C   0  0  0  0  0  0  0  0  0  0  0  0
   59.9180   34.2670   48.0380 N   0  0  0  0  0  0  0  0  0  0  0  0
   58.9680   33.3160   48.2370 C   0  0  0  0  0  0  0  0  0  0  0  0
   58.0430   33.0290   47.2290 C   0  0  0  0  0  0  0  0  0  0  0  0
   54.1387   29.7628   43.7629 H   0  0  0  0  0  0  0  0  0  0  0  0
   55.5601   30.6084   43.0620 H   0  0  0  0  0  0  0  0  0  0  0  0
   55.4929   28.8133   43.0620 H   0  0  0  0  0  0  0  0  0  0  0  0
   56.3581   27.2243   45.8746 H   0  0  0  0  0  0  0  0  0  0  0  0
   58.6156   26.2568   46.3014 H   0  0  0  0  0  0  0  0  0  0  0  0
   60.6637   27.5942   45.8153 H   0  0  0  0  0  0  0  0  0  0  0  0
   60.4608   29.9027   44.9028 H   0  0  0  0  0  0  0  0  0  0  0  0
   59.0562   31.8654   44.6913 H   0  0  0  0  0  0  0  0  0  0  0  0
   58.1691   31.2394   43.2363 H   0  0  0  0  0  0  0  0  0  0  0  0
   56.2090   31.7720   44.0730 H   0  0  0  0  0  0  0  0  0  0  0  0
   56.6440   31.5640   45.7000 H   0  0  0  0  0  0  0  0  0  0  0  0
   57.5313   33.8156   43.9590 H   0  0  0  0  0  0  0  0  0  0  0  0
   56.1622   33.8791   45.1310 H   0  0  0  0  0  0  0  0  0  0  0  0
   59.1686   35.2548   44.8901 H   0  0  0  0  0  0  0  0  0  0  0  0
   60.7812   35.7244   46.7417 H   0  0  0  0  0  0  0  0  0  0  0  0
   58.9268   32.7716   49.1920 H   0  0  0  0  0  0  0  0  0  0  0  0
   57.2780   32.2538   47.3831 H   0  0  0  0  0  0  0  0  0  0  0  0
  1  2  1  0
  2  3  1  0
  3  4  2  0
  4  5  1  0
  5  6  2  0
  6  7  1  0
  7  8  2  0
  8  9  1  0
  9 10  1  0
 10 11  1  0
 11 12  1  0
 12 13  2  0
 13 14  1  0
 14 15  2  0
 15 16  1  0
 16 17  2  0
  8  3  1  0
 17 12  1  0
  1 18  1  0
  1 19  1  0
  1 20  1  0
  4 21  1  0
  5 22  1  0
  6 23  1  0
  7 24  1  0
  9 25  1  0
  9 26  1  0
 10 27  1  0
 10 28  1  0
 11 29  1  0
 11 30  1  0
 13 31  1  0
 14 32  1  0
 16 33  1  0
 17 34  1  0
M  CHG  1  10   1
M  END
>  <UniqueID>  (20) 
19

>  <SMILES>  (20) 
COc1ccccc1C[NH2+]Cc1ccncc1

>  <Energy>  (20) 
33.96829767864117

>  <Genealogy>  (20) 
COc1ccccc1C[NH2+]Cc1ccncc1 (protonated)
COc1ccccc1C[NH2+]Cc1ccncc1 (3D coordinates assigned)
COc1ccccc1C[NH2+]Cc1ccncc1 (optimized conformer: 33.96829767864117 kcal/mol)

>  <smiles>  (20) 
COc1ccccc1CNCc1ccncc1

>  <score_type>  (20) 
oracle

>  <origin>  (20) 
adg

>  <m_score__min__energy>  (20) 
-4.1200000000000001

>  <m_primary>  (20) 
energy

$$$$
20:0
     RDKit          3D

 49 51  0  0  0  0  0  0  0  0999 V2000
   61.2390   28.8628   48.0421 H   0  0  0  0  0  0  0  0  0  0  0  0
   60.5350   29.4620   47.4460 C   0  0  0  0  0  0  0  0  0  0  0  0
   59.4840   28.8370   46.7820 C   0  0  0  0  0  0  0  0  0  0  0  0
   59.3664   27.7459   46.8575 H   0  0  0  0  0  0  0  0  0  0  0  0
   58.5730   29.5800   46.0180 C   0  0  0  0  0  0  0  0  0  0  0  0
   57.2600   28.7140   45.1970 S   0  0  0  0  0  0  0  0  0  0  0  0
   56.0790   29.6280   45.0270 O   0  0  0  0  0  0  0  0  0  0  0  0
   57.7580   28.2680   43.8510 O   0  0  0  0  0  0  0  0  0  0  0  0
   56.8080   27.3580   46.1820 N   0  0  0  0  0  0  0  0  0  0  0  0
   56.0890   26.3160   45.8780 C   0  0  0  0  0  0  0  0  0  0  0  0
   54.7790   26.3340   45.9790 O   0  0  0  0  0  0  0  0  0  0  0  0
   54.2740   25.1900   45.6330 N   0  0  0  0  0  0  0  0  0  0  0  0
   53.2550   24.9630   45.6350 H   0  0  0  0  0  0  0  0  0  0  0  0
   55.2840   24.3710   45.2870 C   0  0  0  0  0  0  0  0  0  0  0  0
   55.0970   22.9520   44.8490 C   0  0  0  0  0  0  0  0  0  0  0  0
   55.0115   22.3035   45.7334 H   0  0  0  0  0  0  0  0  0  0  0  0
   54.1806   22.8722   44.2459 H   0  0  0  0  0  0  0  0  0  0  0  0
   55.9615   22.6375   44.2459 H   0  0  0  0  0  0  0  0  0  0  0  0
   56.4870   25.0530   45.4180 C   0  0  0  0  0  0  0  0  0  0  0  0
   57.8500   24.4720   45.1900 C   0  0  0  0  0  0  0  0  0  0  0  0
   58.3285   24.2680   46.1593 H   0  0  0  0  0  0  0  0  0  0  0  0
   57.7586   23.5346   44.6217 H   0  0  0  0  0  0  0  0  0  0  0  0
   58.4630   25.1870   44.6217 H   0  0  0  0  0  0  0  0  0  0  0  0
   58.7320   30.9910   45.9210 C   0  0  0  0  0  0  0  0  0  0  0  0
   57.8490   31.7870   45.1630 C   0  0  0  0  0  0  0  0  0  0  0  0
   57.0131   31.3125   44.6281 H   0  0  0  0  0  0  0  0  0  0  0  0
   58.0220   33.1670   45.0830 C   0  0  0  0  0  0  0  0  0  0  0  0
   57.3227   33.7722   44.4874 H   0  0  0  0  0  0  0  0  0  0  0  0
   59.0740   33.7840   45.7520 C   0  0  0  0  0  0  0  0  0  0  0  0
   59.2003   34.8744   45.6804 H   0  0  0  0  0  0  0  0  0  0  0  0
   59.9730   33.0310   46.5150 C   0  0  0  0  0  0  0  0  0  0  0  0
   61.0450   33.7190   47.1880 N   0  0  0  0  0  0  0  0  0  0  0  0
   60.7100   34.5950   48.3240 C   0  0  0  0  0  0  0  0  0  0  0  0
   60.2719   35.5284   47.9407 H   0  0  0  0  0  0  0  0  0  0  0  0
   61.6313   34.8027   48.8879 H   0  0  0  0  0  0  0  0  0  0  0  0
   59.7110   33.9240   49.2600 C   0  0  0  0  0  0  0  0  0  0  0  0
   59.9993   34.1176   50.3037 H   0  0  0  0  0  0  0  0  0  0  0  0
   58.7057   34.3307   49.0758 H   0  0  0  0  0  0  0  0  0  0  0  0
   59.7072   32.8395   49.0758 H   0  0  0  0  0  0  0  0  0  0  0  0
   62.3240   33.8870   46.4800 C   0  0  0  0  0  0  0  0  0  0  0  0
   62.2111   33.5306   45.4455 H   0  0  0  0  0  0  0  0  0  0  0  0
   62.5934   34.9534   46.4954 H   0  0  0  0  0  0  0  0  0  0  0  0
   63.4370   33.0980   47.1590 C   0  0  0  0  0  0  0  0  0  0  0  0
   63.3278   33.1754   48.2508 H   0  0  0  0  0  0  0  0  0  0  0  0
   63.3739   32.0418   46.8581 H   0  0  0  0  0  0  0  0  0  0  0  0
   64.4127   33.5073   46.8581 H   0  0  0  0  0  0  0  0  0  0  0  0
   59.8120   31.6250   46.6050 C   0  0  0  0  0  0  0  0  0  0  0  0
   60.7000   30.8400   47.3600 C   0  0  0  0  0  0  0  0  0  0  0  0
   61.5356   31.3214   47.8893 H   0  0  0  0  0  0  0  0  0  0  0  0
  1  2  1  0
  2  3  2  0
  3  4  1  0
  3  5  1  0
  5  6  1  0
  6  7  2  0
  6  8  2  0
  6  9  1  0
  9 10  2  0
 10 11  1  0
 11 12  1  0
 12 13  1  0
 12 14  1  0
 14 15  1  0
 15 16  1  0
 15 17  1  0
 15 18  1  0
 14 19  2  0
 19 20  1  0
 20 21  1  0
 20 22  1  0
 20 23  1  0
  5 24  2  0
 24 25  1  0
 25 26  1  0
 25 27  2  0
 27 28  1  0
 27 29  1  0
 29 30  1  0
 29 31  2  0
 31 32  1  0
 32 33  1  0
 33 34  1  0
 33 35  1  0
 33 36  1  0
 36 37  1  0
 36 38  1  0
 36 39  1  0
 32 40  1  0
 40 41  1  0
 40 42  1  0
 40 43  1  0
 43 44  1  0
 43 45  1  0
 43 46  1  0
 31 47  1  0
 47 48  2  0
 48 49  1  0
 48  2  1  0
 19 10  1  0
 47 24  1  0
M  END
>  <UniqueID>  (21) 
20

>  <SMILES>  (21) 
CCN(CC)c1cccc2c(S(=O)(=O)/N=c3/o[nH]c(C)c3C)cccc12

>  <Energy>  (21) 
97.73417397774739

>  <Genealogy>  (21) 
CCN(CC)c1cccc2c(S(=O)(=O)/N=c3/o[nH]c(C)c3C)cccc12 (cis-trans isomerization)
CCN(CC)c1cccc2c(S(=O)(=O)/N=c3/o[nH]c(C)c3C)cccc12 (3D coordinates assigned)
CCN(CC)c1cccc2c(S(=O)(=O)/N=c3/o[nH]c(C)c3C)cccc12 (optimized conformer: 97.73417397774739 kcal/mol)

>  <smiles>  (21) 
CCN(CC)c1cccc2c(S(=O)(=O)N=c3o[nH]c(C)c3C)cccc12

>  <score_type>  (21) 
oracle

>  <origin>  (21) 
adg

>  <m_score__min__energy>  (21) 
-9.9299999999999997

>  <m_primary>  (21) 
energy

$$$$
21:0
     RDKit          3D

 59 62  0  0  1  0  0  0  0  0999 V2000
   55.9040   30.0770   43.4680 C   0  0  0  0  0  0  0  0  0  0  0  0
   57.0810   30.8550   43.8320 N   0  0  0  0  0  0  0  0  0  0  0  0
   57.4560   31.6060   42.6380 C   0  0  0  0  0  0  0  0  0  0  0  0
   56.7670   31.8420   44.8490 C   0  0  0  0  0  0  0  0  0  0  0  0
   57.6400   33.0810   44.7380 C   0  0  0  0  0  0  0  0  0  0  0  0
   58.3840   33.2260   45.9780 N   0  0  0  0  0  0  0  0  0  0  0  0
   59.2740   32.3380   46.2700 C   0  0  0  0  0  0  0  0  0  0  0  0
   60.0790   32.6100   47.3150 N   0  0  0  0  0  0  0  0  0  0  0  0
   61.0510   31.7790   47.7360 C   0  0  0  0  0  0  0  0  0  0  0  0
   61.8210   32.1900   48.8440 N   0  0  0  0  0  0  0  0  0  0  0  0
   62.5890   31.1870   49.5960 C   0  0  0  0  0  0  0  0  0  0  0  0
   63.2680   31.8590   50.7730 C   0  0  0  0  0  0  0  0  0  0  0  0
   64.0340   33.0100   50.4150 N   0  0  0  0  0  0  0  0  0  0  0  0
   65.3770   32.6780   49.9730 C   0  0  0  0  0  0  0  0  0  0  0  0
   63.4210   33.8380   49.4030 C   0  0  0  0  0  0  0  0  0  0  0  0
   61.9310   33.5500   49.3210 C   0  0  0  0  0  0  0  0  0  0  0  0
   61.2320   30.5920   47.0670 C   0  0  0  0  0  0  0  0  0  0  0  0
   60.4040   30.3220   46.0000 C   0  0  0  0  0  0  0  0  0  0  0  0
   60.5080   29.1250   45.2380 N   0  0  0  0  0  0  0  0  0  0  0  0
   59.4500   28.3930   45.1470 C   0  0  0  0  0  0  0  0  0  0  0  0
   59.0520   27.3370   45.9680 C   0  0  0  0  0  0  0  0  0  0  0  0
   57.8460   26.8630   45.4640 C   0  0  0  0  0  0  0  0  0  0  0  0
   57.0750   25.7360   46.0480 C   0  0  0  0  0  0  0  0  0  0  0  0
   56.5190   24.6880   45.0870 C   0  0  0  0  0  0  0  0  0  0  0  0
   55.6250   25.6160   45.9260 C   0  0  0  0  0  0  0  0  0  0  0  0
   57.5590   27.6150   44.3950 N   0  0  0  0  0  0  0  0  0  0  0  0
   58.5050   28.5230   44.2020 N   0  0  0  0  0  0  0  0  0  0  0  0
   59.4310   31.1940   45.6070 N   0  0  0  0  0  0  0  0  0  0  0  0
   55.3917   29.7384   44.3806 H   0  0  0  0  0  0  0  0  0  0  0  0
   55.2206   30.7019   42.8743 H   0  0  0  0  0  0  0  0  0  0  0  0
   56.2111   29.2034   42.8743 H   0  0  0  0  0  0  0  0  0  0  0  0
   57.9292   32.5537   42.9345 H   0  0  0  0  0  0  0  0  0  0  0  0
   58.1642   31.0139   42.0398 H   0  0  0  0  0  0  0  0  0  0  0  0
   56.5572   31.8164   42.0398 H   0  0  0  0  0  0  0  0  0  0  0  0
   55.7138   32.1402   44.7396 H   0  0  0  0  0  0  0  0  0  0  0  0
   56.9546   31.3846   45.8317 H   0  0  0  0  0  0  0  0  0  0  0  0
   58.3386   32.9698   43.8956 H   0  0  0  0  0  0  0  0  0  0  0  0
   57.0165   33.9702   44.5633 H   0  0  0  0  0  0  0  0  0  0  0  0
   61.9104   30.4022   49.9616 H   0  0  0  0  0  0  0  0  0  0  0  0
   63.3477   30.7347   48.9405 H   0  0  0  0  0  0  0  0  0  0  0  0
   62.4935   32.1671   51.4908 H   0  0  0  0  0  0  0  0  0  0  0  0
   63.9693   31.1268   51.1997 H   0  0  0  0  0  0  0  0  0  0  0  0
   66.0225   32.5184   50.8493 H   0  0  0  0  0  0  0  0  0  0  0  0
   65.3473   31.7602   49.3675 H   0  0  0  0  0  0  0  0  0  0  0  0
   65.7784   33.5040   49.3675 H   0  0  0  0  0  0  0  0  0  0  0  0
   63.5729   34.8970   49.6589 H   0  0  0  0  0  0  0  0  0  0  0  0
   63.8834   33.6168   48.4297 H   0  0  0  0  0  0  0  0  0  0  0  0
   61.4664   33.6471   50.3134 H   0  0  0  0  0  0  0  0  0  0  0  0
   61.4170   34.2572   48.6533 H   0  0  0  0  0  0  0  0  0  0  0  0
   62.0129   29.8807   47.3739 H   0  0  0  0  0  0  0  0  0  0  0  0
   59.5902   26.9526   46.8470 H   0  0  0  0  0  0  0  0  0  0  0  0
   57.7393   25.7437   46.9247 H   0  0  0  0  0  0  0  0  0  0  0  0
   56.6032   24.8275   43.9991 H   0  0  0  0  0  0  0  0  0  0  0  0
   56.6268   23.6026   44.9444 H   0  0  0  0  0  0  0  0  0  0  0  0
   55.0499   26.4136   45.4330 H   0  0  0  0  0  0  0  0  0  0  0  0
   54.8020   25.4565   46.6383 H   0  0  0  0  0  0  0  0  0  0  0  0
   56.7070   27.5210   43.7720 H   0  0  0  0  0  0  0  0  0  0  0  0
   58.5190   29.2420   43.4260 H   0  0  0  0  0  0  0  0  0  0  0  0
   58.8110   30.9700   44.7920 H   0  0  0  0  0  0  0  0  0  0  0  0
  1  2  1  0
  2  3  1  0
  2  4  1  0
  4  5  1  0
  5  6  1  0
  6  7  2  0
  7  8  1  0
  8  9  2  0
  9 10  1  0
 10 11  1  0
 11 12  1  0
 12 13  1  0
 13 14  1  0
 13 15  1  0
 15 16  1  0
  9 17  1  0
 17 18  2  0
 18 19  1  0
 19 20  2  0
 20 21  1  0
 21 22  2  0
 22 23  1  0
 23 24  1  0
 24 25  1  0
 22 26  1  0
 26 27  1  0
 18 28  1  0
 28  7  1  0
 16 10  1  0
 27 20  1  0
 25 23  1  0
  1 29  1  0
  1 30  1  0
  1 31  1  0
  3 32  1  0
  3 33  1  0
  3 34  1  0
  4 35  1  0
  4 36  1  0
  5 37  1  0
  5 38  1  0
 11 39  1  0
 11 40  1  0
 12 41  1  0
 12 42  1  0
 14 43  1  0
 14 44  1  0
 14 45  1  0
 15 46  1  0
 15 47  1  0
 16 48  1  0
 16 49  1  0
 17 50  1  0
 21 51  1  0
 23 52  1  0
 24 53  1  0
 24 54  1  0
 25 55  1  0
 25 56  1  0
 26 57  1  0
 27 58  1  0
 28 59  1  0
M  END
>  <smiles>  (22) 
CN(C)CCN=c1nc(N2CCN(C)CC2)cc(N=c2cc(C3CC3)[nH][nH]2)[nH]1

>  <score_type>  (22) 
oracle

>  <origin>  (22) 
adg

>  <m_score__min__energy>  (22) 
-7.6100000000000003

>  <m_primary>  (22) 
energy

$$$$
22:0
     RDKit          3D

 56 59  0  0  0  0  0  0  0  0999 V2000
   54.5656   30.5169   43.8565 H   0  0  0  0  0  0  0  0  0  0  0  0
   55.5010   30.1690   44.3190 C   0  0  0  0  0  0  0  0  0  0  0  0
   55.5690   28.9210   44.8490 N   0  0  0  0  0  0  0  0  0  0  0  0
   56.7030   28.4470   45.4260 C   0  0  0  0  0  0  0  0  0  0  0  0
   56.7260   27.1460   45.9430 C   0  0  0  0  0  0  0  0  0  0  0  0
   55.8259   26.5164   45.8835 H   0  0  0  0  0  0  0  0  0  0  0  0
   57.8880   26.6450   46.5340 C   0  0  0  0  0  0  0  0  0  0  0  0
   57.9130   25.0110   47.1670 Cl  0  0  0  0  0  0  0  0  0  0  0  0
   59.0260   27.4510   46.6310 C   0  0  0  0  0  0  0  0  0  0  0  0
   59.9342   27.0588   47.1120 H   0  0  0  0  0  0  0  0  0  0  0  0
   59.0170   28.7510   46.1210 C   0  0  0  0  0  0  0  0  0  0  0  0
   59.9175   29.3774   46.2029 H   0  0  0  0  0  0  0  0  0  0  0  0
   57.8580   29.2650   45.5010 C   0  0  0  0  0  0  0  0  0  0  0  0
   57.8060   30.5750   44.9700 C   0  0  0  0  0  0  0  0  0  0  0  0
   58.8690   31.3350   45.0270 N   0  0  0  0  0  0  0  0  0  0  0  0
   59.3470   32.0740   46.1610 C   0  0  0  0  0  0  0  0  0  0  0  0
   60.6000   31.7460   46.7080 C   0  0  0  0  0  0  0  0  0  0  0  0
   61.1747   30.9097   46.2834 H   0  0  0  0  0  0  0  0  0  0  0  0
   61.1270   32.4690   47.7860 C   0  0  0  0  0  0  0  0  0  0  0  0
   62.4360   32.0560   48.3950 C   0  0  0  0  0  0  0  0  0  0  0  0
   62.3911   30.9940   48.6779 H   0  0  0  0  0  0  0  0  0  0  0  0
   63.2456   32.2043   47.6653 H   0  0  0  0  0  0  0  0  0  0  0  0
   62.6930   32.8710   49.5880 N   0  0  0  0  0  0  0  0  0  0  0  0
   63.7290   33.0220   49.6530 H   0  0  0  0  0  0  0  0  0  0  0  0
   62.2440   32.2020   50.8180 C   0  0  0  0  0  0  0  0  0  0  0  0
   63.0987   31.6812   51.2744 H   0  0  0  0  0  0  0  0  0  0  0  0
   61.8422   32.9657   51.5001 H   0  0  0  0  0  0  0  0  0  0  0  0
   61.1250   31.1730   50.5260 C   0  0  0  0  0  0  0  0  0  0  0  0
   60.8816   31.2290   49.4547 H   0  0  0  0  0  0  0  0  0  0  0  0
   61.5207   30.1942   50.8347 H   0  0  0  0  0  0  0  0  0  0  0  0
   59.8730   31.3720   51.2920 N   0  0  0  0  0  0  0  0  0  0  0  0
   59.6580   30.4410   52.4160 C   0  0  0  0  0  0  0  0  0  0  0  0
   60.6016   29.9187   52.6327 H   0  0  0  0  0  0  0  0  0  0  0  0
   59.3232   31.0237   53.2868 H   0  0  0  0  0  0  0  0  0  0  0  0
   58.5720   29.3970   52.0870 C   0  0  0  0  0  0  0  0  0  0  0  0
   58.9586   28.7437   51.2909 H   0  0  0  0  0  0  0  0  0  0  0  0
   58.3633   28.8679   53.0286 H   0  0  0  0  0  0  0  0  0  0  0  0
   57.3260   29.9320   51.6510 O   0  0  0  0  0  0  0  0  0  0  0  0
   57.3950   31.2880   51.2360 C   0  0  0  0  0  0  0  0  0  0  0  0
   56.5299   31.5021   50.5913 H   0  0  0  0  0  0  0  0  0  0  0  0
   57.3942   31.9110   52.1426 H   0  0  0  0  0  0  0  0  0  0  0  0
   58.6780   31.6100   50.4570 C   0  0  0  0  0  0  0  0  0  0  0  0
   58.7283   30.9690   49.5645 H   0  0  0  0  0  0  0  0  0  0  0  0
   58.6569   32.6707   50.1663 H   0  0  0  0  0  0  0  0  0  0  0  0
   60.3920   33.5300   48.3270 C   0  0  0  0  0  0  0  0  0  0  0  0
   60.7826   34.0822   49.1944 H   0  0  0  0  0  0  0  0  0  0  0  0
   59.1640   33.8890   47.7680 C   0  0  0  0  0  0  0  0  0  0  0  0
   58.6073   34.7401   48.1873 H   0  0  0  0  0  0  0  0  0  0  0  0
   58.6280   33.1830   46.6810 C   0  0  0  0  0  0  0  0  0  0  0  0
   57.3850   33.6270   46.1930 O   0  0  0  0  0  0  0  0  0  0  0  0
   57.1350   34.2320   44.9280 C   0  0  0  0  0  0  0  0  0  0  0  0
   56.7189   35.2390   45.0790 H   0  0  0  0  0  0  0  0  0  0  0  0
   58.0766   34.3051   44.3640 H   0  0  0  0  0  0  0  0  0  0  0  0
   56.4165   33.6191   44.3640 H   0  0  0  0  0  0  0  0  0  0  0  0
   56.6110   31.0120   44.3580 C   0  0  0  0  0  0  0  0  0  0  0  0
   56.5557   32.0162   43.9125 H   0  0  0  0  0  0  0  0  0  0  0  0
  1  2  1  0
  2  3  1  0
  3  4  1  0
  4  5  2  0
  5  6  1  0
  5  7  1  0
  7  8  1  0
  7  9  2  0
  9 10  1  0
  9 11  1  0
 11 12  1  0
 11 13  2  0
 13 14  1  0
 14 15  2  0
 15 16  1  0
 16 17  2  0
 17 18  1  0
 17 19  1  0
 19 20  1  0
 20 21  1  0
 20 22  1  0
 20 23  1  0
 23 24  1  0
 23 25  1  0
 25 26  1  0
 25 27  1  0
 25 28  1  0
 28 29  1  0
 28 30  1  0
 28 31  1  0
 31 32  1  0
 32 33  1  0
 32 34  1  0
 32 35  1  0
 35 36  1  0
 35 37  1  0
 35 38  1  0
 38 39  1  0
 39 40  1  0
 39 41  1  0
 39 42  1  0
 42 43  1  0
 42 44  1  0
 19 45  2  0
 45 46  1  0
 45 47  1  0
 47 48  1  0
 47 49  2  0
 49 50  1  0
 50 51  1  0
 51 52  1  0
 51 53  1  0
 51 54  1  0
 14 55  1  0
 55 56  1  0
 55  2  2  0
 13  4  1  0
 49 16  1  0
 42 31  1  0
M  CHG  1   3  -1
M  END
>  <UniqueID>  (23) 
21

>  <SMILES>  (23) 
COc1ccc(CNCCN2CCOCC2)cc1/N=c1\cc[n-]c2cc(Cl)ccc12

>  <Energy>  (23) 
90.43872779240829

>  <Genealogy>  (23) 
COc1ccc(CNCCN2CCOCC2)cc1N=c1cc[n-]c2cc(Cl)ccc12 (protonated)
COc1ccc(CNCCN2CCOCC2)cc1/N=c1\cc[n-]c2cc(Cl)ccc12 (cis-trans isomerization)
COc1ccc(CNCCN2CCOCC2)cc1/N=c1\cc[n-]c2cc(Cl)ccc12 (3D coordinates assigned)
COc1ccc(CNCCN2CCOCC2)cc1/N=c1\cc[n-]c2cc(Cl)ccc12 (nonaromatic ring conformer: 90.43872779240829 kcal/mol)

>  <smiles>  (23) 
COc1ccc(CNCCN2CCOCC2)cc1N=c1cc[nH]c2cc(Cl)ccc12

>  <score_type>  (23) 
oracle

>  <origin>  (23) 
adg

>  <m_score__min__energy>  (23) 
-10.25

>  <m_primary>  (23) 
energy

$$$$
23:0
     RDKit          3D

 46 48  0  0  0  0  0  0  0  0999 V2000
   66.5210   30.8940   51.8780 C   0  0  0  0  0  0  0  0  0  0  0  0
   65.4810   31.4690   50.9630 C   0  0  0  0  0  0  0  0  0  0  0  0
   64.2030   30.8960   50.8960 C   0  0  0  0  0  0  0  0  0  0  0  0
   63.2420   31.4080   50.0180 C   0  0  0  0  0  0  0  0  0  0  0  0
   63.5500   32.4960   49.1800 C   0  0  0  0  0  0  0  0  0  0  0  0
   62.5520   33.0590   48.2400 C   0  0  0  0  0  0  0  0  0  0  0  0
   61.2720   33.3570   48.5490 N   0  0  0  0  0  0  0  0  0  0  0  0
   60.7530   33.8360   47.4060 C   0  0  0  0  0  0  0  0  0  0  0  0
   59.3430   34.3190   47.2490 C   0  0  0  0  0  0  0  0  0  0  0  0
   58.4190   33.1730   47.1320 N   0  0  0  0  0  0  0  0  0  0  0  0
   57.1570   33.5380   46.4320 C   0  0  0  0  0  0  0  0  0  0  0  0
   57.0320   32.8850   45.0490 C   0  0  0  0  0  0  0  0  0  0  0  0
   57.1020   31.4150   45.1700 N   0  0  0  0  0  0  0  0  0  0  0  0
   57.0950   30.7140   43.8680 C   0  0  0  0  0  0  0  0  0  0  0  0
   56.0720   29.5640   43.7800 C   0  0  0  0  0  0  0  0  0  0  0  0
   55.2820   29.5360   44.9370 O   0  0  0  0  0  0  0  0  0  0  0  0
   58.1210   30.9180   46.1250 C   0  0  0  0  0  0  0  0  0  0  0  0
   59.1180   32.0100   46.5400 C   0  0  0  0  0  0  0  0  0  0  0  0
   61.7290   33.8170   46.4340 C   0  0  0  0  0  0  0  0  0  0  0  0
   62.8210   33.3330   46.9790 O   0  0  0  0  0  0  0  0  0  0  0  0
   64.8390   33.0540   49.2390 C   0  0  0  0  0  0  0  0  0  0  0  0
   65.7970   32.5410   50.1180 C   0  0  0  0  0  0  0  0  0  0  0  0
   66.2215   31.0596   52.9234 H   0  0  0  0  0  0  0  0  0  0  0  0
   66.6175   29.8143   51.6908 H   0  0  0  0  0  0  0  0  0  0  0  0
   67.4867   31.3864   51.6908 H   0  0  0  0  0  0  0  0  0  0  0  0
   63.9545   30.0382   51.5382 H   0  0  0  0  0  0  0  0  0  0  0  0
   62.2392   30.9574   49.9823 H   0  0  0  0  0  0  0  0  0  0  0  0
   60.7750   33.2540   49.4620 H   0  0  0  0  0  0  0  0  0  0  0  0
   59.0656   34.9207   48.1271 H   0  0  0  0  0  0  0  0  0  0  0  0
   59.2733   34.9296   46.3367 H   0  0  0  0  0  0  0  0  0  0  0  0
   56.3064   33.2158   47.0506 H   0  0  0  0  0  0  0  0  0  0  0  0
   57.1648   34.6279   46.2834 H   0  0  0  0  0  0  0  0  0  0  0  0
   56.0682   33.1670   44.6000 H   0  0  0  0  0  0  0  0  0  0  0  0
   57.8592   33.2322   44.4125 H   0  0  0  0  0  0  0  0  0  0  0  0
   56.8600   31.4468   43.0820 H   0  0  0  0  0  0  0  0  0  0  0  0
   58.0910   30.2639   43.7437 H   0  0  0  0  0  0  0  0  0  0  0  0
   55.4270   29.7165   42.9021 H   0  0  0  0  0  0  0  0  0  0  0  0
   56.6095   28.6088   43.6865 H   0  0  0  0  0  0  0  0  0  0  0  0
   55.1650   30.4790   45.2250 H   0  0  0  0  0  0  0  0  0  0  0  0
   57.6096   30.5463   47.0252 H   0  0  0  0  0  0  0  0  0  0  0  0
   58.6881   30.1195   45.6242 H   0  0  0  0  0  0  0  0  0  0  0  0
   59.8169   31.5954   47.2814 H   0  0  0  0  0  0  0  0  0  0  0  0
   59.6598   32.3471   45.6440 H   0  0  0  0  0  0  0  0  0  0  0  0
   61.6143   34.1472   45.3910 H   0  0  0  0  0  0  0  0  0  0  0  0
   65.0960   33.9021   48.5874 H   0  0  0  0  0  0  0  0  0  0  0  0
   66.8046   32.9813   50.1465 H   0  0  0  0  0  0  0  0  0  0  0  0
  1  2  1  0
  2  3  2  0
  3  4  1  0
  4  5  2  0
  5  6  1  0
  6  7  2  0
  7  8  1  0
  8  9  1  0
  9 10  1  0
 10 11  1  0
 11 12  1  0
 12 13  1  0
 13 14  1  0
 14 15  1  0
 15 16  1  0
 13 17  1  0
 17 18  1  0
  8 19  2  0
 19 20  1  0
  5 21  1  0
 21 22  2  0
 22  2  1  0
 20  6  1  0
 18 10  1  0
  1 23  1  0
  1 24  1  0
  1 25  1  0
  3 26  1  0
  4 27  1  0
  7 28  1  0
  9 29  1  0
  9 30  1  0
 11 31  1  0
 11 32  1  0
 12 33  1  0
 12 34  1  0
 14 35  1  0
 14 36  1  0
 15 37  1  0
 15 38  1  0
 16 39  1  0
 17 40  1  0
 17 41  1  0
 18 42  1  0
 18 43  1  0
 19 44  1  0
 21 45  1  0
 22 46  1  0
M  CHG  1   7   1
M  END
>  <UniqueID>  (24) 
22

>  <SMILES>  (24) 
Cc1ccc(-c2[nH+]c(CN3CCN(CCO)CC3)co2)cc1

>  <Energy>  (24) 
91.01132627918521

>  <Genealogy>  (24) 
Cc1ccc(-c2[nH+]c(CN3CCN(CCO)CC3)co2)cc1 (protonated)
Cc1ccc(-c2[nH+]c(CN3CCN(CCO)CC3)co2)cc1 (3D coordinates assigned)
Cc1ccc(-c2[nH+]c(CN3CCN(CCO)CC3)co2)cc1 (nonaromatic ring conformer: 91.01132627918521 kcal/mol)

>  <smiles>  (24) 
Cc1ccc(-c2nc(CN3CCN(CCO)CC3)co2)cc1

>  <score_type>  (24) 
oracle

>  <origin>  (24) 
adg

>  <m_score__min__energy>  (24) 
-7.04

>  <m_primary>  (24) 
energy

$$$$
24:0
     RDKit          3D

 66 69  0  0  0  0  0  0  0  0999 V2000
   57.8250   24.7060   45.6940 C   0  0  0  0  0  0  0  0  0  0  0  0
   57.8610   26.2340   45.7610 C   0  0  0  0  0  0  0  0  0  0  0  0
   58.9820   26.8510   45.0090 N   0  0  0  0  0  0  0  0  0  0  0  0
   58.5770   27.6040   43.7980 C   0  0  0  0  0  0  0  0  0  0  0  0
   58.1010   26.7290   42.6280 C   0  0  0  0  0  0  0  0  0  0  0  0
   60.0300   27.5030   45.8280 C   0  0  0  0  0  0  0  0  0  0  0  0
   59.7190   27.4220   47.3320 C   0  0  0  0  0  0  0  0  0  0  0  0
   59.3220   28.6970   47.8350 O   0  0  0  0  0  0  0  0  0  0  0  0
   58.5190   29.5900   47.1110 C   0  0  0  0  0  0  0  0  0  0  0  0
   57.4130   29.2120   46.6340 O   0  0  0  0  0  0  0  0  0  0  0  0
   59.0190   30.9950   46.8660 C   0  0  1  0  0  0  0  0  0  0  0  0
   58.5270   31.5610   45.5350 C   0  0  0  0  0  0  0  0  0  0  0  0
   58.2410   30.7180   44.4370 C   0  0  0  0  0  0  0  0  0  0  0  0
   57.8500   31.2560   43.2090 C   0  0  0  0  0  0  0  0  0  0  0  0
   57.7670   32.6380   43.0430 C   0  0  0  0  0  0  0  0  0  0  0  0
   58.0760   33.4890   44.1050 C   0  0  0  0  0  0  0  0  0  0  0  0
   58.4670   32.9630   45.3490 C   0  0  0  0  0  0  0  0  0  0  0  0
   58.8340   33.8650   46.4630 C   0  0  0  0  0  0  0  0  0  0  0  0
   58.8840   35.1100   46.2760 O   0  0  0  0  0  0  0  0  0  0  0  0
   59.1400   33.3110   47.7570 N   0  0  0  0  0  0  0  0  0  0  0  0
   59.9680   34.0790   48.7100 C   0  0  0  0  0  0  0  0  0  0  0  0
   61.4310   33.7290   48.5730 C   0  0  0  0  0  0  0  0  0  0  0  0
   62.2670   33.6690   49.7030 C   0  0  0  0  0  0  0  0  0  0  0  0
   63.6220   33.3550   49.5640 C   0  0  0  0  0  0  0  0  0  0  0  0
   64.1540   33.0940   48.2990 C   0  0  0  0  0  0  0  0  0  0  0  0
   63.3250   33.1150   47.1750 C   0  0  0  0  0  0  0  0  0  0  0  0
   61.9670   33.4220   47.3110 C   0  0  0  0  0  0  0  0  0  0  0  0
   58.6270   31.9520   48.0320 C   0  0  2  0  0  0  0  0  0  0  0  0
   59.0040   31.4320   49.4190 C   0  0  0  0  0  0  0  0  0  0  0  0
   60.2500   30.8020   49.6000 C   0  0  0  0  0  0  0  0  0  0  0  0
   60.6260   30.3160   50.8570 C   0  0  0  0  0  0  0  0  0  0  0  0
   59.7590   30.4410   51.9460 C   0  0  0  0  0  0  0  0  0  0  0  0
   60.2780   29.7840   53.6650 Br  0  0  0  0  0  0  0  0  0  0  0  0
   58.5090   31.0380   51.7750 C   0  0  0  0  0  0  0  0  0  0  0  0
   58.1310   31.5350   50.5220 C   0  0  0  0  0  0  0  0  0  0  0  0
   57.8153   24.2944   46.7140 H   0  0  0  0  0  0  0  0  0  0  0  0
   56.9190   24.3836   45.1599 H   0  0  0  0  0  0  0  0  0  0  0  0
   58.7148   24.3413   45.1599 H   0  0  0  0  0  0  0  0  0  0  0  0
   56.9165   26.6194   45.3496 H   0  0  0  0  0  0  0  0  0  0  0  0
   58.0062   26.5001   46.8184 H   0  0  0  0  0  0  0  0  0  0  0  0
   57.7565   28.2824   44.0746 H   0  0  0  0  0  0  0  0  0  0  0  0
   59.4750   28.1327   43.4457 H   0  0  0  0  0  0  0  0  0  0  0  0
   57.6101   25.8265   43.0211 H   0  0  0  0  0  0  0  0  0  0  0  0
   57.3871   27.2962   42.0127 H   0  0  0  0  0  0  0  0  0  0  0  0
   58.9651   26.4378   42.0127 H   0  0  0  0  0  0  0  0  0  0  0  0
   60.9917   27.0044   45.6368 H   0  0  0  0  0  0  0  0  0  0  0  0
   60.0698   28.5655   45.5459 H   0  0  0  0  0  0  0  0  0  0  0  0
   58.9045   26.7006   47.4938 H   0  0  0  0  0  0  0  0  0  0  0  0
   60.6264   27.0993   47.8636 H   0  0  0  0  0  0  0  0  0  0  0  0
   60.1160   30.9285   46.8187 H   0  0  0  0  0  0  0  0  0  0  0  0
   58.3273   29.6273   44.5509 H   0  0  0  0  0  0  0  0  0  0  0  0
   57.6067   30.5874   42.3700 H   0  0  0  0  0  0  0  0  0  0  0  0
   57.4578   33.0577   42.0744 H   0  0  0  0  0  0  0  0  0  0  0  0
   58.0133   34.5786   43.9680 H   0  0  0  0  0  0  0  0  0  0  0  0
   59.8368   35.1533   48.5136 H   0  0  0  0  0  0  0  0  0  0  0  0
   59.6453   33.8274   49.7310 H   0  0  0  0  0  0  0  0  0  0  0  0
   61.8520   33.8703   50.7016 H   0  0  0  0  0  0  0  0  0  0  0  0
   64.2701   33.3134   50.4518 H   0  0  0  0  0  0  0  0  0  0  0  0
   65.2256   32.8720   48.1881 H   0  0  0  0  0  0  0  0  0  0  0  0
   63.7405   32.8899   46.1817 H   0  0  0  0  0  0  0  0  0  0  0  0
   61.3151   33.4231   46.4250 H   0  0  0  0  0  0  0  0  0  0  0  0
   57.5285   31.9975   48.0667 H   0  0  0  0  0  0  0  0  0  0  0  0
   60.9339   30.6909   48.7457 H   0  0  0  0  0  0  0  0  0  0  0  0
   61.6062   29.8344   50.9884 H   0  0  0  0  0  0  0  0  0  0  0  0
   57.8186   31.1183   52.6276 H   0  0  0  0  0  0  0  0  0  0  0  0
   57.1463   32.0091   50.3968 H   0  0  0  0  0  0  0  0  0  0  0  0
  1  2  1  0
  2  3  1  0
  3  4  1  0
  4  5  1  0
  3  6  1  0
  6  7  1  0
  7  8  1  0
  8  9  1  0
  9 10  2  0
  9 11  1  0
 11 12  1  0
 12 13  2  0
 13 14  1  0
 14 15  2  0
 15 16  1  0
 16 17  2  0
 17 18  1  0
 18 19  2  0
 18 20  1  0
 20 21  1  0
 21 22  1  0
 22 23  2  0
 23 24  1  0
 24 25  2  0
 25 26  1  0
 26 27  2  0
 20 28  1  0
 28 29  1  0
 29 30  2  0
 30 31  1  0
 31 32  2  0
 32 33  1  0
 32 34  1  0
 34 35  2  0
 28 11  1  0
 35 29  1  0
 17 12  1  0
 27 22  1  0
  1 36  1  0
  1 37  1  0
  1 38  1  0
  2 39  1  0
  2 40  1  0
  4 41  1  0
  4 42  1  0
  5 43  1  0
  5 44  1  0
  5 45  1  0
  6 46  1  0
  6 47  1  0
  7 48  1  0
  7 49  1  0
 11 50  1  6
 13 51  1  0
 14 52  1  0
 15 53  1  0
 16 54  1  0
 21 55  1  0
 21 56  1  0
 23 57  1  0
 24 58  1  0
 25 59  1  0
 26 60  1  0
 27 61  1  0
 28 62  1  1
 30 63  1  0
 31 64  1  0
 34 65  1  0
 35 66  1  0
M  END
>  <UniqueID>  (25) 
23

>  <SMILES>  (25) 
CCN(CC)CCOC(=O)[C@H]1c2ccccc2C(=O)N(Cc2ccccc2)[C@@H]1c1ccc(Br)cc1

>  <Energy>  (25) 
80.30085392615356

>  <Genealogy>  (25) 
CCN(CC)CCOC(=O)[C@H]1c2ccccc2C(=O)N(Cc2ccccc2)[C@@H]1c1ccc(Br)cc1 (chirality)
CCN(CC)CCOC(=O)[C@H]1c2ccccc2C(=O)N(Cc2ccccc2)[C@@H]1c1ccc(Br)cc1 (3D coordinates assigned)
CCN(CC)CCOC(=O)[C@H]1c2ccccc2C(=O)N(Cc2ccccc2)[C@@H]1c1ccc(Br)cc1 (nonaromatic ring conformer: 80.30085392615356 kcal/mol)

>  <smiles>  (25) 
CCN(CC)CCOC(=O)C1c2ccccc2C(=O)N(Cc2ccccc2)C1c1ccc(Br)cc1

>  <score_type>  (25) 
oracle

>  <origin>  (25) 
adg

>  <m_score__min__energy>  (25) 
-8.3599999999999994

>  <m_primary>  (25) 
energy

$$$$
25:0
     RDKit          3D

 55 56  0  0  0  0  0  0  0  0999 V2000
   53.9430   23.2650   46.3210 C   0  0  0  0  0  0  0  0  0  0  0  0
   53.5940   24.4800   45.4690 C   0  0  0  0  0  0  0  0  0  0  0  0
   54.3050   25.6620   45.9470 N   0  0  0  0  0  0  0  0  0  0  0  0
   55.6750   25.9860   45.6760 C   0  0  0  0  0  0  0  0  0  0  0  0
   56.0880   27.1420   45.9630 O   0  0  0  0  0  0  0  0  0  0  0  0
   56.6000   25.0270   44.9700 C   0  0  0  0  0  0  0  0  0  0  0  0
   57.3620   24.2040   45.9400 N   0  0  0  0  0  0  0  0  0  0  0  0
   58.8070   24.1450   45.6340 C   0  0  0  0  0  0  0  0  0  0  0  0
   59.5320   25.4830   45.9060 C   0  0  0  0  0  0  0  0  0  0  0  0
   58.7310   26.3930   46.7550 N   0  0  0  0  0  0  0  0  0  0  0  0
   59.5460   27.5170   47.2600 C   0  0  0  0  0  0  0  0  0  0  0  0
   58.6590   28.6160   47.8580 C   0  0  0  0  0  0  0  0  0  0  0  0
   57.9360   29.2910   46.8290 O   0  0  0  0  0  0  0  0  0  0  0  0
   58.1600   30.6110   46.3990 C   0  0  0  0  0  0  0  0  0  0  0  0
   58.8760   31.5420   47.1780 C   0  0  0  0  0  0  0  0  0  0  0  0
   59.0810   32.8430   46.7160 C   0  0  0  0  0  0  0  0  0  0  0  0
   58.5770   33.2330   45.4750 C   0  0  0  0  0  0  0  0  0  0  0  0
   58.8460   34.9060   44.8820 S   0  0  0  0  0  0  0  0  0  0  0  0
   59.6520   35.4490   46.4200 C   0  0  0  0  0  0  0  0  0  0  0  0
   57.8740   32.3180   44.6870 C   0  0  0  0  0  0  0  0  0  0  0  0
   57.6570   31.0080   45.1440 C   0  0  0  0  0  0  0  0  0  0  0  0
   56.7540   29.8510   44.1540 S   0  0  0  0  0  0  0  0  0  0  0  0
   57.6800   28.3650   43.8220 C   0  0  0  0  0  0  0  0  0  0  0  0
   55.4890   29.4740   44.8730 O   0  0  0  0  0  0  0  0  0  0  0  0
   56.4100   30.4950   42.8400 O   0  0  0  0  0  0  0  0  0  0  0  0
   58.1340   25.6420   47.8730 C   0  0  0  0  0  0  0  0  0  0  0  0
   57.1210   24.6040   47.3460 C   0  0  0  0  0  0  0  0  0  0  0  0
   53.8669   23.5299   47.3859 H   0  0  0  0  0  0  0  0  0  0  0  0
   53.2437   22.4463   46.0959 H   0  0  0  0  0  0  0  0  0  0  0  0
   54.9702   22.9422   46.0959 H   0  0  0  0  0  0  0  0  0  0  0  0
   53.8793   24.2838   44.4249 H   0  0  0  0  0  0  0  0  0  0  0  0
   52.5117   24.6639   45.5387 H   0  0  0  0  0  0  0  0  0  0  0  0
   56.0048   24.3631   44.3259 H   0  0  0  0  0  0  0  0  0  0  0  0
   57.3149   25.6102   44.3710 H   0  0  0  0  0  0  0  0  0  0  0  0
   59.2665   23.3633   46.2568 H   0  0  0  0  0  0  0  0  0  0  0  0
   58.9096   23.9248   44.5612 H   0  0  0  0  0  0  0  0  0  0  0  0
   60.4847   25.2723   46.4139 H   0  0  0  0  0  0  0  0  0  0  0  0
   59.6942   25.9808   44.9386 H   0  0  0  0  0  0  0  0  0  0  0  0
   60.2298   27.1445   48.0370 H   0  0  0  0  0  0  0  0  0  0  0  0
   60.1126   27.9437   46.4192 H   0  0  0  0  0  0  0  0  0  0  0  0
   57.9467   28.1625   48.5629 H   0  0  0  0  0  0  0  0  0  0  0  0
   59.2979   29.3439   48.3796 H   0  0  0  0  0  0  0  0  0  0  0  0
   59.2763   31.2411   48.1574 H   0  0  0  0  0  0  0  0  0  0  0  0
   59.6411   33.5622   47.3316 H   0  0  0  0  0  0  0  0  0  0  0  0
   59.0873   35.0686   47.2840 H   0  0  0  0  0  0  0  0  0  0  0  0
   60.6798   35.0585   46.4530 H   0  0  0  0  0  0  0  0  0  0  0  0
   59.6762   36.5482   46.4530 H   0  0  0  0  0  0  0  0  0  0  0  0
   57.4886   32.6254   43.7037 H   0  0  0  0  0  0  0  0  0  0  0  0
   57.9727   27.8953   44.7726 H   0  0  0  0  0  0  0  0  0  0  0  0
   57.0572   27.6662   43.2442 H   0  0  0  0  0  0  0  0  0  0  0  0
   58.5817   28.6162   43.2442 H   0  0  0  0  0  0  0  0  0  0  0  0
   58.9302   25.1224   48.4263 H   0  0  0  0  0  0  0  0  0  0  0  0
   57.6099   26.3465   48.5355 H   0  0  0  0  0  0  0  0  0  0  0  0
   57.1815   23.7062   47.9787 H   0  0  0  0  0  0  0  0  0  0  0  0
   56.1272   25.0742   47.3828 H   0  0  0  0  0  0  0  0  0  0  0  0
  1  2  1  0
  2  3  1  0
  3  4  1  0
  4  5  2  0
  4  6  1  0
  6  7  1  0
  7  8  1  0
  8  9  1  0
  9 10  1  0
 10 11  1  0
 11 12  1  0
 12 13  1  0
 13 14  1  0
 14 15  2  0
 15 16  1  0
 16 17  2  0
 17 18  1  0
 18 19  1  0
 17 20  1  0
 20 21  2  0
 21 22  1  0
 22 23  1  0
 22 24  2  0
 22 25  2  0
 10 26  1  0
 26 27  1  0
 27  7  1  0
 21 14  1  0
  1 28  1  0
  1 29  1  0
  1 30  1  0
  2 31  1  0
  2 32  1  0
  6 33  1  0
  6 34  1  0
  8 35  1  0
  8 36  1  0
  9 37  1  0
  9 38  1  0
 11 39  1  0
 11 40  1  0
 12 41  1  0
 12 42  1  0
 15 43  1  0
 16 44  1  0
 19 45  1  0
 19 46  1  0
 19 47  1  0
 20 48  1  0
 23 49  1  0
 23 50  1  0
 23 51  1  0
 26 52  1  0
 26 53  1  0
 27 54  1  0
 27 55  1  0
M  CHG  1   3  -1
M  END
>  <UniqueID>  (26) 
24

>  <SMILES>  (26) 
CC[N-]C(=O)CN1CCN(CCOc2ccc(SC)cc2S(C)(=O)=O)CC1

>  <Energy>  (26) 
54.620875352259404

>  <Genealogy>  (26) 
CC[N-]C(=O)CN1CCN(CCOc2ccc(SC)cc2S(C)(=O)=O)CC1 (protonated)
CC[N-]C(=O)CN1CCN(CCOc2ccc(SC)cc2S(C)(=O)=O)CC1 (3D coordinates assigned)
CC[N-]C(=O)CN1CCN(CCOc2ccc(SC)cc2S(C)(=O)=O)CC1 (nonaromatic ring conformer: 54.620875352259404 kcal/mol)

>  <smiles>  (26) 
CCNC(=O)CN1CCN(CCOc2ccc(SC)cc2S(C)(=O)=O)CC1

>  <score_type>  (26) 
oracle

>  <origin>  (26) 
adg

>  <m_score__min__energy>  (26) 
-9.7699999999999996

>  <m_primary>  (26) 
energy

$$$$
26:0
     RDKit          3D

 55 57  0  0  0  0  0  0  0  0999 V2000
   59.7910   34.0700   49.0890 C   0  0  0  0  0  0  0  0  0  0  0  0
   61.3270   34.0500   49.0330 C   0  0  0  0  0  0  0  0  0  0  0  0
   61.9140   32.7440   48.6490 N   0  0  0  0  0  0  0  0  0  0  0  0
   63.2930   32.8170   48.1090 C   0  0  0  0  0  0  0  0  0  0  0  0
   63.4070   33.5280   46.7580 C   0  0  0  0  0  0  0  0  0  0  0  0
   61.6410   31.6310   49.5870 C   0  0  0  0  0  0  0  0  0  0  0  0
   60.8300   30.4980   48.9370 C   0  0  0  0  0  0  0  0  0  0  0  0
   61.0780   30.4150   47.4880 N   0  0  0  0  0  0  0  0  0  0  0  0
   59.8270   30.4820   46.7680 C   0  0  0  0  0  0  0  0  0  0  0  0
   59.0040   29.3510   46.6220 C   0  0  0  0  0  0  0  0  0  0  0  0
   57.8180   29.4030   45.9140 C   0  0  0  0  0  0  0  0  0  0  0  0
   57.3780   30.5740   45.2950 C   0  0  0  0  0  0  0  0  0  0  0  0
   56.1740   30.5970   44.5880 O   0  0  0  0  0  0  0  0  0  0  0  0
   56.0860   30.0830   43.2650 C   0  0  0  0  0  0  0  0  0  0  0  0
   58.1910   31.7240   45.3920 C   0  0  0  0  0  0  0  0  0  0  0  0
   57.8230   32.9290   44.7730 C   0  0  0  0  0  0  0  0  0  0  0  0
   58.6490   34.0490   44.8750 C   0  0  0  0  0  0  0  0  0  0  0  0
   59.8400   33.9620   45.5950 C   0  0  0  0  0  0  0  0  0  0  0  0
   60.1920   32.7950   46.1960 N   0  0  0  0  0  0  0  0  0  0  0  0
   59.4150   31.6780   46.1240 C   0  0  0  0  0  0  0  0  0  0  0  0
   57.2370   28.0630   45.9120 C   0  0  0  0  0  0  0  0  0  0  0  0
   56.1890   27.7150   45.3060 O   0  0  0  0  0  0  0  0  0  0  0  0
   58.0600   27.1690   46.6600 N   0  0  0  0  0  0  0  0  0  0  0  0
   57.9980   25.7090   46.6430 C   0  0  0  0  0  0  0  0  0  0  0  0
   56.6720   25.2130   47.2250 C   0  0  0  0  0  0  0  0  0  0  0  0
   55.6020   25.5390   46.3800 O   0  0  0  0  0  0  0  0  0  0  0  0
   59.1710   27.9640   47.0750 C   0  0  0  0  0  0  0  0  0  0  0  0
   60.1630   27.5030   47.7010 O   0  0  0  0  0  0  0  0  0  0  0  0
   59.4624   34.0743   50.1388 H   0  0  0  0  0  0  0  0  0  0  0  0
   59.4174   34.9731   48.5842 H   0  0  0  0  0  0  0  0  0  0  0  0
   59.3940   33.1769   48.5842 H   0  0  0  0  0  0  0  0  0  0  0  0
   61.6533   34.8018   48.2993 H   0  0  0  0  0  0  0  0  0  0  0  0
   61.6788   34.2617   50.0535 H   0  0  0  0  0  0  0  0  0  0  0  0
   63.9187   33.3564   48.8354 H   0  0  0  0  0  0  0  0  0  0  0  0
   63.6214   31.7799   47.9463 H   0  0  0  0  0  0  0  0  0  0  0  0
   63.5792   34.6020   46.9222 H   0  0  0  0  0  0  0  0  0  0  0  0
   64.2487   33.1043   46.1905 H   0  0  0  0  0  0  0  0  0  0  0  0
   62.4750   33.3887   46.1905 H   0  0  0  0  0  0  0  0  0  0  0  0
   62.6001   31.2220   49.9376 H   0  0  0  0  0  0  0  0  0  0  0  0
   61.0446   32.0339   50.4188 H   0  0  0  0  0  0  0  0  0  0  0  0
   61.1143   29.5430   49.4029 H   0  0  0  0  0  0  0  0  0  0  0  0
   59.7613   30.7081   49.0913 H   0  0  0  0  0  0  0  0  0  0  0  0
   61.5690   29.5210   47.2610 H   0  0  0  0  0  0  0  0  0  0  0  0
   61.7110   31.1890   47.1850 H   0  0  0  0  0  0  0  0  0  0  0  0
   55.9005   28.9995   43.3042 H   0  0  0  0  0  0  0  0  0  0  0  0
   55.2595   30.5775   42.7337 H   0  0  0  0  0  0  0  0  0  0  0  0
   57.0300   30.2744   42.7337 H   0  0  0  0  0  0  0  0  0  0  0  0
   56.8820   32.9904   44.2066 H   0  0  0  0  0  0  0  0  0  0  0  0
   58.3626   34.9942   44.3907 H   0  0  0  0  0  0  0  0  0  0  0  0
   60.4967   34.8407   45.6768 H   0  0  0  0  0  0  0  0  0  0  0  0
   58.0903   25.3564   45.6051 H   0  0  0  0  0  0  0  0  0  0  0  0
   58.8212   25.3146   47.2568 H   0  0  0  0  0  0  0  0  0  0  0  0
   56.7171   24.1204   47.3439 H   0  0  0  0  0  0  0  0  0  0  0  0
   56.5117   25.6990   48.1987 H   0  0  0  0  0  0  0  0  0  0  0  0
   55.1750   26.3480   46.7630 H   0  0  0  0  0  0  0  0  0  0  0  0
  1  2  1  0
  2  3  1  0
  3  4  1  0
  4  5  1  0
  3  6  1  0
  6  7  1  0
  7  8  1  0
  8  9  1  0
  9 10  2  0
 10 11  1  0
 11 12  2  0
 12 13  1  0
 13 14  1  0
 12 15  1  0
 15 16  2  0
 16 17  1  0
 17 18  2  0
 18 19  1  0
 19 20  2  0
 11 21  1  0
 21 22  2  0
 21 23  1  0
 23 24  1  0
 24 25  1  0
 25 26  1  0
 23 27  1  0
 27 28  2  0
 20  9  1  0
 27 10  1  0
 20 15  1  0
  1 29  1  0
  1 30  1  0
  1 31  1  0
  2 32  1  0
  2 33  1  0
  4 34  1  0
  4 35  1  0
  5 36  1  0
  5 37  1  0
  5 38  1  0
  6 39  1  0
  6 40  1  0
  7 41  1  0
  7 42  1  0
  8 43  1  0
  8 44  1  0
 14 45  1  0
 14 46  1  0
 14 47  1  0
 16 48  1  0
 17 49  1  0
 18 50  1  0
 24 51  1  0
 24 52  1  0
 25 53  1  0
 25 54  1  0
 26 55  1  0
M  CHG  1   8   1
M  END
>  <UniqueID>  (27) 
25

>  <SMILES>  (27) 
CCN(CC)CC[NH2+]c1c2c(c(OC)c3cccnc13)C(=O)N(CCO)C2=O

>  <Energy>  (27) 
100.80415430257179

>  <Genealogy>  (27) 
CCN(CC)CC[NH2+]c1c2c(c(OC)c3cccnc13)C(=O)N(CCO)C2=O (protonated)
CCN(CC)CC[NH2+]c1c2c(c(OC)c3cccnc13)C(=O)N(CCO)C2=O (3D coordinates assigned)
CCN(CC)CC[NH2+]c1c2c(c(OC)c3cccnc13)C(=O)N(CCO)C2=O (nonaromatic ring conformer: 100.80415430257179 kcal/mol)

>  <smiles>  (27) 
CCN(CC)CCNc1c2c(c(OC)c3cccnc13)C(=O)N(CCO)C2=O

>  <score_type>  (27) 
oracle

>  <origin>  (27) 
adg

>  <m_score__min__energy>  (27) 
-6.7400000000000002

>  <m_primary>  (27) 
energy

$$$$
27:0
     RDKit          3D

 26 28  0  0  0  0  0  0  0  0999 V2000
   60.2780   27.5870   47.9930 C   0  0  0  0  0  0  0  0  0  0  0  0
   59.0070   27.6080   47.1970 C   0  0  0  0  0  0  0  0  0  0  0  0
   58.2840   26.4230   46.9400 C   0  0  0  0  0  0  0  0  0  0  0  0
   57.1060   26.4550   46.1570 C   0  0  0  0  0  0  0  0  0  0  0  0
   56.1390   24.8420   45.8270 Br  0  0  0  0  0  0  0  0  0  0  0  0
   56.6460   27.6700   45.6140 C   0  0  0  0  0  0  0  0  0  0  0  0
   57.3890   28.8170   45.8750 C   0  0  0  0  0  0  0  0  0  0  0  0
   57.1430   30.0640   45.4510 N   0  0  0  0  0  0  0  0  0  0  0  0
   58.1750   30.7720   45.9850 C   0  0  0  0  0  0  0  0  0  0  0  0
   58.3400   32.2290   45.7870 C   0  0  0  0  0  0  0  0  0  0  0  0
   57.3960   32.9600   45.0480 C   0  0  0  0  0  0  0  0  0  0  0  0
   57.5700   34.3350   44.8730 C   0  0  0  0  0  0  0  0  0  0  0  0
   58.6480   34.9610   45.4150 N   0  0  0  0  0  0  0  0  0  0  0  0
   59.5790   34.2810   46.1340 C   0  0  0  0  0  0  0  0  0  0  0  0
   59.4430   32.9050   46.3330 C   0  0  0  0  0  0  0  0  0  0  0  0
   59.0450   30.0220   46.7150 N   0  0  0  0  0  0  0  0  0  0  0  0
   58.5220   28.7900   46.6290 C   0  0  0  0  0  0  0  0  0  0  0  0
   60.0384   27.5910   49.0666 H   0  0  0  0  0  0  0  0  0  0  0  0
   60.8491   26.6793   47.7481 H   0  0  0  0  0  0  0  0  0  0  0  0
   60.8787   28.4753   47.7481 H   0  0  0  0  0  0  0  0  0  0  0  0
   58.6394   25.4670   47.3519 H   0  0  0  0  0  0  0  0  0  0  0  0
   55.7311   27.7109   45.0047 H   0  0  0  0  0  0  0  0  0  0  0  0
   56.5242   32.4527   44.6092 H   0  0  0  0  0  0  0  0  0  0  0  0
   56.8331   34.9123   44.2954 H   0  0  0  0  0  0  0  0  0  0  0  0
   60.4412   34.8149   46.5601 H   0  0  0  0  0  0  0  0  0  0  0  0
   60.1964   32.3537   46.9147 H   0  0  0  0  0  0  0  0  0  0  0  0
  1  2  1  0
  2  3  2  0
  3  4  1  0
  4  5  1  0
  4  6  2  0
  6  7  1  0
  7  8  1  0
  8  9  2  0
  9 10  1  0
 10 11  2  0
 11 12  1  0
 12 13  2  0
 13 14  1  0
 14 15  2  0
  9 16  1  0
 16 17  1  0
 17  2  1  0
 17  7  2  0
 15 10  1  0
  1 18  1  0
  1 19  1  0
  1 20  1  0
  3 21  1  0
  6 22  1  0
 11 23  1  0
 12 24  1  0
 14 25  1  0
 15 26  1  0
M  CHG  1  16  -1
M  END
>  <UniqueID>  (28) 
26

>  <SMILES>  (28) 
Cc1cc(Br)cc2nc(-c3ccncc3)[n-]c12

>  <Energy>  (28) 
63.84387376811867

>  <Genealogy>  (28) 
Cc1cc(Br)cc2nc(-c3ccncc3)[n-]c12 (protonated)
Cc1cc(Br)cc2nc(-c3ccncc3)[n-]c12 (3D coordinates assigned)
Cc1cc(Br)cc2nc(-c3ccncc3)[n-]c12 (optimized conformer: 63.84387376811867 kcal/mol)

>  <smiles>  (28) 
Cc1cc(Br)cc2nc(-c3ccncc3)[nH]c12

>  <score_type>  (28) 
oracle

>  <origin>  (28) 
adg

>  <m_score__min__energy>  (28) 
-7.2699999999999996

>  <m_primary>  (28) 
energy

$$$$
28:0
     RDKit          3D

 62 66  0  0  0  0  0  0  0  0999 V2000
   62.5770   33.5720   46.4560 C   0  0  0  0  0  0  0  0  0  0  0  0
   62.8300   33.1260   47.8690 C   0  0  0  0  0  0  0  0  0  0  0  0
   64.1290   32.7550   48.2560 C   0  0  0  0  0  0  0  0  0  0  0  0
   64.3900   32.3590   49.5710 C   0  0  0  0  0  0  0  0  0  0  0  0
   63.3590   32.3380   50.5140 C   0  0  0  0  0  0  0  0  0  0  0  0
   62.0670   32.7200   50.1470 C   0  0  0  0  0  0  0  0  0  0  0  0
   61.7950   33.1230   48.8320 C   0  0  0  0  0  0  0  0  0  0  0  0
   60.4710   33.5610   48.4960 N   0  0  0  0  0  0  0  0  0  0  0  0
   59.3660   32.5970   48.5720 C   0  0  0  0  0  0  0  0  0  0  0  0
   58.1140   33.1260   47.8660 C   0  0  0  0  0  0  0  0  0  0  0  0
   58.4830   33.7820   46.6050 N   0  0  0  0  0  0  0  0  0  0  0  0
   57.7080   33.5480   45.4210 C   0  0  0  0  0  0  0  0  0  0  0  0
   57.1390   34.5190   44.8510 O   0  0  0  0  0  0  0  0  0  0  0  0
   57.6040   32.1910   44.8430 C   0  0  0  0  0  0  0  0  0  0  0  0
   57.4060   32.0170   43.4460 C   0  0  0  0  0  0  0  0  0  0  0  0
   57.3320   30.7270   42.8850 C   0  0  0  0  0  0  0  0  0  0  0  0
   57.4680   29.6400   43.7440 C   0  0  0  0  0  0  0  0  0  0  0  0
   57.4510   28.3340   43.4320 N   0  0  0  0  0  0  0  0  0  0  0  0
   57.6450   27.7530   44.6480 C   0  0  0  0  0  0  0  0  0  0  0  0
   57.7310   26.2700   44.8410 C   0  0  0  0  0  0  0  0  0  0  0  0
   58.3360   25.8940   46.2040 C   0  0  0  0  0  0  0  0  0  0  0  0
   59.8570   26.1070   46.2850 C   0  0  0  0  0  0  0  0  0  0  0  0
   60.2130   27.5290   46.6340 C   0  0  0  0  0  0  0  0  0  0  0  0
   60.7130   28.3940   45.6480 C   0  0  0  0  0  0  0  0  0  0  0  0
   61.0620   29.7090   45.9740 C   0  0  0  0  0  0  0  0  0  0  0  0
   60.9180   30.1670   47.2860 C   0  0  0  0  0  0  0  0  0  0  0  0
   60.4260   29.3100   48.2750 C   0  0  0  0  0  0  0  0  0  0  0  0
   60.0770   27.9950   47.9530 C   0  0  0  0  0  0  0  0  0  0  0  0
   57.7810   28.6260   45.6330 O   0  0  0  0  0  0  0  0  0  0  0  0
   57.6680   29.8020   45.0790 C   0  0  0  0  0  0  0  0  0  0  0  0
   57.7400   31.0550   45.6750 C   0  0  0  0  0  0  0  0  0  0  0  0
   59.5660   34.7750   46.5650 C   0  0  0  0  0  0  0  0  0  0  0  0
   60.2650   34.8950   47.9240 C   0  0  0  0  0  0  0  0  0  0  0  0
   62.0343   34.5287   46.4651 H   0  0  0  0  0  0  0  0  0  0  0  0
   63.5370   33.7000   45.9344 H   0  0  0  0  0  0  0  0  0  0  0  0
   61.9746   32.8137   45.9344 H   0  0  0  0  0  0  0  0  0  0  0  0
   64.9457   32.7763   47.5194 H   0  0  0  0  0  0  0  0  0  0  0  0
   65.4083   32.0635   49.8638 H   0  0  0  0  0  0  0  0  0  0  0  0
   63.5654   32.0202   51.5467 H   0  0  0  0  0  0  0  0  0  0  0  0
   61.2589   32.7047   50.8931 H   0  0  0  0  0  0  0  0  0  0  0  0
   59.6772   31.6572   48.0925 H   0  0  0  0  0  0  0  0  0  0  0  0
   59.1224   32.4322   49.6319 H   0  0  0  0  0  0  0  0  0  0  0  0
   57.4344   32.2874   47.6542 H   0  0  0  0  0  0  0  0  0  0  0  0
   57.6152   33.8573   48.5190 H   0  0  0  0  0  0  0  0  0  0  0  0
   57.3095   32.8992   42.7961 H   0  0  0  0  0  0  0  0  0  0  0  0
   57.1724   30.5836   41.8061 H   0  0  0  0  0  0  0  0  0  0  0  0
   56.7186   25.8450   44.7738 H   0  0  0  0  0  0  0  0  0  0  0  0
   58.3886   25.8658   44.0574 H   0  0  0  0  0  0  0  0  0  0  0  0
   57.8572   26.5110   46.9786 H   0  0  0  0  0  0  0  0  0  0  0  0
   58.1535   24.8193   46.3513 H   0  0  0  0  0  0  0  0  0  0  0  0
   60.2680   25.4391   47.0563 H   0  0  0  0  0  0  0  0  0  0  0  0
   60.2831   25.8845   45.2956 H   0  0  0  0  0  0  0  0  0  0  0  0
   60.8309   28.0363   44.6145 H   0  0  0  0  0  0  0  0  0  0  0  0
   61.4503   30.3832   45.1963 H   0  0  0  0  0  0  0  0  0  0  0  0
   61.1916   31.2015   47.5408 H   0  0  0  0  0  0  0  0  0  0  0  0
   60.3133   29.6709   49.3080 H   0  0  0  0  0  0  0  0  0  0  0  0
   59.6945   27.3225   48.7350 H   0  0  0  0  0  0  0  0  0  0  0  0
   57.8976   31.1603   46.7585 H   0  0  0  0  0  0  0  0  0  0  0  0
   60.3040   34.4695   45.8087 H   0  0  0  0  0  0  0  0  0  0  0  0
   59.1301   35.7528   46.3123 H   0  0  0  0  0  0  0  0  0  0  0  0
   61.2384   35.3898   47.7915 H   0  0  0  0  0  0  0  0  0  0  0  0
   59.6369   35.4888   48.6043 H   0  0  0  0  0  0  0  0  0  0  0  0
  1  2  1  0
  2  3  2  0
  3  4  1  0
  4  5  2  0
  5  6  1  0
  6  7  2  0
  7  8  1  0
  8  9  1  0
  9 10  1  0
 10 11  1  0
 11 12  1  0
 12 13  2  0
 12 14  1  0
 14 15  2  0
 15 16  1  0
 16 17  2  0
 17 18  1  0
 18 19  2  0
 19 20  1  0
 20 21  1  0
 21 22  1  0
 22 23  1  0
 23 24  2  0
 24 25  1  0
 25 26  2  0
 26 27  1  0
 27 28  2  0
 19 29  1  0
 29 30  1  0
 30 31  2  0
 11 32  1  0
 32 33  1  0
  7  2  1  0
 33  8  1  0
 31 14  1  0
 30 17  1  0
 28 23  1  0
  1 34  1  0
  1 35  1  0
  1 36  1  0
  3 37  1  0
  4 38  1  0
  5 39  1  0
  6 40  1  0
  9 41  1  0
  9 42  1  0
 10 43  1  0
 10 44  1  0
 15 45  1  0
 16 46  1  0
 20 47  1  0
 20 48  1  0
 21 49  1  0
 21 50  1  0
 22 51  1  0
 22 52  1  0
 24 53  1  0
 25 54  1  0
 26 55  1  0
 27 56  1  0
 28 57  1  0
 31 58  1  0
 32 59  1  0
 32 60  1  0
 33 61  1  0
 33 62  1  0
M  END
>  <UniqueID>  (29) 
27

>  <SMILES>  (29) 
Cc1ccccc1N1CCN(C(=O)c2ccc3nc(CCCc4ccccc4)oc3c2)CC1

>  <Energy>  (29) 
109.74066292565287

>  <Genealogy>  (29) 
Cc1ccccc1N1CCN(C(=O)c2ccc3nc(CCCc4ccccc4)oc3c2)CC1 (3D coordinates assigned)
Cc1ccccc1N1CCN(C(=O)c2ccc3nc(CCCc4ccccc4)oc3c2)CC1 (nonaromatic ring conformer: 109.74066292565287 kcal/mol)

>  <smiles>  (29) 
Cc1ccccc1N1CCN(C(=O)c2ccc3nc(CCCc4ccccc4)oc3c2)CC1

>  <score_type>  (29) 
oracle

>  <origin>  (29) 
adg

>  <m_score__min__energy>  (29) 
-9.5899999999999999

>  <m_primary>  (29) 
energy

$$$$
29:0
     RDKit          3D

 51 52  0  0  0  0  0  0  0  0999 V2000
   63.3600   34.1470   46.7920 C   0  0  0  0  0  0  0  0  0  0  0  0
   63.0310   32.6820   47.0630 C   0  0  0  0  0  0  0  0  0  0  0  0
   62.3160   32.5460   48.3530 N   0  0  0  0  0  0  0  0  0  0  0  0
   62.9290   31.4950   49.1960 C   0  0  0  0  0  0  0  0  0  0  0  0
   64.2550   31.9850   49.7720 C   0  0  0  0  0  0  0  0  0  0  0  0
   62.2550   33.8410   49.0710 C   0  0  0  0  0  0  0  0  0  0  0  0
   61.1010   33.8330   50.0780 C   0  0  0  0  0  0  0  0  0  0  0  0
   59.9410   33.2750   49.4880 O   0  0  0  0  0  0  0  0  0  0  0  0
   59.4120   32.2240   50.2770 C   0  0  0  0  0  0  0  0  0  0  0  0
   59.2950   30.9330   49.4580 C   0  0  0  0  0  0  0  0  0  0  0  0
   59.8490   31.1050   48.1120 N   0  0  0  0  0  0  0  0  0  0  0  0
   59.0330   31.4810   46.9860 C   0  0  0  0  0  0  0  0  0  0  0  0
   58.1520   30.5430   46.4180 C   0  0  0  0  0  0  0  0  0  0  0  0
   57.3950   30.8480   45.2850 C   0  0  0  0  0  0  0  0  0  0  0  0
   56.5410   29.8590   44.7720 O   0  0  0  0  0  0  0  0  0  0  0  0
   56.2260   29.7010   43.3920 C   0  0  0  0  0  0  0  0  0  0  0  0
   57.5140   32.1160   44.6970 C   0  0  0  0  0  0  0  0  0  0  0  0
   58.3720   33.0760   45.2510 C   0  0  0  0  0  0  0  0  0  0  0  0
   58.4770   34.3480   44.6730 C   0  0  0  0  0  0  0  0  0  0  0  0
   59.3090   35.3040   45.2470 C   0  0  0  0  0  0  0  0  0  0  0  0
   60.0220   34.9870   46.4010 C   0  0  0  0  0  0  0  0  0  0  0  0
   59.9210   33.7510   46.9590 N   0  0  0  0  0  0  0  0  0  0  0  0
   59.1320   32.7740   46.4090 C   0  0  0  0  0  0  0  0  0  0  0  0
   63.4794   34.6788   47.7475 H   0  0  0  0  0  0  0  0  0  0  0  0
   64.2952   34.2124   46.2166 H   0  0  0  0  0  0  0  0  0  0  0  0
   62.5426   34.6060   46.2166 H   0  0  0  0  0  0  0  0  0  0  0  0
   62.3942   32.2972   46.2528 H   0  0  0  0  0  0  0  0  0  0  0  0
   63.9680   32.1077   47.1109 H   0  0  0  0  0  0  0  0  0  0  0  0
   62.2449   31.2462   50.0207 H   0  0  0  0  0  0  0  0  0  0  0  0
   63.1144   30.6037   48.5786 H   0  0  0  0  0  0  0  0  0  0  0  0
   64.2064   31.9671   50.8708 H   0  0  0  0  0  0  0  0  0  0  0  0
   65.0684   31.3281   49.4301 H   0  0  0  0  0  0  0  0  0  0  0  0
   64.4457   33.0130   49.4301 H   0  0  0  0  0  0  0  0  0  0  0  0
   63.2024   34.0054   49.6052 H   0  0  0  0  0  0  0  0  0  0  0  0
   62.0902   34.6483   48.3422 H   0  0  0  0  0  0  0  0  0  0  0  0
   61.3875   33.2329   50.9542 H   0  0  0  0  0  0  0  0  0  0  0  0
   60.8855   34.8670   50.3852 H   0  0  0  0  0  0  0  0  0  0  0  0
   60.0772   32.0475   51.1351 H   0  0  0  0  0  0  0  0  0  0  0  0
   58.4088   32.5138   50.6229 H   0  0  0  0  0  0  0  0  0  0  0  0
   59.8451   30.1312   49.9723 H   0  0  0  0  0  0  0  0  0  0  0  0
   58.2295   30.6758   49.3650 H   0  0  0  0  0  0  0  0  0  0  0  0
   60.8740   30.9600   47.9690 H   0  0  0  0  0  0  0  0  0  0  0  0
   58.0573   29.5475   46.8763 H   0  0  0  0  0  0  0  0  0  0  0  0
   55.2467   29.2098   43.2933 H   0  0  0  0  0  0  0  0  0  0  0  0
   56.1913   30.6884   42.9084 H   0  0  0  0  0  0  0  0  0  0  0  0
   56.9967   29.0828   42.9084 H   0  0  0  0  0  0  0  0  0  0  0  0
   56.9308   32.3582   43.7963 H   0  0  0  0  0  0  0  0  0  0  0  0
   57.9025   34.5904   43.7668 H   0  0  0  0  0  0  0  0  0  0  0  0
   59.4030   36.3017   44.7934 H   0  0  0  0  0  0  0  0  0  0  0  0
   60.6724   35.7431   46.8649 H   0  0  0  0  0  0  0  0  0  0  0  0
   60.4530   33.5880   47.8410 H   0  0  0  0  0  0  0  0  0  0  0  0
  1  2  1  0
  2  3  1  0
  3  4  1  0
  4  5  1  0
  3  6  1  0
  6  7  1  0
  7  8  1  0
  8  9  1  0
  9 10  1  0
 10 11  1  0
 11 12  1  0
 12 13  2  0
 13 14  1  0
 14 15  1  0
 15 16  1  0
 14 17  2  0
 17 18  1  0
 18 19  2  0
 19 20  1  0
 20 21  2  0
 21 22  1  0
 22 23  2  0
 23 12  1  0
 23 18  1  0
  1 24  1  0
  1 25  1  0
  1 26  1  0
  2 27  1  0
  2 28  1  0
  4 29  1  0
  4 30  1  0
  5 31  1  0
  5 32  1  0
  5 33  1  0
  6 34  1  0
  6 35  1  0
  7 36  1  0
  7 37  1  0
  9 38  1  0
  9 39  1  0
 10 40  1  0
 10 41  1  0
 11 42  1  0
 13 43  1  0
 16 44  1  0
 16 45  1  0
 16 46  1  0
 17 47  1  0
 19 48  1  0
 20 49  1  0
 21 50  1  0
 22 51  1  0
M  CHG  1  22   1
M  END
>  <UniqueID>  (30) 
28

>  <SMILES>  (30) 
CCN(CC)CCOCCNc1cc(OC)cc2ccc[nH+]c12

>  <Energy>  (30) 
55.56321519887348

>  <Genealogy>  (30) 
CCN(CC)CCOCCNc1cc(OC)cc2ccc[nH+]c12 (protonated)
CCN(CC)CCOCCNc1cc(OC)cc2ccc[nH+]c12 (3D coordinates assigned)
CCN(CC)CCOCCNc1cc(OC)cc2ccc[nH+]c12 (optimized conformer: 55.56321519887348 kcal/mol)

>  <smiles>  (30) 
CCN(CC)CCOCCNc1cc(OC)cc2cccnc12

>  <score_type>  (30) 
oracle

>  <origin>  (30) 
adg

>  <m_score__min__energy>  (30) 
-3.98

>  <m_primary>  (30) 
energy

$$$$
30:0
     RDKit          3D

 64 66  0  0  0  0  0  0  0  0999 V2000
   62.7000   33.8510   46.4900 C   0  0  0  0  0  0  0  0  0  0  0  0
   63.8220   33.0790   47.1830 C   0  0  0  0  0  0  0  0  0  0  0  0
   63.4970   32.8380   48.6050 N   0  0  0  0  0  0  0  0  0  0  0  0
   64.5210   32.1100   49.3910 C   0  0  0  0  0  0  0  0  0  0  0  0
   65.5380   33.0100   50.0960 C   0  0  0  0  0  0  0  0  0  0  0  0
   62.8080   33.9470   49.3060 C   0  0  0  0  0  0  0  0  0  0  0  0
   61.7260   33.5020   50.3130 C   0  0  0  0  0  0  0  0  0  0  0  0
   61.4630   32.1070   50.1690 O   0  0  0  0  0  0  0  0  0  0  0  0
   60.7360   31.5160   49.1230 C   0  0  0  0  0  0  0  0  0  0  0  0
   60.2960   32.3480   48.0720 C   0  0  0  0  0  0  0  0  0  0  0  0
   59.5760   31.8040   47.0000 C   0  0  0  0  0  0  0  0  0  0  0  0
   59.3070   30.4720   47.0140 N   0  0  0  0  0  0  0  0  0  0  0  0
   58.6670   29.6970   46.1150 C   0  0  0  0  0  0  0  0  0  0  0  0
   58.2130   30.1650   44.7550 C   0  0  0  0  0  0  0  0  0  0  0  0
   57.0350   31.0530   44.8620 N   0  0  0  0  0  0  0  0  0  0  0  0
   55.8800   30.4760   44.1350 C   0  0  0  0  0  0  0  0  0  0  0  0
   56.3100   29.6960   42.8910 C   0  0  0  0  0  0  0  0  0  0  0  0
   57.3300   32.4690   44.5110 C   0  0  0  0  0  0  0  0  0  0  0  0
   57.0490   33.4860   45.6260 C   0  0  0  0  0  0  0  0  0  0  0  0
   58.7060   28.3870   46.5970 C   0  0  0  0  0  0  0  0  0  0  0  0
   58.1930   27.1740   45.9340 C   0  0  0  0  0  0  0  0  0  0  0  0
   58.2540   27.0400   44.5380 C   0  0  0  0  0  0  0  0  0  0  0  0
   57.7760   25.8800   43.9200 C   0  0  0  0  0  0  0  0  0  0  0  0
   57.2200   24.8550   44.6900 C   0  0  0  0  0  0  0  0  0  0  0  0
   56.6200   23.4000   43.9130 Cl  0  0  0  0  0  0  0  0  0  0  0  0
   57.1370   24.9930   46.0790 C   0  0  0  0  0  0  0  0  0  0  0  0
   57.6160   26.1500   46.6990 C   0  0  0  0  0  0  0  0  0  0  0  0
   59.3670   28.3700   47.7790 N   0  0  0  0  0  0  0  0  0  0  0  0
   59.7100   29.6520   48.0000 C   0  0  0  0  0  0  0  0  0  0  0  0
   60.4330   30.1350   49.0880 C   0  0  0  0  0  0  0  0  0  0  0  0
   62.0433   34.3028   47.2480 H   0  0  0  0  0  0  0  0  0  0  0  0
   63.1336   34.6429   45.8616 H   0  0  0  0  0  0  0  0  0  0  0  0
   62.1154   33.1630   45.8616 H   0  0  0  0  0  0  0  0  0  0  0  0
   63.9602   32.1124   46.6764 H   0  0  0  0  0  0  0  0  0  0  0  0
   64.7442   33.6763   47.1298 H   0  0  0  0  0  0  0  0  0  0  0  0
   64.0052   31.5101   50.1552 H   0  0  0  0  0  0  0  0  0  0  0  0
   65.0886   31.4980   48.6746 H   0  0  0  0  0  0  0  0  0  0  0  0
   65.4239   32.9090   51.1854 H   0  0  0  0  0  0  0  0  0  0  0  0
   66.5558   32.7114   49.8047 H   0  0  0  0  0  0  0  0  0  0  0  0
   65.3654   34.0566   49.8047 H   0  0  0  0  0  0  0  0  0  0  0  0
   63.5647   34.5297   49.8518 H   0  0  0  0  0  0  0  0  0  0  0  0
   62.2890   34.5292   48.5303 H   0  0  0  0  0  0  0  0  0  0  0  0
   62.0775   33.7018   51.3360 H   0  0  0  0  0  0  0  0  0  0  0  0
   60.8007   34.0638   50.1174 H   0  0  0  0  0  0  0  0  0  0  0  0
   60.5184   33.4251   48.0941 H   0  0  0  0  0  0  0  0  0  0  0  0
   59.2371   32.4390   46.1682 H   0  0  0  0  0  0  0  0  0  0  0  0
   59.0342   30.7146   44.2718 H   0  0  0  0  0  0  0  0  0  0  0  0
   57.9329   29.2842   44.1585 H   0  0  0  0  0  0  0  0  0  0  0  0
   55.3404   29.7958   44.8104 H   0  0  0  0  0  0  0  0  0  0  0  0
   55.2386   31.3072   43.8069 H   0  0  0  0  0  0  0  0  0  0  0  0
   56.8202   28.7706   43.1966 H   0  0  0  0  0  0  0  0  0  0  0  0
   55.4230   29.4447   42.2910 H   0  0  0  0  0  0  0  0  0  0  0  0
   56.9960   30.3119   42.2910 H   0  0  0  0  0  0  0  0  0  0  0  0
   58.3950   32.5398   44.2450 H   0  0  0  0  0  0  0  0  0  0  0  0
   56.6546   32.7273   43.6821 H   0  0  0  0  0  0  0  0  0  0  0  0
   57.1825   33.0028   46.6051 H   0  0  0  0  0  0  0  0  0  0  0  0
   57.7473   34.3312   45.5359 H   0  0  0  0  0  0  0  0  0  0  0  0
   56.0159   33.8528   45.5359 H   0  0  0  0  0  0  0  0  0  0  0  0
   58.6794   27.8504   43.9278 H   0  0  0  0  0  0  0  0  0  0  0  0
   57.8378   25.7744   42.8268 H   0  0  0  0  0  0  0  0  0  0  0  0
   56.6937   24.1890   46.6849 H   0  0  0  0  0  0  0  0  0  0  0  0
   57.5402   26.2580   47.7911 H   0  0  0  0  0  0  0  0  0  0  0  0
   59.5780   27.5420   48.3810 H   0  0  0  0  0  0  0  0  0  0  0  0
   60.7585   29.4628   49.8956 H   0  0  0  0  0  0  0  0  0  0  0  0
  1  2  1  0
  2  3  1  0
  3  4  1  0
  4  5  1  0
  3  6  1  0
  6  7  1  0
  7  8  1  0
  8  9  1  0
  9 10  1  0
 10 11  2  0
 11 12  1  0
 12 13  1  0
 13 14  1  0
 14 15  1  0
 15 16  1  0
 16 17  1  0
 15 18  1  0
 18 19  1  0
 13 20  2  0
 20 21  1  0
 21 22  2  0
 22 23  1  0
 23 24  2  0
 24 25  1  0
 24 26  1  0
 26 27  2  0
 20 28  1  0
 28 29  2  0
 29 30  1  0
 30  9  2  0
 29 12  1  0
 27 21  1  0
  1 31  1  0
  1 32  1  0
  1 33  1  0
  2 34  1  0
  2 35  1  0
  4 36  1  0
  4 37  1  0
  5 38  1  0
  5 39  1  0
  5 40  1  0
  6 41  1  0
  6 42  1  0
  7 43  1  0
  7 44  1  0
 10 45  1  0
 11 46  1  0
 14 47  1  0
 14 48  1  0
 16 49  1  0
 16 50  1  0
 17 51  1  0
 17 52  1  0
 17 53  1  0
 18 54  1  0
 18 55  1  0
 19 56  1  0
 19 57  1  0
 19 58  1  0
 22 59  1  0
 23 60  1  0
 26 61  1  0
 27 62  1  0
 28 63  1  0
 30 64  1  0
M  CHG  1  28   1
M  END
>  <UniqueID>  (31) 
29

>  <SMILES>  (31) 
CCN(CC)CCOc1ccn2c(CN(CC)CC)c(-c3ccc(Cl)cc3)[nH+]c2c1

>  <Energy>  (31) 
112.22846354886961

>  <Genealogy>  (31) 
CCN(CC)CCOc1ccn2c(CN(CC)CC)c(-c3ccc(Cl)cc3)[nH+]c2c1 (protonated)
CCN(CC)CCOc1ccn2c(CN(CC)CC)c(-c3ccc(Cl)cc3)[nH+]c2c1 (3D coordinates assigned)
CCN(CC)CCOc1ccn2c(CN(CC)CC)c(-c3ccc(Cl)cc3)[nH+]c2c1 (optimized conformer: 112.22846354886961 kcal/mol)

>  <smiles>  (31) 
CCN(CC)CCOc1ccn2c(CN(CC)CC)c(-c3ccc(Cl)cc3)nc2c1

>  <score_type>  (31) 
oracle

>  <origin>  (31) 
adg

>  <m_score__min__energy>  (31) 
-6.0599999999999996

>  <m_primary>  (31) 
energy

$$$$
31:0
     RDKit          3D

 51 55  0  0  0  0  0  0  0  0999 V2000
   56.3340   22.4420   48.4850 C   0  0  0  0  0  0  0  0  0  0  0  0
   57.3150   23.1110   47.6980 O   0  0  0  0  0  0  0  0  0  0  0  0
   57.1230   24.3580   47.0870 C   0  0  0  0  0  0  0  0  0  0  0  0
   55.9330   24.6970   46.4180 C   0  0  0  0  0  0  0  0  0  0  0  0
   55.7900   25.9550   45.8230 C   0  0  0  0  0  0  0  0  0  0  0  0
   56.8320   26.8970   45.8860 C   0  0  0  0  0  0  0  0  0  0  0  0
   56.7020   28.2350   45.2680 C   0  0  0  0  0  0  0  0  0  0  0  0
   57.7070   29.0090   44.7170 C   0  0  0  0  0  0  0  0  0  0  0  0
   57.0420   30.1360   44.2800 C   0  0  0  0  0  0  0  0  0  0  0  0
   57.6610   31.3090   43.5890 C   0  0  0  0  0  0  0  0  0  0  0  0
   57.3670   32.5790   44.2800 N   0  0  0  0  0  0  0  0  0  0  0  0
   58.2580   32.9850   45.4070 C   0  0  2  0  0  0  0  0  0  0  0  0
   57.4850   33.3800   46.7040 C   0  0  0  0  0  0  0  0  0  0  0  0
   58.4750   33.8320   47.8020 C   0  0  1  0  0  0  0  0  0  0  0  0
   59.4490   32.6760   48.1230 C   0  0  0  0  0  0  0  0  0  0  0  0
   60.2440   32.2990   46.8520 C   0  0  2  0  0  0  0  0  0  0  0  0
   61.0440   33.5240   46.3660 C   0  0  0  0  0  0  0  0  0  0  0  0
   60.0710   34.6750   46.0450 C   0  0  2  0  0  0  0  0  0  0  0  0
   59.2760   35.0560   47.3110 C   0  0  0  0  0  0  0  0  0  0  0  0
   59.0900   34.2230   44.9450 C   0  0  0  0  0  0  0  0  0  0  0  0
   59.2640   31.8460   45.7470 C   0  0  0  0  0  0  0  0  0  0  0  0
   55.7310   30.0340   44.5650 N   0  0  0  0  0  0  0  0  0  0  0  0
   55.5650   28.8850   45.1540 O   0  0  0  0  0  0  0  0  0  0  0  0
   58.0180   26.5540   46.5570 C   0  0  0  0  0  0  0  0  0  0  0  0
   58.1590   25.2960   47.1500 C   0  0  0  0  0  0  0  0  0  0  0  0
   56.5549   22.5926   49.5520 H   0  0  0  0  0  0  0  0  0  0  0  0
   55.3388   22.8504   48.2553 H   0  0  0  0  0  0  0  0  0  0  0  0
   56.3508   21.3664   48.2553 H   0  0  0  0  0  0  0  0  0  0  0  0
   55.1103   23.9689   46.3624 H   0  0  0  0  0  0  0  0  0  0  0  0
   54.8552   26.2092   45.3019 H   0  0  0  0  0  0  0  0  0  0  0  0
   58.7806   28.7805   44.6445 H   0  0  0  0  0  0  0  0  0  0  0  0
   58.7513   31.1669   43.5568 H   0  0  0  0  0  0  0  0  0  0  0  0
   57.2361   31.3683   42.5761 H   0  0  0  0  0  0  0  0  0  0  0  0
   56.3870   32.4870   44.6380 H   0  0  0  0  0  0  0  0  0  0  0  0
   56.7933   34.2047   46.4772 H   0  0  0  0  0  0  0  0  0  0  0  0
   56.9236   32.5061   47.0661 H   0  0  0  0  0  0  0  0  0  0  0  0
   57.9133   34.1047   48.7076 H   0  0  0  0  0  0  0  0  0  0  0  0
   60.1477   32.9942   48.9108 H   0  0  0  0  0  0  0  0  0  0  0  0
   58.8772   31.8021   48.4686 H   0  0  0  0  0  0  0  0  0  0  0  0
   60.9383   31.4773   47.0817 H   0  0  0  0  0  0  0  0  0  0  0  0
   61.7424   33.8426   47.1539 H   0  0  0  0  0  0  0  0  0  0  0  0
   61.6104   33.2581   45.4613 H   0  0  0  0  0  0  0  0  0  0  0  0
   60.6435   35.5478   45.6979 H   0  0  0  0  0  0  0  0  0  0  0  0
   59.9729   35.3783   48.0987 H   0  0  0  0  0  0  0  0  0  0  0  0
   58.5834   35.8777   47.0761 H   0  0  0  0  0  0  0  0  0  0  0  0
   58.4037   35.0509   44.7136 H   0  0  0  0  0  0  0  0  0  0  0  0
   59.6703   33.9409   44.0541 H   0  0  0  0  0  0  0  0  0  0  0  0
   59.8338   31.5850   44.8430 H   0  0  0  0  0  0  0  0  0  0  0  0
   58.7019   30.9719   46.1076 H   0  0  0  0  0  0  0  0  0  0  0  0
   58.8416   27.2808   46.6161 H   0  0  0  0  0  0  0  0  0  0  0  0
   59.0936   25.0412   47.6712 H   0  0  0  0  0  0  0  0  0  0  0  0
  1  2  1  0
  2  3  1  0
  3  4  2  0
  4  5  1  0
  5  6  2  0
  6  7  1  0
  7  8  2  0
  8  9  1  0
  9 10  1  0
 10 11  1  0
 12 11  1  6
 12 13  1  0
 13 14  1  0
 14 15  1  0
 15 16  1  0
 16 17  1  0
 17 18  1  0
 18 19  1  0
 18 20  1  0
 16 21  1  0
  9 22  2  0
 22 23  1  0
  6 24  1  0
 24 25  2  0
 25  3  1  0
 23  7  1  0
 20 12  1  0
 21 12  1  0
 19 14  1  0
  1 26  1  0
  1 27  1  0
  1 28  1  0
  4 29  1  0
  5 30  1  0
  8 31  1  0
 10 32  1  0
 10 33  1  0
 11 34  1  0
 13 35  1  0
 13 36  1  0
 14 37  1  1
 15 38  1  0
 15 39  1  0
 16 40  1  1
 17 41  1  0
 17 42  1  0
 18 43  1  6
 19 44  1  0
 19 45  1  0
 20 46  1  0
 20 47  1  0
 21 48  1  0
 21 49  1  0
 24 50  1  0
 25 51  1  0
M  END
>  <UniqueID>  (32) 
30

>  <SMILES>  (32) 
COc1ccc(-c2cc(CNC34CC5CC(CC(C5)C3)C4)no2)cc1

>  <Energy>  (32) 
89.44639576682957

>  <Genealogy>  (32) 
COc1ccc(-c2cc(CNC34CC5CC(CC(C5)C3)C4)no2)cc1 (3D coordinates assigned)
COc1ccc(-c2cc(CNC34CC5CC(CC(C5)C3)C4)no2)cc1 (nonaromatic ring conformer: 89.44639576682957 kcal/mol)

>  <smiles>  (32) 
COc1ccc(-c2cc(CNC34CC5CC(CC(C5)C3)C4)no2)cc1

>  <score_type>  (32) 
oracle

>  <origin>  (32) 
adg

>  <m_score__min__energy>  (32) 
-9.7899999999999991

>  <m_primary>  (32) 
energy

$$$$
32:0
     RDKit          3D

 48 50  0  0  0  0  0  0  0  0999 V2000
   67.2790   33.0820   50.4900 C   0  0  0  0  0  0  0  0  0  0  0  0
   66.0840   33.5690   51.3140 C   0  0  0  0  0  0  0  0  0  0  0  0
   64.7960   32.8590   51.0810 N   0  0  0  0  0  0  0  0  0  0  0  0
   63.5740   33.6130   51.4630 C   0  0  0  0  0  0  0  0  0  0  0  0
   62.9810   34.4640   50.3280 C   0  0  0  0  0  0  0  0  0  0  0  0
   62.8990   33.6840   49.0960 N   0  0  0  0  0  0  0  0  0  0  0  0
   61.7890   33.8740   48.1960 C   0  0  0  0  0  0  0  0  0  0  0  0
   60.5480   34.3000   48.6910 C   0  0  0  0  0  0  0  0  0  0  0  0
   59.4660   34.4840   47.8240 C   0  0  0  0  0  0  0  0  0  0  0  0
   59.6050   34.2460   46.4470 C   0  0  0  0  0  0  0  0  0  0  0  0
   58.4710   34.4440   45.5820 N   0  0  0  0  0  0  0  0  0  0  0  0
   57.3830   33.4730   45.4480 C   0  0  0  0  0  0  0  0  0  0  0  0
   57.9120   32.0620   45.5270 C   0  0  0  0  0  0  0  0  0  0  0  0
   58.2330   31.5140   46.7810 C   0  0  0  0  0  0  0  0  0  0  0  0
   58.7480   30.2190   46.8780 C   0  0  0  0  0  0  0  0  0  0  0  0
   58.9590   29.4610   45.7250 C   0  0  0  0  0  0  0  0  0  0  0  0
   58.6590   29.9990   44.4720 C   0  0  0  0  0  0  0  0  0  0  0  0
   58.1420   31.2960   44.3620 C   0  0  0  0  0  0  0  0  0  0  0  0
   57.7820   31.9800   42.6060 Br  0  0  0  0  0  0  0  0  0  0  0  0
   60.8510   33.8180   45.9530 C   0  0  0  0  0  0  0  0  0  0  0  0
   61.9320   33.6330   46.8210 C   0  0  0  0  0  0  0  0  0  0  0  0
   64.1140   33.0100   48.6430 C   0  0  0  0  0  0  0  0  0  0  0  0
   64.6970   32.1580   49.7740 C   0  0  0  0  0  0  0  0  0  0  0  0
   68.0821   32.7547   51.1668 H   0  0  0  0  0  0  0  0  0  0  0  0
   66.9678   32.2390   49.8556 H   0  0  0  0  0  0  0  0  0  0  0  0
   67.6457   33.9024   49.8556 H   0  0  0  0  0  0  0  0  0  0  0  0
   66.3414   33.4582   52.3777 H   0  0  0  0  0  0  0  0  0  0  0  0
   65.9104   34.6082   50.9980 H   0  0  0  0  0  0  0  0  0  0  0  0
   64.8370   32.0740   51.7770 H   0  0  0  0  0  0  0  0  0  0  0  0
   62.8105   32.8913   51.7887 H   0  0  0  0  0  0  0  0  0  0  0  0
   63.8680   34.3099   52.2617 H   0  0  0  0  0  0  0  0  0  0  0  0
   61.9724   34.7971   50.6138 H   0  0  0  0  0  0  0  0  0  0  0  0
   63.6322   35.3339   50.1568 H   0  0  0  0  0  0  0  0  0  0  0  0
   60.4248   34.4905   49.7673 H   0  0  0  0  0  0  0  0  0  0  0  0
   58.4975   34.8181   48.2243 H   0  0  0  0  0  0  0  0  0  0  0  0
   58.4250   35.3300   45.0270 H   0  0  0  0  0  0  0  0  0  0  0  0
   56.6561   33.6316   46.2582 H   0  0  0  0  0  0  0  0  0  0  0  0
   56.9019   33.6151   44.4691 H   0  0  0  0  0  0  0  0  0  0  0  0
   58.0775   32.1093   47.6928 H   0  0  0  0  0  0  0  0  0  0  0  0
   58.9877   29.7959   47.8647 H   0  0  0  0  0  0  0  0  0  0  0  0
   59.3614   28.4403   45.8035 H   0  0  0  0  0  0  0  0  0  0  0  0
   58.8298   29.4002   43.5652 H   0  0  0  0  0  0  0  0  0  0  0  0
   60.9758   33.6276   44.8768 H   0  0  0  0  0  0  0  0  0  0  0  0
   62.9007   33.2963   46.4232 H   0  0  0  0  0  0  0  0  0  0  0  0
   63.8731   32.3625   47.7870 H   0  0  0  0  0  0  0  0  0  0  0  0
   64.8547   33.7663   48.3440 H   0  0  0  0  0  0  0  0  0  0  0  0
   64.0553   31.2742   49.9051 H   0  0  0  0  0  0  0  0  0  0  0  0
   65.7243   31.9009   49.4765 H   0  0  0  0  0  0  0  0  0  0  0  0
  1  2  1  0
  2  3  1  0
  3  4  1  0
  4  5  1  0
  5  6  1  0
  6  7  1  0
  7  8  2  0
  8  9  1  0
  9 10  2  0
 10 11  1  0
 11 12  1  0
 12 13  1  0
 13 14  2  0
 14 15  1  0
 15 16  2  0
 16 17  1  0
 17 18  2  0
 18 19  1  0
 10 20  1  0
 20 21  2  0
  6 22  1  0
 22 23  1  0
 23  3  1  0
 21  7  1  0
 18 13  1  0
  1 24  1  0
  1 25  1  0
  1 26  1  0
  2 27  1  0
  2 28  1  0
  3 29  1  0
  4 30  1  0
  4 31  1  0
  5 32  1  0
  5 33  1  0
  8 34  1  0
  9 35  1  0
 11 36  1  0
 12 37  1  0
 12 38  1  0
 14 39  1  0
 15 40  1  0
 16 41  1  0
 17 42  1  0
 20 43  1  0
 21 44  1  0
 22 45  1  0
 22 46  1  0
 23 47  1  0
 23 48  1  0
M  CHG  1   3   1
M  END
>  <UniqueID>  (33) 
31

>  <SMILES>  (33) 
CC[NH+]1CCN(c2ccc(NCc3ccccc3Br)cc2)CC1

>  <Energy>  (33) 
64.41964147828332

>  <Genealogy>  (33) 
CC[NH+]1CCN(c2ccc(NCc3ccccc3Br)cc2)CC1 (protonated)
CC[NH+]1CCN(c2ccc(NCc3ccccc3Br)cc2)CC1 (3D coordinates assigned)
CC[NH+]1CCN(c2ccc(NCc3ccccc3Br)cc2)CC1 (nonaromatic ring conformer: 64.41964147828332 kcal/mol)

>  <smiles>  (33) 
CCN1CCN(c2ccc(NCc3ccccc3Br)cc2)CC1

>  <score_type>  (33) 
oracle

>  <origin>  (33) 
adg

>  <m_score__min__energy>  (33) 
-6.5199999999999996

>  <m_primary>  (33) 
energy

$$$$
33:0
     RDKit          3D

 55 56  0  0  0  0  0  0  0  0999 V2000
   59.0990   29.6810   44.8620 C   0  0  0  0  0  0  0  0  0  0  0  0
   57.7510   29.9220   45.5370 C   0  0  0  0  0  0  0  0  0  0  0  0
   57.0350   31.0420   44.8820 N   0  0  0  0  0  0  0  0  0  0  0  0
   57.0740   30.9230   43.4040 C   0  0  0  0  0  0  0  0  0  0  0  0
   56.2790   29.7150   42.9060 C   0  0  0  0  0  0  0  0  0  0  0  0
   57.4830   32.3630   45.3920 C   0  0  0  0  0  0  0  0  0  0  0  0
   58.1730   33.2450   44.3370 C   0  0  0  0  0  0  0  0  0  0  0  0
   58.6250   34.4450   44.9540 O   0  0  0  0  0  0  0  0  0  0  0  0
   59.5920   34.4550   45.9620 C   0  0  0  0  0  0  0  0  0  0  0  0
   60.7510   34.0120   45.7410 O   0  0  0  0  0  0  0  0  0  0  0  0
   59.2440   34.9870   47.3190 C   0  0  0  0  0  0  0  0  0  0  0  0
   60.2640   34.5400   48.3810 C   0  0  0  0  0  0  0  0  0  0  0  0
   59.7550   33.3740   49.2060 C   0  0  0  0  0  0  0  0  0  0  0  0
   59.3210   33.6420   50.5220 C   0  0  0  0  0  0  0  0  0  0  0  0
   58.7170   32.6510   51.2980 C   0  0  0  0  0  0  0  0  0  0  0  0
   58.5170   31.3780   50.7710 C   0  0  0  0  0  0  0  0  0  0  0  0
   58.9340   31.0900   49.4700 C   0  0  0  0  0  0  0  0  0  0  0  0
   59.5730   32.0590   48.6810 C   0  0  0  0  0  0  0  0  0  0  0  0
   59.9640   31.6540   47.3950 O   0  0  0  0  0  0  0  0  0  0  0  0
   61.2070   31.0410   47.0540 C   0  0  0  0  0  0  0  0  0  0  0  0
   62.3200   31.7590   47.7670 C   0  0  0  0  0  0  0  0  0  0  0  0
   62.9980   32.8100   47.1280 C   0  0  0  0  0  0  0  0  0  0  0  0
   64.0420   33.4770   47.7800 C   0  0  0  0  0  0  0  0  0  0  0  0
   64.4070   33.1070   49.0760 C   0  0  0  0  0  0  0  0  0  0  0  0
   63.7340   32.0640   49.7200 C   0  0  0  0  0  0  0  0  0  0  0  0
   62.6970   31.3890   49.0680 C   0  0  0  0  0  0  0  0  0  0  0  0
   59.8741   29.5424   45.6301 H   0  0  0  0  0  0  0  0  0  0  0  0
   59.0390   28.7793   44.2348 H   0  0  0  0  0  0  0  0  0  0  0  0
   59.3551   30.5476   44.2348 H   0  0  0  0  0  0  0  0  0  0  0  0
   57.1409   29.0097   45.4629 H   0  0  0  0  0  0  0  0  0  0  0  0
   57.9228   30.1788   46.5927 H   0  0  0  0  0  0  0  0  0  0  0  0
   56.6471   31.8357   42.9627 H   0  0  0  0  0  0  0  0  0  0  0  0
   58.1229   30.7881   43.1012 H   0  0  0  0  0  0  0  0  0  0  0  0
   55.9028   29.1433   43.7672 H   0  0  0  0  0  0  0  0  0  0  0  0
   55.4310   30.0602   42.2963 H   0  0  0  0  0  0  0  0  0  0  0  0
   56.9315   29.0727   42.2963 H   0  0  0  0  0  0  0  0  0  0  0  0
   56.6029   32.9031   45.7710 H   0  0  0  0  0  0  0  0  0  0  0  0
   58.2298   32.1632   46.1745 H   0  0  0  0  0  0  0  0  0  0  0  0
   59.0310   32.7050   43.9101 H   0  0  0  0  0  0  0  0  0  0  0  0
   57.4607   33.4874   43.5346 H   0  0  0  0  0  0  0  0  0  0  0  0
   59.2292   36.0862   47.2786 H   0  0  0  0  0  0  0  0  0  0  0  0
   58.2573   34.5911   47.6013 H   0  0  0  0  0  0  0  0  0  0  0  0
   61.1930   34.2379   47.8754 H   0  0  0  0  0  0  0  0  0  0  0  0
   60.4370   35.3865   49.0618 H   0  0  0  0  0  0  0  0  0  0  0  0
   59.4610   34.6485   50.9432 H   0  0  0  0  0  0  0  0  0  0  0  0
   58.3989   32.8762   52.3266 H   0  0  0  0  0  0  0  0  0  0  0  0
   58.0312   30.6003   51.3786 H   0  0  0  0  0  0  0  0  0  0  0  0
   58.7586   30.0860   49.0561 H   0  0  0  0  0  0  0  0  0  0  0  0
   61.1936   29.9848   47.3609 H   0  0  0  0  0  0  0  0  0  0  0  0
   61.3639   31.0995   45.9668 H   0  0  0  0  0  0  0  0  0  0  0  0
   62.7074   33.1105   46.1105 H   0  0  0  0  0  0  0  0  0  0  0  0
   64.5753   34.2933   47.2709 H   0  0  0  0  0  0  0  0  0  0  0  0
   65.2233   33.6356   49.5900 H   0  0  0  0  0  0  0  0  0  0  0  0
   64.0208   31.7738   50.7415 H   0  0  0  0  0  0  0  0  0  0  0  0
   62.1747   30.5651   49.5764 H   0  0  0  0  0  0  0  0  0  0  0  0
  1  2  1  0
  2  3  1  0
  3  4  1  0
  4  5  1  0
  3  6  1  0
  6  7  1  0
  7  8  1  0
  8  9  1  0
  9 10  2  0
  9 11  1  0
 11 12  1  0
 12 13  1  0
 13 14  2  0
 14 15  1  0
 15 16  2  0
 16 17  1  0
 17 18  2  0
 18 19  1  0
 19 20  1  0
 20 21  1  0
 21 22  2  0
 22 23  1  0
 23 24  2  0
 24 25  1  0
 25 26  2  0
 18 13  1  0
 26 21  1  0
  1 27  1  0
  1 28  1  0
  1 29  1  0
  2 30  1  0
  2 31  1  0
  4 32  1  0
  4 33  1  0
  5 34  1  0
  5 35  1  0
  5 36  1  0
  6 37  1  0
  6 38  1  0
  7 39  1  0
  7 40  1  0
 11 41  1  0
 11 42  1  0
 12 43  1  0
 12 44  1  0
 14 45  1  0
 15 46  1  0
 16 47  1  0
 17 48  1  0
 20 49  1  0
 20 50  1  0
 22 51  1  0
 23 52  1  0
 24 53  1  0
 25 54  1  0
 26 55  1  0
M  END
>  <UniqueID>  (34) 
32

>  <SMILES>  (34) 
CCN(CC)CCOC(=O)CCc1ccccc1OCc1ccccc1

>  <Energy>  (34) 
56.627821124172854

>  <Genealogy>  (34) 
CCN(CC)CCOC(=O)CCc1ccccc1OCc1ccccc1 (3D coordinates assigned)
CCN(CC)CCOC(=O)CCc1ccccc1OCc1ccccc1 (optimized conformer: 56.627821124172854 kcal/mol)

>  <smiles>  (34) 
CCN(CC)CCOC(=O)CCc1ccccc1OCc1ccccc1

>  <score_type>  (34) 
oracle

>  <origin>  (34) 
adg

>  <m_score__min__energy>  (34) 
-7.5999999999999996

>  <m_primary>  (34) 
energy

$$$$
34:0
     RDKit          3D

 47 49  0  0  0  0  0  0  0  0999 V2000
   63.4600   33.5580   46.7430 C   0  0  0  0  0  0  0  0  0  0  0  0
   62.4920   34.1690   47.5890 O   0  0  0  0  0  0  0  0  0  0  0  0
   62.2780   33.8280   48.9350 C   0  0  0  0  0  0  0  0  0  0  0  0
   63.3360   33.4210   49.7730 C   0  0  0  0  0  0  0  0  0  0  0  0
   63.0940   33.0980   51.1100 C   0  0  0  0  0  0  0  0  0  0  0  0
   61.8010   33.1770   51.6270 C   0  0  0  0  0  0  0  0  0  0  0  0
   60.7430   33.5780   50.8090 C   0  0  0  0  0  0  0  0  0  0  0  0
   60.9690   33.8990   49.4580 C   0  0  0  0  0  0  0  0  0  0  0  0
   59.8060   34.3200   48.5800 C   0  0  0  0  0  0  0  0  0  0  0  0
   60.0000   33.9220   47.1630 N   0  0  0  0  0  0  0  0  0  0  0  0
   59.2990   32.6460   46.8400 C   0  0  0  0  0  0  0  0  0  0  0  0
   57.9470   32.8770   46.1440 C   0  0  0  0  0  0  0  0  0  0  0  0
   58.0930   33.6280   44.8700 N   0  0  0  0  0  0  0  0  0  0  0  0
   58.1010   32.7210   43.7040 C   0  0  0  0  0  0  0  0  0  0  0  0
   57.8310   31.2990   44.1250 C   0  0  0  0  0  0  0  0  0  0  0  0
   58.8880   30.4460   44.4840 C   0  0  0  0  0  0  0  0  0  0  0  0
   58.6300   29.1220   44.8490 C   0  0  0  0  0  0  0  0  0  0  0  0
   57.3190   28.6380   44.8540 C   0  0  0  0  0  0  0  0  0  0  0  0
   56.2620   29.4790   44.4920 C   0  0  0  0  0  0  0  0  0  0  0  0
   54.9910   29.0080   44.4930 F   0  0  0  0  0  0  0  0  0  0  0  0
   56.5160   30.8050   44.1260 C   0  0  0  0  0  0  0  0  0  0  0  0
   59.2670   34.5370   44.8600 C   0  0  0  0  0  0  0  0  0  0  0  0
   59.5990   35.0400   46.2700 C   0  0  0  0  0  0  0  0  0  0  0  0
   64.2306   33.0716   47.3591 H   0  0  0  0  0  0  0  0  0  0  0  0
   62.9693   32.8056   46.1081 H   0  0  0  0  0  0  0  0  0  0  0  0
   63.9281   34.3246   46.1081 H   0  0  0  0  0  0  0  0  0  0  0  0
   64.3581   33.3575   49.3715 H   0  0  0  0  0  0  0  0  0  0  0  0
   63.9251   32.7805   51.7569 H   0  0  0  0  0  0  0  0  0  0  0  0
   61.6145   32.9230   52.6809 H   0  0  0  0  0  0  0  0  0  0  0  0
   59.7262   33.6434   51.2235 H   0  0  0  0  0  0  0  0  0  0  0  0
   58.8875   33.8473   48.9581 H   0  0  0  0  0  0  0  0  0  0  0  0
   59.7358   35.4172   48.6159 H   0  0  0  0  0  0  0  0  0  0  0  0
   61.0240   33.7630   47.0030 H   0  0  0  0  0  0  0  0  0  0  0  0
   59.9408   32.0494   46.1750 H   0  0  0  0  0  0  0  0  0  0  0  0
   59.1022   32.1234   47.7877 H   0  0  0  0  0  0  0  0  0  0  0  0
   57.4877   31.9008   45.9292 H   0  0  0  0  0  0  0  0  0  0  0  0
   57.3175   33.4756   46.8188 H   0  0  0  0  0  0  0  0  0  0  0  0
   57.3233   33.0401   42.9945 H   0  0  0  0  0  0  0  0  0  0  0  0
   59.0938   32.7647   43.2323 H   0  0  0  0  0  0  0  0  0  0  0  0
   59.9219   30.8215   44.4778 H   0  0  0  0  0  0  0  0  0  0  0  0
   59.4607   28.4592   45.1330 H   0  0  0  0  0  0  0  0  0  0  0  0
   57.1186   27.5956   45.1426 H   0  0  0  0  0  0  0  0  0  0  0  0
   55.6831   31.4632   43.8380 H   0  0  0  0  0  0  0  0  0  0  0  0
   60.1362   33.9942   44.4601 H   0  0  0  0  0  0  0  0  0  0  0  0
   59.0255   35.4064   44.2309 H   0  0  0  0  0  0  0  0  0  0  0  0
   60.4262   35.7623   46.2070 H   0  0  0  0  0  0  0  0  0  0  0  0
   58.6993   35.5134   46.6899 H   0  0  0  0  0  0  0  0  0  0  0  0
  1  2  1  0
  2  3  1  0
  3  4  2  0
  4  5  1  0
  5  6  2  0
  6  7  1  0
  7  8  2  0
  8  9  1  0
  9 10  1  0
 10 11  1  0
 11 12  1  0
 12 13  1  0
 13 14  1  0
 14 15  1  0
 15 16  2  0
 16 17  1  0
 17 18  2  0
 18 19  1  0
 19 20  1  0
 19 21  2  0
 13 22  1  0
 22 23  1  0
  8  3  1  0
 23 10  1  0
 21 15  1  0
  1 24  1  0
  1 25  1  0
  1 26  1  0
  4 27  1  0
  5 28  1  0
  6 29  1  0
  7 30  1  0
  9 31  1  0
  9 32  1  0
 10 33  1  0
 11 34  1  0
 11 35  1  0
 12 36  1  0
 12 37  1  0
 14 38  1  0
 14 39  1  0
 16 40  1  0
 17 41  1  0
 18 42  1  0
 21 43  1  0
 22 44  1  0
 22 45  1  0
 23 46  1  0
 23 47  1  0
M  CHG  1  10   1
M  END
>  <UniqueID>  (35) 
33

>  <SMILES>  (35) 
COc1ccccc1C[NH+]1CCN(Cc2cccc(F)c2)CC1

>  <Energy>  (35) 
62.33258231392307

>  <Genealogy>  (35) 
COc1ccccc1C[NH+]1CCN(Cc2cccc(F)c2)CC1 (protonated)
COc1ccccc1C[NH+]1CCN(Cc2cccc(F)c2)CC1 (3D coordinates assigned)
COc1ccccc1C[NH+]1CCN(Cc2cccc(F)c2)CC1 (nonaromatic ring conformer: 62.33258231392307 kcal/mol)

>  <smiles>  (35) 
COc1ccccc1CN1CCN(Cc2cccc(F)c2)CC1

>  <score_type>  (35) 
oracle

>  <origin>  (35) 
adg

>  <m_score__min__energy>  (35) 
-5.5999999999999996

>  <m_primary>  (35) 
energy

$$$$
35:0
     RDKit          3D

 43 45  0  0  0  0  0  0  0  0999 V2000
   62.0030   31.9510   47.5310 C   0  0  0  0  0  0  0  0  0  0  0  0
   60.6440   31.6380   47.2480 O   0  0  0  0  0  0  0  0  0  0  0  0
   59.7590   32.4780   46.5540 C   0  0  0  0  0  0  0  0  0  0  0  0
   59.8200   33.8810   46.6720 C   0  0  0  0  0  0  0  0  0  0  0  0
   58.9060   34.6880   45.9890 C   0  0  0  0  0  0  0  0  0  0  0  0
   57.9260   34.1080   45.1830 C   0  0  0  0  0  0  0  0  0  0  0  0
   57.8580   32.7200   45.0540 C   0  0  0  0  0  0  0  0  0  0  0  0
   58.7750   31.8990   45.7300 C   0  0  0  0  0  0  0  0  0  0  0  0
   58.6980   30.4730   45.5700 N   0  0  0  0  0  0  0  0  0  0  0  0
   59.9070   29.7100   45.2410 C   0  0  0  0  0  0  0  0  0  0  0  0
   59.5460   28.2870   44.7960 C   0  0  0  0  0  0  0  0  0  0  0  0
   58.4260   28.3200   43.8270 N   0  0  0  0  0  0  0  0  0  0  0  0
   58.1510   27.0090   43.2630 C   0  0  0  0  0  0  0  0  0  0  0  0
   58.3120   26.8450   42.0210 O   0  0  0  0  0  0  0  0  0  0  0  0
   57.6860   25.8400   44.0680 C   0  0  0  0  0  0  0  0  0  0  0  0
   57.3430   24.6460   43.4010 C   0  0  0  0  0  0  0  0  0  0  0  0
   56.8900   23.5340   44.1160 C   0  0  0  0  0  0  0  0  0  0  0  0
   56.7650   23.5980   45.5050 C   0  0  0  0  0  0  0  0  0  0  0  0
   57.0910   24.7750   46.1800 C   0  0  0  0  0  0  0  0  0  0  0  0
   57.5440   25.8910   45.4690 C   0  0  0  0  0  0  0  0  0  0  0  0
   57.1840   28.9720   44.3300 C   0  0  0  0  0  0  0  0  0  0  0  0
   57.3990   29.7940   45.6130 C   0  0  0  0  0  0  0  0  0  0  0  0
   62.1522   31.9854   48.6203 H   0  0  0  0  0  0  0  0  0  0  0  0
   62.6552   31.1796   47.0957 H   0  0  0  0  0  0  0  0  0  0  0  0
   62.2521   32.9300   47.0957 H   0  0  0  0  0  0  0  0  0  0  0  0
   60.5914   34.3435   47.3053 H   0  0  0  0  0  0  0  0  0  0  0  0
   58.9594   35.7823   46.0871 H   0  0  0  0  0  0  0  0  0  0  0  0
   57.2061   34.7454   44.6486 H   0  0  0  0  0  0  0  0  0  0  0  0
   57.0821   32.2668   44.4195 H   0  0  0  0  0  0  0  0  0  0  0  0
   60.4439   30.2178   44.4262 H   0  0  0  0  0  0  0  0  0  0  0  0
   60.5419   29.6498   46.1372 H   0  0  0  0  0  0  0  0  0  0  0  0
   60.4227   27.8217   44.3217 H   0  0  0  0  0  0  0  0  0  0  0  0
   59.2401   27.7034   45.6768 H   0  0  0  0  0  0  0  0  0  0  0  0
   58.7710   28.9120   43.0310 H   0  0  0  0  0  0  0  0  0  0  0  0
   57.4329   24.5892   42.3062 H   0  0  0  0  0  0  0  0  0  0  0  0
   56.6315   22.6068   43.5835 H   0  0  0  0  0  0  0  0  0  0  0  0
   56.4099   22.7215   46.0668 H   0  0  0  0  0  0  0  0  0  0  0  0
   56.9914   24.8252   47.2743 H   0  0  0  0  0  0  0  0  0  0  0  0
   57.7917   26.8171   46.0085 H   0  0  0  0  0  0  0  0  0  0  0  0
   56.8011   29.6428   43.5468 H   0  0  0  0  0  0  0  0  0  0  0  0
   56.4734   28.1689   44.5754 H   0  0  0  0  0  0  0  0  0  0  0  0
   56.5998   30.5446   45.7014 H   0  0  0  0  0  0  0  0  0  0  0  0
   57.3773   29.1171   46.4798 H   0  0  0  0  0  0  0  0  0  0  0  0
  1  2  1  0
  2  3  1  0
  3  4  2  0
  4  5  1  0
  5  6  2  0
  6  7  1  0
  7  8  2  0
  8  9  1  0
  9 10  1  0
 10 11  1  0
 11 12  1  0
 12 13  1  0
 13 14  2  0
 13 15  1  0
 15 16  2  0
 16 17  1  0
 17 18  2  0
 18 19  1  0
 19 20  2  0
 12 21  1  0
 21 22  1  0
  8  3  1  0
 22  9  1  0
 20 15  1  0
  1 23  1  0
  1 24  1  0
  1 25  1  0
  4 26  1  0
  5 27  1  0
  6 28  1  0
  7 29  1  0
 10 30  1  0
 10 31  1  0
 11 32  1  0
 11 33  1  0
 12 34  1  0
 16 35  1  0
 17 36  1  0
 18 37  1  0
 19 38  1  0
 20 39  1  0
 21 40  1  0
 21 41  1  0
 22 42  1  0
 22 43  1  0
M  CHG  1  12   1
M  END
>  <UniqueID>  (36) 
34

>  <SMILES>  (36) 
COc1ccccc1N1CC[NH+](C(=O)c2ccccc2)CC1

>  <Energy>  (36) 
63.16487811370094

>  <Genealogy>  (36) 
COc1ccccc1N1CC[NH+](C(=O)c2ccccc2)CC1 (protonated)
COc1ccccc1N1CC[NH+](C(=O)c2ccccc2)CC1 (3D coordinates assigned)
COc1ccccc1N1CC[NH+](C(=O)c2ccccc2)CC1 (nonaromatic ring conformer: 63.16487811370094 kcal/mol)

>  <smiles>  (36) 
COc1ccccc1N1CCN(C(=O)c2ccccc2)CC1

>  <score_type>  (36) 
oracle

>  <origin>  (36) 
adg

>  <m_score__min__energy>  (36) 
-5.5899999999999999

>  <m_primary>  (36) 
energy

$$$$
36:0
     RDKit          3D

 31 34  0  0  0  0  0  0  0  0999 V2000
   58.0210   27.0890   42.5610 C   0  0  0  0  0  0  0  0  0  0  0  0
   57.9950   26.6310   43.9560 N   0  0  0  0  0  0  0  0  0  0  0  0
   57.7540   25.2960   44.1540 C   0  0  0  0  0  0  0  0  0  0  0  0
   57.8510   24.7210   45.4170 C   0  0  0  0  0  0  0  0  0  0  0  0
   58.2080   25.5030   46.5020 C   0  0  0  0  0  0  0  0  0  0  0  0
   58.4150   26.8740   46.3360 C   0  0  0  0  0  0  0  0  0  0  0  0
   58.7820   27.6550   47.4560 C   0  0  0  0  0  0  0  0  0  0  0  0
   58.9690   29.0320   47.3350 C   0  0  0  0  0  0  0  0  0  0  0  0
   58.7520   29.6120   46.0950 C   0  0  0  0  0  0  0  0  0  0  0  0
   58.7610   30.9380   45.7320 C   0  0  0  0  0  0  0  0  0  0  0  0
   59.0320   32.1000   46.4540 C   0  0  0  0  0  0  0  0  0  0  0  0
   58.9030   33.3310   45.7850 C   0  0  0  0  0  0  0  0  0  0  0  0
   59.2650   34.9590   46.7160 Br  0  0  0  0  0  0  0  0  0  0  0  0
   58.5010   33.3700   44.4310 C   0  0  0  0  0  0  0  0  0  0  0  0
   58.2230   32.1790   43.7340 C   0  0  0  0  0  0  0  0  0  0  0  0
   58.3700   30.9710   44.4170 C   0  0  0  0  0  0  0  0  0  0  0  0
   58.1220   29.7330   43.9420 N   0  0  0  0  0  0  0  0  0  0  0  0
   58.3810   28.8810   44.9720 C   0  0  0  0  0  0  0  0  0  0  0  0
   58.2480   27.4610   45.0390 C   0  0  0  0  0  0  0  0  0  0  0  0
   58.0833   28.1870   42.5367 H   0  0  0  0  0  0  0  0  0  0  0  0
   58.8963   26.6606   42.0507 H   0  0  0  0  0  0  0  0  0  0  0  0
   57.1029   26.7625   42.0507 H   0  0  0  0  0  0  0  0  0  0  0  0
   57.4780   24.6659   43.2956 H   0  0  0  0  0  0  0  0  0  0  0  0
   57.6448   23.6491   45.5530 H   0  0  0  0  0  0  0  0  0  0  0  0
   58.3286   25.0446   47.4946 H   0  0  0  0  0  0  0  0  0  0  0  0
   58.9217   27.1712   48.4340 H   0  0  0  0  0  0  0  0  0  0  0  0
   59.2794   29.6394   48.1979 H   0  0  0  0  0  0  0  0  0  0  0  0
   59.3361   32.0556   47.5102 H   0  0  0  0  0  0  0  0  0  0  0  0
   58.4046   34.3381   43.9178 H   0  0  0  0  0  0  0  0  0  0  0  0
   57.8997   32.1999   42.6828 H   0  0  0  0  0  0  0  0  0  0  0  0
   57.7330   29.5480   42.9960 H   0  0  0  0  0  0  0  0  0  0  0  0
  1  2  1  0
  2  3  2  0
  3  4  1  0
  4  5  2  0
  5  6  1  0
  6  7  2  0
  7  8  1  0
  8  9  2  0
  9 10  1  0
 10 11  2  0
 11 12  1  0
 12 13  1  0
 12 14  2  0
 14 15  1  0
 15 16  2  0
 16 17  1  0
 17 18  1  0
 18 19  2  0
 19  2  1  0
 19  6  1  0
 18  9  1  0
 16 10  1  0
  1 20  1  0
  1 21  1  0
  1 22  1  0
  3 23  1  0
  4 24  1  0
  5 25  1  0
  7 26  1  0
  8 27  1  0
 11 28  1  0
 14 29  1  0
 15 30  1  0
 17 31  1  0
M  CHG  1   2   1
M  END
>  <UniqueID>  (37) 
35

>  <SMILES>  (37) 
C[n+]1cccc2ccc3c4cc(Br)ccc4[nH]c3c21

>  <Energy>  (37) 
90.13502802534056

>  <Genealogy>  (37) 
C[n+]1cccc2ccc3c4cc(Br)ccc4[nH]c3c21 (3D coordinates assigned)
C[n+]1cccc2ccc3c4cc(Br)ccc4[nH]c3c21 (optimized conformer: 90.13502802534056 kcal/mol)

>  <smiles>  (37) 
C[n+]1cccc2ccc3c4cc(Br)ccc4[nH]c3c21

>  <score_type>  (37) 
oracle

>  <origin>  (37) 
adg

>  <m_score__min__energy>  (37) 
-5.9000000000000004

>  <m_primary>  (37) 
energy

$$$$
37:0
     RDKit          3D

 39 41  0  0  0  0  0  0  0  0999 V2000
   59.0930   31.0670   49.5560 C   0  0  0  0  0  0  0  0  0  0  0  0
   59.0320   32.3140   48.7940 N   0  0  0  0  0  0  0  0  0  0  0  0
   59.4810   33.5440   49.1630 C   0  0  0  0  0  0  0  0  0  0  0  0
   60.0910   33.8590   50.5000 C   0  0  0  0  0  0  0  0  0  0  0  0
   61.5390   33.6510   50.4660 N   0  0  0  0  0  0  0  0  0  0  0  0
   62.2790   33.2510   49.2950 C   0  0  0  0  0  0  0  0  0  0  0  0
   63.0130   34.2160   48.5860 C   0  0  0  0  0  0  0  0  0  0  0  0
   63.7450   33.8580   47.4500 C   0  0  0  0  0  0  0  0  0  0  0  0
   63.7460   32.5340   47.0070 C   0  0  0  0  0  0  0  0  0  0  0  0
   63.0140   31.5670   47.6980 C   0  0  0  0  0  0  0  0  0  0  0  0
   62.2810   31.9200   48.8360 C   0  0  0  0  0  0  0  0  0  0  0  0
   59.3610   34.4780   48.1830 N   0  0  0  0  0  0  0  0  0  0  0  0
   58.8310   33.7800   47.1630 C   0  0  0  0  0  0  0  0  0  0  0  0
   58.5190   34.2470   45.8900 C   0  0  0  0  0  0  0  0  0  0  0  0
   57.9990   33.3260   44.9620 C   0  0  0  0  0  0  0  0  0  0  0  0
   57.8150   31.9690   45.3210 C   0  0  0  0  0  0  0  0  0  0  0  0
   57.1550   30.8300   44.1520 S   0  0  0  0  0  0  0  0  0  0  0  0
   58.1170   29.3350   44.1780 C   0  0  0  0  0  0  0  0  0  0  0  0
   55.7270   30.5160   44.4960 O   0  0  0  0  0  0  0  0  0  0  0  0
   57.1990   31.4310   42.7750 O   0  0  0  0  0  0  0  0  0  0  0  0
   58.1390   31.5320   46.6230 C   0  0  0  0  0  0  0  0  0  0  0  0
   58.6420   32.4770   47.5190 C   0  0  0  0  0  0  0  0  0  0  0  0
   59.0819   31.2940   50.6323 H   0  0  0  0  0  0  0  0  0  0  0  0
   58.2244   30.4407   49.3044 H   0  0  0  0  0  0  0  0  0  0  0  0
   60.0186   30.5285   49.3044 H   0  0  0  0  0  0  0  0  0  0  0  0
   59.8822   34.9086   50.7546 H   0  0  0  0  0  0  0  0  0  0  0  0
   59.6538   33.1904   51.2562 H   0  0  0  0  0  0  0  0  0  0  0  0
   62.0570   33.7560   51.3680 H   0  0  0  0  0  0  0  0  0  0  0  0
   63.0119   35.2617   48.9272 H   0  0  0  0  0  0  0  0  0  0  0  0
   64.3208   34.6203   46.9046 H   0  0  0  0  0  0  0  0  0  0  0  0
   64.3234   32.2530   46.1139 H   0  0  0  0  0  0  0  0  0  0  0  0
   63.0135   30.5246   47.3468 H   0  0  0  0  0  0  0  0  0  0  0  0
   61.7036   31.1542   49.3747 H   0  0  0  0  0  0  0  0  0  0  0  0
   58.6738   35.3015   45.6180 H   0  0  0  0  0  0  0  0  0  0  0  0
   57.7333   33.6632   43.9492 H   0  0  0  0  0  0  0  0  0  0  0  0
   58.3072   29.0394   45.2203 H   0  0  0  0  0  0  0  0  0  0  0  0
   57.5642   28.5343   43.6649 H   0  0  0  0  0  0  0  0  0  0  0  0
   59.0748   29.5063   43.6649 H   0  0  0  0  0  0  0  0  0  0  0  0
   58.0000   30.4825   46.9218 H   0  0  0  0  0  0  0  0  0  0  0  0
  1  2  1  0
  2  3  1  0
  3  4  1  0
  4  5  1  0
  5  6  1  0
  6  7  2  0
  7  8  1  0
  8  9  2  0
  9 10  1  0
 10 11  2  0
  3 12  2  0
 12 13  1  0
 13 14  2  0
 14 15  1  0
 15 16  2  0
 16 17  1  0
 17 18  1  0
 17 19  2  0
 17 20  2  0
 16 21  1  0
 21 22  2  0
 22  2  1  0
 11  6  1  0
 22 13  1  0
  1 23  1  0
  1 24  1  0
  1 25  1  0
  4 26  1  0
  4 27  1  0
  5 28  1  0
  7 29  1  0
  8 30  1  0
  9 31  1  0
 10 32  1  0
 11 33  1  0
 14 34  1  0
 15 35  1  0
 18 36  1  0
 18 37  1  0
 18 38  1  0
 21 39  1  0
M  END
>  <UniqueID>  (38) 
36

>  <SMILES>  (38) 
Cn1c(CNc2ccccc2)nc2ccc(S(C)(=O)=O)cc21

>  <Energy>  (38) 
73.76372290418635

>  <Genealogy>  (38) 
Cn1c(CNc2ccccc2)nc2ccc(S(C)(=O)=O)cc21 (3D coordinates assigned)
Cn1c(CNc2ccccc2)nc2ccc(S(C)(=O)=O)cc21 (optimized conformer: 73.76372290418635 kcal/mol)

>  <smiles>  (38) 
Cn1c(CNc2ccccc2)nc2ccc(S(C)(=O)=O)cc21

>  <score_type>  (38) 
oracle

>  <origin>  (38) 
adg

>  <m_score__min__energy>  (38) 
-8.0299999999999994

>  <m_primary>  (38) 
energy

$$$$
38:0
     RDKit          3D

 56 58  0  0  0  0  0  0  0  0999 V2000
   65.4170   32.4100   50.1010 C   0  0  0  0  0  0  0  0  0  0  0  0
   64.1130   32.1620   49.3070 C   0  0  0  0  0  0  0  0  0  0  0  0
   63.1660   31.2370   50.0820 C   0  0  0  0  0  0  0  0  0  0  0  0
   63.4090   33.4120   48.9040 N   0  0  0  0  0  0  0  0  0  0  0  0
   62.0090   33.4610   49.4020 C   0  0  0  0  0  0  0  0  0  0  0  0
   61.1640   34.4710   48.6240 C   0  0  0  0  0  0  0  0  0  0  0  0
   61.1450   34.0780   47.2110 N   0  0  0  0  0  0  0  0  0  0  0  0
   59.8840   33.8220   46.5700 C   0  0  0  0  0  0  0  0  0  0  0  0
   59.3790   34.7600   45.6560 C   0  0  0  0  0  0  0  0  0  0  0  0
   58.1430   34.5490   45.0310 C   0  0  0  0  0  0  0  0  0  0  0  0
   57.3970   33.4010   45.3130 C   0  0  0  0  0  0  0  0  0  0  0  0
   57.8910   32.4570   46.2170 C   0  0  0  0  0  0  0  0  0  0  0  0
   59.1360   32.6520   46.8450 C   0  0  0  0  0  0  0  0  0  0  0  0
   59.6310   31.6390   47.7400 N   0  0  0  0  0  0  0  0  0  0  0  0
   58.9040   31.4490   49.0060 C   0  0  0  0  0  0  0  0  0  0  0  0
   59.5890   30.4280   49.9200 C   0  0  0  0  0  0  0  0  0  0  0  0
   58.9800   29.1890   49.7700 F   0  0  0  0  0  0  0  0  0  0  0  0
   60.3570   30.5070   47.1430 C   0  0  0  0  0  0  0  0  0  0  0  0
   59.4360   29.6800   46.2840 C   0  0  0  0  0  0  0  0  0  0  0  0
   58.6200   28.6830   46.8570 C   0  0  0  0  0  0  0  0  0  0  0  0
   57.7800   27.9130   46.0440 C   0  0  0  0  0  0  0  0  0  0  0  0
   57.7570   28.1530   44.6640 C   0  0  0  0  0  0  0  0  0  0  0  0
   58.5410   29.1360   44.1200 N   0  0  0  0  0  0  0  0  0  0  0  0
   59.3690   29.8970   44.8940 C   0  0  0  0  0  0  0  0  0  0  0  0
   62.3760   33.5570   46.5980 C   0  0  0  0  0  0  0  0  0  0  0  0
   63.6010   33.8400   47.4860 C   0  0  0  0  0  0  0  0  0  0  0  0
   65.2031   32.3693   51.1792 H   0  0  0  0  0  0  0  0  0  0  0  0
   66.1554   31.6362   49.8442 H   0  0  0  0  0  0  0  0  0  0  0  0
   65.8198   33.4009   49.8442 H   0  0  0  0  0  0  0  0  0  0  0  0
   64.4208   31.6678   48.3737 H   0  0  0  0  0  0  0  0  0  0  0  0
   63.3145   31.3820   51.1622 H   0  0  0  0  0  0  0  0  0  0  0  0
   62.1246   31.4753   49.8198 H   0  0  0  0  0  0  0  0  0  0  0  0
   63.3798   30.1903   49.8198 H   0  0  0  0  0  0  0  0  0  0  0  0
   61.5583   32.4632   49.2960 H   0  0  0  0  0  0  0  0  0  0  0  0
   62.0320   33.7747   50.4561 H   0  0  0  0  0  0  0  0  0  0  0  0
   60.1378   34.4783   49.0201 H   0  0  0  0  0  0  0  0  0  0  0  0
   61.5939   35.4782   48.7274 H   0  0  0  0  0  0  0  0  0  0  0  0
   59.9579   35.6673   45.4288 H   0  0  0  0  0  0  0  0  0  0  0  0
   57.7579   35.2901   44.3151 H   0  0  0  0  0  0  0  0  0  0  0  0
   56.4243   33.2413   44.8249 H   0  0  0  0  0  0  0  0  0  0  0  0
   57.3027   31.5546   46.4397 H   0  0  0  0  0  0  0  0  0  0  0  0
   58.8494   32.4139   49.5313 H   0  0  0  0  0  0  0  0  0  0  0  0
   57.9011   31.0666   48.7650 H   0  0  0  0  0  0  0  0  0  0  0  0
   60.6522   30.3489   49.6491 H   0  0  0  0  0  0  0  0  0  0  0  0
   59.5000   30.7555   50.9663 H   0  0  0  0  0  0  0  0  0  0  0  0
   61.1805   30.8919   46.5236 H   0  0  0  0  0  0  0  0  0  0  0  0
   60.7524   29.8736   47.9508 H   0  0  0  0  0  0  0  0  0  0  0  0
   58.6435   28.5103   47.9431 H   0  0  0  0  0  0  0  0  0  0  0  0
   57.1457   27.1290   46.4834 H   0  0  0  0  0  0  0  0  0  0  0  0
   57.1064   27.5493   44.0142 H   0  0  0  0  0  0  0  0  0  0  0  0
   58.5080   29.3090   43.0870 H   0  0  0  0  0  0  0  0  0  0  0  0
   59.9854   30.6816   44.4309 H   0  0  0  0  0  0  0  0  0  0  0  0
   62.2761   32.4703   46.4596 H   0  0  0  0  0  0  0  0  0  0  0  0
   62.5232   34.0585   45.6301 H   0  0  0  0  0  0  0  0  0  0  0  0
   64.4656   33.3008   47.0717 H   0  0  0  0  0  0  0  0  0  0  0  0
   63.7578   34.9288   47.4907 H   0  0  0  0  0  0  0  0  0  0  0  0
  1  2  1  0
  2  3  1  0
  2  4  1  0
  4  5  1  0
  5  6  1  0
  6  7  1  0
  7  8  1  0
  8  9  2  0
  9 10  1  0
 10 11  2  0
 11 12  1  0
 12 13  2  0
 13 14  1  0
 14 15  1  0
 15 16  1  0
 16 17  1  0
 14 18  1  0
 18 19  1  0
 19 20  2  0
 20 21  1  0
 21 22  2  0
 22 23  1  0
 23 24  2  0
  7 25  1  0
 25 26  1  0
 26  4  1  0
 13  8  1  0
 24 19  1  0
  1 27  1  0
  1 28  1  0
  1 29  1  0
  2 30  1  0
  3 31  1  0
  3 32  1  0
  3 33  1  0
  5 34  1  0
  5 35  1  0
  6 36  1  0
  6 37  1  0
  9 38  1  0
 10 39  1  0
 11 40  1  0
 12 41  1  0
 15 42  1  0
 15 43  1  0
 16 44  1  0
 16 45  1  0
 18 46  1  0
 18 47  1  0
 20 48  1  0
 21 49  1  0
 22 50  1  0
 23 51  1  0
 24 52  1  0
 25 53  1  0
 25 54  1  0
 26 55  1  0
 26 56  1  0
M  CHG  1  23   1
M  END
>  <UniqueID>  (39) 
37

>  <SMILES>  (39) 
CC(C)N1CCN(c2ccccc2N(CCF)Cc2ccc[nH+]c2)CC1

>  <Energy>  (39) 
70.84248048058267

>  <Genealogy>  (39) 
CC(C)N1CCN(c2ccccc2N(CCF)Cc2ccc[nH+]c2)CC1 (protonated)
CC(C)N1CCN(c2ccccc2N(CCF)Cc2ccc[nH+]c2)CC1 (3D coordinates assigned)
CC(C)N1CCN(c2ccccc2N(CCF)Cc2ccc[nH+]c2)CC1 (nonaromatic ring conformer: 70.84248048058267 kcal/mol)

>  <smiles>  (39) 
CC(C)N1CCN(c2ccccc2N(CCF)Cc2cccnc2)CC1

>  <score_type>  (39) 
oracle

>  <origin>  (39) 
adg

>  <m_score__min__energy>  (39) 
-5.6600000000000001

>  <m_primary>  (39) 
energy

$$$$
39:0
     RDKit          3D

 45 47  0  0  0  0  0  0  0  0999 V2000
   60.3500   35.6455   46.1861 H   0  0  0  0  0  0  0  0  0  0  0  0
   60.4190   34.5600   46.3500 C   0  0  0  0  0  0  0  0  0  0  0  0
   61.4970   34.0880   46.9990 C   0  0  0  0  0  0  0  0  0  0  0  0
   61.5380   33.8250   48.4240 C   0  0  0  0  0  0  0  0  0  0  0  0
   60.5640   33.9950   49.2040 O   0  0  0  0  0  0  0  0  0  0  0  0
   62.8900   33.3780   48.8610 C   0  0  1  0  0  0  0  0  0  0  0  0
   63.2178   33.8624   49.7926 H   0  0  0  0  0  0  0  0  0  0  0  0
   62.9250   31.8590   49.1660 C   0  0  0  0  0  0  0  0  0  0  0  0
   63.2167   31.3261   48.2490 H   0  0  0  0  0  0  0  0  0  0  0  0
   63.6468   31.7088   49.9824 H   0  0  0  0  0  0  0  0  0  0  0  0
   61.6310   31.3230   49.6260 N   0  0  0  0  0  0  0  0  0  0  0  0
   61.7580   30.7470   50.4880 H   0  0  0  0  0  0  0  0  0  0  0  0
   61.0180   32.1290   49.8950 H   0  0  0  0  0  0  0  0  0  0  0  0
   60.9620   30.5670   48.5930 C   0  0  0  0  0  0  0  0  0  0  0  0
   59.8400   29.7770   48.9020 C   0  0  0  0  0  0  0  0  0  0  0  0
   59.4751   29.7272   49.9385 H   0  0  0  0  0  0  0  0  0  0  0  0
   59.1860   29.0550   47.9000 C   0  0  0  0  0  0  0  0  0  0  0  0
   58.3087   28.4401   48.1497 H   0  0  0  0  0  0  0  0  0  0  0  0
   59.6450   29.1130   46.5810 C   0  0  0  0  0  0  0  0  0  0  0  0
   59.1290   28.5443   45.7934 H   0  0  0  0  0  0  0  0  0  0  0  0
   60.7600   29.8940   46.2630 C   0  0  0  0  0  0  0  0  0  0  0  0
   61.1204   29.9400   45.2247 H   0  0  0  0  0  0  0  0  0  0  0  0
   61.4170   30.6160   47.2620 C   0  0  0  0  0  0  0  0  0  0  0  0
   62.2956   31.2268   47.0069 H   0  0  0  0  0  0  0  0  0  0  0  0
   63.7760   33.7170   47.6410 C   0  0  0  0  0  0  0  0  0  0  0  0
   64.5080   32.9133   47.4732 H   0  0  0  0  0  0  0  0  0  0  0  0
   64.3280   34.6532   47.8105 H   0  0  0  0  0  0  0  0  0  0  0  0
   62.8490   33.8470   46.4200 C   0  0  0  0  0  0  0  0  0  0  0  0
   62.8576   32.9215   45.8255 H   0  0  0  0  0  0  0  0  0  0  0  0
   63.1626   34.6544   45.7420 H   0  0  0  0  0  0  0  0  0  0  0  0
   59.3210   33.7120   45.8430 C   0  0  0  0  0  0  0  0  0  0  0  0
   58.8180   32.6870   46.6580 C   0  0  0  0  0  0  0  0  0  0  0  0
   59.2319   32.5381   47.6662 H   0  0  0  0  0  0  0  0  0  0  0  0
   57.7950   31.8540   46.1980 C   0  0  0  0  0  0  0  0  0  0  0  0
   57.3981   31.0645   46.8532 H   0  0  0  0  0  0  0  0  0  0  0  0
   57.2710   32.0160   44.9100 C   0  0  0  0  0  0  0  0  0  0  0  0
   56.2440   31.1550   44.4950 O   0  0  0  0  0  0  0  0  0  0  0  0
   56.4260   30.0540   43.6110 C   0  0  0  0  0  0  0  0  0  0  0  0
   56.5779   29.1351   44.1963 H   0  0  0  0  0  0  0  0  0  0  0  0
   55.5342   29.9416   42.9769 H   0  0  0  0  0  0  0  0  0  0  0  0
   57.3065   30.2346   42.9769 H   0  0  0  0  0  0  0  0  0  0  0  0
   57.7930   33.0240   44.0790 C   0  0  0  0  0  0  0  0  0  0  0  0
   57.3948   33.1561   43.0621 H   0  0  0  0  0  0  0  0  0  0  0  0
   58.8160   33.8590   44.5400 C   0  0  0  0  0  0  0  0  0  0  0  0
   59.2277   34.6355   43.8785 H   0  0  0  0  0  0  0  0  0  0  0  0
  1  2  1  0
  2  3  2  0
  3  4  1  0
  4  5  2  0
  4  6  1  0
  6  7  1  1
  6  8  1  0
  8  9  1  0
  8 10  1  0
  8 11  1  0
 11 12  1  0
 11 13  1  0
 11 14  1  0
 14 15  2  0
 15 16  1  0
 15 17  1  0
 17 18  1  0
 17 19  2  0
 19 20  1  0
 19 21  1  0
 21 22  1  0
 21 23  2  0
 23 24  1  0
  6 25  1  0
 25 26  1  0
 25 27  1  0
 25 28  1  0
 28 29  1  0
 28 30  1  0
  2 31  1  0
 31 32  2  0
 32 33  1  0
 32 34  1  0
 34 35  1  0
 34 36  2  0
 36 37  1  0
 37 38  1  0
 38 39  1  0
 38 40  1  0
 38 41  1  0
 36 42  1  0
 42 43  1  0
 42 44  2  0
 44 45  1  0
 28  3  1  0
 44 31  1  0
 23 14  1  0
M  CHG  1  11   1
M  END
>  <UniqueID>  (40) 
38

>  <SMILES>  (40) 
COc1ccc(/C=C2\CC[C@H](C[NH2+]c3ccccc3)C2=O)cc1

>  <Energy>  (40) 
58.99690983610552

>  <Genealogy>  (40) 
COc1ccc(C=C2CCC(C[NH2+]c3ccccc3)C2=O)cc1 (protonated)
COc1ccc(C=C2CC[C@H](C[NH2+]c3ccccc3)C2=O)cc1 (chirality)
COc1ccc(/C=C2\CC[C@H](C[NH2+]c3ccccc3)C2=O)cc1 (cis-trans isomerization)
COc1ccc(/C=C2\CC[C@H](C[NH2+]c3ccccc3)C2=O)cc1 (3D coordinates assigned)
COc1ccc(/C=C2\CC[C@H](C[NH2+]c3ccccc3)C2=O)cc1 (nonaromatic ring conformer: 58.99690983610552 kcal/mol)

>  <smiles>  (40) 
COc1ccc(C=C2CCC(CNc3ccccc3)C2=O)cc1

>  <score_type>  (40) 
oracle

>  <origin>  (40) 
adg

>  <m_score__min__energy>  (40) 
-6.0800000000000001

>  <m_primary>  (40) 
energy

$$$$
40:0
     RDKit          3D

 62 65  0  0  0  0  0  0  0  0999 V2000
   57.0120   22.9260   43.6240 C   0  0  0  0  0  0  0  0  0  0  0  0
   56.4110   24.2400   43.9160 N   0  0  0  0  0  0  0  0  0  0  0  0
   55.3890   24.0850   44.9630 C   0  0  0  0  0  0  0  0  0  0  0  0
   57.4370   25.2120   44.3520 C   0  0  0  0  0  0  0  0  0  0  0  0
   56.9970   25.9450   45.6190 C   0  0  0  0  0  0  0  0  0  0  0  0
   56.3760   27.1770   45.2610 O   0  0  0  0  0  0  0  0  0  0  0  0
   56.9790   28.4370   45.3880 C   0  0  0  0  0  0  0  0  0  0  0  0
   57.9140   28.6260   46.4090 C   0  0  0  0  0  0  0  0  0  0  0  0
   58.5440   29.8620   46.5780 C   0  0  0  0  0  0  0  0  0  0  0  0
   58.2420   30.9420   45.7290 C   0  0  0  0  0  0  0  0  0  0  0  0
   58.9270   32.2460   45.9200 C   0  0  0  0  0  0  0  0  0  0  0  0
   58.4800   33.4250   45.3030 C   0  0  0  0  0  0  0  0  0  0  0  0
   59.1370   34.5910   45.5300 N   0  0  0  0  0  0  0  0  0  0  0  0
   60.2260   34.6480   46.3370 C   0  0  0  0  0  0  0  0  0  0  0  0
   60.6870   33.4780   46.9620 C   0  0  0  0  0  0  0  0  0  0  0  0
   61.8610   33.4780   47.8730 C   0  0  0  0  0  0  0  0  0  0  0  0
   63.0200   32.7730   47.5190 C   0  0  0  0  0  0  0  0  0  0  0  0
   64.1360   32.7600   48.3590 C   0  0  0  0  0  0  0  0  0  0  0  0
   64.1380   33.4630   49.5870 C   0  0  0  0  0  0  0  0  0  0  0  0
   65.3020   33.4430   50.4730 N   0  0  0  0  0  0  0  0  0  0  0  0
   65.3590   34.4060   51.5960 C   0  0  0  0  0  0  0  0  0  0  0  0
   66.5760   34.2530   52.5170 C   0  0  0  0  0  0  0  0  0  0  0  0
   67.7960   33.8730   51.7960 N   0  0  0  0  0  0  0  0  0  0  0  0
   68.2670   34.9170   50.8710 C   0  0  0  0  0  0  0  0  0  0  0  0
   67.6000   32.5760   51.1430 C   0  0  0  0  0  0  0  0  0  0  0  0
   66.4510   32.5780   50.1240 C   0  0  0  0  0  0  0  0  0  0  0  0
   62.9640   34.1770   49.9280 C   0  0  0  0  0  0  0  0  0  0  0  0
   61.8510   34.1880   49.0840 C   0  0  0  0  0  0  0  0  0  0  0  0
   60.0140   32.3170   46.7380 N   0  0  0  0  0  0  0  0  0  0  0  0
   57.3080   30.7470   44.6930 C   0  0  0  0  0  0  0  0  0  0  0  0
   56.6800   29.5080   44.5260 C   0  0  0  0  0  0  0  0  0  0  0  0
   57.2469   22.4124   44.5679 H   0  0  0  0  0  0  0  0  0  0  0  0
   56.3020   22.3190   43.0431 H   0  0  0  0  0  0  0  0  0  0  0  0
   57.9355   23.0661   43.0431 H   0  0  0  0  0  0  0  0  0  0  0  0
   55.8640   24.1570   45.9526 H   0  0  0  0  0  0  0  0  0  0  0  0
   54.6348   24.8790   44.8596 H   0  0  0  0  0  0  0  0  0  0  0  0
   54.9041   23.1030   44.8596 H   0  0  0  0  0  0  0  0  0  0  0  0
   58.3762   24.6765   44.5546 H   0  0  0  0  0  0  0  0  0  0  0  0
   57.5794   25.9527   43.5513 H   0  0  0  0  0  0  0  0  0  0  0  0
   56.2814   25.3209   46.1744 H   0  0  0  0  0  0  0  0  0  0  0  0
   57.8745   26.1456   46.2512 H   0  0  0  0  0  0  0  0  0  0  0  0
   58.1566   27.7939   47.0863 H   0  0  0  0  0  0  0  0  0  0  0  0
   59.2829   29.9914   47.3825 H   0  0  0  0  0  0  0  0  0  0  0  0
   57.6028   33.4042   44.6397 H   0  0  0  0  0  0  0  0  0  0  0  0
   60.7444   35.6043   46.5007 H   0  0  0  0  0  0  0  0  0  0  0  0
   63.0509   32.2227   46.5670 H   0  0  0  0  0  0  0  0  0  0  0  0
   65.0299   32.1927   48.0603 H   0  0  0  0  0  0  0  0  0  0  0  0
   65.3751   35.4219   51.1745 H   0  0  0  0  0  0  0  0  0  0  0  0
   64.4742   34.2067   52.2184 H   0  0  0  0  0  0  0  0  0  0  0  0
   66.7536   35.2121   53.0255 H   0  0  0  0  0  0  0  0  0  0  0  0
   66.3501   33.4462   53.2298 H   0  0  0  0  0  0  0  0  0  0  0  0
   68.6523   35.7710   51.4474 H   0  0  0  0  0  0  0  0  0  0  0  0
   69.0690   34.5107   50.2372 H   0  0  0  0  0  0  0  0  0  0  0  0
   67.4316   35.2494   50.2372 H   0  0  0  0  0  0  0  0  0  0  0  0
   68.5293   32.3035   50.6213 H   0  0  0  0  0  0  0  0  0  0  0  0
   67.3386   31.8514   51.9282 H   0  0  0  0  0  0  0  0  0  0  0  0
   66.8528   32.9188   49.1584 H   0  0  0  0  0  0  0  0  0  0  0  0
   66.0626   31.5491   50.0992 H   0  0  0  0  0  0  0  0  0  0  0  0
   62.9276   34.7339   50.8759 H   0  0  0  0  0  0  0  0  0  0  0  0
   60.9563   34.7596   49.3716 H   0  0  0  0  0  0  0  0  0  0  0  0
   57.0704   31.5756   44.0096 H   0  0  0  0  0  0  0  0  0  0  0  0
   55.9484   29.3704   43.7162 H   0  0  0  0  0  0  0  0  0  0  0  0
  1  2  1  0
  2  3  1  0
  2  4  1  0
  4  5  1  0
  5  6  1  0
  6  7  1  0
  7  8  2  0
  8  9  1  0
  9 10  2  0
 10 11  1  0
 11 12  2  0
 12 13  1  0
 13 14  2  0
 14 15  1  0
 15 16  1  0
 16 17  2  0
 17 18  1  0
 18 19  2  0
 19 20  1  0
 20 21  1  0
 21 22  1  0
 22 23  1  0
 23 24  1  0
 23 25  1  0
 25 26  1  0
 19 27  1  0
 27 28  2  0
 15 29  2  0
 10 30  1  0
 30 31  2  0
 31  7  1  0
 29 11  1  0
 28 16  1  0
 26 20  1  0
  1 32  1  0
  1 33  1  0
  1 34  1  0
  3 35  1  0
  3 36  1  0
  3 37  1  0
  4 38  1  0
  4 39  1  0
  5 40  1  0
  5 41  1  0
  8 42  1  0
  9 43  1  0
 12 44  1  0
 14 45  1  0
 17 46  1  0
 18 47  1  0
 21 48  1  0
 21 49  1  0
 22 50  1  0
 22 51  1  0
 24 52  1  0
 24 53  1  0
 24 54  1  0
 25 55  1  0
 25 56  1  0
 26 57  1  0
 26 58  1  0
 27 59  1  0
 28 60  1  0
 30 61  1  0
 31 62  1  0
M  END
>  <UniqueID>  (41) 
39

>  <SMILES>  (41) 
CN(C)CCOc1ccc(-c2cncc(-c3ccc(N4CCN(C)CC4)cc3)n2)cc1

>  <Energy>  (41) 
83.46712989613528

>  <Genealogy>  (41) 
CN(C)CCOc1ccc(-c2cncc(-c3ccc(N4CCN(C)CC4)cc3)n2)cc1 (3D coordinates assigned)
CN(C)CCOc1ccc(-c2cncc(-c3ccc(N4CCN(C)CC4)cc3)n2)cc1 (nonaromatic ring conformer: 83.46712989613528 kcal/mol)

>  <smiles>  (41) 
CN(C)CCOc1ccc(-c2cncc(-c3ccc(N4CCN(C)CC4)cc3)n2)cc1

>  <score_type>  (41) 
oracle

>  <origin>  (41) 
adg

>  <m_score__min__energy>  (41) 
-7.9500000000000002

>  <m_primary>  (41) 
energy

$$$$
41:0
     RDKit          3D

 51 53  0  0  0  0  0  0  0  0999 V2000
   55.6910   25.3190   45.9490 C   0  0  0  0  0  0  0  0  0  0  0  0
   55.9440   26.7190   46.0060 O   0  0  0  0  0  0  0  0  0  0  0  0
   57.1500   27.3230   45.6190 C   0  0  0  0  0  0  0  0  0  0  0  0
   57.7540   27.0690   44.3720 C   0  0  0  0  0  0  0  0  0  0  0  0
   58.9530   27.7000   44.0310 C   0  0  0  0  0  0  0  0  0  0  0  0
   59.5600   28.5850   44.9240 C   0  0  0  0  0  0  0  0  0  0  0  0
   58.9680   28.8490   46.1690 C   0  0  0  0  0  0  0  0  0  0  0  0
   59.6060   29.8320   47.1160 C   0  0  0  0  0  0  0  0  0  0  0  0
   60.1660   31.0800   46.4010 C   0  0  0  0  0  0  0  0  0  0  0  0
   59.9480   32.3420   47.1650 N   0  0  0  0  0  0  0  0  0  0  0  0
   60.4390   33.5150   46.4010 C   0  0  0  0  0  0  0  0  0  0  0  0
   59.4810   33.8920   45.2560 C   0  0  0  0  0  0  0  0  0  0  0  0
   58.0620   34.0270   45.6860 N   0  0  0  0  0  0  0  0  0  0  0  0
   57.1360   33.1970   44.8780 C   0  0  0  0  0  0  0  0  0  0  0  0
   57.7270   31.7940   44.6390 C   0  0  2  0  0  0  0  0  0  0  0  0
   58.1370   31.5980   43.1840 C   0  0  0  0  0  0  0  0  0  0  0  0
   56.9620   30.8850   42.5940 C   0  0  0  0  0  0  0  0  0  0  0  0
   56.3620   30.1710   43.7880 C   0  0  0  0  0  0  0  0  0  0  0  0
   56.7820   30.8000   44.9770 O   0  0  0  0  0  0  0  0  0  0  0  0
   57.8760   33.8170   47.1370 C   0  0  0  0  0  0  0  0  0  0  0  0
   58.5280   32.5020   47.6030 C   0  0  0  0  0  0  0  0  0  0  0  0
   57.7650   28.2110   46.5100 C   0  0  0  0  0  0  0  0  0  0  0  0
   55.6185   24.9176   46.9706 H   0  0  0  0  0  0  0  0  0  0  0  0
   54.7457   25.1386   45.4162 H   0  0  0  0  0  0  0  0  0  0  0  0
   56.5134   24.8192   45.4162 H   0  0  0  0  0  0  0  0  0  0  0  0
   57.2804   26.3721   43.6649 H   0  0  0  0  0  0  0  0  0  0  0  0
   59.4203   27.4988   43.0557 H   0  0  0  0  0  0  0  0  0  0  0  0
   60.5052   29.0770   44.6510 H   0  0  0  0  0  0  0  0  0  0  0  0
   58.8504   30.1560   47.8468 H   0  0  0  0  0  0  0  0  0  0  0  0
   60.4521   29.3219   47.5997 H   0  0  0  0  0  0  0  0  0  0  0  0
   61.2474   30.9428   46.2538 H   0  0  0  0  0  0  0  0  0  0  0  0
   59.6283   31.1787   45.4464 H   0  0  0  0  0  0  0  0  0  0  0  0
   60.5440   32.3010   48.0260 H   0  0  0  0  0  0  0  0  0  0  0  0
   60.5319   34.3719   47.0845 H   0  0  0  0  0  0  0  0  0  0  0  0
   61.4126   33.2538   45.9608 H   0  0  0  0  0  0  0  0  0  0  0  0
   59.8083   34.8522   44.8307 H   0  0  0  0  0  0  0  0  0  0  0  0
   59.5190   33.0742   44.5213 H   0  0  0  0  0  0  0  0  0  0  0  0
   56.1795   33.0993   45.4124 H   0  0  0  0  0  0  0  0  0  0  0  0
   56.9822   33.6857   43.9046 H   0  0  0  0  0  0  0  0  0  0  0  0
   58.6189   31.7050   45.2766 H   0  0  0  0  0  0  0  0  0  0  0  0
   58.3027   32.5651   42.6866 H   0  0  0  0  0  0  0  0  0  0  0  0
   59.0805   31.0438   43.0714 H   0  0  0  0  0  0  0  0  0  0  0  0
   56.2457   31.5969   42.1580 H   0  0  0  0  0  0  0  0  0  0  0  0
   57.2349   30.2044   41.7741 H   0  0  0  0  0  0  0  0  0  0  0  0
   55.2646   30.2078   43.7227 H   0  0  0  0  0  0  0  0  0  0  0  0
   56.6965   29.1231   43.7921 H   0  0  0  0  0  0  0  0  0  0  0  0
   58.3338   34.6560   47.6815 H   0  0  0  0  0  0  0  0  0  0  0  0
   56.7969   33.7601   47.3429 H   0  0  0  0  0  0  0  0  0  0  0  0
   58.4990   32.4715   48.7022 H   0  0  0  0  0  0  0  0  0  0  0  0
   57.9574   31.6819   47.1427 H   0  0  0  0  0  0  0  0  0  0  0  0
   57.3008   28.4107   47.4870 H   0  0  0  0  0  0  0  0  0  0  0  0
  1  2  1  0
  2  3  1  0
  3  4  2  0
  4  5  1  0
  5  6  2  0
  6  7  1  0
  7  8  1  0
  8  9  1  0
  9 10  1  0
 10 11  1  0
 11 12  1  0
 12 13  1  0
 13 14  1  0
 14 15  1  0
 15 16  1  0
 16 17  1  0
 17 18  1  0
 18 19  1  0
 13 20  1  0
 20 21  1  0
  7 22  2  0
 22  3  1  0
 21 10  1  0
 19 15  1  0
  1 23  1  0
  1 24  1  0
  1 25  1  0
  4 26  1  0
  5 27  1  0
  6 28  1  0
  8 29  1  0
  8 30  1  0
  9 31  1  0
  9 32  1  0
 10 33  1  0
 11 34  1  0
 11 35  1  0
 12 36  1  0
 12 37  1  0
 14 38  1  0
 14 39  1  0
 15 40  1  1
 16 41  1  0
 16 42  1  0
 17 43  1  0
 17 44  1  0
 18 45  1  0
 18 46  1  0
 20 47  1  0
 20 48  1  0
 21 49  1  0
 21 50  1  0
 22 51  1  0
M  CHG  1  10   1
M  END
>  <UniqueID>  (42) 
40

>  <SMILES>  (42) 
COc1cccc(CC[NH+]2CCN(C[C@@H]3CCCO3)CC2)c1

>  <Energy>  (42) 
65.07537423003441

>  <Genealogy>  (42) 
COc1cccc(CC[NH+]2CCN(CC3CCCO3)CC2)c1 (protonated)
COc1cccc(CC[NH+]2CCN(C[C@@H]3CCCO3)CC2)c1 (chirality)
COc1cccc(CC[NH+]2CCN(C[C@@H]3CCCO3)CC2)c1 (3D coordinates assigned)
COc1cccc(CC[NH+]2CCN(C[C@@H]3CCCO3)CC2)c1 (nonaromatic ring conformer: 65.07537423003441 kcal/mol)

>  <smiles>  (42) 
COc1cccc(CCN2CCN(CC3CCCO3)CC2)c1

>  <score_type>  (42) 
oracle

>  <origin>  (42) 
adg

>  <m_score__min__energy>  (42) 
-6.2000000000000002

>  <m_primary>  (42) 
energy

$$$$
42:0
     RDKit          3D

 48 50  0  0  0  0  0  0  0  0999 V2000
   63.1710   33.8320   46.3730 C   0  0  0  0  0  0  0  0  0  0  0  0
   63.3990   33.9000   47.8880 C   0  0  0  0  0  0  0  0  0  0  0  0
   64.0290   32.6720   48.4420 N   0  0  0  0  0  0  0  0  0  0  0  0
   65.0140   32.9450   49.5310 C   0  0  0  0  0  0  0  0  0  0  0  0
   64.4410   33.6210   50.7890 C   0  0  0  0  0  0  0  0  0  0  0  0
   63.0730   31.5810   48.7800 C   0  0  0  0  0  0  0  0  0  0  0  0
   61.7110   32.0550   49.3240 C   0  0  0  0  0  0  0  0  0  0  0  0
   60.5440   31.4880   48.5040 C   0  0  0  0  0  0  0  0  0  0  0  0
   60.7020   31.7840   47.0800 N   0  0  0  0  0  0  0  0  0  0  0  0
   59.5960   31.6060   46.1860 C   0  0  0  0  0  0  0  0  0  0  0  0
   58.7690   32.7150   45.8460 C   0  0  0  0  0  0  0  0  0  0  0  0
   59.1140   34.4600   46.5550 Br  0  0  0  0  0  0  0  0  0  0  0  0
   57.6880   32.5560   44.9510 C   0  0  0  0  0  0  0  0  0  0  0  0
   57.4440   31.2940   44.4110 C   0  0  0  0  0  0  0  0  0  0  0  0
   58.2320   30.2430   44.7520 C   0  0  0  0  0  0  0  0  0  0  0  0
   57.8380   29.0870   44.1550 C   0  0  0  0  0  0  0  0  0  0  0  0
   58.5200   27.8970   44.4160 C   0  0  0  0  0  0  0  0  0  0  0  0
   59.6120   27.9310   45.3090 C   0  0  0  0  0  0  0  0  0  0  0  0
   60.0040   29.1430   45.9220 C   0  0  0  0  0  0  0  0  0  0  0  0
   59.3070   30.3350   45.6320 C   0  0  0  0  0  0  0  0  0  0  0  0
   56.6470   29.3330   43.2850 C   0  0  0  0  0  0  0  0  0  0  0  0
   56.3740   30.8540   43.4620 C   0  0  0  0  0  0  0  0  0  0  0  0
   62.1347   33.5229   46.1717 H   0  0  0  0  0  0  0  0  0  0  0  0
   63.3507   34.8228   45.9303 H   0  0  0  0  0  0  0  0  0  0  0  0
   63.8641   33.1015   45.9303 H   0  0  0  0  0  0  0  0  0  0  0  0
   64.0537   34.7569   48.1048 H   0  0  0  0  0  0  0  0  0  0  0  0
   62.4120   34.0032   48.3625 H   0  0  0  0  0  0  0  0  0  0  0  0
   64.6060   32.2770   47.6590 H   0  0  0  0  0  0  0  0  0  0  0  0
   65.4581   31.9855   49.8345 H   0  0  0  0  0  0  0  0  0  0  0  0
   65.7397   33.6565   49.1101 H   0  0  0  0  0  0  0  0  0  0  0  0
   64.8527   33.1353   51.6860 H   0  0  0  0  0  0  0  0  0  0  0  0
   64.7155   34.6862   50.7901 H   0  0  0  0  0  0  0  0  0  0  0  0
   63.3452   33.5247   50.7901 H   0  0  0  0  0  0  0  0  0  0  0  0
   62.8906   30.9924   47.8688 H   0  0  0  0  0  0  0  0  0  0  0  0
   63.5419   31.0001   49.5879 H   0  0  0  0  0  0  0  0  0  0  0  0
   61.6085   31.7222   50.3674 H   0  0  0  0  0  0  0  0  0  0  0  0
   61.6773   33.1523   49.2553 H   0  0  0  0  0  0  0  0  0  0  0  0
   60.5062   30.3973   48.6413 H   0  0  0  0  0  0  0  0  0  0  0  0
   59.6128   31.9568   48.8550 H   0  0  0  0  0  0  0  0  0  0  0  0
   61.6620   31.7000   46.6740 H   0  0  0  0  0  0  0  0  0  0  0  0
   57.0504   33.4120   44.6849 H   0  0  0  0  0  0  0  0  0  0  0  0
   58.2134   26.9555   43.9369 H   0  0  0  0  0  0  0  0  0  0  0  0
   60.1636   27.0054   45.5303 H   0  0  0  0  0  0  0  0  0  0  0  0
   60.8509   29.1568   46.6238 H   0  0  0  0  0  0  0  0  0  0  0  0
   56.8712   29.0936   42.2350 H   0  0  0  0  0  0  0  0  0  0  0  0
   55.7828   28.7088   43.5562 H   0  0  0  0  0  0  0  0  0  0  0  0
   56.4590   31.3829   42.5013 H   0  0  0  0  0  0  0  0  0  0  0  0
   55.3601   31.0666   43.8318 H   0  0  0  0  0  0  0  0  0  0  0  0
  1  2  1  0
  2  3  1  0
  3  4  1  0
  4  5  1  0
  3  6  1  0
  6  7  1  0
  7  8  1  0
  8  9  1  0
  9 10  1  0
 10 11  2  0
 11 12  1  0
 11 13  1  0
 13 14  2  0
 14 15  1  0
 15 16  2  0
 16 17  1  0
 17 18  2  0
 18 19  1  0
 19 20  2  0
 16 21  1  0
 21 22  1  0
 20 10  1  0
 22 14  1  0
 20 15  1  0
  1 23  1  0
  1 24  1  0
  1 25  1  0
  2 26  1  0
  2 27  1  0
  3 28  1  0
  4 29  1  0
  4 30  1  0
  5 31  1  0
  5 32  1  0
  5 33  1  0
  6 34  1  0
  6 35  1  0
  7 36  1  0
  7 37  1  0
  8 38  1  0
  8 39  1  0
  9 40  1  0
 13 41  1  0
 17 42  1  0
 18 43  1  0
 19 44  1  0
 21 45  1  0
 21 46  1  0
 22 47  1  0
 22 48  1  0
M  CHG  1   3   1
M  END
>  <UniqueID>  (43) 
41

>  <SMILES>  (43) 
CC[NH+](CC)CCCNc1c(Br)cc2c3c(cccc13)CC2

>  <Energy>  (43) 
79.65936501404528

>  <Genealogy>  (43) 
CC[NH+](CC)CCCNc1c(Br)cc2c3c(cccc13)CC2 (protonated)
CC[NH+](CC)CCCNc1c(Br)cc2c3c(cccc13)CC2 (3D coordinates assigned)
CC[NH+](CC)CCCNc1c(Br)cc2c3c(cccc13)CC2 (nonaromatic ring conformer: 79.65936501404528 kcal/mol)

>  <smiles>  (43) 
CCN(CC)CCCNc1c(Br)cc2c3c(cccc13)CC2

>  <score_type>  (43) 
oracle

>  <origin>  (43) 
adg

>  <m_score__min__energy>  (43) 
-6.2800000000000002

>  <m_primary>  (43) 
energy

$$$$
43:0
     RDKit          3D

 56 60  0  0  0  0  0  0  0  0999 V2000
   56.6300   29.7830   44.1290 C   0  0  0  0  0  0  0  0  0  0  0  0
   57.0050   28.6010   45.0360 C   0  0  0  0  0  0  0  0  0  0  0  0
   58.3910   28.6660   45.5540 N   0  0  0  0  0  0  0  0  0  0  0  0
   59.4140   28.4990   44.4940 C   0  0  0  0  0  0  0  0  0  0  0  0
   60.7680   28.9620   45.0140 C   0  0  0  0  0  0  0  0  0  0  0  0
   58.6030   27.7870   46.7260 C   0  0  0  0  0  0  0  0  0  0  0  0
   59.0400   28.6070   47.9500 C   0  0  0  0  0  0  0  0  0  0  0  0
   58.5220   29.9850   47.8760 N   0  0  0  0  0  0  0  0  0  0  0  0
   59.5180   31.0460   47.7330 C   0  0  0  0  0  0  0  0  0  0  0  0
   60.7220   31.0500   48.4590 C   0  0  0  0  0  0  0  0  0  0  0  0
   61.6910   32.0560   48.2840 C   0  0  0  0  0  0  0  0  0  0  0  0
   62.9050   32.0430   49.0460 C   0  0  0  0  0  0  0  0  0  0  0  0
   63.1220   31.1890   50.1680 C   0  0  0  0  0  0  0  0  0  0  0  0
   64.3470   31.2450   50.8240 C   0  0  0  0  0  0  0  0  0  0  0  0
   65.3320   32.0890   50.4410 C   0  0  0  0  0  0  0  0  0  0  0  0
   65.1770   32.9590   49.3740 C   0  0  0  0  0  0  0  0  0  0  0  0
   63.9470   32.9460   48.6790 C   0  0  0  0  0  0  0  0  0  0  0  0
   63.7540   33.8170   47.6190 C   0  0  0  0  0  0  0  0  0  0  0  0
   62.5330   33.8530   46.9630 C   0  0  0  0  0  0  0  0  0  0  0  0
   61.4850   33.0330   47.3220 N   0  0  0  0  0  0  0  0  0  0  0  0
   60.2470   33.1550   46.7050 C   0  0  0  0  0  0  0  0  0  0  0  0
   59.8990   34.2920   45.9230 C   0  0  0  0  0  0  0  0  0  0  0  0
   58.6660   34.3810   45.2800 C   0  0  0  0  0  0  0  0  0  0  0  0
   57.7350   33.3630   45.4110 C   0  0  0  0  0  0  0  0  0  0  0  0
   58.0160   32.2610   46.2120 C   0  0  0  0  0  0  0  0  0  0  0  0
   59.2580   32.1440   46.8830 C   0  0  0  0  0  0  0  0  0  0  0  0
   66.4260   31.9300   51.2700 O   0  0  0  0  0  0  0  0  0  0  0  0
   66.1050   30.9210   52.2370 C   0  0  0  0  0  0  0  0  0  0  0  0
   64.7680   30.5140   51.9180 O   0  0  0  0  0  0  0  0  0  0  0  0
   56.3554   30.6487   44.7496 H   0  0  0  0  0  0  0  0  0  0  0  0
   57.4892   30.0449   43.4940 H   0  0  0  0  0  0  0  0  0  0  0  0
   55.7770   29.5017   43.4940 H   0  0  0  0  0  0  0  0  0  0  0  0
   56.3144   28.5871   45.8920 H   0  0  0  0  0  0  0  0  0  0  0  0
   56.9323   27.6898   44.4241 H   0  0  0  0  0  0  0  0  0  0  0  0
   59.4748   27.4387   44.2076 H   0  0  0  0  0  0  0  0  0  0  0  0
   59.1337   29.1015   43.6174 H   0  0  0  0  0  0  0  0  0  0  0  0
   60.7589   28.9589   46.1140 H   0  0  0  0  0  0  0  0  0  0  0  0
   61.5523   28.2810   44.6519 H   0  0  0  0  0  0  0  0  0  0  0  0
   60.9711   29.9806   44.6519 H   0  0  0  0  0  0  0  0  0  0  0  0
   57.6640   27.2635   46.9590 H   0  0  0  0  0  0  0  0  0  0  0  0
   59.3951   27.0627   46.4853 H   0  0  0  0  0  0  0  0  0  0  0  0
   58.6543   28.1263   48.8612 H   0  0  0  0  0  0  0  0  0  0  0  0
   60.1391   28.6468   47.9705 H   0  0  0  0  0  0  0  0  0  0  0  0
   57.8860   30.0330   47.0470 H   0  0  0  0  0  0  0  0  0  0  0  0
   57.9720   30.1700   48.7470 H   0  0  0  0  0  0  0  0  0  0  0  0
   60.9121   30.2447   49.1838 H   0  0  0  0  0  0  0  0  0  0  0  0
   62.3353   30.4993   50.5078 H   0  0  0  0  0  0  0  0  0  0  0  0
   65.9880   33.6401   49.0766 H   0  0  0  0  0  0  0  0  0  0  0  0
   64.5702   34.4806   47.2975 H   0  0  0  0  0  0  0  0  0  0  0  0
   62.3965   34.5582   46.1299 H   0  0  0  0  0  0  0  0  0  0  0  0
   60.6186   35.1181   45.8241 H   0  0  0  0  0  0  0  0  0  0  0  0
   58.4308   35.2628   44.6660 H   0  0  0  0  0  0  0  0  0  0  0  0
   56.7731   33.4264   44.8812 H   0  0  0  0  0  0  0  0  0  0  0  0
   57.2621   31.4682   46.3261 H   0  0  0  0  0  0  0  0  0  0  0  0
   66.7982   30.0710   52.1537 H   0  0  0  0  0  0  0  0  0  0  0  0
   66.1883   31.2952   53.2680 H   0  0  0  0  0  0  0  0  0  0  0  0
  1  2  1  0
  2  3  1  0
  3  4  1  0
  4  5  1  0
  3  6  1  0
  6  7  1  0
  7  8  1  0
  8  9  1  0
  9 10  2  0
 10 11  1  0
 11 12  2  0
 12 13  1  0
 13 14  2  0
 14 15  1  0
 15 16  2  0
 16 17  1  0
 17 18  2  0
 18 19  1  0
 19 20  2  0
 20 21  1  0
 21 22  2  0
 22 23  1  0
 23 24  2  0
 24 25  1  0
 25 26  2  0
 15 27  1  0
 27 28  1  0
 28 29  1  0
 26  9  1  0
 20 11  1  0
 26 21  1  0
 17 12  1  0
 29 14  1  0
  1 30  1  0
  1 31  1  0
  1 32  1  0
  2 33  1  0
  2 34  1  0
  4 35  1  0
  4 36  1  0
  5 37  1  0
  5 38  1  0
  5 39  1  0
  6 40  1  0
  6 41  1  0
  7 42  1  0
  7 43  1  0
  8 44  1  0
  8 45  1  0
 10 46  1  0
 13 47  1  0
 16 48  1  0
 18 49  1  0
 19 50  1  0
 22 51  1  0
 23 52  1  0
 24 53  1  0
 25 54  1  0
 28 55  1  0
 28 56  1  0
M  CHG  2   8   1  20   1
M  END
>  <UniqueID>  (44) 
42

>  <SMILES>  (44) 
CCN(CC)CC[NH2+]c1cc2c3cc4c(cc3cc[n+]2c2ccccc12)OCO4

>  <Energy>  (44) 
123.84480751061054

>  <Genealogy>  (44) 
CCN(CC)CC[NH2+]c1cc2c3cc4c(cc3cc[n+]2c2ccccc12)OCO4 (protonated)
CCN(CC)CC[NH2+]c1cc2c3cc4c(cc3cc[n+]2c2ccccc12)OCO4 (3D coordinates assigned)
CCN(CC)CC[NH2+]c1cc2c3cc4c(cc3cc[n+]2c2ccccc12)OCO4 (nonaromatic ring conformer: 123.84480751061054 kcal/mol)

>  <smiles>  (44) 
CCN(CC)CCNc1cc2c3cc4c(cc3cc[n+]2c2ccccc12)OCO4

>  <score_type>  (44) 
oracle

>  <origin>  (44) 
adg

>  <m_score__min__energy>  (44) 
-4.8700000000000001

>  <m_primary>  (44) 
energy

$$$$
44:0
     RDKit          3D

 44 45  0  0  0  0  0  0  0  0999 V2000
   60.7540   27.0650   48.3780 C   0  0  0  0  0  0  0  0  0  0  0  0
   60.1490   26.1390   47.4800 O   0  0  0  0  0  0  0  0  0  0  0  0
   58.8360   26.2460   46.9990 C   0  0  0  0  0  0  0  0  0  0  0  0
   57.9610   25.1770   47.2170 C   0  0  0  0  0  0  0  0  0  0  0  0
   56.6470   25.2310   46.7520 C   0  0  0  0  0  0  0  0  0  0  0  0
   56.1890   26.3610   46.0700 C   0  0  0  0  0  0  0  0  0  0  0  0
   54.9080   26.3910   45.6270 F   0  0  0  0  0  0  0  0  0  0  0  0
   57.0410   27.4560   45.8600 C   0  0  0  0  0  0  0  0  0  0  0  0
   56.5450   28.6200   45.1760 N   0  0  0  0  0  0  0  0  0  0  0  0
   56.9440   28.9950   43.8170 C   0  0  0  0  0  0  0  0  0  0  0  0
   56.8020   30.5040   43.6080 C   0  0  0  0  0  0  0  0  0  0  0  0
   56.7180   31.1750   44.8690 O   0  0  0  0  0  0  0  0  0  0  0  0
   57.5630   32.2170   45.2770 C   0  0  0  0  0  0  0  0  0  0  0  0
   57.3180   33.5460   44.8800 C   0  0  0  0  0  0  0  0  0  0  0  0
   58.1740   34.5720   45.2720 C   0  0  0  0  0  0  0  0  0  0  0  0
   59.2740   34.2920   46.0780 C   0  0  0  0  0  0  0  0  0  0  0  0
   59.5320   32.9800   46.4820 C   0  0  0  0  0  0  0  0  0  0  0  0
   58.6910   31.9240   46.0790 C   0  0  0  0  0  0  0  0  0  0  0  0
   58.9780   30.5010   46.5370 C   0  0  0  0  0  0  0  0  0  0  0  0
   60.3310   30.0120   46.0030 C   0  0  0  0  0  0  0  0  0  0  0  0
   58.9130   30.3860   48.0650 C   0  0  0  0  0  0  0  0  0  0  0  0
   58.3740   27.3860   46.3130 C   0  0  0  0  0  0  0  0  0  0  0  0
   60.5522   26.7561   49.4143 H   0  0  0  0  0  0  0  0  0  0  0  0
   61.8404   27.0857   48.2065 H   0  0  0  0  0  0  0  0  0  0  0  0
   60.3366   28.0682   48.2065 H   0  0  0  0  0  0  0  0  0  0  0  0
   58.3117   24.2866   47.7594 H   0  0  0  0  0  0  0  0  0  0  0  0
   55.9695   24.3814   46.9228 H   0  0  0  0  0  0  0  0  0  0  0  0
   55.8550   29.2310   45.6670 H   0  0  0  0  0  0  0  0  0  0  0  0
   57.9929   28.7054   43.6559 H   0  0  0  0  0  0  0  0  0  0  0  0
   56.2901   28.4760   43.1008 H   0  0  0  0  0  0  0  0  0  0  0  0
   57.6769   30.8776   43.0559 H   0  0  0  0  0  0  0  0  0  0  0  0
   55.8830   30.7008   43.0364 H   0  0  0  0  0  0  0  0  0  0  0  0
   56.4426   33.7755   44.2547 H   0  0  0  0  0  0  0  0  0  0  0  0
   57.9809   35.6043   44.9446 H   0  0  0  0  0  0  0  0  0  0  0  0
   59.9415   35.1058   46.3975 H   0  0  0  0  0  0  0  0  0  0  0  0
   60.4015   32.7690   47.1219 H   0  0  0  0  0  0  0  0  0  0  0  0
   58.1956   29.8503   46.1193 H   0  0  0  0  0  0  0  0  0  0  0  0
   60.9937   29.7725   46.8477 H   0  0  0  0  0  0  0  0  0  0  0  0
   60.1793   29.1118   45.3893 H   0  0  0  0  0  0  0  0  0  0  0  0
   60.7899   30.8012   45.3893 H   0  0  0  0  0  0  0  0  0  0  0  0
   59.4059   31.2580   48.5196 H   0  0  0  0  0  0  0  0  0  0  0  0
   57.8614   30.3507   48.3856 H   0  0  0  0  0  0  0  0  0  0  0  0
   59.4251   29.4668   48.3856 H   0  0  0  0  0  0  0  0  0  0  0  0
   59.0581   28.2276   46.1294 H   0  0  0  0  0  0  0  0  0  0  0  0
  1  2  1  0
  2  3  1  0
  3  4  2  0
  4  5  1  0
  5  6  2  0
  6  7  1  0
  6  8  1  0
  8  9  1  0
  9 10  1  0
 10 11  1  0
 11 12  1  0
 12 13  1  0
 13 14  2  0
 14 15  1  0
 15 16  2  0
 16 17  1  0
 17 18  2  0
 18 19  1  0
 19 20  1  0
 19 21  1  0
  8 22  2  0
 22  3  1  0
 18 13  1  0
  1 23  1  0
  1 24  1  0
  1 25  1  0
  4 26  1  0
  5 27  1  0
  9 28  1  0
 10 29  1  0
 10 30  1  0
 11 31  1  0
 11 32  1  0
 14 33  1  0
 15 34  1  0
 16 35  1  0
 17 36  1  0
 19 37  1  0
 20 38  1  0
 20 39  1  0
 20 40  1  0
 21 41  1  0
 21 42  1  0
 21 43  1  0
 22 44  1  0
M  END
>  <UniqueID>  (45) 
43

>  <SMILES>  (45) 
COc1ccc(F)c(NCCOc2ccccc2C(C)C)c1

>  <Energy>  (45) 
40.02261964481186

>  <Genealogy>  (45) 
COc1ccc(F)c(NCCOc2ccccc2C(C)C)c1 (3D coordinates assigned)
COc1ccc(F)c(NCCOc2ccccc2C(C)C)c1 (optimized conformer: 40.02261964481186 kcal/mol)

>  <smiles>  (45) 
COc1ccc(F)c(NCCOc2ccccc2C(C)C)c1

>  <score_type>  (45) 
oracle

>  <origin>  (45) 
adg

>  <m_score__min__energy>  (45) 
-6.71

>  <m_primary>  (45) 
energy

$$$$
