0:0
     RDKit          3D

 30 32  0  0  0  0  0  0  0  0999 V2000
   55.1140   24.8260   45.6170 C   0  0  0  0  0  0  0  0  0  0  0  0
   55.5020   26.1380   46.0090 O   0  0  0  0  0  0  0  0  0  0  0  0
   56.8180   26.6220   45.9670 C   0  0  0  0  0  0  0  0  0  0  0  0
   57.9360   25.7670   45.9890 C   0  0  0  0  0  0  0  0  0  0  0  0
   59.2270   26.3000   45.9500 C   0  0  0  0  0  0  0  0  0  0  0  0
   59.4150   27.6830   45.8890 C   0  0  0  0  0  0  0  0  0  0  0  0
   58.3120   28.5490   45.8640 C   0  0  0  0  0  0  0  0  0  0  0  0
   58.5040   29.9730   45.8010 N   0  0  0  0  0  0  0  0  0  0  0  0
   57.6560   30.9460   45.1770 C   0  0  0  0  0  0  0  0  0  0  0  0
   56.6070   30.6720   44.5350 O   0  0  0  0  0  0  0  0  0  0  0  0
   58.2170   32.2810   45.3480 C   0  0  0  0  0  0  0  0  0  0  0  0
   57.7550   33.5230   44.9190 C   0  0  0  0  0  0  0  0  0  0  0  0
   58.5230   34.6590   45.2360 C   0  0  0  0  0  0  0  0  0  0  0  0
   59.7230   34.5290   45.9670 C   0  0  0  0  0  0  0  0  0  0  0  0
   60.1690   33.2630   46.3870 C   0  0  0  0  0  0  0  0  0  0  0  0
   59.3910   32.1540   46.0590 C   0  0  0  0  0  0  0  0  0  0  0  0
   59.5840   30.7380   46.3490 C   0  0  0  0  0  0  0  0  0  0  0  0
   60.5300   30.2540   47.0250 O   0  0  0  0  0  0  0  0  0  0  0  0
   57.0150   28.0070   45.9030 C   0  0  0  0  0  0  0  0  0  0  0  0
   54.9330   24.2141   46.5130 H   0  0  0  0  0  0  0  0  0  0  0  0
   54.1933   24.8797   45.0175 H   0  0  0  0  0  0  0  0  0  0  0  0
   55.9158   24.3702   45.0175 H   0  0  0  0  0  0  0  0  0  0  0  0
   57.7931   24.6774   46.0370 H   0  0  0  0  0  0  0  0  0  0  0  0
   60.0981   25.6285   45.9674 H   0  0  0  0  0  0  0  0  0  0  0  0
   60.4344   28.0953   45.8604 H   0  0  0  0  0  0  0  0  0  0  0  0
   56.8182   33.6133   44.3496 H   0  0  0  0  0  0  0  0  0  0  0  0
   58.1857   35.6546   44.9119 H   0  0  0  0  0  0  0  0  0  0  0  0
   60.3139   35.4244   46.2101 H   0  0  0  0  0  0  0  0  0  0  0  0
   61.1032   33.1515   46.9569 H   0  0  0  0  0  0  0  0  0  0  0  0
   56.1445   28.6792   45.8830 H   0  0  0  0  0  0  0  0  0  0  0  0
  1  2  1  0
  2  3  1  0
  3  4  2  0
  4  5  1  0
  5  6  2  0
  6  7  1  0
  7  8  1  0
  8  9  1  0
  9 10  2  0
  9 11  1  0
 11 12  2  0
 12 13  1  0
 13 14  2  0
 14 15  1  0
 15 16  2  0
 16 17  1  0
 17 18  2  0
  7 19  2  0
 19  3  1  0
 17  8  1  0
 16 11  1  0
  1 20  1  0
  1 21  1  0
  1 22  1  0
  4 23  1  0
  5 24  1  0
  6 25  1  0
 12 26  1  0
 13 27  1  0
 14 28  1  0
 15 29  1  0
 19 30  1  0
M  END
>  <UniqueID>  (1) 
1

>  <SMILES>  (1) 
COc1cccc(N2C(=O)c3ccccc3C2=O)c1

>  <Energy>  (1) 
69.01198154229102

>  <Genealogy>  (1) 
COc1cccc(N2C(=O)c3ccccc3C2=O)c1 (3D coordinates assigned)
COc1cccc(N2C(=O)c3ccccc3C2=O)c1 (nonaromatic ring conformer: 69.01198154229102 kcal/mol)

>  <smiles>  (1) 
COc1cccc(N2C(=O)c3ccccc3C2=O)c1

>  <score_type>  (1) 
oracle

>  <origin>  (1) 
adg

>  <m_score__min__energy>  (1) 
-7.3700000000000001

>  <m_primary>  (1) 
energy

$$$$
1:0
     RDKit          3D

 28 29  0  0  0  0  0  0  0  0999 V2000
   55.3820   29.3210   44.6690 N   0  0  0  0  0  0  0  0  0  0  0  0
   56.3120   30.1990   43.9570 C   0  0  0  0  0  0  0  0  0  0  0  0
   57.4060   30.7370   44.9090 C   0  0  1  0  0  0  0  0  0  0  0  0
   58.4910   29.6410   45.0920 C   0  0  0  0  0  0  0  0  0  0  0  0
   59.6940   30.0780   45.9320 C   0  0  0  0  0  0  0  0  0  0  0  0
   59.1200   30.9990   47.3860 S   0  0  0  0  0  0  0  0  0  0  0  0
   59.2730   32.6230   46.6170 C   0  0  0  0  0  0  0  0  0  0  0  0
   60.0170   33.5660   47.3420 C   0  0  0  0  0  0  0  0  0  0  0  0
   60.1440   34.8780   46.8920 C   0  0  0  0  0  0  0  0  0  0  0  0
   59.5370   35.2650   45.7020 C   0  0  0  0  0  0  0  0  0  0  0  0
   58.8160   34.3370   44.9510 C   0  0  0  0  0  0  0  0  0  0  0  0
   58.6610   33.0030   45.3830 C   0  0  0  0  0  0  0  0  0  0  0  0
   58.0200   32.0530   44.3730 C   0  0  0  0  0  0  0  0  0  0  0  0
   55.6530   28.3280   44.4900 H   0  0  0  0  0  0  0  0  0  0  0  0
   55.5180   29.4710   45.6950 H   0  0  0  0  0  0  0  0  0  0  0  0
   56.7896   29.6331   43.1436 H   0  0  0  0  0  0  0  0  0  0  0  0
   55.7481   31.0529   43.5533 H   0  0  0  0  0  0  0  0  0  0  0  0
   56.9571   30.9723   45.8853 H   0  0  0  0  0  0  0  0  0  0  0  0
   58.0251   28.7738   45.5829 H   0  0  0  0  0  0  0  0  0  0  0  0
   58.8760   29.4088   44.0881 H   0  0  0  0  0  0  0  0  0  0  0  0
   60.2539   29.1895   46.2592 H   0  0  0  0  0  0  0  0  0  0  0  0
   60.3473   30.7229   45.3260 H   0  0  0  0  0  0  0  0  0  0  0  0
   60.5072   33.2648   48.2795 H   0  0  0  0  0  0  0  0  0  0  0  0
   60.7237   35.6072   47.4771 H   0  0  0  0  0  0  0  0  0  0  0  0
   59.6257   36.3043   45.3527 H   0  0  0  0  0  0  0  0  0  0  0  0
   58.3584   34.6519   44.0016 H   0  0  0  0  0  0  0  0  0  0  0  0
   57.2166   32.6071   43.8655 H   0  0  0  0  0  0  0  0  0  0  0  0
   58.8521   31.7290   43.7306 H   0  0  0  0  0  0  0  0  0  0  0  0
  1  2  1  0
  2  3  1  0
  3  4  1  0
  4  5  1  0
  5  6  1  0
  6  7  1  0
  7  8  2  0
  8  9  1  0
  9 10  2  0
 10 11  1  0
 11 12  2  0
 12 13  1  0
 13  3  1  0
 12  7  1  0
  1 14  1  0
  1 15  1  0
  2 16  1  0
  2 17  1  0
  3 18  1  1
  4 19  1  0
  4 20  1  0
  5 21  1  0
  5 22  1  0
  8 23  1  0
  9 24  1  0
 10 25  1  0
 11 26  1  0
 13 27  1  0
 13 28  1  0
M  END
>  <UniqueID>  (2) 
2

>  <SMILES>  (2) 
NC[C@H]1CCSc2ccccc2C1

>  <Energy>  (2) 
37.990721733030036

>  <Genealogy>  (2) 
NC[C@H]1CCSc2ccccc2C1 (chirality)
NC[C@H]1CCSc2ccccc2C1 (3D coordinates assigned)
NC[C@H]1CCSc2ccccc2C1 (nonaromatic ring conformer: 37.990721733030036 kcal/mol)

>  <smiles>  (2) 
NCC1CCSc2ccccc2C1

>  <score_type>  (2) 
oracle

>  <origin>  (2) 
adg

>  <m_score__min__energy>  (2) 
-4.8499999999999996

>  <m_primary>  (2) 
energy

$$$$
2:0
     RDKit          3D

 57 59  0  0  0  0  0  0  0  0999 V2000
   65.5080   33.0240   49.7890 C   0  0  0  0  0  0  0  0  0  0  0  0
   64.2650   33.0660   49.0950 O   0  0  0  0  0  0  0  0  0  0  0  0
   63.2710   32.0760   49.1620 C   0  0  0  0  0  0  0  0  0  0  0  0
   63.0460   31.3580   50.3540 C   0  0  0  0  0  0  0  0  0  0  0  0
   62.0530   30.3840   50.4210 C   0  0  0  0  0  0  0  0  0  0  0  0
   61.2690   30.1050   49.3070 C   0  0  0  0  0  0  0  0  0  0  0  0
   61.4720   30.7980   48.1060 C   0  0  0  0  0  0  0  0  0  0  0  0
   60.6180   30.4730   46.9050 C   0  0  0  0  0  0  0  0  0  0  0  0
   60.7130   29.0380   46.5620 N   0  0  0  0  0  0  0  0  0  0  0  0
   59.6920   28.2370   47.2900 C   0  0  0  0  0  0  0  0  0  0  0  0
   59.0250   27.1600   46.4230 C   0  0  0  0  0  0  0  0  0  0  0  0
   58.3740   27.7900   45.1720 C   0  0  0  0  0  0  0  0  0  0  0  0
   57.0230   28.4690   45.5330 C   0  0  0  0  0  0  0  0  0  0  0  0
   56.4950   29.4240   44.4480 C   0  0  0  0  0  0  0  0  0  0  0  0
   56.4980   30.8270   44.8640 N   0  0  0  0  0  0  0  0  0  0  0  0
   57.4000   31.8630   44.4460 C   0  0  0  0  0  0  0  0  0  0  0  0
   57.6820   31.9540   43.2220 O   0  0  0  0  0  0  0  0  0  0  0  0
   58.0750   32.7700   45.3960 C   0  0  0  0  0  0  0  0  0  0  0  0
   58.6420   33.9820   44.9720 C   0  0  0  0  0  0  0  0  0  0  0  0
   59.2700   34.8250   45.8940 C   0  0  0  0  0  0  0  0  0  0  0  0
   59.3500   34.4570   47.2390 C   0  0  0  0  0  0  0  0  0  0  0  0
   58.8090   33.2410   47.6660 C   0  0  0  0  0  0  0  0  0  0  0  0
   58.9280   32.7290   49.4990 Br  0  0  0  0  0  0  0  0  0  0  0  0
   58.1830   32.3950   46.7460 C   0  0  0  0  0  0  0  0  0  0  0  0
   59.3470   28.7790   44.4690 C   0  0  0  0  0  0  0  0  0  0  0  0
   60.7500   28.8030   45.0970 C   0  0  0  0  0  0  0  0  0  0  0  0
   62.4740   31.7910   48.0200 C   0  0  0  0  0  0  0  0  0  0  0  0
   62.6270   32.4470   46.7820 O   0  0  0  0  0  0  0  0  0  0  0  0
   62.9570   33.8170   46.5780 C   0  0  0  0  0  0  0  0  0  0  0  0
   65.3229   33.0303   50.8733 H   0  0  0  0  0  0  0  0  0  0  0  0
   66.0502   32.1070   49.5149 H   0  0  0  0  0  0  0  0  0  0  0  0
   66.1109   33.9023   49.5149 H   0  0  0  0  0  0  0  0  0  0  0  0
   63.6615   31.5694   51.2409 H   0  0  0  0  0  0  0  0  0  0  0  0
   61.8882   29.8332   51.3588 H   0  0  0  0  0  0  0  0  0  0  0  0
   60.4850   29.3359   49.3688 H   0  0  0  0  0  0  0  0  0  0  0  0
   59.5703   30.7206   47.1306 H   0  0  0  0  0  0  0  0  0  0  0  0
   60.9769   31.0632   46.0489 H   0  0  0  0  0  0  0  0  0  0  0  0
   60.1803   27.7437   48.1433 H   0  0  0  0  0  0  0  0  0  0  0  0
   58.9009   28.9327   47.6065 H   0  0  0  0  0  0  0  0  0  0  0  0
   59.7848   26.4305   46.1058 H   0  0  0  0  0  0  0  0  0  0  0  0
   58.2427   26.6638   47.0161 H   0  0  0  0  0  0  0  0  0  0  0  0
   58.1580   26.9834   44.4559 H   0  0  0  0  0  0  0  0  0  0  0  0
   56.2725   27.6816   45.6962 H   0  0  0  0  0  0  0  0  0  0  0  0
   57.2014   29.0759   46.4329 H   0  0  0  0  0  0  0  0  0  0  0  0
   57.1288   29.3228   43.5547 H   0  0  0  0  0  0  0  0  0  0  0  0
   55.4502   29.1448   44.2470 H   0  0  0  0  0  0  0  0  0  0  0  0
   58.5922   34.2694   43.9114 H   0  0  0  0  0  0  0  0  0  0  0  0
   59.7018   35.7798   45.5595 H   0  0  0  0  0  0  0  0  0  0  0  0
   59.8394   35.1250   47.9631 H   0  0  0  0  0  0  0  0  0  0  0  0
   57.7728   31.4307   47.0805 H   0  0  0  0  0  0  0  0  0  0  0  0
   59.4421   28.4840   43.4136 H   0  0  0  0  0  0  0  0  0  0  0  0
   58.9229   29.7877   44.5814 H   0  0  0  0  0  0  0  0  0  0  0  0
   61.2381   27.8357   44.9071 H   0  0  0  0  0  0  0  0  0  0  0  0
   61.3069   29.6338   44.6392 H   0  0  0  0  0  0  0  0  0  0  0  0
   63.0768   34.3142   47.5519 H   0  0  0  0  0  0  0  0  0  0  0  0
   63.8978   33.8872   46.0123 H   0  0  0  0  0  0  0  0  0  0  0  0
   62.1514   34.3079   46.0123 H   0  0  0  0  0  0  0  0  0  0  0  0
  1  2  1  0
  2  3  1  0
  3  4  2  0
  4  5  1  0
  5  6  2  0
  6  7  1  0
  7  8  1  0
  8  9  1  0
  9 10  1  0
 10 11  1  0
 11 12  1  0
 12 13  1  0
 13 14  1  0
 14 15  1  0
 15 16  1  0
 16 17  2  0
 16 18  1  0
 18 19  2  0
 19 20  1  0
 20 21  2  0
 21 22  1  0
 22 23  1  0
 22 24  2  0
 12 25  1  0
 25 26  1  0
  7 27  2  0
 27 28  1  0
 28 29  1  0
 27  3  1  0
 26  9  1  0
 24 18  1  0
  1 30  1  0
  1 31  1  0
  1 32  1  0
  4 33  1  0
  5 34  1  0
  6 35  1  0
  8 36  1  0
  8 37  1  0
 10 38  1  0
 10 39  1  0
 11 40  1  0
 11 41  1  0
 12 42  1  0
 13 43  1  0
 13 44  1  0
 14 45  1  0
 14 46  1  0
 19 47  1  0
 20 48  1  0
 21 49  1  0
 24 50  1  0
 25 51  1  0
 25 52  1  0
 26 53  1  0
 26 54  1  0
 29 55  1  0
 29 56  1  0
 29 57  1  0
M  CHG  1  15  -1
M  END
>  <UniqueID>  (3) 
3

>  <SMILES>  (3) 
COc1cccc(CN2CCC(CC[N-]C(=O)c3cccc(Br)c3)CC2)c1OC

>  <Energy>  (3) 
70.57852481662766

>  <Genealogy>  (3) 
COc1cccc(CN2CCC(CC[N-]C(=O)c3cccc(Br)c3)CC2)c1OC (protonated)
COc1cccc(CN2CCC(CC[N-]C(=O)c3cccc(Br)c3)CC2)c1OC (3D coordinates assigned)
COc1cccc(CN2CCC(CC[N-]C(=O)c3cccc(Br)c3)CC2)c1OC (nonaromatic ring conformer: 70.57852481662766 kcal/mol)

>  <smiles>  (3) 
COc1cccc(CN2CCC(CCNC(=O)c3cccc(Br)c3)CC2)c1OC

>  <score_type>  (3) 
oracle

>  <origin>  (3) 
adg

>  <m_score__min__energy>  (3) 
-10.6

>  <m_primary>  (3) 
energy

$$$$
3:0
     RDKit          3D

 47 48  0  0  0  0  0  0  0  0999 V2000
   57.9550   24.6450   45.2090 C   0  0  0  0  0  0  0  0  0  0  0  0
   57.0540   25.0090   44.1040 N   0  0  0  0  0  0  0  0  0  0  0  0
   56.1890   23.8810   43.7290 C   0  0  0  0  0  0  0  0  0  0  0  0
   57.7650   25.6030   42.9490 C   0  0  0  0  0  0  0  0  0  0  0  0
   58.1550   27.0830   43.1350 C   0  0  0  0  0  0  0  0  0  0  0  0
   57.7630   27.5550   44.4740 N   0  0  0  0  0  0  0  0  0  0  0  0
   57.8770   29.0210   44.6240 C   0  0  1  0  0  0  0  0  0  0  0  0
   56.5300   29.6840   44.7680 C   0  0  0  0  0  0  0  0  0  0  0  0
   55.4820   28.9880   44.8640 O   0  0  0  0  0  0  0  0  0  0  0  0
   56.4500   31.1120   44.7790 N   0  0  0  0  0  0  0  0  0  0  0  0
   57.4210   31.9720   44.1140 C   0  0  0  0  0  0  0  0  0  0  0  0
   58.0780   32.8700   45.1260 C   0  0  0  0  0  0  0  0  0  0  0  0
   58.8900   33.9340   44.6990 C   0  0  0  0  0  0  0  0  0  0  0  0
   59.4610   34.8030   45.6330 C   0  0  0  0  0  0  0  0  0  0  0  0
   59.2160   34.6260   46.9970 C   0  0  0  0  0  0  0  0  0  0  0  0
   58.4000   33.5750   47.4290 C   0  0  0  0  0  0  0  0  0  0  0  0
   57.8300   32.7010   46.4990 C   0  0  0  0  0  0  0  0  0  0  0  0
   58.7630   29.3610   45.8050 C   0  0  0  0  0  0  0  0  0  0  0  0
   59.9630   30.0790   45.6310 C   0  0  0  0  0  0  0  0  0  0  0  0
   60.7750   30.3800   46.7300 C   0  0  0  0  0  0  0  0  0  0  0  0
   60.4010   29.9670   48.0110 C   0  0  0  0  0  0  0  0  0  0  0  0
   59.2170   29.2510   48.1960 C   0  0  0  0  0  0  0  0  0  0  0  0
   58.4020   28.9480   47.1010 C   0  0  0  0  0  0  0  0  0  0  0  0
   57.4574   24.8460   46.1692 H   0  0  0  0  0  0  0  0  0  0  0  0
   58.2041   23.5757   45.1419 H   0  0  0  0  0  0  0  0  0  0  0  0
   58.8770   25.2412   45.1419 H   0  0  0  0  0  0  0  0  0  0  0  0
   55.8123   23.3897   44.6383 H   0  0  0  0  0  0  0  0  0  0  0  0
   55.3410   24.2512   43.1341 H   0  0  0  0  0  0  0  0  0  0  0  0
   56.7665   23.1581   43.1341 H   0  0  0  0  0  0  0  0  0  0  0  0
   58.6841   25.0240   42.7757 H   0  0  0  0  0  0  0  0  0  0  0  0
   57.0687   25.5659   42.0983 H   0  0  0  0  0  0  0  0  0  0  0  0
   59.2438   27.1879   43.0185 H   0  0  0  0  0  0  0  0  0  0  0  0
   57.6329   27.6865   42.3779 H   0  0  0  0  0  0  0  0  0  0  0  0
   56.7730   27.2610   44.6470 H   0  0  0  0  0  0  0  0  0  0  0  0
   58.3357   29.4111   43.7035 H   0  0  0  0  0  0  0  0  0  0  0  0
   58.1858   31.3506   43.6252 H   0  0  0  0  0  0  0  0  0  0  0  0
   56.9077   32.5866   43.3598 H   0  0  0  0  0  0  0  0  0  0  0  0
   59.0771   34.0837   43.6254 H   0  0  0  0  0  0  0  0  0  0  0  0
   60.1046   35.6279   45.2934 H   0  0  0  0  0  0  0  0  0  0  0  0
   59.6643   35.3123   47.7305 H   0  0  0  0  0  0  0  0  0  0  0  0
   58.2065   33.4361   48.5029 H   0  0  0  0  0  0  0  0  0  0  0  0
   57.1855   31.8785   46.8427 H   0  0  0  0  0  0  0  0  0  0  0  0
   60.2634   30.4051   44.6243 H   0  0  0  0  0  0  0  0  0  0  0  0
   61.7091   30.9426   46.5851 H   0  0  0  0  0  0  0  0  0  0  0  0
   61.0396   30.2060   48.8741 H   0  0  0  0  0  0  0  0  0  0  0  0
   58.9247   28.9246   49.2050 H   0  0  0  0  0  0  0  0  0  0  0  0
   57.4711   28.3822   47.2538 H   0  0  0  0  0  0  0  0  0  0  0  0
  1  2  1  0
  2  3  1  0
  2  4  1  0
  4  5  1  0
  5  6  1  0
  6  7  1  0
  7  8  1  0
  8  9  2  0
  8 10  1  0
 10 11  1  0
 11 12  1  0
 12 13  2  0
 13 14  1  0
 14 15  2  0
 15 16  1  0
 16 17  2  0
  7 18  1  0
 18 19  2  0
 19 20  1  0
 20 21  2  0
 21 22  1  0
 22 23  2  0
 17 12  1  0
 23 18  1  0
  1 24  1  0
  1 25  1  0
  1 26  1  0
  3 27  1  0
  3 28  1  0
  3 29  1  0
  4 30  1  0
  4 31  1  0
  5 32  1  0
  5 33  1  0
  6 34  1  0
  7 35  1  6
 11 36  1  0
 11 37  1  0
 13 38  1  0
 14 39  1  0
 15 40  1  0
 16 41  1  0
 17 42  1  0
 19 43  1  0
 20 44  1  0
 21 45  1  0
 22 46  1  0
 23 47  1  0
M  CHG  1  10  -1
M  END
>  <UniqueID>  (4) 
4

>  <SMILES>  (4) 
CN(C)CCN[C@@H](C(=O)[N-]Cc1ccccc1)c1ccccc1

>  <Energy>  (4) 
46.10268180302671

>  <Genealogy>  (4) 
CN(C)CCNC(C(=O)[N-]Cc1ccccc1)c1ccccc1 (protonated)
CN(C)CCN[C@@H](C(=O)[N-]Cc1ccccc1)c1ccccc1 (chirality)
CN(C)CCN[C@@H](C(=O)[N-]Cc1ccccc1)c1ccccc1 (3D coordinates assigned)
CN(C)CCN[C@@H](C(=O)[N-]Cc1ccccc1)c1ccccc1 (optimized conformer: 46.10268180302671 kcal/mol)

>  <smiles>  (4) 
CN(C)CCNC(C(=O)NCc1ccccc1)c1ccccc1

>  <score_type>  (4) 
oracle

>  <origin>  (4) 
adg

>  <m_score__min__energy>  (4) 
-8.7799999999999994

>  <m_primary>  (4) 
energy

$$$$
4:0
     RDKit          3D

 25 26  0  0  0  0  0  0  0  0999 V2000
   64.3190   31.7900   50.2360 C   0  0  0  0  0  0  0  0  0  0  0  0
   64.5970   33.0920   49.4960 C   0  0  0  0  0  0  0  0  0  0  0  0
   63.6400   33.2680   48.4080 N   0  0  0  0  0  0  0  0  0  0  0  0
   62.3110   33.4340   48.5230 C   0  0  0  0  0  0  0  0  0  0  0  0
   61.8110   33.4760   47.2300 C   0  0  0  0  0  0  0  0  0  0  0  0
   60.4000   33.6420   46.8090 C   0  0  0  0  0  0  0  0  0  0  0  0
   59.3740   32.9930   47.5220 C   0  0  0  0  0  0  0  0  0  0  0  0
   58.0390   33.1420   47.1360 C   0  0  0  0  0  0  0  0  0  0  0  0
   57.7110   33.9360   46.0350 C   0  0  0  0  0  0  0  0  0  0  0  0
   58.7200   34.5860   45.3190 C   0  0  0  0  0  0  0  0  0  0  0  0
   60.0580   34.4410   45.7010 C   0  0  0  0  0  0  0  0  0  0  0  0
   62.8470   33.3240   46.3750 N   0  0  0  0  0  0  0  0  0  0  0  0
   63.9330   33.1960   47.1210 N   0  0  0  0  0  0  0  0  0  0  0  0
   64.3573   31.9693   51.3206 H   0  0  0  0  0  0  0  0  0  0  0  0
   63.3211   31.4178   49.9609 H   0  0  0  0  0  0  0  0  0  0  0  0
   65.0778   31.0427   49.9609 H   0  0  0  0  0  0  0  0  0  0  0  0
   64.5085   33.9346   50.1975 H   0  0  0  0  0  0  0  0  0  0  0  0
   65.6136   33.0568   49.0774 H   0  0  0  0  0  0  0  0  0  0  0  0
   61.7350   33.5195   49.4563 H   0  0  0  0  0  0  0  0  0  0  0  0
   59.6249   32.3642   48.3890 H   0  0  0  0  0  0  0  0  0  0  0  0
   57.2445   32.6325   47.7010 H   0  0  0  0  0  0  0  0  0  0  0  0
   56.6598   34.0497   45.7317 H   0  0  0  0  0  0  0  0  0  0  0  0
   58.4615   35.2131   44.4530 H   0  0  0  0  0  0  0  0  0  0  0  0
   60.8476   34.9542   45.1325 H   0  0  0  0  0  0  0  0  0  0  0  0
   64.8930   33.0470   46.7380 H   0  0  0  0  0  0  0  0  0  0  0  0
  1  2  1  0
  2  3  1  0
  3  4  1  0
  4  5  2  0
  5  6  1  0
  6  7  2  0
  7  8  1  0
  8  9  2  0
  9 10  1  0
 10 11  2  0
  5 12  1  0
 12 13  2  0
 13  3  1  0
 11  6  1  0
  1 14  1  0
  1 15  1  0
  1 16  1  0
  2 17  1  0
  2 18  1  0
  4 19  1  0
  7 20  1  0
  8 21  1  0
  9 22  1  0
 10 23  1  0
 11 24  1  0
 13 25  1  0
M  CHG  1  13   1
M  END
>  <UniqueID>  (5) 
5

>  <SMILES>  (5) 
CCn1cc(-c2ccccc2)n[nH+]1

>  <Energy>  (5) 
57.659096584013994

>  <Genealogy>  (5) 
CCn1cc(-c2ccccc2)n[nH+]1 (protonated)
CCn1cc(-c2ccccc2)n[nH+]1 (3D coordinates assigned)
CCn1cc(-c2ccccc2)n[nH+]1 (optimized conformer: 57.659096584013994 kcal/mol)

>  <smiles>  (5) 
CCn1cc(-c2ccccc2)nn1

>  <score_type>  (5) 
oracle

>  <origin>  (5) 
adg

>  <m_score__min__energy>  (5) 
-4.71

>  <m_primary>  (5) 
energy

$$$$
5:0
     RDKit          3D

 55 59  0  0  0  0  0  0  0  0999 V2000
   57.0620   24.5040   45.3950 C   0  0  0  0  0  0  0  0  0  0  0  0
   57.1290   25.1550   46.7710 C   0  0  0  0  0  0  0  0  0  0  0  0
   57.5450   26.5520   46.6480 N   0  0  0  0  0  0  0  0  0  0  0  0
   56.8300   27.5670   46.1030 C   0  0  0  0  0  0  0  0  0  0  0  0
   55.5310   27.4540   45.6210 O   0  0  0  0  0  0  0  0  0  0  0  0
   57.5810   28.7180   46.1380 C   0  0  0  0  0  0  0  0  0  0  0  0
   58.7530   28.4290   46.7210 C   0  0  0  0  0  0  0  0  0  0  0  0
   58.7290   27.0850   47.0410 C   0  0  0  0  0  0  0  0  0  0  0  0
   59.7290   26.3790   47.6980 O   0  0  0  0  0  0  0  0  0  0  0  0
   59.5750   29.6530   46.9570 C   0  0  2  0  0  0  0  0  0  0  0  0
   60.8430   29.6780   46.0690 C   0  0  0  0  0  0  0  0  0  0  0  0
   60.7790   28.7480   44.8550 C   0  0  0  0  0  0  0  0  0  0  0  0
   59.9020   29.8910   48.4110 C   0  0  0  0  0  0  0  0  0  0  0  0
   60.0370   28.9180   49.2030 O   0  0  0  0  0  0  0  0  0  0  0  0
   60.1140   31.2420   48.8760 N   0  0  0  0  0  0  0  0  0  0  0  0
   60.8410   31.4730   50.1310 C   0  0  0  0  0  0  0  0  0  0  0  0
   62.2600   31.8880   49.8430 C   0  0  0  0  0  0  0  0  0  0  0  0
   63.3270   31.2610   50.5090 C   0  0  0  0  0  0  0  0  0  0  0  0
   64.6420   31.6790   50.2840 C   0  0  0  0  0  0  0  0  0  0  0  0
   64.9020   32.7250   49.3960 C   0  0  0  0  0  0  0  0  0  0  0  0
   63.8460   33.3550   48.7300 C   0  0  0  0  0  0  0  0  0  0  0  0
   62.5300   32.9400   48.9520 C   0  0  0  0  0  0  0  0  0  0  0  0
   59.8100   32.3930   48.0060 C   0  0  0  0  0  0  0  0  0  0  0  0
   58.7580   32.0550   46.9890 C   0  0  0  0  0  0  0  0  0  0  0  0
   57.9940   32.9550   46.5490 O   0  0  0  0  0  0  0  0  0  0  0  0
   58.6420   30.7090   46.5090 N   0  0  0  0  0  0  0  0  0  0  0  0
   57.3900   30.1690   45.9440 C   0  0  1  0  0  0  0  0  0  0  0  0
   57.2360   30.4970   44.4870 C   0  0  0  0  0  0  0  0  0  0  0  0
   56.4530   29.8300   43.5610 C   0  0  0  0  0  0  0  0  0  0  0  0
   56.6180   30.5090   42.3740 C   0  0  0  0  0  0  0  0  0  0  0  0
   57.4860   31.5470   42.6450 C   0  0  0  0  0  0  0  0  0  0  0  0
   57.8340   31.5140   43.9100 O   0  0  0  0  0  0  0  0  0  0  0  0
   56.9500   23.4157   45.5093 H   0  0  0  0  0  0  0  0  0  0  0  0
   56.2004   24.9051   44.8412 H   0  0  0  0  0  0  0  0  0  0  0  0
   57.9872   24.7212   44.8412 H   0  0  0  0  0  0  0  0  0  0  0  0
   56.1361   25.1115   47.2425 H   0  0  0  0  0  0  0  0  0  0  0  0
   57.8615   24.6149   47.3888 H   0  0  0  0  0  0  0  0  0  0  0  0
   60.9907   30.7065   45.7079 H   0  0  0  0  0  0  0  0  0  0  0  0
   61.6740   29.3220   46.6956 H   0  0  0  0  0  0  0  0  0  0  0  0
   60.7072   27.7046   45.1958 H   0  0  0  0  0  0  0  0  0  0  0  0
   59.8959   28.9972   44.2484 H   0  0  0  0  0  0  0  0  0  0  0  0
   61.6879   28.8739   44.2484 H   0  0  0  0  0  0  0  0  0  0  0  0
   60.3385   32.2687   50.7005 H   0  0  0  0  0  0  0  0  0  0  0  0
   60.8518   30.5412   50.7156 H   0  0  0  0  0  0  0  0  0  0  0  0
   63.1266   30.4377   51.2104 H   0  0  0  0  0  0  0  0  0  0  0  0
   65.4730   31.1833   50.8072 H   0  0  0  0  0  0  0  0  0  0  0  0
   65.9371   33.0532   49.2205 H   0  0  0  0  0  0  0  0  0  0  0  0
   64.0514   34.1785   48.0303 H   0  0  0  0  0  0  0  0  0  0  0  0
   61.7023   33.4392   48.4269 H   0  0  0  0  0  0  0  0  0  0  0  0
   59.4503   33.2257   48.6284 H   0  0  0  0  0  0  0  0  0  0  0  0
   60.7295   32.6714   47.4702 H   0  0  0  0  0  0  0  0  0  0  0  0
   56.4856   30.5809   46.4155 H   0  0  0  0  0  0  0  0  0  0  0  0
   55.8284   28.9417   43.7366 H   0  0  0  0  0  0  0  0  0  0  0  0
   56.1522   30.2719   41.4061 H   0  0  0  0  0  0  0  0  0  0  0  0
   57.8336   32.2896   41.9118 H   0  0  0  0  0  0  0  0  0  0  0  0
  1  2  1  0
  2  3  1  0
  3  4  1  0
  4  5  1  0
  4  6  2  0
  6  7  1  0
  7  8  2  0
  8  9  1  0
  7 10  1  0
 10 11  1  6
 11 12  1  0
 10 13  1  0
 13 14  2  0
 13 15  1  0
 15 16  1  0
 16 17  1  0
 17 18  2  0
 18 19  1  0
 19 20  2  0
 20 21  1  0
 21 22  2  0
 15 23  1  0
 23 24  1  0
 24 25  2  0
 24 26  1  0
 26 27  1  0
 27 28  1  0
 28 29  2  0
 29 30  1  0
 30 31  2  0
 31 32  1  0
  8  3  1  0
 26 10  1  0
 32 28  1  0
 27  6  1  0
 22 17  1  0
  1 33  1  0
  1 34  1  0
  1 35  1  0
  2 36  1  0
  2 37  1  0
 11 38  1  0
 11 39  1  0
 12 40  1  0
 12 41  1  0
 12 42  1  0
 16 43  1  0
 16 44  1  0
 18 45  1  0
 19 46  1  0
 20 47  1  0
 21 48  1  0
 22 49  1  0
 23 50  1  0
 23 51  1  0
 27 52  1  1
 29 53  1  0
 30 54  1  0
 31 55  1  0
M  CHG  2   5  -1   9  -1
M  END
>  <UniqueID>  (6) 
6

>  <SMILES>  (6) 
CCn1c([O-])c2c(c1[O-])[C@]1(CC)C(=O)N(Cc3ccccc3)CC(=O)N1[C@H]2c1ccco1

>  <Energy>  (6) 
135.99336320341024

>  <Genealogy>  (6) 
CCn1c([O-])c2c(c1[O-])C1(CC)C(=O)N(Cc3ccccc3)CC(=O)N1C2c1ccco1 (protonated)
CCn1c([O-])c2c(c1[O-])[C@]1(CC)C(=O)N(Cc3ccccc3)CC(=O)N1[C@H]2c1ccco1 (chirality)
CCn1c([O-])c2c(c1[O-])[C@]1(CC)C(=O)N(Cc3ccccc3)CC(=O)N1[C@H]2c1ccco1 (3D coordinates assigned)
CCn1c([O-])c2c(c1[O-])[C@]1(CC)C(=O)N(Cc3ccccc3)CC(=O)N1[C@H]2c1ccco1 (nonaromatic ring conformer: 135.99336320341024 kcal/mol)

>  <smiles>  (6) 
CCn1c(O)c2c(c1O)C1(CC)C(=O)N(Cc3ccccc3)CC(=O)N1C2c1ccco1

>  <score_type>  (6) 
oracle

>  <origin>  (6) 
adg

>  <m_score__min__energy>  (6) 
-12.52

>  <m_primary>  (6) 
energy

$$$$
6:0
     RDKit          3D

 49 53  0  0  0  0  0  0  0  0999 V2000
   55.7772   31.7842   43.8668 H   0  0  0  0  0  0  0  0  0  0  0  0
   56.6550   31.5420   44.4840 C   0  0  0  0  0  0  0  0  0  0  0  0
   56.9110   30.2520   44.8220 N   0  0  0  0  0  0  0  0  0  0  0  0
   57.9800   29.8990   45.5880 C   0  0  0  0  0  0  0  0  0  0  0  0
   58.2000   28.4650   45.9100 C   0  0  0  0  0  0  0  0  0  0  0  0
   58.8980   28.1100   47.0960 C   0  0  0  0  0  0  0  0  0  0  0  0
   59.2645   28.9021   47.7655 H   0  0  0  0  0  0  0  0  0  0  0  0
   59.1280   26.7620   47.4280 C   0  0  0  0  0  0  0  0  0  0  0  0
   59.6638   26.4882   48.3489 H   0  0  0  0  0  0  0  0  0  0  0  0
   58.6570   25.7870   46.5560 C   0  0  0  0  0  0  0  0  0  0  0  0
   58.7810   24.4830   46.6680 O   0  0  0  0  0  0  0  0  0  0  0  0
   58.2050   23.9480   45.6070 C   0  0  0  0  0  0  0  0  0  0  0  0
   57.6710   24.9300   44.7910 C   0  0  0  0  0  0  0  0  0  0  0  0
   57.9830   26.1190   45.4070 C   0  0  0  0  0  0  0  0  0  0  0  0
   57.7450   27.4410   45.0420 C   0  0  0  0  0  0  0  0  0  0  0  0
   57.2190   27.6840   44.1070 H   0  0  0  0  0  0  0  0  0  0  0  0
   57.0360   24.6740   43.4580 C   0  0  0  0  0  0  0  0  0  0  0  0
   56.1394   25.3030   43.3556 H   0  0  0  0  0  0  0  0  0  0  0  0
   57.7572   24.9169   42.6638 H   0  0  0  0  0  0  0  0  0  0  0  0
   56.6340   23.1900   43.3370 C   0  0  0  0  0  0  0  0  0  0  0  0
   55.7321   23.0150   43.9419 H   0  0  0  0  0  0  0  0  0  0  0  0
   56.4464   22.9721   42.2753 H   0  0  0  0  0  0  0  0  0  0  0  0
   57.7560   22.2500   43.8290 C   0  0  0  0  0  0  0  0  0  0  0  0
   57.4310   21.2076   43.6957 H   0  0  0  0  0  0  0  0  0  0  0  0
   58.6609   22.4608   43.2402 H   0  0  0  0  0  0  0  0  0  0  0  0
   58.0880   22.4830   45.3180 C   0  0  0  0  0  0  0  0  0  0  0  0
   57.2872   22.0545   45.9387 H   0  0  0  0  0  0  0  0  0  0  0  0
   59.0478   21.9974   45.5484 H   0  0  0  0  0  0  0  0  0  0  0  0
   58.8630   30.9000   46.0350 C   0  0  0  0  0  0  0  0  0  0  0  0
   59.7365   30.6319   46.6474 H   0  0  0  0  0  0  0  0  0  0  0  0
   58.6240   32.2480   45.6950 C   0  0  0  0  0  0  0  0  0  0  0  0
   59.4090   33.2190   46.0720 N   0  0  0  0  0  0  0  0  0  0  0  0
   59.8740   33.5080   47.4300 C   0  0  0  0  0  0  0  0  0  0  0  0
   59.5314   32.7103   48.1055 H   0  0  0  0  0  0  0  0  0  0  0  0
   59.4632   34.4791   47.7432 H   0  0  0  0  0  0  0  0  0  0  0  0
   61.3760   33.5830   47.4780 C   0  0  0  0  0  0  0  0  0  0  0  0
   62.1080   33.6950   48.6090 N   0  0  0  0  0  0  0  0  0  0  0  0
   61.6250   33.8290   49.9800 C   0  0  0  0  0  0  0  0  0  0  0  0
   62.4423   33.6023   50.6805 H   0  0  0  0  0  0  0  0  0  0  0  0
   61.2745   34.8583   50.1463 H   0  0  0  0  0  0  0  0  0  0  0  0
   60.7943   33.1274   50.1463 H   0  0  0  0  0  0  0  0  0  0  0  0
   63.3910   33.7620   48.2070 C   0  0  0  0  0  0  0  0  0  0  0  0
   64.2665   33.8755   48.8632 H   0  0  0  0  0  0  0  0  0  0  0  0
   63.4200   33.6640   46.8320 C   0  0  0  0  0  0  0  0  0  0  0  0
   64.3255   33.6768   46.2075 H   0  0  0  0  0  0  0  0  0  0  0  0
   62.1570   33.5500   46.3800 N   0  0  0  0  0  0  0  0  0  0  0  0
   61.8520   33.4660   45.3850 H   0  0  0  0  0  0  0  0  0  0  0  0
   57.5030   32.5600   44.9180 C   0  0  0  0  0  0  0  0  0  0  0  0
   57.2913   33.6057   44.6503 H   0  0  0  0  0  0  0  0  0  0  0  0
  1  2  1  0
  2  3  1  0
  3  4  1  0
  4  5  1  0
  5  6  2  0
  6  7  1  0
  6  8  1  0
  8  9  1  0
  8 10  2  0
 10 11  1  0
 11 12  1  0
 12 13  2  0
 13 14  1  0
 14 15  2  0
 15 16  1  0
 13 17  1  0
 17 18  1  0
 17 19  1  0
 17 20  1  0
 20 21  1  0
 20 22  1  0
 20 23  1  0
 23 24  1  0
 23 25  1  0
 23 26  1  0
 26 27  1  0
 26 28  1  0
  4 29  2  0
 29 30  1  0
 29 31  1  0
 31 32  2  0
 32 33  1  0
 33 34  1  0
 33 35  1  0
 33 36  1  0
 36 37  1  0
 37 38  1  0
 38 39  1  0
 38 40  1  0
 38 41  1  0
 37 42  1  0
 42 43  1  0
 42 44  2  0
 44 45  1  0
 44 46  1  0
 46 47  1  0
 31 48  1  0
 48 49  1  0
 48  2  2  0
 15  5  1  0
 46 36  2  0
 14 10  1  0
 26 12  1  0
M  CHG  2   3  -1  46   1
M  END
>  <UniqueID>  (7) 
7

>  <SMILES>  (7) 
Cn1cc[nH+]c1C/N=c1/cc[n-]c(-c2ccc3oc4c(c3c2)CCCC4)c1

>  <Energy>  (7) 
122.38757532637216

>  <Genealogy>  (7) 
Cn1cc[nH+]c1CN=c1cc[n-]c(-c2ccc3oc4c(c3c2)CCCC4)c1 (protonated)
Cn1cc[nH+]c1C/N=c1/cc[n-]c(-c2ccc3oc4c(c3c2)CCCC4)c1 (cis-trans isomerization)
Cn1cc[nH+]c1C/N=c1/cc[n-]c(-c2ccc3oc4c(c3c2)CCCC4)c1 (3D coordinates assigned)
Cn1cc[nH+]c1C/N=c1/cc[n-]c(-c2ccc3oc4c(c3c2)CCCC4)c1 (nonaromatic ring conformer: 122.38757532637216 kcal/mol)

>  <smiles>  (7) 
Cn1ccnc1CN=c1cc[nH]c(-c2ccc3oc4c(c3c2)CCCC4)c1

>  <score_type>  (7) 
oracle

>  <origin>  (7) 
adg

>  <m_score__min__energy>  (7) 
-9.8699999999999992

>  <m_primary>  (7) 
energy

$$$$
7:0
     RDKit          3D

 45 48  0  0  0  0  0  0  0  0999 V2000
   55.1470   26.7190   45.9890 O   0  0  0  0  0  0  0  0  0  0  0  0
   56.3950   26.7960   46.1450 C   0  0  0  0  0  0  0  0  0  0  0  0
   57.0760   25.7050   46.6730 O   0  0  0  0  0  0  0  0  0  0  0  0
   57.1310   28.0270   45.7780 C   0  0  0  0  0  0  0  0  0  0  0  0
   58.3200   28.3140   46.3300 C   0  0  0  0  0  0  0  0  0  0  0  0
   59.0180   29.5270   45.9890 N   0  0  0  0  0  0  0  0  0  0  0  0
   60.2700   29.8490   46.6850 C   0  0  0  0  0  0  0  0  0  0  0  0
   60.0930   29.7740   48.2090 C   0  0  0  0  0  0  0  0  0  0  0  0
   59.2350   30.9350   48.7550 C   0  0  0  0  0  0  0  0  0  0  0  0
   59.7640   32.2500   48.3600 N   0  0  0  0  0  0  0  0  0  0  0  0
   59.2520   32.9520   47.1990 C   0  0  0  0  0  0  0  0  0  0  0  0
   57.8710   33.0140   46.9280 C   0  0  0  0  0  0  0  0  0  0  0  0
   57.3870   33.8250   45.8950 C   0  0  0  0  0  0  0  0  0  0  0  0
   58.2690   34.5900   45.1310 C   0  0  0  0  0  0  0  0  0  0  0  0
   59.6420   34.5300   45.3810 C   0  0  0  0  0  0  0  0  0  0  0  0
   60.1330   33.7030   46.3960 C   0  0  0  0  0  0  0  0  0  0  0  0
   61.9010   33.4950   46.5870 S   0  0  0  0  0  0  0  0  0  0  0  0
   61.8350   33.5980   48.3740 C   0  0  0  0  0  0  0  0  0  0  0  0
   62.8100   34.3270   49.0630 C   0  0  0  0  0  0  0  0  0  0  0  0
   62.8740   34.2630   50.4570 C   0  0  0  0  0  0  0  0  0  0  0  0
   61.9710   33.4640   51.1620 C   0  0  0  0  0  0  0  0  0  0  0  0
   60.9760   32.7570   50.4800 C   0  0  0  0  0  0  0  0  0  0  0  0
   60.8780   32.8400   49.0770 C   0  0  0  0  0  0  0  0  0  0  0  0
   58.6160   30.3310   44.8260 C   0  0  0  0  0  0  0  0  0  0  0  0
   57.2020   30.0530   44.3940 C   0  0  0  0  0  0  0  0  0  0  0  0
   56.5390   28.9700   44.8060 C   0  0  0  0  0  0  0  0  0  0  0  0
   58.7670   27.6144   47.0517 H   0  0  0  0  0  0  0  0  0  0  0  0
   61.0458   29.1321   46.3781 H   0  0  0  0  0  0  0  0  0  0  0  0
   60.5630   30.8752   46.4183 H   0  0  0  0  0  0  0  0  0  0  0  0
   59.6031   28.8222   48.4622 H   0  0  0  0  0  0  0  0  0  0  0  0
   61.0899   29.8463   48.6683 H   0  0  0  0  0  0  0  0  0  0  0  0
   58.2115   30.8331   48.3650 H   0  0  0  0  0  0  0  0  0  0  0  0
   59.2519   30.8801   49.8535 H   0  0  0  0  0  0  0  0  0  0  0  0
   57.1684   32.4212   47.5322 H   0  0  0  0  0  0  0  0  0  0  0  0
   56.3078   33.8594   45.6848 H   0  0  0  0  0  0  0  0  0  0  0  0
   57.8832   35.2402   44.3320 H   0  0  0  0  0  0  0  0  0  0  0  0
   60.3373   35.1336   44.7791 H   0  0  0  0  0  0  0  0  0  0  0  0
   63.5260   34.9504   48.5074 H   0  0  0  0  0  0  0  0  0  0  0  0
   63.6358   34.8420   50.9996 H   0  0  0  0  0  0  0  0  0  0  0  0
   62.0428   33.3907   52.2572 H   0  0  0  0  0  0  0  0  0  0  0  0
   60.2659   32.1326   51.0419 H   0  0  0  0  0  0  0  0  0  0  0  0
   58.7022   31.3962   45.0868 H   0  0  0  0  0  0  0  0  0  0  0  0
   59.2793   30.0642   43.9900 H   0  0  0  0  0  0  0  0  0  0  0  0
   56.7001   30.7623   43.7195 H   0  0  0  0  0  0  0  0  0  0  0  0
   55.5300   28.7752   44.4135 H   0  0  0  0  0  0  0  0  0  0  0  0
  1  2  2  0
  2  3  1  0
  2  4  1  0
  4  5  2  0
  5  6  1  0
  6  7  1  0
  7  8  1  0
  8  9  1  0
  9 10  1  0
 10 11  1  0
 11 12  2  0
 12 13  1  0
 13 14  2  0
 14 15  1  0
 15 16  2  0
 16 17  1  0
 17 18  1  0
 18 19  2  0
 19 20  1  0
 20 21  2  0
 21 22  1  0
 22 23  2  0
  6 24  1  0
 24 25  1  0
 25 26  2  0
 26  4  1  0
 23 10  1  0
 16 11  1  0
 23 18  1  0
  5 27  1  0
  7 28  1  0
  7 29  1  0
  8 30  1  0
  8 31  1  0
  9 32  1  0
  9 33  1  0
 12 34  1  0
 13 35  1  0
 14 36  1  0
 15 37  1  0
 19 38  1  0
 20 39  1  0
 21 40  1  0
 22 41  1  0
 24 42  1  0
 24 43  1  0
 25 44  1  0
 26 45  1  0
M  CHG  1   3  -1
M  END
>  <UniqueID>  (8) 
8

>  <SMILES>  (8) 
O=C([O-])C1=CN(CCCN2c3ccccc3Sc3ccccc32)CC=C1

>  <Energy>  (8) 
63.74250564217687

>  <Genealogy>  (8) 
O=C([O-])C1=CN(CCCN2c3ccccc3Sc3ccccc32)CC=C1 (protonated)
O=C([O-])C1=CN(CCCN2c3ccccc3Sc3ccccc32)CC=C1 (3D coordinates assigned)
O=C([O-])C1=CN(CCCN2c3ccccc3Sc3ccccc32)CC=C1 (nonaromatic ring conformer: 63.74250564217687 kcal/mol)

>  <smiles>  (8) 
O=C(O)C1=CN(CCCN2c3ccccc3Sc3ccccc32)CC=C1

>  <score_type>  (8) 
oracle

>  <origin>  (8) 
adg

>  <m_score__min__energy>  (8) 
-12.06

>  <m_primary>  (8) 
energy

$$$$
8:0
     RDKit          3D

 35 37  0  0  0  0  0  0  0  0999 V2000
   57.9299   21.2726   43.8253 H   0  0  0  0  0  0  0  0  0  0  0  0
   57.7410   22.0050   44.6240 C   0  0  0  0  0  0  0  0  0  0  0  0
   57.4950   23.6560   44.4160 S   0  0  0  0  0  0  0  0  0  0  0  0
   57.2900   23.9430   46.0660 C   0  0  0  0  0  0  0  0  0  0  0  0
   57.0470   25.0890   46.6330 N   0  0  0  0  0  0  0  0  0  0  0  0
   56.4080   26.2410   46.0540 C   0  0  0  0  0  0  0  0  0  0  0  0
   55.1510   26.3190   46.0010 O   0  0  0  0  0  0  0  0  0  0  0  0
   57.2350   27.3460   45.5150 C   0  0  0  0  0  0  0  0  0  0  0  0
   58.5330   27.1010   45.0320 C   0  0  0  0  0  0  0  0  0  0  0  0
   58.9376   26.0782   45.0472 H   0  0  0  0  0  0  0  0  0  0  0  0
   59.3120   28.1480   44.5330 C   0  0  0  0  0  0  0  0  0  0  0  0
   60.3282   27.9467   44.1631 H   0  0  0  0  0  0  0  0  0  0  0  0
   58.8060   29.4480   44.5020 C   0  0  0  0  0  0  0  0  0  0  0  0
   59.4279   30.2698   44.1173 H   0  0  0  0  0  0  0  0  0  0  0  0
   57.5040   29.7100   44.9610 C   0  0  0  0  0  0  0  0  0  0  0  0
   56.9660   31.0060   44.9610 O   0  0  0  0  0  0  0  0  0  0  0  0
   57.6340   32.1640   45.3840 C   0  0  0  0  0  0  0  0  0  0  0  0
   57.8240   33.2050   44.4670 C   0  0  0  0  0  0  0  0  0  0  0  0
   57.4394   33.1062   43.4412 H   0  0  0  0  0  0  0  0  0  0  0  0
   58.4990   34.3690   44.8460 C   0  0  0  0  0  0  0  0  0  0  0  0
   58.6353   35.1860   44.1222 H   0  0  0  0  0  0  0  0  0  0  0  0
   59.0010   34.4950   46.1450 C   0  0  0  0  0  0  0  0  0  0  0  0
   59.6570   35.6240   46.5120 F   0  0  0  0  0  0  0  0  0  0  0  0
   58.8330   33.4540   47.0630 C   0  0  0  0  0  0  0  0  0  0  0  0
   59.2321   33.5514   48.0834 H   0  0  0  0  0  0  0  0  0  0  0  0
   58.1580   32.2890   46.6850 C   0  0  0  0  0  0  0  0  0  0  0  0
   58.0360   31.4676   47.4064 H   0  0  0  0  0  0  0  0  0  0  0  0
   56.7340   28.6630   45.4800 C   0  0  0  0  0  0  0  0  0  0  0  0
   55.7249   28.8705   45.8656 H   0  0  0  0  0  0  0  0  0  0  0  0
   57.4030   22.8040   46.7820 N   0  0  0  0  0  0  0  0  0  0  0  0
   57.6630   21.7300   45.9880 C   0  0  0  0  0  0  0  0  0  0  0  0
   57.7900   20.3510   46.5440 C   0  0  0  0  0  0  0  0  0  0  0  0
   57.7858   20.3969   47.6430 H   0  0  0  0  0  0  0  0  0  0  0  0
   56.9446   19.7374   46.1994 H   0  0  0  0  0  0  0  0  0  0  0  0
   58.7333   19.9021   46.1994 H   0  0  0  0  0  0  0  0  0  0  0  0
  1  2  1  0
  2  3  1  0
  3  4  1  0
  4  5  2  0
  5  6  1  0
  6  7  2  0
  6  8  1  0
  8  9  2  0
  9 10  1  0
  9 11  1  0
 11 12  1  0
 11 13  2  0
 13 14  1  0
 13 15  1  0
 15 16  1  0
 16 17  1  0
 17 18  2  0
 18 19  1  0
 18 20  1  0
 20 21  1  0
 20 22  2  0
 22 23  1  0
 22 24  1  0
 24 25  1  0
 24 26  2  0
 26 27  1  0
 15 28  2  0
 28 29  1  0
  4 30  1  0
 30 31  1  0
 31 32  1  0
 32 33  1  0
 32 34  1  0
 32 35  1  0
 31  2  2  0
 28  8  1  0
 26 17  1  0
M  CHG  1  30  -1
M  END
>  <UniqueID>  (9) 
9

>  <SMILES>  (9) 
Cc1cs/c(=N\C(=O)c2cccc(Oc3ccc(F)cc3)c2)[n-]1

>  <Energy>  (9) 
77.09208801414665

>  <Genealogy>  (9) 
Cc1csc(=NC(=O)c2cccc(Oc3ccc(F)cc3)c2)[n-]1 (protonated)
Cc1cs/c(=N\C(=O)c2cccc(Oc3ccc(F)cc3)c2)[n-]1 (cis-trans isomerization)
Cc1cs/c(=N\C(=O)c2cccc(Oc3ccc(F)cc3)c2)[n-]1 (3D coordinates assigned)
Cc1cs/c(=N\C(=O)c2cccc(Oc3ccc(F)cc3)c2)[n-]1 (optimized conformer: 77.09208801414665 kcal/mol)

>  <smiles>  (9) 
Cc1csc(=NC(=O)c2cccc(Oc3ccc(F)cc3)c2)[nH]1

>  <score_type>  (9) 
oracle

>  <origin>  (9) 
adg

>  <m_score__min__energy>  (9) 
-9.4199999999999999

>  <m_primary>  (9) 
energy

$$$$
9:0
     RDKit          3D

 23 24  0  0  0  0  0  0  0  0999 V2000
   53.8648   23.3873   45.9154 H   0  0  0  0  0  0  0  0  0  0  0  0
   54.5250   24.2660   45.9600 C   0  0  0  0  0  0  0  0  0  0  0  0
   54.1340   25.5220   45.9200 O   0  0  0  0  0  0  0  0  0  0  0  0
   55.1450   26.3380   45.9920 N   0  0  0  0  0  0  0  0  0  0  0  0
   56.2450   25.5650   46.0760 C   0  0  0  0  0  0  0  0  0  0  0  0
   57.4620   26.0080   46.1970 N   0  0  0  0  0  0  0  0  0  0  0  0
   57.9510   27.2740   45.7300 C   0  0  0  0  0  0  0  0  0  0  0  0
   59.1970   27.4570   45.6810 O   0  0  0  0  0  0  0  0  0  0  0  0
   57.0580   28.2850   45.2370 N   0  0  0  0  0  0  0  0  0  0  0  0
   56.1620   27.9720   44.7990 H   0  0  0  0  0  0  0  0  0  0  0  0
   57.3960   29.6810   45.1610 C   0  0  0  0  0  0  0  0  0  0  0  0
   58.1400   30.2690   46.1970 C   0  0  0  0  0  0  0  0  0  0  0  0
   58.4432   29.6629   47.0635 H   0  0  0  0  0  0  0  0  0  0  0  0
   58.4980   31.6190   46.1350 C   0  0  0  0  0  0  0  0  0  0  0  0
   59.0725   32.0732   46.9558 H   0  0  0  0  0  0  0  0  0  0  0  0
   58.1270   32.3920   45.0320 C   0  0  0  0  0  0  0  0  0  0  0  0
   58.6180   34.2360   44.9480 Br  0  0  0  0  0  0  0  0  0  0  0  0
   57.4030   31.8130   43.9850 C   0  0  0  0  0  0  0  0  0  0  0  0
   57.1169   32.4199   43.1134 H   0  0  0  0  0  0  0  0  0  0  0  0
   57.0420   30.4620   44.0450 C   0  0  0  0  0  0  0  0  0  0  0  0
   56.4789   30.0085   43.2160 H   0  0  0  0  0  0  0  0  0  0  0  0
   55.8990   24.2340   46.0670 C   0  0  0  0  0  0  0  0  0  0  0  0
   56.5590   23.3562   46.1300 H   0  0  0  0  0  0  0  0  0  0  0  0
  1  2  1  0
  2  3  1  0
  3  4  1  0
  4  5  1  0
  5  6  2  0
  6  7  1  0
  7  8  2  0
  7  9  1  0
  9 10  1  0
  9 11  1  0
 11 12  2  0
 12 13  1  0
 12 14  1  0
 14 15  1  0
 14 16  2  0
 16 17  1  0
 16 18  1  0
 18 19  1  0
 18 20  2  0
 20 21  1  0
  5 22  1  0
 22 23  1  0
 22  2  2  0
 20 11  1  0
M  CHG  1   4  -1
M  END
>  <UniqueID>  (10) 
10

>  <SMILES>  (10) 
O=C(/N=c1/cco[n-]1)Nc1ccc(Br)cc1

>  <Energy>  (10) 
61.12107804291167

>  <Genealogy>  (10) 
O=C(N=c1cco[n-]1)Nc1ccc(Br)cc1 (protonated)
O=C(/N=c1/cco[n-]1)Nc1ccc(Br)cc1 (cis-trans isomerization)
O=C(/N=c1/cco[n-]1)Nc1ccc(Br)cc1 (3D coordinates assigned)
O=C(/N=c1/cco[n-]1)Nc1ccc(Br)cc1 (optimized conformer: 61.12107804291167 kcal/mol)

>  <smiles>  (10) 
O=C(N=c1cco[nH]1)Nc1ccc(Br)cc1

>  <score_type>  (10) 
oracle

>  <origin>  (10) 
adg

>  <m_score__min__energy>  (10) 
-8.6300000000000008

>  <m_primary>  (10) 
energy

$$$$
10:0
     RDKit          3D

 44 46  0  0  0  0  0  0  0  0999 V2000
   58.8990   34.3520   53.0580 C   0  0  0  0  0  0  0  0  0  0  0  0
   58.5260   34.0330   51.7210 O   0  0  0  0  0  0  0  0  0  0  0  0
   58.4950   32.7330   51.1840 C   0  0  0  0  0  0  0  0  0  0  0  0
   57.8010   31.6950   51.8290 C   0  0  0  0  0  0  0  0  0  0  0  0
   57.8050   30.4070   51.3030 C   0  0  0  0  0  0  0  0  0  0  0  0
   57.1110   29.3920   51.9510 O   0  0  0  0  0  0  0  0  0  0  0  0
   58.5090   30.1310   50.1340 C   0  0  0  0  0  0  0  0  0  0  0  0
   59.2160   31.1460   49.4650 C   0  0  0  0  0  0  0  0  0  0  0  0
   59.9660   30.8630   48.3120 O   0  0  0  0  0  0  0  0  0  0  0  0
   60.3500   29.5600   47.8850 C   0  0  0  0  0  0  0  0  0  0  0  0
   59.1850   32.4740   49.9720 C   0  0  0  0  0  0  0  0  0  0  0  0
   59.9340   33.6250   49.2890 C   0  0  2  0  0  0  0  0  0  0  0  0
   59.4540   33.9120   47.8700 C   0  0  0  0  0  0  0  0  0  0  0  0
   60.0730   34.9490   47.1460 C   0  0  0  0  0  0  0  0  0  0  0  0
   59.6500   35.2670   45.8530 C   0  0  0  0  0  0  0  0  0  0  0  0
   58.6030   34.5550   45.2640 C   0  0  0  0  0  0  0  0  0  0  0  0
   57.9780   33.5240   45.9680 C   0  0  0  0  0  0  0  0  0  0  0  0
   58.3960   33.2020   47.2620 C   0  0  0  0  0  0  0  0  0  0  0  0
   61.4440   33.4770   49.4160 C   0  0  0  0  0  0  0  0  0  0  0  0
   62.1720   32.8930   48.3610 C   0  0  0  0  0  0  0  0  0  0  0  0
   63.5560   32.7180   48.4640 C   0  0  0  0  0  0  0  0  0  0  0  0
   64.2280   33.1120   49.6230 C   0  0  0  0  0  0  0  0  0  0  0  0
   65.9990   32.8860   49.7520 S   0  0  0  0  0  0  0  0  0  0  0  0
   63.5160   33.6790   50.6840 C   0  0  0  0  0  0  0  0  0  0  0  0
   62.1330   33.8560   50.5860 C   0  0  0  0  0  0  0  0  0  0  0  0
   58.2551   33.8014   53.7596 H   0  0  0  0  0  0  0  0  0  0  0  0
   59.9487   34.0679   53.2235 H   0  0  0  0  0  0  0  0  0  0  0  0
   58.7812   35.4331   53.2235 H   0  0  0  0  0  0  0  0  0  0  0  0
   57.2497   31.9027   52.7580 H   0  0  0  0  0  0  0  0  0  0  0  0
   58.5122   29.1081   49.7294 H   0  0  0  0  0  0  0  0  0  0  0  0
   60.5368   28.9262   48.7644 H   0  0  0  0  0  0  0  0  0  0  0  0
   59.5434   29.1197   47.2804 H   0  0  0  0  0  0  0  0  0  0  0  0
   61.2664   29.6275   47.2804 H   0  0  0  0  0  0  0  0  0  0  0  0
   59.6729   34.5376   49.8448 H   0  0  0  0  0  0  0  0  0  0  0  0
   60.8982   35.5146   47.6032 H   0  0  0  0  0  0  0  0  0  0  0  0
   60.1423   36.0793   45.2982 H   0  0  0  0  0  0  0  0  0  0  0  0
   58.2709   34.8063   44.2459 H   0  0  0  0  0  0  0  0  0  0  0  0
   57.1539   32.9634   45.5026 H   0  0  0  0  0  0  0  0  0  0  0  0
   57.8971   32.3896   47.8107 H   0  0  0  0  0  0  0  0  0  0  0  0
   61.6479   32.5719   47.4487 H   0  0  0  0  0  0  0  0  0  0  0  0
   64.1161   32.2692   47.6304 H   0  0  0  0  0  0  0  0  0  0  0  0
   66.1790   33.0770   48.3690 H   0  0  0  0  0  0  0  0  0  0  0  0
   64.0453   33.9865   51.5979 H   0  0  0  0  0  0  0  0  0  0  0  0
   61.5779   34.2944   51.4284 H   0  0  0  0  0  0  0  0  0  0  0  0
  1  2  1  0
  2  3  1  0
  3  4  2  0
  4  5  1  0
  5  6  1  0
  5  7  2  0
  7  8  1  0
  8  9  1  0
  9 10  1  0
  8 11  2  0
 11 12  1  0
 12 13  1  0
 13 14  2  0
 14 15  1  0
 15 16  2  0
 16 17  1  0
 17 18  2  0
 12 19  1  0
 19 20  2  0
 20 21  1  0
 21 22  2  0
 22 23  1  0
 22 24  1  0
 24 25  2  0
 11  3  1  0
 18 13  1  0
 25 19  1  0
  1 26  1  0
  1 27  1  0
  1 28  1  0
  4 29  1  0
  7 30  1  0
 10 31  1  0
 10 32  1  0
 10 33  1  0
 12 34  1  1
 14 35  1  0
 15 36  1  0
 16 37  1  0
 17 38  1  0
 18 39  1  0
 20 40  1  0
 21 41  1  0
 23 42  1  0
 24 43  1  0
 25 44  1  0
M  CHG  1   6  -1
M  END
>  <UniqueID>  (11) 
11

>  <SMILES>  (11) 
COc1cc([O-])cc(OC)c1[C@H](c1ccccc1)c1ccc(S)cc1

>  <Energy>  (11) 
51.909752626594056

>  <Genealogy>  (11) 
COc1cc([O-])cc(OC)c1C(c1ccccc1)c1ccc(S)cc1 (protonated)
COc1cc([O-])cc(OC)c1[C@H](c1ccccc1)c1ccc(S)cc1 (chirality)
COc1cc([O-])cc(OC)c1[C@H](c1ccccc1)c1ccc(S)cc1 (3D coordinates assigned)
COc1cc([O-])cc(OC)c1[C@H](c1ccccc1)c1ccc(S)cc1 (optimized conformer: 51.909752626594056 kcal/mol)

>  <smiles>  (11) 
COc1cc(O)cc(OC)c1C(c1ccccc1)c1ccc(S)cc1

>  <score_type>  (11) 
oracle

>  <origin>  (11) 
adg

>  <m_score__min__energy>  (11) 
-8.2300000000000004

>  <m_primary>  (11) 
energy

$$$$
11:0
     RDKit          3D

 65 69  0  0  0  0  0  0  0  0999 V2000
   55.2860   30.7030   52.2370 C   0  0  0  0  0  0  0  0  0  0  0  0
   56.5210   30.0670   51.9280 O   0  0  0  0  0  0  0  0  0  0  0  0
   57.5530   30.7150   51.2450 C   0  0  0  0  0  0  0  0  0  0  0  0
   57.9820   31.9730   51.6820 C   0  0  0  0  0  0  0  0  0  0  0  0
   59.0200   32.6190   51.0080 C   0  0  0  0  0  0  0  0  0  0  0  0
   59.6280   32.0020   49.9060 C   0  0  0  0  0  0  0  0  0  0  0  0
   60.6550   32.6060   49.2420 N   0  0  0  0  0  0  0  0  0  0  0  0
   61.2540   32.0200   48.1630 C   0  0  0  0  0  0  0  0  0  0  0  0
   62.4170   32.7110   47.4980 C   0  0  0  0  0  0  0  0  0  0  0  0
   62.9500   33.6410   48.3720 F   0  0  0  0  0  0  0  0  0  0  0  0
   63.4080   31.8130   47.1400 F   0  0  0  0  0  0  0  0  0  0  0  0
   61.9830   33.3630   46.3580 F   0  0  0  0  0  0  0  0  0  0  0  0
   60.8270   30.7500   47.7380 C   0  0  0  0  0  0  0  0  0  0  0  0
   59.7740   30.0980   48.4080 C   0  0  0  0  0  0  0  0  0  0  0  0
   59.3130   28.8280   48.0220 O   0  0  0  0  0  0  0  0  0  0  0  0
   59.8300   27.6070   48.5390 C   0  0  0  0  0  0  0  0  0  0  0  0
   59.1340   26.4180   47.8750 C   0  0  0  0  0  0  0  0  0  0  0  0
   59.4770   26.2700   46.4440 N   0  0  0  0  0  0  0  0  0  0  0  0
   60.5320   27.1730   45.9280 C   0  0  0  0  0  0  0  0  0  0  0  0
   60.0010   28.4150   45.1710 C   0  0  0  0  0  0  0  0  0  0  0  0
   58.6170   28.2280   44.4910 C   0  0  0  0  0  0  0  0  0  0  0  0
   57.5570   28.8020   45.3450 N   0  0  0  0  0  0  0  0  0  0  0  0
   56.6630   29.7350   44.6450 C   0  0  0  0  0  0  0  0  0  0  0  0
   57.2370   31.1180   44.7500 C   0  0  0  0  0  0  0  0  0  0  0  0
   57.4530   31.9060   43.6080 C   0  0  0  0  0  0  0  0  0  0  0  0
   58.0440   33.1660   43.7470 C   0  0  0  0  0  0  0  0  0  0  0  0
   58.4320   33.6140   45.0110 C   0  0  0  0  0  0  0  0  0  0  0  0
   58.1920   32.8050   46.1270 C   0  0  0  0  0  0  0  0  0  0  0  0
   57.6020   31.5910   45.9750 N   0  0  0  0  0  0  0  0  0  0  0  0
   58.5610   33.2670   47.4240 N   0  0  0  0  0  0  0  0  0  0  0  0
   59.2590   34.5040   47.5710 C   0  0  0  0  0  0  0  0  0  0  0  0
   59.5190   34.9390   48.7230 O   0  0  0  0  0  0  0  0  0  0  0  0
   59.7470   35.2460   46.3550 C   0  0  0  0  0  0  0  0  0  0  0  0
   59.0370   34.8660   45.1700 O   0  0  0  0  0  0  0  0  0  0  0  0
   58.3930   26.7310   44.2220 C   0  0  0  0  0  0  0  0  0  0  0  0
   58.3480   25.9480   45.5410 C   0  0  0  0  0  0  0  0  0  0  0  0
   59.1700   30.7330   49.4960 C   0  0  0  0  0  0  0  0  0  0  0  0
   58.1520   30.1310   50.1700 N   0  0  0  0  0  0  0  0  0  0  0  0
   55.1680   30.7638   53.3290 H   0  0  0  0  0  0  0  0  0  0  0  0
   55.2789   31.7169   51.8104 H   0  0  0  0  0  0  0  0  0  0  0  0
   54.4565   30.1199   51.8104 H   0  0  0  0  0  0  0  0  0  0  0  0
   57.5046   32.4498   52.5508 H   0  0  0  0  0  0  0  0  0  0  0  0
   59.3602   33.6106   51.3412 H   0  0  0  0  0  0  0  0  0  0  0  0
   60.9970   33.5400   49.5690 H   0  0  0  0  0  0  0  0  0  0  0  0
   61.3162   30.2647   46.8806 H   0  0  0  0  0  0  0  0  0  0  0  0
   60.9101   27.5551   48.3375 H   0  0  0  0  0  0  0  0  0  0  0  0
   59.6491   27.5702   49.6234 H   0  0  0  0  0  0  0  0  0  0  0  0
   59.4303   25.4995   48.4028 H   0  0  0  0  0  0  0  0  0  0  0  0
   58.0503   26.5966   47.9357 H   0  0  0  0  0  0  0  0  0  0  0  0
   61.1331   27.5215   46.7808 H   0  0  0  0  0  0  0  0  0  0  0  0
   61.1150   26.5891   45.2006 H   0  0  0  0  0  0  0  0  0  0  0  0
   59.9186   29.2433   45.8901 H   0  0  0  0  0  0  0  0  0  0  0  0
   60.7179   28.6100   44.3598 H   0  0  0  0  0  0  0  0  0  0  0  0
   58.5852   28.7599   43.5287 H   0  0  0  0  0  0  0  0  0  0  0  0
   58.0090   29.3580   46.1110 H   0  0  0  0  0  0  0  0  0  0  0  0
   56.5818   29.4468   43.5865 H   0  0  0  0  0  0  0  0  0  0  0  0
   55.6616   29.7082   45.0993 H   0  0  0  0  0  0  0  0  0  0  0  0
   57.1604   31.5361   42.6142 H   0  0  0  0  0  0  0  0  0  0  0  0
   58.2025   33.8018   42.8634 H   0  0  0  0  0  0  0  0  0  0  0  0
   59.6104   36.3250   46.5195 H   0  0  0  0  0  0  0  0  0  0  0  0
   60.8080   34.9954   46.2088 H   0  0  0  0  0  0  0  0  0  0  0  0
   57.4398   26.5977   43.6894 H   0  0  0  0  0  0  0  0  0  0  0  0
   59.2254   26.3511   43.6114 H   0  0  0  0  0  0  0  0  0  0  0  0
   57.4067   26.1861   46.0580 H   0  0  0  0  0  0  0  0  0  0  0  0
   58.4206   24.8791   45.2917 H   0  0  0  0  0  0  0  0  0  0  0  0
  1  2  1  0
  2  3  1  0
  3  4  2  0
  4  5  1  0
  5  6  2  0
  6  7  1  0
  7  8  2  0
  8  9  1  0
  9 10  1  0
  9 11  1  0
  9 12  1  0
  8 13  1  0
 13 14  2  0
 14 15  1  0
 15 16  1  0
 16 17  1  0
 17 18  1  0
 18 19  1  0
 19 20  1  0
 20 21  1  0
 21 22  1  0
 22 23  1  0
 23 24  1  0
 24 25  2  0
 25 26  1  0
 26 27  2  0
 27 28  1  0
 28 29  2  0
 28 30  1  0
 30 31  1  0
 31 32  2  0
 31 33  1  0
 33 34  1  0
 21 35  1  0
 35 36  1  0
 14 37  1  0
 37 38  2  0
 38  3  1  0
 37  6  1  0
 36 18  1  0
 29 24  1  0
 34 27  1  0
  1 39  1  0
  1 40  1  0
  1 41  1  0
  4 42  1  0
  5 43  1  0
  7 44  1  0
 13 45  1  0
 16 46  1  0
 16 47  1  0
 17 48  1  0
 17 49  1  0
 19 50  1  0
 19 51  1  0
 20 52  1  0
 20 53  1  0
 21 54  1  0
 22 55  1  0
 23 56  1  0
 23 57  1  0
 25 58  1  0
 26 59  1  0
 33 60  1  0
 33 61  1  0
 35 62  1  0
 35 63  1  0
 36 64  1  0
 36 65  1  0
M  CHG  2   7   1  30  -1
M  END
>  <UniqueID>  (12) 
12

>  <SMILES>  (12) 
COc1ccc2[nH+]c(C(F)(F)F)cc(OCCN3CCC(NCc4ccc5c(n4)[N-]C(=O)CO5)CC3)c2n1

>  <Energy>  (12) 
79.92918965270808

>  <Genealogy>  (12) 
COc1ccc2[nH+]c(C(F)(F)F)cc(OCCN3CCC(NCc4ccc5c(n4)[N-]C(=O)CO5)CC3)c2n1 (protonated)
COc1ccc2[nH+]c(C(F)(F)F)cc(OCCN3CCC(NCc4ccc5c(n4)[N-]C(=O)CO5)CC3)c2n1 (3D coordinates assigned)
COc1ccc2[nH+]c(C(F)(F)F)cc(OCCN3CCC(NCc4ccc5c(n4)[N-]C(=O)CO5)CC3)c2n1 (nonaromatic ring conformer: 79.92918965270808 kcal/mol)

>  <smiles>  (12) 
COc1ccc2nc(C(F)(F)F)cc(OCCN3CCC(NCc4ccc5c(n4)NC(=O)CO5)CC3)c2n1

>  <score_type>  (12) 
oracle

>  <origin>  (12) 
adg

>  <m_score__min__energy>  (12) 
-8.9499999999999993

>  <m_primary>  (12) 
energy

$$$$
12:0
     RDKit          3D

 42 44  0  0  0  0  0  0  0  0999 V2000
   57.0210   31.5940   41.9890 C   0  0  0  0  0  0  0  0  0  0  0  0
   57.6820   30.8580   43.0590 N   0  0  0  0  0  0  0  0  0  0  0  0
   56.9670   30.4260   44.2280 C   0  0  0  0  0  0  0  0  0  0  0  0
   55.7800   30.8150   44.4090 O   0  0  0  0  0  0  0  0  0  0  0  0
   57.6050   29.5450   45.2350 C   0  0  0  0  0  0  0  0  0  0  0  0
   57.1270   28.2380   45.4320 C   0  0  0  0  0  0  0  0  0  0  0  0
   57.7300   27.3970   46.3730 C   0  0  0  0  0  0  0  0  0  0  0  0
   58.8110   27.8510   47.1310 C   0  0  0  0  0  0  0  0  0  0  0  0
   59.2950   29.1580   46.9540 C   0  0  0  0  0  0  0  0  0  0  0  0
   60.4160   29.6670   47.6900 N   0  0  0  0  0  0  0  0  0  0  0  0
   60.5060   30.9050   48.4070 C   0  0  0  0  0  0  0  0  0  0  0  0
   59.7350   31.1410   49.3760 O   0  0  0  0  0  0  0  0  0  0  0  0
   61.4980   31.9290   47.9940 C   0  0  0  0  0  0  0  0  0  0  0  0
   62.8170   31.8170   48.4700 C   0  0  0  0  0  0  0  0  0  0  0  0
   63.8050   32.7130   48.0540 C   0  0  0  0  0  0  0  0  0  0  0  0
   63.4910   33.7330   47.1570 C   0  0  0  0  0  0  0  0  0  0  0  0
   62.1860   33.8740   46.6870 C   0  0  0  0  0  0  0  0  0  0  0  0
   61.1740   32.9920   47.1040 C   0  0  0  0  0  0  0  0  0  0  0  0
   59.7900   33.2440   46.6400 C   0  0  0  0  0  0  0  0  0  0  0  0
   59.5400   33.5380   45.2900 C   0  0  0  0  0  0  0  0  0  0  0  0
   58.2300   33.7460   44.8460 C   0  0  0  0  0  0  0  0  0  0  0  0
   57.1650   33.6700   45.7470 C   0  0  0  0  0  0  0  0  0  0  0  0
   57.4080   33.3940   47.0960 C   0  0  0  0  0  0  0  0  0  0  0  0
   58.7160   33.1890   47.5440 C   0  0  0  0  0  0  0  0  0  0  0  0
   58.7070   29.9860   45.9900 C   0  0  0  0  0  0  0  0  0  0  0  0
   56.3459   32.3457   42.4238 H   0  0  0  0  0  0  0  0  0  0  0  0
   57.7773   32.0960   41.3677 H   0  0  0  0  0  0  0  0  0  0  0  0
   56.4409   30.8958   41.3677 H   0  0  0  0  0  0  0  0  0  0  0  0
   58.7100   30.6910   42.9780 H   0  0  0  0  0  0  0  0  0  0  0  0
   56.2729   27.8740   44.8421 H   0  0  0  0  0  0  0  0  0  0  0  0
   57.3512   26.3743   46.5163 H   0  0  0  0  0  0  0  0  0  0  0  0
   59.2842   27.1848   47.8674 H   0  0  0  0  0  0  0  0  0  0  0  0
   63.0734   31.0149   49.1777 H   0  0  0  0  0  0  0  0  0  0  0  0
   64.8322   32.6135   48.4348 H   0  0  0  0  0  0  0  0  0  0  0  0
   64.2742   34.4277   46.8195 H   0  0  0  0  0  0  0  0  0  0  0  0
   61.9458   34.6839   45.9825 H   0  0  0  0  0  0  0  0  0  0  0  0
   60.3769   33.6050   44.5793 H   0  0  0  0  0  0  0  0  0  0  0  0
   58.0381   33.9697   43.7862 H   0  0  0  0  0  0  0  0  0  0  0  0
   56.1348   33.8274   45.3950 H   0  0  0  0  0  0  0  0  0  0  0  0
   56.5691   33.3382   47.8053 H   0  0  0  0  0  0  0  0  0  0  0  0
   58.9051   32.9839   48.6080 H   0  0  0  0  0  0  0  0  0  0  0  0
   59.1121   30.9946   45.8208 H   0  0  0  0  0  0  0  0  0  0  0  0
  1  2  1  0
  2  3  1  0
  3  4  2  0
  3  5  1  0
  5  6  2  0
  6  7  1  0
  7  8  2  0
  8  9  1  0
  9 10  1  0
 10 11  1  0
 11 12  2  0
 11 13  1  0
 13 14  2  0
 14 15  1  0
 15 16  2  0
 16 17  1  0
 17 18  2  0
 18 19  1  0
 19 20  2  0
 20 21  1  0
 21 22  2  0
 22 23  1  0
 23 24  2  0
  9 25  2  0
 25  5  1  0
 18 13  1  0
 24 19  1  0
  1 26  1  0
  1 27  1  0
  1 28  1  0
  2 29  1  0
  6 30  1  0
  7 31  1  0
  8 32  1  0
 14 33  1  0
 15 34  1  0
 16 35  1  0
 17 36  1  0
 20 37  1  0
 21 38  1  0
 22 39  1  0
 23 40  1  0
 24 41  1  0
 25 42  1  0
M  CHG  1  10  -1
M  END
>  <UniqueID>  (13) 
13

>  <SMILES>  (13) 
CNC(=O)c1cccc([N-]C(=O)c2ccccc2-c2ccccc2)c1

>  <Energy>  (13) 
57.43812361753704

>  <Genealogy>  (13) 
CNC(=O)c1cccc([N-]C(=O)c2ccccc2-c2ccccc2)c1 (protonated)
CNC(=O)c1cccc([N-]C(=O)c2ccccc2-c2ccccc2)c1 (3D coordinates assigned)
CNC(=O)c1cccc([N-]C(=O)c2ccccc2-c2ccccc2)c1 (optimized conformer: 57.43812361753704 kcal/mol)

>  <smiles>  (13) 
CNC(=O)c1cccc(NC(=O)c2ccccc2-c2ccccc2)c1

>  <score_type>  (13) 
oracle

>  <origin>  (13) 
adg

>  <m_score__min__energy>  (13) 
-10.119999999999999

>  <m_primary>  (13) 
energy

$$$$
13:0
     RDKit          3D

 56 59  0  0  1  0  0  0  0  0999 V2000
   56.6230   30.4790   44.0730 C   0  0  0  0  0  0  0  0  0  0  0  0
   57.9490   31.2320   44.0570 C   0  0  0  0  0  0  0  0  0  0  0  0
   58.4490   31.4670   45.3810 N   0  0  0  0  0  0  0  0  0  0  0  0
   58.5780   30.3400   46.2720 C   0  0  0  0  0  0  0  0  0  0  0  0
   59.9450   29.6910   46.0280 C   0  0  0  0  0  0  0  0  0  0  0  0
   60.9850   30.0810   46.8320 N   0  0  0  0  0  0  0  0  0  0  0  0
   60.9920   30.8260   47.8460 C   0  0  0  0  0  0  0  0  0  0  0  0
   59.9330   30.7580   48.7120 N   0  0  0  0  0  0  0  0  0  0  0  0
   59.9200   31.5840   49.7770 C   0  0  0  0  0  0  0  0  0  0  0  0
   58.8230   31.5930   50.7560 C   0  0  0  0  0  0  0  0  0  0  0  0
   58.4640   32.7550   51.4350 C   0  0  0  0  0  0  0  0  0  0  0  0
   57.4380   32.7870   52.3520 C   0  0  0  0  0  0  0  0  0  0  0  0
   56.7150   31.6590   52.6390 C   0  0  0  0  0  0  0  0  0  0  0  0
   57.0440   30.4830   51.9800 C   0  0  0  0  0  0  0  0  0  0  0  0
   58.0840   30.4690   51.0580 C   0  0  0  0  0  0  0  0  0  0  0  0
   60.9200   32.4730   50.0100 N   0  0  0  0  0  0  0  0  0  0  0  0
   61.9380   32.5230   49.1600 C   0  0  0  0  0  0  0  0  0  0  0  0
   62.0330   31.6960   48.0240 C   0  0  0  0  0  0  0  0  0  0  0  0
   63.1900   31.7620   47.1530 C   0  0  0  0  0  0  0  0  0  0  0  0
   63.3910   33.2130   46.7690 C   0  0  0  0  0  0  0  0  0  0  0  0
   63.3790   34.1450   47.9600 C   0  0  0  0  0  0  0  0  0  0  0  0
   63.0940   33.4800   49.2910 C   0  0  0  0  0  0  0  0  0  0  0  0
   58.8170   32.7820   45.8530 C   0  0  0  0  0  0  0  0  0  0  0  0
   59.2630   33.7680   44.9950 C   0  0  0  0  0  0  0  0  0  0  0  0
   59.6350   35.0360   45.4530 C   0  0  0  0  0  0  0  0  0  0  0  0
   59.5720   35.3550   46.7890 C   0  0  0  0  0  0  0  0  0  0  0  0
   59.1330   34.3900   47.6500 C   0  0  0  0  0  0  0  0  0  0  0  0
   58.7590   33.1180   47.1920 C   0  0  0  0  0  0  0  0  0  0  0  0
   56.3136   30.3033   45.1139 H   0  0  0  0  0  0  0  0  0  0  0  0
   55.8559   31.0763   43.5583 H   0  0  0  0  0  0  0  0  0  0  0  0
   56.7430   29.5143   43.5583 H   0  0  0  0  0  0  0  0  0  0  0  0
   58.6878   30.6386   43.4984 H   0  0  0  0  0  0  0  0  0  0  0  0
   57.7799   32.2083   43.5792 H   0  0  0  0  0  0  0  0  0  0  0  0
   58.5083   30.6805   47.3157 H   0  0  0  0  0  0  0  0  0  0  0  0
   57.7735   29.6135   46.0849 H   0  0  0  0  0  0  0  0  0  0  0  0
   59.8210   28.6052   46.1536 H   0  0  0  0  0  0  0  0  0  0  0  0
   60.2339   30.0188   45.0185 H   0  0  0  0  0  0  0  0  0  0  0  0
   59.1610   30.0820   48.5510 H   0  0  0  0  0  0  0  0  0  0  0  0
   59.0210   33.6813   51.2308 H   0  0  0  0  0  0  0  0  0  0  0  0
   57.1951   33.7312   52.8615 H   0  0  0  0  0  0  0  0  0  0  0  0
   55.8955   31.6850   53.3723 H   0  0  0  0  0  0  0  0  0  0  0  0
   56.4812   29.5609   52.1875 H   0  0  0  0  0  0  0  0  0  0  0  0
   58.3269   29.5243   50.5495 H   0  0  0  0  0  0  0  0  0  0  0  0
   64.0791   31.3870   47.6811 H   0  0  0  0  0  0  0  0  0  0  0  0
   63.0352   31.1429   46.2571 H   0  0  0  0  0  0  0  0  0  0  0  0
   64.3602   33.3096   46.2577 H   0  0  0  0  0  0  0  0  0  0  0  0
   62.5531   33.5006   46.1169 H   0  0  0  0  0  0  0  0  0  0  0  0
   64.3648   34.6288   48.0245 H   0  0  0  0  0  0  0  0  0  0  0  0
   62.5551   34.8532   47.7877 H   0  0  0  0  0  0  0  0  0  0  0  0
   63.9869   32.9278   49.6194 H   0  0  0  0  0  0  0  0  0  0  0  0
   62.8366   34.2533   50.0297 H   0  0  0  0  0  0  0  0  0  0  0  0
   59.3276   33.5494   43.9189 H   0  0  0  0  0  0  0  0  0  0  0  0
   59.9837   35.7905   44.7326 H   0  0  0  0  0  0  0  0  0  0  0  0
   59.8646   36.3515   47.1513 H   0  0  0  0  0  0  0  0  0  0  0  0
   59.0714   34.6149   48.7250 H   0  0  0  0  0  0  0  0  0  0  0  0
   58.4104   32.3685   47.9177 H   0  0  0  0  0  0  0  0  0  0  0  0
  1  2  1  0
  2  3  1  0
  3  4  1  0
  4  5  1  0
  5  6  1  0
  6  7  2  0
  7  8  1  0
  8  9  1  0
  9 10  1  0
 10 11  2  0
 11 12  1  0
 12 13  2  0
 13 14  1  0
 14 15  2  0
  9 16  2  0
 16 17  1  0
 17 18  2  0
 18 19  1  0
 19 20  1  0
 20 21  1  0
 21 22  1  0
  3 23  1  0
 23 24  2  0
 24 25  1  0
 25 26  2  0
 26 27  1  0
 27 28  2  0
 18  7  1  0
 28 23  1  0
 15 10  1  0
 22 17  1  0
  1 29  1  0
  1 30  1  0
  1 31  1  0
  2 32  1  0
  2 33  1  0
  4 34  1  0
  4 35  1  0
  5 36  1  0
  5 37  1  0
  8 38  1  0
 11 39  1  0
 12 40  1  0
 13 41  1  0
 14 42  1  0
 15 43  1  0
 19 44  1  0
 19 45  1  0
 20 46  1  0
 20 47  1  0
 21 48  1  0
 21 49  1  0
 22 50  1  0
 22 51  1  0
 24 52  1  0
 25 53  1  0
 26 54  1  0
 27 55  1  0
 28 56  1  0
M  END
>  <smiles>  (14) 
CCN(CCN=c1[nH]c(-c2ccccc2)nc2c1CCCC2)c1ccccc1

>  <score_type>  (14) 
oracle

>  <origin>  (14) 
adg

>  <m_score__min__energy>  (14) 
-8.8399999999999999

>  <m_primary>  (14) 
energy

$$$$
14:0
     RDKit          3D

 24 25  0  0  0  0  0  0  0  0999 V2000
   55.5010   26.4750   45.9990 O   0  0  0  0  0  0  0  0  0  0  0  0
   56.6700   26.7830   45.6440 C   0  0  0  0  0  0  0  0  0  0  0  0
   57.1190   28.1870   45.6330 C   0  0  0  0  0  0  0  0  0  0  0  0
   58.1010   28.6080   46.5420 C   0  0  0  0  0  0  0  0  0  0  0  0
   58.5390   29.9350   46.5450 C   0  0  0  0  0  0  0  0  0  0  0  0
   58.0030   30.8680   45.6400 C   0  0  0  0  0  0  0  0  0  0  0  0
   58.4690   32.2790   45.6430 C   0  0  0  0  0  0  0  0  0  0  0  0
   59.5800   32.6640   46.4180 C   0  0  0  0  0  0  0  0  0  0  0  0
   60.0150   33.9920   46.4190 C   0  0  0  0  0  0  0  0  0  0  0  0
   59.3500   34.9490   45.6500 C   0  0  0  0  0  0  0  0  0  0  0  0
   58.2470   34.5800   44.8760 C   0  0  0  0  0  0  0  0  0  0  0  0
   57.8070   33.2530   44.8710 C   0  0  0  0  0  0  0  0  0  0  0  0
   57.0190   30.4420   44.7300 C   0  0  0  0  0  0  0  0  0  0  0  0
   56.5810   29.1140   44.7270 C   0  0  0  0  0  0  0  0  0  0  0  0
   57.3679   25.9902   45.3368 H   0  0  0  0  0  0  0  0  0  0  0  0
   58.5287   27.8894   47.2566 H   0  0  0  0  0  0  0  0  0  0  0  0
   59.3103   30.2526   47.2621 H   0  0  0  0  0  0  0  0  0  0  0  0
   60.1085   31.9150   47.0261 H   0  0  0  0  0  0  0  0  0  0  0  0
   60.8837   34.2842   47.0273 H   0  0  0  0  0  0  0  0  0  0  0  0
   59.6946   35.9936   45.6536 H   0  0  0  0  0  0  0  0  0  0  0  0
   57.7241   35.3344   44.2698 H   0  0  0  0  0  0  0  0  0  0  0  0
   56.9379   32.9679   44.2600 H   0  0  0  0  0  0  0  0  0  0  0  0
   56.5904   31.1594   44.0147 H   0  0  0  0  0  0  0  0  0  0  0  0
   55.8103   28.7941   44.0103 H   0  0  0  0  0  0  0  0  0  0  0  0
  1  2  2  0
  2  3  1  0
  3  4  2  0
  4  5  1  0
  5  6  2  0
  6  7  1  0
  7  8  2  0
  8  9  1  0
  9 10  2  0
 10 11  1  0
 11 12  2  0
  6 13  1  0
 13 14  2  0
 14  3  1  0
 12  7  1  0
  2 15  1  0
  4 16  1  0
  5 17  1  0
  8 18  1  0
  9 19  1  0
 10 20  1  0
 11 21  1  0
 12 22  1  0
 13 23  1  0
 14 24  1  0
M  END
>  <UniqueID>  (15) 
14

>  <SMILES>  (15) 
O=Cc1ccc(-c2ccccc2)cc1

>  <Energy>  (15) 
30.010021503350867

>  <Genealogy>  (15) 
O=Cc1ccc(-c2ccccc2)cc1 (3D coordinates assigned)
O=Cc1ccc(-c2ccccc2)cc1 (optimized conformer: 30.010021503350867 kcal/mol)

>  <smiles>  (15) 
O=Cc1ccc(-c2ccccc2)cc1

>  <score_type>  (15) 
oracle

>  <origin>  (15) 
adg

>  <m_score__min__energy>  (15) 
-6.1100000000000003

>  <m_primary>  (15) 
energy

$$$$
15:0
     RDKit          3D

 62 67  0  0  0  0  0  0  0  0999 V2000
   60.0395   28.1540   46.5209 H   0  0  0  0  0  0  0  0  0  0  0  0
   59.9600   28.4910   47.5650 C   0  0  0  0  0  0  0  0  0  0  0  0
   60.7690   27.9580   48.5160 N   0  0  0  0  0  0  0  0  0  0  0  0
   60.7060   28.3730   49.8120 C   0  0  0  0  0  0  0  0  0  0  0  0
   61.4860   27.7060   50.8270 N   0  0  0  0  0  0  0  0  0  0  0  0
   61.1430   26.3350   51.2360 C   0  0  0  0  0  0  0  0  0  0  0  0
   60.6538   25.8229   50.3943 H   0  0  0  0  0  0  0  0  0  0  0  0
   60.4702   26.3923   52.1044 H   0  0  0  0  0  0  0  0  0  0  0  0
   62.3920   25.5400   51.6460 C   0  0  0  0  0  0  0  0  0  0  0  0
   62.8748   25.1613   50.7330 H   0  0  0  0  0  0  0  0  0  0  0  0
   62.0491   24.7350   52.3126 H   0  0  0  0  0  0  0  0  0  0  0  0
   63.4320   26.3590   52.4390 C   0  0  0  0  0  0  0  0  0  0  0  0
   64.3177   26.5093   51.8042 H   0  0  0  0  0  0  0  0  0  0  0  0
   63.6714   25.7919   53.3506 H   0  0  0  0  0  0  0  0  0  0  0  0
   62.9060   27.7330   52.8780 C   0  0  1  0  0  0  0  0  0  0  0  0
   62.0704   27.5970   53.5803 H   0  0  0  0  0  0  0  0  0  0  0  0
   63.9670   28.4820   53.5510 N   0  0  0  0  0  0  0  0  0  0  0  0
   63.6030   28.8140   54.4740 H   0  0  0  0  0  0  0  0  0  0  0  0
   64.7410   27.8150   53.7830 H   0  0  0  0  0  0  0  0  0  0  0  0
   62.4110   28.5090   51.6450 C   0  0  0  0  0  0  0  0  0  0  0  0
   63.2783   28.7897   51.0294 H   0  0  0  0  0  0  0  0  0  0  0  0
   61.8702   29.3999   51.9968 H   0  0  0  0  0  0  0  0  0  0  0  0
   59.8480   29.3780   50.1530 N   0  0  0  0  0  0  0  0  0  0  0  0
   59.0280   29.9470   49.2300 C   0  0  0  0  0  0  0  0  0  0  0  0
   58.3691   30.7801   49.5160 H   0  0  0  0  0  0  0  0  0  0  0  0
   59.0250   29.4700   47.9170 C   0  0  0  0  0  0  0  0  0  0  0  0
   58.0380   29.9230   46.9810 N   0  0  0  0  0  0  0  0  0  0  0  0
   58.0970   30.9400   46.1560 C   0  0  0  0  0  0  0  0  0  0  0  0
   57.4010   30.8300   44.9290 C   0  0  0  0  0  0  0  0  0  0  0  0
   56.7350   29.5760   44.5160 C   0  0  0  0  0  0  0  0  0  0  0  0
   55.5230   29.3910   44.8200 O   0  0  0  0  0  0  0  0  0  0  0  0
   57.4620   28.5450   43.6960 C   0  0  0  0  0  0  0  0  0  0  0  0
   56.9780   28.7924   42.7397 H   0  0  0  0  0  0  0  0  0  0  0  0
   57.7930   27.2560   44.4350 C   0  0  0  0  0  0  0  0  0  0  0  0
   57.4387   27.1067   45.4656 H   0  0  0  0  0  0  0  0  0  0  0  0
   57.6511   26.1845   44.2306 H   0  0  0  0  0  0  0  0  0  0  0  0
   58.8900   28.2680   44.1480 C   0  0  0  0  0  0  0  0  0  0  0  0
   59.3292   28.8511   44.9708 H   0  0  0  0  0  0  0  0  0  0  0  0
   59.8702   28.2322   43.6500 H   0  0  0  0  0  0  0  0  0  0  0  0
   57.2880   31.9480   44.0940 C   0  0  0  0  0  0  0  0  0  0  0  0
   56.7497   31.8619   43.1386 H   0  0  0  0  0  0  0  0  0  0  0  0
   57.8350   33.1350   44.4510 N   0  0  0  0  0  0  0  0  0  0  0  0
   58.5720   33.2710   45.5820 C   0  0  0  0  0  0  0  0  0  0  0  0
   59.1710   34.5010   45.8750 C   0  0  0  0  0  0  0  0  0  0  0  0
   58.9589   35.3794   45.2478 H   0  0  0  0  0  0  0  0  0  0  0  0
   60.0360   34.6130   46.9610 C   0  0  0  0  0  0  0  0  0  0  0  0
   60.4749   35.5863   47.2256 H   0  0  0  0  0  0  0  0  0  0  0  0
   60.3390   33.4730   47.7100 C   0  0  0  0  0  0  0  0  0  0  0  0
   61.3210   33.5360   48.8060 C   0  0  0  0  0  0  0  0  0  0  0  0
   60.8650   33.6150   50.1300 C   0  0  0  0  0  0  0  0  0  0  0  0
   59.7886   33.5420   50.3443 H   0  0  0  0  0  0  0  0  0  0  0  0
   61.7730   33.7860   51.1770 C   0  0  0  0  0  0  0  0  0  0  0  0
   61.4119   33.8326   52.2150 H   0  0  0  0  0  0  0  0  0  0  0  0
   63.1400   33.8980   50.9080 C   0  0  0  0  0  0  0  0  0  0  0  0
   63.8519   34.0515   51.7324 H   0  0  0  0  0  0  0  0  0  0  0  0
   63.6030   33.8150   49.5910 C   0  0  0  0  0  0  0  0  0  0  0  0
   64.6800   33.8972   49.3829 H   0  0  0  0  0  0  0  0  0  0  0  0
   62.7030   33.6280   48.5380 C   0  0  0  0  0  0  0  0  0  0  0  0
   63.3880   33.4770   46.7570 Br  0  0  0  0  0  0  0  0  0  0  0  0
   59.7550   32.2800   47.4050 N   0  0  0  0  0  0  0  0  0  0  0  0
   60.1400   31.4460   47.8910 H   0  0  0  0  0  0  0  0  0  0  0  0
   58.7970   32.1610   46.4300 C   0  0  0  0  0  0  0  0  0  0  0  0
  1  2  1  0
  2  3  2  0
  3  4  1  0
  4  5  1  0
  5  6  1  0
  6  7  1  0
  6  8  1  0
  6  9  1  0
  9 10  1  0
  9 11  1  0
  9 12  1  0
 12 13  1  0
 12 14  1  0
 12 15  1  0
 15 16  1  1
 15 17  1  0
 17 18  1  0
 17 19  1  0
 15 20  1  0
 20 21  1  0
 20 22  1  0
  4 23  2  0
 23 24  1  0
 24 25  1  0
 24 26  2  0
 26 27  1  0
 27 28  2  0
 28 29  1  0
 29 30  1  0
 30 31  2  0
 30 32  1  0
 32 33  1  0
 32 34  1  0
 34 35  1  0
 34 36  1  0
 34 37  1  0
 37 38  1  0
 37 39  1  0
 29 40  2  0
 40 41  1  0
 40 42  1  0
 42 43  1  0
 43 44  2  0
 44 45  1  0
 44 46  1  0
 46 47  1  0
 46 48  2  0
 48 49  1  0
 49 50  2  0
 50 51  1  0
 50 52  1  0
 52 53  1  0
 52 54  2  0
 54 55  1  0
 54 56  1  0
 56 57  1  0
 56 58  2  0
 58 59  1  0
 48 60  1  0
 60 61  1  0
 60 62  2  0
 26  2  1  0
 62 28  1  0
 20  5  1  0
 37 32  1  0
 62 43  1  0
 58 49  1  0
M  CHG  2  42  -1  60   1
M  END
>  <UniqueID>  (16) 
15

>  <SMILES>  (16) 
N[C@@H]1CCCN(c2ncc(/N=c3/c(C(=O)C4CC4)c[n-]c4ccc(-c5ccccc5Br)[nH+]c34)cn2)C1

>  <Energy>  (16) 
370.1779237833959

>  <Genealogy>  (16) 
NC1CCCN(c2ncc(N=c3c(C(=O)C4CC4)c[n-]c4ccc(-c5ccccc5Br)[nH+]c34)cn2)C1 (protonated)
N[C@@H]1CCCN(c2ncc(N=c3c(C(=O)C4CC4)c[n-]c4ccc(-c5ccccc5Br)[nH+]c34)cn2)C1 (chirality)
N[C@@H]1CCCN(c2ncc(/N=c3/c(C(=O)C4CC4)c[n-]c4ccc(-c5ccccc5Br)[nH+]c34)cn2)C1 (cis-trans isomerization)
N[C@@H]1CCCN(c2ncc(/N=c3/c(C(=O)C4CC4)c[n-]c4ccc(-c5ccccc5Br)[nH+]c34)cn2)C1 (3D coordinates assigned)
N[C@@H]1CCCN(c2ncc(/N=c3/c(C(=O)C4CC4)c[n-]c4ccc(-c5ccccc5Br)[nH+]c34)cn2)C1 (nonaromatic ring conformer: 370.1779237833959 kcal/mol)

>  <smiles>  (16) 
NC1CCCN(c2ncc(N=c3c(C(=O)C4CC4)c[nH]c4ccc(-c5ccccc5Br)nc34)cn2)C1

>  <score_type>  (16) 
oracle

>  <origin>  (16) 
adg

>  <m_score__min__energy>  (16) 
-10.130000000000001

>  <m_primary>  (16) 
energy

$$$$
16:0
     RDKit          3D

 45 49  0  0  0  0  0  0  0  0999 V2000
   62.6100   33.8190   48.5970 C   0  0  0  0  0  0  0  0  0  0  0  0
   61.2540   34.0700   48.9420 O   0  0  0  0  0  0  0  0  0  0  0  0
   60.1850   33.6810   48.1290 C   0  0  0  0  0  0  0  0  0  0  0  0
   58.9950   33.8380   48.5150 O   0  0  0  0  0  0  0  0  0  0  0  0
   60.4600   33.0370   46.8030 C   0  0  2  0  0  0  0  0  0  0  0  0
   59.3190   33.3920   45.7870 C   0  0  0  0  0  0  0  0  0  0  0  0
   58.3180   32.2430   45.7220 C   0  0  1  0  0  0  0  0  0  0  0  0
   57.1820   32.2800   44.7110 C   0  0  0  0  0  0  0  0  0  0  0  0
   56.8700   30.7730   44.4830 C   0  0  1  0  0  0  0  0  0  0  0  0
   56.7170   30.4710   42.9810 C   0  0  0  0  0  0  0  0  0  0  0  0
   55.9020   29.3520   42.7670 O   0  0  0  0  0  0  0  0  0  0  0  0
   58.0170   30.0460   45.0550 N   0  0  0  0  0  0  0  0  0  0  0  0
   57.9650   28.7690   45.7310 C   0  0  0  0  0  0  0  0  0  0  0  0
   56.8270   27.9310   45.6330 C   0  0  0  0  0  0  0  0  0  0  0  0
   56.8430   26.7130   46.3010 C   0  0  0  0  0  0  0  0  0  0  0  0
   57.9040   26.3120   47.0410 C   0  0  0  0  0  0  0  0  0  0  0  0
   59.0400   27.0960   47.1850 C   0  0  0  0  0  0  0  0  0  0  0  0
   59.0730   28.3510   46.5390 C   0  0  0  0  0  0  0  0  0  0  0  0
   60.3090   29.2090   46.6850 C   0  0  0  0  0  0  0  0  0  0  0  0
   60.0120   30.6530   46.4120 C   0  0  0  0  0  0  0  0  0  0  0  0
   60.6640   31.5950   47.0180 N   0  0  0  0  0  0  0  0  0  0  0  0
   59.0650   31.0080   45.3180 C   0  0  2  0  0  0  0  0  0  0  0  0
   57.6450   25.0680   47.5830 O   0  0  0  0  0  0  0  0  0  0  0  0
   56.3370   24.6630   47.1570 C   0  0  0  0  0  0  0  0  0  0  0  0
   55.8610   25.7430   46.3410 O   0  0  0  0  0  0  0  0  0  0  0  0
   63.2073   33.7084   49.5141 H   0  0  0  0  0  0  0  0  0  0  0  0
   62.6725   32.8940   48.0050 H   0  0  0  0  0  0  0  0  0  0  0  0
   62.9995   34.6603   48.0050 H   0  0  0  0  0  0  0  0  0  0  0  0
   61.3827   33.4238   46.3459 H   0  0  0  0  0  0  0  0  0  0  0  0
   58.8056   34.3069   46.1177 H   0  0  0  0  0  0  0  0  0  0  0  0
   59.7544   33.5548   44.7900 H   0  0  0  0  0  0  0  0  0  0  0  0
   57.8609   32.2949   46.7212 H   0  0  0  0  0  0  0  0  0  0  0  0
   56.3071   32.8080   45.1180 H   0  0  0  0  0  0  0  0  0  0  0  0
   57.4417   32.8146   43.7854 H   0  0  0  0  0  0  0  0  0  0  0  0
   55.9239   30.4727   44.9571 H   0  0  0  0  0  0  0  0  0  0  0  0
   56.2661   31.3428   42.4844 H   0  0  0  0  0  0  0  0  0  0  0  0
   57.7135   30.2589   42.5664 H   0  0  0  0  0  0  0  0  0  0  0  0
   55.5230   29.4440   41.8540 H   0  0  0  0  0  0  0  0  0  0  0  0
   55.9514   28.2375   45.0419 H   0  0  0  0  0  0  0  0  0  0  0  0
   59.8927   26.7486   47.7869 H   0  0  0  0  0  0  0  0  0  0  0  0
   60.6927   29.1110   47.7112 H   0  0  0  0  0  0  0  0  0  0  0  0
   61.0551   28.8661   45.9530 H   0  0  0  0  0  0  0  0  0  0  0  0
   59.7024   31.0940   44.4256 H   0  0  0  0  0  0  0  0  0  0  0  0
   56.3915   23.7323   46.5732 H   0  0  0  0  0  0  0  0  0  0  0  0
   55.6691   24.4626   48.0077 H   0  0  0  0  0  0  0  0  0  0  0  0
  1  2  1  0
  2  3  1  0
  3  4  2  0
  3  5  1  0
  5  6  1  0
  6  7  1  0
  7  8  1  0
  8  9  1  0
  9 10  1  0
 10 11  1  0
  9 12  1  0
 12 13  1  0
 13 14  2  0
 14 15  1  0
 15 16  2  0
 16 17  1  0
 17 18  2  0
 18 19  1  0
 19 20  1  0
 20 21  2  0
 20 22  1  0
 16 23  1  0
 23 24  1  0
 24 25  1  0
 21  5  1  0
 22  7  1  0
 22 12  1  0
 18 13  1  0
 25 15  1  0
  1 26  1  0
  1 27  1  0
  1 28  1  0
  5 29  1  6
  6 30  1  0
  6 31  1  0
  7 32  1  1
  8 33  1  0
  8 34  1  0
  9 35  1  1
 10 36  1  0
 10 37  1  0
 11 38  1  0
 14 39  1  0
 17 40  1  0
 19 41  1  0
 19 42  1  0
 22 43  1  6
 24 44  1  0
 24 45  1  0
M  END
>  <UniqueID>  (17) 
16

>  <SMILES>  (17) 
COC(=O)[C@@H]1C[C@H]2CC(CO)N3c4cc5c(cc4CC(=N1)C23)OCO5

>  <Energy>  (17) 
96.15330242303492

>  <Genealogy>  (17) 
COC(=O)[C@@H]1C[C@H]2CC(CO)N3c4cc5c(cc4CC(=N1)C23)OCO5 (chirality)
COC(=O)[C@@H]1C[C@H]2CC(CO)N3c4cc5c(cc4CC(=N1)C23)OCO5 (3D coordinates assigned)
COC(=O)[C@@H]1C[C@H]2CC(CO)N3c4cc5c(cc4CC(=N1)C23)OCO5 (nonaromatic ring conformer: 96.15330242303492 kcal/mol)

>  <smiles>  (17) 
COC(=O)C1CC2CC(CO)N3c4cc5c(cc4CC(=N1)C23)OCO5

>  <score_type>  (17) 
oracle

>  <origin>  (17) 
adg

>  <m_score__min__energy>  (17) 
-7.3399999999999999

>  <m_primary>  (17) 
energy

$$$$
17:0
     RDKit          3D

 41 44  0  0  0  0  0  0  0  0999 V2000
   57.3630   30.5870   42.9670 O   0  0  0  0  0  0  0  0  0  0  0  0
   57.2590   30.5840   44.4670 S   0  0  0  0  0  0  0  0  0  0  0  0
   55.8280   30.3370   44.8530 O   0  0  0  0  0  0  0  0  0  0  0  0
   58.3030   29.3180   45.1060 C   0  0  0  0  0  0  0  0  0  0  0  0
   57.7870   28.3250   45.9540 C   0  0  0  0  0  0  0  0  0  0  0  0
   58.6380   27.3620   46.5040 C   0  0  0  0  0  0  0  0  0  0  0  0
   60.0050   27.3850   46.2130 C   0  0  0  0  0  0  0  0  0  0  0  0
   60.5250   28.3750   45.3730 C   0  0  0  0  0  0  0  0  0  0  0  0
   59.6770   29.3400   44.8220 C   0  0  0  0  0  0  0  0  0  0  0  0
   57.7850   32.1280   45.1270 C   0  0  0  0  0  0  0  0  0  0  0  0
   57.4740   33.3310   44.4790 C   0  0  0  0  0  0  0  0  0  0  0  0
   57.9450   34.5430   44.9900 C   0  0  0  0  0  0  0  0  0  0  0  0
   58.7400   34.5600   46.1420 C   0  0  0  0  0  0  0  0  0  0  0  0
   59.0650   33.3590   46.7930 C   0  0  0  0  0  0  0  0  0  0  0  0
   59.9080   33.3700   48.0110 C   0  0  0  0  0  0  0  0  0  0  0  0
   59.2780   33.3130   49.2640 C   0  0  0  0  0  0  0  0  0  0  0  0
   60.0080   33.2540   50.4090 N   0  0  0  0  0  0  0  0  0  0  0  0
   61.3650   33.2470   50.3910 C   0  0  0  0  0  0  0  0  0  0  0  0
   62.0570   33.3190   49.1750 C   0  0  0  0  0  0  0  0  0  0  0  0
   63.4610   33.3250   49.1550 C   0  0  0  0  0  0  0  0  0  0  0  0
   64.1450   33.4220   47.9440 C   0  0  0  0  0  0  0  0  0  0  0  0
   63.4370   33.5260   46.7450 C   0  0  0  0  0  0  0  0  0  0  0  0
   62.0400   33.5220   46.7510 C   0  0  0  0  0  0  0  0  0  0  0  0
   61.3270   33.3960   47.9630 C   0  0  0  0  0  0  0  0  0  0  0  0
   58.5560   32.1500   46.2960 C   0  0  0  0  0  0  0  0  0  0  0  0
   56.7119   28.3048   46.1858 H   0  0  0  0  0  0  0  0  0  0  0  0
   58.2311   26.5845   47.1672 H   0  0  0  0  0  0  0  0  0  0  0  0
   60.6720   26.6243   46.6448 H   0  0  0  0  0  0  0  0  0  0  0  0
   61.6011   28.3942   45.1460 H   0  0  0  0  0  0  0  0  0  0  0  0
   60.0882   30.1193   44.1635 H   0  0  0  0  0  0  0  0  0  0  0  0
   56.8586   33.3210   43.5673 H   0  0  0  0  0  0  0  0  0  0  0  0
   57.6903   35.4867   44.4855 H   0  0  0  0  0  0  0  0  0  0  0  0
   59.1111   35.5167   46.5383 H   0  0  0  0  0  0  0  0  0  0  0  0
   58.1794   33.3161   49.3200 H   0  0  0  0  0  0  0  0  0  0  0  0
   59.5110   33.2030   51.3270 H   0  0  0  0  0  0  0  0  0  0  0  0
   61.9244   33.1845   51.3361 H   0  0  0  0  0  0  0  0  0  0  0  0
   64.0230   33.2529   50.0978 H   0  0  0  0  0  0  0  0  0  0  0  0
   65.2449   33.4166   47.9331 H   0  0  0  0  0  0  0  0  0  0  0  0
   63.9809   33.6114   45.7927 H   0  0  0  0  0  0  0  0  0  0  0  0
   61.4906   33.6179   45.8029 H   0  0  0  0  0  0  0  0  0  0  0  0
   58.7643   31.2107   46.8293 H   0  0  0  0  0  0  0  0  0  0  0  0
  1  2  2  0
  2  3  2  0
  2  4  1  0
  4  5  2  0
  5  6  1  0
  6  7  2  0
  7  8  1  0
  8  9  2  0
  2 10  1  0
 10 11  2  0
 11 12  1  0
 12 13  2  0
 13 14  1  0
 14 15  1  0
 15 16  2  0
 16 17  1  0
 17 18  2  0
 18 19  1  0
 19 20  2  0
 20 21  1  0
 21 22  2  0
 22 23  1  0
 23 24  2  0
 14 25  2  0
  9  4  1  0
 25 10  1  0
 24 15  1  0
 24 19  1  0
  5 26  1  0
  6 27  1  0
  7 28  1  0
  8 29  1  0
  9 30  1  0
 11 31  1  0
 12 32  1  0
 13 33  1  0
 16 34  1  0
 17 35  1  0
 18 36  1  0
 20 37  1  0
 21 38  1  0
 22 39  1  0
 23 40  1  0
 25 41  1  0
M  CHG  1  17   1
M  END
>  <UniqueID>  (18) 
17

>  <SMILES>  (18) 
O=S(=O)(c1ccccc1)c1cccc(-c2c[nH+]cc3ccccc23)c1

>  <Energy>  (18) 
58.51531886647907

>  <Genealogy>  (18) 
O=S(=O)(c1ccccc1)c1cccc(-c2c[nH+]cc3ccccc23)c1 (protonated)
O=S(=O)(c1ccccc1)c1cccc(-c2c[nH+]cc3ccccc23)c1 (3D coordinates assigned)
O=S(=O)(c1ccccc1)c1cccc(-c2c[nH+]cc3ccccc23)c1 (optimized conformer: 58.51531886647907 kcal/mol)

>  <smiles>  (18) 
O=S(=O)(c1ccccc1)c1cccc(-c2cncc3ccccc23)c1

>  <score_type>  (18) 
oracle

>  <origin>  (18) 
adg

>  <m_score__min__energy>  (18) 
-8.5800000000000001

>  <m_primary>  (18) 
energy

$$$$
18:0
     RDKit          3D

 42 44  0  0  0  0  0  0  0  0999 V2000
   56.7170   26.7540   45.5770 C   0  0  0  0  0  0  0  0  0  0  0  0
   56.6420   28.2050   45.2430 C   0  0  0  0  0  0  0  0  0  0  0  0
   57.6880   29.1000   45.2690 C   0  0  0  0  0  0  0  0  0  0  0  0
   57.1010   30.2870   44.8790 C   0  0  0  0  0  0  0  0  0  0  0  0
   57.7730   31.5830   44.7320 C   0  0  0  0  0  0  0  0  0  0  0  0
   57.9050   32.2320   43.5580 N   0  0  0  0  0  0  0  0  0  0  0  0
   58.5580   33.3210   43.8430 O   0  0  0  0  0  0  0  0  0  0  0  0
   58.8230   33.3600   45.1290 C   0  0  0  0  0  0  0  0  0  0  0  0
   59.6000   34.4660   45.7990 C   0  0  0  0  0  0  0  0  0  0  0  0
   58.9150   34.9510   47.1090 C   0  0  0  0  0  0  0  0  0  0  0  0
   59.7450   34.6650   48.3680 C   0  0  0  0  0  0  0  0  0  0  0  0
   60.3430   33.3260   48.2850 N   0  0  0  0  0  0  0  0  0  0  0  0
   59.8800   32.2690   49.1520 C   0  0  0  0  0  0  0  0  0  0  0  0
   58.7270   32.3370   49.6580 O   0  0  0  0  0  0  0  0  0  0  0  0
   60.6900   31.1080   49.4100 N   0  0  0  0  0  0  0  0  0  0  0  0
   60.0550   29.7920   49.4590 C   0  0  0  0  0  0  0  0  0  0  0  0
   62.1310   31.2250   49.6300 C   0  0  0  0  0  0  0  0  0  0  0  0
   61.2130   33.0090   47.1410 C   0  0  0  0  0  0  0  0  0  0  0  0
   61.0680   34.0440   46.0120 C   0  0  0  0  0  0  0  0  0  0  0  0
   58.3410   32.2650   45.7430 N   0  0  0  0  0  0  0  0  0  0  0  0
   55.7900   30.0890   44.6390 N   0  0  0  0  0  0  0  0  0  0  0  0
   55.5510   28.8310   44.8680 O   0  0  0  0  0  0  0  0  0  0  0  0
   56.7235   26.6292   46.6699 H   0  0  0  0  0  0  0  0  0  0  0  0
   55.8445   26.2347   45.1538 H   0  0  0  0  0  0  0  0  0  0  0  0
   57.6384   26.3275   45.1538 H   0  0  0  0  0  0  0  0  0  0  0  0
   58.7387   28.9139   45.5363 H   0  0  0  0  0  0  0  0  0  0  0  0
   59.6043   35.3371   45.1273 H   0  0  0  0  0  0  0  0  0  0  0  0
   58.7521   36.0365   47.0370 H   0  0  0  0  0  0  0  0  0  0  0  0
   57.9701   34.3966   47.2079 H   0  0  0  0  0  0  0  0  0  0  0  0
   60.5443   35.4157   48.4551 H   0  0  0  0  0  0  0  0  0  0  0  0
   59.0893   34.7124   49.2499 H   0  0  0  0  0  0  0  0  0  0  0  0
   59.9109   29.4933   50.5078 H   0  0  0  0  0  0  0  0  0  0  0  0
   59.0793   29.8366   48.9530 H   0  0  0  0  0  0  0  0  0  0  0  0
   60.6971   29.0560   48.9530 H   0  0  0  0  0  0  0  0  0  0  0  0
   62.3368   31.2417   50.7105 H   0  0  0  0  0  0  0  0  0  0  0  0
   62.6427   30.3655   49.1725 H   0  0  0  0  0  0  0  0  0  0  0  0
   62.4974   32.1558   49.1725 H   0  0  0  0  0  0  0  0  0  0  0  0
   62.2590   32.9967   47.4812 H   0  0  0  0  0  0  0  0  0  0  0  0
   60.9155   32.0265   46.7458 H   0  0  0  0  0  0  0  0  0  0  0  0
   61.6598   34.9349   46.2690 H   0  0  0  0  0  0  0  0  0  0  0  0
   61.4271   33.5825   45.0803 H   0  0  0  0  0  0  0  0  0  0  0  0
   58.3930   32.0060   46.7530 H   0  0  0  0  0  0  0  0  0  0  0  0
  1  2  1  0
  2  3  2  0
  3  4  1  0
  4  5  1  0
  5  6  2  0
  6  7  1  0
  7  8  1  0
  8  9  1  0
  9 10  1  0
 10 11  1  0
 11 12  1  0
 12 13  1  0
 13 14  2  0
 13 15  1  0
 15 16  1  0
 15 17  1  0
 12 18  1  0
 18 19  1  0
  8 20  2  0
  4 21  2  0
 21 22  1  0
 22  2  1  0
 20  5  1  0
 19  9  1  0
  1 23  1  0
  1 24  1  0
  1 25  1  0
  3 26  1  0
  9 27  1  0
 10 28  1  0
 10 29  1  0
 11 30  1  0
 11 31  1  0
 16 32  1  0
 16 33  1  0
 16 34  1  0
 17 35  1  0
 17 36  1  0
 17 37  1  0
 18 38  1  0
 18 39  1  0
 19 40  1  0
 19 41  1  0
 20 42  1  0
M  CHG  1  20   1
M  END
>  <UniqueID>  (19) 
18

>  <SMILES>  (19) 
Cc1cc(-c2noc(C3CCN(C(=O)N(C)C)CC3)[nH+]2)no1

>  <Energy>  (19) 
108.78204583327836

>  <Genealogy>  (19) 
Cc1cc(-c2noc(C3CCN(C(=O)N(C)C)CC3)[nH+]2)no1 (protonated)
Cc1cc(-c2noc(C3CCN(C(=O)N(C)C)CC3)[nH+]2)no1 (3D coordinates assigned)
Cc1cc(-c2noc(C3CCN(C(=O)N(C)C)CC3)[nH+]2)no1 (nonaromatic ring conformer: 108.78204583327836 kcal/mol)

>  <smiles>  (19) 
Cc1cc(-c2noc(C3CCN(C(=O)N(C)C)CC3)n2)no1

>  <score_type>  (19) 
oracle

>  <origin>  (19) 
adg

>  <m_score__min__energy>  (19) 
-6.1799999999999997

>  <m_primary>  (19) 
energy

$$$$
19:0
     RDKit          3D

 36 38  0  0  0  0  0  0  0  0999 V2000
   57.2743   35.2802   45.2367 H   0  0  0  0  0  0  0  0  0  0  0  0
   57.6980   34.2850   45.4370 C   0  0  0  0  0  0  0  0  0  0  0  0
   57.0260   33.1750   45.0380 N   0  0  0  0  0  0  0  0  0  0  0  0
   57.4990   31.9180   45.2600 C   0  0  0  0  0  0  0  0  0  0  0  0
   56.8310   30.8770   44.8560 N   0  0  0  0  0  0  0  0  0  0  0  0
   56.5980   30.5460   43.4550 C   0  0  0  0  0  0  0  0  0  0  0  0
   55.9659   29.6481   43.3906 H   0  0  0  0  0  0  0  0  0  0  0  0
   56.0917   31.3871   42.9588 H   0  0  0  0  0  0  0  0  0  0  0  0
   57.5606   30.3531   42.9588 H   0  0  0  0  0  0  0  0  0  0  0  0
   58.7230   31.7490   45.9230 C   0  0  0  0  0  0  0  0  0  0  0  0
   59.2150   30.5040   46.1560 N   0  0  0  0  0  0  0  0  0  0  0  0
   60.4070   30.3180   46.7840 C   0  0  0  0  0  0  0  0  0  0  0  0
   60.8740   29.1210   46.9890 N   0  0  0  0  0  0  0  0  0  0  0  0
   60.6440   27.9730   46.1120 C   0  0  0  0  0  0  0  0  0  0  0  0
   60.9856   28.2211   45.0962 H   0  0  0  0  0  0  0  0  0  0  0  0
   61.2041   27.1116   46.5047 H   0  0  0  0  0  0  0  0  0  0  0  0
   59.1810   27.6180   46.0680 C   0  0  0  0  0  0  0  0  0  0  0  0
   58.5880   26.8930   47.1160 C   0  0  0  0  0  0  0  0  0  0  0  0
   59.2003   26.5597   47.9668 H   0  0  0  0  0  0  0  0  0  0  0  0
   57.2230   26.5940   47.0810 C   0  0  0  0  0  0  0  0  0  0  0  0
   56.7638   26.0273   47.9044 H   0  0  0  0  0  0  0  0  0  0  0  0
   56.4400   27.0140   46.0010 C   0  0  0  0  0  0  0  0  0  0  0  0
   55.0840   26.7160   45.9680 O   0  0  0  0  0  0  0  0  0  0  0  0
   57.0240   27.7350   44.9550 C   0  0  0  0  0  0  0  0  0  0  0  0
   56.4085   28.0645   44.1050 H   0  0  0  0  0  0  0  0  0  0  0  0
   58.3880   28.0380   44.9870 C   0  0  0  0  0  0  0  0  0  0  0  0
   58.8423   28.6074   44.1628 H   0  0  0  0  0  0  0  0  0  0  0  0
   61.1220   31.3930   47.1990 N   0  0  0  0  0  0  0  0  0  0  0  0
   60.6740   32.6600   47.0010 C   0  0  0  0  0  0  0  0  0  0  0  0
   61.2712   33.5143   47.3524 H   0  0  0  0  0  0  0  0  0  0  0  0
   59.4490   32.8820   46.3480 C   0  0  0  0  0  0  0  0  0  0  0  0
   58.9290   34.1740   46.1030 C   0  0  0  0  0  0  0  0  0  0  0  0
   59.6550   35.4230   46.5330 C   0  0  0  0  0  0  0  0  0  0  0  0
   59.6829   35.4710   47.6316 H   0  0  0  0  0  0  0  0  0  0  0  0
   60.6824   35.4034   46.1406 H   0  0  0  0  0  0  0  0  0  0  0  0
   59.1294   36.3061   46.1406 H   0  0  0  0  0  0  0  0  0  0  0  0
  1  2  1  0
  2  3  1  0
  3  4  1  0
  4  5  2  0
  5  6  1  0
  6  7  1  0
  6  8  1  0
  6  9  1  0
  4 10  1  0
 10 11  2  0
 11 12  1  0
 12 13  2  0
 13 14  1  0
 14 15  1  0
 14 16  1  0
 14 17  1  0
 17 18  2  0
 18 19  1  0
 18 20  1  0
 20 21  1  0
 20 22  2  0
 22 23  1  0
 22 24  1  0
 24 25  1  0
 24 26  2  0
 26 27  1  0
 12 28  1  0
 28 29  1  0
 29 30  1  0
 29 31  2  0
 31 32  1  0
 32 33  1  0
 33 34  1  0
 33 35  1  0
 33 36  1  0
 32  2  2  0
 31 10  1  0
 26 17  1  0
M  CHG  3   3  -1  23  -1  28  -1
M  END
>  <UniqueID>  (20) 
19

>  <SMILES>  (20) 
C/N=c1\[n-]cc(C)c2c[n-]/c(=N/Cc3ccc([O-])cc3)nc12

>  <Energy>  (20) 
41.87997222910789

>  <Genealogy>  (20) 
CN=c1[n-]cc(C)c2c[n-]c(=NCc3ccc([O-])cc3)nc12 (protonated)
C/N=c1\[n-]cc(C)c2c[n-]/c(=N/Cc3ccc([O-])cc3)nc12 (cis-trans isomerization)
C/N=c1\[n-]cc(C)c2c[n-]/c(=N/Cc3ccc([O-])cc3)nc12 (3D coordinates assigned)
C/N=c1\[n-]cc(C)c2c[n-]/c(=N/Cc3ccc([O-])cc3)nc12 (optimized conformer: 41.87997222910789 kcal/mol)

>  <smiles>  (20) 
CN=c1[nH]cc(C)c2c[nH]c(=NCc3ccc(O)cc3)nc12

>  <score_type>  (20) 
oracle

>  <origin>  (20) 
adg

>  <m_score__min__energy>  (20) 
-13.1

>  <m_primary>  (20) 
energy

$$$$
20:0
     RDKit          3D

 44 47  0  0  0  0  0  0  0  0999 V2000
   59.7080   35.7120   46.7820 O   0  0  0  0  0  0  0  0  0  0  0  0
   59.7500   34.6660   46.0820 C   0  0  0  0  0  0  0  0  0  0  0  0
   58.9280   34.5970   44.8280 C   0  0  0  0  0  0  0  0  0  0  0  0
   57.2280   33.9790   45.1160 S   0  0  0  0  0  0  0  0  0  0  0  0
   57.7240   32.3660   45.7470 C   0  0  0  0  0  0  0  0  0  0  0  0
   58.2480   32.3100   46.9980 N   0  0  0  0  0  0  0  0  0  0  0  0
   58.6690   31.1420   47.5530 C   0  0  0  0  0  0  0  0  0  0  0  0
   59.2600   31.1360   48.9130 C   0  0  0  0  0  0  0  0  0  0  0  0
   60.4430   30.4220   49.1780 C   0  0  0  0  0  0  0  0  0  0  0  0
   61.0150   30.4490   50.4540 C   0  0  0  0  0  0  0  0  0  0  0  0
   60.4130   31.1820   51.4780 C   0  0  0  0  0  0  0  0  0  0  0  0
   59.2350   31.8890   51.2300 C   0  0  0  0  0  0  0  0  0  0  0  0
   58.6580   31.8670   49.9570 C   0  0  0  0  0  0  0  0  0  0  0  0
   58.5620   29.9890   46.8410 N   0  0  0  0  0  0  0  0  0  0  0  0
   58.0340   29.9780   45.5890 C   0  0  0  0  0  0  0  0  0  0  0  0
   57.9330   28.7710   44.8870 C   0  0  0  0  0  0  0  0  0  0  0  0
   57.3880   28.7530   43.6010 C   0  0  0  0  0  0  0  0  0  0  0  0
   56.9410   29.9400   43.0120 C   0  0  0  0  0  0  0  0  0  0  0  0
   57.0380   31.1510   43.7040 C   0  0  0  0  0  0  0  0  0  0  0  0
   57.5880   31.1810   45.0000 C   0  0  0  0  0  0  0  0  0  0  0  0
   60.5010   33.5240   46.5290 N   0  0  0  0  0  0  0  0  0  0  0  0
   61.6050   33.5910   47.4530 C   0  0  0  0  0  0  0  0  0  0  0  0
   62.8910   33.1340   47.0990 C   0  0  0  0  0  0  0  0  0  0  0  0
   63.9340   33.1640   48.0280 C   0  0  0  0  0  0  0  0  0  0  0  0
   63.7070   33.6400   49.3210 C   0  0  0  0  0  0  0  0  0  0  0  0
   62.4350   34.0810   49.6890 C   0  0  0  0  0  0  0  0  0  0  0  0
   61.3860   34.0530   48.7640 C   0  0  0  0  0  0  0  0  0  0  0  0
   60.1560   34.4830   49.1440 F   0  0  0  0  0  0  0  0  0  0  0  0
   58.8649   35.6062   44.3948 H   0  0  0  0  0  0  0  0  0  0  0  0
   59.4242   33.8876   44.1493 H   0  0  0  0  0  0  0  0  0  0  0  0
   60.9209   29.8391   48.3769 H   0  0  0  0  0  0  0  0  0  0  0  0
   61.9421   29.8909   50.6512 H   0  0  0  0  0  0  0  0  0  0  0  0
   60.8665   31.2026   52.4799 H   0  0  0  0  0  0  0  0  0  0  0  0
   58.7599   32.4646   52.0381 H   0  0  0  0  0  0  0  0  0  0  0  0
   57.7282   32.4237   49.7688 H   0  0  0  0  0  0  0  0  0  0  0  0
   58.2831   27.8359   45.3486 H   0  0  0  0  0  0  0  0  0  0  0  0
   57.3103   27.8037   43.0507 H   0  0  0  0  0  0  0  0  0  0  0  0
   56.5111   29.9208   41.9997 H   0  0  0  0  0  0  0  0  0  0  0  0
   56.6843   32.0813   43.2356 H   0  0  0  0  0  0  0  0  0  0  0  0
   60.2210   32.5880   46.1580 H   0  0  0  0  0  0  0  0  0  0  0  0
   63.0744   32.7511   46.0842 H   0  0  0  0  0  0  0  0  0  0  0  0
   64.9357   32.8121   47.7404 H   0  0  0  0  0  0  0  0  0  0  0  0
   64.5307   33.6674   50.0495 H   0  0  0  0  0  0  0  0  0  0  0  0
   62.2569   34.4516   50.7092 H   0  0  0  0  0  0  0  0  0  0  0  0
  1  2  2  0
  2  3  1  0
  3  4  1  0
  4  5  1  0
  5  6  2  0
  6  7  1  0
  7  8  1  0
  8  9  2  0
  9 10  1  0
 10 11  2  0
 11 12  1  0
 12 13  2  0
  7 14  2  0
 14 15  1  0
 15 16  2  0
 16 17  1  0
 17 18  2  0
 18 19  1  0
 19 20  2  0
  2 21  1  0
 21 22  1  0
 22 23  2  0
 23 24  1  0
 24 25  2  0
 25 26  1  0
 26 27  2  0
 27 28  1  0
 20  5  1  0
 27 22  1  0
 13  8  1  0
 20 15  1  0
  3 29  1  0
  3 30  1  0
  9 31  1  0
 10 32  1  0
 11 33  1  0
 12 34  1  0
 13 35  1  0
 16 36  1  0
 17 37  1  0
 18 38  1  0
 19 39  1  0
 21 40  1  0
 23 41  1  0
 24 42  1  0
 25 43  1  0
 26 44  1  0
M  END
>  <UniqueID>  (21) 
20

>  <SMILES>  (21) 
O=C(CSc1nc(-c2ccccc2)nc2ccccc12)Nc1ccccc1F

>  <Energy>  (21) 
49.92075916518583

>  <Genealogy>  (21) 
O=C(CSc1nc(-c2ccccc2)nc2ccccc12)Nc1ccccc1F (3D coordinates assigned)
O=C(CSc1nc(-c2ccccc2)nc2ccccc12)Nc1ccccc1F (optimized conformer: 49.92075916518583 kcal/mol)

>  <smiles>  (21) 
O=C(CSc1nc(-c2ccccc2)nc2ccccc12)Nc1ccccc1F

>  <score_type>  (21) 
oracle

>  <origin>  (21) 
adg

>  <m_score__min__energy>  (21) 
-8.2200000000000006

>  <m_primary>  (21) 
energy

$$$$
21:0
     RDKit          3D

 42 44  0  0  0  0  0  0  0  0999 V2000
   59.1850   25.4190   46.5130 C   0  0  0  0  0  0  0  0  0  0  0  0
   58.9160   26.2660   45.3390 N   0  0  0  0  0  0  0  0  0  0  0  0
   57.4680   26.5690   45.1530 C   0  0  0  0  0  0  0  0  0  0  0  0
   57.1170   28.0650   45.3360 C   0  0  2  0  0  0  0  0  0  0  0  0
   57.4000   28.8740   44.0270 C   0  0  0  0  0  0  0  0  0  0  0  0
   58.2070   30.1130   44.2180 N   0  0  1  0  0  0  0  0  0  0  0  0
   57.3830   31.2410   44.6280 C   0  0  0  0  0  0  0  0  0  0  0  0
   56.1260   31.1790   44.5080 O   0  0  0  0  0  0  0  0  0  0  0  0
   57.9790   32.4830   45.2090 C   0  0  0  0  0  0  0  0  0  0  0  0
   58.0050   32.7170   46.6000 C   0  0  0  0  0  0  0  0  0  0  0  0
   58.5660   33.8890   47.1130 C   0  0  0  0  0  0  0  0  0  0  0  0
   59.1100   34.8440   46.2520 C   0  0  0  0  0  0  0  0  0  0  0  0
   59.6540   35.9800   46.7540 F   0  0  0  0  0  0  0  0  0  0  0  0
   59.0900   34.6300   44.8730 C   0  0  0  0  0  0  0  0  0  0  0  0
   58.5290   33.4590   44.3540 C   0  0  0  0  0  0  0  0  0  0  0  0
   59.4100   29.9560   45.0980 C   0  0  0  0  0  0  0  0  0  0  0  0
   59.3700   28.7110   46.0380 C   0  0  1  0  0  0  0  0  0  0  0  0
   60.2920   28.9460   47.2520 C   0  0  0  0  0  0  0  0  0  0  0  0
   57.9250   28.5750   46.5210 C   0  0  0  0  0  0  0  0  0  0  0  0
   59.8400   27.4250   45.2520 C   0  0  0  0  0  0  0  0  0  0  0  0
   59.0017   25.9962   47.4313 H   0  0  0  0  0  0  0  0  0  0  0  0
   58.5211   24.5422   46.4924 H   0  0  0  0  0  0  0  0  0  0  0  0
   60.2331   25.0859   46.4924 H   0  0  0  0  0  0  0  0  0  0  0  0
   57.1776   26.2660   44.1362 H   0  0  0  0  0  0  0  0  0  0  0  0
   56.9210   26.0132   45.9289 H   0  0  0  0  0  0  0  0  0  0  0  0
   56.0436   28.1961   45.5378 H   0  0  0  0  0  0  0  0  0  0  0  0
   57.9412   28.2176   43.3297 H   0  0  0  0  0  0  0  0  0  0  0  0
   56.4203   29.1990   43.6468 H   0  0  0  0  0  0  0  0  0  0  0  0
   58.5560   30.3440   43.2580 H   0  0  0  0  0  0  0  0  0  0  0  0
   57.5798   31.9701   47.2866 H   0  0  0  0  0  0  0  0  0  0  0  0
   58.5792   34.0601   48.1995 H   0  0  0  0  0  0  0  0  0  0  0  0
   59.5159   35.3832   44.1938 H   0  0  0  0  0  0  0  0  0  0  0  0
   58.5168   33.2978   43.2659 H   0  0  0  0  0  0  0  0  0  0  0  0
   60.2975   29.8709   44.4537 H   0  0  0  0  0  0  0  0  0  0  0  0
   59.4346   30.8398   45.7525 H   0  0  0  0  0  0  0  0  0  0  0  0
   59.7202   28.8003   48.1803 H   0  0  0  0  0  0  0  0  0  0  0  0
   61.1285   28.2323   47.2207 H   0  0  0  0  0  0  0  0  0  0  0  0
   60.6848   29.9730   47.2207 H   0  0  0  0  0  0  0  0  0  0  0  0
   57.8691   27.8595   47.3547 H   0  0  0  0  0  0  0  0  0  0  0  0
   57.5350   29.5380   46.8823 H   0  0  0  0  0  0  0  0  0  0  0  0
   59.9510   27.6945   44.1913 H   0  0  0  0  0  0  0  0  0  0  0  0
   60.7819   27.1042   45.7209 H   0  0  0  0  0  0  0  0  0  0  0  0
  1  2  1  0
  2  3  1  0
  3  4  1  0
  4  5  1  0
  5  6  1  0
  6  7  1  0
  7  8  2  0
  7  9  1  0
  9 10  2  0
 10 11  1  0
 11 12  2  0
 12 13  1  0
 12 14  1  0
 14 15  2  0
  6 16  1  0
 16 17  1  0
 17 18  1  1
 17 19  1  0
 17 20  1  0
 20  2  1  0
 19  4  1  0
 15  9  1  0
  1 21  1  0
  1 22  1  0
  1 23  1  0
  3 24  1  0
  3 25  1  0
  4 26  1  1
  5 27  1  0
  5 28  1  0
  6 29  1  6
 10 30  1  0
 11 31  1  0
 14 32  1  0
 15 33  1  0
 16 34  1  0
 16 35  1  0
 18 36  1  0
 18 37  1  0
 18 38  1  0
 19 39  1  0
 19 40  1  0
 20 41  1  0
 20 42  1  0
M  CHG  1   6   1
M  END
>  <UniqueID>  (22) 
21

>  <SMILES>  (22) 
CN1C[C@@H]2C[N@@H+](C(=O)c3ccc(F)cc3)CC(C)(C2)C1

>  <Energy>  (22) 
79.70435723889523

>  <Genealogy>  (22) 
CN1CC2C[NH+](C(=O)c3ccc(F)cc3)CC(C)(C2)C1 (protonated)
CN1C[C@@H]2C[N@@H+](C(=O)c3ccc(F)cc3)CC(C)(C2)C1 (chirality)
CN1C[C@@H]2C[N@@H+](C(=O)c3ccc(F)cc3)CC(C)(C2)C1 (3D coordinates assigned)
CN1C[C@@H]2C[N@@H+](C(=O)c3ccc(F)cc3)CC(C)(C2)C1 (nonaromatic ring conformer: 79.70435723889523 kcal/mol)

>  <smiles>  (22) 
CN1CC2CN(C(=O)c3ccc(F)cc3)CC(C)(C2)C1

>  <score_type>  (22) 
oracle

>  <origin>  (22) 
adg

>  <m_score__min__energy>  (22) 
-6.0999999999999996

>  <m_primary>  (22) 
energy

$$$$
22:0
     RDKit          3D

 38 39  0  0  0  0  0  0  0  0999 V2000
   57.0280   28.3840   45.4870 C   0  0  0  0  0  0  0  0  0  0  0  0
   56.3710   29.6140   45.2000 O   0  0  0  0  0  0  0  0  0  0  0  0
   56.9310   30.6540   44.4430 C   0  0  0  0  0  0  0  0  0  0  0  0
   56.8620   30.5690   43.0470 C   0  0  0  0  0  0  0  0  0  0  0  0
   57.3980   31.5820   42.2490 C   0  0  0  0  0  0  0  0  0  0  0  0
   58.0080   32.6910   42.8380 C   0  0  0  0  0  0  0  0  0  0  0  0
   58.0900   32.7920   44.2360 C   0  0  0  0  0  0  0  0  0  0  0  0
   58.7010   34.0100   44.8770 C   0  0  0  0  0  0  0  0  0  0  0  0
   58.7200   33.9210   46.4130 C   0  0  0  0  0  0  0  0  0  0  0  0
   60.0960   34.2540   47.0360 C   0  0  0  0  0  0  0  0  0  0  0  0
   61.1430   33.2710   46.6730 N   0  0  0  0  0  0  0  0  0  0  0  0
   62.5080   33.8190   46.7440 C   0  0  0  0  0  0  0  0  0  0  0  0
   63.4390   32.6790   47.1490 C   0  0  0  0  0  0  0  0  0  0  0  0
   62.5310   31.5260   47.5420 C   0  0  0  0  0  0  0  0  0  0  0  0
   61.1370   32.1230   47.5870 C   0  0  0  0  0  0  0  0  0  0  0  0
   57.5500   31.7710   45.0360 C   0  0  0  0  0  0  0  0  0  0  0  0
   57.0987   28.2516   46.5767 H   0  0  0  0  0  0  0  0  0  0  0  0
   56.4542   27.5519   45.0530 H   0  0  0  0  0  0  0  0  0  0  0  0
   58.0387   28.3982   45.0530 H   0  0  0  0  0  0  0  0  0  0  0  0
   56.3824   29.6984   42.5757 H   0  0  0  0  0  0  0  0  0  0  0  0
   57.3394   31.5059   41.1532 H   0  0  0  0  0  0  0  0  0  0  0  0
   58.4256   33.4879   42.2051 H   0  0  0  0  0  0  0  0  0  0  0  0
   59.7349   34.1168   44.5171 H   0  0  0  0  0  0  0  0  0  0  0  0
   58.0845   34.8780   44.6002 H   0  0  0  0  0  0  0  0  0  0  0  0
   57.9776   34.6282   46.8114 H   0  0  0  0  0  0  0  0  0  0  0  0
   58.4897   32.8786   46.6784 H   0  0  0  0  0  0  0  0  0  0  0  0
   60.4099   35.2479   46.6843 H   0  0  0  0  0  0  0  0  0  0  0  0
   59.9801   34.2262   48.1295 H   0  0  0  0  0  0  0  0  0  0  0  0
   60.9790   32.9090   45.7050 H   0  0  0  0  0  0  0  0  0  0  0  0
   62.8051   34.2158   45.7620 H   0  0  0  0  0  0  0  0  0  0  0  0
   62.5589   34.6394   47.4750 H   0  0  0  0  0  0  0  0  0  0  0  0
   64.0817   32.3902   46.3042 H   0  0  0  0  0  0  0  0  0  0  0  0
   64.1037   32.9719   47.9751 H   0  0  0  0  0  0  0  0  0  0  0  0
   62.5829   30.7207   46.7945 H   0  0  0  0  0  0  0  0  0  0  0  0
   62.8214   31.0806   48.5049 H   0  0  0  0  0  0  0  0  0  0  0  0
   60.3952   31.3802   47.2585 H   0  0  0  0  0  0  0  0  0  0  0  0
   60.8700   32.4308   48.6088 H   0  0  0  0  0  0  0  0  0  0  0  0
   57.6112   31.8447   46.1318 H   0  0  0  0  0  0  0  0  0  0  0  0
  1  2  1  0
  2  3  1  0
  3  4  2  0
  4  5  1  0
  5  6  2  0
  6  7  1  0
  7  8  1  0
  8  9  1  0
  9 10  1  0
 10 11  1  0
 11 12  1  0
 12 13  1  0
 13 14  1  0
 14 15  1  0
  7 16  2  0
 16  3  1  0
 15 11  1  0
  1 17  1  0
  1 18  1  0
  1 19  1  0
  4 20  1  0
  5 21  1  0
  6 22  1  0
  8 23  1  0
  8 24  1  0
  9 25  1  0
  9 26  1  0
 10 27  1  0
 10 28  1  0
 11 29  1  0
 12 30  1  0
 12 31  1  0
 13 32  1  0
 13 33  1  0
 14 34  1  0
 14 35  1  0
 15 36  1  0
 15 37  1  0
 16 38  1  0
M  CHG  1  11   1
M  END
>  <UniqueID>  (23) 
22

>  <SMILES>  (23) 
COc1cccc(CCC[NH+]2CCCC2)c1

>  <Energy>  (23) 
36.29118450760573

>  <Genealogy>  (23) 
COc1cccc(CCC[NH+]2CCCC2)c1 (protonated)
COc1cccc(CCC[NH+]2CCCC2)c1 (3D coordinates assigned)
COc1cccc(CCC[NH+]2CCCC2)c1 (nonaromatic ring conformer: 36.29118450760573 kcal/mol)

>  <smiles>  (23) 
COc1cccc(CCCN2CCCC2)c1

>  <score_type>  (23) 
oracle

>  <origin>  (23) 
adg

>  <m_score__min__energy>  (23) 
-4.8099999999999996

>  <m_primary>  (23) 
energy

$$$$
23:0
     RDKit          3D

 29 31  0  0  0  0  0  0  0  0999 V2000
   57.8190   32.2430   41.7200 C   0  0  0  0  0  0  0  0  0  0  0  0
   57.1380   31.2000   42.5080 C   0  0  0  0  0  0  0  0  0  0  0  0
   56.2760   30.2690   42.0770 N   0  0  0  0  0  0  0  0  0  0  0  0
   55.8690   29.5020   43.0800 N   0  0  0  0  0  0  0  0  0  0  0  0
   56.4840   29.9490   44.1830 C   0  0  0  0  0  0  0  0  0  0  0  0
   56.3430   29.4550   45.3670 N   0  0  0  0  0  0  0  0  0  0  0  0
   57.2760   31.0010   43.8570 C   0  0  0  0  0  0  0  0  0  0  0  0
   58.0920   31.7270   44.8350 C   0  0  0  0  0  0  0  0  0  0  0  0
   59.0560   31.6460   45.4970 N   0  0  0  0  0  0  0  0  0  0  0  0
   59.5700   32.5150   46.3300 C   0  0  0  0  0  0  0  0  0  0  0  0
   60.7210   32.4150   47.1170 C   0  0  0  0  0  0  0  0  0  0  0  0
   61.0930   33.4360   47.9270 C   0  0  0  0  0  0  0  0  0  0  0  0
   62.3380   33.3040   48.7670 C   0  0  0  0  0  0  0  0  0  0  0  0
   62.3030   34.1680   49.8190 F   0  0  0  0  0  0  0  0  0  0  0  0
   62.4310   32.0240   49.2800 F   0  0  0  0  0  0  0  0  0  0  0  0
   63.3910   33.6190   47.9170 F   0  0  0  0  0  0  0  0  0  0  0  0
   60.3910   34.6360   48.0490 C   0  0  0  0  0  0  0  0  0  0  0  0
   59.2550   34.7400   47.2750 C   0  0  0  0  0  0  0  0  0  0  0  0
   58.8440   33.6930   46.4220 C   0  0  0  0  0  0  0  0  0  0  0  0
   57.5180   33.4670   45.3350 S   0  0  0  0  0  0  0  0  0  0  0  0
   58.2915   32.9667   42.4004 H   0  0  0  0  0  0  0  0  0  0  0  0
   58.5889   31.7793   41.0858 H   0  0  0  0  0  0  0  0  0  0  0  0
   57.0848   32.7614   41.0858 H   0  0  0  0  0  0  0  0  0  0  0  0
   55.9290   30.1160   41.0910 H   0  0  0  0  0  0  0  0  0  0  0  0
   55.1970   28.6900   43.0620 H   0  0  0  0  0  0  0  0  0  0  0  0
   55.5710   29.7170   46.0140 H   0  0  0  0  0  0  0  0  0  0  0  0
   61.3300   31.4998   47.0785 H   0  0  0  0  0  0  0  0  0  0  0  0
   60.7218   35.4443   48.7177 H   0  0  0  0  0  0  0  0  0  0  0  0
   58.6547   35.6605   47.3232 H   0  0  0  0  0  0  0  0  0  0  0  0
  1  2  1  0
  2  3  1  0
  3  4  1  0
  4  5  1  0
  5  6  2  3
  5  7  1  0
  7  8  1  0
  8  9  2  0
  9 10  1  0
 10 11  2  0
 11 12  1  0
 12 13  1  0
 13 14  1  0
 13 15  1  0
 13 16  1  0
 12 17  2  0
 17 18  1  0
 18 19  2  0
 19 20  1  0
  7  2  2  0
 20  8  1  0
 19 10  1  0
  1 21  1  0
  1 22  1  0
  1 23  1  0
  3 24  1  0
  4 25  1  0
  6 26  1  0
 11 27  1  0
 17 28  1  0
 18 29  1  0
M  END
>  <smiles>  (24) 
Cc1[nH][nH]c(=N)c1-c1nc2cc(C(F)(F)F)ccc2s1

>  <score_type>  (24) 
oracle

>  <origin>  (24) 
adg

>  <m_score__min__energy>  (24) 
-7.4100000000000001

>  <m_primary>  (24) 
energy

$$$$
24:0
     RDKit          3D

 42 44  0  0  0  0  0  0  0  0999 V2000
   55.1910   26.7180   45.7890 O   0  0  0  0  0  0  0  0  0  0  0  0
   56.4260   26.6860   46.4560 C   0  0  0  0  0  0  0  0  0  0  0  0
   57.2970   27.8930   46.0720 C   0  0  1  0  0  0  0  0  0  0  0  0
   58.7880   27.6370   46.3360 C   0  0  0  0  0  0  0  0  0  0  0  0
   59.4560   27.7130   44.9810 C   0  0  0  0  0  0  0  0  0  0  0  0
   58.4850   28.5000   44.1300 C   0  0  0  0  0  0  0  0  0  0  0  0
   57.1430   28.1860   44.6350 N   0  0  0  0  0  0  0  0  0  0  0  0
   56.1780   29.2750   44.3860 C   0  0  0  0  0  0  0  0  0  0  0  0
   56.9060   30.5750   44.1670 C   0  0  0  0  0  0  0  0  0  0  0  0
   57.0240   31.1010   42.8720 C   0  0  0  0  0  0  0  0  0  0  0  0
   57.7320   32.2850   42.6560 C   0  0  0  0  0  0  0  0  0  0  0  0
   58.3260   32.9540   43.7300 C   0  0  0  0  0  0  0  0  0  0  0  0
   58.2070   32.4420   45.0340 C   0  0  0  0  0  0  0  0  0  0  0  0
   58.8070   33.0710   46.1350 O   0  0  0  0  0  0  0  0  0  0  0  0
   60.1460   32.9250   46.5250 C   0  0  0  0  0  0  0  0  0  0  0  0
   60.5590   31.7060   47.0760 C   0  0  0  0  0  0  0  0  0  0  0  0
   61.8830   31.5280   47.4900 C   0  0  0  0  0  0  0  0  0  0  0  0
   62.8010   32.5750   47.3660 C   0  0  0  0  0  0  0  0  0  0  0  0
   62.3940   33.8020   46.8350 C   0  0  0  0  0  0  0  0  0  0  0  0
   61.0710   33.9820   46.4210 C   0  0  0  0  0  0  0  0  0  0  0  0
   57.5130   31.2440   45.2420 C   0  0  0  0  0  0  0  0  0  0  0  0
   55.1500   27.5840   45.3050 H   0  0  0  0  0  0  0  0  0  0  0  0
   56.2481   26.7028   47.5414 H   0  0  0  0  0  0  0  0  0  0  0  0
   56.9558   25.7673   46.1638 H   0  0  0  0  0  0  0  0  0  0  0  0
   56.9608   28.7374   46.6917 H   0  0  0  0  0  0  0  0  0  0  0  0
   59.1966   28.4044   47.0099 H   0  0  0  0  0  0  0  0  0  0  0  0
   58.9559   26.6637   46.8203 H   0  0  0  0  0  0  0  0  0  0  0  0
   60.4227   28.2332   45.0516 H   0  0  0  0  0  0  0  0  0  0  0  0
   59.6721   26.7190   44.5624 H   0  0  0  0  0  0  0  0  0  0  0  0
   58.6841   29.5778   44.2234 H   0  0  0  0  0  0  0  0  0  0  0  0
   58.5827   28.2368   43.0664 H   0  0  0  0  0  0  0  0  0  0  0  0
   55.5836   29.0363   43.4918 H   0  0  0  0  0  0  0  0  0  0  0  0
   55.5177   29.3762   45.2599 H   0  0  0  0  0  0  0  0  0  0  0  0
   56.5572   30.5790   42.0237 H   0  0  0  0  0  0  0  0  0  0  0  0
   57.8225   32.6922   41.6382 H   0  0  0  0  0  0  0  0  0  0  0  0
   58.8879   33.8832   43.5545 H   0  0  0  0  0  0  0  0  0  0  0  0
   59.8374   30.8828   47.1840 H   0  0  0  0  0  0  0  0  0  0  0  0
   62.2020   30.5641   47.9132 H   0  0  0  0  0  0  0  0  0  0  0  0
   63.8437   32.4331   47.6864 H   0  0  0  0  0  0  0  0  0  0  0  0
   63.1156   34.6271   46.7427 H   0  0  0  0  0  0  0  0  0  0  0  0
   60.7514   34.9521   46.0128 H   0  0  0  0  0  0  0  0  0  0  0  0
   57.4427   30.8233   46.2560 H   0  0  0  0  0  0  0  0  0  0  0  0
  1  2  1  0
  2  3  1  0
  3  4  1  0
  4  5  1  0
  5  6  1  0
  6  7  1  0
  7  8  1  0
  8  9  1  0
  9 10  2  0
 10 11  1  0
 11 12  2  0
 12 13  1  0
 13 14  1  0
 14 15  1  0
 15 16  2  0
 16 17  1  0
 17 18  2  0
 18 19  1  0
 19 20  2  0
 13 21  2  0
  7  3  1  0
 21  9  1  0
 20 15  1  0
  1 22  1  0
  2 23  1  0
  2 24  1  0
  3 25  1  1
  4 26  1  0
  4 27  1  0
  5 28  1  0
  5 29  1  0
  6 30  1  0
  6 31  1  0
  8 32  1  0
  8 33  1  0
 10 34  1  0
 11 35  1  0
 12 36  1  0
 16 37  1  0
 17 38  1  0
 18 39  1  0
 19 40  1  0
 20 41  1  0
 21 42  1  0
M  END
>  <UniqueID>  (25) 
23

>  <SMILES>  (25) 
OC[C@H]1CCCN1Cc1cccc(Oc2ccccc2)c1

>  <Energy>  (25) 
50.04779310177991

>  <Genealogy>  (25) 
OC[C@H]1CCCN1Cc1cccc(Oc2ccccc2)c1 (chirality)
OC[C@H]1CCCN1Cc1cccc(Oc2ccccc2)c1 (3D coordinates assigned)
OC[C@H]1CCCN1Cc1cccc(Oc2ccccc2)c1 (nonaromatic ring conformer: 50.04779310177991 kcal/mol)

>  <smiles>  (25) 
OCC1CCCN1Cc1cccc(Oc2ccccc2)c1

>  <score_type>  (25) 
oracle

>  <origin>  (25) 
adg

>  <m_score__min__energy>  (25) 
-8.0899999999999999

>  <m_primary>  (25) 
energy

$$$$
25:0
     RDKit          3D

 44 46  0  0  0  0  0  0  0  0999 V2000
   55.8810   29.7440   45.9740 H   0  0  0  0  0  0  0  0  0  0  0  0
   56.1340   29.5900   44.9720 N   0  0  0  0  0  0  0  0  0  0  0  0
   56.7120   30.5140   44.2700 C   0  0  0  0  0  0  0  0  0  0  0  0
   56.5170   30.5760   42.9230 N   0  0  0  0  0  0  0  0  0  0  0  0
   57.3970   31.8860   42.4210 S   0  0  0  0  0  0  0  0  0  0  0  0
   58.0000   32.3350   43.8970 C   0  0  0  0  0  0  0  0  0  0  0  0
   58.8000   33.3560   44.0410 N   0  0  0  0  0  0  0  0  0  0  0  0
   58.6910   34.5370   44.8870 C   0  0  0  0  0  0  0  0  0  0  0  0
   59.0619   35.4173   44.3416 H   0  0  0  0  0  0  0  0  0  0  0  0
   57.6390   34.7015   45.1632 H   0  0  0  0  0  0  0  0  0  0  0  0
   59.5150   34.3270   46.1250 C   0  0  0  0  0  0  0  0  0  0  0  0
   58.9770   34.6070   47.3900 C   0  0  0  0  0  0  0  0  0  0  0  0
   57.9564   35.0086   47.4742 H   0  0  0  0  0  0  0  0  0  0  0  0
   59.7320   34.3780   48.5440 C   0  0  0  0  0  0  0  0  0  0  0  0
   59.3039   34.6093   49.5305 H   0  0  0  0  0  0  0  0  0  0  0  0
   61.0280   33.8570   48.4550 C   0  0  0  0  0  0  0  0  0  0  0  0
   61.7440   33.6460   49.6420 O   0  0  0  0  0  0  0  0  0  0  0  0
   61.1880   33.0910   50.8290 C   0  0  0  0  0  0  0  0  0  0  0  0
   61.6569   33.5590   51.7071 H   0  0  0  0  0  0  0  0  0  0  0  0
   60.1042   33.2782   50.8486 H   0  0  0  0  0  0  0  0  0  0  0  0
   61.3732   32.0069   50.8486 H   0  0  0  0  0  0  0  0  0  0  0  0
   61.5630   33.5600   47.1860 C   0  0  0  0  0  0  0  0  0  0  0  0
   62.5792   33.1472   47.1027 H   0  0  0  0  0  0  0  0  0  0  0  0
   60.8070   33.7880   46.0320 C   0  0  0  0  0  0  0  0  0  0  0  0
   61.2277   33.5433   45.0455 H   0  0  0  0  0  0  0  0  0  0  0  0
   57.5280   31.4710   44.8500 N   0  0  0  0  0  0  0  0  0  0  0  0
   57.7670   31.5160   46.3060 C   0  0  0  0  0  0  0  0  0  0  0  0
   58.2389   32.4776   46.5564 H   0  0  0  0  0  0  0  0  0  0  0  0
   56.7951   31.3994   46.8078 H   0  0  0  0  0  0  0  0  0  0  0  0
   58.6690   30.3930   46.7820 C   0  0  0  0  0  0  0  0  0  0  0  0
   59.2080   29.4660   45.8690 C   0  0  0  0  0  0  0  0  0  0  0  0
   58.9530   29.5416   44.8016 H   0  0  0  0  0  0  0  0  0  0  0  0
   60.0620   28.4530   46.3050 C   0  0  0  0  0  0  0  0  0  0  0  0
   60.4646   27.7262   45.5841 H   0  0  0  0  0  0  0  0  0  0  0  0
   60.4060   28.3600   47.6520 C   0  0  0  0  0  0  0  0  0  0  0  0
   61.0717   27.5539   47.9940 H   0  0  0  0  0  0  0  0  0  0  0  0
   59.9080   29.2870   48.5680 C   0  0  0  0  0  0  0  0  0  0  0  0
   60.1904   29.2132   49.6286 H   0  0  0  0  0  0  0  0  0  0  0  0
   59.0450   30.3180   48.1430 C   0  0  0  0  0  0  0  0  0  0  0  0
   58.5410   31.2720   49.0440 O   0  0  0  0  0  0  0  0  0  0  0  0
   58.4830   31.1020   50.4560 C   0  0  0  0  0  0  0  0  0  0  0  0
   58.8003   32.0319   50.9506 H   0  0  0  0  0  0  0  0  0  0  0  0
   57.4519   30.8614   50.7543 H   0  0  0  0  0  0  0  0  0  0  0  0
   59.1520   30.2814   50.7543 H   0  0  0  0  0  0  0  0  0  0  0  0
  1  2  1  0
  2  3  2  0
  3  4  1  0
  4  5  1  0
  5  6  1  0
  6  7  2  0
  7  8  1  0
  8  9  1  0
  8 10  1  0
  8 11  1  0
 11 12  2  0
 12 13  1  0
 12 14  1  0
 14 15  1  0
 14 16  2  0
 16 17  1  0
 17 18  1  0
 18 19  1  0
 18 20  1  0
 18 21  1  0
 16 22  1  0
 22 23  1  0
 22 24  2  0
 24 25  1  0
  6 26  1  0
 26 27  1  0
 27 28  1  0
 27 29  1  0
 27 30  1  0
 30 31  2  0
 31 32  1  0
 31 33  1  0
 33 34  1  0
 33 35  2  0
 35 36  1  0
 35 37  1  0
 37 38  1  0
 37 39  2  0
 39 40  1  0
 40 41  1  0
 41 42  1  0
 41 43  1  0
 41 44  1  0
 26  3  1  0
 39 30  1  0
 24 11  1  0
M  CHG  1   4  -1
M  END
>  <UniqueID>  (26) 
24

>  <SMILES>  (26) 
[H]/N=c1\[n-]s/c(=N/Cc2ccc(OC)cc2)n1Cc1ccccc1OC

>  <Energy>  (26) 
91.2278197853728

>  <Genealogy>  (26) 
COc1ccc(CN=c2s[n-]c(=N)n2Cc2ccccc2OC)cc1 (protonated)
[H]/N=c1\[n-]s/c(=N/Cc2ccc(OC)cc2)n1Cc1ccccc1OC (cis-trans isomerization)
[H]/N=c1\[n-]s/c(=N/Cc2ccc(OC)cc2)n1Cc1ccccc1OC (3D coordinates assigned)
[H]/N=c1\[n-]s/c(=N/Cc2ccc(OC)cc2)n1Cc1ccccc1OC (optimized conformer: 91.2278197853728 kcal/mol)

>  <smiles>  (26) 
COc1ccc(CN=c2s[nH]c(=N)n2Cc2ccccc2OC)cc1

>  <score_type>  (26) 
oracle

>  <origin>  (26) 
adg

>  <m_score__min__energy>  (26) 
-8.5600000000000005

>  <m_primary>  (26) 
energy

$$$$
26:0
     RDKit          3D

 41 43  0  0  0  0  0  0  0  0999 V2000
   57.7120   32.2340   41.1810 N   0  0  0  0  0  0  0  0  0  0  0  0
   57.7730   32.3150   42.3340 C   0  0  0  0  0  0  0  0  0  0  0  0
   57.8470   32.4140   43.7670 C   0  0  0  0  0  0  0  0  0  0  0  0
   58.1400   31.2800   44.5360 C   0  0  0  0  0  0  0  0  0  0  0  0
   58.2140   31.3760   45.9280 C   0  0  0  0  0  0  0  0  0  0  0  0
   57.9940   32.6080   46.5660 C   0  0  0  0  0  0  0  0  0  0  0  0
   58.0820   32.7250   48.0660 C   0  0  0  0  0  0  0  0  0  0  0  0
   59.4790   32.9560   48.4840 N   0  0  0  0  0  0  0  0  0  0  0  0
   60.2800   31.7140   48.3460 C   0  0  0  0  0  0  0  0  0  0  0  0
   61.7820   32.0090   48.2790 C   0  0  0  0  0  0  0  0  0  0  0  0
   62.1020   32.8170   47.0080 C   0  0  0  0  0  0  0  0  0  0  0  0
   63.7630   33.6090   47.1000 S   0  0  0  0  0  0  0  0  0  0  0  0
   64.0590   33.4210   48.8620 C   0  0  0  0  0  0  0  0  0  0  0  0
   63.3680   34.1860   49.7480 N   0  0  0  0  0  0  0  0  0  0  0  0
   63.5610   34.0560   51.0850 C   0  0  0  0  0  0  0  0  0  0  0  0
   64.4710   33.1170   51.5670 C   0  0  0  0  0  0  0  0  0  0  0  0
   65.1550   32.3230   50.6490 C   0  0  0  0  0  0  0  0  0  0  0  0
   64.9330   32.4800   49.3170 N   0  0  0  0  0  0  0  0  0  0  0  0
   60.9660   33.7950   46.6230 C   0  0  0  0  0  0  0  0  0  0  0  0
   60.0740   34.1510   47.8250 C   0  0  0  0  0  0  0  0  0  0  0  0
   57.6990   33.7420   45.7920 C   0  0  0  0  0  0  0  0  0  0  0  0
   57.6260   33.6440   44.3990 C   0  0  0  0  0  0  0  0  0  0  0  0
   58.3122   30.3120   44.0428 H   0  0  0  0  0  0  0  0  0  0  0  0
   58.4456   30.4829   46.5269 H   0  0  0  0  0  0  0  0  0  0  0  0
   57.4596   33.5679   48.4008 H   0  0  0  0  0  0  0  0  0  0  0  0
   57.7250   31.7879   48.5182 H   0  0  0  0  0  0  0  0  0  0  0  0
   60.0830   31.0654   49.2123 H   0  0  0  0  0  0  0  0  0  0  0  0
   59.9866   31.2209   47.4075 H   0  0  0  0  0  0  0  0  0  0  0  0
   62.0794   32.5897   49.1647 H   0  0  0  0  0  0  0  0  0  0  0  0
   62.3364   31.0593   48.2532 H   0  0  0  0  0  0  0  0  0  0  0  0
   62.1557   32.1021   46.1737 H   0  0  0  0  0  0  0  0  0  0  0  0
   63.0002   34.6906   51.7870 H   0  0  0  0  0  0  0  0  0  0  0  0
   64.6452   33.0053   52.6474 H   0  0  0  0  0  0  0  0  0  0  0  0
   65.8744   31.5694   51.0018 H   0  0  0  0  0  0  0  0  0  0  0  0
   65.4390   31.8650   48.6400 H   0  0  0  0  0  0  0  0  0  0  0  0
   61.4128   34.7190   46.2274 H   0  0  0  0  0  0  0  0  0  0  0  0
   60.3357   33.3007   45.8691 H   0  0  0  0  0  0  0  0  0  0  0  0
   60.6825   34.6922   48.5645 H   0  0  0  0  0  0  0  0  0  0  0  0
   59.2434   34.7651   47.4470 H   0  0  0  0  0  0  0  0  0  0  0  0
   57.5248   34.7107   46.2832 H   0  0  0  0  0  0  0  0  0  0  0  0
   57.3943   34.5356   43.7979 H   0  0  0  0  0  0  0  0  0  0  0  0
  1  2  3  0
  2  3  1  0
  3  4  2  0
  4  5  1  0
  5  6  2  0
  6  7  1  0
  7  8  1  0
  8  9  1  0
  9 10  1  0
 10 11  1  0
 11 12  1  0
 12 13  1  0
 13 14  2  0
 14 15  1  0
 15 16  2  0
 16 17  1  0
 17 18  2  0
 11 19  1  0
 19 20  1  0
  6 21  1  0
 21 22  2  0
 22  3  1  0
 20  8  1  0
 18 13  1  0
  4 23  1  0
  5 24  1  0
  7 25  1  0
  7 26  1  0
  9 27  1  0
  9 28  1  0
 10 29  1  0
 10 30  1  0
 11 31  1  0
 15 32  1  0
 16 33  1  0
 17 34  1  0
 18 35  1  0
 19 36  1  0
 19 37  1  0
 20 38  1  0
 20 39  1  0
 21 40  1  0
 22 41  1  0
M  CHG  1  18   1
M  END
>  <UniqueID>  (27) 
25

>  <SMILES>  (27) 
N#Cc1ccc(CN2CCC(Sc3nccc[nH+]3)CC2)cc1

>  <Energy>  (27) 
48.37695351615815

>  <Genealogy>  (27) 
N#Cc1ccc(CN2CCC(Sc3nccc[nH+]3)CC2)cc1 (protonated)
N#Cc1ccc(CN2CCC(Sc3nccc[nH+]3)CC2)cc1 (3D coordinates assigned)
N#Cc1ccc(CN2CCC(Sc3nccc[nH+]3)CC2)cc1 (nonaromatic ring conformer: 48.37695351615815 kcal/mol)

>  <smiles>  (27) 
N#Cc1ccc(CN2CCC(Sc3ncccn3)CC2)cc1

>  <score_type>  (27) 
oracle

>  <origin>  (27) 
adg

>  <m_score__min__energy>  (27) 
-6.4100000000000001

>  <m_primary>  (27) 
energy

$$$$
27:0
     RDKit          3D

 31 32  0  0  0  0  0  0  0  0999 V2000
   61.6530   32.8530   47.8000 C   0  0  0  0  0  0  0  0  0  0  0  0
   61.3580   34.0050   48.7600 C   0  0  0  0  0  0  0  0  0  0  0  0
   59.8520   34.2400   48.9300 C   0  0  0  0  0  0  0  0  0  0  0  0
   59.2620   34.8220   47.7220 N   0  0  0  0  0  0  0  0  0  0  0  0
   58.8730   34.0730   46.5530 C   0  0  0  0  0  0  0  0  0  0  0  0
   59.2570   34.5390   45.2870 C   0  0  0  0  0  0  0  0  0  0  0  0
   58.9010   33.8460   44.1290 C   0  0  0  0  0  0  0  0  0  0  0  0
   58.1420   32.6630   44.2130 C   0  0  0  0  0  0  0  0  0  0  0  0
   57.7530   31.9200   43.0740 C   0  0  0  0  0  0  0  0  0  0  0  0
   58.1280   32.3440   41.6780 C   0  0  0  0  0  0  0  0  0  0  0  0
   56.9950   30.7560   43.2590 C   0  0  0  0  0  0  0  0  0  0  0  0
   56.6460   30.3610   44.5520 C   0  0  0  0  0  0  0  0  0  0  0  0
   55.9640   29.3170   44.7270 O   0  0  0  0  0  0  0  0  0  0  0  0
   57.0270   31.0800   45.6000 O   0  0  0  0  0  0  0  0  0  0  0  0
   57.7460   32.1930   45.4870 C   0  0  0  0  0  0  0  0  0  0  0  0
   58.1090   32.8940   46.6420 C   0  0  0  0  0  0  0  0  0  0  0  0
   61.8854   31.9455   48.3766 H   0  0  0  0  0  0  0  0  0  0  0  0
   60.7729   32.6694   47.1662 H   0  0  0  0  0  0  0  0  0  0  0  0
   62.5130   33.1150   47.1662 H   0  0  0  0  0  0  0  0  0  0  0  0
   61.7937   33.7693   49.7421 H   0  0  0  0  0  0  0  0  0  0  0  0
   61.7992   34.9201   48.3382 H   0  0  0  0  0  0  0  0  0  0  0  0
   59.3612   33.2783   49.1403 H   0  0  0  0  0  0  0  0  0  0  0  0
   59.7033   34.9443   49.7617 H   0  0  0  0  0  0  0  0  0  0  0  0
   59.1220   35.8580   47.7160 H   0  0  0  0  0  0  0  0  0  0  0  0
   59.8471   35.4638   45.2057 H   0  0  0  0  0  0  0  0  0  0  0  0
   59.2150   34.2260   43.1456 H   0  0  0  0  0  0  0  0  0  0  0  0
   58.8560   33.1671   41.7279 H   0  0  0  0  0  0  0  0  0  0  0  0
   58.5737   31.4922   41.1434 H   0  0  0  0  0  0  0  0  0  0  0  0
   57.2281   32.6823   41.1434 H   0  0  0  0  0  0  0  0  0  0  0  0
   56.6773   30.1580   42.3921 H   0  0  0  0  0  0  0  0  0  0  0  0
   57.7948   32.5208   47.6279 H   0  0  0  0  0  0  0  0  0  0  0  0
  1  2  1  0
  2  3  1  0
  3  4  1  0
  4  5  1  0
  5  6  2  0
  6  7  1  0
  7  8  2  0
  8  9  1  0
  9 10  1  0
  9 11  2  0
 11 12  1  0
 12 13  2  0
 12 14  1  0
 14 15  1  0
 15 16  2  0
 16  5  1  0
 15  8  1  0
  1 17  1  0
  1 18  1  0
  1 19  1  0
  2 20  1  0
  2 21  1  0
  3 22  1  0
  3 23  1  0
  4 24  1  0
  6 25  1  0
  7 26  1  0
 10 27  1  0
 10 28  1  0
 10 29  1  0
 11 30  1  0
 16 31  1  0
M  END
>  <UniqueID>  (28) 
26

>  <SMILES>  (28) 
CCCNc1ccc2c(C)cc(=O)oc2c1

>  <Energy>  (28) 
31.556249544175333

>  <Genealogy>  (28) 
CCCNc1ccc2c(C)cc(=O)oc2c1 (3D coordinates assigned)
CCCNc1ccc2c(C)cc(=O)oc2c1 (optimized conformer: 31.556249544175333 kcal/mol)

>  <smiles>  (28) 
CCCNc1ccc2c(C)cc(=O)oc2c1

>  <score_type>  (28) 
oracle

>  <origin>  (28) 
adg

>  <m_score__min__energy>  (28) 
-7.0499999999999998

>  <m_primary>  (28) 
energy

$$$$
28:0
     RDKit          3D

 37 40  0  0  0  0  0  0  0  0999 V2000
   55.0860   21.6790   45.0810 O   0  0  0  0  0  0  0  0  0  0  0  0
   55.8680   22.4890   45.6420 C   0  0  0  0  0  0  0  0  0  0  0  0
   57.0700   22.0910   46.4080 C   0  0  0  0  0  0  0  0  0  0  0  0
   57.7790   23.4440   46.6140 C   0  0  1  0  0  0  0  0  0  0  0  0
   58.9180   23.6140   45.5910 C   0  0  0  0  0  0  0  0  0  0  0  0
   59.3530   24.9670   45.5450 O   0  0  0  0  0  0  0  0  0  0  0  0
   58.4370   26.0140   45.4410 C   0  0  0  0  0  0  0  0  0  0  0  0
   58.8670   27.2610   44.9790 C   0  0  0  0  0  0  0  0  0  0  0  0
   57.9540   28.3190   44.8350 C   0  0  0  0  0  0  0  0  0  0  0  0
   58.4010   29.6120   44.3790 N   0  0  0  0  0  0  0  0  0  0  0  0
   58.6510   30.4650   45.5140 C   0  0  0  0  0  0  0  0  0  0  0  0
   59.5360   30.0600   46.5290 C   0  0  0  0  0  0  0  0  0  0  0  0
   59.8020   30.9010   47.6130 C   0  0  0  0  0  0  0  0  0  0  0  0
   59.1940   32.1580   47.6910 C   0  0  0  0  0  0  0  0  0  0  0  0
   59.5310   33.2140   49.0510 Cl  0  0  0  0  0  0  0  0  0  0  0  0
   58.3190   32.5740   46.6830 C   0  0  0  0  0  0  0  0  0  0  0  0
   58.0500   31.7350   45.5970 C   0  0  0  0  0  0  0  0  0  0  0  0
   56.6090   28.1160   45.1850 C   0  0  0  0  0  0  0  0  0  0  0  0
   56.1800   26.8760   45.6710 C   0  0  0  0  0  0  0  0  0  0  0  0
   54.8470   26.7090   46.0300 O   0  0  0  0  0  0  0  0  0  0  0  0
   57.0930   25.8140   45.8030 C   0  0  0  0  0  0  0  0  0  0  0  0
   56.6550   24.5020   46.4140 C   0  0  1  0  0  0  0  0  0  0  0  0
   55.6830   23.8550   45.6130 O   0  0  0  0  0  0  0  0  0  0  0  0
   56.7975   21.6317   47.3697 H   0  0  0  0  0  0  0  0  0  0  0  0
   57.6903   21.3371   45.9011 H   0  0  0  0  0  0  0  0  0  0  0  0
   58.2516   23.5377   47.6029 H   0  0  0  0  0  0  0  0  0  0  0  0
   59.7631   22.9725   45.8813 H   0  0  0  0  0  0  0  0  0  0  0  0
   58.5462   23.3275   44.5962 H   0  0  0  0  0  0  0  0  0  0  0  0
   59.9265   27.4150   44.7266 H   0  0  0  0  0  0  0  0  0  0  0  0
   57.6800   30.0440   43.7560 H   0  0  0  0  0  0  0  0  0  0  0  0
   59.2730   29.5100   43.8060 H   0  0  0  0  0  0  0  0  0  0  0  0
   60.0220   29.0750   46.4694 H   0  0  0  0  0  0  0  0  0  0  0  0
   60.4906   30.5738   48.4060 H   0  0  0  0  0  0  0  0  0  0  0  0
   57.8413   33.5630   46.7443 H   0  0  0  0  0  0  0  0  0  0  0  0
   57.3653   32.0693   44.8037 H   0  0  0  0  0  0  0  0  0  0  0  0
   55.8869   28.9386   45.0761 H   0  0  0  0  0  0  0  0  0  0  0  0
   56.2748   24.8164   47.3972 H   0  0  0  0  0  0  0  0  0  0  0  0
  1  2  2  0
  2  3  1  0
  3  4  1  0
  4  5  1  0
  5  6  1  0
  6  7  1  0
  7  8  2  0
  8  9  1  0
  9 10  1  0
 10 11  1  0
 11 12  2  0
 12 13  1  0
 13 14  2  0
 14 15  1  0
 14 16  1  0
 16 17  2  0
  9 18  2  0
 18 19  1  0
 19 20  1  0
 19 21  2  0
 21 22  1  0
 22 23  1  0
 23  2  1  0
 22  4  1  0
 21  7  1  0
 17 11  1  0
  3 24  1  0
  3 25  1  0
  4 26  1  1
  5 27  1  0
  5 28  1  0
  8 29  1  0
 10 30  1  0
 10 31  1  0
 12 32  1  0
 13 33  1  0
 16 34  1  0
 17 35  1  0
 18 36  1  0
 22 37  1  1
M  CHG  2  10   1  20  -1
M  END
>  <UniqueID>  (29) 
27

>  <SMILES>  (29) 
O=C1C[C@H]2COc3cc([NH2+]c4ccc(Cl)cc4)cc([O-])c3[C@H]2O1

>  <Energy>  (29) 
55.067819011310426

>  <Genealogy>  (29) 
O=C1CC2COc3cc([NH2+]c4ccc(Cl)cc4)cc([O-])c3C2O1 (protonated)
O=C1C[C@H]2COc3cc([NH2+]c4ccc(Cl)cc4)cc([O-])c3[C@H]2O1 (chirality)
O=C1C[C@H]2COc3cc([NH2+]c4ccc(Cl)cc4)cc([O-])c3[C@H]2O1 (3D coordinates assigned)
O=C1C[C@H]2COc3cc([NH2+]c4ccc(Cl)cc4)cc([O-])c3[C@H]2O1 (nonaromatic ring conformer: 55.067819011310426 kcal/mol)

>  <smiles>  (29) 
O=C1CC2COc3cc(Nc4ccc(Cl)cc4)cc(O)c3C2O1

>  <score_type>  (29) 
oracle

>  <origin>  (29) 
adg

>  <m_score__min__energy>  (29) 
-9.3499999999999996

>  <m_primary>  (29) 
energy

$$$$
29:0
     RDKit          3D

 42 44  0  0  0  0  0  0  0  0999 V2000
   60.6960   29.7520   45.9970 C   0  0  0  0  0  0  0  0  0  0  0  0
   60.0090   28.9920   44.8660 C   0  0  0  0  0  0  0  0  0  0  0  0
   59.0400   27.9670   45.4160 C   0  0  0  0  0  0  0  0  0  0  0  0
   59.3890   27.3120   46.6130 C   0  0  0  0  0  0  0  0  0  0  0  0
   58.5630   26.3300   47.1580 C   0  0  0  0  0  0  0  0  0  0  0  0
   57.3820   25.9740   46.5130 C   0  0  0  0  0  0  0  0  0  0  0  0
   57.0210   26.5980   45.3200 C   0  0  0  0  0  0  0  0  0  0  0  0
   57.8340   27.5990   44.7490 C   0  0  0  0  0  0  0  0  0  0  0  0
   57.3970   28.2300   43.5210 N   0  0  0  0  0  0  0  0  0  0  0  0
   56.4600   29.3390   43.7800 C   0  0  0  0  0  0  0  0  0  0  0  0
   57.1800   30.6390   44.0130 C   0  0  0  0  0  0  0  0  0  0  0  0
   57.4800   31.4950   42.9430 C   0  0  0  0  0  0  0  0  0  0  0  0
   58.0940   32.7230   43.1930 C   0  0  0  0  0  0  0  0  0  0  0  0
   58.4050   33.0920   44.5070 C   0  0  0  0  0  0  0  0  0  0  0  0
   59.0220   34.3160   44.7930 C   0  0  0  0  0  0  0  0  0  0  0  0
   59.3180   34.6590   46.1160 C   0  0  0  0  0  0  0  0  0  0  0  0
   58.9860   33.7890   47.1670 C   0  0  0  0  0  0  0  0  0  0  0  0
   59.3380   34.1460   48.5810 C   0  0  0  0  0  0  0  0  0  0  0  0
   58.3830   32.5540   46.8800 C   0  0  0  0  0  0  0  0  0  0  0  0
   58.0870   32.2050   45.5590 C   0  0  0  0  0  0  0  0  0  0  0  0
   57.4860   31.0150   45.2850 N   0  0  0  0  0  0  0  0  0  0  0  0
   60.3456   29.3644   46.9650 H   0  0  0  0  0  0  0  0  0  0  0  0
   61.7851   29.6174   45.9206 H   0  0  0  0  0  0  0  0  0  0  0  0
   60.4525   30.8220   45.9206 H   0  0  0  0  0  0  0  0  0  0  0  0
   59.4591   29.7053   44.2345 H   0  0  0  0  0  0  0  0  0  0  0  0
   60.7765   28.4697   44.2759 H   0  0  0  0  0  0  0  0  0  0  0  0
   60.3256   27.5787   47.1246 H   0  0  0  0  0  0  0  0  0  0  0  0
   58.8450   25.8357   48.0993 H   0  0  0  0  0  0  0  0  0  0  0  0
   56.7324   25.1988   46.9455 H   0  0  0  0  0  0  0  0  0  0  0  0
   56.0879   26.3053   44.8163 H   0  0  0  0  0  0  0  0  0  0  0  0
   58.1940   28.5630   42.9350 H   0  0  0  0  0  0  0  0  0  0  0  0
   56.8990   27.5150   42.9420 H   0  0  0  0  0  0  0  0  0  0  0  0
   55.7941   29.4520   42.9118 H   0  0  0  0  0  0  0  0  0  0  0  0
   55.8893   29.0978   44.6889 H   0  0  0  0  0  0  0  0  0  0  0  0
   57.2326   31.2000   41.9126 H   0  0  0  0  0  0  0  0  0  0  0  0
   58.3331   33.3995   42.3593 H   0  0  0  0  0  0  0  0  0  0  0  0
   59.2741   35.0084   43.9763 H   0  0  0  0  0  0  0  0  0  0  0  0
   59.8139   35.6162   46.3347 H   0  0  0  0  0  0  0  0  0  0  0  0
   58.7377   33.5372   49.2732 H   0  0  0  0  0  0  0  0  0  0  0  0
   60.4067   33.9507   48.7533 H   0  0  0  0  0  0  0  0  0  0  0  0
   59.1276   35.2119   48.7533 H   0  0  0  0  0  0  0  0  0  0  0  0
   58.1426   31.8584   47.6976 H   0  0  0  0  0  0  0  0  0  0  0  0
  1  2  1  0
  2  3  1  0
  3  4  2  0
  4  5  1  0
  5  6  2  0
  6  7  1  0
  7  8  2  0
  8  9  1  0
  9 10  1  0
 10 11  1  0
 11 12  2  0
 12 13  1  0
 13 14  2  0
 14 15  1  0
 15 16  2  0
 16 17  1  0
 17 18  1  0
 17 19  2  0
 19 20  1  0
 20 21  2  0
  8  3  1  0
 21 11  1  0
 20 14  1  0
  1 22  1  0
  1 23  1  0
  1 24  1  0
  2 25  1  0
  2 26  1  0
  4 27  1  0
  5 28  1  0
  6 29  1  0
  7 30  1  0
  9 31  1  0
  9 32  1  0
 10 33  1  0
 10 34  1  0
 12 35  1  0
 13 36  1  0
 15 37  1  0
 16 38  1  0
 18 39  1  0
 18 40  1  0
 18 41  1  0
 19 42  1  0
M  CHG  1   9   1
M  END
>  <UniqueID>  (30) 
28

>  <SMILES>  (30) 
CCc1ccccc1[NH2+]Cc1ccc2ccc(C)cc2n1

>  <Energy>  (30) 
45.034821768921304

>  <Genealogy>  (30) 
CCc1ccccc1[NH2+]Cc1ccc2ccc(C)cc2n1 (protonated)
CCc1ccccc1[NH2+]Cc1ccc2ccc(C)cc2n1 (3D coordinates assigned)
CCc1ccccc1[NH2+]Cc1ccc2ccc(C)cc2n1 (optimized conformer: 45.034821768921304 kcal/mol)

>  <smiles>  (30) 
CCc1ccccc1NCc1ccc2ccc(C)cc2n1

>  <score_type>  (30) 
oracle

>  <origin>  (30) 
adg

>  <m_score__min__energy>  (30) 
-7.3499999999999996

>  <m_primary>  (30) 
energy

$$$$
30:0
     RDKit          3D

 23 25  0  0  0  0  0  0  0  0999 V2000
   60.0090   36.8370   45.9510 F   0  0  0  0  0  0  0  0  0  0  0  0
   59.7350   35.5100   46.0130 C   0  0  0  0  0  0  0  0  0  0  0  0
   59.1730   34.8600   44.9100 C   0  0  0  0  0  0  0  0  0  0  0  0
   58.8890   33.4930   44.9720 C   0  0  0  0  0  0  0  0  0  0  0  0
   59.1680   32.7590   46.1380 C   0  0  0  0  0  0  0  0  0  0  0  0
   58.8700   31.3500   46.1990 N   0  0  0  0  0  0  0  0  0  0  0  0
   59.5480   30.3890   46.8820 C   0  0  0  0  0  0  0  0  0  0  0  0
   59.0090   29.1470   46.7520 N   0  0  0  0  0  0  0  0  0  0  0  0
   57.9490   29.3650   45.9530 C   0  0  0  0  0  0  0  0  0  0  0  0
   56.9920   28.4700   45.4970 C   0  0  0  0  0  0  0  0  0  0  0  0
   57.0570   26.7650   45.9020 Cl  0  0  0  0  0  0  0  0  0  0  0  0
   55.9790   28.9620   44.7240 N   0  0  0  0  0  0  0  0  0  0  0  0
   55.9050   30.2950   44.4100 C   0  0  0  0  0  0  0  0  0  0  0  0
   56.8520   31.1690   44.8670 N   0  0  0  0  0  0  0  0  0  0  0  0
   57.8640   30.6750   45.6210 C   0  0  0  0  0  0  0  0  0  0  0  0
   59.7280   33.4250   47.2450 C   0  0  0  0  0  0  0  0  0  0  0  0
   60.0090   34.7920   47.1790 C   0  0  0  0  0  0  0  0  0  0  0  0
   58.9541   35.4254   43.9922 H   0  0  0  0  0  0  0  0  0  0  0  0
   58.4439   32.9878   44.1021 H   0  0  0  0  0  0  0  0  0  0  0  0
   60.4463   30.5963   47.4821 H   0  0  0  0  0  0  0  0  0  0  0  0
   55.0777   30.6637   43.7859 H   0  0  0  0  0  0  0  0  0  0  0  0
   59.9455   32.8659   48.1670 H   0  0  0  0  0  0  0  0  0  0  0  0
   60.4474   35.3043   48.0481 H   0  0  0  0  0  0  0  0  0  0  0  0
  1  2  1  0
  2  3  2  0
  3  4  1  0
  4  5  2  0
  5  6  1  0
  6  7  1  0
  7  8  2  0
  8  9  1  0
  9 10  2  0
 10 11  1  0
 10 12  1  0
 12 13  2  0
 13 14  1  0
 14 15  2  0
  5 16  1  0
 16 17  2  0
 17  2  1  0
 15  6  1  0
 15  9  1  0
  3 18  1  0
  4 19  1  0
  7 20  1  0
 13 21  1  0
 16 22  1  0
 17 23  1  0
M  END
>  <UniqueID>  (31) 
29

>  <SMILES>  (31) 
Fc1ccc(-n2cnc3c(Cl)ncnc32)cc1

>  <Energy>  (31) 
71.5270555815704

>  <Genealogy>  (31) 
Fc1ccc(-n2cnc3c(Cl)ncnc32)cc1 (3D coordinates assigned)
Fc1ccc(-n2cnc3c(Cl)ncnc32)cc1 (optimized conformer: 71.5270555815704 kcal/mol)

>  <smiles>  (31) 
Fc1ccc(-n2cnc3c(Cl)ncnc32)cc1

>  <score_type>  (31) 
oracle

>  <origin>  (31) 
adg

>  <m_score__min__energy>  (31) 
-5.9500000000000002

>  <m_primary>  (31) 
energy

$$$$
31:0
     RDKit          3D

 56 59  0  0  0  0  0  0  0  0999 V2000
   62.2230   34.5270   49.3790 C   0  0  0  0  0  0  0  0  0  0  0  0
   61.3790   33.8020   48.3230 C   0  0  1  0  0  0  0  0  0  0  0  0
   59.8900   34.2130   48.4040 C   0  0  0  0  0  0  0  0  0  0  0  0
   59.5570   35.3080   47.3760 C   0  0  0  0  0  0  0  0  0  0  0  0
   59.7730   34.8650   45.9580 N   0  0  2  0  0  0  0  0  0  0  0  0
   58.4930   34.4010   45.3230 C   0  0  0  0  0  0  0  0  0  0  0  0
   57.4680   33.8100   46.3420 C   0  0  0  0  0  0  0  0  0  0  0  0
   57.8060   32.3640   46.7160 C   0  0  0  0  0  0  0  0  0  0  0  0
   57.8740   31.5120   45.5180 N   0  0  0  0  0  0  0  0  0  0  0  0
   57.7890   30.0770   45.6570 C   0  0  0  0  0  0  0  0  0  0  0  0
   56.7060   29.3650   45.1090 C   0  0  0  0  0  0  0  0  0  0  0  0
   56.6190   27.9770   45.2580 C   0  0  0  0  0  0  0  0  0  0  0  0
   57.6000   27.2780   45.9690 C   0  0  0  0  0  0  0  0  0  0  0  0
   57.4930   25.8520   46.0800 N   0  0  0  0  0  0  0  0  0  0  0  0
   56.4010   25.0500   45.6140 C   0  0  0  0  0  0  0  0  0  0  0  0
   55.2380   25.3180   46.0150 O   0  0  0  0  0  0  0  0  0  0  0  0
   56.6050   23.8830   44.7360 C   0  0  0  0  0  0  0  0  0  0  0  0
   56.1040   23.7140   43.4480 C   0  0  0  0  0  0  0  0  0  0  0  0
   56.5120   22.5170   42.8490 C   0  0  0  0  0  0  0  0  0  0  0  0
   57.3430   21.7440   43.6540 C   0  0  0  0  0  0  0  0  0  0  0  0
   57.5680   22.5530   45.1100 S   0  0  0  0  0  0  0  0  0  0  0  0
   58.6970   27.9800   46.4980 C   0  0  0  0  0  0  0  0  0  0  0  0
   58.7840   29.3670   46.3530 C   0  0  0  0  0  0  0  0  0  0  0  0
   57.8630   32.1350   44.1860 C   0  0  0  0  0  0  0  0  0  0  0  0
   58.7710   33.3720   44.1720 C   0  0  0  0  0  0  0  0  0  0  0  0
   60.8670   33.8540   45.8460 C   0  0  0  0  0  0  0  0  0  0  0  0
   61.9570   34.0420   46.9120 C   0  0  0  0  0  0  0  0  0  0  0  0
   61.8832   34.2351   50.3836 H   0  0  0  0  0  0  0  0  0  0  0  0
   63.2808   34.2516   49.2553 H   0  0  0  0  0  0  0  0  0  0  0  0
   62.1103   35.6142   49.2553 H   0  0  0  0  0  0  0  0  0  0  0  0
   61.4248   32.7231   48.5322 H   0  0  0  0  0  0  0  0  0  0  0  0
   59.6773   34.5929   49.4142 H   0  0  0  0  0  0  0  0  0  0  0  0
   59.2729   33.3296   48.1833 H   0  0  0  0  0  0  0  0  0  0  0  0
   60.1979   36.1801   47.5725 H   0  0  0  0  0  0  0  0  0  0  0  0
   58.4897   35.5502   47.4866 H   0  0  0  0  0  0  0  0  0  0  0  0
   60.0970   35.7080   45.4260 H   0  0  0  0  0  0  0  0  0  0  0  0
   58.0293   35.3035   44.8982 H   0  0  0  0  0  0  0  0  0  0  0  0
   57.4778   34.4251   47.2539 H   0  0  0  0  0  0  0  0  0  0  0  0
   56.4743   33.8174   45.8702 H   0  0  0  0  0  0  0  0  0  0  0  0
   58.7792   32.3429   47.2282 H   0  0  0  0  0  0  0  0  0  0  0  0
   57.0150   31.9785   47.3760 H   0  0  0  0  0  0  0  0  0  0  0  0
   55.9211   29.9046   44.5587 H   0  0  0  0  0  0  0  0  0  0  0  0
   55.7736   27.4316   44.8132 H   0  0  0  0  0  0  0  0  0  0  0  0
   55.4526   24.4480   42.9510 H   0  0  0  0  0  0  0  0  0  0  0  0
   56.2046   22.2154   41.8368 H   0  0  0  0  0  0  0  0  0  0  0  0
   57.7780   20.7705   43.3838 H   0  0  0  0  0  0  0  0  0  0  0  0
   59.4911   27.4345   47.0289 H   0  0  0  0  0  0  0  0  0  0  0  0
   59.6378   29.9082   46.7868 H   0  0  0  0  0  0  0  0  0  0  0  0
   58.2255   31.4097   43.4426 H   0  0  0  0  0  0  0  0  0  0  0  0
   56.8352   32.4414   43.9415 H   0  0  0  0  0  0  0  0  0  0  0  0
   59.8137   33.0329   44.2598 H   0  0  0  0  0  0  0  0  0  0  0  0
   58.5656   33.8981   43.2280 H   0  0  0  0  0  0  0  0  0  0  0  0
   61.3281   33.9427   44.8513 H   0  0  0  0  0  0  0  0  0  0  0  0
   60.4195   32.8608   45.9988 H   0  0  0  0  0  0  0  0  0  0  0  0
   62.3499   35.0676   46.8512 H   0  0  0  0  0  0  0  0  0  0  0  0
   62.7630   33.3161   46.7291 H   0  0  0  0  0  0  0  0  0  0  0  0
  1  2  1  0
  2  3  1  0
  3  4  1  0
  4  5  1  0
  5  6  1  0
  6  7  1  0
  7  8  1  0
  8  9  1  0
  9 10  1  0
 10 11  2  0
 11 12  1  0
 12 13  2  0
 13 14  1  0
 14 15  1  0
 15 16  2  0
 15 17  1  0
 17 18  2  0
 18 19  1  0
 19 20  2  0
 20 21  1  0
 13 22  1  0
 22 23  2  0
  9 24  1  0
 24 25  1  0
  5 26  1  0
 26 27  1  0
 27  2  1  0
 25  6  1  0
 23 10  1  0
 21 17  1  0
  1 28  1  0
  1 29  1  0
  1 30  1  0
  2 31  1  1
  3 32  1  0
  3 33  1  0
  4 34  1  0
  4 35  1  0
  5 36  1  6
  6 37  1  0
  7 38  1  0
  7 39  1  0
  8 40  1  0
  8 41  1  0
 11 42  1  0
 12 43  1  0
 18 44  1  0
 19 45  1  0
 20 46  1  0
 22 47  1  0
 23 48  1  0
 24 49  1  0
 24 50  1  0
 25 51  1  0
 25 52  1  0
 26 53  1  0
 26 54  1  0
 27 55  1  0
 27 56  1  0
M  CHG  2   5   1  14  -1
M  END
>  <UniqueID>  (32) 
30

>  <SMILES>  (32) 
CC1CC[NH+](C2CCN(c3ccc([N-]C(=O)c4cccs4)cc3)CC2)CC1

>  <Energy>  (32) 
109.08553246611838

>  <Genealogy>  (32) 
CC1CC[NH+](C2CCN(c3ccc([N-]C(=O)c4cccs4)cc3)CC2)CC1 (protonated)
CC1CC[NH+](C2CCN(c3ccc([N-]C(=O)c4cccs4)cc3)CC2)CC1 (3D coordinates assigned)
CC1CC[NH+](C2CCN(c3ccc([N-]C(=O)c4cccs4)cc3)CC2)CC1 (nonaromatic ring conformer: 109.08553246611838 kcal/mol)

>  <smiles>  (32) 
CC1CCN(C2CCN(c3ccc(NC(=O)c4cccs4)cc3)CC2)CC1

>  <score_type>  (32) 
oracle

>  <origin>  (32) 
adg

>  <m_score__min__energy>  (32) 
-9.1400000000000006

>  <m_primary>  (32) 
energy

$$$$
32:0
     RDKit          3D

 39 41  0  0  0  0  0  0  0  0999 V2000
   58.6680   34.2130   45.7660 C   0  0  0  0  0  0  0  0  0  0  0  0
   60.0430   34.6680   46.2470 C   0  0  0  0  0  0  0  0  0  0  0  0
   60.3220   34.1750   47.6710 C   0  0  0  0  0  0  0  0  0  0  0  0
   61.8290   34.0060   47.9080 C   0  0  0  0  0  0  0  0  0  0  0  0
   62.3620   32.6970   47.3170 C   0  0  0  0  0  0  0  0  0  0  0  0
   61.2620   31.8210   46.9130 N   0  0  0  0  0  0  0  0  0  0  0  0
   60.8290   30.7020   47.7050 C   0  0  0  0  0  0  0  0  0  0  0  0
   61.3840   30.4630   48.8120 O   0  0  0  0  0  0  0  0  0  0  0  0
   59.7450   29.8110   47.2470 C   0  0  0  0  0  0  0  0  0  0  0  0
   58.6650   30.1520   46.4260 C   0  0  0  0  0  0  0  0  0  0  0  0
   57.8120   29.0670   46.1810 C   0  0  0  0  0  0  0  0  0  0  0  0
   56.6490   29.0780   45.4030 C   0  0  0  0  0  0  0  0  0  0  0  0
   56.2630   30.1320   44.8300 O   0  0  0  0  0  0  0  0  0  0  0  0
   55.9280   27.9280   45.2680 N   0  0  0  0  0  0  0  0  0  0  0  0
   56.3010   26.7600   45.8680 C   0  0  0  0  0  0  0  0  0  0  0  0
   55.5280   25.6060   45.6990 C   0  0  0  0  0  0  0  0  0  0  0  0
   55.9110   24.4080   46.3150 C   0  0  0  0  0  0  0  0  0  0  0  0
   57.0670   24.3580   47.1010 C   0  0  0  0  0  0  0  0  0  0  0  0
   57.8500   25.5030   47.2790 C   0  0  0  0  0  0  0  0  0  0  0  0
   57.4730   26.7090   46.6650 C   0  0  0  0  0  0  0  0  0  0  0  0
   58.2070   27.8900   46.7990 C   0  0  0  0  0  0  0  0  0  0  0  0
   59.6230   28.1750   47.6610 S   0  0  0  0  0  0  0  0  0  0  0  0
   58.0273   34.0010   46.6347 H   0  0  0  0  0  0  0  0  0  0  0  0
   58.2106   35.0077   45.1583 H   0  0  0  0  0  0  0  0  0  0  0  0
   58.7750   33.3024   45.1583 H   0  0  0  0  0  0  0  0  0  0  0  0
   60.8113   34.2652   45.5707 H   0  0  0  0  0  0  0  0  0  0  0  0
   60.0658   35.7678   46.2480 H   0  0  0  0  0  0  0  0  0  0  0  0
   59.9245   34.9068   48.3896 H   0  0  0  0  0  0  0  0  0  0  0  0
   59.8338   33.1986   47.8063 H   0  0  0  0  0  0  0  0  0  0  0  0
   62.3585   34.8484   47.4390 H   0  0  0  0  0  0  0  0  0  0  0  0
   62.0005   33.9818   48.9943 H   0  0  0  0  0  0  0  0  0  0  0  0
   62.9825   32.9250   46.4378 H   0  0  0  0  0  0  0  0  0  0  0  0
   62.9582   32.1817   48.0845 H   0  0  0  0  0  0  0  0  0  0  0  0
   60.8590   31.9750   45.9630 H   0  0  0  0  0  0  0  0  0  0  0  0
   58.5030   31.1605   46.0176 H   0  0  0  0  0  0  0  0  0  0  0  0
   54.6183   25.6398   45.0815 H   0  0  0  0  0  0  0  0  0  0  0  0
   55.3005   23.5030   46.1802 H   0  0  0  0  0  0  0  0  0  0  0  0
   57.3617   23.4134   47.5815 H   0  0  0  0  0  0  0  0  0  0  0  0
   58.7583   25.4594   47.8979 H   0  0  0  0  0  0  0  0  0  0  0  0
  1  2  1  0
  2  3  1  0
  3  4  1  0
  4  5  1  0
  5  6  1  0
  6  7  1  0
  7  8  2  0
  7  9  1  0
  9 10  2  0
 10 11  1  0
 11 12  1  0
 12 13  2  0
 12 14  1  0
 14 15  1  0
 15 16  2  0
 16 17  1  0
 17 18  2  0
 18 19  1  0
 19 20  2  0
 20 21  1  0
 21 22  1  0
 22  9  1  0
 21 11  2  0
 20 15  1  0
  1 23  1  0
  1 24  1  0
  1 25  1  0
  2 26  1  0
  2 27  1  0
  3 28  1  0
  3 29  1  0
  4 30  1  0
  4 31  1  0
  5 32  1  0
  5 33  1  0
  6 34  1  0
 10 35  1  0
 16 36  1  0
 17 37  1  0
 18 38  1  0
 19 39  1  0
M  CHG  1  14  -1
M  END
>  <UniqueID>  (33) 
31

>  <SMILES>  (33) 
CCCCCNC(=O)c1cc2c(=O)[n-]c3ccccc3c2s1

>  <Energy>  (33) 
66.2272654779295

>  <Genealogy>  (33) 
CCCCCNC(=O)c1cc2c(=O)[n-]c3ccccc3c2s1 (protonated)
CCCCCNC(=O)c1cc2c(=O)[n-]c3ccccc3c2s1 (3D coordinates assigned)
CCCCCNC(=O)c1cc2c(=O)[n-]c3ccccc3c2s1 (optimized conformer: 66.2272654779295 kcal/mol)

>  <smiles>  (33) 
CCCCCNC(=O)c1cc2c(=O)[nH]c3ccccc3c2s1

>  <score_type>  (33) 
oracle

>  <origin>  (33) 
adg

>  <m_score__min__energy>  (33) 
-8.8300000000000001

>  <m_primary>  (33) 
energy

$$$$
33:0
     RDKit          3D

 35 37  0  0  0  0  0  0  0  0999 V2000
   56.2630   29.4700   42.5160 C   0  0  0  0  0  0  0  0  0  0  0  0
   56.7170   30.3570   43.6270 C   0  0  0  0  0  0  0  0  0  0  0  0
   56.5250   30.0850   44.9350 N   0  0  0  0  0  0  0  0  0  0  0  0
   57.1200   31.0280   45.6100 O   0  0  0  0  0  0  0  0  0  0  0  0
   57.6930   31.8850   44.7990 C   0  0  0  0  0  0  0  0  0  0  0  0
   58.3880   32.9150   45.1690 N   0  0  0  0  0  0  0  0  0  0  0  0
   58.7780   33.2860   46.8200 S   0  0  0  0  0  0  0  0  0  0  0  0
   57.9650   32.4510   47.7710 O   0  0  0  0  0  0  0  0  0  0  0  0
   58.4670   34.7360   47.0630 O   0  0  0  0  0  0  0  0  0  0  0  0
   60.4960   32.9690   47.1060 C   0  0  0  0  0  0  0  0  0  0  0  0
   61.3550   34.0560   47.3350 C   0  0  0  0  0  0  0  0  0  0  0  0
   62.7250   33.8540   47.5180 C   0  0  0  0  0  0  0  0  0  0  0  0
   63.2540   32.5650   47.4740 C   0  0  0  0  0  0  0  0  0  0  0  0
   62.4140   31.4710   47.2570 C   0  0  0  0  0  0  0  0  0  0  0  0
   61.0330   31.6560   47.0830 C   0  0  0  0  0  0  0  0  0  0  0  0
   60.1860   30.4640   46.8810 C   0  0  0  0  0  0  0  0  0  0  0  0
   59.4220   29.9470   47.9390 C   0  0  0  0  0  0  0  0  0  0  0  0
   58.6140   28.8220   47.7390 C   0  0  0  0  0  0  0  0  0  0  0  0
   58.5760   28.2020   46.4870 C   0  0  0  0  0  0  0  0  0  0  0  0
   59.3500   28.7000   45.4350 C   0  0  0  0  0  0  0  0  0  0  0  0
   60.1590   29.8240   45.6320 C   0  0  0  0  0  0  0  0  0  0  0  0
   57.4680   31.5090   43.4970 C   0  0  0  0  0  0  0  0  0  0  0  0
   58.1190   32.3320   41.9010 Br  0  0  0  0  0  0  0  0  0  0  0  0
   55.7997   28.5648   42.9355 H   0  0  0  0  0  0  0  0  0  0  0  0
   55.5278   30.0049   41.8968 H   0  0  0  0  0  0  0  0  0  0  0  0
   57.1268   29.1865   41.8968 H   0  0  0  0  0  0  0  0  0  0  0  0
   60.9452   35.0762   47.3706 H   0  0  0  0  0  0  0  0  0  0  0  0
   63.3876   34.7136   47.6972 H   0  0  0  0  0  0  0  0  0  0  0  0
   64.3344   32.4096   47.6104 H   0  0  0  0  0  0  0  0  0  0  0  0
   62.8374   30.4563   47.2221 H   0  0  0  0  0  0  0  0  0  0  0  0
   59.4585   30.4274   48.9279 H   0  0  0  0  0  0  0  0  0  0  0  0
   58.0086   28.4256   48.5675 H   0  0  0  0  0  0  0  0  0  0  0  0
   57.9363   27.3211   46.3293 H   0  0  0  0  0  0  0  0  0  0  0  0
   59.3229   28.2077   44.4517 H   0  0  0  0  0  0  0  0  0  0  0  0
   60.7758   30.2074   44.8058 H   0  0  0  0  0  0  0  0  0  0  0  0
  1  2  1  0
  2  3  1  0
  3  4  1  0
  4  5  1  0
  5  6  2  3
  6  7  1  0
  7  8  2  0
  7  9  2  0
  7 10  1  0
 10 11  2  0
 11 12  1  0
 12 13  2  0
 13 14  1  0
 14 15  2  0
 15 16  1  0
 16 17  2  0
 17 18  1  0
 18 19  2  0
 19 20  1  0
 20 21  2  0
  5 22  1  0
 22 23  1  0
 22  2  2  0
 15 10  1  0
 21 16  1  0
  1 24  1  0
  1 25  1  0
  1 26  1  0
 11 27  1  0
 12 28  1  0
 13 29  1  0
 14 30  1  0
 17 31  1  0
 18 32  1  0
 19 33  1  0
 20 34  1  0
 21 35  1  0
M  CHG  1   3  -1
M  END
>  <UniqueID>  (34) 
32

>  <SMILES>  (34) 
Cc1[n-]oc(=NS(=O)(=O)c2ccccc2-c2ccccc2)c1Br

>  <Energy>  (34) 
77.32137190284863

>  <Genealogy>  (34) 
Cc1[n-]oc(=NS(=O)(=O)c2ccccc2-c2ccccc2)c1Br (protonated)
Cc1[n-]oc(=NS(=O)(=O)c2ccccc2-c2ccccc2)c1Br (3D coordinates assigned)
Cc1[n-]oc(=NS(=O)(=O)c2ccccc2-c2ccccc2)c1Br (optimized conformer: 77.32137190284863 kcal/mol)

>  <smiles>  (34) 
Cc1[nH]oc(=NS(=O)(=O)c2ccccc2-c2ccccc2)c1Br

>  <score_type>  (34) 
oracle

>  <origin>  (34) 
adg

>  <m_score__min__energy>  (34) 
-11.52

>  <m_primary>  (34) 
energy

$$$$
34:0
     RDKit          3D

 20 20  0  0  0  0  0  0  0  0999 V2000
   54.7520   30.4680   44.7190 H   0  0  0  0  0  0  0  0  0  0  0  0
   55.7790   30.2880   44.8010 N   0  0  0  0  0  0  0  0  0  0  0  0
   56.5580   30.2730   43.7650 C   0  0  0  0  0  0  0  0  0  0  0  0
   57.7820   31.0270   43.7660 N   0  0  0  0  0  0  0  0  0  0  0  0
   58.5390   30.7230   43.1120 H   0  0  0  0  0  0  0  0  0  0  0  0
   58.0690   32.1080   44.6710 C   0  0  0  0  0  0  0  0  0  0  0  0
   58.2150   33.4080   44.1650 C   0  0  0  0  0  0  0  0  0  0  0  0
   58.1268   33.5864   43.0831 H   0  0  0  0  0  0  0  0  0  0  0  0
   58.4720   34.4790   45.0270 C   0  0  0  0  0  0  0  0  0  0  0  0
   58.5971   35.4936   44.6209 H   0  0  0  0  0  0  0  0  0  0  0  0
   58.5700   34.2610   46.4040 C   0  0  0  0  0  0  0  0  0  0  0  0
   58.7787   35.1026   47.0808 H   0  0  0  0  0  0  0  0  0  0  0  0
   58.4030   32.9750   46.9200 C   0  0  0  0  0  0  0  0  0  0  0  0
   58.4728   32.8056   48.0046 H   0  0  0  0  0  0  0  0  0  0  0  0
   58.1470   31.9010   46.0610 C   0  0  0  0  0  0  0  0  0  0  0  0
   58.0061   30.8910   46.4734 H   0  0  0  0  0  0  0  0  0  0  0  0
   56.2630   29.3500   42.6210 C   0  0  0  0  0  0  0  0  0  0  0  0
   55.9499   28.3705   43.0115 H   0  0  0  0  0  0  0  0  0  0  0  0
   55.4558   29.7746   42.0061 H   0  0  0  0  0  0  0  0  0  0  0  0
   57.1668   29.2277   42.0061 H   0  0  0  0  0  0  0  0  0  0  0  0
  1  2  1  0
  2  3  2  0
  3  4  1  0
  4  5  1  0
  4  6  1  0
  6  7  2  0
  7  8  1  0
  7  9  1  0
  9 10  1  0
  9 11  2  0
 11 12  1  0
 11 13  1  0
 13 14  1  0
 13 15  2  0
 15 16  1  0
  3 17  1  0
 17 18  1  0
 17 19  1  0
 17 20  1  0
 15  6  1  0
M  END
>  <UniqueID>  (35) 
33

>  <SMILES>  (35) 
[H]/N=C(\C)Nc1ccccc1

>  <Energy>  (35) 
20.2101666494962

>  <Genealogy>  (35) 
[H]/N=C(\C)Nc1ccccc1 (cis-trans isomerization)
[H]/N=C(\C)Nc1ccccc1 (3D coordinates assigned)
[H]/N=C(\C)Nc1ccccc1 (optimized conformer: 20.2101666494962 kcal/mol)

>  <smiles>  (35) 
CC(=N)Nc1ccccc1

>  <score_type>  (35) 
oracle

>  <origin>  (35) 
adg

>  <m_score__min__energy>  (35) 
-5.0899999999999999

>  <m_primary>  (35) 
energy

$$$$
35:0
     RDKit          3D

 49 52  0  0  0  0  0  0  0  0999 V2000
   65.7230   32.1280   50.3940 C   0  0  0  0  0  0  0  0  0  0  0  0
   65.3360   32.8540   49.2330 O   0  0  0  0  0  0  0  0  0  0  0  0
   64.0240   33.2710   48.9640 C   0  0  0  0  0  0  0  0  0  0  0  0
   63.2350   33.7390   50.0430 C   0  0  0  0  0  0  0  0  0  0  0  0
   61.9120   34.1730   49.8360 C   0  0  0  0  0  0  0  0  0  0  0  0
   61.4110   34.1250   48.5390 C   0  0  0  0  0  0  0  0  0  0  0  0
   60.1810   34.4740   48.0330 C   0  0  0  0  0  0  0  0  0  0  0  0
   60.2800   34.2020   46.6690 C   0  0  0  0  0  0  0  0  0  0  0  0
   59.2110   34.4110   45.6740 C   0  0  0  0  0  0  0  0  0  0  0  0
   59.2770   35.4040   44.9000 O   0  0  0  0  0  0  0  0  0  0  0  0
   58.0410   33.4580   45.5480 C   0  0  0  0  0  0  0  0  0  0  0  0
   57.9420   32.4890   46.7600 C   0  0  0  0  0  0  0  0  0  0  0  0
   58.1520   31.0160   46.3840 C   0  0  0  0  0  0  0  0  0  0  0  0
   57.2950   30.6420   45.2490 N   0  0  0  0  0  0  0  0  0  0  0  0
   56.6740   29.3460   45.2010 C   0  0  0  0  0  0  0  0  0  0  0  0
   55.5240   29.2220   44.7020 O   0  0  0  0  0  0  0  0  0  0  0  0
   57.3190   28.1880   45.7470 N   0  0  0  0  0  0  0  0  0  0  0  0
   57.0280   26.8290   45.3920 C   0  0  0  0  0  0  0  0  0  0  0  0
   55.9490   26.1830   46.0070 C   0  0  0  0  0  0  0  0  0  0  0  0
   55.6310   24.8630   45.6700 C   0  0  0  0  0  0  0  0  0  0  0  0
   56.3820   24.1880   44.7040 C   0  0  0  0  0  0  0  0  0  0  0  0
   57.4470   24.8320   44.0700 C   0  0  0  0  0  0  0  0  0  0  0  0
   57.7660   26.1510   44.4040 C   0  0  0  0  0  0  0  0  0  0  0  0
   57.0630   31.5850   44.1470 C   0  0  0  0  0  0  0  0  0  0  0  0
   58.0710   32.7370   44.1830 C   0  0  0  0  0  0  0  0  0  0  0  0
   61.4760   33.7260   46.3790 O   0  0  0  0  0  0  0  0  0  0  0  0
   62.1640   33.6740   47.4900 C   0  0  0  0  0  0  0  0  0  0  0  0
   63.4740   33.2370   47.6590 C   0  0  0  0  0  0  0  0  0  0  0  0
   65.4247   32.6876   51.2928 H   0  0  0  0  0  0  0  0  0  0  0  0
   65.2292   31.1451   50.3934 H   0  0  0  0  0  0  0  0  0  0  0  0
   66.8143   31.9901   50.3934 H   0  0  0  0  0  0  0  0  0  0  0  0
   63.6618   33.7637   51.0565 H   0  0  0  0  0  0  0  0  0  0  0  0
   61.2956   34.5375   50.6709 H   0  0  0  0  0  0  0  0  0  0  0  0
   59.3156   34.8763   48.5800 H   0  0  0  0  0  0  0  0  0  0  0  0
   57.1117   34.0459   45.5753 H   0  0  0  0  0  0  0  0  0  0  0  0
   58.7080   32.7731   47.4965 H   0  0  0  0  0  0  0  0  0  0  0  0
   56.9225   32.5781   47.1634 H   0  0  0  0  0  0  0  0  0  0  0  0
   59.2053   30.8605   46.1078 H   0  0  0  0  0  0  0  0  0  0  0  0
   57.8876   30.3892   47.2484 H   0  0  0  0  0  0  0  0  0  0  0  0
   55.3483   26.7159   46.7588 H   0  0  0  0  0  0  0  0  0  0  0  0
   54.7897   24.3564   46.1655 H   0  0  0  0  0  0  0  0  0  0  0  0
   56.1342   23.1486   44.4427 H   0  0  0  0  0  0  0  0  0  0  0  0
   58.0351   24.3006   43.3073 H   0  0  0  0  0  0  0  0  0  0  0  0
   58.5963   26.6607   43.8932 H   0  0  0  0  0  0  0  0  0  0  0  0
   57.1626   31.0508   43.1906 H   0  0  0  0  0  0  0  0  0  0  0  0
   56.0514   32.0037   44.2538 H   0  0  0  0  0  0  0  0  0  0  0  0
   59.0808   32.3366   44.0101 H   0  0  0  0  0  0  0  0  0  0  0  0
   57.8032   33.4608   43.3991 H   0  0  0  0  0  0  0  0  0  0  0  0
   64.0651   32.8758   46.8046 H   0  0  0  0  0  0  0  0  0  0  0  0
  1  2  1  0
  2  3  1  0
  3  4  2  0
  4  5  1  0
  5  6  2  0
  6  7  1  0
  7  8  2  0
  8  9  1  0
  9 10  2  0
  9 11  1  0
 11 12  1  0
 12 13  1  0
 13 14  1  0
 14 15  1  0
 15 16  2  0
 15 17  1  0
 17 18  1  0
 18 19  2  0
 19 20  1  0
 20 21  2  0
 21 22  1  0
 22 23  2  0
 14 24  1  0
 24 25  1  0
  8 26  1  0
 26 27  1  0
 27 28  2  0
 28  3  1  0
 27  6  1  0
 25 11  1  0
 23 18  1  0
  1 29  1  0
  1 30  1  0
  1 31  1  0
  4 32  1  0
  5 33  1  0
  7 34  1  0
 11 35  1  0
 12 36  1  0
 12 37  1  0
 13 38  1  0
 13 39  1  0
 19 40  1  0
 20 41  1  0
 21 42  1  0
 22 43  1  0
 23 44  1  0
 24 45  1  0
 24 46  1  0
 25 47  1  0
 25 48  1  0
 28 49  1  0
M  CHG  1  17  -1
M  END
>  <UniqueID>  (36) 
34

>  <SMILES>  (36) 
COc1ccc2cc(C(=O)C3CCN(C(=O)[N-]c4ccccc4)CC3)oc2c1

>  <Energy>  (36) 
89.0903356778586

>  <Genealogy>  (36) 
COc1ccc2cc(C(=O)C3CCN(C(=O)[N-]c4ccccc4)CC3)oc2c1 (protonated)
COc1ccc2cc(C(=O)C3CCN(C(=O)[N-]c4ccccc4)CC3)oc2c1 (3D coordinates assigned)
COc1ccc2cc(C(=O)C3CCN(C(=O)[N-]c4ccccc4)CC3)oc2c1 (nonaromatic ring conformer: 89.0903356778586 kcal/mol)

>  <smiles>  (36) 
COc1ccc2cc(C(=O)C3CCN(C(=O)Nc4ccccc4)CC3)oc2c1

>  <score_type>  (36) 
oracle

>  <origin>  (36) 
adg

>  <m_score__min__energy>  (36) 
-10.58

>  <m_primary>  (36) 
energy

$$$$
36:0
     RDKit          3D

 27 29  0  0  0  0  0  0  0  0999 V2000
   57.4880   32.3290   40.5880 C   0  0  0  0  0  0  0  0  0  0  0  0
   57.4460   32.1110   42.0670 C   0  0  0  0  0  0  0  0  0  0  0  0
   56.6470   31.0780   42.6080 C   0  0  0  0  0  0  0  0  0  0  0  0
   56.6300   30.8970   43.9990 C   0  0  0  0  0  0  0  0  0  0  0  0
   55.9320   29.9880   44.5250 O   0  0  0  0  0  0  0  0  0  0  0  0
   57.3870   31.7270   44.7600 N   0  0  0  0  0  0  0  0  0  0  0  0
   57.5210   31.7360   46.0740 N   0  0  0  0  0  0  0  0  0  0  0  0
   58.3820   32.7350   46.3940 C   0  0  0  0  0  0  0  0  0  0  0  0
   58.8010   33.0770   47.7770 C   0  0  0  0  0  0  0  0  0  0  0  0
   59.5660   34.2290   48.0320 C   0  0  0  0  0  0  0  0  0  0  0  0
   59.9490   34.5300   49.3410 C   0  0  0  0  0  0  0  0  0  0  0  0
   59.5860   33.7140   50.3650 N   0  0  0  0  0  0  0  0  0  0  0  0
   58.8480   32.5940   50.1520 C   0  0  0  0  0  0  0  0  0  0  0  0
   58.4430   32.2540   48.8590 C   0  0  0  0  0  0  0  0  0  0  0  0
   58.8030   33.3780   45.2240 C   0  0  0  0  0  0  0  0  0  0  0  0
   58.1380   32.6960   44.2290 C   0  0  0  0  0  0  0  0  0  0  0  0
   58.1880   32.9100   42.8920 N   0  0  0  0  0  0  0  0  0  0  0  0
   57.6923   33.3895   40.3794 H   0  0  0  0  0  0  0  0  0  0  0  0
   58.2832   31.7090   40.1484 H   0  0  0  0  0  0  0  0  0  0  0  0
   56.5194   32.0488   40.1484 H   0  0  0  0  0  0  0  0  0  0  0  0
   56.0500   30.4285   41.9509 H   0  0  0  0  0  0  0  0  0  0  0  0
   57.0520   31.0650   46.7230 H   0  0  0  0  0  0  0  0  0  0  0  0
   59.8615   34.8903   47.2041 H   0  0  0  0  0  0  0  0  0  0  0  0
   60.5467   35.4309   49.5437 H   0  0  0  0  0  0  0  0  0  0  0  0
   58.5682   31.9524   51.0005 H   0  0  0  0  0  0  0  0  0  0  0  0
   57.8463   31.3458   48.6882 H   0  0  0  0  0  0  0  0  0  0  0  0
   59.4980   34.2246   45.1234 H   0  0  0  0  0  0  0  0  0  0  0  0
  1  2  1  0
  2  3  2  0
  3  4  1  0
  4  5  2  0
  4  6  1  0
  6  7  1  0
  7  8  2  0
  8  9  1  0
  9 10  2  0
 10 11  1  0
 11 12  2  0
 12 13  1  0
 13 14  2  0
  8 15  1  0
 15 16  2  0
 16 17  1  0
 17  2  1  0
 16  6  1  0
 14  9  1  0
  1 18  1  0
  1 19  1  0
  1 20  1  0
  3 21  1  0
  7 22  1  0
 10 23  1  0
 11 24  1  0
 13 25  1  0
 14 26  1  0
 15 27  1  0
M  CHG  2   7   1  17  -1
M  END
>  <UniqueID>  (37) 
35

>  <SMILES>  (37) 
Cc1cc(=O)n2[nH+]c(-c3ccncc3)cc2[n-]1

>  <Energy>  (37) 
70.00933020573953

>  <Genealogy>  (37) 
Cc1cc(=O)n2[nH+]c(-c3ccncc3)cc2[n-]1 (protonated)
Cc1cc(=O)n2[nH+]c(-c3ccncc3)cc2[n-]1 (3D coordinates assigned)
Cc1cc(=O)n2[nH+]c(-c3ccncc3)cc2[n-]1 (optimized conformer: 70.00933020573953 kcal/mol)

>  <smiles>  (37) 
Cc1cc(=O)n2nc(-c3ccncc3)cc2[nH]1

>  <score_type>  (37) 
oracle

>  <origin>  (37) 
adg

>  <m_score__min__energy>  (37) 
-5.96

>  <m_primary>  (37) 
energy

$$$$
37:0
     RDKit          3D

 35 37  0  0  0  0  0  0  0  0999 V2000
   56.8569   33.5204   46.0416 H   0  0  0  0  0  0  0  0  0  0  0  0
   57.4960   32.6970   45.6900 C   0  0  0  0  0  0  0  0  0  0  0  0
   56.9430   31.7900   44.8700 C   0  0  0  0  0  0  0  0  0  0  0  0
   56.1002   32.1206   44.2452 H   0  0  0  0  0  0  0  0  0  0  0  0
   57.3740   30.3860   44.7390 C   0  0  0  0  0  0  0  0  0  0  0  0
   57.0830   29.4410   45.6560 N   0  0  0  0  0  0  0  0  0  0  0  0
   57.6050   28.3300   45.0900 C   0  0  0  0  0  0  0  0  0  0  0  0
   57.5730   26.9780   45.6960 C   0  0  0  0  0  0  0  0  0  0  0  0
   58.7760   26.2660   45.8470 C   0  0  0  0  0  0  0  0  0  0  0  0
   59.7224   26.7183   45.5158 H   0  0  0  0  0  0  0  0  0  0  0  0
   58.7800   24.9890   46.4140 C   0  0  0  0  0  0  0  0  0  0  0  0
   59.7273   24.4412   46.5265 H   0  0  0  0  0  0  0  0  0  0  0  0
   57.5840   24.4070   46.8380 C   0  0  0  0  0  0  0  0  0  0  0  0
   57.5894   23.4018   47.2847 H   0  0  0  0  0  0  0  0  0  0  0  0
   56.3810   25.1010   46.6950 C   0  0  0  0  0  0  0  0  0  0  0  0
   55.4399   24.6400   47.0294 H   0  0  0  0  0  0  0  0  0  0  0  0
   56.3670   26.3810   46.1280 C   0  0  0  0  0  0  0  0  0  0  0  0
   55.1500   27.0430   46.0020 O   0  0  0  0  0  0  0  0  0  0  0  0
   58.1430   28.5970   43.9220 O   0  0  0  0  0  0  0  0  0  0  0  0
   58.0110   29.8610   43.6750 N   0  0  0  0  0  0  0  0  0  0  0  0
   58.3090   30.3350   42.7940 H   0  0  0  0  0  0  0  0  0  0  0  0
   58.9020   32.6740   46.1580 C   0  0  0  0  0  0  0  0  0  0  0  0
   59.3890   31.5530   46.8530 C   0  0  0  0  0  0  0  0  0  0  0  0
   58.7323   30.6862   47.0186 H   0  0  0  0  0  0  0  0  0  0  0  0
   60.7000   31.5310   47.3350 C   0  0  0  0  0  0  0  0  0  0  0  0
   61.0761   30.6427   47.8636 H   0  0  0  0  0  0  0  0  0  0  0  0
   61.5320   32.6330   47.1470 C   0  0  0  0  0  0  0  0  0  0  0  0
   62.5645   32.6124   47.5259 H   0  0  0  0  0  0  0  0  0  0  0  0
   61.0570   33.7640   46.4780 C   0  0  0  0  0  0  0  0  0  0  0  0
   61.7158   34.6343   46.3414 H   0  0  0  0  0  0  0  0  0  0  0  0
   59.7430   33.7980   45.9780 C   0  0  0  0  0  0  0  0  0  0  0  0
   59.2570   35.0330   45.2670 C   0  0  0  0  0  0  0  0  0  0  0  0
   58.9593   35.7895   46.0080 H   0  0  0  0  0  0  0  0  0  0  0  0
   60.0641   35.4348   44.6368 H   0  0  0  0  0  0  0  0  0  0  0  0
   58.3926   34.7770   44.6368 H   0  0  0  0  0  0  0  0  0  0  0  0
  1  2  1  0
  2  3  2  0
  3  4  1  0
  3  5  1  0
  5  6  1  0
  6  7  2  0
  7  8  1  0
  8  9  2  0
  9 10  1  0
  9 11  1  0
 11 12  1  0
 11 13  2  0
 13 14  1  0
 13 15  1  0
 15 16  1  0
 15 17  2  0
 17 18  1  0
  7 19  1  0
 19 20  1  0
 20 21  1  0
  2 22  1  0
 22 23  2  0
 23 24  1  0
 23 25  1  0
 25 26  1  0
 25 27  2  0
 27 28  1  0
 27 29  1  0
 29 30  1  0
 29 31  2  0
 31 32  1  0
 32 33  1  0
 32 34  1  0
 32 35  1  0
 20  5  2  0
 31 22  1  0
 17  8  1  0
M  CHG  2  18  -1  20   1
M  END
>  <UniqueID>  (38) 
36

>  <SMILES>  (38) 
Cc1ccccc1/C=C\c1nc(-c2ccccc2[O-])o[nH+]1

>  <Energy>  (38) 
82.05330580094667

>  <Genealogy>  (38) 
Cc1ccccc1C=Cc1nc(-c2ccccc2[O-])o[nH+]1 (protonated)
Cc1ccccc1/C=C\c1nc(-c2ccccc2[O-])o[nH+]1 (cis-trans isomerization)
Cc1ccccc1/C=C\c1nc(-c2ccccc2[O-])o[nH+]1 (3D coordinates assigned)
Cc1ccccc1/C=C\c1nc(-c2ccccc2[O-])o[nH+]1 (optimized conformer: 82.05330580094667 kcal/mol)

>  <smiles>  (38) 
Cc1ccccc1C=Cc1noc(-c2ccccc2O)n1

>  <score_type>  (38) 
oracle

>  <origin>  (38) 
adg

>  <m_score__min__energy>  (38) 
-11.199999999999999

>  <m_primary>  (38) 
energy

$$$$
38:0
     RDKit          3D

 37 40  0  0  0  0  0  0  0  0999 V2000
   59.3260   33.2820   53.0030 C   0  0  0  0  0  0  0  0  0  0  0  0
   58.1760   32.3200   53.0110 C   0  0  0  0  0  0  0  0  0  0  0  0
   57.3980   32.1380   51.8610 C   0  0  0  0  0  0  0  0  0  0  0  0
   56.3490   31.2140   51.8560 C   0  0  0  0  0  0  0  0  0  0  0  0
   56.0620   30.4340   52.9960 C   0  0  0  0  0  0  0  0  0  0  0  0
   54.9670   29.4770   52.9740 N   0  0  0  0  0  0  0  0  0  0  0  0
   55.1400   28.0800   53.3660 C   0  0  0  0  0  0  0  0  0  0  0  0
   53.7950   27.4040   53.1480 C   0  0  0  0  0  0  0  0  0  0  0  0
   52.7830   28.5360   53.1580 C   0  0  0  0  0  0  0  0  0  0  0  0
   53.5620   29.7560   52.6480 C   0  0  2  0  0  0  0  0  0  0  0  0
   53.3400   29.9700   51.1070 C   0  0  0  0  0  0  0  0  0  0  0  0
   52.5540   31.2340   51.0900 C   0  0  0  0  0  0  0  0  0  0  0  0
   52.4440   31.7580   52.3210 C   0  0  0  0  0  0  0  0  0  0  0  0
   51.2370   32.4220   52.3940 C   0  0  0  0  0  0  0  0  0  0  0  0
   50.6430   32.3280   51.2190 O   0  0  0  0  0  0  0  0  0  0  0  0
   51.3980   31.5860   50.4330 C   0  0  0  0  0  0  0  0  0  0  0  0
   51.0190   31.1520   49.1690 O   0  0  0  0  0  0  0  0  0  0  0  0
   53.0750   30.9750   53.3110 N   0  0  0  0  0  0  0  0  0  0  0  0
   56.8610   30.6210   54.1430 C   0  0  0  0  0  0  0  0  0  0  0  0
   57.9090   31.5450   54.1450 C   0  0  0  0  0  0  0  0  0  0  0  0
   59.6115   33.5208   54.0381 H   0  0  0  0  0  0  0  0  0  0  0  0
   60.1814   32.8266   52.4825 H   0  0  0  0  0  0  0  0  0  0  0  0
   59.0288   34.2044   52.4825 H   0  0  0  0  0  0  0  0  0  0  0  0
   57.6135   32.7255   50.9564 H   0  0  0  0  0  0  0  0  0  0  0  0
   55.7380   31.0932   50.9493 H   0  0  0  0  0  0  0  0  0  0  0  0
   55.9112   27.6027   52.7435 H   0  0  0  0  0  0  0  0  0  0  0  0
   55.4634   27.9967   54.4141 H   0  0  0  0  0  0  0  0  0  0  0  0
   53.7781   26.8782   52.1819 H   0  0  0  0  0  0  0  0  0  0  0  0
   53.5806   26.6498   53.9195 H   0  0  0  0  0  0  0  0  0  0  0  0
   51.9385   28.3079   52.4910 H   0  0  0  0  0  0  0  0  0  0  0  0
   52.3536   28.7029   54.1569 H   0  0  0  0  0  0  0  0  0  0  0  0
   54.2964   30.0850   50.5759 H   0  0  0  0  0  0  0  0  0  0  0  0
   52.8422   29.1270   50.6055 H   0  0  0  0  0  0  0  0  0  0  0  0
   50.8384   32.9403   53.2786 H   0  0  0  0  0  0  0  0  0  0  0  0
   52.9470   31.0960   54.3400 H   0  0  0  0  0  0  0  0  0  0  0  0
   56.6563   30.0312   55.0486 H   0  0  0  0  0  0  0  0  0  0  0  0
   58.5293   31.6642   55.0455 H   0  0  0  0  0  0  0  0  0  0  0  0
  1  2  1  0
  2  3  2  0
  3  4  1  0
  4  5  2  0
  5  6  1  0
  6  7  1  0
  7  8  1  0
  8  9  1  0
  9 10  1  0
 10 11  1  0
 11 12  1  0
 12 13  1  0
 13 14  2  0
 14 15  1  0
 15 16  1  0
 16 17  1  0
 13 18  1  0
  5 19  1  0
 19 20  2  0
 20  2  1  0
 10  6  1  6
 16 12  2  0
 18 10  1  0
  1 21  1  0
  1 22  1  0
  1 23  1  0
  3 24  1  0
  4 25  1  0
  7 26  1  0
  7 27  1  0
  8 28  1  0
  8 29  1  0
  9 30  1  0
  9 31  1  0
 11 32  1  0
 11 33  1  0
 14 34  1  0
 18 35  1  0
 19 36  1  0
 20 37  1  0
M  CHG  1  17  -1
M  END
>  <UniqueID>  (39) 
37

>  <SMILES>  (39) 
Cc1ccc(N2CCC[C@]23Cc2c(coc2[O-])N3)cc1

>  <Energy>  (39) 
106.79515114268641

>  <Genealogy>  (39) 
Cc1ccc(N2CCCC23Cc2c(coc2[O-])N3)cc1 (protonated)
Cc1ccc(N2CCC[C@]23Cc2c(coc2[O-])N3)cc1 (chirality)
Cc1ccc(N2CCC[C@]23Cc2c(coc2[O-])N3)cc1 (3D coordinates assigned)
Cc1ccc(N2CCC[C@]23Cc2c(coc2[O-])N3)cc1 (nonaromatic ring conformer: 106.79515114268641 kcal/mol)

>  <smiles>  (39) 
Cc1ccc(N2CCCC23Cc2c(coc2O)N3)cc1

>  <score_type>  (39) 
oracle

>  <origin>  (39) 
adg

>  <m_score__min__energy>  (39) 
-9.6300000000000008

>  <m_primary>  (39) 
energy

$$$$
39:0
     RDKit          3D

 36 39  0  0  0  0  0  0  0  0999 V2000
   59.6860   35.3690   46.4350 C   0  0  0  0  0  0  0  0  0  0  0  0
   58.9180   34.3130   45.7820 N   0  0  0  0  0  0  0  0  0  0  0  0
   57.9280   34.5200   44.8800 C   0  0  0  0  0  0  0  0  0  0  0  0
   57.3940   33.3130   44.4510 C   0  0  0  0  0  0  0  0  0  0  0  0
   58.1010   32.3440   45.1290 C   0  0  0  0  0  0  0  0  0  0  0  0
   57.9760   30.9630   45.0850 C   0  0  0  0  0  0  0  0  0  0  0  0
   58.8390   30.1990   45.9010 C   0  0  0  0  0  0  0  0  0  0  0  0
   58.7620   28.7160   45.9050 C   0  0  0  0  0  0  0  0  0  0  0  0
   59.8170   27.8210   46.1040 C   0  0  0  0  0  0  0  0  0  0  0  0
   59.4300   26.4760   46.0500 C   0  0  0  0  0  0  0  0  0  0  0  0
   58.0760   26.3040   45.8080 C   0  0  0  0  0  0  0  0  0  0  0  0
   57.1690   24.6340   45.6600 Br  0  0  0  0  0  0  0  0  0  0  0  0
   57.3580   27.8120   45.6600 S   0  0  0  0  0  0  0  0  0  0  0  0
   59.7650   30.8420   46.6930 N   0  0  0  0  0  0  0  0  0  0  0  0
   59.8860   32.2070   46.7270 C   0  0  0  0  0  0  0  0  0  0  0  0
   60.9110   32.8130   47.5920 C   0  0  0  0  0  0  0  0  0  0  0  0
   60.5620   33.2960   48.8620 C   0  0  0  0  0  0  0  0  0  0  0  0
   61.5400   33.8500   49.6930 C   0  0  0  0  0  0  0  0  0  0  0  0
   62.8700   33.9110   49.2660 C   0  0  0  0  0  0  0  0  0  0  0  0
   63.2240   33.4150   48.0080 C   0  0  0  0  0  0  0  0  0  0  0  0
   64.5150   33.4690   47.5960 F   0  0  0  0  0  0  0  0  0  0  0  0
   62.2480   32.8600   47.1740 C   0  0  0  0  0  0  0  0  0  0  0  0
   59.0230   32.9700   45.9230 C   0  0  0  0  0  0  0  0  0  0  0  0
   59.6060   35.2591   47.5266 H   0  0  0  0  0  0  0  0  0  0  0  0
   60.7417   35.2935   46.1352 H   0  0  0  0  0  0  0  0  0  0  0  0
   59.2889   36.3501   46.1352 H   0  0  0  0  0  0  0  0  0  0  0  0
   57.5934   35.5095   44.5350 H   0  0  0  0  0  0  0  0  0  0  0  0
   56.5810   33.1623   43.7255 H   0  0  0  0  0  0  0  0  0  0  0  0
   57.2302   30.4797   44.4367 H   0  0  0  0  0  0  0  0  0  0  0  0
   60.8531   28.1425   46.2858 H   0  0  0  0  0  0  0  0  0  0  0  0
   60.1309   25.6392   46.1861 H   0  0  0  0  0  0  0  0  0  0  0  0
   60.4030   30.2800   47.2990 H   0  0  0  0  0  0  0  0  0  0  0  0
   59.5181   33.2387   49.2041 H   0  0  0  0  0  0  0  0  0  0  0  0
   61.2629   34.2385   50.6841 H   0  0  0  0  0  0  0  0  0  0  0  0
   63.6380   34.3494   49.9202 H   0  0  0  0  0  0  0  0  0  0  0  0
   62.5300   32.4599   46.1889 H   0  0  0  0  0  0  0  0  0  0  0  0
  1  2  1  0
  2  3  1  0
  3  4  2  0
  4  5  1  0
  5  6  2  0
  6  7  1  0
  7  8  1  0
  8  9  2  0
  9 10  1  0
 10 11  2  0
 11 12  1  0
 11 13  1  0
  7 14  2  0
 14 15  1  0
 15 16  1  0
 16 17  2  0
 17 18  1  0
 18 19  2  0
 19 20  1  0
 20 21  1  0
 20 22  2  0
 15 23  2  0
 23  2  1  0
 23  5  1  0
 13  8  1  0
 22 16  1  0
  1 24  1  0
  1 25  1  0
  1 26  1  0
  3 27  1  0
  4 28  1  0
  6 29  1  0
  9 30  1  0
 10 31  1  0
 14 32  1  0
 17 33  1  0
 18 34  1  0
 19 35  1  0
 22 36  1  0
M  CHG  1  14   1
M  END
>  <UniqueID>  (40) 
38

>  <SMILES>  (40) 
Cn1ccc2cc(-c3ccc(Br)s3)[nH+]c(-c3cccc(F)c3)c21

>  <Energy>  (40) 
111.31562739863101

>  <Genealogy>  (40) 
Cn1ccc2cc(-c3ccc(Br)s3)[nH+]c(-c3cccc(F)c3)c21 (protonated)
Cn1ccc2cc(-c3ccc(Br)s3)[nH+]c(-c3cccc(F)c3)c21 (3D coordinates assigned)
Cn1ccc2cc(-c3ccc(Br)s3)[nH+]c(-c3cccc(F)c3)c21 (optimized conformer: 111.31562739863101 kcal/mol)

>  <smiles>  (40) 
Cn1ccc2cc(-c3ccc(Br)s3)nc(-c3cccc(F)c3)c21

>  <score_type>  (40) 
oracle

>  <origin>  (40) 
adg

>  <m_score__min__energy>  (40) 
-6.6299999999999999

>  <m_primary>  (40) 
energy

$$$$
40:0
     RDKit          3D

 69 73  0  0  0  0  0  0  0  0999 V2000
   51.7953   20.5636   49.0612 H   0  0  0  0  0  0  0  0  0  0  0  0
   52.1590   21.1550   48.2080 C   0  0  0  0  0  0  0  0  0  0  0  0
   51.2790   21.8690   47.4590 N   0  0  0  0  0  0  0  0  0  0  0  0
   51.6800   22.6020   46.3940 C   0  0  0  0  0  0  0  0  0  0  0  0
   50.7340   23.3360   45.6650 C   0  0  0  0  0  0  0  0  0  0  0  0
   49.6742   23.3124   45.9589 H   0  0  0  0  0  0  0  0  0  0  0  0
   51.1380   24.0990   44.5630 C   0  0  0  0  0  0  0  0  0  0  0  0
   49.9610   25.0460   43.6730 Cl  0  0  0  0  0  0  0  0  0  0  0  0
   52.4860   24.1350   44.1860 C   0  0  0  0  0  0  0  0  0  0  0  0
   52.7963   24.7315   43.3154 H   0  0  0  0  0  0  0  0  0  0  0  0
   53.4400   23.4140   44.9140 C   0  0  0  0  0  0  0  0  0  0  0  0
   54.4980   23.4519   44.6153 H   0  0  0  0  0  0  0  0  0  0  0  0
   53.0530   22.6370   46.0310 C   0  0  0  0  0  0  0  0  0  0  0  0
   53.9950   21.9290   46.8150 C   0  0  0  0  0  0  0  0  0  0  0  0
   55.2590   21.9810   46.4930 N   0  0  0  0  0  0  0  0  0  0  0  0
   56.0830   23.1350   46.2670 C   0  0  0  0  0  0  0  0  0  0  0  0
   56.0230   24.2510   47.1170 C   0  0  0  0  0  0  0  0  0  0  0  0
   55.4362   24.2005   48.0460 H   0  0  0  0  0  0  0  0  0  0  0  0
   56.7060   25.4270   46.7880 C   0  0  0  0  0  0  0  0  0  0  0  0
   56.6933   26.2816   47.4804 H   0  0  0  0  0  0  0  0  0  0  0  0
   57.4100   25.5180   45.5710 C   0  0  0  0  0  0  0  0  0  0  0  0
   57.4310   31.3080   45.4010 N   0  0  0  0  0  0  0  0  0  0  0  0
   57.8160   30.1850   45.9350 C   0  0  0  0  0  0  0  0  0  0  0  0
   58.7740   27.8770   47.0150 N   0  0  0  0  0  0  0  0  0  0  0  0
   58.9190   29.0510   47.6820 C   0  0  0  0  0  0  0  0  0  0  0  0
   59.5660   29.1070   48.8070 N   0  0  0  0  0  0  0  0  0  0  0  0
   60.5390   30.1240   49.2060 C   0  0  0  0  0  0  0  0  0  0  0  0
   61.3399   29.6628   49.8025 H   0  0  0  0  0  0  0  0  0  0  0  0
   60.0563   30.9005   49.8176 H   0  0  0  0  0  0  0  0  0  0  0  0
   61.1260   30.7350   47.9260 C   0  0  0  0  0  0  0  0  0  0  0  0
   60.2938   31.0340   47.2717 H   0  0  0  0  0  0  0  0  0  0  0  0
   61.7666   29.9659   47.4698 H   0  0  0  0  0  0  0  0  0  0  0  0
   61.9870   31.9290   48.1660 N   0  0  0  0  0  0  0  0  0  0  0  0
   63.0490   31.9920   47.1230 C   0  0  0  0  0  0  0  0  0  0  0  0
   62.6778   31.4855   46.2199 H   0  0  0  0  0  0  0  0  0  0  0  0
   63.9401   31.5042   47.5450 H   0  0  0  0  0  0  0  0  0  0  0  0
   63.4640   33.4270   46.7390 C   0  0  0  0  0  0  0  0  0  0  0  0
   63.6344   34.0162   47.6521 H   0  0  0  0  0  0  0  0  0  0  0  0
   64.3896   33.3946   46.1455 H   0  0  0  0  0  0  0  0  0  0  0  0
   62.6640   33.8936   46.1455 H   0  0  0  0  0  0  0  0  0  0  0  0
   61.1330   33.1490   48.1680 C   0  0  0  0  0  0  0  0  0  0  0  0
   61.5381   33.8740   47.4467 H   0  0  0  0  0  0  0  0  0  0  0  0
   60.1084   32.8627   47.8885 H   0  0  0  0  0  0  0  0  0  0  0  0
   61.1020   33.7870   49.5560 C   0  0  0  0  0  0  0  0  0  0  0  0
   61.1403   32.9991   50.3226 H   0  0  0  0  0  0  0  0  0  0  0  0
   61.9688   34.4542   49.6723 H   0  0  0  0  0  0  0  0  0  0  0  0
   60.1746   34.3670   49.6723 H   0  0  0  0  0  0  0  0  0  0  0  0
   58.4420   30.2010   47.1400 N   0  0  0  0  0  0  0  0  0  0  0  0
   58.5700   31.0990   47.6520 H   0  0  0  0  0  0  0  0  0  0  0  0
   58.1440   27.8560   45.8110 C   0  0  0  0  0  0  0  0  0  0  0  0
   58.0100   26.7550   45.1300 N   0  0  0  0  0  0  0  0  0  0  0  0
   58.0250   32.6140   45.5270 C   0  0  0  0  0  0  0  0  0  0  0  0
   58.0450   33.3220   46.7430 C   0  0  0  0  0  0  0  0  0  0  0  0
   57.5651   32.8939   47.6354 H   0  0  0  0  0  0  0  0  0  0  0  0
   58.6740   34.5690   46.8190 C   0  0  0  0  0  0  0  0  0  0  0  0
   58.6661   35.1318   47.7641 H   0  0  0  0  0  0  0  0  0  0  0  0
   59.3120   35.1000   45.6960 C   0  0  0  0  0  0  0  0  0  0  0  0
   59.9380   36.3000   45.7690 F   0  0  0  0  0  0  0  0  0  0  0  0
   59.3200   34.3860   44.4950 C   0  0  0  0  0  0  0  0  0  0  0  0
   59.8248   34.8046   43.6119 H   0  0  0  0  0  0  0  0  0  0  0  0
   58.6910   33.1460   44.4120 C   0  0  0  0  0  0  0  0  0  0  0  0
   58.7164   32.5812   43.4684 H   0  0  0  0  0  0  0  0  0  0  0  0
   57.6800   29.0090   45.2750 N   0  0  0  0  0  0  0  0  0  0  0  0
   57.4290   24.4190   44.7070 C   0  0  0  0  0  0  0  0  0  0  0  0
   57.9636   24.4855   43.7479 H   0  0  0  0  0  0  0  0  0  0  0  0
   56.7710   23.2350   45.0570 C   0  0  0  0  0  0  0  0  0  0  0  0
   56.7962   22.3748   44.3719 H   0  0  0  0  0  0  0  0  0  0  0  0
   53.5230   21.1660   47.9030 C   0  0  0  0  0  0  0  0  0  0  0  0
   54.2277   20.5799   48.5112 H   0  0  0  0  0  0  0  0  0  0  0  0
  1  2  1  0
  2  3  1  0
  3  4  1  0
  4  5  2  0
  5  6  1  0
  5  7  1  0
  7  8  1  0
  7  9  2  0
  9 10  1  0
  9 11  1  0
 11 12  1  0
 11 13  2  0
 13 14  1  0
 14 15  2  3
 15 16  1  0
 16 17  2  0
 17 18  1  0
 17 19  1  0
 19 20  1  0
 19 21  2  0
 21 22  1  0
 22 23  2  0
 23 24  1  0
 24 25  1  0
 25 26  2  3
 26 27  1  0
 27 28  1  0
 27 29  1  0
 27 30  1  0
 30 31  1  0
 30 32  1  0
 30 33  1  0
 33 34  1  0
 34 35  1  0
 34 36  1  0
 34 37  1  0
 37 38  1  0
 37 39  1  0
 37 40  1  0
 33 41  1  0
 41 42  1  0
 41 43  1  0
 41 44  1  0
 44 45  1  0
 44 46  1  0
 44 47  1  0
 25 48  1  0
 48 49  1  0
 48 50  1  0
 50 51  2  0
 51 52  1  0
 52 53  2  0
 53 54  1  0
 53 55  1  0
 55 56  1  0
 55 57  2  0
 57 58  1  0
 57 59  1  0
 59 60  1  0
 59 61  2  0
 61 62  1  0
 50 63  1  0
 21 64  1  0
 64 65  1  0
 64 66  2  0
 66 67  1  0
 14 68  1  0
 68 69  1  0
 68  2  2  0
 13  4  1  0
 66 16  1  0
 63 23  1  0
 61 52  1  0
M  CHG  3   3  -1  24  -1  63  -1
M  END
>  <UniqueID>  (41) 
39

>  <SMILES>  (41) 
CCN(CC)CCN=c1[n-]/c(=N/c2ccc(N=c3cc[n-]c4cc(Cl)ccc34)cc2)[n-]/c(=N\c2ccc(F)cc2)[nH]1

>  <Energy>  (41) 
105.84808808521638

>  <Genealogy>  (41) 
CCN(CC)CCN=c1[n-]c(=Nc2ccc(N=c3cc[n-]c4cc(Cl)ccc34)cc2)[n-]c(=Nc2ccc(F)cc2)[nH]1 (protonated)
CCN(CC)CCN=c1[n-]/c(=N/c2ccc(N=c3cc[n-]c4cc(Cl)ccc34)cc2)[n-]/c(=N\c2ccc(F)cc2)[nH]1 (cis-trans isomerization)
CCN(CC)CCN=c1[n-]/c(=N/c2ccc(N=c3cc[n-]c4cc(Cl)ccc34)cc2)[n-]/c(=N\c2ccc(F)cc2)[nH]1 (3D coordinates assigned)
CCN(CC)CCN=c1[n-]/c(=N/c2ccc(N=c3cc[n-]c4cc(Cl)ccc34)cc2)[n-]/c(=N\c2ccc(F)cc2)[nH]1 (optimized conformer: 105.84808808521638 kcal/mol)

>  <smiles>  (41) 
CCN(CC)CCN=c1[nH]c(=Nc2ccc(F)cc2)[nH]c(=Nc2ccc(N=c3cc[nH]c4cc(Cl)ccc34)cc2)[nH]1

>  <score_type>  (41) 
oracle

>  <origin>  (41) 
adg

>  <m_score__min__energy>  (41) 
-13.41

>  <m_primary>  (41) 
energy

$$$$
41:0
     RDKit          3D

 38 40  0  0  0  0  0  0  0  0999 V2000
   59.2420   24.5160   45.9910 C   0  0  0  0  0  0  0  0  0  0  0  0
   58.2950   23.9120   44.9890 C   0  0  0  0  0  0  0  0  0  0  0  0
   58.3370   22.5250   44.7570 C   0  0  0  0  0  0  0  0  0  0  0  0
   57.4580   21.9320   43.8500 C   0  0  0  0  0  0  0  0  0  0  0  0
   56.5330   22.7120   43.1590 C   0  0  0  0  0  0  0  0  0  0  0  0
   56.4840   24.0910   43.3690 C   0  0  0  0  0  0  0  0  0  0  0  0
   57.3600   24.7110   44.2820 C   0  0  0  0  0  0  0  0  0  0  0  0
   57.3110   26.1380   44.4910 N   0  0  0  0  0  0  0  0  0  0  0  0
   58.4110   27.0450   44.1600 C   0  0  0  0  0  0  0  0  0  0  0  0
   58.0410   28.4530   44.5020 C   0  0  0  0  0  0  0  0  0  0  0  0
   56.7770   28.8560   44.7600 N   0  0  0  0  0  0  0  0  0  0  0  0
   56.6940   30.1390   45.1050 N   0  0  0  0  0  0  0  0  0  0  0  0
   57.8900   30.7700   45.1300 C   0  0  0  0  0  0  0  0  0  0  0  0
   58.0510   32.1570   45.4870 N   0  0  0  0  0  0  0  0  0  0  0  0
   58.1350   32.5280   46.9060 C   0  0  0  0  0  0  0  0  0  0  0  0
   58.8620   33.8660   47.0660 C   0  0  0  0  0  0  0  0  0  0  0  0
   58.3010   34.8480   46.2180 O   0  0  0  0  0  0  0  0  0  0  0  0
   58.5290   34.4920   44.8690 C   0  0  0  0  0  0  0  0  0  0  0  0
   57.7690   33.2120   44.5070 C   0  0  0  0  0  0  0  0  0  0  0  0
   59.1400   29.7120   44.7110 S   0  0  0  0  0  0  0  0  0  0  0  0
   58.8906   24.2919   47.0090 H   0  0  0  0  0  0  0  0  0  0  0  0
   60.2467   24.0915   45.8481 H   0  0  0  0  0  0  0  0  0  0  0  0
   59.2808   25.6060   45.8481 H   0  0  0  0  0  0  0  0  0  0  0  0
   59.0682   21.9035   45.2946 H   0  0  0  0  0  0  0  0  0  0  0  0
   57.4954   20.8459   43.6800 H   0  0  0  0  0  0  0  0  0  0  0  0
   55.8402   22.2401   42.4467 H   0  0  0  0  0  0  0  0  0  0  0  0
   55.7539   24.7001   42.8160 H   0  0  0  0  0  0  0  0  0  0  0  0
   56.4230   26.5800   44.8210 H   0  0  0  0  0  0  0  0  0  0  0  0
   59.3051   26.7553   44.7315 H   0  0  0  0  0  0  0  0  0  0  0  0
   58.6170   26.9802   43.0814 H   0  0  0  0  0  0  0  0  0  0  0  0
   57.1190   32.6160   47.3183 H   0  0  0  0  0  0  0  0  0  0  0  0
   58.6959   31.7505   47.4454 H   0  0  0  0  0  0  0  0  0  0  0  0
   58.7762   34.2002   48.1105 H   0  0  0  0  0  0  0  0  0  0  0  0
   59.9186   33.7274   46.7933 H   0  0  0  0  0  0  0  0  0  0  0  0
   58.1878   35.3102   44.2177 H   0  0  0  0  0  0  0  0  0  0  0  0
   59.6054   34.3139   44.7290 H   0  0  0  0  0  0  0  0  0  0  0  0
   56.6891   33.4211   44.4998 H   0  0  0  0  0  0  0  0  0  0  0  0
   58.0941   32.8723   43.5126 H   0  0  0  0  0  0  0  0  0  0  0  0
  1  2  1  0
  2  3  2  0
  3  4  1  0
  4  5  2  0
  5  6  1  0
  6  7  2  0
  7  8  1  0
  8  9  1  0
  9 10  1  0
 10 11  2  0
 11 12  1  0
 12 13  2  0
 13 14  1  0
 14 15  1  0
 15 16  1  0
 16 17  1  0
 17 18  1  0
 18 19  1  0
 13 20  1  0
  7  2  1  0
 20 10  1  0
 19 14  1  0
  1 21  1  0
  1 22  1  0
  1 23  1  0
  3 24  1  0
  4 25  1  0
  5 26  1  0
  6 27  1  0
  8 28  1  0
  9 29  1  0
  9 30  1  0
 15 31  1  0
 15 32  1  0
 16 33  1  0
 16 34  1  0
 18 35  1  0
 18 36  1  0
 19 37  1  0
 19 38  1  0
M  END
>  <UniqueID>  (42) 
40

>  <SMILES>  (42) 
Cc1ccccc1NCc1nnc(N2CCOCC2)s1

>  <Energy>  (42) 
74.43888549659677

>  <Genealogy>  (42) 
Cc1ccccc1NCc1nnc(N2CCOCC2)s1 (3D coordinates assigned)
Cc1ccccc1NCc1nnc(N2CCOCC2)s1 (nonaromatic ring conformer: 74.43888549659677 kcal/mol)

>  <smiles>  (42) 
Cc1ccccc1NCc1nnc(N2CCOCC2)s1

>  <score_type>  (42) 
oracle

>  <origin>  (42) 
adg

>  <m_score__min__energy>  (42) 
-7.6200000000000001

>  <m_primary>  (42) 
energy

$$$$
42:0
     RDKit          3D

 23 24  0  0  0  0  0  0  0  0999 V2000
   57.8670   27.2060   42.6610 N   0  0  0  0  0  0  0  0  0  0  0  0
   57.7090   28.2820   43.3830 C   0  0  0  0  0  0  0  0  0  0  0  0
   58.5990   28.5780   44.3510 N   0  0  0  0  0  0  0  0  0  0  0  0
   58.4250   29.6910   45.0900 C   0  0  0  0  0  0  0  0  0  0  0  0
   57.3430   30.5510   44.8780 C   0  0  0  0  0  0  0  0  0  0  0  0
   57.1940   31.6700   45.6420 O   0  0  0  0  0  0  0  0  0  0  0  0
   58.0260   32.7710   45.6900 C   0  0  0  0  0  0  0  0  0  0  0  0
   58.0320   33.7730   44.7400 C   0  0  0  0  0  0  0  0  0  0  0  0
   58.9130   34.8500   44.8720 C   0  0  0  0  0  0  0  0  0  0  0  0
   59.7750   34.8890   45.9720 C   0  0  0  0  0  0  0  0  0  0  0  0
   59.7760   33.8910   46.9270 C   0  0  0  0  0  0  0  0  0  0  0  0
   58.8990   32.8370   46.7760 C   0  0  0  0  0  0  0  0  0  0  0  0
   58.9320   31.4790   48.1170 Br  0  0  0  0  0  0  0  0  0  0  0  0
   56.4640   30.1840   43.8630 C   0  0  0  0  0  0  0  0  0  0  0  0
   56.6480   29.0660   43.1280 N   0  0  0  0  0  0  0  0  0  0  0  0
   57.0020   26.6570   42.3850 H   0  0  0  0  0  0  0  0  0  0  0  0
   59.1524   29.9292   45.8800 H   0  0  0  0  0  0  0  0  0  0  0  0
   57.3455   33.7238   43.8819 H   0  0  0  0  0  0  0  0  0  0  0  0
   58.9279   35.6545   44.1220 H   0  0  0  0  0  0  0  0  0  0  0  0
   60.4695   35.7352   46.0796 H   0  0  0  0  0  0  0  0  0  0  0  0
   60.4599   33.9357   47.7874 H   0  0  0  0  0  0  0  0  0  0  0  0
   55.5938   30.8234   43.6534 H   0  0  0  0  0  0  0  0  0  0  0  0
   55.9940   28.7770   42.3580 H   0  0  0  0  0  0  0  0  0  0  0  0
  1  2  2  3
  2  3  1  0
  3  4  2  0
  4  5  1  0
  5  6  1  0
  6  7  1  0
  7  8  2  0
  8  9  1  0
  9 10  2  0
 10 11  1  0
 11 12  2  0
 12 13  1  0
  5 14  2  0
 14 15  1  0
 15  2  1  0
 12  7  1  0
  1 16  1  0
  4 17  1  0
  8 18  1  0
  9 19  1  0
 10 20  1  0
 11 21  1  0
 14 22  1  0
 15 23  1  0
M  END
>  <smiles>  (43) 
N=c1ncc(Oc2ccccc2Br)c[nH]1

>  <score_type>  (43) 
oracle

>  <origin>  (43) 
adg

>  <m_score__min__energy>  (43) 
-6.3799999999999999

>  <m_primary>  (43) 
energy

$$$$
43:0
     RDKit          3D

 37 39  0  0  0  0  0  0  0  0999 V2000
   56.2710   29.4050   42.4640 C   0  0  0  0  0  0  0  0  0  0  0  0
   56.9170   30.3740   43.4080 C   0  0  0  0  0  0  0  0  0  0  0  0
   56.8770   30.1670   44.7910 C   0  0  0  0  0  0  0  0  0  0  0  0
   57.4930   31.0440   45.6280 N   0  0  0  0  0  0  0  0  0  0  0  0
   58.1590   32.1270   45.1450 C   0  0  0  0  0  0  0  0  0  0  0  0
   58.8410   33.0680   46.0600 C   0  0  0  0  0  0  0  0  0  0  0  0
   59.0510   34.3820   45.6110 C   0  0  0  0  0  0  0  0  0  0  0  0
   59.6500   35.3190   46.4500 C   0  0  0  0  0  0  0  0  0  0  0  0
   60.0170   34.9720   47.7110 N   0  0  0  0  0  0  0  0  0  0  0  0
   59.8290   33.7130   48.1860 C   0  0  0  0  0  0  0  0  0  0  0  0
   59.2500   32.7160   47.3780 C   0  0  0  0  0  0  0  0  0  0  0  0
   59.0210   31.3990   47.9420 N   0  0  0  0  0  0  0  0  0  0  0  0
   60.1440   30.4840   47.6690 C   0  0  0  0  0  0  0  0  0  0  0  0
   59.7420   29.3690   46.7330 C   0  0  0  0  0  0  0  0  0  0  0  0
   60.2620   29.3080   45.4300 C   0  0  0  0  0  0  0  0  0  0  0  0
   59.8830   28.2710   44.5760 C   0  0  0  0  0  0  0  0  0  0  0  0
   58.9910   27.2970   45.0340 C   0  0  0  0  0  0  0  0  0  0  0  0
   58.5050   27.3600   46.3040 N   0  0  0  0  0  0  0  0  0  0  0  0
   58.8630   28.3580   47.1570 C   0  0  0  0  0  0  0  0  0  0  0  0
   58.2440   32.3180   43.7990 N   0  0  0  0  0  0  0  0  0  0  0  0
   57.6420   31.4690   42.9290 C   0  0  0  0  0  0  0  0  0  0  0  0
   55.7508   28.6246   43.0388 H   0  0  0  0  0  0  0  0  0  0  0  0
   55.5468   29.9379   41.8303 H   0  0  0  0  0  0  0  0  0  0  0  0
   57.0414   28.9415   41.8303 H   0  0  0  0  0  0  0  0  0  0  0  0
   56.3472   29.2947   45.2014 H   0  0  0  0  0  0  0  0  0  0  0  0
   58.7422   34.6716   44.5957 H   0  0  0  0  0  0  0  0  0  0  0  0
   59.8264   36.3434   46.0901 H   0  0  0  0  0  0  0  0  0  0  0  0
   60.1330   33.4696   49.2148 H   0  0  0  0  0  0  0  0  0  0  0  0
   58.8760   31.4700   48.9730 H   0  0  0  0  0  0  0  0  0  0  0  0
   58.1360   30.9850   47.5650 H   0  0  0  0  0  0  0  0  0  0  0  0
   60.9655   31.0547   47.2114 H   0  0  0  0  0  0  0  0  0  0  0  0
   60.4591   30.0343   48.6222 H   0  0  0  0  0  0  0  0  0  0  0  0
   60.9676   30.0770   45.0825 H   0  0  0  0  0  0  0  0  0  0  0  0
   60.2824   28.2207   43.5523 H   0  0  0  0  0  0  0  0  0  0  0  0
   58.6814   26.4786   44.3673 H   0  0  0  0  0  0  0  0  0  0  0  0
   58.4631   28.3734   48.1816 H   0  0  0  0  0  0  0  0  0  0  0  0
   57.7244   31.6423   41.8459 H   0  0  0  0  0  0  0  0  0  0  0  0
  1  2  1  0
  2  3  2  0
  3  4  1  0
  4  5  2  0
  5  6  1  0
  6  7  2  0
  7  8  1  0
  8  9  2  0
  9 10  1  0
 10 11  2  0
 11 12  1  0
 12 13  1  0
 13 14  1  0
 14 15  2  0
 15 16  1  0
 16 17  2  0
 17 18  1  0
 18 19  2  0
  5 20  1  0
 20 21  2  0
 21  2  1  0
 11  6  1  0
 19 14  1  0
  1 22  1  0
  1 23  1  0
  1 24  1  0
  3 25  1  0
  7 26  1  0
  8 27  1  0
 10 28  1  0
 12 29  1  0
 12 30  1  0
 13 31  1  0
 13 32  1  0
 15 33  1  0
 16 34  1  0
 17 35  1  0
 19 36  1  0
 21 37  1  0
M  CHG  1  12   1
M  END
>  <UniqueID>  (44) 
41

>  <SMILES>  (44) 
Cc1cnc(-c2ccncc2[NH2+]Cc2cccnc2)nc1

>  <Energy>  (44) 
49.10240638374004

>  <Genealogy>  (44) 
Cc1cnc(-c2ccncc2[NH2+]Cc2cccnc2)nc1 (protonated)
Cc1cnc(-c2ccncc2[NH2+]Cc2cccnc2)nc1 (3D coordinates assigned)
Cc1cnc(-c2ccncc2[NH2+]Cc2cccnc2)nc1 (optimized conformer: 49.10240638374004 kcal/mol)

>  <smiles>  (44) 
Cc1cnc(-c2ccncc2NCc2cccnc2)nc1

>  <score_type>  (44) 
oracle

>  <origin>  (44) 
adg

>  <m_score__min__energy>  (44) 
-4.7000000000000002

>  <m_primary>  (44) 
energy

$$$$
44:0
     RDKit          3D

 33 34  0  0  1  0  0  0  0  0999 V2000
   57.0150   31.0630   42.3300 C   0  0  0  0  0  0  0  0  0  0  0  0
   56.4940   29.9570   43.2230 C   0  0  0  0  0  0  0  0  0  0  0  0
   57.5240   29.4360   44.1360 C   0  0  0  0  0  0  0  0  0  0  0  0
   58.1100   28.2230   43.8090 C   0  0  0  0  0  0  0  0  0  0  0  0
   57.7510   27.5270   42.6800 O   0  0  0  0  0  0  0  0  0  0  0  0
   59.0420   27.7740   44.6550 N   0  0  0  0  0  0  0  0  0  0  0  0
   59.3920   28.4450   45.7460 C   0  0  0  0  0  0  0  0  0  0  0  0
   60.2990   27.9030   46.4710 O   0  0  0  0  0  0  0  0  0  0  0  0
   58.8540   29.6440   46.1260 N   0  0  0  0  0  0  0  0  0  0  0  0
   59.3020   30.2880   47.3190 C   0  0  0  0  0  0  0  0  0  0  0  0
   57.9140   30.1290   45.3010 C   0  0  0  0  0  0  0  0  0  0  0  0
   57.3260   31.2200   45.5050 N   0  0  0  0  0  0  0  0  0  0  0  0
   57.9150   32.4670   45.6310 C   0  0  0  0  0  0  0  0  0  0  0  0
   58.5000   33.0060   44.4560 C   0  0  0  0  0  0  0  0  0  0  0  0
   59.1780   34.2140   44.5110 C   0  0  0  0  0  0  0  0  0  0  0  0
   59.3080   34.9280   45.6950 C   0  0  0  0  0  0  0  0  0  0  0  0
   59.9570   36.1010   45.7860 F   0  0  0  0  0  0  0  0  0  0  0  0
   58.7400   34.4040   46.8430 C   0  0  0  0  0  0  0  0  0  0  0  0
   58.0650   33.2030   46.7890 C   0  0  0  0  0  0  0  0  0  0  0  0
   57.4019   31.8842   42.9512 H   0  0  0  0  0  0  0  0  0  0  0  0
   57.8233   30.6714   41.6950 H   0  0  0  0  0  0  0  0  0  0  0  0
   56.1983   31.4369   41.6950 H   0  0  0  0  0  0  0  0  0  0  0  0
   55.6591   30.3507   43.8213 H   0  0  0  0  0  0  0  0  0  0  0  0
   56.1725   29.1284   42.5749 H   0  0  0  0  0  0  0  0  0  0  0  0
   56.8450   27.0930   42.5690 H   0  0  0  0  0  0  0  0  0  0  0  0
   59.4950   26.8520   44.4150 H   0  0  0  0  0  0  0  0  0  0  0  0
   58.9222   29.7420   48.1952 H   0  0  0  0  0  0  0  0  0  0  0  0
   60.4018   30.2962   47.3405 H   0  0  0  0  0  0  0  0  0  0  0  0
   58.9272   31.3219   47.3405 H   0  0  0  0  0  0  0  0  0  0  0  0
   58.4156   32.4655   43.5017 H   0  0  0  0  0  0  0  0  0  0  0  0
   59.6255   34.6182   43.5910 H   0  0  0  0  0  0  0  0  0  0  0  0
   58.8269   34.9447   47.7970 H   0  0  0  0  0  0  0  0  0  0  0  0
   57.6231   32.8110   47.7169 H   0  0  0  0  0  0  0  0  0  0  0  0
  1  2  1  0
  2  3  1  0
  3  4  2  0
  4  5  1  0
  4  6  1  0
  6  7  1  0
  7  8  2  0
  7  9  1  0
  9 10  1  0
  9 11  1  0
 11 12  2  0
 12 13  1  0
 13 14  2  0
 14 15  1  0
 15 16  2  0
 16 17  1  0
 16 18  1  0
 18 19  2  0
 11  3  1  0
 19 13  1  0
  1 20  1  0
  1 21  1  0
  1 22  1  0
  2 23  1  0
  2 24  1  0
  5 25  1  0
  6 26  1  0
 10 27  1  0
 10 28  1  0
 10 29  1  0
 14 30  1  0
 15 31  1  0
 18 32  1  0
 19 33  1  0
M  END
>  <smiles>  (45) 
CCc1c(O)[nH]c(=O)n(C)c1=Nc1ccc(F)cc1

>  <score_type>  (45) 
oracle

>  <origin>  (45) 
adg

>  <m_score__min__energy>  (45) 
-6.8799999999999999

>  <m_primary>  (45) 
energy

$$$$
45:0
     RDKit          3D

 35 37  0  0  0  0  0  0  0  0999 V2000
   55.2390   26.6310   46.0360 N   0  0  0  0  0  0  0  0  0  0  0  0
   56.9140   26.9640   45.7700 S   0  0  0  0  0  0  0  0  0  0  0  0
   57.4410   26.0590   44.6910 O   0  0  0  0  0  0  0  0  0  0  0  0
   57.6810   26.7010   47.0350 O   0  0  0  0  0  0  0  0  0  0  0  0
   57.1100   28.6440   45.2880 C   0  0  0  0  0  0  0  0  0  0  0  0
   56.1220   29.2820   44.5250 C   0  0  0  0  0  0  0  0  0  0  0  0
   56.2840   30.6150   44.1370 C   0  0  0  0  0  0  0  0  0  0  0  0
   57.4290   31.3280   44.5130 C   0  0  0  0  0  0  0  0  0  0  0  0
   57.5660   32.6930   44.0920 N   0  0  0  0  0  0  0  0  0  0  0  0
   57.7610   33.8280   44.9480 C   0  0  0  0  0  0  0  0  0  0  0  0
   57.0040   34.8250   44.8060 O   0  0  0  0  0  0  0  0  0  0  0  0
   58.7850   33.8390   46.0190 C   0  0  0  0  0  0  0  0  0  0  0  0
   58.3890   33.8430   47.3680 C   0  0  0  0  0  0  0  0  0  0  0  0
   59.3430   33.8590   48.3890 C   0  0  0  0  0  0  0  0  0  0  0  0
   60.7100   33.8640   48.0780 C   0  0  0  0  0  0  0  0  0  0  0  0
   61.6760   33.8860   49.0960 C   0  0  0  0  0  0  0  0  0  0  0  0
   63.0360   33.8860   48.7720 C   0  0  0  0  0  0  0  0  0  0  0  0
   63.4410   33.8640   47.4350 C   0  0  0  0  0  0  0  0  0  0  0  0
   62.4890   33.8420   46.4120 C   0  0  0  0  0  0  0  0  0  0  0  0
   61.1200   33.8430   46.7230 C   0  0  0  0  0  0  0  0  0  0  0  0
   60.1550   33.8220   45.7040 C   0  0  0  0  0  0  0  0  0  0  0  0
   58.4340   30.6780   45.2500 C   0  0  0  0  0  0  0  0  0  0  0  0
   58.2710   29.3450   45.6390 C   0  0  0  0  0  0  0  0  0  0  0  0
   54.7610   26.7160   45.1110 H   0  0  0  0  0  0  0  0  0  0  0  0
   55.2162   28.7317   44.2307 H   0  0  0  0  0  0  0  0  0  0  0  0
   55.5075   31.1068   43.5327 H   0  0  0  0  0  0  0  0  0  0  0  0
   57.3188   33.8334   47.6220 H   0  0  0  0  0  0  0  0  0  0  0  0
   59.0202   33.8677   49.4405 H   0  0  0  0  0  0  0  0  0  0  0  0
   61.3626   33.9033   50.1503 H   0  0  0  0  0  0  0  0  0  0  0  0
   63.7900   33.9034   49.5727 H   0  0  0  0  0  0  0  0  0  0  0  0
   64.5126   33.8640   47.1867 H   0  0  0  0  0  0  0  0  0  0  0  0
   62.8131   33.8239   45.3610 H   0  0  0  0  0  0  0  0  0  0  0  0
   60.4729   33.7920   44.6514 H   0  0  0  0  0  0  0  0  0  0  0  0
   59.3519   31.2199   45.5216 H   0  0  0  0  0  0  0  0  0  0  0  0
   59.0575   28.8447   46.2230 H   0  0  0  0  0  0  0  0  0  0  0  0
  1  2  1  0
  2  3  2  0
  2  4  2  0
  2  5  1  0
  5  6  2  0
  6  7  1  0
  7  8  2  0
  8  9  1  0
  9 10  1  0
 10 11  2  0
 10 12  1  0
 12 13  2  0
 13 14  1  0
 14 15  2  0
 15 16  1  0
 16 17  2  0
 17 18  1  0
 18 19  2  0
 19 20  1  0
 20 21  2  0
  8 22  1  0
 22 23  2  0
 23  5  1  0
 21 12  1  0
 20 15  1  0
  1 24  1  0
  6 25  1  0
  7 26  1  0
 13 27  1  0
 14 28  1  0
 16 29  1  0
 17 30  1  0
 18 31  1  0
 19 32  1  0
 21 33  1  0
 22 34  1  0
 23 35  1  0
M  CHG  2   1  -1   9  -1
M  END
>  <UniqueID>  (46) 
42

>  <SMILES>  (46) 
[NH-]S(=O)(=O)c1ccc([N-]C(=O)c2ccc3ccccc3c2)cc1

>  <Energy>  (46) 
47.16146192991353

>  <Genealogy>  (46) 
[NH-]S(=O)(=O)c1ccc([N-]C(=O)c2ccc3ccccc3c2)cc1 (protonated)
[NH-]S(=O)(=O)c1ccc([N-]C(=O)c2ccc3ccccc3c2)cc1 (3D coordinates assigned)
[NH-]S(=O)(=O)c1ccc([N-]C(=O)c2ccc3ccccc3c2)cc1 (optimized conformer: 47.16146192991353 kcal/mol)

>  <smiles>  (46) 
NS(=O)(=O)c1ccc(NC(=O)c2ccc3ccccc3c2)cc1

>  <score_type>  (46) 
oracle

>  <origin>  (46) 
adg

>  <m_score__min__energy>  (46) 
-12.67

>  <m_primary>  (46) 
energy

$$$$
