0:0
     RDKit          3D

 30 32  0  0  0  0  0  0  0  0999 V2000
   57.9550   34.9920   44.8510 O   0  0  0  0  0  0  0  0  0  0  0  0
   58.3870   33.8490   45.1650 C   0  0  0  0  0  0  0  0  0  0  0  0
   57.8990   32.6680   44.4120 C   0  0  0  0  0  0  0  0  0  0  0  0
   57.8550   32.6730   43.0040 C   0  0  0  0  0  0  0  0  0  0  0  0
   57.3760   31.5590   42.3080 C   0  0  0  0  0  0  0  0  0  0  0  0
   56.9270   30.4360   43.0060 C   0  0  0  0  0  0  0  0  0  0  0  0
   56.9500   30.4260   44.4030 C   0  0  0  0  0  0  0  0  0  0  0  0
   57.4280   31.5380   45.1040 C   0  0  0  0  0  0  0  0  0  0  0  0
   59.3640   33.7350   46.2750 C   0  0  0  0  0  0  0  0  0  0  0  0
   58.9350   33.7040   47.6140 C   0  0  0  0  0  0  0  0  0  0  0  0
   59.8600   33.6140   48.6570 C   0  0  0  0  0  0  0  0  0  0  0  0
   61.2330   33.5630   48.3790 C   0  0  0  0  0  0  0  0  0  0  0  0
   62.1700   33.4710   49.4200 C   0  0  0  0  0  0  0  0  0  0  0  0
   63.5390   33.4250   49.1310 C   0  0  0  0  0  0  0  0  0  0  0  0
   64.8090   33.3000   50.5520 Br  0  0  0  0  0  0  0  0  0  0  0  0
   63.9770   33.4710   47.8050 C   0  0  0  0  0  0  0  0  0  0  0  0
   63.0530   33.5630   46.7600 C   0  0  0  0  0  0  0  0  0  0  0  0
   61.6780   33.6090   47.0360 C   0  0  0  0  0  0  0  0  0  0  0  0
   60.7410   33.7000   45.9960 C   0  0  0  0  0  0  0  0  0  0  0  0
   58.1994   33.5582   42.4491 H   0  0  0  0  0  0  0  0  0  0  0  0
   57.3528   31.5672   41.2083 H   0  0  0  0  0  0  0  0  0  0  0  0
   56.5551   29.5590   42.4559 H   0  0  0  0  0  0  0  0  0  0  0  0
   56.5918   29.5427   44.9521 H   0  0  0  0  0  0  0  0  0  0  0  0
   57.4355   31.5286   46.2039 H   0  0  0  0  0  0  0  0  0  0  0  0
   57.8600   33.7511   47.8424 H   0  0  0  0  0  0  0  0  0  0  0  0
   59.5100   33.5831   49.6994 H   0  0  0  0  0  0  0  0  0  0  0  0
   61.8280   33.4350   50.4649 H   0  0  0  0  0  0  0  0  0  0  0  0
   65.0536   33.4347   47.5824 H   0  0  0  0  0  0  0  0  0  0  0  0
   63.4048   33.5994   45.7184 H   0  0  0  0  0  0  0  0  0  0  0  0
   61.0871   33.7444   44.9528 H   0  0  0  0  0  0  0  0  0  0  0  0
  1  2  2  0
  2  3  1  0
  3  4  2  0
  4  5  1  0
  5  6  2  0
  6  7  1  0
  7  8  2  0
  2  9  1  0
  9 10  2  0
 10 11  1  0
 11 12  2  0
 12 13  1  0
 13 14  2  0
 14 15  1  0
 14 16  1  0
 16 17  2  0
 17 18  1  0
 18 19  2  0
  8  3  1  0
 19  9  1  0
 18 12  1  0
  4 20  1  0
  5 21  1  0
  6 22  1  0
  7 23  1  0
  8 24  1  0
 10 25  1  0
 11 26  1  0
 13 27  1  0
 16 28  1  0
 17 29  1  0
 19 30  1  0
M  END
>  <UniqueID>  (1) 
1

>  <SMILES>  (1) 
O=C(c1ccccc1)c1ccc2cc(Br)ccc2c1

>  <Energy>  (1) 
42.07390105055961

>  <Genealogy>  (1) 
O=C(c1ccccc1)c1ccc2cc(Br)ccc2c1 (3D coordinates assigned)
O=C(c1ccccc1)c1ccc2cc(Br)ccc2c1 (optimized conformer: 42.07390105055961 kcal/mol)

>  <smiles>  (1) 
O=C(c1ccccc1)c1ccc2cc(Br)ccc2c1

>  <score_type>  (1) 
oracle

>  <origin>  (1) 
adg

>  <m_score__min__energy>  (1) 
-8.0399999999999991

>  <m_primary>  (1) 
energy

$$$$
1:0
     RDKit          3D

 58 61  0  0  0  0  0  0  0  0999 V2000
   58.9700   34.1290   44.8610 C   0  0  0  0  0  0  0  0  0  0  0  0
   59.5150   33.4270   46.0350 N   0  0  0  0  0  0  0  0  0  0  0  0
   60.2320   34.3480   46.9560 C   0  0  0  0  0  0  0  0  0  0  0  0
   61.4990   33.7770   47.5600 C   0  0  0  0  0  0  0  0  0  0  0  0
   62.2480   32.8200   46.8530 C   0  0  0  0  0  0  0  0  0  0  0  0
   63.4150   32.2850   47.4060 C   0  0  0  0  0  0  0  0  0  0  0  0
   63.8560   32.7140   48.6590 C   0  0  0  0  0  0  0  0  0  0  0  0
   63.1370   33.6890   49.3560 C   0  0  0  0  0  0  0  0  0  0  0  0
   61.9690   34.2250   48.8060 C   0  0  0  0  0  0  0  0  0  0  0  0
   58.4720   32.6120   46.6940 C   0  0  0  0  0  0  0  0  0  0  0  0
   59.0560   31.3880   47.3840 C   0  0  0  0  0  0  0  0  0  0  0  0
   59.1580   30.1050   46.7780 C   0  0  0  0  0  0  0  0  0  0  0  0
   58.6260   29.5730   45.4560 C   0  0  0  0  0  0  0  0  0  0  0  0
   57.3680   30.3230   44.9710 C   0  0  0  0  0  0  0  0  0  0  0  0
   56.5300   29.4720   43.9960 C   0  0  0  0  0  0  0  0  0  0  0  0
   57.3900   28.6140   43.1650 N   0  0  0  0  0  0  0  0  0  0  0  0
   58.1190   27.5960   43.9550 C   0  0  0  0  0  0  0  0  0  0  0  0
   58.4440   28.0490   45.3960 C   0  0  0  0  0  0  0  0  0  0  0  0
   60.0220   29.0910   47.8070 S   0  0  0  0  0  0  0  0  0  0  0  0
   60.2200   30.2000   49.0440 C   0  0  0  0  0  0  0  0  0  0  0  0
   59.6030   31.3920   48.7080 C   0  0  0  0  0  0  0  0  0  0  0  0
   59.5540   32.3930   49.6970 C   0  0  0  0  0  0  0  0  0  0  0  0
   58.8860   33.4450   49.5160 O   0  0  0  0  0  0  0  0  0  0  0  0
   60.2070   32.2000   50.8920 N   0  0  0  0  0  0  0  0  0  0  0  0
   60.1740   33.2590   51.9170 C   0  0  0  0  0  0  0  0  0  0  0  0
   60.8150   30.9970   51.1730 C   0  0  0  0  0  0  0  0  0  0  0  0
   61.3420   30.8110   52.3060 O   0  0  0  0  0  0  0  0  0  0  0  0
   60.8360   29.9910   50.2400 N   0  0  0  0  0  0  0  0  0  0  0  0
   61.4450   28.6840   50.5410 C   0  0  0  0  0  0  0  0  0  0  0  0
   58.3272   34.9570   45.1946 H   0  0  0  0  0  0  0  0  0  0  0  0
   59.7973   34.5280   44.2557 H   0  0  0  0  0  0  0  0  0  0  0  0
   58.3784   33.4265   44.2557 H   0  0  0  0  0  0  0  0  0  0  0  0
   60.4985   35.2556   46.3946 H   0  0  0  0  0  0  0  0  0  0  0  0
   59.5481   34.5444   47.7949 H   0  0  0  0  0  0  0  0  0  0  0  0
   61.9135   32.4902   45.8583 H   0  0  0  0  0  0  0  0  0  0  0  0
   63.9865   31.5250   46.8531 H   0  0  0  0  0  0  0  0  0  0  0  0
   64.7690   32.2849   49.0976 H   0  0  0  0  0  0  0  0  0  0  0  0
   63.4906   34.0350   50.3385 H   0  0  0  0  0  0  0  0  0  0  0  0
   61.4144   35.0023   49.3521 H   0  0  0  0  0  0  0  0  0  0  0  0
   57.9586   33.2314   47.4442 H   0  0  0  0  0  0  0  0  0  0  0  0
   57.7729   32.2640   45.9193 H   0  0  0  0  0  0  0  0  0  0  0  0
   59.4345   29.7894   44.7422 H   0  0  0  0  0  0  0  0  0  0  0  0
   56.7481   30.5782   45.8431 H   0  0  0  0  0  0  0  0  0  0  0  0
   57.6955   31.2278   44.4381 H   0  0  0  0  0  0  0  0  0  0  0  0
   55.8414   28.8379   44.5737 H   0  0  0  0  0  0  0  0  0  0  0  0
   55.9702   30.1496   43.3345 H   0  0  0  0  0  0  0  0  0  0  0  0
   56.7930   28.1290   42.4550 H   0  0  0  0  0  0  0  0  0  0  0  0
   58.0740   29.2140   42.6470 H   0  0  0  0  0  0  0  0  0  0  0  0
   57.5009   26.6876   44.0069 H   0  0  0  0  0  0  0  0  0  0  0  0
   59.0789   27.4198   43.4475 H   0  0  0  0  0  0  0  0  0  0  0  0
   57.6182   27.7571   46.0615 H   0  0  0  0  0  0  0  0  0  0  0  0
   59.3796   27.5674   45.7164 H   0  0  0  0  0  0  0  0  0  0  0  0
   60.1883   32.8017   52.9173 H   0  0  0  0  0  0  0  0  0  0  0  0
   61.0523   33.9107   51.7993 H   0  0  0  0  0  0  0  0  0  0  0  0
   59.2569   33.8548   51.7993 H   0  0  0  0  0  0  0  0  0  0  0  0
   61.5071   28.5508   51.6311 H   0  0  0  0  0  0  0  0  0  0  0  0
   60.8272   27.8833   50.1083 H   0  0  0  0  0  0  0  0  0  0  0  0
   62.4555   28.6419   50.1083 H   0  0  0  0  0  0  0  0  0  0  0  0
  1  2  1  0
  2  3  1  0
  3  4  1  0
  4  5  2  0
  5  6  1  0
  6  7  2  0
  7  8  1  0
  8  9  2  0
  2 10  1  0
 10 11  1  0
 11 12  2  0
 12 13  1  0
 13 14  1  0
 14 15  1  0
 15 16  1  0
 16 17  1  0
 17 18  1  0
 12 19  1  0
 19 20  1  0
 20 21  2  0
 21 22  1  0
 22 23  2  0
 22 24  1  0
 24 25  1  0
 24 26  1  0
 26 27  2  0
 26 28  1  0
 28 29  1  0
  9  4  1  0
 21 11  1  0
 18 13  1  0
 28 20  1  0
  1 30  1  0
  1 31  1  0
  1 32  1  0
  3 33  1  0
  3 34  1  0
  5 35  1  0
  6 36  1  0
  7 37  1  0
  8 38  1  0
  9 39  1  0
 10 40  1  0
 10 41  1  0
 13 42  1  0
 14 43  1  0
 14 44  1  0
 15 45  1  0
 15 46  1  0
 16 47  1  0
 16 48  1  0
 17 49  1  0
 17 50  1  0
 18 51  1  0
 18 52  1  0
 25 53  1  0
 25 54  1  0
 25 55  1  0
 29 56  1  0
 29 57  1  0
 29 58  1  0
M  CHG  1  16   1
M  END
>  <UniqueID>  (2) 
2

>  <SMILES>  (2) 
CN(Cc1ccccc1)Cc1c(C2CC[NH2+]CC2)sc2c1c(=O)n(C)c(=O)n2C

>  <Energy>  (2) 
115.13085297067433

>  <Genealogy>  (2) 
CN(Cc1ccccc1)Cc1c(C2CC[NH2+]CC2)sc2c1c(=O)n(C)c(=O)n2C (protonated)
CN(Cc1ccccc1)Cc1c(C2CC[NH2+]CC2)sc2c1c(=O)n(C)c(=O)n2C (3D coordinates assigned)
CN(Cc1ccccc1)Cc1c(C2CC[NH2+]CC2)sc2c1c(=O)n(C)c(=O)n2C (nonaromatic ring conformer: 115.13085297067433 kcal/mol)

>  <smiles>  (2) 
CN(Cc1ccccc1)Cc1c(C2CCNCC2)sc2c1c(=O)n(C)c(=O)n2C

>  <score_type>  (2) 
oracle

>  <origin>  (2) 
adg

>  <m_score__min__energy>  (2) 
-7.0999999999999996

>  <m_primary>  (2) 
energy

$$$$
2:0
     RDKit          3D

 43 44  0  0  0  0  0  0  0  0999 V2000
   62.2440   32.7570   47.4940 C   0  0  0  0  0  0  0  0  0  0  0  0
   61.6590   33.8620   46.6170 C   0  0  0  0  0  0  0  0  0  0  0  0
   60.2060   34.0150   46.8650 N   0  0  0  0  0  0  0  0  0  0  0  0
   59.9750   34.5920   48.2060 C   0  0  0  0  0  0  0  0  0  0  0  0
   59.5860   34.8600   45.8190 C   0  0  0  0  0  0  0  0  0  0  0  0
   58.7400   34.0230   44.8460 C   0  0  0  0  0  0  0  0  0  0  0  0
   58.5350   32.6760   45.3760 N   0  0  0  0  0  0  0  0  0  0  0  0
   58.2150   31.5570   44.5320 C   0  0  0  0  0  0  0  0  0  0  0  0
   58.1120   31.7250   43.2870 O   0  0  0  0  0  0  0  0  0  0  0  0
   57.9840   30.2150   45.1140 C   0  0  0  0  0  0  0  0  0  0  0  0
   56.8390   29.4480   44.8940 C   0  0  0  0  0  0  0  0  0  0  0  0
   57.0630   28.2620   45.5540 C   0  0  0  0  0  0  0  0  0  0  0  0
   56.2620   27.1260   45.6470 C   0  0  0  0  0  0  0  0  0  0  0  0
   56.7530   26.0190   46.3650 C   0  0  0  0  0  0  0  0  0  0  0  0
   55.9200   24.8560   46.4820 N   0  0  0  0  0  0  0  0  0  0  0  0
   54.7260   24.5810   45.7410 C   0  0  0  0  0  0  0  0  0  0  0  0
   53.8260   25.4520   45.6060 O   0  0  0  0  0  0  0  0  0  0  0  0
   58.0240   26.0990   46.9930 C   0  0  0  0  0  0  0  0  0  0  0  0
   58.8100   27.2590   46.8760 C   0  0  0  0  0  0  0  0  0  0  0  0
   58.2970   28.3350   46.1430 C   0  0  0  0  0  0  0  0  0  0  0  0
   58.8680   29.5350   45.8970 N   0  0  0  0  0  0  0  0  0  0  0  0
   60.1860   29.9920   46.3450 C   0  0  0  0  0  0  0  0  0  0  0  0
   62.1058   33.0180   48.5536 H   0  0  0  0  0  0  0  0  0  0  0  0
   61.7300   31.8083   47.2800 H   0  0  0  0  0  0  0  0  0  0  0  0
   63.3175   32.6488   47.2800 H   0  0  0  0  0  0  0  0  0  0  0  0
   62.1661   34.8109   46.8459 H   0  0  0  0  0  0  0  0  0  0  0  0
   61.8107   33.5926   45.5613 H   0  0  0  0  0  0  0  0  0  0  0  0
   60.2674   33.8616   48.9748 H   0  0  0  0  0  0  0  0  0  0  0  0
   60.5766   35.5057   48.3206 H   0  0  0  0  0  0  0  0  0  0  0  0
   58.9090   34.8381   48.3206 H   0  0  0  0  0  0  0  0  0  0  0  0
   58.9402   35.6088   46.3009 H   0  0  0  0  0  0  0  0  0  0  0  0
   60.3900   35.3460   45.2468 H   0  0  0  0  0  0  0  0  0  0  0  0
   57.7634   34.5091   44.7046 H   0  0  0  0  0  0  0  0  0  0  0  0
   59.2697   33.9508   43.8846 H   0  0  0  0  0  0  0  0  0  0  0  0
   58.6140   32.5420   46.4080 H   0  0  0  0  0  0  0  0  0  0  0  0
   55.9472   29.7315   44.3159 H   0  0  0  0  0  0  0  0  0  0  0  0
   55.2707   27.0947   45.1713 H   0  0  0  0  0  0  0  0  0  0  0  0
   54.5922   23.5908   45.2811 H   0  0  0  0  0  0  0  0  0  0  0  0
   58.3975   25.2449   47.5769 H   0  0  0  0  0  0  0  0  0  0  0  0
   59.8017   27.3191   47.3481 H   0  0  0  0  0  0  0  0  0  0  0  0
   60.2162   30.0025   47.4445 H   0  0  0  0  0  0  0  0  0  0  0  0
   60.9599   29.3097   45.9634 H   0  0  0  0  0  0  0  0  0  0  0  0
   60.3714   31.0069   45.9634 H   0  0  0  0  0  0  0  0  0  0  0  0
  1  2  1  0
  2  3  1  0
  3  4  1  0
  3  5  1  0
  5  6  1  0
  6  7  1  0
  7  8  1  0
  8  9  2  0
  8 10  1  0
 10 11  2  0
 11 12  1  0
 12 13  2  0
 13 14  1  0
 14 15  1  0
 15 16  1  0
 16 17  2  0
 14 18  2  0
 18 19  1  0
 19 20  2  0
 20 21  1  0
 21 22  1  0
 21 10  1  0
 20 12  1  0
  1 23  1  0
  1 24  1  0
  1 25  1  0
  2 26  1  0
  2 27  1  0
  4 28  1  0
  4 29  1  0
  4 30  1  0
  5 31  1  0
  5 32  1  0
  6 33  1  0
  6 34  1  0
  7 35  1  0
 11 36  1  0
 13 37  1  0
 16 38  1  0
 18 39  1  0
 19 40  1  0
 22 41  1  0
 22 42  1  0
 22 43  1  0
M  CHG  1  15  -1
M  END
>  <UniqueID>  (3) 
3

>  <SMILES>  (3) 
CCN(C)CCNC(=O)c1cc2cc([N-]C=O)ccc2n1C

>  <Energy>  (3) 
78.72016220623217

>  <Genealogy>  (3) 
CCN(C)CCNC(=O)c1cc2cc([N-]C=O)ccc2n1C (protonated)
CCN(C)CCNC(=O)c1cc2cc([N-]C=O)ccc2n1C (3D coordinates assigned)
CCN(C)CCNC(=O)c1cc2cc([N-]C=O)ccc2n1C (optimized conformer: 78.72016220623217 kcal/mol)

>  <smiles>  (3) 
CCN(C)CCNC(=O)c1cc2cc(NC=O)ccc2n1C

>  <score_type>  (3) 
oracle

>  <origin>  (3) 
adg

>  <m_score__min__energy>  (3) 
-8.3200000000000003

>  <m_primary>  (3) 
energy

$$$$
3:0
     RDKit          3D

 36 37  0  0  0  0  0  0  0  0999 V2000
   63.5160   33.1490   47.6870 C   0  0  0  0  0  0  0  0  0  0  0  0
   62.0470   33.3850   47.4970 C   0  0  0  0  0  0  0  0  0  0  0  0
   61.5810   34.0600   46.3600 C   0  0  0  0  0  0  0  0  0  0  0  0
   60.2110   34.2450   46.1640 C   0  0  0  0  0  0  0  0  0  0  0  0
   59.2880   33.7600   47.0980 C   0  0  0  0  0  0  0  0  0  0  0  0
   57.8900   33.9800   46.8730 N   0  0  0  0  0  0  0  0  0  0  0  0
   57.2490   33.5120   45.6430 C   0  0  0  0  0  0  0  0  0  0  0  0
   57.9630   32.2570   45.1000 C   0  0  0  0  0  0  0  0  0  0  0  0
   57.0970   31.0650   44.9620 N   0  0  0  0  0  0  0  0  0  0  0  0
   57.6770   29.8430   45.5520 C   0  0  0  0  0  0  0  0  0  0  0  0
   56.8090   28.6140   45.2160 C   0  0  0  0  0  0  0  0  0  0  0  0
   55.5020   29.0110   44.8480 O   0  0  0  0  0  0  0  0  0  0  0  0
   55.5350   29.7150   43.6170 C   0  0  0  0  0  0  0  0  0  0  0  0
   56.6100   30.8240   43.5940 C   0  0  0  0  0  0  0  0  0  0  0  0
   59.7480   33.0450   48.2220 C   0  0  0  0  0  0  0  0  0  0  0  0
   58.5430   32.2210   49.4630 Br  0  0  0  0  0  0  0  0  0  0  0  0
   61.1230   32.8610   48.4130 C   0  0  0  0  0  0  0  0  0  0  0  0
   63.7454   33.1121   48.7622 H   0  0  0  0  0  0  0  0  0  0  0  0
   63.7975   32.1941   47.2191 H   0  0  0  0  0  0  0  0  0  0  0  0
   64.0824   33.9677   47.2191 H   0  0  0  0  0  0  0  0  0  0  0  0
   62.2974   34.4453   45.6195 H   0  0  0  0  0  0  0  0  0  0  0  0
   59.8543   34.7758   45.2690 H   0  0  0  0  0  0  0  0  0  0  0  0
   57.2990   34.2010   47.7070 H   0  0  0  0  0  0  0  0  0  0  0  0
   56.1978   33.2664   45.8544 H   0  0  0  0  0  0  0  0  0  0  0  0
   57.3100   34.3087   44.8870 H   0  0  0  0  0  0  0  0  0  0  0  0
   58.3743   32.4985   44.1088 H   0  0  0  0  0  0  0  0  0  0  0  0
   58.7366   31.9958   45.8371 H   0  0  0  0  0  0  0  0  0  0  0  0
   58.6892   29.6920   45.1486 H   0  0  0  0  0  0  0  0  0  0  0  0
   57.7168   29.9611   46.6449 H   0  0  0  0  0  0  0  0  0  0  0  0
   57.2683   28.0649   44.3808 H   0  0  0  0  0  0  0  0  0  0  0  0
   56.7460   27.9712   46.1064 H   0  0  0  0  0  0  0  0  0  0  0  0
   55.7489   29.0005   42.8085 H   0  0  0  0  0  0  0  0  0  0  0  0
   54.5558   30.1982   43.4839 H   0  0  0  0  0  0  0  0  0  0  0  0
   57.4490   30.5080   42.9567 H   0  0  0  0  0  0  0  0  0  0  0  0
   56.1725   31.7500   43.1925 H   0  0  0  0  0  0  0  0  0  0  0  0
   61.4816   32.3006   49.2890 H   0  0  0  0  0  0  0  0  0  0  0  0
  1  2  1  0
  2  3  2  0
  3  4  1  0
  4  5  2  0
  5  6  1  0
  6  7  1  0
  7  8  1  0
  8  9  1  0
  9 10  1  0
 10 11  1  0
 11 12  1  0
 12 13  1  0
 13 14  1  0
  5 15  1  0
 15 16  1  0
 15 17  2  0
 17  2  1  0
 14  9  1  0
  1 18  1  0
  1 19  1  0
  1 20  1  0
  3 21  1  0
  4 22  1  0
  6 23  1  0
  7 24  1  0
  7 25  1  0
  8 26  1  0
  8 27  1  0
 10 28  1  0
 10 29  1  0
 11 30  1  0
 11 31  1  0
 13 32  1  0
 13 33  1  0
 14 34  1  0
 14 35  1  0
 17 36  1  0
M  END
>  <UniqueID>  (4) 
4

>  <SMILES>  (4) 
Cc1ccc(NCCN2CCOCC2)c(Br)c1

>  <Energy>  (4) 
51.09865027505793

>  <Genealogy>  (4) 
Cc1ccc(NCCN2CCOCC2)c(Br)c1 (3D coordinates assigned)
Cc1ccc(NCCN2CCOCC2)c(Br)c1 (nonaromatic ring conformer: 51.09865027505793 kcal/mol)

>  <smiles>  (4) 
Cc1ccc(NCCN2CCOCC2)c(Br)c1

>  <score_type>  (4) 
oracle

>  <origin>  (4) 
adg

>  <m_score__min__energy>  (4) 
-7.2599999999999998

>  <m_primary>  (4) 
energy

$$$$
4:0
     RDKit          3D

 40 41  0  0  0  0  0  0  0  0999 V2000
   58.9590   31.2630   48.2650 C   0  0  0  0  0  0  0  0  0  0  0  0
   59.7440   32.4530   47.7140 C   0  0  0  0  0  0  0  0  0  0  0  0
   58.8900   33.6510   47.5570 N   0  0  0  0  0  0  0  0  0  0  0  0
   59.7150   34.8540   47.3490 C   0  0  0  0  0  0  0  0  0  0  0  0
   57.8230   33.5250   46.5340 C   0  0  0  0  0  0  0  0  0  0  0  0
   58.2300   32.7220   45.2810 C   0  0  0  0  0  0  0  0  0  0  0  0
   57.0900   31.9320   44.7940 N   0  0  0  0  0  0  0  0  0  0  0  0
   57.4890   30.8350   43.8850 C   0  0  2  0  0  0  0  0  0  0  0  0
   56.2680   30.3870   43.0680 C   0  0  0  0  0  0  0  0  0  0  0  0
   55.2200   29.7190   43.9640 C   0  0  0  0  0  0  0  0  0  0  0  0
   55.8140   28.6430   44.7570 N   0  0  0  0  0  0  0  0  0  0  0  0
   57.2100   28.6250   45.1130 C   0  0  0  0  0  0  0  0  0  0  0  0
   57.7530   27.5670   45.8760 C   0  0  0  0  0  0  0  0  0  0  0  0
   56.6780   26.1200   46.5310 Br  0  0  0  0  0  0  0  0  0  0  0  0
   59.1210   27.5450   46.1650 C   0  0  0  0  0  0  0  0  0  0  0  0
   59.9580   28.5580   45.6990 C   0  0  0  0  0  0  0  0  0  0  0  0
   59.4350   29.6080   44.9470 C   0  0  0  0  0  0  0  0  0  0  0  0
   58.0620   29.6570   44.6540 C   0  0  0  0  0  0  0  0  0  0  0  0
   58.9766   31.2896   49.3645 H   0  0  0  0  0  0  0  0  0  0  0  0
   57.9180   31.3160   47.9135 H   0  0  0  0  0  0  0  0  0  0  0  0
   59.4174   30.3269   47.9135 H   0  0  0  0  0  0  0  0  0  0  0  0
   60.5648   32.6895   48.4071 H   0  0  0  0  0  0  0  0  0  0  0  0
   60.1306   32.1770   46.7219 H   0  0  0  0  0  0  0  0  0  0  0  0
   60.0031   35.2741   48.3239 H   0  0  0  0  0  0  0  0  0  0  0  0
   60.6196   34.5850   46.7839 H   0  0  0  0  0  0  0  0  0  0  0  0
   59.1382   35.6010   46.7839 H   0  0  0  0  0  0  0  0  0  0  0  0
   56.9600   33.0246   46.9975 H   0  0  0  0  0  0  0  0  0  0  0  0
   57.5956   34.5453   46.1916 H   0  0  0  0  0  0  0  0  0  0  0  0
   58.5538   33.4175   44.4927 H   0  0  0  0  0  0  0  0  0  0  0  0
   59.0539   32.0415   45.5418 H   0  0  0  0  0  0  0  0  0  0  0  0
   56.5690   31.5470   45.6190 H   0  0  0  0  0  0  0  0  0  0  0  0
   58.2751   31.2075   43.2118 H   0  0  0  0  0  0  0  0  0  0  0  0
   55.8183   31.2658   42.5828 H   0  0  0  0  0  0  0  0  0  0  0  0
   56.6001   29.6573   42.3148 H   0  0  0  0  0  0  0  0  0  0  0  0
   54.7947   30.4728   44.6428 H   0  0  0  0  0  0  0  0  0  0  0  0
   54.4358   29.2890   43.3236 H   0  0  0  0  0  0  0  0  0  0  0  0
   55.1590   27.9340   45.1520 H   0  0  0  0  0  0  0  0  0  0  0  0
   59.5396   26.7229   46.7641 H   0  0  0  0  0  0  0  0  0  0  0  0
   61.0340   28.5282   45.9256 H   0  0  0  0  0  0  0  0  0  0  0  0
   60.1011   30.4031   44.5807 H   0  0  0  0  0  0  0  0  0  0  0  0
  1  2  1  0
  2  3  1  0
  3  4  1  0
  3  5  1  0
  5  6  1  0
  6  7  1  0
  7  8  1  0
  8  9  1  0
  9 10  1  0
 10 11  1  0
 11 12  1  0
 12 13  2  0
 13 14  1  0
 13 15  1  0
 15 16  2  0
 16 17  1  0
 17 18  2  0
 18  8  1  0
 18 12  1  0
  1 19  1  0
  1 20  1  0
  1 21  1  0
  2 22  1  0
  2 23  1  0
  4 24  1  0
  4 25  1  0
  4 26  1  0
  5 27  1  0
  5 28  1  0
  6 29  1  0
  6 30  1  0
  7 31  1  0
  8 32  1  6
  9 33  1  0
  9 34  1  0
 10 35  1  0
 10 36  1  0
 11 37  1  0
 15 38  1  0
 16 39  1  0
 17 40  1  0
M  END
>  <UniqueID>  (5) 
5

>  <SMILES>  (5) 
CCN(C)CCN[C@@H]1CCNc2c(Br)cccc21

>  <Energy>  (5) 
43.095297160186064

>  <Genealogy>  (5) 
CCN(C)CCN[C@@H]1CCNc2c(Br)cccc21 (chirality)
CCN(C)CCN[C@@H]1CCNc2c(Br)cccc21 (3D coordinates assigned)
CCN(C)CCN[C@@H]1CCNc2c(Br)cccc21 (nonaromatic ring conformer: 43.095297160186064 kcal/mol)

>  <smiles>  (5) 
CCN(C)CCNC1CCNc2c(Br)cccc21

>  <score_type>  (5) 
oracle

>  <origin>  (5) 
adg

>  <m_score__min__energy>  (5) 
-7.4100000000000001

>  <m_primary>  (5) 
energy

$$$$
5:0
     RDKit          3D

 52 55  0  0  0  0  0  0  0  0999 V2000
   57.7780   28.7110   44.3090 C   0  0  0  0  0  0  0  0  0  0  0  0
   56.6870   29.6990   43.9120 C   0  0  0  0  0  0  0  0  0  0  0  0
   56.6410   30.8150   44.8680 N   0  0  0  0  0  0  0  0  0  0  0  0
   57.1380   32.0820   44.2950 C   0  0  0  0  0  0  0  0  0  0  0  0
   57.0720   33.2530   45.2910 C   0  0  0  0  0  0  0  0  0  0  0  0
   58.1230   33.1490   46.2970 N   0  0  0  0  0  0  0  0  0  0  0  0
   57.9310   32.9280   47.6180 C   0  0  0  0  0  0  0  0  0  0  0  0
   59.1670   32.9820   48.2190 C   0  0  0  0  0  0  0  0  0  0  0  0
   59.5880   32.8340   49.5380 C   0  0  0  0  0  0  0  0  0  0  0  0
   58.6500   32.6260   50.6040 N   0  0  0  0  0  0  0  0  0  0  0  0
   58.6930   33.5030   51.7820 C   0  0  0  0  0  0  0  0  0  0  0  0
   57.8310   32.9460   52.9200 C   0  0  0  0  0  0  0  0  0  0  0  0
   58.1280   31.4580   53.1440 C   0  0  0  0  0  0  0  0  0  0  0  0
   58.0080   30.5960   51.8540 C   0  0  1  0  0  0  0  0  0  0  0  0
   56.9260   29.6190   51.9920 N   0  0  0  0  0  0  0  0  0  0  0  0
   57.7780   31.4480   50.5890 C   0  0  0  0  0  0  0  0  0  0  0  0
   60.9300   32.9120   49.8010 N   0  0  0  0  0  0  0  0  0  0  0  0
   61.8580   33.1490   48.8080 C   0  0  0  0  0  0  0  0  0  0  0  0
   63.2390   33.2370   49.0950 C   0  0  0  0  0  0  0  0  0  0  0  0
   63.8690   33.0470   50.7270 Cl  0  0  0  0  0  0  0  0  0  0  0  0
   64.1520   33.4840   48.0620 C   0  0  0  0  0  0  0  0  0  0  0  0
   63.7130   33.6440   46.7450 C   0  0  0  0  0  0  0  0  0  0  0  0
   62.3540   33.5620   46.4410 C   0  0  0  0  0  0  0  0  0  0  0  0
   61.4250   33.3160   47.4600 C   0  0  0  0  0  0  0  0  0  0  0  0
   60.0570   33.2210   47.2130 C   0  0  0  0  0  0  0  0  0  0  0  0
   59.4130   33.3320   46.0360 N   0  0  0  0  0  0  0  0  0  0  0  0
   57.8402   28.6547   45.4058 H   0  0  0  0  0  0  0  0  0  0  0  0
   57.5376   27.7170   43.9038 H   0  0  0  0  0  0  0  0  0  0  0  0
   58.7434   29.0485   43.9038 H   0  0  0  0  0  0  0  0  0  0  0  0
   56.8997   30.0905   42.9063 H   0  0  0  0  0  0  0  0  0  0  0  0
   55.7159   29.1824   43.9160 H   0  0  0  0  0  0  0  0  0  0  0  0
   55.6610   30.9300   45.2180 H   0  0  0  0  0  0  0  0  0  0  0  0
   58.1844   31.9416   43.9864 H   0  0  0  0  0  0  0  0  0  0  0  0
   56.4916   32.3359   43.4419 H   0  0  0  0  0  0  0  0  0  0  0  0
   57.1930   34.1984   44.7419 H   0  0  0  0  0  0  0  0  0  0  0  0
   56.0976   33.2227   45.8005 H   0  0  0  0  0  0  0  0  0  0  0  0
   56.9687   32.7406   48.1168 H   0  0  0  0  0  0  0  0  0  0  0  0
   59.7336   33.5875   52.1285 H   0  0  0  0  0  0  0  0  0  0  0  0
   58.2977   34.4890   51.4965 H   0  0  0  0  0  0  0  0  0  0  0  0
   58.0495   33.5013   53.8441 H   0  0  0  0  0  0  0  0  0  0  0  0
   56.7708   33.0591   52.6496 H   0  0  0  0  0  0  0  0  0  0  0  0
   59.1531   31.3628   53.5314 H   0  0  0  0  0  0  0  0  0  0  0  0
   57.3754   31.0827   53.8530 H   0  0  0  0  0  0  0  0  0  0  0  0
   58.9693   30.0754   51.7318 H   0  0  0  0  0  0  0  0  0  0  0  0
   56.4650   29.7640   52.9190 H   0  0  0  0  0  0  0  0  0  0  0  0
   56.1950   29.8370   51.2740 H   0  0  0  0  0  0  0  0  0  0  0  0
   58.0012   30.8426   49.6981 H   0  0  0  0  0  0  0  0  0  0  0  0
   56.7293   31.7792   50.5663 H   0  0  0  0  0  0  0  0  0  0  0  0
   61.2350   32.8040   50.7930 H   0  0  0  0  0  0  0  0  0  0  0  0
   65.2260   33.5528   48.2898 H   0  0  0  0  0  0  0  0  0  0  0  0
   64.4425   33.8355   45.9443 H   0  0  0  0  0  0  0  0  0  0  0  0
   62.0127   33.6903   45.4032 H   0  0  0  0  0  0  0  0  0  0  0  0
  1  2  1  0
  2  3  1  0
  3  4  1  0
  4  5  1  0
  5  6  1  0
  6  7  1  0
  7  8  2  0
  8  9  1  0
  9 10  1  0
 10 11  1  0
 11 12  1  0
 12 13  1  0
 13 14  1  0
 14 15  1  0
 14 16  1  0
  9 17  2  0
 17 18  1  0
 18 19  2  0
 19 20  1  0
 19 21  1  0
 21 22  2  0
 22 23  1  0
 23 24  2  0
 24 25  1  0
 25 26  2  0
 26  6  1  0
 25  8  1  0
 16 10  1  0
 24 18  1  0
  1 27  1  0
  1 28  1  0
  1 29  1  0
  2 30  1  0
  2 31  1  0
  3 32  1  0
  4 33  1  0
  4 34  1  0
  5 35  1  0
  5 36  1  0
  7 37  1  0
 11 38  1  0
 11 39  1  0
 12 40  1  0
 12 41  1  0
 13 42  1  0
 13 43  1  0
 14 44  1  6
 15 45  1  0
 15 46  1  0
 16 47  1  0
 16 48  1  0
 17 49  1  0
 21 50  1  0
 22 51  1  0
 23 52  1  0
M  CHG  1  17   1
M  END
>  <UniqueID>  (6) 
6

>  <SMILES>  (6) 
CCNCCn1cc2c(N3CCC[C@@H](N)C3)[nH+]c3c(Cl)cccc3c2n1

>  <Energy>  (6) 
99.25395645310724

>  <Genealogy>  (6) 
CCNCCn1cc2c(N3CCCC(N)C3)[nH+]c3c(Cl)cccc3c2n1 (protonated)
CCNCCn1cc2c(N3CCC[C@@H](N)C3)[nH+]c3c(Cl)cccc3c2n1 (chirality)
CCNCCn1cc2c(N3CCC[C@@H](N)C3)[nH+]c3c(Cl)cccc3c2n1 (3D coordinates assigned)
CCNCCn1cc2c(N3CCC[C@@H](N)C3)[nH+]c3c(Cl)cccc3c2n1 (nonaromatic ring conformer: 99.25395645310724 kcal/mol)

>  <smiles>  (6) 
CCNCCn1cc2c(N3CCCC(N)C3)nc3c(Cl)cccc3c2n1

>  <score_type>  (6) 
oracle

>  <origin>  (6) 
adg

>  <m_score__min__energy>  (6) 
-6.75

>  <m_primary>  (6) 
energy

$$$$
6:0
     RDKit          3D

 44 45  0  0  0  0  0  0  0  0999 V2000
   56.6540   29.3330   42.8140 C   0  0  0  0  0  0  0  0  0  0  0  0
   56.1180   30.2450   43.9140 C   0  0  0  0  0  0  0  0  0  0  0  0
   56.4590   29.7100   45.2400 N   0  0  0  0  0  0  0  0  0  0  0  0
   56.6430   28.2520   45.2000 C   0  0  0  0  0  0  0  0  0  0  0  0
   57.6910   27.8220   46.2300 C   0  0  0  0  0  0  0  0  0  0  0  0
   58.8400   28.7380   46.2070 N   0  0  0  0  0  0  0  0  0  0  0  0
   59.0170   29.4070   47.5050 C   0  0  0  0  0  0  0  0  0  0  0  0
   59.9570   30.5920   47.4040 C   0  0  0  0  0  0  0  0  0  0  0  0
   61.1650   30.5800   48.1250 C   0  0  0  0  0  0  0  0  0  0  0  0
   62.0540   31.6590   48.0470 C   0  0  0  0  0  0  0  0  0  0  0  0
   63.2480   31.6580   48.7870 C   0  0  0  0  0  0  0  0  0  0  0  0
   64.1280   32.7430   48.7030 C   0  0  0  0  0  0  0  0  0  0  0  0
   63.8240   33.8300   47.8820 C   0  0  0  0  0  0  0  0  0  0  0  0
   62.6390   33.8420   47.1390 C   0  0  0  0  0  0  0  0  0  0  0  0
   61.7470   32.7600   47.2150 C   0  0  0  0  0  0  0  0  0  0  0  0
   60.5590   32.7600   46.4720 C   0  0  0  0  0  0  0  0  0  0  0  0
   59.6630   31.6750   46.5470 C   0  0  0  0  0  0  0  0  0  0  0  0
   58.4740   31.6380   45.7940 O   0  0  0  0  0  0  0  0  0  0  0  0
   58.0280   32.6350   44.8750 C   0  0  0  0  0  0  0  0  0  0  0  0
   57.3530   33.7890   45.6100 C   0  0  0  0  0  0  0  0  0  0  0  0
   57.1615   28.4694   43.2686 H   0  0  0  0  0  0  0  0  0  0  0  0
   55.8191   28.9810   42.1903 H   0  0  0  0  0  0  0  0  0  0  0  0
   57.3677   29.8912   42.1903 H   0  0  0  0  0  0  0  0  0  0  0  0
   56.5616   31.2454   43.8026 H   0  0  0  0  0  0  0  0  0  0  0  0
   55.0231   30.3028   43.8252 H   0  0  0  0  0  0  0  0  0  0  0  0
   57.3700   30.1350   45.5350 H   0  0  0  0  0  0  0  0  0  0  0  0
   55.6864   27.7588   45.4275 H   0  0  0  0  0  0  0  0  0  0  0  0
   56.9865   27.9613   44.1962 H   0  0  0  0  0  0  0  0  0  0  0  0
   57.2391   27.8330   47.2328 H   0  0  0  0  0  0  0  0  0  0  0  0
   58.0387   26.8082   45.9824 H   0  0  0  0  0  0  0  0  0  0  0  0
   58.6410   29.4860   45.4990 H   0  0  0  0  0  0  0  0  0  0  0  0
   58.0374   29.7589   47.8607 H   0  0  0  0  0  0  0  0  0  0  0  0
   59.4552   28.6818   48.2065 H   0  0  0  0  0  0  0  0  0  0  0  0
   61.4136   29.7142   48.7564 H   0  0  0  0  0  0  0  0  0  0  0  0
   63.4919   30.8025   49.4340 H   0  0  0  0  0  0  0  0  0  0  0  0
   65.0612   32.7391   49.2853 H   0  0  0  0  0  0  0  0  0  0  0  0
   64.5189   34.6804   47.8190 H   0  0  0  0  0  0  0  0  0  0  0  0
   62.4051   34.7013   46.4934 H   0  0  0  0  0  0  0  0  0  0  0  0
   60.3232   33.6163   45.8231 H   0  0  0  0  0  0  0  0  0  0  0  0
   58.8924   33.0211   44.3148 H   0  0  0  0  0  0  0  0  0  0  0  0
   57.2982   32.1799   44.1892 H   0  0  0  0  0  0  0  0  0  0  0  0
   57.4430   33.6351   46.6954 H   0  0  0  0  0  0  0  0  0  0  0  0
   57.8399   34.7355   45.3322 H   0  0  0  0  0  0  0  0  0  0  0  0
   56.2894   33.8285   45.3322 H   0  0  0  0  0  0  0  0  0  0  0  0
  1  2  1  0
  2  3  1  0
  3  4  1  0
  4  5  1  0
  5  6  1  0
  6  7  1  0
  7  8  1  0
  8  9  2  0
  9 10  1  0
 10 11  2  0
 11 12  1  0
 12 13  2  0
 13 14  1  0
 14 15  2  0
 15 16  1  0
 16 17  2  0
 17 18  1  0
 18 19  1  0
 19 20  1  0
 17  8  1  0
 15 10  1  0
  1 21  1  0
  1 22  1  0
  1 23  1  0
  2 24  1  0
  2 25  1  0
  3 26  1  0
  4 27  1  0
  4 28  1  0
  5 29  1  0
  5 30  1  0
  6 31  1  0
  7 32  1  0
  7 33  1  0
  9 34  1  0
 11 35  1  0
 12 36  1  0
 13 37  1  0
 14 38  1  0
 16 39  1  0
 19 40  1  0
 19 41  1  0
 20 42  1  0
 20 43  1  0
 20 44  1  0
M  END
>  <UniqueID>  (7) 
7

>  <SMILES>  (7) 
CCNCCNCc1cc2ccccc2cc1OCC

>  <Energy>  (7) 
39.473459159549684

>  <Genealogy>  (7) 
CCNCCNCc1cc2ccccc2cc1OCC (3D coordinates assigned)
CCNCCNCc1cc2ccccc2cc1OCC (optimized conformer: 39.473459159549684 kcal/mol)

>  <smiles>  (7) 
CCNCCNCc1cc2ccccc2cc1OCC

>  <score_type>  (7) 
oracle

>  <origin>  (7) 
adg

>  <m_score__min__energy>  (7) 
-6.2400000000000002

>  <m_primary>  (7) 
energy

$$$$
7:0
     RDKit          3D

 66 69  0  0  0  0  0  0  0  0999 V2000
   59.9620   28.9210   49.2410 C   0  0  0  0  0  0  0  0  0  0  0  0
   58.8860   29.9240   48.8280 C   0  0  0  0  0  0  0  0  0  0  0  0
   58.8690   31.1130   49.7980 C   0  0  0  0  0  0  0  0  0  0  0  0
   59.1620   30.3830   47.4670 N   0  0  0  0  0  0  0  0  0  0  0  0
   59.8330   29.6480   46.4320 C   0  0  0  0  0  0  0  0  0  0  0  0
   61.0910   29.7140   46.3670 O   0  0  0  0  0  0  0  0  0  0  0  0
   59.0880   28.8380   45.3970 C   0  0  0  0  0  0  0  0  0  0  0  0
   58.4040   29.7200   44.3400 C   0  0  1  0  0  0  0  0  0  0  0  0
   56.9170   29.4160   44.1920 C   0  0  0  0  0  0  0  0  0  0  0  0
   56.3060   30.7560   43.8890 C   0  0  0  0  0  0  0  0  0  0  0  0
   57.4390   31.7530   44.1450 C   0  0  1  0  0  0  0  0  0  0  0  0
   57.0240   32.9470   45.0350 C   0  0  0  0  0  0  0  0  0  0  0  0
   57.4960   32.8280   46.4280 N   0  0  0  0  0  0  0  0  0  0  0  0
   58.4550   33.8660   46.8540 C   0  0  0  0  0  0  0  0  0  0  0  0
   59.8080   33.8090   46.1170 C   0  0  0  0  0  0  0  0  0  0  0  0
   60.5530   32.5870   46.4320 N   0  0  0  0  0  0  0  0  0  0  0  0
   61.6990   32.5650   47.3040 C   0  0  0  0  0  0  0  0  0  0  0  0
   62.7470   33.4700   47.0800 C   0  0  0  0  0  0  0  0  0  0  0  0
   63.8650   33.4900   47.9170 C   0  0  0  0  0  0  0  0  0  0  0  0
   63.9550   32.5990   49.0000 C   0  0  0  0  0  0  0  0  0  0  0  0
   65.0510   32.5950   49.8810 C   0  0  0  0  0  0  0  0  0  0  0  0
   65.9910   33.4250   49.7310 O   0  0  0  0  0  0  0  0  0  0  0  0
   65.0770   31.6760   50.9490 C   0  0  0  0  0  0  0  0  0  0  0  0
   66.2030   31.6300   51.9160 C   0  0  0  0  0  0  0  0  0  0  0  0
   66.3220   32.6010   52.9280 C   0  0  0  0  0  0  0  0  0  0  0  0
   67.3890   32.5520   53.8310 C   0  0  0  0  0  0  0  0  0  0  0  0
   68.3450   31.5380   53.7350 C   0  0  0  0  0  0  0  0  0  0  0  0
   69.3790   31.4920   54.6120 F   0  0  0  0  0  0  0  0  0  0  0  0
   68.2370   30.5710   52.7310 C   0  0  0  0  0  0  0  0  0  0  0  0
   67.1750   30.6170   51.8220 C   0  0  0  0  0  0  0  0  0  0  0  0
   63.9910   30.8000   51.0960 C   0  0  0  0  0  0  0  0  0  0  0  0
   62.9680   30.8310   50.2490 O   0  0  0  0  0  0  0  0  0  0  0  0
   62.9080   31.6800   49.2280 C   0  0  0  0  0  0  0  0  0  0  0  0
   61.7930   31.6620   48.3820 C   0  0  0  0  0  0  0  0  0  0  0  0
   58.5380   31.0720   44.7060 O   0  0  0  0  0  0  0  0  0  0  0  0
   60.0152   28.8714   50.3386 H   0  0  0  0  0  0  0  0  0  0  0  0
   59.7104   27.9277   48.8409 H   0  0  0  0  0  0  0  0  0  0  0  0
   60.9352   29.2417   48.8409 H   0  0  0  0  0  0  0  0  0  0  0  0
   57.8986   29.4401   48.8595 H   0  0  0  0  0  0  0  0  0  0  0  0
   58.8743   30.7416   50.8334 H   0  0  0  0  0  0  0  0  0  0  0  0
   59.7583   31.7377   49.6280 H   0  0  0  0  0  0  0  0  0  0  0  0
   57.9622   31.7120   49.6280 H   0  0  0  0  0  0  0  0  0  0  0  0
   59.8011   28.1702   44.8914 H   0  0  0  0  0  0  0  0  0  0  0  0
   58.3026   28.2709   45.9182 H   0  0  0  0  0  0  0  0  0  0  0  0
   58.8953   29.5079   43.3790 H   0  0  0  0  0  0  0  0  0  0  0  0
   56.7415   28.7097   43.3672 H   0  0  0  0  0  0  0  0  0  0  0  0
   56.4875   28.9453   45.0887 H   0  0  0  0  0  0  0  0  0  0  0  0
   55.9728   30.8048   42.8418 H   0  0  0  0  0  0  0  0  0  0  0  0
   55.4172   30.9620   44.5035 H   0  0  0  0  0  0  0  0  0  0  0  0
   57.7146   32.1892   43.1735 H   0  0  0  0  0  0  0  0  0  0  0  0
   57.4426   33.8675   44.6019 H   0  0  0  0  0  0  0  0  0  0  0  0
   55.9245   32.9654   45.0638 H   0  0  0  0  0  0  0  0  0  0  0  0
   57.9300   31.8840   46.5500 H   0  0  0  0  0  0  0  0  0  0  0  0
   58.0023   34.8516   46.6706 H   0  0  0  0  0  0  0  0  0  0  0  0
   58.6646   33.6882   47.9191 H   0  0  0  0  0  0  0  0  0  0  0  0
   59.6238   33.8433   45.0331 H   0  0  0  0  0  0  0  0  0  0  0  0
   60.4105   34.6687   46.4453 H   0  0  0  0  0  0  0  0  0  0  0  0
   60.2390   31.6810   46.0160 H   0  0  0  0  0  0  0  0  0  0  0  0
   62.6877   34.1721   46.2353 H   0  0  0  0  0  0  0  0  0  0  0  0
   64.6783   34.2061   47.7277 H   0  0  0  0  0  0  0  0  0  0  0  0
   65.5725   33.4020   53.0091 H   0  0  0  0  0  0  0  0  0  0  0  0
   67.4756   33.3143   54.6193 H   0  0  0  0  0  0  0  0  0  0  0  0
   68.9892   29.7719   52.6558 H   0  0  0  0  0  0  0  0  0  0  0  0
   67.0993   29.8576   51.0298 H   0  0  0  0  0  0  0  0  0  0  0  0
   63.9865   30.0768   51.9248 H   0  0  0  0  0  0  0  0  0  0  0  0
   60.9843   30.9379   48.5598 H   0  0  0  0  0  0  0  0  0  0  0  0
  1  2  1  0
  2  3  1  0
  2  4  1  0
  4  5  1  0
  5  6  2  0
  5  7  1  0
  7  8  1  0
  8  9  1  0
  9 10  1  0
 10 11  1  0
 11 12  1  0
 12 13  1  0
 13 14  1  0
 14 15  1  0
 15 16  1  0
 16 17  1  0
 17 18  2  0
 18 19  1  0
 19 20  2  0
 20 21  1  0
 21 22  2  0
 21 23  1  0
 23 24  1  0
 24 25  2  0
 25 26  1  0
 26 27  2  0
 27 28  1  0
 27 29  1  0
 29 30  2  0
 23 31  2  0
 31 32  1  0
 32 33  1  0
 33 34  2  0
 11 35  1  0
 35  8  1  0
 34 17  1  0
 33 20  1  0
 30 24  1  0
  1 36  1  0
  1 37  1  0
  1 38  1  0
  2 39  1  0
  3 40  1  0
  3 41  1  0
  3 42  1  0
  7 43  1  0
  7 44  1  0
  8 45  1  6
  9 46  1  0
  9 47  1  0
 10 48  1  0
 10 49  1  0
 11 50  1  6
 12 51  1  0
 12 52  1  0
 13 53  1  0
 14 54  1  0
 14 55  1  0
 15 56  1  0
 15 57  1  0
 16 58  1  0
 18 59  1  0
 19 60  1  0
 25 61  1  0
 26 62  1  0
 29 63  1  0
 30 64  1  0
 31 65  1  0
 34 66  1  0
M  CHG  1   4  -1
M  END
>  <UniqueID>  (8) 
8

>  <SMILES>  (8) 
CC(C)[N-]C(=O)C[C@H]1CC[C@@H](CNCCNc2ccc3c(=O)c(-c4ccc(F)cc4)coc3c2)O1

>  <Energy>  (8) 
76.23188254518

>  <Genealogy>  (8) 
CC(C)[N-]C(=O)CC1CCC(CNCCNc2ccc3c(=O)c(-c4ccc(F)cc4)coc3c2)O1 (protonated)
CC(C)[N-]C(=O)C[C@H]1CC[C@@H](CNCCNc2ccc3c(=O)c(-c4ccc(F)cc4)coc3c2)O1 (chirality)
CC(C)[N-]C(=O)C[C@H]1CC[C@@H](CNCCNc2ccc3c(=O)c(-c4ccc(F)cc4)coc3c2)O1 (3D coordinates assigned)
CC(C)[N-]C(=O)C[C@H]1CC[C@@H](CNCCNc2ccc3c(=O)c(-c4ccc(F)cc4)coc3c2)O1 (nonaromatic ring conformer: 76.23188254518 kcal/mol)

>  <smiles>  (8) 
CC(C)NC(=O)CC1CCC(CNCCNc2ccc3c(=O)c(-c4ccc(F)cc4)coc3c2)O1

>  <score_type>  (8) 
oracle

>  <origin>  (8) 
adg

>  <m_score__min__energy>  (8) 
-11.859999999999999

>  <m_primary>  (8) 
energy

$$$$
8:0
     RDKit          3D

 56 56  0  0  0  0  0  0  0  0999 V2000
   62.0120   33.8640   50.7150 C   0  0  0  0  0  0  0  0  0  0  0  0
   62.6390   33.6610   49.3330 C   0  0  0  0  0  0  0  0  0  0  0  0
   62.2700   32.3390   48.7360 N   0  0  0  0  0  0  0  0  0  0  0  0
   62.9360   32.1430   47.4210 C   0  0  0  0  0  0  0  0  0  0  0  0
   63.3050   33.4700   46.7470 C   0  0  0  0  0  0  0  0  0  0  0  0
   62.6230   31.2310   49.6680 C   0  0  0  0  0  0  0  0  0  0  0  0
   61.3980   30.4350   50.1680 C   0  0  0  0  0  0  0  0  0  0  0  0
   60.3190   30.5020   49.2540 O   0  0  0  0  0  0  0  0  0  0  0  0
   59.1100   30.8990   49.8800 C   0  0  0  0  0  0  0  0  0  0  0  0
   58.7050   32.3080   49.4150 C   0  0  0  0  0  0  0  0  0  0  0  0
   59.7060   32.8880   48.5740 O   0  0  0  0  0  0  0  0  0  0  0  0
   59.4520   33.5730   47.3710 C   0  0  0  0  0  0  0  0  0  0  0  0
   59.9170   34.8850   47.1460 C   0  0  0  0  0  0  0  0  0  0  0  0
   59.6540   35.5330   45.9390 C   0  0  0  0  0  0  0  0  0  0  0  0
   58.9230   34.8880   44.9440 C   0  0  0  0  0  0  0  0  0  0  0  0
   58.4500   33.5920   45.1540 C   0  0  0  0  0  0  0  0  0  0  0  0
   58.7070   32.9230   46.3690 C   0  0  0  0  0  0  0  0  0  0  0  0
   58.2340   31.6200   46.6090 O   0  0  0  0  0  0  0  0  0  0  0  0
   58.7440   30.4560   45.9580 C   0  0  0  0  0  0  0  0  0  0  0  0
   57.6120   29.6550   45.3080 C   0  0  0  0  0  0  0  0  0  0  0  0
   56.6620   30.5120   44.5680 N   0  0  0  0  0  0  0  0  0  0  0  0
   57.3610   31.1540   43.4410 C   0  0  0  0  0  0  0  0  0  0  0  0
   55.5190   29.7380   44.0500 C   0  0  0  0  0  0  0  0  0  0  0  0
   62.7524   33.6243   51.4924 H   0  0  0  0  0  0  0  0  0  0  0  0
   61.6932   34.9113   50.8228 H   0  0  0  0  0  0  0  0  0  0  0  0
   61.1399   33.2023   50.8228 H   0  0  0  0  0  0  0  0  0  0  0  0
   62.2905   34.4618   48.6643 H   0  0  0  0  0  0  0  0  0  0  0  0
   63.7325   33.6864   49.4501 H   0  0  0  0  0  0  0  0  0  0  0  0
   61.2360   32.3070   48.5770 H   0  0  0  0  0  0  0  0  0  0  0  0
   63.8546   31.5577   47.5744 H   0  0  0  0  0  0  0  0  0  0  0  0
   62.2281   31.6186   46.7623 H   0  0  0  0  0  0  0  0  0  0  0  0
   63.5154   34.2265   47.5174 H   0  0  0  0  0  0  0  0  0  0  0  0
   64.1975   33.3271   46.1201 H   0  0  0  0  0  0  0  0  0  0  0  0
   62.4669   33.8083   46.1201 H   0  0  0  0  0  0  0  0  0  0  0  0
   63.2991   30.5383   49.1456 H   0  0  0  0  0  0  0  0  0  0  0  0
   63.0952   31.6876   50.5504 H   0  0  0  0  0  0  0  0  0  0  0  0
   61.6875   29.3821   50.3007 H   0  0  0  0  0  0  0  0  0  0  0  0
   61.0680   30.8771   51.1197 H   0  0  0  0  0  0  0  0  0  0  0  0
   58.3140   30.1871   49.6160 H   0  0  0  0  0  0  0  0  0  0  0  0
   59.2589   30.9112   50.9698 H   0  0  0  0  0  0  0  0  0  0  0  0
   57.7608   32.2422   48.8545 H   0  0  0  0  0  0  0  0  0  0  0  0
   58.5878   32.9454   50.3038 H   0  0  0  0  0  0  0  0  0  0  0  0
   60.4918   35.4018   47.9286 H   0  0  0  0  0  0  0  0  0  0  0  0
   60.0246   36.5553   45.7726 H   0  0  0  0  0  0  0  0  0  0  0  0
   58.7185   35.4004   43.9924 H   0  0  0  0  0  0  0  0  0  0  0  0
   57.8719   33.0879   44.3655 H   0  0  0  0  0  0  0  0  0  0  0  0
   59.4608   30.7621   45.1818 H   0  0  0  0  0  0  0  0  0  0  0  0
   59.2387   29.8214   46.7080 H   0  0  0  0  0  0  0  0  0  0  0  0
   58.0510   28.9292   44.6077 H   0  0  0  0  0  0  0  0  0  0  0  0
   57.0528   29.1550   46.1126 H   0  0  0  0  0  0  0  0  0  0  0  0
   58.1192   31.8504   43.8286 H   0  0  0  0  0  0  0  0  0  0  0  0
   57.8504   30.3840   42.8265 H   0  0  0  0  0  0  0  0  0  0  0  0
   56.6353   31.7069   42.8265 H   0  0  0  0  0  0  0  0  0  0  0  0
   54.9331   29.3412   44.8922 H   0  0  0  0  0  0  0  0  0  0  0  0
   54.8820   30.3913   43.4357 H   0  0  0  0  0  0  0  0  0  0  0  0
   55.8892   28.9040   43.4357 H   0  0  0  0  0  0  0  0  0  0  0  0
  1  2  1  0
  2  3  1  0
  3  4  1  0
  4  5  1  0
  3  6  1  0
  6  7  1  0
  7  8  1  0
  8  9  1  0
  9 10  1  0
 10 11  1  0
 11 12  1  0
 12 13  2  0
 13 14  1  0
 14 15  2  0
 15 16  1  0
 16 17  2  0
 17 18  1  0
 18 19  1  0
 19 20  1  0
 20 21  1  0
 21 22  1  0
 21 23  1  0
 17 12  1  0
  1 24  1  0
  1 25  1  0
  1 26  1  0
  2 27  1  0
  2 28  1  0
  3 29  1  0
  4 30  1  0
  4 31  1  0
  5 32  1  0
  5 33  1  0
  5 34  1  0
  6 35  1  0
  6 36  1  0
  7 37  1  0
  7 38  1  0
  9 39  1  0
  9 40  1  0
 10 41  1  0
 10 42  1  0
 13 43  1  0
 14 44  1  0
 15 45  1  0
 16 46  1  0
 19 47  1  0
 19 48  1  0
 20 49  1  0
 20 50  1  0
 22 51  1  0
 22 52  1  0
 22 53  1  0
 23 54  1  0
 23 55  1  0
 23 56  1  0
M  CHG  1   3   1
M  END
>  <UniqueID>  (9) 
9

>  <SMILES>  (9) 
CC[NH+](CC)CCOCCOc1ccccc1OCCN(C)C

>  <Energy>  (9) 
56.09589217587538

>  <Genealogy>  (9) 
CC[NH+](CC)CCOCCOc1ccccc1OCCN(C)C (protonated)
CC[NH+](CC)CCOCCOc1ccccc1OCCN(C)C (3D coordinates assigned)
CC[NH+](CC)CCOCCOc1ccccc1OCCN(C)C (optimized conformer: 56.09589217587538 kcal/mol)

>  <smiles>  (9) 
CCN(CC)CCOCCOc1ccccc1OCCN(C)C

>  <score_type>  (9) 
oracle

>  <origin>  (9) 
adg

>  <m_score__min__energy>  (9) 
-3.3399999999999999

>  <m_primary>  (9) 
energy

$$$$
9:0
     RDKit          3D

 47 49  0  0  0  0  0  0  0  0999 V2000
   63.7520   33.0960   47.1480 C   0  0  0  0  0  0  0  0  0  0  0  0
   62.6450   32.9010   48.0970 N   0  0  0  0  0  0  0  0  0  0  0  0
   62.4130   34.1460   48.8510 C   0  0  0  0  0  0  0  0  0  0  0  0
   62.9390   31.7730   49.0080 C   0  0  0  0  0  0  0  0  0  0  0  0
   61.6560   31.2070   49.6380 C   0  0  0  0  0  0  0  0  0  0  0  0
   60.7290   30.5100   48.6200 C   0  0  0  0  0  0  0  0  0  0  0  0
   61.1540   30.7540   47.2310 N   0  0  0  0  0  0  0  0  0  0  0  0
   60.0060   30.7250   46.3360 C   0  0  0  0  0  0  0  0  0  0  0  0
   59.5170   29.4910   45.8220 C   0  0  0  0  0  0  0  0  0  0  0  0
   60.1860   28.2660   46.0640 C   0  0  0  0  0  0  0  0  0  0  0  0
   59.6570   27.0560   45.6230 C   0  0  0  0  0  0  0  0  0  0  0  0
   58.4540   27.0340   44.9330 C   0  0  0  0  0  0  0  0  0  0  0  0
   57.7930   28.2230   44.6420 C   0  0  0  0  0  0  0  0  0  0  0  0
   58.3300   29.4790   45.0350 C   0  0  0  0  0  0  0  0  0  0  0  0
   57.7160   30.6630   44.6740 N   0  0  0  0  0  0  0  0  0  0  0  0
   56.6680   30.6600   43.6250 C   0  0  0  0  0  0  0  0  0  0  0  0
   58.1190   31.8550   45.2400 C   0  0  0  0  0  0  0  0  0  0  0  0
   57.3550   33.0420   45.0850 C   0  0  0  0  0  0  0  0  0  0  0  0
   57.8240   34.2680   45.5450 C   0  0  0  0  0  0  0  0  0  0  0  0
   59.0590   34.3480   46.1720 C   0  0  0  0  0  0  0  0  0  0  0  0
   59.5320   35.5500   46.5820 F   0  0  0  0  0  0  0  0  0  0  0  0
   59.7980   33.1920   46.4080 C   0  0  0  0  0  0  0  0  0  0  0  0
   59.3200   31.9220   46.0020 C   0  0  0  0  0  0  0  0  0  0  0  0
   64.6868   33.2607   47.7039 H   0  0  0  0  0  0  0  0  0  0  0  0
   63.8543   32.2020   46.5152 H   0  0  0  0  0  0  0  0  0  0  0  0
   63.5427   33.9711   46.5152 H   0  0  0  0  0  0  0  0  0  0  0  0
   62.4525   33.9342   49.9297 H   0  0  0  0  0  0  0  0  0  0  0  0
   63.1896   34.8810   48.5930 H   0  0  0  0  0  0  0  0  0  0  0  0
   61.4237   34.5520   48.5930 H   0  0  0  0  0  0  0  0  0  0  0  0
   63.4395   30.9756   48.4392 H   0  0  0  0  0  0  0  0  0  0  0  0
   63.5860   32.1430   49.8170 H   0  0  0  0  0  0  0  0  0  0  0  0
   61.9396   30.4756   50.4091 H   0  0  0  0  0  0  0  0  0  0  0  0
   61.0975   32.0572   50.0566 H   0  0  0  0  0  0  0  0  0  0  0  0
   60.7426   29.4267   48.8107 H   0  0  0  0  0  0  0  0  0  0  0  0
   59.7168   30.9225   48.7435 H   0  0  0  0  0  0  0  0  0  0  0  0
   61.8760   30.0660   46.9290 H   0  0  0  0  0  0  0  0  0  0  0  0
   61.6640   31.6610   47.1590 H   0  0  0  0  0  0  0  0  0  0  0  0
   61.1408   28.2709   46.6103 H   0  0  0  0  0  0  0  0  0  0  0  0
   60.1936   26.1166   45.8220 H   0  0  0  0  0  0  0  0  0  0  0  0
   58.0215   26.0739   44.6150 H   0  0  0  0  0  0  0  0  0  0  0  0
   56.8375   28.1906   44.0979 H   0  0  0  0  0  0  0  0  0  0  0  0
   55.6752   30.6572   44.0986 H   0  0  0  0  0  0  0  0  0  0  0  0
   56.7731   31.5584   42.9991 H   0  0  0  0  0  0  0  0  0  0  0  0
   56.7783   29.7622   42.9991 H   0  0  0  0  0  0  0  0  0  0  0  0
   56.3732   32.9909   44.5916 H   0  0  0  0  0  0  0  0  0  0  0  0
   57.2154   35.1746   45.4116 H   0  0  0  0  0  0  0  0  0  0  0  0
   60.7696   33.2662   46.9184 H   0  0  0  0  0  0  0  0  0  0  0  0
  1  2  1  0
  2  3  1  0
  2  4  1  0
  4  5  1  0
  5  6  1  0
  6  7  1  0
  7  8  1  0
  8  9  2  0
  9 10  1  0
 10 11  2  0
 11 12  1  0
 12 13  2  0
 13 14  1  0
 14 15  2  0
 15 16  1  0
 15 17  1  0
 17 18  2  0
 18 19  1  0
 19 20  2  0
 20 21  1  0
 20 22  1  0
 22 23  2  0
 23  8  1  0
 14  9  1  0
 23 17  1  0
  1 24  1  0
  1 25  1  0
  1 26  1  0
  3 27  1  0
  3 28  1  0
  3 29  1  0
  4 30  1  0
  4 31  1  0
  5 32  1  0
  5 33  1  0
  6 34  1  0
  6 35  1  0
  7 36  1  0
  7 37  1  0
 10 38  1  0
 11 39  1  0
 12 40  1  0
 13 41  1  0
 16 42  1  0
 16 43  1  0
 16 44  1  0
 18 45  1  0
 19 46  1  0
 22 47  1  0
M  CHG  2   7   1  15   1
M  END
>  <UniqueID>  (10) 
10

>  <SMILES>  (10) 
CN(C)CCC[NH2+]c1c2ccccc2[n+](C)c2ccc(F)cc12

>  <Energy>  (10) 
75.33130899938723

>  <Genealogy>  (10) 
CN(C)CCC[NH2+]c1c2ccccc2[n+](C)c2ccc(F)cc12 (protonated)
CN(C)CCC[NH2+]c1c2ccccc2[n+](C)c2ccc(F)cc12 (3D coordinates assigned)
CN(C)CCC[NH2+]c1c2ccccc2[n+](C)c2ccc(F)cc12 (optimized conformer: 75.33130899938723 kcal/mol)

>  <smiles>  (10) 
CN(C)CCCNc1c2ccccc2[n+](C)c2ccc(F)cc12

>  <score_type>  (10) 
oracle

>  <origin>  (10) 
adg

>  <m_score__min__energy>  (10) 
-3.6800000000000002

>  <m_primary>  (10) 
energy

$$$$
10:0
     RDKit          3D

 89 92  0  0  0  0  0  0  0  0999 V2000
   58.1140   27.0100   42.6560 C   0  0  0  0  0  0  0  0  0  0  0  0
   57.9950   27.7170   44.0180 C   0  0  0  0  0  0  0  0  0  0  0  0
   58.5790   29.0910   44.0940 N   0  0  0  0  0  0  0  0  0  0  0  0
   57.6380   30.1680   44.5010 C   0  0  0  0  0  0  0  0  0  0  0  0
   56.3130   30.0980   43.7310 C   0  0  0  0  0  0  0  0  0  0  0  0
   59.8760   29.1460   44.8260 C   0  0  0  0  0  0  0  0  0  0  0  0
   60.1400   27.9960   45.8120 C   0  0  0  0  0  0  0  0  0  0  0  0
   59.2890   28.1090   46.9360 O   0  0  0  0  0  0  0  0  0  0  0  0
   59.0900   29.4670   47.2810 C   0  0  0  0  0  0  0  0  0  0  0  0
   58.8940   29.6190   48.7910 C   0  0  0  0  0  0  0  0  0  0  0  0
   59.1290   31.0010   49.2080 N   0  0  0  0  0  0  0  0  0  0  0  0
   60.1430   31.7870   48.5650 C   0  0  0  0  0  0  0  0  0  0  0  0
   59.7900   32.6840   47.5450 C   0  0  0  0  0  0  0  0  0  0  0  0
   58.4440   32.8300   47.1490 C   0  0  0  0  0  0  0  0  0  0  0  0
   58.0840   33.7700   46.1870 C   0  0  0  0  0  0  0  0  0  0  0  0
   59.0530   34.5850   45.6120 C   0  0  0  0  0  0  0  0  0  0  0  0
   60.3920   34.4450   45.9770 C   0  0  0  0  0  0  0  0  0  0  0  0
   60.7980   33.4660   46.9220 C   0  0  0  0  0  0  0  0  0  0  0  0
   62.1270   33.2770   47.2510 N   0  0  0  0  0  0  0  0  0  0  0  0
   63.1880   33.8690   46.4050 C   0  0  0  0  0  0  0  0  0  0  0  0
   62.4660   32.5040   48.3490 C   0  0  0  0  0  0  0  0  0  0  0  0
   63.7850   32.4830   48.8700 C   0  0  0  0  0  0  0  0  0  0  0  0
   64.1330   31.6460   49.9450 C   0  0  0  0  0  0  0  0  0  0  0  0
   65.4350   31.5860   50.4630 O   0  0  0  0  0  0  0  0  0  0  0  0
   65.9400   30.5160   51.2590 C   0  0  0  0  0  0  0  0  0  0  0  0
   67.4430   30.7490   51.5230 C   0  0  0  0  0  0  0  0  0  0  0  0
   67.8100   32.0900   52.0890 N   0  0  0  0  0  0  0  0  0  0  0  0
   69.1300   31.9040   52.7560 C   0  0  0  0  0  0  0  0  0  0  0  0
   67.9690   33.1160   51.0000 C   0  0  0  0  0  0  0  0  0  0  0  0
   66.8650   34.1950   51.0020 C   0  0  0  0  0  0  0  0  0  0  0  0
   66.7680   34.9200   52.3050 N   0  0  0  0  0  0  0  0  0  0  0  0
   67.7960   35.9920   52.3550 C   0  0  0  0  0  0  0  0  0  0  0  0
   65.4350   35.5700   52.3730 C   0  0  0  0  0  0  0  0  0  0  0  0
   66.9400   34.0070   53.4850 C   0  0  0  0  0  0  0  0  0  0  0  0
   66.8130   32.5140   53.1200 C   0  0  0  0  0  0  0  0  0  0  0  0
   63.1580   30.8400   50.5240 C   0  0  0  0  0  0  0  0  0  0  0  0
   61.8450   30.8690   50.0600 C   0  0  0  0  0  0  0  0  0  0  0  0
   61.4780   31.7150   48.9950 C   0  0  0  0  0  0  0  0  0  0  0  0
   58.2947   25.9366   42.8146 H   0  0  0  0  0  0  0  0  0  0  0  0
   57.1805   27.1450   42.0900 H   0  0  0  0  0  0  0  0  0  0  0  0
   58.9519   27.4431   42.0900 H   0  0  0  0  0  0  0  0  0  0  0  0
   56.9261   27.7909   44.2670 H   0  0  0  0  0  0  0  0  0  0  0  0
   58.5788   27.1062   44.7223 H   0  0  0  0  0  0  0  0  0  0  0  0
   58.8550   29.3200   43.1070 H   0  0  0  0  0  0  0  0  0  0  0  0
   57.4290   30.0687   45.5764 H   0  0  0  0  0  0  0  0  0  0  0  0
   58.1111   31.1348   44.2740 H   0  0  0  0  0  0  0  0  0  0  0  0
   55.4765   30.0538   44.4440 H   0  0  0  0  0  0  0  0  0  0  0  0
   56.2088   30.9919   43.0985 H   0  0  0  0  0  0  0  0  0  0  0  0
   56.3036   29.1981   43.0985 H   0  0  0  0  0  0  0  0  0  0  0  0
   60.6844   29.1426   44.0800 H   0  0  0  0  0  0  0  0  0  0  0  0
   59.8339   30.0591   45.4380 H   0  0  0  0  0  0  0  0  0  0  0  0
   59.9515   27.0361   45.3090 H   0  0  0  0  0  0  0  0  0  0  0  0
   61.1861   28.0457   46.1484 H   0  0  0  0  0  0  0  0  0  0  0  0
   59.9690   30.0509   46.9705 H   0  0  0  0  0  0  0  0  0  0  0  0
   58.1879   29.8332   46.7689 H   0  0  0  0  0  0  0  0  0  0  0  0
   57.8641   29.3337   49.0516 H   0  0  0  0  0  0  0  0  0  0  0  0
   59.6139   28.9672   49.3077 H   0  0  0  0  0  0  0  0  0  0  0  0
   58.7100   31.3690   50.0920 H   0  0  0  0  0  0  0  0  0  0  0  0
   57.6706   32.1945   47.6050 H   0  0  0  0  0  0  0  0  0  0  0  0
   57.0318   33.8681   45.8815 H   0  0  0  0  0  0  0  0  0  0  0  0
   58.7630   35.3415   44.8679 H   0  0  0  0  0  0  0  0  0  0  0  0
   61.1470   35.1049   45.5247 H   0  0  0  0  0  0  0  0  0  0  0  0
   63.9683   34.3044   47.0466 H   0  0  0  0  0  0  0  0  0  0  0  0
   63.6296   33.0869   45.7699 H   0  0  0  0  0  0  0  0  0  0  0  0
   62.7544   34.6556   45.7699 H   0  0  0  0  0  0  0  0  0  0  0  0
   64.5510   33.1345   48.4242 H   0  0  0  0  0  0  0  0  0  0  0  0
   65.3989   30.4816   52.2161 H   0  0  0  0  0  0  0  0  0  0  0  0
   65.8001   29.5620   50.7295 H   0  0  0  0  0  0  0  0  0  0  0  0
   67.7838   29.9796   52.2315 H   0  0  0  0  0  0  0  0  0  0  0  0
   67.9291   30.6992   50.5375 H   0  0  0  0  0  0  0  0  0  0  0  0
   68.9952   31.9230   53.8475 H   0  0  0  0  0  0  0  0  0  0  0  0
   69.5591   30.9365   52.4563 H   0  0  0  0  0  0  0  0  0  0  0  0
   69.8098   32.7152   52.4563 H   0  0  0  0  0  0  0  0  0  0  0  0
   68.9416   33.6132   51.1299 H   0  0  0  0  0  0  0  0  0  0  0  0
   67.8970   32.5824   50.0408 H   0  0  0  0  0  0  0  0  0  0  0  0
   67.0851   34.9248   50.2090 H   0  0  0  0  0  0  0  0  0  0  0  0
   65.9042   33.6869   50.8328 H   0  0  0  0  0  0  0  0  0  0  0  0
   68.0255   36.2313   53.4038 H   0  0  0  0  0  0  0  0  0  0  0  0
   68.7100   35.6475   51.8491 H   0  0  0  0  0  0  0  0  0  0  0  0
   67.4135   36.8907   51.8491 H   0  0  0  0  0  0  0  0  0  0  0  0
   65.1485   35.7097   53.4258 H   0  0  0  0  0  0  0  0  0  0  0  0
   65.4781   36.5482   51.8718 H   0  0  0  0  0  0  0  0  0  0  0  0
   64.6908   34.9337   51.8718 H   0  0  0  0  0  0  0  0  0  0  0  0
   67.9370   34.1779   53.9172 H   0  0  0  0  0  0  0  0  0  0  0  0
   66.1357   34.2392   54.1986 H   0  0  0  0  0  0  0  0  0  0  0  0
   66.9685   31.9141   54.0288 H   0  0  0  0  0  0  0  0  0  0  0  0
   65.8090   32.3570   52.6988 H   0  0  0  0  0  0  0  0  0  0  0  0
   63.4267   30.1732   51.3565 H   0  0  0  0  0  0  0  0  0  0  0  0
   61.0871   30.2249   50.5298 H   0  0  0  0  0  0  0  0  0  0  0  0
  1  2  1  0
  2  3  1  0
  3  4  1  0
  4  5  1  0
  3  6  1  0
  6  7  1  0
  7  8  1  0
  8  9  1  0
  9 10  1  0
 10 11  1  0
 11 12  1  0
 12 13  2  0
 13 14  1  0
 14 15  2  0
 15 16  1  0
 16 17  2  0
 17 18  1  0
 18 19  2  0
 19 20  1  0
 19 21  1  0
 21 22  2  0
 22 23  1  0
 23 24  1  0
 24 25  1  0
 25 26  1  0
 26 27  1  0
 27 28  1  0
 27 29  1  0
 29 30  1  0
 30 31  1  0
 31 32  1  0
 31 33  1  0
 31 34  1  0
 34 35  1  0
 23 36  2  0
 36 37  1  0
 37 38  2  0
 38 12  1  0
 18 13  1  0
 38 21  1  0
 35 27  1  0
  1 39  1  0
  1 40  1  0
  1 41  1  0
  2 42  1  0
  2 43  1  0
  3 44  1  0
  4 45  1  0
  4 46  1  0
  5 47  1  0
  5 48  1  0
  5 49  1  0
  6 50  1  0
  6 51  1  0
  7 52  1  0
  7 53  1  0
  9 54  1  0
  9 55  1  0
 10 56  1  0
 10 57  1  0
 11 58  1  0
 14 59  1  0
 15 60  1  0
 16 61  1  0
 17 62  1  0
 20 63  1  0
 20 64  1  0
 20 65  1  0
 22 66  1  0
 25 67  1  0
 25 68  1  0
 26 69  1  0
 26 70  1  0
 28 71  1  0
 28 72  1  0
 28 73  1  0
 29 74  1  0
 29 75  1  0
 30 76  1  0
 30 77  1  0
 32 78  1  0
 32 79  1  0
 32 80  1  0
 33 81  1  0
 33 82  1  0
 33 83  1  0
 34 84  1  0
 34 85  1  0
 35 86  1  0
 35 87  1  0
 36 88  1  0
 37 89  1  0
M  CHG  4   3   1  19   1  27   1  31   1
M  END
>  <UniqueID>  (11) 
11

>  <SMILES>  (11) 
CC[NH+](CC)CCOCCNc1c2ccccc2[n+](C)c2cc(OCC[N+]3(C)CC[N+](C)(C)CC3)ccc12

>  <Energy>  (11) 
151.98653208710817

>  <Genealogy>  (11) 
CC[NH+](CC)CCOCCNc1c2ccccc2[n+](C)c2cc(OCC[N+]3(C)CC[N+](C)(C)CC3)ccc12 (protonated)
CC[NH+](CC)CCOCCNc1c2ccccc2[n+](C)c2cc(OCC[N+]3(C)CC[N+](C)(C)CC3)ccc12 (3D coordinates assigned)
CC[NH+](CC)CCOCCNc1c2ccccc2[n+](C)c2cc(OCC[N+]3(C)CC[N+](C)(C)CC3)ccc12 (nonaromatic ring conformer: 151.98653208710817 kcal/mol)

>  <smiles>  (11) 
CCN(CC)CCOCCNc1c2ccccc2[n+](C)c2cc(OCC[N+]3(C)CC[N+](C)(C)CC3)ccc12

>  <score_type>  (11) 
oracle

>  <origin>  (11) 
adg

>  <m_score__min__energy>  (11) 
-2.6699999999999999

>  <m_primary>  (11) 
energy

$$$$
11:0
     RDKit          3D

 68 70  0  0  0  0  0  0  0  0999 V2000
   62.2420   33.8480   46.3900 C   0  0  0  0  0  0  0  0  0  0  0  0
   60.7700   33.8410   45.9810 C   0  0  0  0  0  0  0  0  0  0  0  0
   59.9050   33.7270   47.1750 N   0  0  0  0  0  0  0  0  0  0  0  0
   60.5430   34.2600   48.4040 C   0  0  0  0  0  0  0  0  0  0  0  0
   59.7130   34.0690   49.6840 C   0  0  0  0  0  0  0  0  0  0  0  0
   58.5340   34.2400   46.9460 C   0  0  0  0  0  0  0  0  0  0  0  0
   57.5230   33.0880   46.9330 C   0  0  0  0  0  0  0  0  0  0  0  0
   58.1670   31.8840   46.5660 O   0  0  0  0  0  0  0  0  0  0  0  0
   58.3500   31.8140   45.1660 C   0  0  0  0  0  0  0  0  0  0  0  0
   56.9940   31.6500   44.4850 C   0  0  0  0  0  0  0  0  0  0  0  0
   56.4650   30.3650   44.7610 O   0  0  0  0  0  0  0  0  0  0  0  0
   57.4450   29.3530   44.6390 C   0  0  0  0  0  0  0  0  0  0  0  0
   57.4980   28.4970   45.9090 C   0  0  0  0  0  0  0  0  0  0  0  0
   58.3870   29.0630   46.8620 O   0  0  0  0  0  0  0  0  0  0  0  0
   59.7210   28.6900   46.5700 C   0  0  0  0  0  0  0  0  0  0  0  0
   60.7060   29.7340   47.1180 C   0  0  0  0  0  0  0  0  0  0  0  0
   60.0920   30.8070   47.9300 N   0  0  0  0  0  0  0  0  0  0  0  0
   60.6420   30.9250   49.2730 C   0  0  0  0  0  0  0  0  0  0  0  0
   61.9730   31.3630   49.5480 C   0  0  0  0  0  0  0  0  0  0  0  0
   62.8560   31.7880   48.5230 C   0  0  0  0  0  0  0  0  0  0  0  0
   64.1400   32.2390   48.8160 C   0  0  0  0  0  0  0  0  0  0  0  0
   64.6040   32.2270   50.1220 C   0  0  0  0  0  0  0  0  0  0  0  0
   63.7760   31.7990   51.1550 C   0  0  0  0  0  0  0  0  0  0  0  0
   62.4370   31.3950   50.9100 C   0  0  0  0  0  0  0  0  0  0  0  0
   61.5920   31.0520   51.9590 N   0  0  0  0  0  0  0  0  0  0  0  0
   62.0680   31.1610   53.3560 C   0  0  0  0  0  0  0  0  0  0  0  0
   60.3120   30.6320   51.6780 C   0  0  0  0  0  0  0  0  0  0  0  0
   59.3300   30.2190   52.6120 C   0  0  0  0  0  0  0  0  0  0  0  0
   58.1120   29.8960   52.0310 C   0  0  0  0  0  0  0  0  0  0  0  0
   58.2370   30.1000   50.3700 S   0  0  0  0  0  0  0  0  0  0  0  0
   59.8470   30.5880   50.3720 C   0  0  0  0  0  0  0  0  0  0  0  0
   62.3176   33.8484   47.4874 H   0  0  0  0  0  0  0  0  0  0  0  0
   62.7384   32.9522   45.9885 H   0  0  0  0  0  0  0  0  0  0  0  0
   62.7298   34.7485   45.9885 H   0  0  0  0  0  0  0  0  0  0  0  0
   60.5362   34.7765   45.4518 H   0  0  0  0  0  0  0  0  0  0  0  0
   60.5861   32.9790   45.3229 H   0  0  0  0  0  0  0  0  0  0  0  0
   61.5078   33.7494   48.5401 H   0  0  0  0  0  0  0  0  0  0  0  0
   60.6492   35.3450   48.2575 H   0  0  0  0  0  0  0  0  0  0  0  0
   60.3565   34.2171   50.5638 H   0  0  0  0  0  0  0  0  0  0  0  0
   58.8929   34.8019   49.7020 H   0  0  0  0  0  0  0  0  0  0  0  0
   59.2958   33.0514   49.7020 H   0  0  0  0  0  0  0  0  0  0  0  0
   58.2716   34.9424   47.7508 H   0  0  0  0  0  0  0  0  0  0  0  0
   58.5039   34.7498   45.9717 H   0  0  0  0  0  0  0  0  0  0  0  0
   57.0853   32.9760   47.9359 H   0  0  0  0  0  0  0  0  0  0  0  0
   56.7307   33.3109   46.2032 H   0  0  0  0  0  0  0  0  0  0  0  0
   58.8291   32.7387   44.8118 H   0  0  0  0  0  0  0  0  0  0  0  0
   58.9903   30.9535   44.9217 H   0  0  0  0  0  0  0  0  0  0  0  0
   56.3019   32.4174   44.8620 H   0  0  0  0  0  0  0  0  0  0  0  0
   57.1200   31.7626   43.3981 H   0  0  0  0  0  0  0  0  0  0  0  0
   57.1970   28.7113   43.7807 H   0  0  0  0  0  0  0  0  0  0  0  0
   58.4266   29.8264   44.4894 H   0  0  0  0  0  0  0  0  0  0  0  0
   56.4904   28.4378   46.3463 H   0  0  0  0  0  0  0  0  0  0  0  0
   57.8593   27.4928   45.6426 H   0  0  0  0  0  0  0  0  0  0  0  0
   59.9333   27.7148   47.0325 H   0  0  0  0  0  0  0  0  0  0  0  0
   59.8412   28.6273   45.4784 H   0  0  0  0  0  0  0  0  0  0  0  0
   61.4435   29.2113   47.7448 H   0  0  0  0  0  0  0  0  0  0  0  0
   61.1499   30.2279   46.2411 H   0  0  0  0  0  0  0  0  0  0  0  0
   60.1110   31.6920   47.3880 H   0  0  0  0  0  0  0  0  0  0  0  0
   59.0690   30.5930   48.0180 H   0  0  0  0  0  0  0  0  0  0  0  0
   62.5198   31.7608   47.4760 H   0  0  0  0  0  0  0  0  0  0  0  0
   64.7891   32.6065   48.0076 H   0  0  0  0  0  0  0  0  0  0  0  0
   65.6300   32.5569   50.3425 H   0  0  0  0  0  0  0  0  0  0  0  0
   64.1668   31.7731   52.1829 H   0  0  0  0  0  0  0  0  0  0  0  0
   61.2316   30.9695   54.0443 H   0  0  0  0  0  0  0  0  0  0  0  0
   62.8636   30.4218   53.5310 H   0  0  0  0  0  0  0  0  0  0  0  0
   62.4626   32.1728   53.5310 H   0  0  0  0  0  0  0  0  0  0  0  0
   59.5155   30.1600   53.6946 H   0  0  0  0  0  0  0  0  0  0  0  0
   57.2133   29.5616   52.5700 H   0  0  0  0  0  0  0  0  0  0  0  0
  1  2  1  0
  2  3  1  0
  3  4  1  0
  4  5  1  0
  3  6  1  0
  6  7  1  0
  7  8  1  0
  8  9  1  0
  9 10  1  0
 10 11  1  0
 11 12  1  0
 12 13  1  0
 13 14  1  0
 14 15  1  0
 15 16  1  0
 16 17  1  0
 17 18  1  0
 18 19  2  0
 19 20  1  0
 20 21  2  0
 21 22  1  0
 22 23  2  0
 23 24  1  0
 24 25  2  0
 25 26  1  0
 25 27  1  0
 27 28  1  0
 28 29  2  0
 29 30  1  0
 30 31  1  0
 31 18  1  0
 24 19  1  0
 31 27  2  0
  1 32  1  0
  1 33  1  0
  1 34  1  0
  2 35  1  0
  2 36  1  0
  4 37  1  0
  4 38  1  0
  5 39  1  0
  5 40  1  0
  5 41  1  0
  6 42  1  0
  6 43  1  0
  7 44  1  0
  7 45  1  0
  9 46  1  0
  9 47  1  0
 10 48  1  0
 10 49  1  0
 12 50  1  0
 12 51  1  0
 13 52  1  0
 13 53  1  0
 15 54  1  0
 15 55  1  0
 16 56  1  0
 16 57  1  0
 17 58  1  0
 17 59  1  0
 20 60  1  0
 21 61  1  0
 22 62  1  0
 23 63  1  0
 26 64  1  0
 26 65  1  0
 26 66  1  0
 28 67  1  0
 29 68  1  0
M  CHG  2  17   1  25   1
M  END
>  <UniqueID>  (12) 
12

>  <SMILES>  (12) 
CCN(CC)CCOCCOCCOCC[NH2+]c1c2ccccc2[n+](C)c2ccsc12

>  <Energy>  (12) 
120.87550500080208

>  <Genealogy>  (12) 
CCN(CC)CCOCCOCCOCC[NH2+]c1c2ccccc2[n+](C)c2ccsc12 (protonated)
CCN(CC)CCOCCOCCOCC[NH2+]c1c2ccccc2[n+](C)c2ccsc12 (3D coordinates assigned)
CCN(CC)CCOCCOCCOCC[NH2+]c1c2ccccc2[n+](C)c2ccsc12 (optimized conformer: 120.87550500080208 kcal/mol)

>  <smiles>  (12) 
CCN(CC)CCOCCOCCOCCNc1c2ccccc2[n+](C)c2ccsc12

>  <score_type>  (12) 
oracle

>  <origin>  (12) 
adg

>  <m_score__min__energy>  (12) 
-3.2599999999999998

>  <m_primary>  (12) 
energy

$$$$
12:0
     RDKit          3D

 39 40  0  0  0  0  0  0  0  0999 V2000
   63.3680   32.7540   47.1160 C   0  0  0  0  0  0  0  0  0  0  0  0
   63.0500   31.7450   48.2160 C   0  0  0  0  0  0  0  0  0  0  0  0
   61.6080   31.7520   48.5410 N   0  0  0  0  0  0  0  0  0  0  0  0
   61.2040   32.9410   49.3260 C   0  0  0  0  0  0  0  0  0  0  0  0
   59.6840   33.1380   49.4100 C   0  0  0  0  0  0  0  0  0  0  0  0
   61.1290   30.4800   49.1340 C   0  0  0  0  0  0  0  0  0  0  0  0
   60.5790   29.5790   48.0260 C   0  0  0  0  0  0  0  0  0  0  0  0
   60.4690   30.3160   46.7670 N   0  0  0  0  0  0  0  0  0  0  0  0
   59.2090   30.6390   46.1440 C   0  0  0  0  0  0  0  0  0  0  0  0
   58.2800   29.6270   45.8610 C   0  0  0  0  0  0  0  0  0  0  0  0
   57.0820   29.9490   45.2220 C   0  0  0  0  0  0  0  0  0  0  0  0
   56.2470   29.0450   44.9610 O   0  0  0  0  0  0  0  0  0  0  0  0
   56.8170   31.2040   44.8820 O   0  0  0  0  0  0  0  0  0  0  0  0
   57.6540   32.2070   45.1290 C   0  0  0  0  0  0  0  0  0  0  0  0
   57.3000   33.5050   44.7470 C   0  0  0  0  0  0  0  0  0  0  0  0
   58.1580   34.5740   45.0170 C   0  0  0  0  0  0  0  0  0  0  0  0
   59.3690   34.3530   45.6750 C   0  0  0  0  0  0  0  0  0  0  0  0
   59.7370   33.0590   46.0590 C   0  0  0  0  0  0  0  0  0  0  0  0
   58.8910   31.9670   45.7780 C   0  0  0  0  0  0  0  0  0  0  0  0
   63.6691   33.7093   47.5706 H   0  0  0  0  0  0  0  0  0  0  0  0
   64.1887   32.3700   46.4923 H   0  0  0  0  0  0  0  0  0  0  0  0
   62.4754   32.9099   46.4923 H   0  0  0  0  0  0  0  0  0  0  0  0
   63.3370   30.7392   47.8754 H   0  0  0  0  0  0  0  0  0  0  0  0
   63.6139   32.0218   49.1190 H   0  0  0  0  0  0  0  0  0  0  0  0
   61.5970   32.8325   50.3476 H   0  0  0  0  0  0  0  0  0  0  0  0
   61.6141   33.8215   48.8097 H   0  0  0  0  0  0  0  0  0  0  0  0
   59.3772   33.1778   50.4656 H   0  0  0  0  0  0  0  0  0  0  0  0
   59.4082   34.0794   48.9123 H   0  0  0  0  0  0  0  0  0  0  0  0
   59.1773   32.2980   48.9123 H   0  0  0  0  0  0  0  0  0  0  0  0
   61.9643   29.9728   49.6389 H   0  0  0  0  0  0  0  0  0  0  0  0
   60.3344   30.6911   49.8648 H   0  0  0  0  0  0  0  0  0  0  0  0
   61.2569   28.7241   47.8859 H   0  0  0  0  0  0  0  0  0  0  0  0
   59.5784   29.2286   48.3192 H   0  0  0  0  0  0  0  0  0  0  0  0
   61.3570   30.6260   46.3140 H   0  0  0  0  0  0  0  0  0  0  0  0
   58.4946   28.5852   46.1412 H   0  0  0  0  0  0  0  0  0  0  0  0
   56.3442   33.6845   44.2330 H   0  0  0  0  0  0  0  0  0  0  0  0
   57.8784   35.5927   44.7102 H   0  0  0  0  0  0  0  0  0  0  0  0
   60.0367   35.1997   45.8925 H   0  0  0  0  0  0  0  0  0  0  0  0
   60.6902   32.8931   46.5822 H   0  0  0  0  0  0  0  0  0  0  0  0
  1  2  1  0
  2  3  1  0
  3  4  1  0
  4  5  1  0
  3  6  1  0
  6  7  1  0
  7  8  1  0
  8  9  1  0
  9 10  2  0
 10 11  1  0
 11 12  2  0
 11 13  1  0
 13 14  1  0
 14 15  2  0
 15 16  1  0
 16 17  2  0
 17 18  1  0
 18 19  2  0
 19  9  1  0
 19 14  1  0
  1 20  1  0
  1 21  1  0
  1 22  1  0
  2 23  1  0
  2 24  1  0
  4 25  1  0
  4 26  1  0
  5 27  1  0
  5 28  1  0
  5 29  1  0
  6 30  1  0
  6 31  1  0
  7 32  1  0
  7 33  1  0
  8 34  1  0
 10 35  1  0
 15 36  1  0
 16 37  1  0
 17 38  1  0
 18 39  1  0
M  END
>  <UniqueID>  (13) 
13

>  <SMILES>  (13) 
CCN(CC)CCNc1cc(=O)oc2ccccc12

>  <Energy>  (13) 
45.26426745092943

>  <Genealogy>  (13) 
CCN(CC)CCNc1cc(=O)oc2ccccc12 (3D coordinates assigned)
CCN(CC)CCNc1cc(=O)oc2ccccc12 (optimized conformer: 45.26426745092943 kcal/mol)

>  <smiles>  (13) 
CCN(CC)CCNc1cc(=O)oc2ccccc12

>  <score_type>  (13) 
oracle

>  <origin>  (13) 
adg

>  <m_score__min__energy>  (13) 
-5.8200000000000003

>  <m_primary>  (13) 
energy

$$$$
13:0
     RDKit          3D

 58 58  0  0  0  0  0  0  0  0999 V2000
   58.5340   31.3120   50.5040 C   0  0  0  0  0  0  0  0  0  0  0  0
   58.5240   32.1610   49.2370 C   0  0  0  0  0  0  0  0  0  0  0  0
   59.0410   31.4220   48.1450 O   0  0  0  0  0  0  0  0  0  0  0  0
   60.3130   30.8790   48.4430 C   0  0  0  0  0  0  0  0  0  0  0  0
   60.7950   29.9880   47.2970 C   0  0  0  0  0  0  0  0  0  0  0  0
   59.7380   29.7600   46.3840 O   0  0  0  0  0  0  0  0  0  0  0  0
   59.5030   28.3750   46.2290 C   0  0  0  0  0  0  0  0  0  0  0  0
   58.0430   28.0770   46.5760 C   0  0  0  0  0  0  0  0  0  0  0  0
   57.0920   28.3260   45.3980 C   0  0  0  0  0  0  0  0  0  0  0  0
   56.5940   29.7100   45.4180 N   0  0  0  0  0  0  0  0  0  0  0  0
   56.2190   30.1700   44.0710 C   0  0  0  0  0  0  0  0  0  0  0  0
   57.0270   31.4210   43.6910 C   0  0  0  0  0  0  0  0  0  0  0  0
   58.4510   31.4010   44.2820 C   0  0  0  0  0  0  0  0  0  0  0  0
   58.4880   31.8120   45.7000 N   0  0  0  0  0  0  0  0  0  0  0  0
   57.7890   33.0900   45.9200 C   0  0  0  0  0  0  0  0  0  0  0  0
   58.7220   34.2780   45.6400 C   0  0  0  0  0  0  0  0  0  0  0  0
   59.2390   34.9290   46.9310 C   0  0  0  0  0  0  0  0  0  0  0  0
   60.5870   34.3870   47.3350 C   0  0  0  0  0  0  0  0  0  0  0  0
   60.9670   34.3500   48.6880 C   0  0  0  0  0  0  0  0  0  0  0  0
   62.2060   33.8190   49.0560 C   0  0  0  0  0  0  0  0  0  0  0  0
   63.0730   33.3200   48.0800 C   0  0  0  0  0  0  0  0  0  0  0  0
   62.7010   33.3480   46.7340 C   0  0  0  0  0  0  0  0  0  0  0  0
   61.4610   33.8770   46.3610 C   0  0  0  0  0  0  0  0  0  0  0  0
   58.5263   31.9694   51.3859 H   0  0  0  0  0  0  0  0  0  0  0  0
   57.6434   30.6666   50.5199 H   0  0  0  0  0  0  0  0  0  0  0  0
   59.4396   30.6877   50.5199 H   0  0  0  0  0  0  0  0  0  0  0  0
   57.4911   32.4653   49.0124 H   0  0  0  0  0  0  0  0  0  0  0  0
   59.1527   33.0493   49.3970 H   0  0  0  0  0  0  0  0  0  0  0  0
   61.0312   31.6989   48.5912 H   0  0  0  0  0  0  0  0  0  0  0  0
   60.2365   30.2730   49.3578 H   0  0  0  0  0  0  0  0  0  0  0  0
   61.6267   30.4838   46.7750 H   0  0  0  0  0  0  0  0  0  0  0  0
   61.1330   29.0245   47.7062 H   0  0  0  0  0  0  0  0  0  0  0  0
   59.7023   28.0811   45.1879 H   0  0  0  0  0  0  0  0  0  0  0  0
   60.1676   27.8076   46.8971 H   0  0  0  0  0  0  0  0  0  0  0  0
   57.9611   27.0223   46.8776 H   0  0  0  0  0  0  0  0  0  0  0  0
   57.7494   28.7566   47.3896 H   0  0  0  0  0  0  0  0  0  0  0  0
   57.6304   28.1491   44.4552 H   0  0  0  0  0  0  0  0  0  0  0  0
   56.2362   27.6400   45.4821 H   0  0  0  0  0  0  0  0  0  0  0  0
   55.7270   29.7260   46.0050 H   0  0  0  0  0  0  0  0  0  0  0  0
   56.4246   29.3704   43.3441 H   0  0  0  0  0  0  0  0  0  0  0  0
   55.1477   30.4196   44.0632 H   0  0  0  0  0  0  0  0  0  0  0  0
   57.0999   31.4753   42.5948 H   0  0  0  0  0  0  0  0  0  0  0  0
   56.5043   32.2967   44.1032 H   0  0  0  0  0  0  0  0  0  0  0  0
   58.8505   30.3793   44.2017 H   0  0  0  0  0  0  0  0  0  0  0  0
   59.0561   32.1217   43.7124 H   0  0  0  0  0  0  0  0  0  0  0  0
   58.0080   31.0740   46.2660 H   0  0  0  0  0  0  0  0  0  0  0  0
   59.4750   31.8840   46.0370 H   0  0  0  0  0  0  0  0  0  0  0  0
   56.9210   33.1468   45.2467 H   0  0  0  0  0  0  0  0  0  0  0  0
   57.4634   33.1374   46.9696 H   0  0  0  0  0  0  0  0  0  0  0  0
   59.5822   33.9219   45.0542 H   0  0  0  0  0  0  0  0  0  0  0  0
   58.1463   35.0355   45.0880 H   0  0  0  0  0  0  0  0  0  0  0  0
   59.3254   36.0140   46.7719 H   0  0  0  0  0  0  0  0  0  0  0  0
   58.5253   34.7011   47.7364 H   0  0  0  0  0  0  0  0  0  0  0  0
   60.2868   34.7403   49.4594 H   0  0  0  0  0  0  0  0  0  0  0  0
   62.4995   33.7937   50.1158 H   0  0  0  0  0  0  0  0  0  0  0  0
   64.0489   32.9050   48.3720 H   0  0  0  0  0  0  0  0  0  0  0  0
   63.3836   32.9538   45.9668 H   0  0  0  0  0  0  0  0  0  0  0  0
   61.1692   33.8936   45.3005 H   0  0  0  0  0  0  0  0  0  0  0  0
  1  2  1  0
  2  3  1  0
  3  4  1  0
  4  5  1  0
  5  6  1  0
  6  7  1  0
  7  8  1  0
  8  9  1  0
  9 10  1  0
 10 11  1  0
 11 12  1  0
 12 13  1  0
 13 14  1  0
 14 15  1  0
 15 16  1  0
 16 17  1  0
 17 18  1  0
 18 19  2  0
 19 20  1  0
 20 21  2  0
 21 22  1  0
 22 23  2  0
 23 18  1  0
  1 24  1  0
  1 25  1  0
  1 26  1  0
  2 27  1  0
  2 28  1  0
  4 29  1  0
  4 30  1  0
  5 31  1  0
  5 32  1  0
  7 33  1  0
  7 34  1  0
  8 35  1  0
  8 36  1  0
  9 37  1  0
  9 38  1  0
 10 39  1  0
 11 40  1  0
 11 41  1  0
 12 42  1  0
 12 43  1  0
 13 44  1  0
 13 45  1  0
 14 46  1  0
 14 47  1  0
 15 48  1  0
 15 49  1  0
 16 50  1  0
 16 51  1  0
 17 52  1  0
 17 53  1  0
 19 54  1  0
 20 55  1  0
 21 56  1  0
 22 57  1  0
 23 58  1  0
M  CHG  1  14   1
M  END
>  <UniqueID>  (14) 
14

>  <SMILES>  (14) 
CCOCCOCCCNCCC[NH2+]CCCc1ccccc1

>  <Energy>  (14) 
46.00985600546591

>  <Genealogy>  (14) 
CCOCCOCCCNCCC[NH2+]CCCc1ccccc1 (protonated)
CCOCCOCCCNCCC[NH2+]CCCc1ccccc1 (3D coordinates assigned)
CCOCCOCCCNCCC[NH2+]CCCc1ccccc1 (optimized conformer: 46.00985600546591 kcal/mol)

>  <smiles>  (14) 
CCOCCOCCCNCCCNCCCc1ccccc1

>  <score_type>  (14) 
oracle

>  <origin>  (14) 
adg

>  <m_score__min__energy>  (14) 
-3

>  <m_primary>  (14) 
energy

$$$$
14:0
     RDKit          3D

 50 52  0  0  0  0  0  0  0  0999 V2000
   65.1310   33.1100   49.7340 C   0  0  0  0  0  0  0  0  0  0  0  0
   63.8000   33.8400   49.8600 C   0  0  0  0  0  0  0  0  0  0  0  0
   62.8290   33.3460   48.8340 C   0  0  0  0  0  0  0  0  0  0  0  0
   62.8810   32.1170   48.2840 N   0  0  0  0  0  0  0  0  0  0  0  0
   61.8330   32.0300   47.4790 N   0  0  0  0  0  0  0  0  0  0  0  0
   61.4830   30.8130   46.7460 C   0  0  0  0  0  0  0  0  0  0  0  0
   60.8780   29.7940   47.6730 C   0  0  0  0  0  0  0  0  0  0  0  0
   61.4200   29.6050   48.7950 O   0  0  0  0  0  0  0  0  0  0  0  0
   59.6760   29.0710   47.3300 N   0  0  0  0  0  0  0  0  0  0  0  0
   58.7030   28.7570   48.3860 C   0  0  0  0  0  0  0  0  0  0  0  0
   58.6440   29.8610   49.4390 C   0  0  0  0  0  0  0  0  0  0  0  0
   59.4380   28.5860   45.9610 C   0  0  0  0  0  0  0  0  0  0  0  0
   58.3430   29.3830   45.3030 C   0  0  0  0  0  0  0  0  0  0  0  0
   58.6540   30.4770   44.4830 C   0  0  0  0  0  0  0  0  0  0  0  0
   57.6320   31.1980   43.8630 C   0  0  0  0  0  0  0  0  0  0  0  0
   56.3040   30.8170   44.0690 C   0  0  0  0  0  0  0  0  0  0  0  0
   56.0170   29.7550   44.8670 N   0  0  0  0  0  0  0  0  0  0  0  0
   56.9940   29.0370   45.4820 C   0  0  0  0  0  0  0  0  0  0  0  0
   61.1510   33.1980   47.5570 C   0  0  0  0  0  0  0  0  0  0  0  0
   59.8910   33.5170   46.8580 C   0  0  0  0  0  0  0  0  0  0  0  0
   58.6640   33.1070   47.4080 C   0  0  0  0  0  0  0  0  0  0  0  0
   57.4640   33.4180   46.7620 C   0  0  0  0  0  0  0  0  0  0  0  0
   57.4770   34.1520   45.5730 C   0  0  0  0  0  0  0  0  0  0  0  0
   58.6910   34.5850   45.0340 C   0  0  0  0  0  0  0  0  0  0  0  0
   59.8930   34.2750   45.6760 C   0  0  0  0  0  0  0  0  0  0  0  0
   61.7530   34.0390   48.4180 N   0  0  0  0  0  0  0  0  0  0  0  0
   65.5266   32.8930   50.7372 H   0  0  0  0  0  0  0  0  0  0  0  0
   64.9819   32.1674   49.1869 H   0  0  0  0  0  0  0  0  0  0  0  0
   65.8457   33.7424   49.1869 H   0  0  0  0  0  0  0  0  0  0  0  0
   63.3854   33.6652   50.8638 H   0  0  0  0  0  0  0  0  0  0  0  0
   63.9687   34.9151   49.6999 H   0  0  0  0  0  0  0  0  0  0  0  0
   60.7569   31.0615   45.9580 H   0  0  0  0  0  0  0  0  0  0  0  0
   62.3963   30.3909   46.3013 H   0  0  0  0  0  0  0  0  0  0  0  0
   57.7076   28.6424   47.9322 H   0  0  0  0  0  0  0  0  0  0  0  0
   59.0180   27.8258   48.8796 H   0  0  0  0  0  0  0  0  0  0  0  0
   58.6680   29.4119   50.4429 H   0  0  0  0  0  0  0  0  0  0  0  0
   59.5076   30.5312   49.3164 H   0  0  0  0  0  0  0  0  0  0  0  0
   57.7139   30.4353   49.3164 H   0  0  0  0  0  0  0  0  0  0  0  0
   60.3630   28.6885   45.3746 H   0  0  0  0  0  0  0  0  0  0  0  0
   59.1326   27.5302   46.0053 H   0  0  0  0  0  0  0  0  0  0  0  0
   59.7037   30.7672   44.3282 H   0  0  0  0  0  0  0  0  0  0  0  0
   57.8700   32.0573   43.2189 H   0  0  0  0  0  0  0  0  0  0  0  0
   55.4901   31.3768   43.5851 H   0  0  0  0  0  0  0  0  0  0  0  0
   56.7270   28.1828   46.1215 H   0  0  0  0  0  0  0  0  0  0  0  0
   58.6481   32.5394   48.3501 H   0  0  0  0  0  0  0  0  0  0  0  0
   56.5075   33.0842   47.1905 H   0  0  0  0  0  0  0  0  0  0  0  0
   56.5322   34.3887   45.0618 H   0  0  0  0  0  0  0  0  0  0  0  0
   58.7008   35.1708   44.1030 H   0  0  0  0  0  0  0  0  0  0  0  0
   60.8457   34.6266   45.2532 H   0  0  0  0  0  0  0  0  0  0  0  0
   61.4540   35.0000   48.7020 H   0  0  0  0  0  0  0  0  0  0  0  0
  1  2  1  0
  2  3  1  0
  3  4  2  0
  4  5  1  0
  5  6  1  0
  6  7  1  0
  7  8  2  0
  7  9  1  0
  9 10  1  0
 10 11  1  0
  9 12  1  0
 12 13  1  0
 13 14  2  0
 14 15  1  0
 15 16  2  0
 16 17  1  0
 17 18  2  0
  5 19  1  0
 19 20  1  0
 20 21  2  0
 21 22  1  0
 22 23  2  0
 23 24  1  0
 24 25  2  0
 19 26  2  0
 26  3  1  0
 18 13  1  0
 25 20  1  0
  1 27  1  0
  1 28  1  0
  1 29  1  0
  2 30  1  0
  2 31  1  0
  6 32  1  0
  6 33  1  0
 10 34  1  0
 10 35  1  0
 11 36  1  0
 11 37  1  0
 11 38  1  0
 12 39  1  0
 12 40  1  0
 14 41  1  0
 15 42  1  0
 16 43  1  0
 18 44  1  0
 21 45  1  0
 22 46  1  0
 23 47  1  0
 24 48  1  0
 25 49  1  0
 26 50  1  0
M  CHG  1  26   1
M  END
>  <UniqueID>  (15) 
15

>  <SMILES>  (15) 
CCc1nn(CC(=O)N(CC)Cc2cccnc2)c(-c2ccccc2)[nH+]1

>  <Energy>  (15) 
85.13792943784733

>  <Genealogy>  (15) 
CCc1nn(CC(=O)N(CC)Cc2cccnc2)c(-c2ccccc2)[nH+]1 (protonated)
CCc1nn(CC(=O)N(CC)Cc2cccnc2)c(-c2ccccc2)[nH+]1 (3D coordinates assigned)
CCc1nn(CC(=O)N(CC)Cc2cccnc2)c(-c2ccccc2)[nH+]1 (optimized conformer: 85.13792943784733 kcal/mol)

>  <smiles>  (15) 
CCc1nc(-c2ccccc2)n(CC(=O)N(CC)Cc2cccnc2)n1

>  <score_type>  (15) 
oracle

>  <origin>  (15) 
adg

>  <m_score__min__energy>  (15) 
-6.3399999999999999

>  <m_primary>  (15) 
energy

$$$$
15:0
     RDKit          3D

 74 77  0  0  0  0  0  0  0  0999 V2000
   62.7640   34.2180   48.9810 C   0  0  0  0  0  0  0  0  0  0  0  0
   63.3690   33.5150   47.7590 C   0  0  0  0  0  0  0  0  0  0  0  0
   63.7210   32.0970   48.0300 N   0  0  1  0  0  0  0  0  0  0  0  0
   64.2690   31.9870   49.3970 C   0  0  0  0  0  0  0  0  0  0  0  0
   62.5340   31.2160   47.8630 C   0  0  0  0  0  0  0  0  0  0  0  0
   61.9200   30.7030   49.1880 C   0  0  0  0  0  0  0  0  0  0  0  0
   60.7480   29.7150   49.0380 C   0  0  0  0  0  0  0  0  0  0  0  0
   59.4690   30.3970   48.8080 N   0  0  0  0  0  0  0  0  0  0  0  0
   59.1300   30.9080   47.5070 C   0  0  0  0  0  0  0  0  0  0  0  0
   58.8120   29.9990   46.4820 C   0  0  0  0  0  0  0  0  0  0  0  0
   58.8030   28.6080   46.7270 C   0  0  0  0  0  0  0  0  0  0  0  0
   58.5680   27.7020   45.6960 C   0  0  0  0  0  0  0  0  0  0  0  0
   58.3470   28.1620   44.4040 C   0  0  0  0  0  0  0  0  0  0  0  0
   58.3110   29.5310   44.1450 C   0  0  0  0  0  0  0  0  0  0  0  0
   58.4920   30.4790   45.1880 C   0  0  0  0  0  0  0  0  0  0  0  0
   58.3670   31.8340   44.9660 N   0  0  0  0  0  0  0  0  0  0  0  0
   57.7270   32.3170   43.7200 C   0  0  0  0  0  0  0  0  0  0  0  0
   58.8030   32.7390   45.9180 C   0  0  0  0  0  0  0  0  0  0  0  0
   58.9270   34.1150   45.6100 C   0  0  0  0  0  0  0  0  0  0  0  0
   59.3200   35.0380   46.5690 C   0  0  0  0  0  0  0  0  0  0  0  0
   59.6130   34.6250   47.8560 C   0  0  0  0  0  0  0  0  0  0  0  0
   59.5450   33.2650   48.2100 C   0  0  0  0  0  0  0  0  0  0  0  0
   59.8680   32.8560   49.5150 O   0  0  0  0  0  0  0  0  0  0  0  0
   59.6550   33.5900   50.7220 C   0  0  0  0  0  0  0  0  0  0  0  0
   58.3900   33.0720   51.4460 C   0  0  0  0  0  0  0  0  0  0  0  0
   58.6390   32.1640   52.6190 N   0  0  0  0  0  0  0  0  0  0  0  0
   59.2630   32.9270   53.7310 C   0  0  0  0  0  0  0  0  0  0  0  0
   57.3300   31.6460   53.1140 C   0  0  0  0  0  0  0  0  0  0  0  0
   56.6420   30.7110   52.0850 C   0  0  0  0  0  0  0  0  0  0  0  0
   57.5440   30.1140   51.1700 O   0  0  0  0  0  0  0  0  0  0  0  0
   58.7370   29.7510   51.8240 C   0  0  0  0  0  0  0  0  0  0  0  0
   59.5250   31.0110   52.2470 C   0  0  0  0  0  0  0  0  0  0  0  0
   59.1600   32.3000   47.2300 C   0  0  0  0  0  0  0  0  0  0  0  0
   63.1583   33.7599   49.9001 H   0  0  0  0  0  0  0  0  0  0  0  0
   63.0307   35.2850   48.9596 H   0  0  0  0  0  0  0  0  0  0  0  0
   61.6692   34.1132   48.9596 H   0  0  0  0  0  0  0  0  0  0  0  0
   62.6380   33.5455   46.9376 H   0  0  0  0  0  0  0  0  0  0  0  0
   64.2972   34.0438   47.4968 H   0  0  0  0  0  0  0  0  0  0  0  0
   64.4740   31.8150   47.3630 H   0  0  0  0  0  0  0  0  0  0  0  0
   63.4639   32.1486   50.1289 H   0  0  0  0  0  0  0  0  0  0  0  0
   64.6989   30.9846   49.5401 H   0  0  0  0  0  0  0  0  0  0  0  0
   65.0524   32.7458   49.5401 H   0  0  0  0  0  0  0  0  0  0  0  0
   61.7604   31.7815   47.3228 H   0  0  0  0  0  0  0  0  0  0  0  0
   62.8805   30.3270   47.3155 H   0  0  0  0  0  0  0  0  0  0  0  0
   62.7156   30.2008   49.7579 H   0  0  0  0  0  0  0  0  0  0  0  0
   61.5051   31.5889   49.6911 H   0  0  0  0  0  0  0  0  0  0  0  0
   60.9526   29.0506   48.1856 H   0  0  0  0  0  0  0  0  0  0  0  0
   60.6630   29.1494   49.9776 H   0  0  0  0  0  0  0  0  0  0  0  0
   58.9310   30.7680   49.6220 H   0  0  0  0  0  0  0  0  0  0  0  0
   58.9841   28.2354   47.7460 H   0  0  0  0  0  0  0  0  0  0  0  0
   58.5574   26.6220   45.9046 H   0  0  0  0  0  0  0  0  0  0  0  0
   58.2001   27.4442   43.5835 H   0  0  0  0  0  0  0  0  0  0  0  0
   58.1398   29.8832   43.1171 H   0  0  0  0  0  0  0  0  0  0  0  0
   56.8725   32.9619   43.9729 H   0  0  0  0  0  0  0  0  0  0  0  0
   58.4577   32.8907   43.1311 H   0  0  0  0  0  0  0  0  0  0  0  0
   57.3756   31.4569   43.1311 H   0  0  0  0  0  0  0  0  0  0  0  0
   58.7072   34.4600   44.5889 H   0  0  0  0  0  0  0  0  0  0  0  0
   59.3988   36.1028   46.3043 H   0  0  0  0  0  0  0  0  0  0  0  0
   59.9029   35.3692   48.6124 H   0  0  0  0  0  0  0  0  0  0  0  0
   60.5270   33.4666   51.3810 H   0  0  0  0  0  0  0  0  0  0  0  0
   59.5177   34.6533   50.4760 H   0  0  0  0  0  0  0  0  0  0  0  0
   57.8255   33.9443   51.8070 H   0  0  0  0  0  0  0  0  0  0  0  0
   57.8465   32.4660   50.7062 H   0  0  0  0  0  0  0  0  0  0  0  0
   58.9256   32.5145   54.6933 H   0  0  0  0  0  0  0  0  0  0  0  0
   60.3579   32.8471   53.6614 H   0  0  0  0  0  0  0  0  0  0  0  0
   58.9674   33.9842   53.6614 H   0  0  0  0  0  0  0  0  0  0  0  0
   57.5004   31.0843   54.0443 H   0  0  0  0  0  0  0  0  0  0  0  0
   56.6678   32.5081   53.2820 H   0  0  0  0  0  0  0  0  0  0  0  0
   56.1233   29.9113   52.6340 H   0  0  0  0  0  0  0  0  0  0  0  0
   55.9496   31.3317   51.4973 H   0  0  0  0  0  0  0  0  0  0  0  0
   58.4941   29.1584   52.7183 H   0  0  0  0  0  0  0  0  0  0  0  0
   59.3557   29.1584   51.1341 H   0  0  0  0  0  0  0  0  0  0  0  0
   60.1513   30.7569   53.1149 H   0  0  0  0  0  0  0  0  0  0  0  0
   60.1269   31.3264   51.3820 H   0  0  0  0  0  0  0  0  0  0  0  0
  1  2  1  0
  2  3  1  0
  3  4  1  0
  3  5  1  0
  5  6  1  0
  6  7  1  0
  7  8  1  0
  8  9  1  0
  9 10  2  0
 10 11  1  0
 11 12  2  0
 12 13  1  0
 13 14  2  0
 14 15  1  0
 15 16  2  0
 16 17  1  0
 16 18  1  0
 18 19  2  0
 19 20  1  0
 20 21  2  0
 21 22  1  0
 22 23  1  0
 23 24  1  0
 24 25  1  0
 25 26  1  0
 26 27  1  0
 26 28  1  0
 28 29  1  0
 29 30  1  0
 30 31  1  0
 31 32  1  0
 22 33  2  0
 33  9  1  0
 15 10  1  0
 33 18  1  0
 32 26  1  0
  1 34  1  0
  1 35  1  0
  1 36  1  0
  2 37  1  0
  2 38  1  0
  3 39  1  6
  4 40  1  0
  4 41  1  0
  4 42  1  0
  5 43  1  0
  5 44  1  0
  6 45  1  0
  6 46  1  0
  7 47  1  0
  7 48  1  0
  8 49  1  0
 11 50  1  0
 12 51  1  0
 13 52  1  0
 14 53  1  0
 17 54  1  0
 17 55  1  0
 17 56  1  0
 19 57  1  0
 20 58  1  0
 21 59  1  0
 24 60  1  0
 24 61  1  0
 25 62  1  0
 25 63  1  0
 27 64  1  0
 27 65  1  0
 27 66  1  0
 28 67  1  0
 28 68  1  0
 29 69  1  0
 29 70  1  0
 31 71  1  0
 31 72  1  0
 32 73  1  0
 32 74  1  0
M  CHG  3   3   1  16   1  26   1
M  END
>  <UniqueID>  (16) 
16

>  <SMILES>  (16) 
CC[N@@H+](C)CCCNc1c2ccccc2[n+](C)c2cccc(OCC[N+]3(C)CCOCC3)c12

>  <Energy>  (16) 
123.29340363448686

>  <Genealogy>  (16) 
CC[NH+](C)CCCNc1c2ccccc2[n+](C)c2cccc(OCC[N+]3(C)CCOCC3)c12 (protonated)
CC[N@@H+](C)CCCNc1c2ccccc2[n+](C)c2cccc(OCC[N+]3(C)CCOCC3)c12 (chirality)
CC[N@@H+](C)CCCNc1c2ccccc2[n+](C)c2cccc(OCC[N+]3(C)CCOCC3)c12 (3D coordinates assigned)
CC[N@@H+](C)CCCNc1c2ccccc2[n+](C)c2cccc(OCC[N+]3(C)CCOCC3)c12 (nonaromatic ring conformer: 123.29340363448686 kcal/mol)

>  <smiles>  (16) 
CCN(C)CCCNc1c2ccccc2[n+](C)c2cccc(OCC[N+]3(C)CCOCC3)c12

>  <score_type>  (16) 
oracle

>  <origin>  (16) 
adg

>  <m_score__min__energy>  (16) 
-4.1200000000000001

>  <m_primary>  (16) 
energy

$$$$
16:0
     RDKit          3D

 60 63  0  0  0  0  0  0  0  0999 V2000
   56.3880   29.8480   44.0900 C   0  0  0  0  0  0  0  0  0  0  0  0
   57.3910   28.7840   43.6460 C   0  0  0  0  0  0  0  0  0  0  0  0
   58.0320   28.1500   44.8220 N   0  0  0  0  0  0  0  0  0  0  0  0
   57.6860   26.7130   44.9120 C   0  0  0  0  0  0  0  0  0  0  0  0
   57.3790   26.3280   46.3580 C   0  0  0  0  0  0  0  0  0  0  0  0
   59.5020   28.3620   44.8240 C   0  0  0  0  0  0  0  0  0  0  0  0
   59.8970   29.3240   45.9470 C   0  0  0  0  0  0  0  0  0  0  0  0
   58.7280   30.0130   46.4920 N   0  0  0  0  0  0  0  0  0  0  0  0
   58.8880   31.2250   47.2440 C   0  0  0  0  0  0  0  0  0  0  0  0
   59.0340   31.1810   48.6420 C   0  0  0  0  0  0  0  0  0  0  0  0
   59.1700   32.3810   49.3630 C   0  0  0  0  0  0  0  0  0  0  0  0
   59.4920   33.5370   48.6780 N   0  0  0  0  0  0  0  0  0  0  0  0
   60.3190   34.5830   49.3150 C   0  0  0  0  0  0  0  0  0  0  0  0
   59.2240   33.6320   47.3280 C   0  0  0  0  0  0  0  0  0  0  0  0
   59.2810   34.8710   46.6460 C   0  0  0  0  0  0  0  0  0  0  0  0
   59.0050   34.9500   45.2810 C   0  0  0  0  0  0  0  0  0  0  0  0
   58.6680   33.8040   44.5660 C   0  0  0  0  0  0  0  0  0  0  0  0
   58.6100   32.5700   45.2120 C   0  0  0  0  0  0  0  0  0  0  0  0
   58.8890   32.4690   46.5910 C   0  0  0  0  0  0  0  0  0  0  0  0
   58.9520   32.3350   50.8570 C   0  0  0  0  0  0  0  0  0  0  0  0
   58.6640   33.5000   51.5900 C   0  0  0  0  0  0  0  0  0  0  0  0
   58.5070   33.4510   52.9670 C   0  0  0  0  0  0  0  0  0  0  0  0
   58.5620   32.2270   53.6180 C   0  0  0  0  0  0  0  0  0  0  0  0
   58.6960   31.0660   52.9110 N   0  0  0  0  0  0  0  0  0  0  0  0
   58.6290   29.7950   53.6500 C   0  0  0  0  0  0  0  0  0  0  0  0
   58.8600   31.0900   51.5390 C   0  0  0  0  0  0  0  0  0  0  0  0
   58.6910   29.8180   50.7310 C   0  0  0  0  0  0  0  0  0  0  0  0
   59.3300   29.8820   49.3500 C   0  0  0  0  0  0  0  0  0  0  0  0
   56.3540   29.8840   45.1889 H   0  0  0  0  0  0  0  0  0  0  0  0
   56.6975   30.8290   43.7004 H   0  0  0  0  0  0  0  0  0  0  0  0
   55.3905   29.5969   43.7004 H   0  0  0  0  0  0  0  0  0  0  0  0
   56.8665   28.0141   43.0611 H   0  0  0  0  0  0  0  0  0  0  0  0
   58.1686   29.2629   43.0329 H   0  0  0  0  0  0  0  0  0  0  0  0
   56.8021   26.5134   44.2884 H   0  0  0  0  0  0  0  0  0  0  0  0
   58.5407   26.1177   44.5583 H   0  0  0  0  0  0  0  0  0  0  0  0
   57.9174   27.0032   47.0394 H   0  0  0  0  0  0  0  0  0  0  0  0
   56.2971   26.4118   46.5379 H   0  0  0  0  0  0  0  0  0  0  0  0
   57.7015   25.2918   46.5379 H   0  0  0  0  0  0  0  0  0  0  0  0
   60.0078   27.3973   44.9775 H   0  0  0  0  0  0  0  0  0  0  0  0
   59.8030   28.7951   43.8587 H   0  0  0  0  0  0  0  0  0  0  0  0
   60.3847   28.7544   46.7518 H   0  0  0  0  0  0  0  0  0  0  0  0
   60.5828   30.0780   45.5332 H   0  0  0  0  0  0  0  0  0  0  0  0
   57.8600   29.4560   46.6590 H   0  0  0  0  0  0  0  0  0  0  0  0
   60.2469   34.4919   50.4088 H   0  0  0  0  0  0  0  0  0  0  0  0
   61.3674   34.4608   49.0052 H   0  0  0  0  0  0  0  0  0  0  0  0
   59.9583   35.5749   49.0052 H   0  0  0  0  0  0  0  0  0  0  0  0
   59.5465   35.7836   47.1998 H   0  0  0  0  0  0  0  0  0  0  0  0
   59.0538   35.9216   44.7675 H   0  0  0  0  0  0  0  0  0  0  0  0
   58.4473   33.8722   43.4905 H   0  0  0  0  0  0  0  0  0  0  0  0
   58.3445   31.6677   44.6417 H   0  0  0  0  0  0  0  0  0  0  0  0
   58.5621   34.4613   51.0651 H   0  0  0  0  0  0  0  0  0  0  0  0
   58.3401   34.3757   53.5389 H   0  0  0  0  0  0  0  0  0  0  0  0
   58.4970   32.1912   54.7155 H   0  0  0  0  0  0  0  0  0  0  0  0
   58.6397   29.9984   54.7310 H   0  0  0  0  0  0  0  0  0  0  0  0
   57.7017   29.2656   53.3857 H   0  0  0  0  0  0  0  0  0  0  0  0
   59.4955   29.1711   53.3857 H   0  0  0  0  0  0  0  0  0  0  0  0
   59.1506   28.9885   51.2885 H   0  0  0  0  0  0  0  0  0  0  0  0
   57.6111   29.6737   50.5797 H   0  0  0  0  0  0  0  0  0  0  0  0
   60.4197   29.7790   49.4593 H   0  0  0  0  0  0  0  0  0  0  0  0
   58.9080   29.0655   48.7457 H   0  0  0  0  0  0  0  0  0  0  0  0
  1  2  1  0
  2  3  1  0
  3  4  1  0
  4  5  1  0
  3  6  1  0
  6  7  1  0
  7  8  1  0
  8  9  1  0
  9 10  2  0
 10 11  1  0
 11 12  2  0
 12 13  1  0
 12 14  1  0
 14 15  2  0
 15 16  1  0
 16 17  2  0
 17 18  1  0
 18 19  2  0
 11 20  1  0
 20 21  2  0
 21 22  1  0
 22 23  2  0
 23 24  1  0
 24 25  1  0
 24 26  2  0
 26 27  1  0
 27 28  1  0
 19  9  1  0
 26 20  1  0
 28 10  1  0
 19 14  1  0
  1 29  1  0
  1 30  1  0
  1 31  1  0
  2 32  1  0
  2 33  1  0
  4 34  1  0
  4 35  1  0
  5 36  1  0
  5 37  1  0
  5 38  1  0
  6 39  1  0
  6 40  1  0
  7 41  1  0
  7 42  1  0
  8 43  1  0
 13 44  1  0
 13 45  1  0
 13 46  1  0
 15 47  1  0
 16 48  1  0
 17 49  1  0
 18 50  1  0
 21 51  1  0
 22 52  1  0
 23 53  1  0
 25 54  1  0
 25 55  1  0
 25 56  1  0
 27 57  1  0
 27 58  1  0
 28 59  1  0
 28 60  1  0
M  CHG  2  12   1  24   1
M  END
>  <UniqueID>  (17) 
17

>  <SMILES>  (17) 
CCN(CC)CCNc1c2c([n+](C)c3ccccc13)-c1ccc[n+](C)c1CC2

>  <Energy>  (17) 
103.43699617834783

>  <Genealogy>  (17) 
CCN(CC)CCNc1c2c([n+](C)c3ccccc13)-c1ccc[n+](C)c1CC2 (3D coordinates assigned)
CCN(CC)CCNc1c2c([n+](C)c3ccccc13)-c1ccc[n+](C)c1CC2 (nonaromatic ring conformer: 103.43699617834783 kcal/mol)

>  <smiles>  (17) 
CCN(CC)CCNc1c2c([n+](C)c3ccccc13)-c1ccc[n+](C)c1CC2

>  <score_type>  (17) 
oracle

>  <origin>  (17) 
adg

>  <m_score__min__energy>  (17) 
-5.5499999999999998

>  <m_primary>  (17) 
energy

$$$$
17:0
     RDKit          3D

 62 64  0  0  0  0  0  0  0  0999 V2000
   62.6380   34.0300   46.3550 C   0  0  0  0  0  0  0  0  0  0  0  0
   63.7200   33.7940   47.4120 C   0  0  0  0  0  0  0  0  0  0  0  0
   63.9670   32.3620   47.6490 N   0  0  0  0  0  0  0  0  0  0  0  0
   62.7770   31.6870   48.1110 C   0  0  0  0  0  0  0  0  0  0  0  0
   62.3420   31.8360   49.4380 C   0  0  0  0  0  0  0  0  0  0  0  0
   61.1880   31.1880   49.8790 C   0  0  0  0  0  0  0  0  0  0  0  0
   60.4510   30.3900   49.0010 C   0  0  0  0  0  0  0  0  0  0  0  0
   60.8600   30.2370   47.6650 C   0  0  0  0  0  0  0  0  0  0  0  0
   60.1020   29.4140   46.7570 N   0  0  0  0  0  0  0  0  0  0  0  0
   58.8030   28.8560   47.1470 C   0  0  0  0  0  0  0  0  0  0  0  0
   57.7410   29.1680   46.0750 C   0  0  0  0  0  0  0  0  0  0  0  0
   58.2990   29.3000   44.7000 N   0  0  0  0  0  0  0  0  0  0  0  0
   57.3030   28.9270   43.6700 C   0  0  0  0  0  0  0  0  0  0  0  0
   56.7100   30.1780   42.9930 C   0  0  0  0  0  0  0  0  0  0  0  0
   57.6580   31.3040   42.9570 N   0  0  0  0  0  0  0  0  0  0  0  0
   57.3730   32.3200   43.9790 C   0  0  0  0  0  0  0  0  0  0  0  0
   58.5770   33.2550   44.1220 C   0  0  0  0  0  0  0  0  0  0  0  0
   58.9970   33.3550   45.5370 N   0  0  0  0  0  0  0  0  0  0  0  0
   59.2950   34.7580   45.8910 C   0  0  0  0  0  0  0  0  0  0  0  0
   59.4510   34.9290   47.4160 C   0  0  0  0  0  0  0  0  0  0  0  0
   59.6360   33.6770   48.0430 O   0  0  0  0  0  0  0  0  0  0  0  0
   58.4610   32.8950   47.9070 C   0  0  0  0  0  0  0  0  0  0  0  0
   57.9670   32.8210   46.4470 C   0  0  0  0  0  0  0  0  0  0  0  0
   59.5390   28.5170   44.5250 C   0  0  0  0  0  0  0  0  0  0  0  0
   60.6370   29.0910   45.4280 C   0  0  0  0  0  0  0  0  0  0  0  0
   62.0290   30.8830   47.2310 C   0  0  0  0  0  0  0  0  0  0  0  0
   61.6793   34.2391   46.8521 H   0  0  0  0  0  0  0  0  0  0  0  0
   62.9200   34.8877   45.7267 H   0  0  0  0  0  0  0  0  0  0  0  0
   62.5373   33.1327   45.7267 H   0  0  0  0  0  0  0  0  0  0  0  0
   64.6552   34.2626   47.0716 H   0  0  0  0  0  0  0  0  0  0  0  0
   63.3697   34.2358   48.3565 H   0  0  0  0  0  0  0  0  0  0  0  0
   64.7510   32.2420   48.3320 H   0  0  0  0  0  0  0  0  0  0  0  0
   64.2760   31.9250   46.7500 H   0  0  0  0  0  0  0  0  0  0  0  0
   62.9145   32.4672   50.1336 H   0  0  0  0  0  0  0  0  0  0  0  0
   60.8574   31.3059   50.9215 H   0  0  0  0  0  0  0  0  0  0  0  0
   59.5449   29.8781   49.3573 H   0  0  0  0  0  0  0  0  0  0  0  0
   58.8957   27.7656   47.2589 H   0  0  0  0  0  0  0  0  0  0  0  0
   58.4918   29.3085   48.1001 H   0  0  0  0  0  0  0  0  0  0  0  0
   57.0005   28.3546   46.0727 H   0  0  0  0  0  0  0  0  0  0  0  0
   57.2963   30.1396   46.3362 H   0  0  0  0  0  0  0  0  0  0  0  0
   57.7916   28.3031   42.9071 H   0  0  0  0  0  0  0  0  0  0  0  0
   56.4869   28.3735   44.1574 H   0  0  0  0  0  0  0  0  0  0  0  0
   56.4290   29.9206   41.9611 H   0  0  0  0  0  0  0  0  0  0  0  0
   55.8376   30.4950   43.5833 H   0  0  0  0  0  0  0  0  0  0  0  0
   58.6310   30.9400   43.0940 H   0  0  0  0  0  0  0  0  0  0  0  0
   56.4898   32.9033   43.6793 H   0  0  0  0  0  0  0  0  0  0  0  0
   57.1776   31.8254   44.9419 H   0  0  0  0  0  0  0  0  0  0  0  0
   59.4125   32.8616   43.5244 H   0  0  0  0  0  0  0  0  0  0  0  0
   58.2912   34.2560   43.7666 H   0  0  0  0  0  0  0  0  0  0  0  0
   60.2308   35.0610   45.3987 H   0  0  0  0  0  0  0  0  0  0  0  0
   58.4576   35.3869   45.5545 H   0  0  0  0  0  0  0  0  0  0  0  0
   60.3232   35.5674   47.6203 H   0  0  0  0  0  0  0  0  0  0  0  0
   58.5366   35.3924   47.8150 H   0  0  0  0  0  0  0  0  0  0  0  0
   58.6731   31.8750   48.2599 H   0  0  0  0  0  0  0  0  0  0  0  0
   57.6702   33.3728   48.5039 H   0  0  0  0  0  0  0  0  0  0  0  0
   57.7586   31.7730   46.1859 H   0  0  0  0  0  0  0  0  0  0  0  0
   57.0505   33.4208   46.3457 H   0  0  0  0  0  0  0  0  0  0  0  0
   59.3517   27.4678   44.7970 H   0  0  0  0  0  0  0  0  0  0  0  0
   59.8620   28.5712   43.4749 H   0  0  0  0  0  0  0  0  0  0  0  0
   61.4419   28.3487   45.5337 H   0  0  0  0  0  0  0  0  0  0  0  0
   61.0247   30.0129   44.9699 H   0  0  0  0  0  0  0  0  0  0  0  0
   62.3640   30.7590   46.1906 H   0  0  0  0  0  0  0  0  0  0  0  0
  1  2  1  0
  2  3  1  0
  3  4  1  0
  4  5  2  0
  5  6  1  0
  6  7  2  0
  7  8  1  0
  8  9  1  0
  9 10  1  0
 10 11  1  0
 11 12  1  0
 12 13  1  0
 13 14  1  0
 14 15  1  0
 15 16  1  0
 16 17  1  0
 17 18  1  0
 18 19  1  0
 19 20  1  0
 20 21  1  0
 21 22  1  0
 22 23  1  0
 12 24  1  0
 24 25  1  0
  8 26  2  0
 26  4  1  0
 25  9  1  0
 23 18  1  0
  1 27  1  0
  1 28  1  0
  1 29  1  0
  2 30  1  0
  2 31  1  0
  3 32  1  0
  3 33  1  0
  5 34  1  0
  6 35  1  0
  7 36  1  0
 10 37  1  0
 10 38  1  0
 11 39  1  0
 11 40  1  0
 13 41  1  0
 13 42  1  0
 14 43  1  0
 14 44  1  0
 15 45  1  0
 16 46  1  0
 16 47  1  0
 17 48  1  0
 17 49  1  0
 19 50  1  0
 19 51  1  0
 20 52  1  0
 20 53  1  0
 22 54  1  0
 22 55  1  0
 23 56  1  0
 23 57  1  0
 24 58  1  0
 24 59  1  0
 25 60  1  0
 25 61  1  0
 26 62  1  0
M  CHG  1   3   1
M  END
>  <UniqueID>  (18) 
18

>  <SMILES>  (18) 
CC[NH2+]c1cccc(N2CCN(CCNCCN3CCOCC3)CC2)c1

>  <Energy>  (18) 
78.03861811528185

>  <Genealogy>  (18) 
CC[NH2+]c1cccc(N2CCN(CCNCCN3CCOCC3)CC2)c1 (protonated)
CC[NH2+]c1cccc(N2CCN(CCNCCN3CCOCC3)CC2)c1 (3D coordinates assigned)
CC[NH2+]c1cccc(N2CCN(CCNCCN3CCOCC3)CC2)c1 (nonaromatic ring conformer: 78.03861811528185 kcal/mol)

>  <smiles>  (18) 
CCNc1cccc(N2CCN(CCNCCN3CCOCC3)CC2)c1

>  <score_type>  (18) 
oracle

>  <origin>  (18) 
adg

>  <m_score__min__energy>  (18) 
-6.0300000000000002

>  <m_primary>  (18) 
energy

$$$$
18:0
     RDKit          3D

 57 59  0  0  0  0  0  0  0  0999 V2000
   59.9070   28.7410   44.7810 C   0  0  0  0  0  0  0  0  0  0  0  0
   59.4760   29.9160   45.6500 C   0  0  0  0  0  0  0  0  0  0  0  0
   58.1670   30.4360   45.1790 N   0  0  0  0  0  0  0  0  0  0  0  0
   57.0860   29.4360   45.3280 C   0  0  0  0  0  0  0  0  0  0  0  0
   55.9290   29.7210   44.3710 C   0  0  0  0  0  0  0  0  0  0  0  0
   58.2410   30.9170   43.7800 C   0  0  0  0  0  0  0  0  0  0  0  0
   57.9170   32.4150   43.6860 C   0  0  0  0  0  0  0  0  0  0  0  0
   58.3540   33.1270   44.8990 N   0  0  0  0  0  0  0  0  0  0  0  0
   57.2150   33.5410   45.7280 C   0  0  0  0  0  0  0  0  0  0  0  0
   57.6130   33.5280   47.2040 C   0  0  0  0  0  0  0  0  0  0  0  0
   58.6660   32.5440   47.4470 N   0  0  0  0  0  0  0  0  0  0  0  0
   59.6640   32.7390   48.4640 C   0  0  0  0  0  0  0  0  0  0  0  0
   60.9700   33.1110   48.1050 C   0  0  0  0  0  0  0  0  0  0  0  0
   61.3420   33.2190   46.7490 C   0  0  0  0  0  0  0  0  0  0  0  0
   62.6450   33.5540   46.3960 C   0  0  0  0  0  0  0  0  0  0  0  0
   63.5980   33.7760   47.3820 C   0  0  0  0  0  0  0  0  0  0  0  0
   63.2520   33.6830   48.7290 C   0  0  0  0  0  0  0  0  0  0  0  0
   61.9230   33.3770   49.1220 C   0  0  0  0  0  0  0  0  0  0  0  0
   61.5530   33.3180   50.4520 N   0  0  0  0  0  0  0  0  0  0  0  0
   62.4490   33.8660   51.4940 C   0  0  0  0  0  0  0  0  0  0  0  0
   60.3410   32.7580   50.8070 C   0  0  0  0  0  0  0  0  0  0  0  0
   60.0430   32.4110   52.1500 C   0  0  0  0  0  0  0  0  0  0  0  0
   58.8040   31.8750   52.4980 C   0  0  0  0  0  0  0  0  0  0  0  0
   57.8380   31.6530   51.5220 C   0  0  0  0  0  0  0  0  0  0  0  0
   56.1460   30.9080   52.0060 Br  0  0  0  0  0  0  0  0  0  0  0  0
   58.1160   31.9460   50.1880 C   0  0  0  0  0  0  0  0  0  0  0  0
   59.3630   32.4910   49.8140 C   0  0  0  0  0  0  0  0  0  0  0  0
   60.2144   27.9029   45.4238 H   0  0  0  0  0  0  0  0  0  0  0  0
   59.0657   28.4266   44.1459 H   0  0  0  0  0  0  0  0  0  0  0  0
   60.7521   29.0452   44.1459 H   0  0  0  0  0  0  0  0  0  0  0  0
   59.3824   29.5830   46.6942 H   0  0  0  0  0  0  0  0  0  0  0  0
   60.2299   30.7141   45.5818 H   0  0  0  0  0  0  0  0  0  0  0  0
   57.4909   28.4361   45.1127 H   0  0  0  0  0  0  0  0  0  0  0  0
   56.7047   29.4884   46.3585 H   0  0  0  0  0  0  0  0  0  0  0  0
   55.0209   29.9447   44.9500 H   0  0  0  0  0  0  0  0  0  0  0  0
   56.1815   30.5838   43.7371 H   0  0  0  0  0  0  0  0  0  0  0  0
   55.7519   28.8396   43.7371 H   0  0  0  0  0  0  0  0  0  0  0  0
   59.2573   30.7456   43.3957 H   0  0  0  0  0  0  0  0  0  0  0  0
   57.5004   30.3640   43.1836 H   0  0  0  0  0  0  0  0  0  0  0  0
   58.4338   32.8407   42.8132 H   0  0  0  0  0  0  0  0  0  0  0  0
   56.8280   32.5322   43.5842 H   0  0  0  0  0  0  0  0  0  0  0  0
   58.9270   32.4610   45.4670 H   0  0  0  0  0  0  0  0  0  0  0  0
   56.9066   34.5575   45.4425 H   0  0  0  0  0  0  0  0  0  0  0  0
   56.3806   32.8414   45.5720 H   0  0  0  0  0  0  0  0  0  0  0  0
   57.9788   34.5258   47.4881 H   0  0  0  0  0  0  0  0  0  0  0  0
   56.7321   33.2587   47.8052 H   0  0  0  0  0  0  0  0  0  0  0  0
   58.7200   31.6950   46.8410 H   0  0  0  0  0  0  0  0  0  0  0  0
   60.5945   33.0366   45.9629 H   0  0  0  0  0  0  0  0  0  0  0  0
   62.9211   33.6432   45.3350 H   0  0  0  0  0  0  0  0  0  0  0  0
   64.6309   34.0264   47.0983 H   0  0  0  0  0  0  0  0  0  0  0  0
   64.0201   33.8492   49.4986 H   0  0  0  0  0  0  0  0  0  0  0  0
   62.0479   33.6207   52.4885 H   0  0  0  0  0  0  0  0  0  0  0  0
   63.4512   33.4262   51.3841 H   0  0  0  0  0  0  0  0  0  0  0  0
   62.5140   34.9586   51.3841 H   0  0  0  0  0  0  0  0  0  0  0  0
   60.8026   32.5676   52.9301 H   0  0  0  0  0  0  0  0  0  0  0  0
   58.5895   31.6268   53.5480 H   0  0  0  0  0  0  0  0  0  0  0  0
   57.3551   31.7503   49.4182 H   0  0  0  0  0  0  0  0  0  0  0  0
  1  2  1  0
  2  3  1  0
  3  4  1  0
  4  5  1  0
  3  6  1  0
  6  7  1  0
  7  8  1  0
  8  9  1  0
  9 10  1  0
 10 11  1  0
 11 12  1  0
 12 13  2  0
 13 14  1  0
 14 15  2  0
 15 16  1  0
 16 17  2  0
 17 18  1  0
 18 19  2  0
 19 20  1  0
 19 21  1  0
 21 22  2  0
 22 23  1  0
 23 24  2  0
 24 25  1  0
 24 26  1  0
 26 27  2  0
 27 12  1  0
 18 13  1  0
 27 21  1  0
  1 28  1  0
  1 29  1  0
  1 30  1  0
  2 31  1  0
  2 32  1  0
  4 33  1  0
  4 34  1  0
  5 35  1  0
  5 36  1  0
  5 37  1  0
  6 38  1  0
  6 39  1  0
  7 40  1  0
  7 41  1  0
  8 42  1  0
  9 43  1  0
  9 44  1  0
 10 45  1  0
 10 46  1  0
 11 47  1  0
 14 48  1  0
 15 49  1  0
 16 50  1  0
 17 51  1  0
 20 52  1  0
 20 53  1  0
 20 54  1  0
 22 55  1  0
 23 56  1  0
 26 57  1  0
M  CHG  1  19   1
M  END
>  <UniqueID>  (19) 
19

>  <SMILES>  (19) 
CCN(CC)CCNCCNc1c2ccccc2[n+](C)c2ccc(Br)cc12

>  <Energy>  (19) 
77.9891730056014

>  <Genealogy>  (19) 
CCN(CC)CCNCCNc1c2ccccc2[n+](C)c2ccc(Br)cc12 (3D coordinates assigned)
CCN(CC)CCNCCNc1c2ccccc2[n+](C)c2ccc(Br)cc12 (optimized conformer: 77.9891730056014 kcal/mol)

>  <smiles>  (19) 
CCN(CC)CCNCCNc1c2ccccc2[n+](C)c2ccc(Br)cc12

>  <score_type>  (19) 
oracle

>  <origin>  (19) 
adg

>  <m_score__min__energy>  (19) 
-5.6500000000000004

>  <m_primary>  (19) 
energy

$$$$
19:0
     RDKit          3D

 68 71  0  0  0  0  0  0  0  0999 V2000
   56.7240   31.4970   51.9600 C   0  0  0  0  0  0  0  0  0  0  0  0
   58.0870   31.1990   51.3380 C   0  0  0  0  0  0  0  0  0  0  0  0
   58.2880   29.7480   51.1820 N   0  0  0  0  0  0  0  0  0  0  0  0
   59.3580   29.4380   50.2170 C   0  0  0  0  0  0  0  0  0  0  0  0
   58.8040   29.0030   48.8510 C   0  0  0  0  0  0  0  0  0  0  0  0
   59.6120   29.5580   47.7660 N   0  0  0  0  0  0  0  0  0  0  0  0
   59.1250   30.6550   46.9820 C   0  0  0  0  0  0  0  0  0  0  0  0
   58.4510   30.4150   45.7730 C   0  0  0  0  0  0  0  0  0  0  0  0
   58.2400   29.0950   45.3160 C   0  0  0  0  0  0  0  0  0  0  0  0
   57.5170   28.8550   44.1520 C   0  0  0  0  0  0  0  0  0  0  0  0
   56.9850   29.9170   43.4290 C   0  0  0  0  0  0  0  0  0  0  0  0
   57.2040   31.2300   43.8490 C   0  0  0  0  0  0  0  0  0  0  0  0
   57.9740   31.5110   45.0080 C   0  0  0  0  0  0  0  0  0  0  0  0
   58.2510   32.8060   45.4030 N   0  0  0  0  0  0  0  0  0  0  0  0
   58.0080   33.9320   44.4720 C   0  0  0  0  0  0  0  0  0  0  0  0
   58.7850   33.0490   46.6560 C   0  0  0  0  0  0  0  0  0  0  0  0
   58.8530   34.3560   47.2000 C   0  0  0  0  0  0  0  0  0  0  0  0
   59.4390   34.5920   48.4410 C   0  0  0  0  0  0  0  0  0  0  0  0
   59.9600   33.5420   49.1930 C   0  0  0  0  0  0  0  0  0  0  0  0
   60.5430   33.8430   50.4320 O   0  0  0  0  0  0  0  0  0  0  0  0
   61.4980   33.0260   51.1010 C   0  0  0  0  0  0  0  0  0  0  0  0
   62.9500   33.3920   50.7120 C   0  0  0  0  0  0  0  0  0  0  0  0
   63.4290   33.0630   49.3190 N   0  0  0  0  0  0  0  0  0  0  0  0
   64.9210   33.0780   49.3900 C   0  0  0  0  0  0  0  0  0  0  0  0
   62.9690   31.7160   48.8530 C   0  0  0  0  0  0  0  0  0  0  0  0
   62.9410   31.5790   47.3130 C   0  0  0  0  0  0  0  0  0  0  0  0
   63.8330   32.4750   46.6960 O   0  0  0  0  0  0  0  0  0  0  0  0
   63.3980   33.8080   46.8920 C   0  0  0  0  0  0  0  0  0  0  0  0
   62.9920   34.1170   48.3570 C   0  0  0  0  0  0  0  0  0  0  0  0
   59.8720   32.2340   48.6940 C   0  0  0  0  0  0  0  0  0  0  0  0
   59.2670   31.9740   47.4460 C   0  0  0  0  0  0  0  0  0  0  0  0
   56.8094   31.4783   53.0565 H   0  0  0  0  0  0  0  0  0  0  0  0
   56.3824   32.4910   51.6357 H   0  0  0  0  0  0  0  0  0  0  0  0
   55.9987   30.7362   51.6357 H   0  0  0  0  0  0  0  0  0  0  0  0
   58.1445   31.6788   50.3498 H   0  0  0  0  0  0  0  0  0  0  0  0
   58.8701   31.5927   52.0026 H   0  0  0  0  0  0  0  0  0  0  0  0
   57.3990   29.3260   50.8230 H   0  0  0  0  0  0  0  0  0  0  0  0
   58.5020   29.3140   52.1110 H   0  0  0  0  0  0  0  0  0  0  0  0
   59.9791   30.3351   50.0773 H   0  0  0  0  0  0  0  0  0  0  0  0
   59.9456   28.6016   50.6235 H   0  0  0  0  0  0  0  0  0  0  0  0
   58.8197   27.9049   48.7879 H   0  0  0  0  0  0  0  0  0  0  0  0
   57.7739   29.3759   48.7517 H   0  0  0  0  0  0  0  0  0  0  0  0
   60.5780   29.2060   47.5810 H   0  0  0  0  0  0  0  0  0  0  0  0
   58.6513   28.2489   45.8860 H   0  0  0  0  0  0  0  0  0  0  0  0
   57.3658   27.8229   43.8028 H   0  0  0  0  0  0  0  0  0  0  0  0
   56.3904   29.7220   42.5243 H   0  0  0  0  0  0  0  0  0  0  0  0
   56.7725   32.0612   43.2720 H   0  0  0  0  0  0  0  0  0  0  0  0
   57.8103   34.8480   45.0481 H   0  0  0  0  0  0  0  0  0  0  0  0
   58.8945   34.0816   43.8382 H   0  0  0  0  0  0  0  0  0  0  0  0
   57.1387   33.7027   43.8382 H   0  0  0  0  0  0  0  0  0  0  0  0
   58.4351   35.1997   46.6313 H   0  0  0  0  0  0  0  0  0  0  0  0
   59.4909   35.6190   48.8316 H   0  0  0  0  0  0  0  0  0  0  0  0
   61.3779   33.1563   52.1866 H   0  0  0  0  0  0  0  0  0  0  0  0
   61.3198   31.9824   50.8025 H   0  0  0  0  0  0  0  0  0  0  0  0
   63.0569   34.4789   50.8435 H   0  0  0  0  0  0  0  0  0  0  0  0
   63.5702   32.7606   51.3652 H   0  0  0  0  0  0  0  0  0  0  0  0
   65.2379   33.0812   50.4433 H   0  0  0  0  0  0  0  0  0  0  0  0
   65.3209   32.1838   48.8895 H   0  0  0  0  0  0  0  0  0  0  0  0
   65.3029   33.9800   48.8895 H   0  0  0  0  0  0  0  0  0  0  0  0
   63.6509   30.9543   49.2591 H   0  0  0  0  0  0  0  0  0  0  0  0
   61.9376   31.5817   49.2111 H   0  0  0  0  0  0  0  0  0  0  0  0
   63.2228   30.5511   47.0411 H   0  0  0  0  0  0  0  0  0  0  0  0
   61.9238   31.8130   46.9657 H   0  0  0  0  0  0  0  0  0  0  0  0
   64.2154   34.4866   46.6067 H   0  0  0  0  0  0  0  0  0  0  0  0
   62.5015   33.9506   46.2707 H   0  0  0  0  0  0  0  0  0  0  0  0
   63.4491   35.0728   48.6530 H   0  0  0  0  0  0  0  0  0  0  0  0
   61.8933   34.1584   48.3917 H   0  0  0  0  0  0  0  0  0  0  0  0
   60.2801   31.3998   49.2835 H   0  0  0  0  0  0  0  0  0  0  0  0
  1  2  1  0
  2  3  1  0
  3  4  1  0
  4  5  1  0
  5  6  1  0
  6  7  1  0
  7  8  2  0
  8  9  1  0
  9 10  2  0
 10 11  1  0
 11 12  2  0
 12 13  1  0
 13 14  2  0
 14 15  1  0
 14 16  1  0
 16 17  2  0
 17 18  1  0
 18 19  2  0
 19 20  1  0
 20 21  1  0
 21 22  1  0
 22 23  1  0
 23 24  1  0
 23 25  1  0
 25 26  1  0
 26 27  1  0
 27 28  1  0
 28 29  1  0
 19 30  1  0
 30 31  2  0
 31  7  1  0
 13  8  1  0
 31 16  1  0
 29 23  1  0
  1 32  1  0
  1 33  1  0
  1 34  1  0
  2 35  1  0
  2 36  1  0
  3 37  1  0
  3 38  1  0
  4 39  1  0
  4 40  1  0
  5 41  1  0
  5 42  1  0
  6 43  1  0
  9 44  1  0
 10 45  1  0
 11 46  1  0
 12 47  1  0
 15 48  1  0
 15 49  1  0
 15 50  1  0
 17 51  1  0
 18 52  1  0
 21 53  1  0
 21 54  1  0
 22 55  1  0
 22 56  1  0
 24 57  1  0
 24 58  1  0
 24 59  1  0
 25 60  1  0
 25 61  1  0
 26 62  1  0
 26 63  1  0
 28 64  1  0
 28 65  1  0
 29 66  1  0
 29 67  1  0
 30 68  1  0
M  CHG  3   3   1  14   1  23   1
M  END
>  <UniqueID>  (20) 
20

>  <SMILES>  (20) 
CC[NH2+]CCNc1c2ccccc2[n+](C)c2ccc(OCC[N+]3(C)CCOCC3)cc12

>  <Energy>  (20) 
117.27773737410426

>  <Genealogy>  (20) 
CC[NH2+]CCNc1c2ccccc2[n+](C)c2ccc(OCC[N+]3(C)CCOCC3)cc12 (protonated)
CC[NH2+]CCNc1c2ccccc2[n+](C)c2ccc(OCC[N+]3(C)CCOCC3)cc12 (3D coordinates assigned)
CC[NH2+]CCNc1c2ccccc2[n+](C)c2ccc(OCC[N+]3(C)CCOCC3)cc12 (nonaromatic ring conformer: 117.27773737410426 kcal/mol)

>  <smiles>  (20) 
CCNCCNc1c2ccccc2[n+](C)c2ccc(OCC[N+]3(C)CCOCC3)cc12

>  <score_type>  (20) 
oracle

>  <origin>  (20) 
adg

>  <m_score__min__energy>  (20) 
-4.3399999999999999

>  <m_primary>  (20) 
energy

$$$$
20:0
     RDKit          3D

 40 42  0  0  0  0  0  0  0  0999 V2000
   58.6310   28.3770   44.2930 C   0  0  0  0  0  0  0  0  0  0  0  0
   57.9720   28.4350   45.6750 C   0  0  0  0  0  0  0  0  0  0  0  0
   58.3950   27.2300   46.5200 C   0  0  0  0  0  0  0  0  0  0  0  0
   58.3310   29.6800   46.3600 N   0  0  0  0  0  0  0  0  0  0  0  0
   57.7920   30.9520   45.9610 C   0  0  0  0  0  0  0  0  0  0  0  0
   57.0230   31.0210   44.9640 O   0  0  0  0  0  0  0  0  0  0  0  0
   58.1510   32.2370   46.6780 C   0  0  2  0  0  0  0  0  0  0  0  0
   57.4430   33.4920   46.1140 C   0  0  2  0  0  0  0  0  0  0  0  0
   57.7640   33.6600   44.6110 C   0  0  0  0  0  0  0  0  0  0  0  0
   59.2650   34.0140   44.6160 C   0  0  0  0  0  0  0  0  0  0  0  0
   59.5960   34.0120   46.1140 C   0  0  1  0  0  0  0  0  0  0  0  0
   58.3220   34.5790   46.7030 C   0  0  0  0  0  0  0  0  0  0  0  0
   59.5620   32.6230   46.5790 N   0  0  0  0  0  0  0  0  0  0  0  0
   60.7270   31.7900   46.7400 C   0  0  0  0  0  0  0  0  0  0  0  0
   60.6910   30.5990   46.3290 O   0  0  0  0  0  0  0  0  0  0  0  0
   61.9520   32.2740   47.4030 C   0  0  0  0  0  0  0  0  0  0  0  0
   62.6870   33.3970   46.9870 C   0  0  0  0  0  0  0  0  0  0  0  0
   63.8090   33.6460   47.7640 C   0  0  0  0  0  0  0  0  0  0  0  0
   63.8990   32.4590   48.9490 S   0  0  0  0  0  0  0  0  0  0  0  0
   62.5190   31.6200   48.4930 C   0  0  0  0  0  0  0  0  0  0  0  0
   59.7205   28.2811   44.4101 H   0  0  0  0  0  0  0  0  0  0  0  0
   58.2440   27.5094   43.7384 H   0  0  0  0  0  0  0  0  0  0  0  0
   58.4015   29.2988   43.7384 H   0  0  0  0  0  0  0  0  0  0  0  0
   56.8806   28.4067   45.5405 H   0  0  0  0  0  0  0  0  0  0  0  0
   58.3067   27.4814   47.5872 H   0  0  0  0  0  0  0  0  0  0  0  0
   57.7436   26.3740   46.2899 H   0  0  0  0  0  0  0  0  0  0  0  0
   59.4385   26.9690   46.2899 H   0  0  0  0  0  0  0  0  0  0  0  0
   59.0310   29.6440   47.1330 H   0  0  0  0  0  0  0  0  0  0  0  0
   57.8476   31.9810   47.7039 H   0  0  0  0  0  0  0  0  0  0  0  0
   56.3598   33.4797   46.3049 H   0  0  0  0  0  0  0  0  0  0  0  0
   57.5797   32.7258   44.0603 H   0  0  0  0  0  0  0  0  0  0  0  0
   57.1406   34.4192   44.1162 H   0  0  0  0  0  0  0  0  0  0  0  0
   59.8545   33.2579   44.0767 H   0  0  0  0  0  0  0  0  0  0  0  0
   59.4948   34.9661   44.1153 H   0  0  0  0  0  0  0  0  0  0  0  0
   60.5453   34.5146   46.3512 H   0  0  0  0  0  0  0  0  0  0  0  0
   58.3201   34.5895   47.8029 H   0  0  0  0  0  0  0  0  0  0  0  0
   58.0695   35.6277   46.4872 H   0  0  0  0  0  0  0  0  0  0  0  0
   62.4000   34.0197   46.1268 H   0  0  0  0  0  0  0  0  0  0  0  0
   64.5170   34.4768   47.6277 H   0  0  0  0  0  0  0  0  0  0  0  0
   62.1296   30.7100   48.9729 H   0  0  0  0  0  0  0  0  0  0  0  0
  1  2  1  0
  2  3  1  0
  2  4  1  0
  4  5  1  0
  5  6  2  0
  5  7  1  0
  7  8  1  0
  8  9  1  0
  9 10  1  0
 10 11  1  0
 11 12  1  0
 11 13  1  0
 13 14  1  0
 14 15  2  0
 14 16  1  0
 16 17  1  0
 17 18  2  0
 18 19  1  0
 19 20  1  0
 13  7  1  0
 20 16  2  0
 12  8  1  0
  1 21  1  0
  1 22  1  0
  1 23  1  0
  2 24  1  0
  3 25  1  0
  3 26  1  0
  3 27  1  0
  4 28  1  0
  7 29  1  1
  8 30  1  6
  9 31  1  0
  9 32  1  0
 10 33  1  0
 10 34  1  0
 11 35  1  6
 12 36  1  0
 12 37  1  0
 17 38  1  0
 18 39  1  0
 20 40  1  0
M  END
>  <UniqueID>  (21) 
21

>  <SMILES>  (21) 
CC(C)NC(=O)[C@@H]1[C@@H]2CCC(C2)N1C(=O)c1ccsc1

>  <Energy>  (21) 
93.54695841971365

>  <Genealogy>  (21) 
CC(C)NC(=O)[C@@H]1[C@@H]2CCC(C2)N1C(=O)c1ccsc1 (chirality)
CC(C)NC(=O)[C@@H]1[C@@H]2CCC(C2)N1C(=O)c1ccsc1 (3D coordinates assigned)
CC(C)NC(=O)[C@@H]1[C@@H]2CCC(C2)N1C(=O)c1ccsc1 (nonaromatic ring conformer: 93.54695841971365 kcal/mol)

>  <smiles>  (21) 
CC(C)NC(=O)C1C2CCC(C2)N1C(=O)c1ccsc1

>  <score_type>  (21) 
oracle

>  <origin>  (21) 
adg

>  <m_score__min__energy>  (21) 
-7.1699999999999999

>  <m_primary>  (21) 
energy

$$$$
21:0
     RDKit          3D

 57 60  0  0  0  0  0  0  0  0999 V2000
   64.6000   31.7640   50.4230 C   0  0  0  0  0  0  0  0  0  0  0  0
   64.5770   32.8110   49.3150 C   0  0  0  0  0  0  0  0  0  0  0  0
   63.2600   32.8080   48.6380 N   0  0  0  0  0  0  0  0  0  0  0  0
   63.3940   32.5520   47.1850 C   0  0  0  0  0  0  0  0  0  0  0  0
   63.2970   33.8390   46.3670 C   0  0  0  0  0  0  0  0  0  0  0  0
   62.4410   33.9990   48.9770 C   0  0  0  0  0  0  0  0  0  0  0  0
   61.4390   33.7720   50.1300 C   0  0  0  0  0  0  0  0  0  0  0  0
   60.2300   32.9440   49.6770 C   0  0  0  0  0  0  0  0  0  0  0  0
   60.6000   31.9730   48.6430 N   0  0  0  0  0  0  0  0  0  0  0  0
   59.8120   31.7710   47.4560 C   0  0  0  0  0  0  0  0  0  0  0  0
   59.3360   30.4830   47.1380 C   0  0  0  0  0  0  0  0  0  0  0  0
   58.6350   30.2790   45.9260 C   0  0  0  0  0  0  0  0  0  0  0  0
   58.1740   31.3690   45.2150 N   0  0  0  0  0  0  0  0  0  0  0  0
   56.9970   31.2450   44.3330 C   0  0  0  0  0  0  0  0  0  0  0  0
   58.6990   32.6220   45.4560 C   0  0  0  0  0  0  0  0  0  0  0  0
   58.4310   33.7130   44.5920 C   0  0  0  0  0  0  0  0  0  0  0  0
   58.9010   34.9930   44.8820 C   0  0  0  0  0  0  0  0  0  0  0  0
   59.6340   35.2210   46.0390 C   0  0  0  0  0  0  0  0  0  0  0  0
   59.9320   34.1640   46.8970 C   0  0  0  0  0  0  0  0  0  0  0  0
   59.5110   32.8490   46.5990 C   0  0  0  0  0  0  0  0  0  0  0  0
   58.4580   28.8570   45.4690 C   0  0  0  0  0  0  0  0  0  0  0  0
   58.0980   28.4070   44.1790 C   0  0  0  0  0  0  0  0  0  0  0  0
   58.1390   27.0270   44.0280 C   0  0  0  0  0  0  0  0  0  0  0  0
   58.7100   26.3530   45.4530 S   0  0  0  0  0  0  0  0  0  0  0  0
   58.8510   27.8030   46.2870 C   0  0  0  0  0  0  0  0  0  0  0  0
   59.6610   27.9810   47.5240 C   0  0  0  0  0  0  0  0  0  0  0  0
   59.4060   29.3510   48.1580 C   0  0  0  0  0  0  0  0  0  0  0  0
   64.5890   32.2657   51.4019 H   0  0  0  0  0  0  0  0  0  0  0  0
   63.7159   31.1157   50.3333 H   0  0  0  0  0  0  0  0  0  0  0  0
   65.5117   31.1552   50.3333 H   0  0  0  0  0  0  0  0  0  0  0  0
   64.7601   33.8047   49.7498 H   0  0  0  0  0  0  0  0  0  0  0  0
   65.3599   32.5737   48.5796 H   0  0  0  0  0  0  0  0  0  0  0  0
   64.3708   32.0832   46.9954 H   0  0  0  0  0  0  0  0  0  0  0  0
   62.5699   31.8910   46.8785 H   0  0  0  0  0  0  0  0  0  0  0  0
   63.2320   34.7014   47.0467 H   0  0  0  0  0  0  0  0  0  0  0  0
   64.1902   33.9385   45.7327 H   0  0  0  0  0  0  0  0  0  0  0  0
   62.3990   33.8035   45.7327 H   0  0  0  0  0  0  0  0  0  0  0  0
   63.1208   34.8139   49.2664 H   0  0  0  0  0  0  0  0  0  0  0  0
   61.8454   34.2373   48.0834 H   0  0  0  0  0  0  0  0  0  0  0  0
   61.9496   33.2400   50.9463 H   0  0  0  0  0  0  0  0  0  0  0  0
   61.0751   34.7542   50.4660 H   0  0  0  0  0  0  0  0  0  0  0  0
   59.8214   32.4044   50.5441 H   0  0  0  0  0  0  0  0  0  0  0  0
   59.4814   33.6299   49.2538 H   0  0  0  0  0  0  0  0  0  0  0  0
   61.5380   31.5140   48.7120 H   0  0  0  0  0  0  0  0  0  0  0  0
   56.0883   31.1493   44.9455 H   0  0  0  0  0  0  0  0  0  0  0  0
   56.9187   32.1399   43.6981 H   0  0  0  0  0  0  0  0  0  0  0  0
   57.1069   30.3535   43.6981 H   0  0  0  0  0  0  0  0  0  0  0  0
   57.8425   33.5471   43.6776 H   0  0  0  0  0  0  0  0  0  0  0  0
   58.6907   35.8241   44.1928 H   0  0  0  0  0  0  0  0  0  0  0  0
   59.9800   36.2373   46.2787 H   0  0  0  0  0  0  0  0  0  0  0  0
   60.5022   34.3562   47.8178 H   0  0  0  0  0  0  0  0  0  0  0  0
   57.8105   29.0896   43.3658 H   0  0  0  0  0  0  0  0  0  0  0  0
   57.8462   26.4701   43.1257 H   0  0  0  0  0  0  0  0  0  0  0  0
   59.3919   27.1956   48.2456 H   0  0  0  0  0  0  0  0  0  0  0  0
   60.7259   27.9126   47.2569 H   0  0  0  0  0  0  0  0  0  0  0  0
   58.4510   29.3117   48.7024 H   0  0  0  0  0  0  0  0  0  0  0  0
   60.2541   29.5648   48.8250 H   0  0  0  0  0  0  0  0  0  0  0  0
  1  2  1  0
  2  3  1  0
  3  4  1  0
  4  5  1  0
  3  6  1  0
  6  7  1  0
  7  8  1  0
  8  9  1  0
  9 10  1  0
 10 11  2  0
 11 12  1  0
 12 13  2  0
 13 14  1  0
 13 15  1  0
 15 16  2  0
 16 17  1  0
 17 18  2  0
 18 19  1  0
 19 20  2  0
 12 21  1  0
 21 22  1  0
 22 23  2  0
 23 24  1  0
 24 25  1  0
 25 26  1  0
 26 27  1  0
 20 10  1  0
 25 21  2  0
 27 11  1  0
 20 15  1  0
  1 28  1  0
  1 29  1  0
  1 30  1  0
  2 31  1  0
  2 32  1  0
  4 33  1  0
  4 34  1  0
  5 35  1  0
  5 36  1  0
  5 37  1  0
  6 38  1  0
  6 39  1  0
  7 40  1  0
  7 41  1  0
  8 42  1  0
  8 43  1  0
  9 44  1  0
 14 45  1  0
 14 46  1  0
 14 47  1  0
 16 48  1  0
 17 49  1  0
 18 50  1  0
 19 51  1  0
 22 52  1  0
 23 53  1  0
 26 54  1  0
 26 55  1  0
 27 56  1  0
 27 57  1  0
M  CHG  1  13   1
M  END
>  <UniqueID>  (22) 
22

>  <SMILES>  (22) 
CCN(CC)CCCNc1c2c([n+](C)c3ccccc13)-c1ccsc1CC2

>  <Energy>  (22) 
117.50654065617496

>  <Genealogy>  (22) 
CCN(CC)CCCNc1c2c([n+](C)c3ccccc13)-c1ccsc1CC2 (3D coordinates assigned)
CCN(CC)CCCNc1c2c([n+](C)c3ccccc13)-c1ccsc1CC2 (nonaromatic ring conformer: 117.50654065617496 kcal/mol)

>  <smiles>  (22) 
CCN(CC)CCCNc1c2c([n+](C)c3ccccc13)-c1ccsc1CC2

>  <score_type>  (22) 
oracle

>  <origin>  (22) 
adg

>  <m_score__min__energy>  (22) 
-6.3499999999999996

>  <m_primary>  (22) 
energy

$$$$
22:0
     RDKit          3D

 79 83  0  0  0  0  0  0  0  0999 V2000
   56.7490   30.3030   52.5120 C   0  0  0  0  0  0  0  0  0  0  0  0
   57.9470   29.4970   51.9790 C   0  0  0  0  0  0  0  0  0  0  0  0
   58.4520   29.9870   50.6720 N   0  0  0  0  0  0  0  0  0  0  0  0
   58.1480   31.4330   50.4870 C   0  0  0  0  0  0  0  0  0  0  0  0
   59.9390   29.8270   50.6000 C   0  0  0  0  0  0  0  0  0  0  0  0
   60.3790   28.5170   49.9070 C   0  0  0  0  0  0  0  0  0  0  0  0
   60.3090   28.4610   48.3650 C   0  0  0  0  0  0  0  0  0  0  0  0
   59.2070   29.3470   47.8950 N   0  0  0  0  0  0  0  0  0  0  0  0
   58.9830   29.6090   46.5110 C   0  0  0  0  0  0  0  0  0  0  0  0
   58.6490   28.5650   45.6090 C   0  0  0  0  0  0  0  0  0  0  0  0
   58.8160   27.2100   45.9630 C   0  0  0  0  0  0  0  0  0  0  0  0
   58.3920   26.1930   45.0960 C   0  0  0  0  0  0  0  0  0  0  0  0
   57.8910   26.5090   43.8400 C   0  0  0  0  0  0  0  0  0  0  0  0
   57.7760   27.8290   43.4410 C   0  0  0  0  0  0  0  0  0  0  0  0
   58.1230   28.8840   44.3160 C   0  0  0  0  0  0  0  0  0  0  0  0
   57.9240   30.2150   43.9310 N   0  0  0  0  0  0  0  0  0  0  0  0
   56.8440   30.5720   43.0010 C   0  0  0  0  0  0  0  0  0  0  0  0
   58.4620   31.1770   44.7350 C   0  0  0  0  0  0  0  0  0  0  0  0
   58.4660   32.5140   44.4640 N   0  0  0  0  0  0  0  0  0  0  0  0
   58.9350   33.0990   45.5990 C   0  0  0  0  0  0  0  0  0  0  0  0
   59.0510   34.4740   45.8370 C   0  0  0  0  0  0  0  0  0  0  0  0
   59.4160   34.8930   47.1150 C   0  0  0  0  0  0  0  0  0  0  0  0
   59.6080   33.9650   48.1570 C   0  0  0  0  0  0  0  0  0  0  0  0
   59.8330   34.4950   49.4410 O   0  0  0  0  0  0  0  0  0  0  0  0
   60.5460   33.8540   50.5290 C   0  0  0  0  0  0  0  0  0  0  0  0
   62.0810   34.1270   50.4600 C   0  0  0  0  0  0  0  0  0  0  0  0
   62.8830   33.2610   49.5140 N   0  0  0  0  0  0  0  0  0  0  0  0
   64.3310   33.2850   49.8820 C   0  0  0  0  0  0  0  0  0  0  0  0
   62.3400   31.8480   49.4590 C   0  0  0  0  0  0  0  0  0  0  0  0
   62.2710   31.2180   48.0380 C   0  0  0  0  0  0  0  0  0  0  0  0
   63.4630   31.6320   47.1840 C   0  0  0  0  0  0  0  0  0  0  0  0
   63.5870   33.1810   47.0720 C   0  0  0  0  0  0  0  0  0  0  0  0
   62.7710   33.9060   48.1450 C   0  0  0  0  0  0  0  0  0  0  0  0
   59.5150   32.5530   47.8800 C   0  0  0  0  0  0  0  0  0  0  0  0
   59.1980   32.1650   46.5840 C   0  0  0  0  0  0  0  0  0  0  0  0
   58.9380   30.9150   46.0190 C   0  0  0  0  0  0  0  0  0  0  0  0
   56.7616   30.2945   53.6119 H   0  0  0  0  0  0  0  0  0  0  0  0
   56.8160   31.3404   52.1525 H   0  0  0  0  0  0  0  0  0  0  0  0
   55.8133   29.8501   52.1525 H   0  0  0  0  0  0  0  0  0  0  0  0
   58.7634   29.5586   52.7136 H   0  0  0  0  0  0  0  0  0  0  0  0
   57.6017   28.4637   51.8272 H   0  0  0  0  0  0  0  0  0  0  0  0
   58.0466   31.9151   51.4705 H   0  0  0  0  0  0  0  0  0  0  0  0
   58.9653   31.9108   49.9269 H   0  0  0  0  0  0  0  0  0  0  0  0
   57.2075   31.5412   49.9269 H   0  0  0  0  0  0  0  0  0  0  0  0
   60.3550   30.6763   50.0381 H   0  0  0  0  0  0  0  0  0  0  0  0
   60.3138   29.7912   51.6336 H   0  0  0  0  0  0  0  0  0  0  0  0
   61.4235   28.3278   50.1954 H   0  0  0  0  0  0  0  0  0  0  0  0
   59.6505   27.7656   50.2455 H   0  0  0  0  0  0  0  0  0  0  0  0
   61.2640   28.8038   47.9401 H   0  0  0  0  0  0  0  0  0  0  0  0
   60.1183   27.4276   48.0397 H   0  0  0  0  0  0  0  0  0  0  0  0
   58.3870   29.5290   48.5310 H   0  0  0  0  0  0  0  0  0  0  0  0
   59.2816   26.9496   46.9250 H   0  0  0  0  0  0  0  0  0  0  0  0
   58.4564   25.1413   45.4118 H   0  0  0  0  0  0  0  0  0  0  0  0
   57.5831   25.7037   43.1569 H   0  0  0  0  0  0  0  0  0  0  0  0
   57.4098   28.0605   42.4299 H   0  0  0  0  0  0  0  0  0  0  0  0
   55.9512   30.8671   43.5718 H   0  0  0  0  0  0  0  0  0  0  0  0
   57.1680   31.4108   42.3675 H   0  0  0  0  0  0  0  0  0  0  0  0
   56.6042   29.7053   42.3675 H   0  0  0  0  0  0  0  0  0  0  0  0
   58.2090   32.9960   43.5730 H   0  0  0  0  0  0  0  0  0  0  0  0
   58.8592   35.2038   45.0367 H   0  0  0  0  0  0  0  0  0  0  0  0
   59.5564   35.9658   47.3132 H   0  0  0  0  0  0  0  0  0  0  0  0
   60.1589   34.2395   51.4837 H   0  0  0  0  0  0  0  0  0  0  0  0
   60.3889   32.7684   50.4465 H   0  0  0  0  0  0  0  0  0  0  0  0
   62.2199   35.1739   50.1524 H   0  0  0  0  0  0  0  0  0  0  0  0
   62.4625   33.8887   51.4638 H   0  0  0  0  0  0  0  0  0  0  0  0
   64.4309   33.2867   50.9774 H   0  0  0  0  0  0  0  0  0  0  0  0
   64.8289   32.3950   49.4697 H   0  0  0  0  0  0  0  0  0  0  0  0
   64.7991   34.1910   49.4697 H   0  0  0  0  0  0  0  0  0  0  0  0
   62.9852   31.2113   50.0822 H   0  0  0  0  0  0  0  0  0  0  0  0
   61.3015   31.9066   49.8169 H   0  0  0  0  0  0  0  0  0  0  0  0
   62.2631   30.1221   48.1331 H   0  0  0  0  0  0  0  0  0  0  0  0
   61.3541   31.5756   47.5466 H   0  0  0  0  0  0  0  0  0  0  0  0
   64.3819   31.2336   47.6389 H   0  0  0  0  0  0  0  0  0  0  0  0
   63.3142   31.2277   46.1719 H   0  0  0  0  0  0  0  0  0  0  0  0
   64.6451   33.4605   47.1827 H   0  0  0  0  0  0  0  0  0  0  0  0
   63.1941   33.4808   46.0893 H   0  0  0  0  0  0  0  0  0  0  0  0
   63.1295   34.9435   48.2163 H   0  0  0  0  0  0  0  0  0  0  0  0
   61.7142   33.8556   47.8438 H   0  0  0  0  0  0  0  0  0  0  0  0
   59.6894   31.8070   48.6693 H   0  0  0  0  0  0  0  0  0  0  0  0
  1  2  1  0
  2  3  1  0
  3  4  1  0
  3  5  1  0
  5  6  1  0
  6  7  1  0
  7  8  1  0
  8  9  1  0
  9 10  2  0
 10 11  1  0
 11 12  2  0
 12 13  1  0
 13 14  2  0
 14 15  1  0
 15 16  2  0
 16 17  1  0
 16 18  1  0
 18 19  1  0
 19 20  1  0
 20 21  2  0
 21 22  1  0
 22 23  2  0
 23 24  1  0
 24 25  1  0
 25 26  1  0
 26 27  1  0
 27 28  1  0
 27 29  1  0
 29 30  1  0
 30 31  1  0
 31 32  1  0
 32 33  1  0
 23 34  1  0
 34 35  2  0
 35 36  1  0
 36  9  1  0
 15 10  1  0
 36 18  2  0
 35 20  1  0
 33 27  1  0
  1 37  1  0
  1 38  1  0
  1 39  1  0
  2 40  1  0
  2 41  1  0
  4 42  1  0
  4 43  1  0
  4 44  1  0
  5 45  1  0
  5 46  1  0
  6 47  1  0
  6 48  1  0
  7 49  1  0
  7 50  1  0
  8 51  1  0
 11 52  1  0
 12 53  1  0
 13 54  1  0
 14 55  1  0
 17 56  1  0
 17 57  1  0
 17 58  1  0
 19 59  1  0
 21 60  1  0
 22 61  1  0
 25 62  1  0
 25 63  1  0
 26 64  1  0
 26 65  1  0
 28 66  1  0
 28 67  1  0
 28 68  1  0
 29 69  1  0
 29 70  1  0
 30 71  1  0
 30 72  1  0
 31 73  1  0
 31 74  1  0
 32 75  1  0
 32 76  1  0
 33 77  1  0
 33 78  1  0
 34 79  1  0
M  CHG  2  16   1  27   1
M  END
>  <UniqueID>  (23) 
23

>  <SMILES>  (23) 
CCN(C)CCCNc1c2ccccc2[n+](C)c2[nH]c3ccc(OCC[N+]4(C)CCCCC4)cc3c12

>  <Energy>  (23) 
184.1363955420586

>  <Genealogy>  (23) 
CCN(C)CCCNc1c2ccccc2[n+](C)c2[nH]c3ccc(OCC[N+]4(C)CCCCC4)cc3c12 (3D coordinates assigned)
CCN(C)CCCNc1c2ccccc2[n+](C)c2[nH]c3ccc(OCC[N+]4(C)CCCCC4)cc3c12 (nonaromatic ring conformer: 184.1363955420586 kcal/mol)

>  <smiles>  (23) 
CCN(C)CCCNc1c2ccccc2[n+](C)c2[nH]c3ccc(OCC[N+]4(C)CCCCC4)cc3c12

>  <score_type>  (23) 
oracle

>  <origin>  (23) 
adg

>  <m_score__min__energy>  (23) 
-6.1699999999999999

>  <m_primary>  (23) 
energy

$$$$
23:0
     RDKit          3D

 70 73  0  0  0  0  0  0  0  0999 V2000
   55.2870   30.5940   52.0650 C   0  0  0  0  0  0  0  0  0  0  0  0
   56.4370   29.7820   52.0030 O   0  0  0  0  0  0  0  0  0  0  0  0
   57.5910   30.5930   52.1050 C   0  0  0  0  0  0  0  0  0  0  0  0
   57.4070   31.8600   51.2470 C   0  0  0  0  0  0  0  0  0  0  0  0
   58.6000   32.2680   50.4710 N   0  0  0  0  0  0  0  0  0  0  0  0
   58.8630   31.3770   49.3270 C   0  0  0  0  0  0  0  0  0  0  0  0
   59.7980   32.4570   51.3100 C   0  0  0  0  0  0  0  0  0  0  0  0
   60.6100   33.5090   50.7910 O   0  0  0  0  0  0  0  0  0  0  0  0
   60.9090   33.7250   49.4350 C   0  0  0  0  0  0  0  0  0  0  0  0
   60.1280   34.5770   48.6260 C   0  0  0  0  0  0  0  0  0  0  0  0
   60.4350   34.7560   47.2630 C   0  0  0  0  0  0  0  0  0  0  0  0
   59.6680   35.6330   46.4140 N   0  0  0  0  0  0  0  0  0  0  0  0
   59.2700   35.3250   45.0390 C   0  0  0  0  0  0  0  0  0  0  0  0
   58.5880   33.9830   44.9620 C   0  0  0  0  0  0  0  0  0  0  0  0
   58.4270   33.3340   43.7290 C   0  0  0  0  0  0  0  0  0  0  0  0
   57.7740   32.1000   43.6570 C   0  0  0  0  0  0  0  0  0  0  0  0
   57.2690   31.4950   44.8240 C   0  0  0  0  0  0  0  0  0  0  0  0
   56.6310   30.2440   44.8170 O   0  0  0  0  0  0  0  0  0  0  0  0
   57.2900   28.9780   44.7350 C   0  0  0  0  0  0  0  0  0  0  0  0
   58.3520   28.8500   45.8000 C   0  0  0  0  0  0  0  0  0  0  0  0
   59.5360   29.6030   45.7110 C   0  0  0  0  0  0  0  0  0  0  0  0
   60.5110   29.5020   46.7070 C   0  0  0  0  0  0  0  0  0  0  0  0
   60.3210   28.6400   47.7890 C   0  0  0  0  0  0  0  0  0  0  0  0
   59.1570   27.8720   47.8770 C   0  0  0  0  0  0  0  0  0  0  0  0
   58.1760   27.9680   46.8850 C   0  0  0  0  0  0  0  0  0  0  0  0
   57.0510   27.2150   46.9880 F   0  0  0  0  0  0  0  0  0  0  0  0
   57.4000   32.1630   46.0470 C   0  0  0  0  0  0  0  0  0  0  0  0
   58.0440   33.4010   46.1160 C   0  0  0  0  0  0  0  0  0  0  0  0
   61.5260   34.0680   46.7170 C   0  0  0  0  0  0  0  0  0  0  0  0
   62.3040   33.2250   47.5090 C   0  0  0  0  0  0  0  0  0  0  0  0
   62.0140   33.0540   48.8710 C   0  0  0  0  0  0  0  0  0  0  0  0
   62.8710   32.1630   49.6920 C   0  0  0  0  0  0  0  0  0  0  0  0
   64.2030   32.5090   49.9760 C   0  0  0  0  0  0  0  0  0  0  0  0
   64.9910   31.6510   50.7460 C   0  0  0  0  0  0  0  0  0  0  0  0
   64.4750   30.4820   51.2170 N   0  0  0  0  0  0  0  0  0  0  0  0
   63.1910   30.1150   50.9490 C   0  0  0  0  0  0  0  0  0  0  0  0
   62.3690   30.9450   50.1810 C   0  0  0  0  0  0  0  0  0  0  0  0
   55.0250   30.7790   53.1172 H   0  0  0  0  0  0  0  0  0  0  0  0
   55.4872   31.5521   51.5631 H   0  0  0  0  0  0  0  0  0  0  0  0
   54.4511   30.0848   51.5631 H   0  0  0  0  0  0  0  0  0  0  0  0
   57.7450   30.8809   53.1554 H   0  0  0  0  0  0  0  0  0  0  0  0
   58.4662   30.0315   51.7462 H   0  0  0  0  0  0  0  0  0  0  0  0
   56.5855   31.6764   50.5389 H   0  0  0  0  0  0  0  0  0  0  0  0
   57.2018   32.6807   51.9501 H   0  0  0  0  0  0  0  0  0  0  0  0
   59.1563   30.3832   49.6961 H   0  0  0  0  0  0  0  0  0  0  0  0
   57.9531   31.2871   48.7155 H   0  0  0  0  0  0  0  0  0  0  0  0
   59.6759   31.7956   48.7155 H   0  0  0  0  0  0  0  0  0  0  0  0
   59.4866   32.7115   52.3338 H   0  0  0  0  0  0  0  0  0  0  0  0
   60.3818   31.5247   51.3121 H   0  0  0  0  0  0  0  0  0  0  0  0
   59.2698   35.1074   49.0645 H   0  0  0  0  0  0  0  0  0  0  0  0
   59.3960   36.5730   46.7860 H   0  0  0  0  0  0  0  0  0  0  0  0
   58.5773   36.1016   44.6825 H   0  0  0  0  0  0  0  0  0  0  0  0
   60.1726   35.2960   44.4109 H   0  0  0  0  0  0  0  0  0  0  0  0
   58.8174   33.7994   42.8120 H   0  0  0  0  0  0  0  0  0  0  0  0
   57.6542   31.5996   42.6848 H   0  0  0  0  0  0  0  0  0  0  0  0
   56.5480   28.1771   44.8690 H   0  0  0  0  0  0  0  0  0  0  0  0
   57.7713   28.8971   43.7492 H   0  0  0  0  0  0  0  0  0  0  0  0
   59.6954   30.2741   44.8542 H   0  0  0  0  0  0  0  0  0  0  0  0
   61.4299   30.1027   46.6385 H   0  0  0  0  0  0  0  0  0  0  0  0
   61.0888   28.5654   48.5732 H   0  0  0  0  0  0  0  0  0  0  0  0
   59.0120   27.1906   48.7282 H   0  0  0  0  0  0  0  0  0  0  0  0
   56.9922   31.7091   46.9623 H   0  0  0  0  0  0  0  0  0  0  0  0
   58.1248   33.9222   47.0813 H   0  0  0  0  0  0  0  0  0  0  0  0
   61.7715   34.1942   45.6522 H   0  0  0  0  0  0  0  0  0  0  0  0
   63.1537   32.6885   47.0617 H   0  0  0  0  0  0  0  0  0  0  0  0
   64.6229   33.4511   49.5937 H   0  0  0  0  0  0  0  0  0  0  0  0
   66.0330   31.9205   50.9731 H   0  0  0  0  0  0  0  0  0  0  0  0
   65.0750   29.8520   51.7960 H   0  0  0  0  0  0  0  0  0  0  0  0
   62.7999   29.1632   51.3378 H   0  0  0  0  0  0  0  0  0  0  0  0
   61.3337   30.6459   49.9604 H   0  0  0  0  0  0  0  0  0  0  0  0
  1  2  1  0
  2  3  1  0
  3  4  1  0
  4  5  1  0
  5  6  1  0
  5  7  1  0
  7  8  1  0
  8  9  1  0
  9 10  2  0
 10 11  1  0
 11 12  1  0
 12 13  1  0
 13 14  1  0
 14 15  2  0
 15 16  1  0
 16 17  2  0
 17 18  1  0
 18 19  1  0
 19 20  1  0
 20 21  2  0
 21 22  1  0
 22 23  2  0
 23 24  1  0
 24 25  2  0
 25 26  1  0
 17 27  1  0
 27 28  2  0
 11 29  2  0
 29 30  1  0
 30 31  2  0
 31 32  1  0
 32 33  2  0
 33 34  1  0
 34 35  2  0
 35 36  1  0
 36 37  2  0
 31  9  1  0
 37 32  1  0
 28 14  1  0
 25 20  1  0
  1 38  1  0
  1 39  1  0
  1 40  1  0
  3 41  1  0
  3 42  1  0
  4 43  1  0
  4 44  1  0
  6 45  1  0
  6 46  1  0
  6 47  1  0
  7 48  1  0
  7 49  1  0
 10 50  1  0
 12 51  1  0
 13 52  1  0
 13 53  1  0
 15 54  1  0
 16 55  1  0
 19 56  1  0
 19 57  1  0
 21 58  1  0
 22 59  1  0
 23 60  1  0
 24 61  1  0
 27 62  1  0
 28 63  1  0
 29 64  1  0
 30 65  1  0
 33 66  1  0
 34 67  1  0
 35 68  1  0
 36 69  1  0
 37 70  1  0
M  CHG  1  35   1
M  END
>  <UniqueID>  (24) 
24

>  <SMILES>  (24) 
COCCN(C)COc1cc(NCc2ccc(OCc3ccccc3F)cc2)ccc1-c1cc[nH+]cc1

>  <Energy>  (24) 
80.26476330520678

>  <Genealogy>  (24) 
COCCN(C)COc1cc(NCc2ccc(OCc3ccccc3F)cc2)ccc1-c1cc[nH+]cc1 (protonated)
COCCN(C)COc1cc(NCc2ccc(OCc3ccccc3F)cc2)ccc1-c1cc[nH+]cc1 (3D coordinates assigned)
COCCN(C)COc1cc(NCc2ccc(OCc3ccccc3F)cc2)ccc1-c1cc[nH+]cc1 (optimized conformer: 80.26476330520678 kcal/mol)

>  <smiles>  (24) 
COCCN(C)COc1cc(NCc2ccc(OCc3ccccc3F)cc2)ccc1-c1ccncc1

>  <score_type>  (24) 
oracle

>  <origin>  (24) 
adg

>  <m_score__min__energy>  (24) 
-7.5

>  <m_primary>  (24) 
energy

$$$$
24:0
     RDKit          3D

 84 87  0  0  0  0  0  0  0  0999 V2000
   55.9730   31.2440   52.2640 C   0  0  0  0  0  0  0  0  0  0  0  0
   57.0520   30.9580   53.3220 C   0  0  0  0  0  0  0  0  0  0  0  0
   58.0980   29.9620   52.9190 N   0  0  0  0  0  0  0  0  0  0  0  0
   57.6950   28.6560   53.4970 C   0  0  0  0  0  0  0  0  0  0  0  0
   58.1340   29.8330   51.4390 C   0  0  0  0  0  0  0  0  0  0  0  0
   59.4340   30.3850   53.4520 C   0  0  0  0  0  0  0  0  0  0  0  0
   59.7240   31.9010   53.4000 C   0  0  0  0  0  0  0  0  0  0  0  0
   59.9950   32.2880   52.0680 O   0  0  0  0  0  0  0  0  0  0  0  0
   59.0380   33.2100   51.5820 C   0  0  0  0  0  0  0  0  0  0  0  0
   58.8870   33.0650   50.0620 C   0  0  0  0  0  0  0  0  0  0  0  0
   59.9410   33.7370   49.3970 O   0  0  0  0  0  0  0  0  0  0  0  0
   59.4530   34.5820   48.3730 C   0  0  0  0  0  0  0  0  0  0  0  0
   60.3980   34.5750   47.1710 C   0  0  0  0  0  0  0  0  0  0  0  0
   61.6550   34.0350   47.5480 O   0  0  0  0  0  0  0  0  0  0  0  0
   62.5440   33.9430   46.4440 C   0  0  0  0  0  0  0  0  0  0  0  0
   63.6890   32.9740   46.7460 C   0  0  0  0  0  0  0  0  0  0  0  0
   63.2430   31.9630   47.6290 O   0  0  0  0  0  0  0  0  0  0  0  0
   63.9970   31.9660   48.8270 C   0  0  0  0  0  0  0  0  0  0  0  0
   63.0950   31.7210   50.0450 C   0  0  0  0  0  0  0  0  0  0  0  0
   61.6680   31.8620   49.7030 N   0  0  0  0  0  0  0  0  0  0  0  0
   61.0980   30.5730   49.3570 C   0  0  0  0  0  0  0  0  0  0  0  0
   60.3440   30.4350   48.1820 C   0  0  0  0  0  0  0  0  0  0  0  0
   59.7850   29.2220   47.8260 C   0  0  0  0  0  0  0  0  0  0  0  0
   60.0380   28.0730   48.5290 N   0  0  0  0  0  0  0  0  0  0  0  0
   59.7070   26.7620   47.9420 C   0  0  0  0  0  0  0  0  0  0  0  0
   60.6800   28.1720   49.7520 C   0  0  0  0  0  0  0  0  0  0  0  0
   60.7680   27.0630   50.6280 C   0  0  0  0  0  0  0  0  0  0  0  0
   61.4660   27.1480   51.8310 C   0  0  0  0  0  0  0  0  0  0  0  0
   62.0900   28.3350   52.1970 C   0  0  0  0  0  0  0  0  0  0  0  0
   61.9940   29.4590   51.3800 C   0  0  0  0  0  0  0  0  0  0  0  0
   61.2650   29.4160   50.1690 C   0  0  0  0  0  0  0  0  0  0  0  0
   59.0010   29.4280   46.6000 C   0  0  0  0  0  0  0  0  0  0  0  0
   58.0660   28.6110   45.9460 C   0  0  0  0  0  0  0  0  0  0  0  0
   57.3960   29.1200   44.8230 C   0  0  0  0  0  0  0  0  0  0  0  0
   57.6250   30.4390   44.3930 C   0  0  0  0  0  0  0  0  0  0  0  0
   58.5100   31.2670   45.0990 C   0  0  0  0  0  0  0  0  0  0  0  0
   59.1800   30.7440   46.2060 C   0  0  0  0  0  0  0  0  0  0  0  0
   60.0420   31.5000   47.1630 C   0  0  0  0  0  0  0  0  0  0  0  0
   55.0261   31.4950   52.7645 H   0  0  0  0  0  0  0  0  0  0  0  0
   56.2907   32.0890   51.6354 H   0  0  0  0  0  0  0  0  0  0  0  0
   55.8304   30.3526   51.6354 H   0  0  0  0  0  0  0  0  0  0  0  0
   57.5581   31.9062   53.5559 H   0  0  0  0  0  0  0  0  0  0  0  0
   56.5257   30.5152   54.1805 H   0  0  0  0  0  0  0  0  0  0  0  0
   57.7145   28.7193   54.5950 H   0  0  0  0  0  0  0  0  0  0  0  0
   56.6777   28.4051   53.1622 H   0  0  0  0  0  0  0  0  0  0  0  0
   58.3941   27.8755   53.1622 H   0  0  0  0  0  0  0  0  0  0  0  0
   58.4205   28.8063   51.1673 H   0  0  0  0  0  0  0  0  0  0  0  0
   57.1390   30.0572   51.0271 H   0  0  0  0  0  0  0  0  0  0  0  0
   58.8692   30.5400   51.0271 H   0  0  0  0  0  0  0  0  0  0  0  0
   59.4961   30.0645   54.5024 H   0  0  0  0  0  0  0  0  0  0  0  0
   60.1819   29.9131   52.7978 H   0  0  0  0  0  0  0  0  0  0  0  0
   58.8482   32.4539   53.7706 H   0  0  0  0  0  0  0  0  0  0  0  0
   60.5968   32.1271   54.0301 H   0  0  0  0  0  0  0  0  0  0  0  0
   58.0684   33.0152   52.0637 H   0  0  0  0  0  0  0  0  0  0  0  0
   59.3738   34.2316   51.8136 H   0  0  0  0  0  0  0  0  0  0  0  0
   58.9114   31.9982   49.7951 H   0  0  0  0  0  0  0  0  0  0  0  0
   57.9289   33.5089   49.7537 H   0  0  0  0  0  0  0  0  0  0  0  0
   58.4612   34.2282   48.0548 H   0  0  0  0  0  0  0  0  0  0  0  0
   59.3847   35.6081   48.7635 H   0  0  0  0  0  0  0  0  0  0  0  0
   59.9631   33.9609   46.3687 H   0  0  0  0  0  0  0  0  0  0  0  0
   60.5389   35.6063   46.8151 H   0  0  0  0  0  0  0  0  0  0  0  0
   61.9901   33.5834   45.5643 H   0  0  0  0  0  0  0  0  0  0  0  0
   62.9680   34.9392   46.2495 H   0  0  0  0  0  0  0  0  0  0  0  0
   64.0341   32.5135   45.8085 H   0  0  0  0  0  0  0  0  0  0  0  0
   64.5166   33.5260   47.2154 H   0  0  0  0  0  0  0  0  0  0  0  0
   64.7564   31.1718   48.7761 H   0  0  0  0  0  0  0  0  0  0  0  0
   64.4757   32.9502   48.9375 H   0  0  0  0  0  0  0  0  0  0  0  0
   63.2726   30.7027   50.4212 H   0  0  0  0  0  0  0  0  0  0  0  0
   63.3403   32.4720   50.8104 H   0  0  0  0  0  0  0  0  0  0  0  0
   61.5620   32.5190   48.8970 H   0  0  0  0  0  0  0  0  0  0  0  0
   61.1420   32.3040   50.4900 H   0  0  0  0  0  0  0  0  0  0  0  0
   59.5236   26.0355   48.7473 H   0  0  0  0  0  0  0  0  0  0  0  0
   58.8044   26.8560   47.3203 H   0  0  0  0  0  0  0  0  0  0  0  0
   60.5460   26.4162   47.3203 H   0  0  0  0  0  0  0  0  0  0  0  0
   60.2767   26.1177   50.3540 H   0  0  0  0  0  0  0  0  0  0  0  0
   61.5235   26.2721   52.4939 H   0  0  0  0  0  0  0  0  0  0  0  0
   62.6617   28.3868   53.1353 H   0  0  0  0  0  0  0  0  0  0  0  0
   62.4919   30.3926   51.6808 H   0  0  0  0  0  0  0  0  0  0  0  0
   57.8624   27.5919   46.3065 H   0  0  0  0  0  0  0  0  0  0  0  0
   56.6865   28.4825   44.2751 H   0  0  0  0  0  0  0  0  0  0  0  0
   57.1087   30.8225   43.5006 H   0  0  0  0  0  0  0  0  0  0  0  0
   58.6729   32.3089   44.7861 H   0  0  0  0  0  0  0  0  0  0  0  0
   60.9588   31.8663   46.6779 H   0  0  0  0  0  0  0  0  0  0  0  0
   59.5730   32.4042   47.5781 H   0  0  0  0  0  0  0  0  0  0  0  0
  1  2  1  0
  2  3  1  0
  3  4  1  0
  3  5  1  0
  3  6  1  0
  6  7  1  0
  7  8  1  0
  8  9  1  0
  9 10  1  0
 10 11  1  0
 11 12  1  0
 12 13  1  0
 13 14  1  0
 14 15  1  0
 15 16  1  0
 16 17  1  0
 17 18  1  0
 18 19  1  0
 19 20  1  0
 20 21  1  0
 21 22  2  0
 22 23  1  0
 23 24  2  0
 24 25  1  0
 24 26  1  0
 26 27  2  0
 27 28  1  0
 28 29  2  0
 29 30  1  0
 30 31  2  0
 23 32  1  0
 32 33  2  0
 33 34  1  0
 34 35  2  0
 35 36  1  0
 36 37  2  0
 37 38  1  0
 31 21  1  0
 37 32  1  0
 38 22  1  0
 31 26  1  0
  1 39  1  0
  1 40  1  0
  1 41  1  0
  2 42  1  0
  2 43  1  0
  4 44  1  0
  4 45  1  0
  4 46  1  0
  5 47  1  0
  5 48  1  0
  5 49  1  0
  6 50  1  0
  6 51  1  0
  7 52  1  0
  7 53  1  0
  9 54  1  0
  9 55  1  0
 10 56  1  0
 10 57  1  0
 12 58  1  0
 12 59  1  0
 13 60  1  0
 13 61  1  0
 15 62  1  0
 15 63  1  0
 16 64  1  0
 16 65  1  0
 18 66  1  0
 18 67  1  0
 19 68  1  0
 19 69  1  0
 20 70  1  0
 20 71  1  0
 25 72  1  0
 25 73  1  0
 25 74  1  0
 27 75  1  0
 28 76  1  0
 29 77  1  0
 30 78  1  0
 33 79  1  0
 34 80  1  0
 35 81  1  0
 36 82  1  0
 38 83  1  0
 38 84  1  0
M  CHG  3   3   1  20   1  24   1
M  END
>  <UniqueID>  (25) 
25

>  <SMILES>  (25) 
CC[N+](C)(C)CCOCCOCCOCCOCC[NH2+]c1c2c([n+](C)c3ccccc13)-c1ccccc1C2

>  <Energy>  (25) 
143.10833229811385

>  <Genealogy>  (25) 
CC[N+](C)(C)CCOCCOCCOCCOCC[NH2+]c1c2c([n+](C)c3ccccc13)-c1ccccc1C2 (protonated)
CC[N+](C)(C)CCOCCOCCOCCOCC[NH2+]c1c2c([n+](C)c3ccccc13)-c1ccccc1C2 (3D coordinates assigned)
CC[N+](C)(C)CCOCCOCCOCCOCC[NH2+]c1c2c([n+](C)c3ccccc13)-c1ccccc1C2 (nonaromatic ring conformer: 143.10833229811385 kcal/mol)

>  <smiles>  (25) 
CC[N+](C)(C)CCOCCOCCOCCOCCNc1c2c([n+](C)c3ccccc13)-c1ccccc1C2

>  <score_type>  (25) 
oracle

>  <origin>  (25) 
adg

>  <m_score__min__energy>  (25) 
-3.9100000000000001

>  <m_primary>  (25) 
energy

$$$$
25:0
     RDKit          3D

 43 44  0  0  0  0  0  0  0  0999 V2000
   59.2540   35.3940   44.8910 C   0  0  0  0  0  0  0  0  0  0  0  0
   59.0790   34.4790   46.0670 C   0  0  0  0  0  0  0  0  0  0  0  0
   59.7510   34.7630   47.2170 N   0  0  0  0  0  0  0  0  0  0  0  0
   59.6420   33.9930   48.3300 C   0  0  0  0  0  0  0  0  0  0  0  0
   58.8200   32.8670   48.3220 C   0  0  0  0  0  0  0  0  0  0  0  0
   58.1180   32.5430   47.1630 C   0  0  0  0  0  0  0  0  0  0  0  0
   58.2360   33.3430   46.0140 C   0  0  0  0  0  0  0  0  0  0  0  0
   57.4210   33.0010   44.7860 C   0  0  0  0  0  0  0  0  0  0  0  0
   56.9430   31.6130   44.8470 N   0  0  0  0  0  0  0  0  0  0  0  0
   56.8790   31.0100   43.5100 C   0  0  0  0  0  0  0  0  0  0  0  0
   55.9020   29.8320   43.5160 C   0  0  0  0  0  0  0  0  0  0  0  0
   55.7740   29.2100   44.8500 N   0  0  0  0  0  0  0  0  0  0  0  0
   56.9220   28.4040   45.3370 C   0  0  0  0  0  0  0  0  0  0  0  0
   57.7640   27.8580   44.1520 C   0  0  0  0  0  0  0  0  0  0  0  0
   59.2720   27.8200   44.4460 C   0  0  0  0  0  0  0  0  0  0  0  0
   59.5420   27.2870   45.8580 C   0  0  0  0  0  0  0  0  0  0  0  0
   58.8740   28.1420   46.9580 C   0  0  0  0  0  0  0  0  0  0  0  0
   57.7830   29.0900   46.4270 C   0  0  0  0  0  0  0  0  0  0  0  0
   59.4495   36.4161   45.2476 H   0  0  0  0  0  0  0  0  0  0  0  0
   60.1026   35.0497   44.2816 H   0  0  0  0  0  0  0  0  0  0  0  0
   58.3383   35.3871   44.2816 H   0  0  0  0  0  0  0  0  0  0  0  0
   60.2026   34.2578   49.2386 H   0  0  0  0  0  0  0  0  0  0  0  0
   58.7266   32.2408   49.2215 H   0  0  0  0  0  0  0  0  0  0  0  0
   57.4677   31.6559   47.1474 H   0  0  0  0  0  0  0  0  0  0  0  0
   56.5560   33.6780   44.7272 H   0  0  0  0  0  0  0  0  0  0  0  0
   58.0582   33.1157   43.8967 H   0  0  0  0  0  0  0  0  0  0  0  0
   55.9710   31.6290   45.2380 H   0  0  0  0  0  0  0  0  0  0  0  0
   56.5368   31.7640   42.7859 H   0  0  0  0  0  0  0  0  0  0  0  0
   57.8790   30.6496   43.2271 H   0  0  0  0  0  0  0  0  0  0  0  0
   54.9125   30.1927   43.1985 H   0  0  0  0  0  0  0  0  0  0  0  0
   56.2942   29.0689   42.8276 H   0  0  0  0  0  0  0  0  0  0  0  0
   55.6180   29.9890   45.5320 H   0  0  0  0  0  0  0  0  0  0  0  0
   56.4814   27.5440   45.8626 H   0  0  0  0  0  0  0  0  0  0  0  0
   57.4264   26.8359   43.9252 H   0  0  0  0  0  0  0  0  0  0  0  0
   57.6141   28.5413   43.3031 H   0  0  0  0  0  0  0  0  0  0  0  0
   59.7651   27.1643   43.7133 H   0  0  0  0  0  0  0  0  0  0  0  0
   59.6693   28.8433   44.3752 H   0  0  0  0  0  0  0  0  0  0  0  0
   59.1535   26.2602   45.9264 H   0  0  0  0  0  0  0  0  0  0  0  0
   60.6288   27.3237   46.0239 H   0  0  0  0  0  0  0  0  0  0  0  0
   58.4173   27.4649   47.6949 H   0  0  0  0  0  0  0  0  0  0  0  0
   59.6610   28.7718   47.3984 H   0  0  0  0  0  0  0  0  0  0  0  0
   57.1321   29.3901   47.2614 H   0  0  0  0  0  0  0  0  0  0  0  0
   58.2733   29.9676   45.9804 H   0  0  0  0  0  0  0  0  0  0  0  0
  1  2  1  0
  2  3  2  0
  3  4  1  0
  4  5  2  0
  5  6  1  0
  6  7  2  0
  7  8  1  0
  8  9  1  0
  9 10  1  0
 10 11  1  0
 11 12  1  0
 12 13  1  0
 13 14  1  0
 14 15  1  0
 15 16  1  0
 16 17  1  0
 17 18  1  0
  7  2  1  0
 18 13  1  0
  1 19  1  0
  1 20  1  0
  1 21  1  0
  4 22  1  0
  5 23  1  0
  6 24  1  0
  8 25  1  0
  8 26  1  0
  9 27  1  0
 10 28  1  0
 10 29  1  0
 11 30  1  0
 11 31  1  0
 12 32  1  0
 13 33  1  0
 14 34  1  0
 14 35  1  0
 15 36  1  0
 15 37  1  0
 16 38  1  0
 16 39  1  0
 17 40  1  0
 17 41  1  0
 18 42  1  0
 18 43  1  0
M  END
>  <UniqueID>  (26) 
26

>  <SMILES>  (26) 
Cc1ncccc1CNCCNC1CCCCC1

>  <Energy>  (26) 
47.06688585525106

>  <Genealogy>  (26) 
Cc1ncccc1CNCCNC1CCCCC1 (3D coordinates assigned)
Cc1ncccc1CNCCNC1CCCCC1 (nonaromatic ring conformer: 47.06688585525106 kcal/mol)

>  <smiles>  (26) 
Cc1ncccc1CNCCNC1CCCCC1

>  <score_type>  (26) 
oracle

>  <origin>  (26) 
adg

>  <m_score__min__energy>  (26) 
-7.1299999999999999

>  <m_primary>  (26) 
energy

$$$$
26:0
     RDKit          3D

 51 54  0  0  0  0  0  0  0  0999 V2000
   62.9940   33.5680   46.3690 C   0  0  0  0  0  0  0  0  0  0  0  0
   62.3590   33.3590   47.6800 N   0  0  0  0  0  0  0  0  0  0  0  0
   60.9920   33.3200   47.7810 C   0  0  0  0  0  0  0  0  0  0  0  0
   60.3620   32.8410   48.9170 C   0  0  0  0  0  0  0  0  0  0  0  0
   61.0830   32.4910   50.0510 C   0  0  0  0  0  0  0  0  0  0  0  0
   60.4100   32.0240   51.2250 N   0  0  0  0  0  0  0  0  0  0  0  0
   60.0850   30.6050   51.3730 C   0  0  0  0  0  0  0  0  0  0  0  0
   58.8950   30.4180   52.3200 C   0  0  0  0  0  0  0  0  0  0  0  0
   57.5500   30.3090   51.5750 C   0  0  0  0  0  0  0  0  0  0  0  0
   56.7110   31.5340   51.7130 N   0  0  0  0  0  0  0  0  0  0  0  0
   55.3990   31.2120   52.3000 C   0  0  0  0  0  0  0  0  0  0  0  0
   57.3840   32.5480   52.5460 C   0  0  0  0  0  0  0  0  0  0  0  0
   62.4830   32.6610   50.0210 C   0  0  0  0  0  0  0  0  0  0  0  0
   63.2630   32.3910   51.1630 C   0  0  0  0  0  0  0  0  0  0  0  0
   64.6400   32.6000   51.1440 C   0  0  0  0  0  0  0  0  0  0  0  0
   65.2580   33.0930   49.9990 C   0  0  0  0  0  0  0  0  0  0  0  0
   64.5110   33.3620   48.8520 C   0  0  0  0  0  0  0  0  0  0  0  0
   63.1140   33.1280   48.8210 C   0  0  0  0  0  0  0  0  0  0  0  0
   58.9250   32.7700   48.6610 C   0  0  0  0  0  0  0  0  0  0  0  0
   58.0380   32.3270   49.4380 O   0  0  0  0  0  0  0  0  0  0  0  0
   58.7140   33.2960   47.3230 C   0  0  0  0  0  0  0  0  0  0  0  0
   57.5150   33.5340   46.6540 C   0  0  0  0  0  0  0  0  0  0  0  0
   57.5680   34.1760   45.4070 C   0  0  0  0  0  0  0  0  0  0  0  0
   58.8010   34.5950   44.8750 C   0  0  0  0  0  0  0  0  0  0  0  0
   59.9980   34.3570   45.5730 C   0  0  0  0  0  0  0  0  0  0  0  0
   59.9430   33.6550   46.7860 C   0  0  0  0  0  0  0  0  0  0  0  0
   64.0298   33.9089   46.5135 H   0  0  0  0  0  0  0  0  0  0  0  0
   62.9942   32.6225   45.8068 H   0  0  0  0  0  0  0  0  0  0  0  0
   62.4326   34.3288   45.8068 H   0  0  0  0  0  0  0  0  0  0  0  0
   60.0190   32.7320   51.8870 H   0  0  0  0  0  0  0  0  0  0  0  0
   59.8311   30.1880   50.3873 H   0  0  0  0  0  0  0  0  0  0  0  0
   60.9576   30.0843   51.7943 H   0  0  0  0  0  0  0  0  0  0  0  0
   59.0501   29.4974   52.9018 H   0  0  0  0  0  0  0  0  0  0  0  0
   58.8441   31.3060   52.9671 H   0  0  0  0  0  0  0  0  0  0  0  0
   57.7526   30.1405   50.5070 H   0  0  0  0  0  0  0  0  0  0  0  0
   56.9912   29.4734   52.0216 H   0  0  0  0  0  0  0  0  0  0  0  0
   56.5270   31.9630   50.7750 H   0  0  0  0  0  0  0  0  0  0  0  0
   55.4738   31.2304   53.3973 H   0  0  0  0  0  0  0  0  0  0  0  0
   54.6576   31.9548   51.9705 H   0  0  0  0  0  0  0  0  0  0  0  0
   55.0858   30.2103   51.9705 H   0  0  0  0  0  0  0  0  0  0  0  0
   57.2274   32.3120   53.6089 H   0  0  0  0  0  0  0  0  0  0  0  0
   58.4616   32.5475   52.3252 H   0  0  0  0  0  0  0  0  0  0  0  0
   56.9650   33.5408   52.3252 H   0  0  0  0  0  0  0  0  0  0  0  0
   62.7809   32.0123   52.0763 H   0  0  0  0  0  0  0  0  0  0  0  0
   65.2410   32.3745   52.0373 H   0  0  0  0  0  0  0  0  0  0  0  0
   66.3434   33.2719   49.9982 H   0  0  0  0  0  0  0  0  0  0  0  0
   65.0138   33.7615   47.9589 H   0  0  0  0  0  0  0  0  0  0  0  0
   56.5534   33.2271   47.0912 H   0  0  0  0  0  0  0  0  0  0  0  0
   56.6404   34.3524   44.8427 H   0  0  0  0  0  0  0  0  0  0  0  0
   58.8288   35.1131   43.9050 H   0  0  0  0  0  0  0  0  0  0  0  0
   60.9593   34.7145   45.1754 H   0  0  0  0  0  0  0  0  0  0  0  0
  1  2  1  0
  2  3  2  0
  3  4  1  0
  4  5  2  0
  5  6  1  0
  6  7  1  0
  7  8  1  0
  8  9  1  0
  9 10  1  0
 10 11  1  0
 10 12  1  0
  5 13  1  0
 13 14  2  0
 14 15  1  0
 15 16  2  0
 16 17  1  0
 17 18  2  0
  4 19  1  0
 19 20  2  0
 19 21  1  0
 21 22  2  0
 22 23  1  0
 23 24  2  0
 24 25  1  0
 25 26  2  0
 18  2  1  0
 26 21  1  0
 26  3  1  0
 18 13  1  0
  1 27  1  0
  1 28  1  0
  1 29  1  0
  6 30  1  0
  7 31  1  0
  7 32  1  0
  8 33  1  0
  8 34  1  0
  9 35  1  0
  9 36  1  0
 10 37  1  0
 11 38  1  0
 11 39  1  0
 11 40  1  0
 12 41  1  0
 12 42  1  0
 12 43  1  0
 14 44  1  0
 15 45  1  0
 16 46  1  0
 17 47  1  0
 22 48  1  0
 23 49  1  0
 24 50  1  0
 25 51  1  0
M  CHG  2   2   1  10   1
M  END
>  <UniqueID>  (27) 
27

>  <SMILES>  (27) 
C[n+]1c2c(c(NCCC[NH+](C)C)c3ccccc31)C(=O)c1ccccc1-2

>  <Energy>  (27) 
109.09035975351921

>  <Genealogy>  (27) 
C[n+]1c2c(c(NCCC[NH+](C)C)c3ccccc31)C(=O)c1ccccc1-2 (protonated)
C[n+]1c2c(c(NCCC[NH+](C)C)c3ccccc31)C(=O)c1ccccc1-2 (3D coordinates assigned)
C[n+]1c2c(c(NCCC[NH+](C)C)c3ccccc31)C(=O)c1ccccc1-2 (nonaromatic ring conformer: 109.09035975351921 kcal/mol)

>  <smiles>  (27) 
CN(C)CCCNc1c2c([n+](C)c3ccccc13)-c1ccccc1C2=O

>  <score_type>  (27) 
oracle

>  <origin>  (27) 
adg

>  <m_score__min__energy>  (27) 
-5.04

>  <m_primary>  (27) 
energy

$$$$
27:0
     RDKit          3D

 46 46  0  0  0  0  0  0  0  0999 V2000
   57.3820   29.8690   46.1240 N   0  0  0  0  0  0  0  0  0  0  0  0
   57.3640   28.8470   45.0770 C   0  0  0  0  0  0  0  0  0  0  0  0
   56.7950   29.3750   43.7460 C   0  0  0  0  0  0  0  0  0  0  0  0
   56.8820   30.9030   43.5970 C   0  0  0  0  0  0  0  0  0  0  0  0
   58.2480   31.3950   43.8370 N   0  0  0  0  0  0  0  0  0  0  0  0
   58.3660   32.8580   43.7000 C   0  0  0  0  0  0  0  0  0  0  0  0
   57.3430   33.6110   44.5750 C   0  0  0  0  0  0  0  0  0  0  0  0
   57.9940   34.2990   45.7870 C   0  0  0  0  0  0  0  0  0  0  0  0
   57.7400   33.5820   47.1220 C   0  0  0  0  0  0  0  0  0  0  0  0
   58.2080   32.1870   47.0550 N   0  0  0  0  0  0  0  0  0  0  0  0
   59.4980   31.9730   47.7410 C   0  0  2  0  0  0  0  0  0  0  0  0
   60.1490   33.3230   48.1200 C   0  0  0  0  0  0  0  0  0  0  0  0
   61.0730   33.8780   47.0220 C   0  0  0  0  0  0  0  0  0  0  0  0
   62.5270   33.3820   47.0880 C   0  0  0  0  0  0  0  0  0  0  0  0
   62.6540   32.0160   47.7620 C   0  0  0  0  0  0  0  0  0  0  0  0
   61.8190   31.0150   47.0980 N   0  0  0  0  0  0  0  0  0  0  0  0
   60.4080   31.1400   46.8570 C   0  0  0  0  0  0  0  0  0  0  0  0
   59.8950   30.4410   45.9390 O   0  0  0  0  0  0  0  0  0  0  0  0
   58.0810   29.6010   46.8530 H   0  0  0  0  0  0  0  0  0  0  0  0
   57.6740   30.7840   45.7110 H   0  0  0  0  0  0  0  0  0  0  0  0
   58.3933   28.4982   44.9069 H   0  0  0  0  0  0  0  0  0  0  0  0
   56.7112   28.0302   45.4187 H   0  0  0  0  0  0  0  0  0  0  0  0
   57.3573   28.9134   42.9209 H   0  0  0  0  0  0  0  0  0  0  0  0
   55.7272   29.1113   43.7268 H   0  0  0  0  0  0  0  0  0  0  0  0
   56.5772   31.1799   42.5770 H   0  0  0  0  0  0  0  0  0  0  0  0
   56.2162   31.3595   44.3442 H   0  0  0  0  0  0  0  0  0  0  0  0
   58.5500   31.1080   44.7980 H   0  0  0  0  0  0  0  0  0  0  0  0
   59.3798   33.1610   44.0005 H   0  0  0  0  0  0  0  0  0  0  0  0
   58.1653   33.1155   42.6496 H   0  0  0  0  0  0  0  0  0  0  0  0
   56.8484   34.3765   43.9590 H   0  0  0  0  0  0  0  0  0  0  0  0
   56.6242   32.8717   44.9580 H   0  0  0  0  0  0  0  0  0  0  0  0
   59.0802   34.3421   45.6184 H   0  0  0  0  0  0  0  0  0  0  0  0
   57.5389   35.2970   45.8695 H   0  0  0  0  0  0  0  0  0  0  0  0
   58.2803   34.1071   47.9235 H   0  0  0  0  0  0  0  0  0  0  0  0
   56.6595   33.5855   47.3280 H   0  0  0  0  0  0  0  0  0  0  0  0
   58.2860   31.8870   46.0530 H   0  0  0  0  0  0  0  0  0  0  0  0
   59.3260   31.4242   48.6787 H   0  0  0  0  0  0  0  0  0  0  0  0
   59.3506   34.0557   48.3088 H   0  0  0  0  0  0  0  0  0  0  0  0
   60.7684   33.1490   49.0122 H   0  0  0  0  0  0  0  0  0  0  0  0
   60.6568   33.5876   46.0461 H   0  0  0  0  0  0  0  0  0  0  0  0
   61.1113   34.9670   47.1722 H   0  0  0  0  0  0  0  0  0  0  0  0
   62.9201   33.3068   46.0634 H   0  0  0  0  0  0  0  0  0  0  0  0
   63.0975   34.1042   47.6905 H   0  0  0  0  0  0  0  0  0  0  0  0
   63.7043   31.6917   47.7192 H   0  0  0  0  0  0  0  0  0  0  0  0
   62.3179   32.1113   48.8050 H   0  0  0  0  0  0  0  0  0  0  0  0
   62.3080   30.1930   46.6750 H   0  0  0  0  0  0  0  0  0  0  0  0
  1  2  1  0
  2  3  1  0
  3  4  1  0
  4  5  1  0
  5  6  1  0
  6  7  1  0
  7  8  1  0
  8  9  1  0
  9 10  1  0
 10 11  1  0
 11 12  1  0
 12 13  1  0
 13 14  1  0
 14 15  1  0
 15 16  1  0
 16 17  1  0
 17 18  2  0
 17 11  1  0
  1 19  1  0
  1 20  1  0
  2 21  1  0
  2 22  1  0
  3 23  1  0
  3 24  1  0
  4 25  1  0
  4 26  1  0
  5 27  1  0
  6 28  1  0
  6 29  1  0
  7 30  1  0
  7 31  1  0
  8 32  1  0
  8 33  1  0
  9 34  1  0
  9 35  1  0
 10 36  1  0
 11 37  1  1
 12 38  1  0
 12 39  1  0
 13 40  1  0
 13 41  1  0
 14 42  1  0
 14 43  1  0
 15 44  1  0
 15 45  1  0
 16 46  1  0
M  END
>  <UniqueID>  (28) 
28

>  <SMILES>  (28) 
NCCCNCCCCN[C@@H]1CCCCNC1=O

>  <Energy>  (28) 
38.3638733742283

>  <Genealogy>  (28) 
NCCCNCCCCN[C@@H]1CCCCNC1=O (chirality)
NCCCNCCCCN[C@@H]1CCCCNC1=O (3D coordinates assigned)
NCCCNCCCCN[C@@H]1CCCCNC1=O (nonaromatic ring conformer: 38.3638733742283 kcal/mol)

>  <smiles>  (28) 
NCCCNCCCCNC1CCCCNC1=O

>  <score_type>  (28) 
oracle

>  <origin>  (28) 
adg

>  <m_score__min__energy>  (28) 
-3.1200000000000001

>  <m_primary>  (28) 
energy

$$$$
28:0
     RDKit          3D

 54 56  0  0  0  0  0  0  0  0999 V2000
   58.3950   31.9850   50.2590 C   0  0  0  0  0  0  0  0  0  0  0  0
   58.5190   30.4780   50.5090 C   0  0  0  0  0  0  0  0  0  0  0  0
   59.6850   29.8930   49.8190 N   0  0  0  0  0  0  0  0  0  0  0  0
   60.3260   28.8030   50.5880 C   0  0  0  0  0  0  0  0  0  0  0  0
   61.6430   29.2450   51.2490 C   0  0  0  0  0  0  0  0  0  0  0  0
   61.9860   30.5660   50.8720 O   0  0  0  0  0  0  0  0  0  0  0  0
   61.4860   31.4980   51.8090 C   0  0  0  0  0  0  0  0  0  0  0  0
   62.5920   32.4890   52.1800 C   0  0  0  0  0  0  0  0  0  0  0  0
   63.8460   32.1590   51.4870 N   0  0  0  0  0  0  0  0  0  0  0  0
   64.6250   33.3550   51.1220 C   0  0  0  0  0  0  0  0  0  0  0  0
   65.4580   33.0520   49.8770 C   0  0  0  0  0  0  0  0  0  0  0  0
   64.7520   32.1740   48.9990 O   0  0  0  0  0  0  0  0  0  0  0  0
   63.5800   32.4910   48.2940 C   0  0  0  0  0  0  0  0  0  0  0  0
   63.3980   33.7180   47.6330 C   0  0  0  0  0  0  0  0  0  0  0  0
   62.2080   33.9890   46.9510 C   0  0  0  0  0  0  0  0  0  0  0  0
   61.1650   33.0350   46.9100 C   0  0  0  0  0  0  0  0  0  0  0  0
   61.3600   31.8020   47.5810 C   0  0  0  0  0  0  0  0  0  0  0  0
   62.5550   31.5440   48.2600 C   0  0  0  0  0  0  0  0  0  0  0  0
   60.4150   30.8700   47.5780 O   0  0  0  0  0  0  0  0  0  0  0  0
   59.2470   31.0230   46.9700 C   0  0  0  0  0  0  0  0  0  0  0  0
   58.4090   30.0830   47.0220 O   0  0  0  0  0  0  0  0  0  0  0  0
   58.9530   32.2130   46.2790 C   0  0  0  0  0  0  0  0  0  0  0  0
   57.7140   32.3890   45.6320 C   0  0  0  0  0  0  0  0  0  0  0  0
   57.4380   33.5700   44.9450 C   0  0  0  0  0  0  0  0  0  0  0  0
   58.3900   34.5850   44.8930 C   0  0  0  0  0  0  0  0  0  0  0  0
   59.6240   34.4310   45.5300 C   0  0  0  0  0  0  0  0  0  0  0  0
   59.9290   33.2440   46.2390 C   0  0  0  0  0  0  0  0  0  0  0  0
   58.3515   32.5141   51.2224 H   0  0  0  0  0  0  0  0  0  0  0  0
   59.2674   32.3349   49.6876 H   0  0  0  0  0  0  0  0  0  0  0  0
   57.4772   32.1876   49.6876 H   0  0  0  0  0  0  0  0  0  0  0  0
   58.6240   30.3057   51.5903 H   0  0  0  0  0  0  0  0  0  0  0  0
   57.6141   29.9942   50.1127 H   0  0  0  0  0  0  0  0  0  0  0  0
   60.3770   30.6550   49.6250 H   0  0  0  0  0  0  0  0  0  0  0  0
   59.3870   29.5240   48.8850 H   0  0  0  0  0  0  0  0  0  0  0  0
   59.6316   28.4694   51.3732 H   0  0  0  0  0  0  0  0  0  0  0  0
   60.5609   27.9906   49.8846 H   0  0  0  0  0  0  0  0  0  0  0  0
   61.5281   29.2020   52.3421 H   0  0  0  0  0  0  0  0  0  0  0  0
   62.4442   28.5684   50.9168 H   0  0  0  0  0  0  0  0  0  0  0  0
   60.6380   32.0426   51.3683 H   0  0  0  0  0  0  0  0  0  0  0  0
   61.1502   30.9671   52.7120 H   0  0  0  0  0  0  0  0  0  0  0  0
   62.2779   33.5033   51.8928 H   0  0  0  0  0  0  0  0  0  0  0  0
   62.7647   32.4331   53.2649 H   0  0  0  0  0  0  0  0  0  0  0  0
   63.6030   31.6440   50.6080 H   0  0  0  0  0  0  0  0  0  0  0  0
   63.9404   34.1900   50.9122 H   0  0  0  0  0  0  0  0  0  0  0  0
   65.2903   33.6305   51.9536 H   0  0  0  0  0  0  0  0  0  0  0  0
   65.6746   33.9927   49.3496 H   0  0  0  0  0  0  0  0  0  0  0  0
   66.3939   32.5645   50.1875 H   0  0  0  0  0  0  0  0  0  0  0  0
   64.1989   34.4717   47.6525 H   0  0  0  0  0  0  0  0  0  0  0  0
   62.0816   34.9552   46.4406 H   0  0  0  0  0  0  0  0  0  0  0  0
   62.6892   30.5811   48.7746 H   0  0  0  0  0  0  0  0  0  0  0  0
   56.9596   31.5893   45.6692 H   0  0  0  0  0  0  0  0  0  0  0  0
   56.4676   33.7003   44.4436 H   0  0  0  0  0  0  0  0  0  0  0  0
   58.1691   35.5140   44.3469 H   0  0  0  0  0  0  0  0  0  0  0  0
   60.3667   35.2409   45.4801 H   0  0  0  0  0  0  0  0  0  0  0  0
  1  2  1  0
  2  3  1  0
  3  4  1  0
  4  5  1  0
  5  6  1  0
  6  7  1  0
  7  8  1  0
  8  9  1  0
  9 10  1  0
 10 11  1  0
 11 12  1  0
 12 13  1  0
 13 14  2  0
 14 15  1  0
 15 16  2  0
 16 17  1  0
 17 18  2  0
 17 19  1  0
 19 20  1  0
 20 21  2  0
 20 22  1  0
 22 23  2  0
 23 24  1  0
 24 25  2  0
 25 26  1  0
 26 27  2  0
 18 13  1  0
 27 22  1  0
 27 16  1  0
  1 28  1  0
  1 29  1  0
  1 30  1  0
  2 31  1  0
  2 32  1  0
  3 33  1  0
  3 34  1  0
  4 35  1  0
  4 36  1  0
  5 37  1  0
  5 38  1  0
  7 39  1  0
  7 40  1  0
  8 41  1  0
  8 42  1  0
  9 43  1  0
 10 44  1  0
 10 45  1  0
 11 46  1  0
 11 47  1  0
 14 48  1  0
 15 49  1  0
 18 50  1  0
 23 51  1  0
 24 52  1  0
 25 53  1  0
 26 54  1  0
M  CHG  1   3   1
M  END
>  <UniqueID>  (29) 
29

>  <SMILES>  (29) 
CC[NH2+]CCOCCNCCOc1ccc2c(c1)oc(=O)c1ccccc12

>  <Energy>  (29) 
66.76254404263639

>  <Genealogy>  (29) 
CC[NH2+]CCOCCNCCOc1ccc2c(c1)oc(=O)c1ccccc12 (protonated)
CC[NH2+]CCOCCNCCOc1ccc2c(c1)oc(=O)c1ccccc12 (3D coordinates assigned)
CC[NH2+]CCOCCNCCOc1ccc2c(c1)oc(=O)c1ccccc12 (optimized conformer: 66.76254404263639 kcal/mol)

>  <smiles>  (29) 
CCNCCOCCNCCOc1ccc2c(c1)oc(=O)c1ccccc12

>  <score_type>  (29) 
oracle

>  <origin>  (29) 
adg

>  <m_score__min__energy>  (29) 
-5.8499999999999996

>  <m_primary>  (29) 
energy

$$$$
