0:0
     RDKit          3D

 67 70  0  0  0  0  0  0  0  0999 V2000
   58.8860   34.6840   53.4860 C   0  0  0  0  0  0  0  0  0  0  0  0
   59.8770   33.5340   53.2730 C   0  0  0  0  0  0  0  0  0  0  0  0
   59.5810   32.7420   52.0670 N   0  0  0  0  0  0  0  0  0  0  0  0
   58.2380   32.1410   52.0830 C   0  0  0  0  0  0  0  0  0  0  0  0
   57.7250   31.9270   50.6550 C   0  0  0  0  0  0  0  0  0  0  0  0
   58.6800   32.4500   49.6800 N   0  0  0  0  0  0  0  0  0  0  0  0
   58.9750   31.7340   48.4680 C   0  0  0  0  0  0  0  0  0  0  0  0
   58.5520   32.2700   47.2400 C   0  0  0  0  0  0  0  0  0  0  0  0
   58.1380   33.6160   47.1390 C   0  0  0  0  0  0  0  0  0  0  0  0
   57.7770   34.1560   45.9060 C   0  0  0  0  0  0  0  0  0  0  0  0
   57.8290   33.3710   44.7610 C   0  0  0  0  0  0  0  0  0  0  0  0
   58.1990   32.0290   44.8460 C   0  0  0  0  0  0  0  0  0  0  0  0
   58.5220   31.4390   46.0940 C   0  0  0  0  0  0  0  0  0  0  0  0
   58.7790   30.0890   46.2190 N   0  0  0  0  0  0  0  0  0  0  0  0
   58.3760   29.1590   45.1390 C   0  0  0  0  0  0  0  0  0  0  0  0
   59.3880   29.6050   47.3630 C   0  0  0  0  0  0  0  0  0  0  0  0
   59.8610   28.2720   47.4330 C   0  0  0  0  0  0  0  0  0  0  0  0
   60.4130   27.7660   48.6000 C   0  0  0  0  0  0  0  0  0  0  0  0
   60.6270   28.5960   49.6890 C   0  0  0  0  0  0  0  0  0  0  0  0
   60.3220   29.9710   49.6250 C   0  0  0  0  0  0  0  0  0  0  0  0
   60.8010   30.8740   50.6630 N   0  0  0  0  0  0  0  0  0  0  0  0
   62.2330   30.7100   50.9930 C   0  0  0  0  0  0  0  0  0  0  0  0
   62.6990   31.6980   52.0830 C   0  0  0  0  0  0  0  0  0  0  0  0
   62.9970   33.1080   51.5500 C   0  0  0  0  0  0  0  0  0  0  0  0
   61.9670   33.5570   50.6080 N   0  0  0  0  0  0  0  0  0  0  0  0
   62.1210   33.5850   49.1760 C   0  0  0  0  0  0  0  0  0  0  0  0
   63.2620   33.0010   48.6000 C   0  0  0  0  0  0  0  0  0  0  0  0
   63.4470   33.0190   47.2140 C   0  0  0  0  0  0  0  0  0  0  0  0
   62.4970   33.6240   46.3880 C   0  0  0  0  0  0  0  0  0  0  0  0
   61.3610   34.2120   46.9470 C   0  0  0  0  0  0  0  0  0  0  0  0
   61.1710   34.1970   48.3320 C   0  0  0  0  0  0  0  0  0  0  0  0
   59.5620   30.4470   48.5020 C   0  0  0  0  0  0  0  0  0  0  0  0
   58.7430   34.8499   54.5640 H   0  0  0  0  0  0  0  0  0  0  0  0
   59.2823   35.6000   53.0234 H   0  0  0  0  0  0  0  0  0  0  0  0
   57.9216   34.4273   53.0234 H   0  0  0  0  0  0  0  0  0  0  0  0
   60.8888   33.9550   53.1775 H   0  0  0  0  0  0  0  0  0  0  0  0
   59.7952   32.8613   54.1395 H   0  0  0  0  0  0  0  0  0  0  0  0
   59.6700   33.3530   51.2220 H   0  0  0  0  0  0  0  0  0  0  0  0
   58.2822   31.1712   52.6002 H   0  0  0  0  0  0  0  0  0  0  0  0
   57.5515   32.8216   52.6078 H   0  0  0  0  0  0  0  0  0  0  0  0
   57.5828   30.8504   50.4798 H   0  0  0  0  0  0  0  0  0  0  0  0
   56.7708   32.4616   50.5378 H   0  0  0  0  0  0  0  0  0  0  0  0
   59.0650   33.4110   49.8160 H   0  0  0  0  0  0  0  0  0  0  0  0
   58.1001   34.2439   48.0414 H   0  0  0  0  0  0  0  0  0  0  0  0
   57.4507   35.2044   45.8394 H   0  0  0  0  0  0  0  0  0  0  0  0
   57.5775   33.8094   43.7840 H   0  0  0  0  0  0  0  0  0  0  0  0
   58.2408   31.4194   43.9313 H   0  0  0  0  0  0  0  0  0  0  0  0
   57.9756   28.2349   45.5813 H   0  0  0  0  0  0  0  0  0  0  0  0
   57.6025   29.6328   44.5168 H   0  0  0  0  0  0  0  0  0  0  0  0
   59.2507   28.9186   44.5168 H   0  0  0  0  0  0  0  0  0  0  0  0
   59.7892   27.6262   46.5454 H   0  0  0  0  0  0  0  0  0  0  0  0
   60.6822   26.7012   48.6617 H   0  0  0  0  0  0  0  0  0  0  0  0
   61.0411   28.1756   50.6173 H   0  0  0  0  0  0  0  0  0  0  0  0
   60.2270   30.7260   51.5250 H   0  0  0  0  0  0  0  0  0  0  0  0
   60.7010   31.8580   50.3250 H   0  0  0  0  0  0  0  0  0  0  0  0
   62.3981   29.6834   51.3520 H   0  0  0  0  0  0  0  0  0  0  0  0
   62.8142   30.9150   50.0819 H   0  0  0  0  0  0  0  0  0  0  0  0
   61.9085   31.7740   52.8441 H   0  0  0  0  0  0  0  0  0  0  0  0
   63.6399   31.3036   52.4942 H   0  0  0  0  0  0  0  0  0  0  0  0
   63.0364   33.8089   52.3968 H   0  0  0  0  0  0  0  0  0  0  0  0
   63.9601   33.0791   51.0192 H   0  0  0  0  0  0  0  0  0  0  0  0
   61.0640   33.8910   51.0170 H   0  0  0  0  0  0  0  0  0  0  0  0
   64.0159   32.5257   49.2447 H   0  0  0  0  0  0  0  0  0  0  0  0
   64.3423   32.5559   46.7735 H   0  0  0  0  0  0  0  0  0  0  0  0
   62.6438   33.6371   45.2979 H   0  0  0  0  0  0  0  0  0  0  0  0
   60.6133   34.6885   46.2959 H   0  0  0  0  0  0  0  0  0  0  0  0
   60.2753   34.6653   48.7661 H   0  0  0  0  0  0  0  0  0  0  0  0
  1  2  1  0
  2  3  1  0
  3  4  1  0
  4  5  1  0
  5  6  1  0
  6  7  1  0
  7  8  2  0
  8  9  1  0
  9 10  2  0
 10 11  1  0
 11 12  2  0
 12 13  1  0
 13 14  2  0
 14 15  1  0
 14 16  1  0
 16 17  2  0
 17 18  1  0
 18 19  2  0
 19 20  1  0
 20 21  1  0
 21 22  1  0
 22 23  1  0
 23 24  1  0
 24 25  1  0
 25 26  1  0
 26 27  2  0
 27 28  1  0
 28 29  2  0
 29 30  1  0
 30 31  2  0
 20 32  2  0
 32  7  1  0
 13  8  1  0
 32 16  1  0
 31 26  1  0
  1 33  1  0
  1 34  1  0
  1 35  1  0
  2 36  1  0
  2 37  1  0
  3 38  1  0
  4 39  1  0
  4 40  1  0
  5 41  1  0
  5 42  1  0
  6 43  1  0
  9 44  1  0
 10 45  1  0
 11 46  1  0
 12 47  1  0
 15 48  1  0
 15 49  1  0
 15 50  1  0
 17 51  1  0
 18 52  1  0
 19 53  1  0
 21 54  1  0
 21 55  1  0
 22 56  1  0
 22 57  1  0
 23 58  1  0
 23 59  1  0
 24 60  1  0
 24 61  1  0
 25 62  1  0
 27 63  1  0
 28 64  1  0
 29 65  1  0
 30 66  1  0
 31 67  1  0
M  CHG  2  14   1  21   1
M  END
>  <UniqueID>  (1) 
1

>  <SMILES>  (1) 
CCNCCNc1c2ccccc2[n+](C)c2cccc([NH2+]CCCNc3ccccc3)c12

>  <Energy>  (1) 
104.37194631933968

>  <Genealogy>  (1) 
CCNCCNc1c2ccccc2[n+](C)c2cccc([NH2+]CCCNc3ccccc3)c12 (protonated)
CCNCCNc1c2ccccc2[n+](C)c2cccc([NH2+]CCCNc3ccccc3)c12 (3D coordinates assigned)
CCNCCNc1c2ccccc2[n+](C)c2cccc([NH2+]CCCNc3ccccc3)c12 (optimized conformer: 104.37194631933968 kcal/mol)

>  <smiles>  (1) 
CCNCCNc1c2ccccc2[n+](C)c2cccc(NCCCNc3ccccc3)c12

>  <score_type>  (1) 
oracle

>  <origin>  (1) 
adg

>  <m_score__min__energy>  (1) 
-3.6400000000000001

>  <m_primary>  (1) 
energy

$$$$
1:0
     RDKit          3D

 69 72  0  0  0  0  0  0  0  0999 V2000
   65.0130   33.0540   49.7930 C   0  0  0  0  0  0  0  0  0  0  0  0
   63.9610   32.2140   49.0640 C   0  0  0  0  0  0  0  0  0  0  0  0
   63.7480   32.6670   47.6780 N   0  0  0  0  0  0  0  0  0  0  0  0
   62.4510   32.2390   47.1300 C   0  0  0  0  0  0  0  0  0  0  0  0
   61.8960   31.0450   47.9170 C   0  0  0  0  0  0  0  0  0  0  0  0
   60.4450   31.1420   48.0790 N   0  0  0  0  0  0  0  0  0  0  0  0
   59.5880   31.0770   46.9290 C   0  0  0  0  0  0  0  0  0  0  0  0
   59.4030   29.8340   46.2940 C   0  0  0  0  0  0  0  0  0  0  0  0
   59.9350   28.6520   46.8530 C   0  0  0  0  0  0  0  0  0  0  0  0
   59.7980   27.4290   46.2010 C   0  0  0  0  0  0  0  0  0  0  0  0
   59.1430   27.3630   44.9790 C   0  0  0  0  0  0  0  0  0  0  0  0
   58.6040   28.5150   44.4100 C   0  0  0  0  0  0  0  0  0  0  0  0
   58.6940   29.7710   45.0660 C   0  0  0  0  0  0  0  0  0  0  0  0
   58.1500   30.9160   44.5210 N   0  0  0  0  0  0  0  0  0  0  0  0
   57.2040   30.8150   43.3860 C   0  0  0  0  0  0  0  0  0  0  0  0
   58.4590   32.1530   45.0530 C   0  0  0  0  0  0  0  0  0  0  0  0
   58.1900   33.3440   44.3360 C   0  0  0  0  0  0  0  0  0  0  0  0
   58.4220   34.5900   44.9000 C   0  0  0  0  0  0  0  0  0  0  0  0
   58.8910   34.6910   46.2020 C   0  0  0  0  0  0  0  0  0  0  0  0
   59.2030   33.5420   46.9450 C   0  0  0  0  0  0  0  0  0  0  0  0
   59.5110   33.6830   48.3460 N   0  0  0  0  0  0  0  0  0  0  0  0
   60.6860   34.4120   48.8290 C   0  0  0  0  0  0  0  0  0  0  0  0
   61.1690   33.8310   50.1620 C   0  0  0  0  0  0  0  0  0  0  0  0
   60.0160   33.4660   51.1070 C   0  0  0  0  0  0  0  0  0  0  0  0
   59.3720   32.2000   50.6810 N   0  0  0  0  0  0  0  0  0  0  0  0
   57.8920   32.2150   50.8480 C   0  0  0  0  0  0  0  0  0  0  0  0
   57.4180   31.3820   52.0480 C   0  0  0  0  0  0  0  0  0  0  0  0
   57.8550   29.9140   51.9100 C   0  0  0  0  0  0  0  0  0  0  0  0
   59.1830   29.7580   51.1500 C   0  0  0  0  0  0  0  0  0  0  0  0
   60.0420   31.0210   51.2810 C   0  0  0  0  0  0  0  0  0  0  0  0
   59.0830   32.2570   46.3310 C   0  0  0  0  0  0  0  0  0  0  0  0
   64.8790   32.9470   50.8796 H   0  0  0  0  0  0  0  0  0  0  0  0
   66.0183   32.7074   49.5116 H   0  0  0  0  0  0  0  0  0  0  0  0
   64.8975   34.1111   49.5116 H   0  0  0  0  0  0  0  0  0  0  0  0
   64.2947   31.1660   49.0466 H   0  0  0  0  0  0  0  0  0  0  0  0
   63.0090   32.3228   49.6043 H   0  0  0  0  0  0  0  0  0  0  0  0
   64.5170   32.3050   47.0670 H   0  0  0  0  0  0  0  0  0  0  0  0
   61.7390   33.0751   47.1930 H   0  0  0  0  0  0  0  0  0  0  0  0
   62.5930   31.9360   46.0821 H   0  0  0  0  0  0  0  0  0  0  0  0
   62.1348   30.1174   47.3761 H   0  0  0  0  0  0  0  0  0  0  0  0
   62.3571   31.0434   48.9157 H   0  0  0  0  0  0  0  0  0  0  0  0
   60.0120   31.0130   49.0210 H   0  0  0  0  0  0  0  0  0  0  0  0
   60.4646   28.6975   47.8160 H   0  0  0  0  0  0  0  0  0  0  0  0
   60.2090   26.5150   46.6546 H   0  0  0  0  0  0  0  0  0  0  0  0
   59.0492   26.3986   44.4584 H   0  0  0  0  0  0  0  0  0  0  0  0
   58.0995   28.4502   43.4347 H   0  0  0  0  0  0  0  0  0  0  0  0
   56.1795   30.7056   43.7712 H   0  0  0  0  0  0  0  0  0  0  0  0
   57.2696   31.7253   42.7719 H   0  0  0  0  0  0  0  0  0  0  0  0
   57.4603   29.9391   42.7719 H   0  0  0  0  0  0  0  0  0  0  0  0
   57.7899   33.2801   43.3134 H   0  0  0  0  0  0  0  0  0  0  0  0
   58.2335   35.5010   44.3131 H   0  0  0  0  0  0  0  0  0  0  0  0
   59.0198   35.6840   46.6574 H   0  0  0  0  0  0  0  0  0  0  0  0
   58.7560   33.4690   49.0350 H   0  0  0  0  0  0  0  0  0  0  0  0
   61.4927   34.3311   48.0856 H   0  0  0  0  0  0  0  0  0  0  0  0
   60.4125   35.4668   48.9795 H   0  0  0  0  0  0  0  0  0  0  0  0
   61.7558   32.9234   49.9573 H   0  0  0  0  0  0  0  0  0  0  0  0
   61.7720   34.6045   50.6602 H   0  0  0  0  0  0  0  0  0  0  0  0
   60.4092   33.3460   52.1273 H   0  0  0  0  0  0  0  0  0  0  0  0
   59.2671   34.2712   51.0797 H   0  0  0  0  0  0  0  0  0  0  0  0
   57.5655   33.2555   50.9920 H   0  0  0  0  0  0  0  0  0  0  0  0
   57.4529   31.7700   49.9429 H   0  0  0  0  0  0  0  0  0  0  0  0
   57.8501   31.8004   52.9690 H   0  0  0  0  0  0  0  0  0  0  0  0
   56.3192   31.4174   52.0858 H   0  0  0  0  0  0  0  0  0  0  0  0
   57.9734   29.4861   52.9164 H   0  0  0  0  0  0  0  0  0  0  0  0
   57.0790   29.3896   51.3332 H   0  0  0  0  0  0  0  0  0  0  0  0
   59.7361   28.9021   51.5641 H   0  0  0  0  0  0  0  0  0  0  0  0
   58.9605   29.5941   50.0853 H   0  0  0  0  0  0  0  0  0  0  0  0
   60.2259   31.2189   52.3473 H   0  0  0  0  0  0  0  0  0  0  0  0
   60.9874   30.8519   50.7447 H   0  0  0  0  0  0  0  0  0  0  0  0
  1  2  1  0
  2  3  1  0
  3  4  1  0
  4  5  1  0
  5  6  1  0
  6  7  1  0
  7  8  2  0
  8  9  1  0
  9 10  2  0
 10 11  1  0
 11 12  2  0
 12 13  1  0
 13 14  2  0
 14 15  1  0
 14 16  1  0
 16 17  2  0
 17 18  1  0
 18 19  2  0
 19 20  1  0
 20 21  1  0
 21 22  1  0
 22 23  1  0
 23 24  1  0
 24 25  1  0
 25 26  1  0
 26 27  1  0
 27 28  1  0
 28 29  1  0
 29 30  1  0
 20 31  2  0
 31  7  1  0
 13  8  1  0
 31 16  1  0
 30 25  1  0
  1 32  1  0
  1 33  1  0
  1 34  1  0
  2 35  1  0
  2 36  1  0
  3 37  1  0
  4 38  1  0
  4 39  1  0
  5 40  1  0
  5 41  1  0
  6 42  1  0
  9 43  1  0
 10 44  1  0
 11 45  1  0
 12 46  1  0
 15 47  1  0
 15 48  1  0
 15 49  1  0
 17 50  1  0
 18 51  1  0
 19 52  1  0
 21 53  1  0
 22 54  1  0
 22 55  1  0
 23 56  1  0
 23 57  1  0
 24 58  1  0
 24 59  1  0
 26 60  1  0
 26 61  1  0
 27 62  1  0
 27 63  1  0
 28 64  1  0
 28 65  1  0
 29 66  1  0
 29 67  1  0
 30 68  1  0
 30 69  1  0
M  CHG  1  14   1
M  END
>  <UniqueID>  (2) 
2

>  <SMILES>  (2) 
CCNCCNc1c2ccccc2[n+](C)c2cccc(NCCCN3CCCCC3)c12

>  <Energy>  (2) 
106.80545490379716

>  <Genealogy>  (2) 
CCNCCNc1c2ccccc2[n+](C)c2cccc(NCCCN3CCCCC3)c12 (3D coordinates assigned)
CCNCCNc1c2ccccc2[n+](C)c2cccc(NCCCN3CCCCC3)c12 (nonaromatic ring conformer: 106.80545490379716 kcal/mol)

>  <smiles>  (2) 
CCNCCNc1c2ccccc2[n+](C)c2cccc(NCCCN3CCCCC3)c12

>  <score_type>  (2) 
oracle

>  <origin>  (2) 
adg

>  <m_score__min__energy>  (2) 
-6.0300000000000002

>  <m_primary>  (2) 
energy

$$$$
2:0
     RDKit          3D

 41 42  0  0  0  0  0  0  0  0999 V2000
   55.4990   29.7230   43.7500 C   0  0  0  0  0  0  0  0  0  0  0  0
   57.0120   29.7010   43.5400 C   0  0  0  0  0  0  0  0  0  0  0  0
   57.4750   28.3460   43.1980 N   0  0  0  0  0  0  0  0  0  0  0  0
   58.3960   27.7990   44.2110 C   0  0  0  0  0  0  0  0  0  0  0  0
   59.4570   28.8210   44.6510 C   0  0  0  0  0  0  0  0  0  0  0  0
   58.9790   29.5700   45.8120 N   0  0  0  0  0  0  0  0  0  0  0  0
   59.7700   30.6230   46.3810 C   0  0  0  0  0  0  0  0  0  0  0  0
   60.8450   30.2860   47.1980 C   0  0  0  0  0  0  0  0  0  0  0  0
   61.6620   31.2810   47.7200 C   0  0  0  0  0  0  0  0  0  0  0  0
   61.4360   32.6040   47.4510 N   0  0  0  0  0  0  0  0  0  0  0  0
   62.3760   33.5790   48.0390 C   0  0  0  0  0  0  0  0  0  0  0  0
   63.7680   33.4230   47.4320 C   0  0  0  0  0  0  0  0  0  0  0  0
   60.3400   32.9810   46.6920 C   0  0  0  0  0  0  0  0  0  0  0  0
   60.0260   34.3400   46.4490 C   0  0  0  0  0  0  0  0  0  0  0  0
   58.9060   34.6930   45.6960 C   0  0  0  0  0  0  0  0  0  0  0  0
   58.0690   33.7110   45.1780 C   0  0  0  0  0  0  0  0  0  0  0  0
   58.3470   32.3660   45.4030 C   0  0  0  0  0  0  0  0  0  0  0  0
   59.4840   31.9820   46.1430 C   0  0  0  0  0  0  0  0  0  0  0  0
   55.2784   29.7262   44.8276 H   0  0  0  0  0  0  0  0  0  0  0  0
   55.0776   30.6274   43.2868 H   0  0  0  0  0  0  0  0  0  0  0  0
   55.0515   28.8313   43.2868 H   0  0  0  0  0  0  0  0  0  0  0  0
   57.2720   30.3879   42.7211 H   0  0  0  0  0  0  0  0  0  0  0  0
   57.5012   30.0144   44.4741 H   0  0  0  0  0  0  0  0  0  0  0  0
   57.9910   28.3900   42.2870 H   0  0  0  0  0  0  0  0  0  0  0  0
   56.6540   27.7070   43.0760 H   0  0  0  0  0  0  0  0  0  0  0  0
   57.8118   27.4947   45.0920 H   0  0  0  0  0  0  0  0  0  0  0  0
   58.9207   26.9437   43.7603 H   0  0  0  0  0  0  0  0  0  0  0  0
   60.3846   28.2921   44.9154 H   0  0  0  0  0  0  0  0  0  0  0  0
   59.6490   29.5206   43.8242 H   0  0  0  0  0  0  0  0  0  0  0  0
   58.2980   29.0850   46.4390 H   0  0  0  0  0  0  0  0  0  0  0  0
   61.0481   29.2303   47.4308 H   0  0  0  0  0  0  0  0  0  0  0  0
   62.5087   30.9996   48.3633 H   0  0  0  0  0  0  0  0  0  0  0  0
   62.0090   34.5973   47.8430 H   0  0  0  0  0  0  0  0  0  0  0  0
   62.4410   33.3976   49.1220 H   0  0  0  0  0  0  0  0  0  0  0  0
   64.5121   33.3396   48.2378 H   0  0  0  0  0  0  0  0  0  0  0  0
   63.7974   32.5159   46.8104 H   0  0  0  0  0  0  0  0  0  0  0  0
   63.9975   34.3011   46.8104 H   0  0  0  0  0  0  0  0  0  0  0  0
   60.6741   35.1283   46.8596 H   0  0  0  0  0  0  0  0  0  0  0  0
   58.6838   35.7543   45.5110 H   0  0  0  0  0  0  0  0  0  0  0  0
   57.1853   33.9978   44.5891 H   0  0  0  0  0  0  0  0  0  0  0  0
   57.6735   31.5955   44.9998 H   0  0  0  0  0  0  0  0  0  0  0  0
  1  2  1  0
  2  3  1  0
  3  4  1  0
  4  5  1  0
  5  6  1  0
  6  7  1  0
  7  8  2  0
  8  9  1  0
  9 10  2  0
 10 11  1  0
 11 12  1  0
 10 13  1  0
 13 14  2  0
 14 15  1  0
 15 16  2  0
 16 17  1  0
 17 18  2  0
 18  7  1  0
 18 13  1  0
  1 19  1  0
  1 20  1  0
  1 21  1  0
  2 22  1  0
  2 23  1  0
  3 24  1  0
  3 25  1  0
  4 26  1  0
  4 27  1  0
  5 28  1  0
  5 29  1  0
  6 30  1  0
  8 31  1  0
  9 32  1  0
 11 33  1  0
 11 34  1  0
 12 35  1  0
 12 36  1  0
 12 37  1  0
 14 38  1  0
 15 39  1  0
 16 40  1  0
 17 41  1  0
M  CHG  2   3   1  10   1
M  END
>  <UniqueID>  (3) 
3

>  <SMILES>  (3) 
CC[NH2+]CCNc1cc[n+](CC)c2ccccc12

>  <Energy>  (3) 
47.27019147151417

>  <Genealogy>  (3) 
CC[NH2+]CCNc1cc[n+](CC)c2ccccc12 (protonated)
CC[NH2+]CCNc1cc[n+](CC)c2ccccc12 (3D coordinates assigned)
CC[NH2+]CCNc1cc[n+](CC)c2ccccc12 (optimized conformer: 47.27019147151417 kcal/mol)

>  <smiles>  (3) 
CCNCCNc1cc[n+](CC)c2ccccc12

>  <score_type>  (3) 
oracle

>  <origin>  (3) 
adg

>  <m_score__min__energy>  (3) 
-3.52

>  <m_primary>  (3) 
energy

$$$$
3:0
     RDKit          3D

 66 67  0  0  0  0  0  0  0  0999 V2000
   60.5770   27.8160   45.5240 C   0  0  0  0  0  0  0  0  0  0  0  0
   60.5590   26.5450   46.3690 C   0  0  0  0  0  0  0  0  0  0  0  0
   59.6860   26.7230   47.5490 N   0  0  0  0  0  0  0  0  0  0  0  0
   60.3440   27.4070   48.6860 C   0  0  0  0  0  0  0  0  0  0  0  0
   59.7870   28.8180   48.8270 C   0  0  0  0  0  0  0  0  0  0  0  0
   58.3360   27.2490   47.2350 C   0  0  0  0  0  0  0  0  0  0  0  0
   57.3220   26.2050   46.7220 C   0  0  0  0  0  0  0  0  0  0  0  0
   56.5620   26.7360   45.6570 O   0  0  0  0  0  0  0  0  0  0  0  0
   57.3380   27.5950   44.8400 C   0  0  0  0  0  0  0  0  0  0  0  0
   56.8280   29.0460   44.8590 C   0  0  1  0  0  0  0  0  0  0  0  0
   55.4230   29.0420   44.8430 O   0  0  0  0  0  0  0  0  0  0  0  0
   57.3990   29.9840   45.9770 C   0  0  0  0  0  0  0  0  0  0  0  0
   58.2570   31.1680   45.6000 N   0  0  0  0  0  0  0  0  0  0  0  0
   58.1140   31.3410   44.1280 C   0  0  0  0  0  0  0  0  0  0  0  0
   57.7760   32.4100   46.2590 C   0  0  0  0  0  0  0  0  0  0  0  0
   59.6950   30.8980   45.9390 C   0  0  0  0  0  0  0  0  0  0  0  0
   60.3470   31.8380   46.9950 C   0  0  0  0  0  0  0  0  0  0  0  0
   60.7830   33.1960   46.3860 C   0  0  0  0  0  0  0  0  0  0  0  0
   61.5950   34.0380   47.2930 N   0  0  0  0  0  0  0  0  0  0  0  0
   61.1920   33.9140   48.6720 C   0  0  0  0  0  0  0  0  0  0  0  0
   60.0460   34.2330   49.0910 O   0  0  0  0  0  0  0  0  0  0  0  0
   62.2670   33.4220   49.5170 C   0  0  0  0  0  0  0  0  0  0  0  0
   62.3140   33.1770   50.8890 C   0  0  0  0  0  0  0  0  0  0  0  0
   63.5320   32.7410   51.4380 C   0  0  0  0  0  0  0  0  0  0  0  0
   64.6640   32.5610   50.6120 C   0  0  0  0  0  0  0  0  0  0  0  0
   64.5830   32.8130   49.2310 C   0  0  0  0  0  0  0  0  0  0  0  0
   63.3620   33.2440   48.7170 C   0  0  0  0  0  0  0  0  0  0  0  0
   62.9730   33.6170   47.3650 C   0  0  0  0  0  0  0  0  0  0  0  0
   63.7500   33.6130   46.3730 O   0  0  0  0  0  0  0  0  0  0  0  0
   60.5895   28.6954   46.1847 H   0  0  0  0  0  0  0  0  0  0  0  0
   61.4753   27.8216   44.8892 H   0  0  0  0  0  0  0  0  0  0  0  0
   59.6792   27.8470   44.8892 H   0  0  0  0  0  0  0  0  0  0  0  0
   60.1803   25.7105   45.7605 H   0  0  0  0  0  0  0  0  0  0  0  0
   61.5820   26.3294   46.7112 H   0  0  0  0  0  0  0  0  0  0  0  0
   60.1531   26.8441   49.6116 H   0  0  0  0  0  0  0  0  0  0  0  0
   61.4274   27.4592   48.5028 H   0  0  0  0  0  0  0  0  0  0  0  0
   59.6882   29.0683   49.8936 H   0  0  0  0  0  0  0  0  0  0  0  0
   60.4707   29.5320   48.3446 H   0  0  0  0  0  0  0  0  0  0  0  0
   58.7999   28.8724   48.3446 H   0  0  0  0  0  0  0  0  0  0  0  0
   57.9256   27.6992   48.1509 H   0  0  0  0  0  0  0  0  0  0  0  0
   58.4740   27.9670   46.4132 H   0  0  0  0  0  0  0  0  0  0  0  0
   57.8649   25.3151   46.3709 H   0  0  0  0  0  0  0  0  0  0  0  0
   56.6427   25.9348   47.5439 H   0  0  0  0  0  0  0  0  0  0  0  0
   58.3770   27.5816   45.2011 H   0  0  0  0  0  0  0  0  0  0  0  0
   57.2644   27.2285   43.8054 H   0  0  0  0  0  0  0  0  0  0  0  0
   57.2309   29.5067   43.9450 H   0  0  0  0  0  0  0  0  0  0  0  0
   55.1340   28.0930   44.8930 H   0  0  0  0  0  0  0  0  0  0  0  0
   56.5355   30.3805   46.5312 H   0  0  0  0  0  0  0  0  0  0  0  0
   58.0937   29.3313   46.5260 H   0  0  0  0  0  0  0  0  0  0  0  0
   57.4256   32.1738   43.9219 H   0  0  0  0  0  0  0  0  0  0  0  0
   59.0976   31.5607   43.6874 H   0  0  0  0  0  0  0  0  0  0  0  0
   57.7131   30.4163   43.6874 H   0  0  0  0  0  0  0  0  0  0  0  0
   57.8234   32.2876   47.3511 H   0  0  0  0  0  0  0  0  0  0  0  0
   58.4118   33.2553   45.9568 H   0  0  0  0  0  0  0  0  0  0  0  0
   56.7367   32.6065   45.9568 H   0  0  0  0  0  0  0  0  0  0  0  0
   59.7608   29.8688   46.3215 H   0  0  0  0  0  0  0  0  0  0  0  0
   60.2524   31.0751   45.0074 H   0  0  0  0  0  0  0  0  0  0  0  0
   59.6186   32.0278   47.7971 H   0  0  0  0  0  0  0  0  0  0  0  0
   61.2478   31.3375   47.3799 H   0  0  0  0  0  0  0  0  0  0  0  0
   61.3754   32.9935   45.4815 H   0  0  0  0  0  0  0  0  0  0  0  0
   59.8607   33.7577   46.1764 H   0  0  0  0  0  0  0  0  0  0  0  0
   61.5490   35.0430   47.0060 H   0  0  0  0  0  0  0  0  0  0  0  0
   61.4257   33.3205   51.5217 H   0  0  0  0  0  0  0  0  0  0  0  0
   63.6044   32.5388   52.5168 H   0  0  0  0  0  0  0  0  0  0  0  0
   65.6137   32.2220   51.0515 H   0  0  0  0  0  0  0  0  0  0  0  0
   65.4565   32.6742   48.5769 H   0  0  0  0  0  0  0  0  0  0  0  0
  1  2  1  0
  2  3  1  0
  3  4  1  0
  4  5  1  0
  3  6  1  0
  6  7  1  0
  7  8  1  0
  8  9  1  0
  9 10  1  0
 10 11  1  0
 10 12  1  0
 12 13  1  0
 13 14  1  0
 13 15  1  0
 13 16  1  0
 16 17  1  0
 17 18  1  0
 18 19  1  0
 19 20  1  0
 20 21  2  0
 20 22  1  0
 22 23  2  0
 23 24  1  0
 24 25  2  0
 25 26  1  0
 26 27  2  0
 27 28  1  0
 28 29  2  0
 28 19  1  0
 27 22  1  0
  1 30  1  0
  1 31  1  0
  1 32  1  0
  2 33  1  0
  2 34  1  0
  4 35  1  0
  4 36  1  0
  5 37  1  0
  5 38  1  0
  5 39  1  0
  6 40  1  0
  6 41  1  0
  7 42  1  0
  7 43  1  0
  9 44  1  0
  9 45  1  0
 10 46  1  6
 11 47  1  0
 12 48  1  0
 12 49  1  0
 14 50  1  0
 14 51  1  0
 14 52  1  0
 15 53  1  0
 15 54  1  0
 15 55  1  0
 16 56  1  0
 16 57  1  0
 17 58  1  0
 17 59  1  0
 18 60  1  0
 18 61  1  0
 19 62  1  0
 23 63  1  0
 24 64  1  0
 25 65  1  0
 26 66  1  0
M  CHG  2  13   1  19   1
M  END
>  <UniqueID>  (4) 
4

>  <SMILES>  (4) 
CCN(CC)CCOC[C@@H](O)C[N+](C)(C)CCC[NH+]1C(=O)c2ccccc2C1=O

>  <Energy>  (4) 
112.454594699921

>  <Genealogy>  (4) 
CCN(CC)CCOCC(O)C[N+](C)(C)CCC[NH+]1C(=O)c2ccccc2C1=O (protonated)
CCN(CC)CCOC[C@@H](O)C[N+](C)(C)CCC[NH+]1C(=O)c2ccccc2C1=O (chirality)
CCN(CC)CCOC[C@@H](O)C[N+](C)(C)CCC[NH+]1C(=O)c2ccccc2C1=O (3D coordinates assigned)
CCN(CC)CCOC[C@@H](O)C[N+](C)(C)CCC[NH+]1C(=O)c2ccccc2C1=O (nonaromatic ring conformer: 112.454594699921 kcal/mol)

>  <smiles>  (4) 
CCN(CC)CCOCC(O)C[N+](C)(C)CCCN1C(=O)c2ccccc2C1=O

>  <score_type>  (4) 
oracle

>  <origin>  (4) 
adg

>  <m_score__min__energy>  (4) 
-4.79

>  <m_primary>  (4) 
energy

$$$$
4:0
     RDKit          3D

 40 42  0  0  0  0  0  0  0  0999 V2000
   63.7040   32.7170   50.6480 C   0  0  0  0  0  0  0  0  0  0  0  0
   63.3400   32.9290   49.2520 N   0  0  0  0  0  0  0  0  0  0  0  0
   64.1440   32.6770   48.2250 N   0  0  0  0  0  0  0  0  0  0  0  0
   63.4860   32.9940   47.0830 C   0  0  0  0  0  0  0  0  0  0  0  0
   62.2320   33.4570   47.4210 C   0  0  0  0  0  0  0  0  0  0  0  0
   61.1690   33.9180   46.6500 C   0  0  0  0  0  0  0  0  0  0  0  0
   59.9990   34.3380   47.3220 C   0  0  0  0  0  0  0  0  0  0  0  0
   58.8410   34.8880   46.5350 C   0  0  0  0  0  0  0  0  0  0  0  0
   57.7370   33.9180   46.5340 N   0  0  0  0  0  0  0  0  0  0  0  0
   57.0080   33.9300   45.2570 C   0  0  0  0  0  0  0  0  0  0  0  0
   57.4420   32.7610   44.3660 C   0  0  0  0  0  0  0  0  0  0  0  0
   57.0220   31.5130   44.9230 O   0  0  0  0  0  0  0  0  0  0  0  0
   57.5910   30.2580   44.6540 C   0  0  0  0  0  0  0  0  0  0  0  0
   58.8420   29.8580   45.1560 C   0  0  0  0  0  0  0  0  0  0  0  0
   59.3390   28.5880   44.8620 C   0  0  0  0  0  0  0  0  0  0  0  0
   58.5910   27.7290   44.0570 C   0  0  0  0  0  0  0  0  0  0  0  0
   57.3900   28.1330   43.5610 N   0  0  0  0  0  0  0  0  0  0  0  0
   56.8840   29.3660   43.8380 C   0  0  0  0  0  0  0  0  0  0  0  0
   59.9420   34.2770   48.7410 C   0  0  0  0  0  0  0  0  0  0  0  0
   61.0390   33.8070   49.4870 C   0  0  0  0  0  0  0  0  0  0  0  0
   62.1730   33.4040   48.7830 C   0  0  0  0  0  0  0  0  0  0  0  0
   62.9376   33.1634   51.2986 H   0  0  0  0  0  0  0  0  0  0  0  0
   63.7725   31.6377   50.8492 H   0  0  0  0  0  0  0  0  0  0  0  0
   64.6765   33.1899   50.8492 H   0  0  0  0  0  0  0  0  0  0  0  0
   63.8841   32.8983   46.0620 H   0  0  0  0  0  0  0  0  0  0  0  0
   61.2374   33.9543   45.5527 H   0  0  0  0  0  0  0  0  0  0  0  0
   58.5011   35.8283   46.9936 H   0  0  0  0  0  0  0  0  0  0  0  0
   59.1611   35.0763   45.4996 H   0  0  0  0  0  0  0  0  0  0  0  0
   57.0660   34.1960   47.2880 H   0  0  0  0  0  0  0  0  0  0  0  0
   55.9295   33.8483   45.4576 H   0  0  0  0  0  0  0  0  0  0  0  0
   57.2324   34.8714   44.7341 H   0  0  0  0  0  0  0  0  0  0  0  0
   56.9915   32.8807   43.3696 H   0  0  0  0  0  0  0  0  0  0  0  0
   58.5396   32.7624   44.2935 H   0  0  0  0  0  0  0  0  0  0  0  0
   59.4292   30.5469   45.7810 H   0  0  0  0  0  0  0  0  0  0  0  0
   60.3123   28.2669   45.2616 H   0  0  0  0  0  0  0  0  0  0  0  0
   58.9723   26.7241   43.8229 H   0  0  0  0  0  0  0  0  0  0  0  0
   56.8420   27.4810   42.9560 H   0  0  0  0  0  0  0  0  0  0  0  0
   55.9122   29.6641   43.4176 H   0  0  0  0  0  0  0  0  0  0  0  0
   59.0293   34.6011   49.2625 H   0  0  0  0  0  0  0  0  0  0  0  0
   61.0030   33.7593   50.5854 H   0  0  0  0  0  0  0  0  0  0  0  0
  1  2  1  0
  2  3  1  0
  3  4  2  0
  4  5  1  0
  5  6  2  0
  6  7  1  0
  7  8  1  0
  8  9  1  0
  9 10  1  0
 10 11  1  0
 11 12  1  0
 12 13  1  0
 13 14  2  0
 14 15  1  0
 15 16  2  0
 16 17  1  0
 17 18  2  0
  7 19  2  0
 19 20  1  0
 20 21  2  0
 21  2  1  0
 21  5  1  0
 18 13  1  0
  1 22  1  0
  1 23  1  0
  1 24  1  0
  4 25  1  0
  6 26  1  0
  8 27  1  0
  8 28  1  0
  9 29  1  0
 10 30  1  0
 10 31  1  0
 11 32  1  0
 11 33  1  0
 14 34  1  0
 15 35  1  0
 16 36  1  0
 17 37  1  0
 18 38  1  0
 19 39  1  0
 20 40  1  0
M  CHG  1  17   1
M  END
>  <UniqueID>  (5) 
5

>  <SMILES>  (5) 
Cn1ncc2cc(CNCCOc3ccc[nH+]c3)ccc21

>  <Energy>  (5) 
77.26170243286904

>  <Genealogy>  (5) 
Cn1ncc2cc(CNCCOc3ccc[nH+]c3)ccc21 (protonated)
Cn1ncc2cc(CNCCOc3ccc[nH+]c3)ccc21 (3D coordinates assigned)
Cn1ncc2cc(CNCCOc3ccc[nH+]c3)ccc21 (optimized conformer: 77.26170243286904 kcal/mol)

>  <smiles>  (5) 
Cn1ncc2cc(CNCCOc3cccnc3)ccc21

>  <score_type>  (5) 
oracle

>  <origin>  (5) 
adg

>  <m_score__min__energy>  (5) 
-5.9100000000000001

>  <m_primary>  (5) 
energy

$$$$
5:0
     RDKit          3D

 39 39  0  0  0  0  0  0  0  0999 V2000
   60.3880   28.2640   49.3380 C   0  0  0  0  0  0  0  0  0  0  0  0
   60.7370   28.6570   47.8960 C   0  0  0  0  0  0  0  0  0  0  0  0
   61.1320   30.0860   47.7740 N   0  0  0  0  0  0  0  0  0  0  0  0
   60.3280   30.7750   46.7270 C   0  0  0  0  0  0  0  0  0  0  0  0
   59.0770   30.0050   46.2770 C   0  0  0  0  0  0  0  0  0  0  0  0
   61.0860   30.7640   49.1000 C   0  0  0  0  0  0  0  0  0  0  0  0
   62.4680   31.1010   49.6920 C   0  0  0  0  0  0  0  0  0  0  0  0
   63.3680   32.2910   48.7060 S   0  0  0  0  0  0  0  0  0  0  0  0
   63.4920   31.7530   47.1180 O   0  0  0  0  0  0  0  0  0  0  0  0
   62.6350   33.9160   48.7640 C   0  0  0  0  0  0  0  0  0  0  0  0
   61.3620   33.9300   47.9600 C   0  0  0  0  0  0  0  0  0  0  0  0
   61.4510   33.9820   46.5570 C   0  0  0  0  0  0  0  0  0  0  0  0
   60.2970   33.9660   45.7720 C   0  0  0  0  0  0  0  0  0  0  0  0
   59.0400   33.8880   46.3750 C   0  0  0  0  0  0  0  0  0  0  0  0
   57.4630   33.8640   45.2970 Br  0  0  0  0  0  0  0  0  0  0  0  0
   58.9380   33.8230   47.7670 C   0  0  0  0  0  0  0  0  0  0  0  0
   60.0880   33.8380   48.5660 C   0  0  0  0  0  0  0  0  0  0  0  0
   59.8550   33.7300   50.4670 Br  0  0  0  0  0  0  0  0  0  0  0  0
   60.9516   28.8987   50.0376 H   0  0  0  0  0  0  0  0  0  0  0  0
   59.3096   28.4022   49.5049 H   0  0  0  0  0  0  0  0  0  0  0  0
   60.6527   27.2094   49.5049 H   0  0  0  0  0  0  0  0  0  0  0  0
   61.5724   28.0296   47.5519 H   0  0  0  0  0  0  0  0  0  0  0  0
   59.8372   28.5056   47.2816 H   0  0  0  0  0  0  0  0  0  0  0  0
   62.1210   30.1050   47.4310 H   0  0  0  0  0  0  0  0  0  0  0  0
   60.0075   31.7491   47.1251 H   0  0  0  0  0  0  0  0  0  0  0  0
   60.9759   30.8647   45.8426 H   0  0  0  0  0  0  0  0  0  0  0  0
   58.5198   29.6620   47.1612 H   0  0  0  0  0  0  0  0  0  0  0  0
   58.4370   30.6657   45.6738 H   0  0  0  0  0  0  0  0  0  0  0  0
   59.3786   29.1360   45.6738 H   0  0  0  0  0  0  0  0  0  0  0  0
   60.5223   31.7018   48.9873 H   0  0  0  0  0  0  0  0  0  0  0  0
   60.6102   30.0581   49.7967 H   0  0  0  0  0  0  0  0  0  0  0  0
   62.3273   31.5146   50.7015 H   0  0  0  0  0  0  0  0  0  0  0  0
   63.0569   30.1721   49.7121 H   0  0  0  0  0  0  0  0  0  0  0  0
   64.4520   31.8440   46.8940 H   0  0  0  0  0  0  0  0  0  0  0  0
   62.4103   34.1782   49.8084 H   0  0  0  0  0  0  0  0  0  0  0  0
   63.3395   34.6476   48.3417 H   0  0  0  0  0  0  0  0  0  0  0  0
   62.4381   34.0357   46.0747 H   0  0  0  0  0  0  0  0  0  0  0  0
   60.3779   34.0149   44.6761 H   0  0  0  0  0  0  0  0  0  0  0  0
   57.9465   33.7595   48.2390 H   0  0  0  0  0  0  0  0  0  0  0  0
  1  2  1  0
  2  3  1  0
  3  4  1  0
  4  5  1  0
  3  6  1  0
  6  7  1  0
  7  8  1  0
  8  9  1  6
  8 10  1  0
 10 11  1  0
 11 12  2  0
 12 13  1  0
 13 14  2  0
 14 15  1  0
 14 16  1  0
 16 17  2  0
 17 18  1  0
 17 11  1  0
  1 19  1  0
  1 20  1  0
  1 21  1  0
  2 22  1  0
  2 23  1  0
  3 24  1  0
  4 25  1  0
  4 26  1  0
  5 27  1  0
  5 28  1  0
  5 29  1  0
  6 30  1  0
  6 31  1  0
  7 32  1  0
  7 33  1  0
  9 34  1  0
 10 35  1  0
 10 36  1  0
 12 37  1  0
 13 38  1  0
 16 39  1  0
M  CHG  2   3   1   8   1
M  END
>  <UniqueID>  (6) 
6

>  <SMILES>  (6) 
CC[NH+](CC)CC[S@@+](O)Cc1ccc(Br)cc1Br

>  <Energy>  (6) 
32.31907422290516

>  <Genealogy>  (6) 
CC[NH+](CC)CC[S+](O)Cc1ccc(Br)cc1Br (protonated)
CC[NH+](CC)CC[S@@+](O)Cc1ccc(Br)cc1Br (chirality)
CC[NH+](CC)CC[S@@+](O)Cc1ccc(Br)cc1Br (3D coordinates assigned)
CC[NH+](CC)CC[S@@+](O)Cc1ccc(Br)cc1Br (optimized conformer: 32.31907422290516 kcal/mol)

>  <smiles>  (6) 
CCN(CC)CC[S+]([O-])Cc1ccc(Br)cc1Br

>  <score_type>  (6) 
oracle

>  <origin>  (6) 
adg

>  <m_score__min__energy>  (6) 
-4.1799999999999997

>  <m_primary>  (6) 
energy

$$$$
6:0
     RDKit          3D

 57 60  0  0  0  0  0  0  0  0999 V2000
   56.3310   20.9550   45.6860 C   0  0  0  0  0  0  0  0  0  0  0  0
   56.1900   21.5860   44.3790 N   0  0  0  0  0  0  0  0  0  0  0  0
   56.3780   20.9850   43.2190 N   0  0  0  0  0  0  0  0  0  0  0  0
   56.1090   21.8480   42.2490 N   0  0  0  0  0  0  0  0  0  0  0  0
   55.7350   23.0120   42.7640 N   0  0  0  0  0  0  0  0  0  0  0  0
   55.7820   22.8340   44.0960 C   0  0  0  0  0  0  0  0  0  0  0  0
   55.3620   24.0940   45.3060 S   0  0  0  0  0  0  0  0  0  0  0  0
   57.0740   24.2830   45.9270 C   0  0  0  0  0  0  0  0  0  0  0  0
   57.1820   25.3880   46.9900 C   0  0  0  0  0  0  0  0  0  0  0  0
   58.6050   25.9540   47.1270 C   0  0  0  0  0  0  0  0  0  0  0  0
   58.8620   27.0440   46.1600 N   0  0  0  0  0  0  0  0  0  0  0  0
   57.7180   27.2500   45.2390 C   0  0  0  0  0  0  0  0  0  0  0  0
   58.0440   28.3230   44.1470 C   0  0  2  0  0  0  0  0  0  0  0  0
   59.3250   29.0840   44.4980 C   0  0  0  0  0  0  0  0  0  0  0  0
   59.1560   29.5470   45.9460 C   0  0  2  0  0  0  0  0  0  0  0  0
   59.2510   28.2930   46.8620 C   0  0  0  0  0  0  0  0  0  0  0  0
   57.7900   30.2870   46.1510 C   0  0  0  0  0  0  0  0  0  0  0  0
   57.0390   30.5320   44.8970 N   0  0  0  0  0  0  0  0  0  0  0  0
   57.4200   31.7810   44.1970 C   0  0  0  0  0  0  0  0  0  0  0  0
   56.9550   32.9940   45.0040 C   0  0  0  0  0  0  0  0  0  0  0  0
   58.0700   33.5390   45.8570 C   0  0  0  0  0  0  0  0  0  0  0  0
   58.1440   33.2100   47.2210 C   0  0  0  0  0  0  0  0  0  0  0  0
   59.1560   33.7490   48.0210 C   0  0  0  0  0  0  0  0  0  0  0  0
   60.0980   34.6250   47.4680 C   0  0  0  0  0  0  0  0  0  0  0  0
   60.0210   34.9670   46.1170 C   0  0  0  0  0  0  0  0  0  0  0  0
   59.0070   34.4320   45.3150 C   0  0  0  0  0  0  0  0  0  0  0  0
   56.8920   29.3510   44.0030 C   0  0  0  0  0  0  0  0  0  0  0  0
   56.1637   21.7035   46.4745 H   0  0  0  0  0  0  0  0  0  0  0  0
   55.5913   20.1469   45.7847 H   0  0  0  0  0  0  0  0  0  0  0  0
   57.3443   20.5386   45.7847 H   0  0  0  0  0  0  0  0  0  0  0  0
   57.3980   23.3302   46.3710 H   0  0  0  0  0  0  0  0  0  0  0  0
   57.7144   24.5644   45.0780 H   0  0  0  0  0  0  0  0  0  0  0  0
   56.5038   26.2084   46.7127 H   0  0  0  0  0  0  0  0  0  0  0  0
   56.9117   24.9405   47.9578 H   0  0  0  0  0  0  0  0  0  0  0  0
   58.7351   26.3455   48.1467 H   0  0  0  0  0  0  0  0  0  0  0  0
   59.3162   25.1407   46.9201 H   0  0  0  0  0  0  0  0  0  0  0  0
   56.8471   27.5860   45.8209 H   0  0  0  0  0  0  0  0  0  0  0  0
   57.5077   26.2964   44.7326 H   0  0  0  0  0  0  0  0  0  0  0  0
   58.1741   27.7828   43.1976 H   0  0  0  0  0  0  0  0  0  0  0  0
   59.4499   29.9503   43.8317 H   0  0  0  0  0  0  0  0  0  0  0  0
   60.2161   28.4502   44.3787 H   0  0  0  0  0  0  0  0  0  0  0  0
   59.9475   30.2665   46.2027 H   0  0  0  0  0  0  0  0  0  0  0  0
   58.5834   28.4351   47.7246 H   0  0  0  0  0  0  0  0  0  0  0  0
   60.3002   28.1870   47.1750 H   0  0  0  0  0  0  0  0  0  0  0  0
   57.9913   31.2575   46.6280 H   0  0  0  0  0  0  0  0  0  0  0  0
   57.1637   29.6295   46.7718 H   0  0  0  0  0  0  0  0  0  0  0  0
   58.5136   31.8162   44.0834 H   0  0  0  0  0  0  0  0  0  0  0  0
   56.9419   31.8007   43.2065 H   0  0  0  0  0  0  0  0  0  0  0  0
   56.6171   33.7783   44.3107 H   0  0  0  0  0  0  0  0  0  0  0  0
   56.1328   32.6797   45.6637 H   0  0  0  0  0  0  0  0  0  0  0  0
   57.4032   32.5261   47.6609 H   0  0  0  0  0  0  0  0  0  0  0  0
   59.2123   33.4843   49.0872 H   0  0  0  0  0  0  0  0  0  0  0  0
   60.8975   35.0430   48.0973 H   0  0  0  0  0  0  0  0  0  0  0  0
   60.7583   35.6579   45.6823 H   0  0  0  0  0  0  0  0  0  0  0  0
   58.9439   34.7130   44.2534 H   0  0  0  0  0  0  0  0  0  0  0  0
   56.8670   29.7032   42.9612 H   0  0  0  0  0  0  0  0  0  0  0  0
   55.9619   28.8392   44.2910 H   0  0  0  0  0  0  0  0  0  0  0  0
  1  2  1  0
  2  3  1  0
  3  4  2  0
  4  5  1  0
  5  6  2  0
  6  7  1  0
  7  8  1  0
  8  9  1  0
  9 10  1  0
 10 11  1  0
 11 12  1  0
 12 13  1  0
 13 14  1  0
 14 15  1  0
 15 16  1  0
 15 17  1  0
 17 18  1  0
 18 19  1  0
 19 20  1  0
 20 21  1  0
 21 22  2  0
 22 23  1  0
 23 24  2  0
 24 25  1  0
 25 26  2  0
 18 27  1  0
  6  2  1  0
 16 11  1  0
 26 21  1  0
 27 13  1  0
  1 28  1  0
  1 29  1  0
  1 30  1  0
  8 31  1  0
  8 32  1  0
  9 33  1  0
  9 34  1  0
 10 35  1  0
 10 36  1  0
 12 37  1  0
 12 38  1  0
 13 39  1  6
 14 40  1  0
 14 41  1  0
 15 42  1  1
 16 43  1  0
 16 44  1  0
 17 45  1  0
 17 46  1  0
 19 47  1  0
 19 48  1  0
 20 49  1  0
 20 50  1  0
 22 51  1  0
 23 52  1  0
 24 53  1  0
 25 54  1  0
 26 55  1  0
 27 56  1  0
 27 57  1  0
M  END
>  <UniqueID>  (7) 
7

>  <SMILES>  (7) 
Cn1nnnc1SCCCN1C[C@H]2C[C@@H](C1)CN(CCc1ccccc1)C2

>  <Energy>  (7) 
118.27283715914454

>  <Genealogy>  (7) 
Cn1nnnc1SCCCN1C[C@H]2C[C@@H](C1)CN(CCc1ccccc1)C2 (chirality)
Cn1nnnc1SCCCN1C[C@H]2C[C@@H](C1)CN(CCc1ccccc1)C2 (3D coordinates assigned)
Cn1nnnc1SCCCN1C[C@H]2C[C@@H](C1)CN(CCc1ccccc1)C2 (nonaromatic ring conformer: 118.27283715914454 kcal/mol)

>  <smiles>  (7) 
Cn1nnnc1SCCCN1CC2CC(C1)CN(CCc1ccccc1)C2

>  <score_type>  (7) 
oracle

>  <origin>  (7) 
adg

>  <m_score__min__energy>  (7) 
-9.7899999999999991

>  <m_primary>  (7) 
energy

$$$$
7:0
     RDKit          3D

 45 47  0  0  0  0  0  0  0  0999 V2000
   61.1660   30.4360   47.4990 C   0  0  0  0  0  0  0  0  0  0  0  0
   59.7550   30.2420   48.0520 C   0  0  0  0  0  0  0  0  0  0  0  0
   58.8180   29.8130   47.0040 N   0  0  0  0  0  0  0  0  0  0  0  0
   59.3060   30.1190   45.6430 C   0  0  0  0  0  0  0  0  0  0  0  0
   58.1270   30.4240   44.7070 C   0  0  0  0  0  0  0  0  0  0  0  0
   57.1660   31.2460   45.3460 O   0  0  0  0  0  0  0  0  0  0  0  0
   57.0430   32.5100   44.7190 C   0  0  0  0  0  0  0  0  0  0  0  0
   57.5800   33.6170   45.6430 C   0  0  2  0  0  0  0  0  0  0  0  0
   58.5160   34.5910   44.9120 C   0  0  0  0  0  0  0  0  0  0  0  0
   59.5190   35.0540   45.9590 C   0  0  0  0  0  0  0  0  0  0  0  0
   59.4490   34.0710   47.0260 N   0  0  0  0  0  0  0  0  0  0  0  0
   60.4850   33.9060   48.0040 C   0  0  0  0  0  0  0  0  0  0  0  0
   60.2020   33.9610   49.3430 N   0  0  0  0  0  0  0  0  0  0  0  0
   61.1840   33.8030   50.2870 C   0  0  0  0  0  0  0  0  0  0  0  0
   62.4770   33.5780   49.9130 N   0  0  0  0  0  0  0  0  0  0  0  0
   62.7630   33.5230   48.5900 C   0  0  0  0  0  0  0  0  0  0  0  0
   63.9710   33.2960   48.0500 N   0  0  0  0  0  0  0  0  0  0  0  0
   63.7710   33.3020   46.7100 C   0  0  0  0  0  0  0  0  0  0  0  0
   62.4300   33.5360   46.4080 C   0  0  0  0  0  0  0  0  0  0  0  0
   61.8090   33.6800   47.6330 C   0  0  0  0  0  0  0  0  0  0  0  0
   58.4030   33.0860   46.8190 C   0  0  0  0  0  0  0  0  0  0  0  0
   61.8765   30.5337   48.3331 H   0  0  0  0  0  0  0  0  0  0  0  0
   61.4410   29.5672   46.8829 H   0  0  0  0  0  0  0  0  0  0  0  0
   61.1964   31.3468   46.8829 H   0  0  0  0  0  0  0  0  0  0  0  0
   59.7829   29.4763   48.8413 H   0  0  0  0  0  0  0  0  0  0  0  0
   59.4065   31.2056   48.4520 H   0  0  0  0  0  0  0  0  0  0  0  0
   57.9260   30.3440   47.1540 H   0  0  0  0  0  0  0  0  0  0  0  0
   59.9713   30.9940   45.6848 H   0  0  0  0  0  0  0  0  0  0  0  0
   59.8525   29.2466   45.2555 H   0  0  0  0  0  0  0  0  0  0  0  0
   58.5035   30.9411   43.8121 H   0  0  0  0  0  0  0  0  0  0  0  0
   57.6455   29.4741   44.4317 H   0  0  0  0  0  0  0  0  0  0  0  0
   57.6189   32.5081   43.7818 H   0  0  0  0  0  0  0  0  0  0  0  0
   55.9810   32.7034   44.5074 H   0  0  0  0  0  0  0  0  0  0  0  0
   56.6641   34.1131   45.9965 H   0  0  0  0  0  0  0  0  0  0  0  0
   59.0315   34.0811   44.0848 H   0  0  0  0  0  0  0  0  0  0  0  0
   57.9644   35.4357   44.4736 H   0  0  0  0  0  0  0  0  0  0  0  0
   60.5324   35.0866   45.5324 H   0  0  0  0  0  0  0  0  0  0  0  0
   59.2910   36.0670   46.3222 H   0  0  0  0  0  0  0  0  0  0  0  0
   59.2260   34.1420   49.6610 H   0  0  0  0  0  0  0  0  0  0  0  0
   60.9272   33.8581   51.3552 H   0  0  0  0  0  0  0  0  0  0  0  0
   64.8710   33.1360   48.5530 H   0  0  0  0  0  0  0  0  0  0  0  0
   64.5606   33.1435   45.9608 H   0  0  0  0  0  0  0  0  0  0  0  0
   61.9677   33.5934   45.4115 H   0  0  0  0  0  0  0  0  0  0  0  0
   58.8387   32.1062   46.5739 H   0  0  0  0  0  0  0  0  0  0  0  0
   57.7884   32.9429   47.7200 H   0  0  0  0  0  0  0  0  0  0  0  0
  1  2  1  0
  2  3  1  0
  3  4  1  0
  4  5  1  0
  5  6  1  0
  6  7  1  0
  7  8  1  0
  8  9  1  0
  9 10  1  0
 10 11  1  0
 11 12  1  0
 12 13  2  0
 13 14  1  0
 14 15  2  0
 15 16  1  0
 16 17  1  0
 17 18  1  0
 18 19  2  0
 19 20  1  0
 11 21  1  0
 21  8  1  0
 20 12  1  0
 20 16  2  0
  1 22  1  0
  1 23  1  0
  1 24  1  0
  2 25  1  0
  2 26  1  0
  3 27  1  0
  4 28  1  0
  4 29  1  0
  5 30  1  0
  5 31  1  0
  7 32  1  0
  7 33  1  0
  8 34  1  1
  9 35  1  0
  9 36  1  0
 10 37  1  0
 10 38  1  0
 13 39  1  0
 14 40  1  0
 17 41  1  0
 18 42  1  0
 19 43  1  0
 21 44  1  0
 21 45  1  0
M  CHG  1  13   1
M  END
>  <UniqueID>  (8) 
8

>  <SMILES>  (8) 
CCNCCOC[C@@H]1CCN(c2[nH+]cnc3[nH]ccc23)C1

>  <Energy>  (8) 
87.30409934748849

>  <Genealogy>  (8) 
CCNCCOCC1CCN(c2[nH+]cnc3[nH]ccc23)C1 (protonated)
CCNCCOC[C@@H]1CCN(c2[nH+]cnc3[nH]ccc23)C1 (chirality)
CCNCCOC[C@@H]1CCN(c2[nH+]cnc3[nH]ccc23)C1 (3D coordinates assigned)
CCNCCOC[C@@H]1CCN(c2[nH+]cnc3[nH]ccc23)C1 (nonaromatic ring conformer: 87.30409934748849 kcal/mol)

>  <smiles>  (8) 
CCNCCOCC1CCN(c2ncnc3[nH]ccc23)C1

>  <score_type>  (8) 
oracle

>  <origin>  (8) 
adg

>  <m_score__min__energy>  (8) 
-6.1100000000000003

>  <m_primary>  (8) 
energy

$$$$
8:0
     RDKit          3D

 48 51  0  0  0  0  0  0  0  0999 V2000
   58.1200   26.3350   44.1260 C   0  0  0  0  0  0  0  0  0  0  0  0
   58.2680   27.8250   43.8230 C   0  0  0  0  0  0  0  0  0  0  0  0
   57.3640   28.2310   42.7370 N   0  0  0  0  0  0  0  0  0  0  0  0
   56.6280   29.4520   43.1050 C   0  0  0  0  0  0  0  0  0  0  0  0
   57.5510   30.5160   43.7230 C   0  0  0  0  0  0  0  0  0  0  0  0
   57.4240   30.5790   45.1840 N   0  0  0  0  0  0  0  0  0  0  0  0
   58.4420   31.1440   46.0190 C   0  0  0  0  0  0  0  0  0  0  0  0
   58.8160   32.5030   45.8970 C   0  0  0  0  0  0  0  0  0  0  0  0
   58.0560   33.3890   45.1080 C   0  0  0  0  0  0  0  0  0  0  0  0
   58.4520   34.7130   44.9410 C   0  0  0  0  0  0  0  0  0  0  0  0
   59.6100   35.1790   45.5540 C   0  0  0  0  0  0  0  0  0  0  0  0
   60.3680   34.3330   46.3640 C   0  0  0  0  0  0  0  0  0  0  0  0
   59.9790   32.9890   46.5830 C   0  0  0  0  0  0  0  0  0  0  0  0
   60.7010   32.1500   47.4190 N   0  0  0  0  0  0  0  0  0  0  0  0
   61.8540   32.6510   48.1920 C   0  0  0  0  0  0  0  0  0  0  0  0
   60.3170   30.8360   47.5160 C   0  0  0  0  0  0  0  0  0  0  0  0
   60.9690   29.8580   48.1930 N   0  0  0  0  0  0  0  0  0  0  0  0
   60.2330   28.7470   48.0060 C   0  0  0  0  0  0  0  0  0  0  0  0
   60.5070   27.4820   48.5220 C   0  0  0  0  0  0  0  0  0  0  0  0
   59.6070   26.4430   48.2410 C   0  0  0  0  0  0  0  0  0  0  0  0
   58.4550   26.6880   47.4700 C   0  0  0  0  0  0  0  0  0  0  0  0
   58.1940   27.9720   46.9570 C   0  0  0  0  0  0  0  0  0  0  0  0
   57.0420   28.1910   46.2820 F   0  0  0  0  0  0  0  0  0  0  0  0
   59.1230   28.9910   47.2200 C   0  0  0  0  0  0  0  0  0  0  0  0
   59.1930   30.3400   46.8790 C   0  0  0  0  0  0  0  0  0  0  0  0
   58.1048   26.1821   45.2152 H   0  0  0  0  0  0  0  0  0  0  0  0
   57.1806   25.9638   43.6905 H   0  0  0  0  0  0  0  0  0  0  0  0
   58.9681   25.7863   43.6905 H   0  0  0  0  0  0  0  0  0  0  0  0
   58.0265   28.4024   44.7276 H   0  0  0  0  0  0  0  0  0  0  0  0
   59.3043   28.0190   43.5092 H   0  0  0  0  0  0  0  0  0  0  0  0
   57.9300   28.3950   41.8750 H   0  0  0  0  0  0  0  0  0  0  0  0
   56.6780   27.4610   42.5520 H   0  0  0  0  0  0  0  0  0  0  0  0
   56.1589   29.8698   42.2020 H   0  0  0  0  0  0  0  0  0  0  0  0
   55.8719   29.1800   43.8562 H   0  0  0  0  0  0  0  0  0  0  0  0
   58.5929   30.2723   43.4682 H   0  0  0  0  0  0  0  0  0  0  0  0
   57.2578   31.4950   43.3160 H   0  0  0  0  0  0  0  0  0  0  0  0
   56.4990   30.3600   45.6180 H   0  0  0  0  0  0  0  0  0  0  0  0
   57.1388   33.0302   44.6181 H   0  0  0  0  0  0  0  0  0  0  0  0
   57.8473   35.3925   44.3225 H   0  0  0  0  0  0  0  0  0  0  0  0
   59.9300   36.2200   45.3994 H   0  0  0  0  0  0  0  0  0  0  0  0
   61.2826   34.7161   46.8402 H   0  0  0  0  0  0  0  0  0  0  0  0
   61.6422   32.5590   49.2675 H   0  0  0  0  0  0  0  0  0  0  0  0
   62.7475   32.0600   47.9423 H   0  0  0  0  0  0  0  0  0  0  0  0
   62.0316   33.7075   47.9423 H   0  0  0  0  0  0  0  0  0  0  0  0
   61.8640   29.9060   48.7250 H   0  0  0  0  0  0  0  0  0  0  0  0
   61.4041   27.3029   49.1328 H   0  0  0  0  0  0  0  0  0  0  0  0
   59.8027   25.4311   48.6254 H   0  0  0  0  0  0  0  0  0  0  0  0
   57.7516   25.8672   47.2664 H   0  0  0  0  0  0  0  0  0  0  0  0
  1  2  1  0
  2  3  1  0
  3  4  1  0
  4  5  1  0
  5  6  1  0
  6  7  1  0
  7  8  2  0
  8  9  1  0
  9 10  2  0
 10 11  1  0
 11 12  2  0
 12 13  1  0
 13 14  2  0
 14 15  1  0
 14 16  1  0
 16 17  1  0
 17 18  1  0
 18 19  2  0
 19 20  1  0
 20 21  2  0
 21 22  1  0
 22 23  1  0
 22 24  2  0
 24 25  1  0
 25  7  1  0
 13  8  1  0
 25 16  2  0
 24 18  1  0
  1 26  1  0
  1 27  1  0
  1 28  1  0
  2 29  1  0
  2 30  1  0
  3 31  1  0
  3 32  1  0
  4 33  1  0
  4 34  1  0
  5 35  1  0
  5 36  1  0
  6 37  1  0
  9 38  1  0
 10 39  1  0
 11 40  1  0
 12 41  1  0
 15 42  1  0
 15 43  1  0
 15 44  1  0
 17 45  1  0
 19 46  1  0
 20 47  1  0
 21 48  1  0
M  CHG  2   3   1  14   1
M  END
>  <UniqueID>  (9) 
9

>  <SMILES>  (9) 
CC[NH2+]CCNc1c2ccccc2[n+](C)c2[nH]c3cccc(F)c3c12

>  <Energy>  (9) 
106.44584929489157

>  <Genealogy>  (9) 
CC[NH2+]CCNc1c2ccccc2[n+](C)c2[nH]c3cccc(F)c3c12 (protonated)
CC[NH2+]CCNc1c2ccccc2[n+](C)c2[nH]c3cccc(F)c3c12 (3D coordinates assigned)
CC[NH2+]CCNc1c2ccccc2[n+](C)c2[nH]c3cccc(F)c3c12 (optimized conformer: 106.44584929489157 kcal/mol)

>  <smiles>  (9) 
CCNCCNc1c2ccccc2[n+](C)c2[nH]c3cccc(F)c3c12

>  <score_type>  (9) 
oracle

>  <origin>  (9) 
adg

>  <m_score__min__energy>  (9) 
-4.8600000000000003

>  <m_primary>  (9) 
energy

$$$$
9:0
     RDKit          3D

 67 69  0  0  0  0  0  0  0  0999 V2000
   58.7245   34.9215   51.1974 H   0  0  0  0  0  0  0  0  0  0  0  0
   59.2930   33.9800   51.2180 C   0  0  0  0  0  0  0  0  0  0  0  0
   58.9230   33.0630   52.1220 C   0  0  0  0  0  0  0  0  0  0  0  0
   58.4519   33.4336   53.0443 H   0  0  0  0  0  0  0  0  0  0  0  0
   59.0920   31.5730   51.9930 C   0  0  0  0  0  0  0  0  0  0  0  0
   58.7872   31.0897   52.9330 H   0  0  0  0  0  0  0  0  0  0  0  0
   60.1476   31.3478   51.7809 H   0  0  0  0  0  0  0  0  0  0  0  0
   58.2940   31.0830   50.9360 O   0  0  0  0  0  0  0  0  0  0  0  0
   58.5570   29.7120   50.7190 C   0  0  0  0  0  0  0  0  0  0  0  0
   57.6470   29.1265   50.9165 H   0  0  0  0  0  0  0  0  0  0  0  0
   59.3572   29.3764   51.3951 H   0  0  0  0  0  0  0  0  0  0  0  0
   58.9910   29.5100   49.2660 C   0  0  0  0  0  0  0  0  0  0  0  0
   58.0998   29.3501   48.6413 H   0  0  0  0  0  0  0  0  0  0  0  0
   59.6550   28.6346   49.2125 H   0  0  0  0  0  0  0  0  0  0  0  0
   59.7250   30.6970   48.7720 N   0  0  0  0  0  0  0  0  0  0  0  0
   61.1350   30.3510   48.5190 C   0  0  0  0  0  0  0  0  0  0  0  0
   61.6587   30.2225   49.4777 H   0  0  0  0  0  0  0  0  0  0  0  0
   61.1853   29.4139   47.9452 H   0  0  0  0  0  0  0  0  0  0  0  0
   61.6134   31.1584   47.9452 H   0  0  0  0  0  0  0  0  0  0  0  0
   59.1010   31.2610   47.5530 C   0  0  0  0  0  0  0  0  0  0  0  0
   58.5435   30.4701   47.0299 H   0  0  0  0  0  0  0  0  0  0  0  0
   59.8880   31.6597   46.8960 H   0  0  0  0  0  0  0  0  0  0  0  0
   58.1450   32.3880   47.9300 C   0  0  0  0  0  0  0  0  0  0  0  0
   58.0810   32.4634   49.0255 H   0  0  0  0  0  0  0  0  0  0  0  0
   58.5172   33.3377   47.5182 H   0  0  0  0  0  0  0  0  0  0  0  0
   57.1473   32.1757   47.5182 H   0  0  0  0  0  0  0  0  0  0  0  0
   60.3950   33.8390   50.2480 C   0  0  0  0  0  0  0  0  0  0  0  0
   60.2560   33.7830   48.9330 O   0  0  0  0  0  0  0  0  0  0  0  0
   61.4570   33.6460   48.4230 C   0  0  0  0  0  0  0  0  0  0  0  0
   62.4000   33.6030   49.4090 C   0  0  0  0  0  0  0  0  0  0  0  0
   61.7340   33.7140   50.6070 C   0  0  0  0  0  0  0  0  0  0  0  0
   62.1626   33.7058   51.6200 H   0  0  0  0  0  0  0  0  0  0  0  0
   63.7510   33.4770   49.1160 C   0  0  0  0  0  0  0  0  0  0  0  0
   64.5090   33.4436   49.9125 H   0  0  0  0  0  0  0  0  0  0  0  0
   64.1100   33.3940   47.7620 C   0  0  0  0  0  0  0  0  0  0  0  0
   65.1683   33.2979   47.4777 H   0  0  0  0  0  0  0  0  0  0  0  0
   63.1100   33.4340   46.7640 C   0  0  0  0  0  0  0  0  0  0  0  0
   63.3972   33.3618   45.7046 H   0  0  0  0  0  0  0  0  0  0  0  0
   61.7830   33.5620   47.1000 N   0  0  0  0  0  0  0  0  0  0  0  0
   60.7510   33.5360   46.0570 C   0  0  0  0  0  0  0  0  0  0  0  0
   61.2315   33.4537   45.0709 H   0  0  0  0  0  0  0  0  0  0  0  0
   60.0909   32.6719   46.2233 H   0  0  0  0  0  0  0  0  0  0  0  0
   59.9180   34.8250   46.1110 C   0  0  0  0  0  0  0  0  0  0  0  0
   59.4133   34.8763   47.0870 H   0  0  0  0  0  0  0  0  0  0  0  0
   60.6063   35.6699   45.9618 H   0  0  0  0  0  0  0  0  0  0  0  0
   58.8540   34.8950   45.0040 C   0  0  0  0  0  0  0  0  0  0  0  0
   58.2767   35.8233   45.1261 H   0  0  0  0  0  0  0  0  0  0  0  0
   59.3737   34.8705   44.0348 H   0  0  0  0  0  0  0  0  0  0  0  0
   57.8890   33.7040   45.0500 C   0  0  0  0  0  0  0  0  0  0  0  0
   58.0914   33.1134   45.9557 H   0  0  0  0  0  0  0  0  0  0  0  0
   56.8594   34.0911   45.0603 H   0  0  0  0  0  0  0  0  0  0  0  0
   58.0560   32.8060   43.8210 C   0  0  0  0  0  0  0  0  0  0  0  0
   57.3279   33.1039   43.0521 H   0  0  0  0  0  0  0  0  0  0  0  0
   59.0794   32.9164   43.4332 H   0  0  0  0  0  0  0  0  0  0  0  0
   57.8260   31.3700   44.1910 C   0  0  0  0  0  0  0  0  0  0  0  0
   58.8830   30.5960   44.5650 N   0  0  0  0  0  0  0  0  0  0  0  0
   58.7390   29.2770   44.8670 C   0  0  0  0  0  0  0  0  0  0  0  0
   59.9360   28.4660   45.2540 C   0  0  0  0  0  0  0  0  0  0  0  0
   60.0072   28.4177   46.3506 H   0  0  0  0  0  0  0  0  0  0  0  0
   59.8365   27.4486   44.8479 H   0  0  0  0  0  0  0  0  0  0  0  0
   60.8440   28.9357   44.8479 H   0  0  0  0  0  0  0  0  0  0  0  0
   57.4760   28.6780   44.7840 C   0  0  0  0  0  0  0  0  0  0  0  0
   57.3504   27.6117   45.0231 H   0  0  0  0  0  0  0  0  0  0  0  0
   56.3780   29.4470   44.3950 C   0  0  0  0  0  0  0  0  0  0  0  0
   55.3800   28.9891   44.3290 H   0  0  0  0  0  0  0  0  0  0  0  0
   56.5490   30.7980   44.0900 C   0  0  0  0  0  0  0  0  0  0  0  0
   55.6906   31.4087   43.7734 H   0  0  0  0  0  0  0  0  0  0  0  0
  1  2  1  0
  2  3  2  0
  3  4  1  0
  3  5  1  0
  5  6  1  0
  5  7  1  0
  5  8  1  0
  8  9  1  0
  9 10  1  0
  9 11  1  0
  9 12  1  0
 12 13  1  0
 12 14  1  0
 12 15  1  0
 15 16  1  0
 16 17  1  0
 16 18  1  0
 16 19  1  0
 15 20  1  0
 20 21  1  0
 20 22  1  0
 20 23  1  0
 23 24  1  0
 23 25  1  0
 23 26  1  0
  2 27  1  0
 27 28  1  0
 28 29  1  0
 29 30  2  0
 30 31  1  0
 31 32  1  0
 30 33  1  0
 33 34  1  0
 33 35  2  0
 35 36  1  0
 35 37  1  0
 37 38  1  0
 37 39  2  0
 39 40  1  0
 40 41  1  0
 40 42  1  0
 40 43  1  0
 43 44  1  0
 43 45  1  0
 43 46  1  0
 46 47  1  0
 46 48  1  0
 46 49  1  0
 49 50  1  0
 49 51  1  0
 49 52  1  0
 52 53  1  0
 52 54  1  0
 52 55  1  0
 55 56  2  0
 56 57  1  0
 57 58  1  0
 58 59  1  0
 58 60  1  0
 58 61  1  0
 57 62  2  0
 62 63  1  0
 62 64  1  0
 64 65  1  0
 64 66  2  0
 66 67  1  0
 31 27  2  0
 66 55  1  0
 39 29  1  0
M  CHG  1  39   1
M  END
>  <UniqueID>  (10) 
10

>  <SMILES>  (10) 
CCN(C)CCOC/C=C\c1cc2ccc[n+](CCCCCc3cccc(C)n3)c2o1

>  <Energy>  (10) 
89.3389640154287

>  <Genealogy>  (10) 
CCN(C)CCOC/C=C\c1cc2ccc[n+](CCCCCc3cccc(C)n3)c2o1 (cis-trans isomerization)
CCN(C)CCOC/C=C\c1cc2ccc[n+](CCCCCc3cccc(C)n3)c2o1 (3D coordinates assigned)
CCN(C)CCOC/C=C\c1cc2ccc[n+](CCCCCc3cccc(C)n3)c2o1 (optimized conformer: 89.3389640154287 kcal/mol)

>  <smiles>  (10) 
CCN(C)CCOCC=Cc1cc2ccc[n+](CCCCCc3cccc(C)n3)c2o1

>  <score_type>  (10) 
oracle

>  <origin>  (10) 
adg

>  <m_score__min__energy>  (10) 
-6.21

>  <m_primary>  (10) 
energy

$$$$
10:0
     RDKit          3D

 50 52  0  0  0  0  0  0  0  0999 V2000
   62.9220   34.1830   50.3130 C   0  0  0  0  0  0  0  0  0  0  0  0
   62.0700   33.6130   49.2570 N   0  0  0  0  0  0  0  0  0  0  0  0
   60.7260   34.2100   49.3250 C   0  0  0  0  0  0  0  0  0  0  0  0
   62.6700   33.8200   47.9160 C   0  0  0  0  0  0  0  0  0  0  0  0
   63.4630   32.5800   47.4730 C   0  0  0  0  0  0  0  0  0  0  0  0
   62.5750   31.3590   47.1800 C   0  0  0  0  0  0  0  0  0  0  0  0
   61.1890   31.5890   47.5980 N   0  0  0  0  0  0  0  0  0  0  0  0
   60.0710   31.2600   46.7560 C   0  0  0  0  0  0  0  0  0  0  0  0
   59.4300   32.2580   46.0020 C   0  0  0  0  0  0  0  0  0  0  0  0
   58.4250   31.9000   45.0850 C   0  0  0  0  0  0  0  0  0  0  0  0
   58.1070   30.5730   44.8810 N   0  0  0  0  0  0  0  0  0  0  0  0
   57.2910   30.1830   43.7120 C   0  0  0  0  0  0  0  0  0  0  0  0
   58.5650   29.6140   45.7630 C   0  0  0  0  0  0  0  0  0  0  0  0
   58.0500   28.2940   45.7620 C   0  0  0  0  0  0  0  0  0  0  0  0
   58.5590   27.3240   46.6250 C   0  0  0  0  0  0  0  0  0  0  0  0
   59.5860   27.6410   47.5070 C   0  0  0  0  0  0  0  0  0  0  0  0
   60.0950   28.9350   47.5510 C   0  0  0  0  0  0  0  0  0  0  0  0
   59.5770   29.9430   46.7070 C   0  0  0  0  0  0  0  0  0  0  0  0
   57.7590   33.0300   44.3160 C   0  0  0  0  0  0  0  0  0  0  0  0
   57.4170   34.2090   45.2400 C   0  0  0  0  0  0  0  0  0  0  0  0
   58.5350   34.5920   46.2350 C   0  0  0  0  0  0  0  0  0  0  0  0
   59.7930   33.7200   46.1310 C   0  0  0  0  0  0  0  0  0  0  0  0
   62.5158   33.9112   51.2985 H   0  0  0  0  0  0  0  0  0  0  0  0
   63.9429   33.7854   50.2149 H   0  0  0  0  0  0  0  0  0  0  0  0
   62.9441   35.2784   50.2149 H   0  0  0  0  0  0  0  0  0  0  0  0
   60.4350   34.3392   50.3779 H   0  0  0  0  0  0  0  0  0  0  0  0
   60.7340   35.1892   48.8239 H   0  0  0  0  0  0  0  0  0  0  0  0
   60.0048   33.5476   48.8239 H   0  0  0  0  0  0  0  0  0  0  0  0
   61.8680   34.0135   47.1885 H   0  0  0  0  0  0  0  0  0  0  0  0
   63.3574   34.6773   47.9669 H   0  0  0  0  0  0  0  0  0  0  0  0
   64.0220   32.8317   46.5597 H   0  0  0  0  0  0  0  0  0  0  0  0
   64.1278   32.3055   48.3053 H   0  0  0  0  0  0  0  0  0  0  0  0
   62.5931   31.1552   46.0992 H   0  0  0  0  0  0  0  0  0  0  0  0
   62.9685   30.5025   47.7471 H   0  0  0  0  0  0  0  0  0  0  0  0
   61.0170   31.8310   48.6000 H   0  0  0  0  0  0  0  0  0  0  0  0
   56.3485   29.7325   44.0566 H   0  0  0  0  0  0  0  0  0  0  0  0
   57.0713   31.0735   43.1047 H   0  0  0  0  0  0  0  0  0  0  0  0
   57.8459   29.4528   43.1047 H   0  0  0  0  0  0  0  0  0  0  0  0
   57.2365   28.0304   45.0701 H   0  0  0  0  0  0  0  0  0  0  0  0
   58.1465   26.3044   46.6079 H   0  0  0  0  0  0  0  0  0  0  0  0
   59.9970   26.8668   48.1716 H   0  0  0  0  0  0  0  0  0  0  0  0
   60.9093   29.1760   48.2502 H   0  0  0  0  0  0  0  0  0  0  0  0
   58.4428   33.3789   43.5282 H   0  0  0  0  0  0  0  0  0  0  0  0
   56.8241   32.6488   43.8794 H   0  0  0  0  0  0  0  0  0  0  0  0
   57.2017   35.0859   44.6118 H   0  0  0  0  0  0  0  0  0  0  0  0
   56.5561   33.8904   45.8461 H   0  0  0  0  0  0  0  0  0  0  0  0
   58.8225   35.6368   46.0459 H   0  0  0  0  0  0  0  0  0  0  0  0
   58.1263   34.4394   47.2448 H   0  0  0  0  0  0  0  0  0  0  0  0
   60.3710   34.0265   45.2467 H   0  0  0  0  0  0  0  0  0  0  0  0
   60.3886   33.8537   47.0461 H   0  0  0  0  0  0  0  0  0  0  0  0
  1  2  1  0
  2  3  1  0
  2  4  1  0
  4  5  1  0
  5  6  1  0
  6  7  1  0
  7  8  1  0
  8  9  2  0
  9 10  1  0
 10 11  2  0
 11 12  1  0
 11 13  1  0
 13 14  2  0
 14 15  1  0
 15 16  2  0
 16 17  1  0
 17 18  2  0
 10 19  1  0
 19 20  1  0
 20 21  1  0
 21 22  1  0
 18  8  1  0
 22  9  1  0
 18 13  1  0
  1 23  1  0
  1 24  1  0
  1 25  1  0
  3 26  1  0
  3 27  1  0
  3 28  1  0
  4 29  1  0
  4 30  1  0
  5 31  1  0
  5 32  1  0
  6 33  1  0
  6 34  1  0
  7 35  1  0
 12 36  1  0
 12 37  1  0
 12 38  1  0
 14 39  1  0
 15 40  1  0
 16 41  1  0
 17 42  1  0
 19 43  1  0
 19 44  1  0
 20 45  1  0
 20 46  1  0
 21 47  1  0
 21 48  1  0
 22 49  1  0
 22 50  1  0
M  CHG  1  11   1
M  END
>  <UniqueID>  (11) 
11

>  <SMILES>  (11) 
CN(C)CCCNc1c2c([n+](C)c3ccccc13)CCCC2

>  <Energy>  (11) 
71.69741853323444

>  <Genealogy>  (11) 
CN(C)CCCNc1c2c([n+](C)c3ccccc13)CCCC2 (3D coordinates assigned)
CN(C)CCCNc1c2c([n+](C)c3ccccc13)CCCC2 (nonaromatic ring conformer: 71.69741853323444 kcal/mol)

>  <smiles>  (11) 
CN(C)CCCNc1c2c([n+](C)c3ccccc13)CCCC2

>  <score_type>  (11) 
oracle

>  <origin>  (11) 
adg

>  <m_score__min__energy>  (11) 
-5.4100000000000001

>  <m_primary>  (11) 
energy

$$$$
11:0
     RDKit          3D

 72 74  0  0  0  0  0  0  0  0999 V2000
   59.9004   36.1566   47.2127 H   0  0  0  0  0  0  0  0  0  0  0  0
   59.6660   35.6670   46.2560 C   0  0  0  0  0  0  0  0  0  0  0  0
   59.6500   36.2551   45.3266 H   0  0  0  0  0  0  0  0  0  0  0  0
   59.4020   34.3640   46.2230 C   0  0  0  0  0  0  0  0  0  0  0  0
   59.0920   33.5170   45.2350 N   0  0  0  0  0  0  0  0  0  0  0  0
   58.9960   32.4970   46.1220 C   0  0  0  0  0  0  0  0  0  0  0  0
   58.7550   31.1690   46.0180 N   0  0  0  0  0  0  0  0  0  0  0  0
   58.3550   30.6970   44.6800 C   0  0  0  0  0  0  0  0  0  0  0  0
   57.6469   29.8615   44.7825 H   0  0  0  0  0  0  0  0  0  0  0  0
   57.8746   31.5193   44.1296 H   0  0  0  0  0  0  0  0  0  0  0  0
   59.2450   30.3580   44.1296 H   0  0  0  0  0  0  0  0  0  0  0  0
   59.0440   30.2820   47.0420 C   0  0  0  0  0  0  0  0  0  0  0  0
   59.3060   28.9240   46.7110 C   0  0  0  0  0  0  0  0  0  0  0  0
   59.2989   28.6231   45.6530 H   0  0  0  0  0  0  0  0  0  0  0  0
   59.5710   27.9640   47.6820 C   0  0  0  0  0  0  0  0  0  0  0  0
   59.7635   26.9223   47.3856 H   0  0  0  0  0  0  0  0  0  0  0  0
   59.5930   28.3160   49.0190 C   0  0  0  0  0  0  0  0  0  0  0  0
   59.8092   27.5562   49.7845 H   0  0  0  0  0  0  0  0  0  0  0  0
   59.3420   29.6290   49.3950 C   0  0  0  0  0  0  0  0  0  0  0  0
   59.3630   29.8922   50.4628 H   0  0  0  0  0  0  0  0  0  0  0  0
   59.0600   30.6380   48.4440 C   0  0  0  0  0  0  0  0  0  0  0  0
   58.7320   31.9110   48.9790 C   0  0  0  0  0  0  0  0  0  0  0  0
   57.7780   31.9780   50.0670 N   0  0  0  0  0  0  0  0  0  0  0  0
   56.8050   32.3140   49.8910 H   0  0  0  0  0  0  0  0  0  0  0  0
   58.1470   31.8210   51.4760 C   0  0  0  0  0  0  0  0  0  0  0  0
   58.9227   31.0448   51.5516 H   0  0  0  0  0  0  0  0  0  0  0  0
   58.5088   32.7962   51.8340 H   0  0  0  0  0  0  0  0  0  0  0  0
   56.9490   31.4120   52.3690 C   0  0  0  0  0  0  0  0  0  0  0  0
   57.2417   31.5738   53.4169 H   0  0  0  0  0  0  0  0  0  0  0  0
   56.1064   32.0332   52.0312 H   0  0  0  0  0  0  0  0  0  0  0  0
   56.4790   30.0010   52.2410 N   0  0  0  0  0  0  0  0  0  0  0  0
   56.6590   29.7360   51.2420 H   0  0  0  0  0  0  0  0  0  0  0  0
   55.0230   29.8270   52.4830 C   0  0  0  0  0  0  0  0  0  0  0  0
   54.7442   28.7956   52.2211 H   0  0  0  0  0  0  0  0  0  0  0  0
   54.8362   30.0438   53.5451 H   0  0  0  0  0  0  0  0  0  0  0  0
   54.1620   30.7920   51.6570 C   0  0  0  0  0  0  0  0  0  0  0  0
   53.5846   31.4391   52.3337 H   0  0  0  0  0  0  0  0  0  0  0  0
   54.8123   31.4123   51.0226 H   0  0  0  0  0  0  0  0  0  0  0  0
   53.4719   30.2164   51.0226 H   0  0  0  0  0  0  0  0  0  0  0  0
   57.2780   29.0780   53.0900 C   0  0  0  0  0  0  0  0  0  0  0  0
   57.2415   29.4361   54.1294 H   0  0  0  0  0  0  0  0  0  0  0  0
   56.8414   28.0734   52.9892 H   0  0  0  0  0  0  0  0  0  0  0  0
   58.7460   28.9900   52.6530 C   0  0  0  0  0  0  0  0  0  0  0  0
   59.3917   28.9513   53.5427 H   0  0  0  0  0  0  0  0  0  0  0  0
   58.8957   28.0813   52.0515 H   0  0  0  0  0  0  0  0  0  0  0  0
   59.0032   29.8743   52.0515 H   0  0  0  0  0  0  0  0  0  0  0  0
   59.3110   33.1010   48.4920 C   0  0  0  0  0  0  0  0  0  0  0  0
   59.8460   34.0320   49.3130 C   0  0  0  0  0  0  0  0  0  0  0  0
   59.1662   34.5370   50.0151 H   0  0  0  0  0  0  0  0  0  0  0  0
   61.3030   34.4360   49.3450 C   0  0  0  0  0  0  0  0  0  0  0  0
   61.7636   34.2176   48.3703 H   0  0  0  0  0  0  0  0  0  0  0  0
   61.3759   35.5128   49.5575 H   0  0  0  0  0  0  0  0  0  0  0  0
   62.0370   33.6540   50.4410 C   0  0  0  0  0  0  0  0  0  0  0  0
   62.6087   34.3645   51.0561 H   0  0  0  0  0  0  0  0  0  0  0  0
   61.2771   33.1207   51.0311 H   0  0  0  0  0  0  0  0  0  0  0  0
   63.0070   32.6010   49.8780 C   0  0  0  0  0  0  0  0  0  0  0  0
   63.7567   33.1211   49.2636 H   0  0  0  0  0  0  0  0  0  0  0  0
   63.4389   32.0837   50.7474 H   0  0  0  0  0  0  0  0  0  0  0  0
   62.3490   31.5100   49.0090 C   0  0  0  0  0  0  0  0  0  0  0  0
   62.6783   30.5303   49.3854 H   0  0  0  0  0  0  0  0  0  0  0  0
   61.2635   31.6688   49.0892 H   0  0  0  0  0  0  0  0  0  0  0  0
   62.6820   31.5800   47.5060 C   0  0  0  0  0  0  0  0  0  0  0  0
   63.0954   30.6071   47.2015 H   0  0  0  0  0  0  0  0  0  0  0  0
   61.7426   31.8327   46.9925 H   0  0  0  0  0  0  0  0  0  0  0  0
   63.6940   32.6720   47.1190 C   0  0  0  0  0  0  0  0  0  0  0  0
   64.1933   33.0271   48.0325 H   0  0  0  0  0  0  0  0  0  0  0  0
   64.4062   32.2249   46.4099 H   0  0  0  0  0  0  0  0  0  0  0  0
   63.0440   33.8670   46.4230 C   0  0  0  0  0  0  0  0  0  0  0  0
   62.6623   34.5687   47.1793 H   0  0  0  0  0  0  0  0  0  0  0  0
   63.7899   34.3754   45.7944 H   0  0  0  0  0  0  0  0  0  0  0  0
   62.2119   33.5171   45.7944 H   0  0  0  0  0  0  0  0  0  0  0  0
   59.2680   33.3190   47.1230 C   0  0  0  0  0  0  0  0  0  0  0  0
  1  2  1  0
  2  3  1  0
  2  4  2  0
  4  5  1  0
  5  6  1  0
  6  7  1  0
  7  8  1  0
  8  9  1  0
  8 10  1  0
  8 11  1  0
  7 12  2  0
 12 13  1  0
 13 14  1  0
 13 15  2  0
 15 16  1  0
 15 17  1  0
 17 18  1  0
 17 19  2  0
 19 20  1  0
 19 21  1  0
 21 22  2  0
 22 23  1  0
 23 24  1  0
 23 25  1  0
 25 26  1  0
 25 27  1  0
 25 28  1  0
 28 29  1  0
 28 30  1  0
 28 31  1  0
 31 32  1  0
 31 33  1  0
 33 34  1  0
 33 35  1  0
 33 36  1  0
 36 37  1  0
 36 38  1  0
 36 39  1  0
 31 40  1  0
 40 41  1  0
 40 42  1  0
 40 43  1  0
 43 44  1  0
 43 45  1  0
 43 46  1  0
 22 47  1  0
 47 48  2  0
 48 49  1  0
 48 50  1  0
 50 51  1  0
 50 52  1  0
 50 53  1  0
 53 54  1  0
 53 55  1  0
 53 56  1  0
 56 57  1  0
 56 58  1  0
 56 59  1  0
 59 60  1  0
 59 61  1  0
 59 62  1  0
 62 63  1  0
 62 64  1  0
 62 65  1  0
 65 66  1  0
 65 67  1  0
 65 68  1  0
 68 69  1  0
 68 70  1  0
 68 71  1  0
 47 72  1  0
 72  4  1  0
 72  6  2  0
 21 12  1  0
M  CHG  3   5  -1   7   1  31   1
M  END
>  <UniqueID>  (12) 
12

>  <SMILES>  (12) 
C=c1[n-]c2[n+](C)c3ccccc3c(NCC[NH+](CC)CC)/c(=C\CCCCCCC)c1=2

>  <Energy>  (12) 
112.49158037511498

>  <Genealogy>  (12) 
C=c1[n-]c2[n+](C)c3ccccc3c(NCC[NH+](CC)CC)c(=CCCCCCCC)c1=2 (protonated)
C=c1[n-]c2[n+](C)c3ccccc3c(NCC[NH+](CC)CC)/c(=C\CCCCCCC)c1=2 (cis-trans isomerization)
C=c1[n-]c2[n+](C)c3ccccc3c(NCC[NH+](CC)CC)/c(=C\CCCCCCC)c1=2 (3D coordinates assigned)
C=c1[n-]c2[n+](C)c3ccccc3c(NCC[NH+](CC)CC)/c(=C\CCCCCCC)c1=2 (optimized conformer: 112.49158037511498 kcal/mol)

>  <smiles>  (12) 
C=c1[nH]c2[n+](C)c3ccccc3c(NCCN(CC)CC)c(=CCCCCCCC)c1=2

>  <score_type>  (12) 
oracle

>  <origin>  (12) 
adg

>  <m_score__min__energy>  (12) 
-6.0099999999999998

>  <m_primary>  (12) 
energy

$$$$
12:0
     RDKit          3D

 53 55  0  0  0  0  0  0  0  0999 V2000
   57.2600   32.4470   52.3280 C   0  0  0  0  0  0  0  0  0  0  0  0
   56.5170   31.1920   51.8610 C   0  0  0  0  0  0  0  0  0  0  0  0
   57.4290   30.1510   51.3600 N   0  0  0  0  0  0  0  0  0  0  0  0
   58.0360   29.3690   52.4470 C   0  0  0  0  0  0  0  0  0  0  0  0
   59.4820   29.0310   52.1000 C   0  0  0  0  0  0  0  0  0  0  0  0
   59.8050   29.6050   50.8450 O   0  0  0  0  0  0  0  0  0  0  0  0
   60.3190   28.6440   49.9440 C   0  0  0  0  0  0  0  0  0  0  0  0
   59.7790   28.8690   48.5280 C   0  0  0  0  0  0  0  0  0  0  0  0
   58.7660   29.9270   48.5200 N   0  0  0  0  0  0  0  0  0  0  0  0
   58.5180   30.7160   47.3440 C   0  0  0  0  0  0  0  0  0  0  0  0
   58.7510   32.1080   47.3530 C   0  0  0  0  0  0  0  0  0  0  0  0
   58.6480   32.8300   46.1380 C   0  0  0  0  0  0  0  0  0  0  0  0
   58.1370   32.2230   45.0060 N   0  0  0  0  0  0  0  0  0  0  0  0
   57.7770   33.0440   43.8290 C   0  0  0  0  0  0  0  0  0  0  0  0
   57.9620   30.8540   44.9700 C   0  0  0  0  0  0  0  0  0  0  0  0
   57.6360   30.1750   43.7680 C   0  0  0  0  0  0  0  0  0  0  0  0
   57.4170   28.7980   43.7550 C   0  0  0  0  0  0  0  0  0  0  0  0
   57.5210   28.0620   44.9290 C   0  0  0  0  0  0  0  0  0  0  0  0
   57.8720   28.6940   46.1180 C   0  0  0  0  0  0  0  0  0  0  0  0
   58.1240   30.0840   46.1510 C   0  0  0  0  0  0  0  0  0  0  0  0
   59.0770   34.2920   46.1150 C   0  0  0  0  0  0  0  0  0  0  0  0
   60.1530   34.5920   47.1580 C   0  0  0  0  0  0  0  0  0  0  0  0
   59.6500   34.2430   48.5530 C   0  0  0  0  0  0  0  0  0  0  0  0
   59.1300   32.8370   48.6040 C   0  0  0  0  0  0  0  0  0  0  0  0
   58.9360   32.3240   49.7380 O   0  0  0  0  0  0  0  0  0  0  0  0
   57.2768   32.4753   53.4275 H   0  0  0  0  0  0  0  0  0  0  0  0
   58.2913   32.4260   51.9460 H   0  0  0  0  0  0  0  0  0  0  0  0
   56.7456   33.3411   51.9460 H   0  0  0  0  0  0  0  0  0  0  0  0
   55.9470   30.7836   52.7085 H   0  0  0  0  0  0  0  0  0  0  0  0
   55.8555   31.4841   51.0321 H   0  0  0  0  0  0  0  0  0  0  0  0
   58.1890   30.5990   50.7980 H   0  0  0  0  0  0  0  0  0  0  0  0
   58.0120   29.9569   53.3764 H   0  0  0  0  0  0  0  0  0  0  0  0
   57.4689   28.4361   52.5817 H   0  0  0  0  0  0  0  0  0  0  0  0
   60.1507   29.4367   52.8735 H   0  0  0  0  0  0  0  0  0  0  0  0
   59.6053   27.9391   52.0504 H   0  0  0  0  0  0  0  0  0  0  0  0
   61.4163   28.7196   49.9260 H   0  0  0  0  0  0  0  0  0  0  0  0
   60.0050   27.6456   50.2824 H   0  0  0  0  0  0  0  0  0  0  0  0
   60.6091   29.1595   47.8673 H   0  0  0  0  0  0  0  0  0  0  0  0
   59.3169   27.9355   48.1742 H   0  0  0  0  0  0  0  0  0  0  0  0
   58.2850   30.1750   49.4140 H   0  0  0  0  0  0  0  0  0  0  0  0
   57.3565   34.0031   44.1657 H   0  0  0  0  0  0  0  0  0  0  0  0
   58.6760   33.2303   43.2231 H   0  0  0  0  0  0  0  0  0  0  0  0
   57.0309   32.5090   43.2231 H   0  0  0  0  0  0  0  0  0  0  0  0
   57.5546   30.7443   42.8303 H   0  0  0  0  0  0  0  0  0  0  0  0
   57.1610   28.2926   42.8121 H   0  0  0  0  0  0  0  0  0  0  0  0
   57.3258   26.9795   44.9185 H   0  0  0  0  0  0  0  0  0  0  0  0
   57.9543   28.1046   47.0431 H   0  0  0  0  0  0  0  0  0  0  0  0
   59.4743   34.5294   45.1171 H   0  0  0  0  0  0  0  0  0  0  0  0
   58.1961   34.9072   46.3506 H   0  0  0  0  0  0  0  0  0  0  0  0
   61.0499   33.9951   46.9359 H   0  0  0  0  0  0  0  0  0  0  0  0
   60.3955   35.6644   47.1233 H   0  0  0  0  0  0  0  0  0  0  0  0
   60.4782   34.3458   49.2696 H   0  0  0  0  0  0  0  0  0  0  0  0
   58.8289   34.9285   48.8097 H   0  0  0  0  0  0  0  0  0  0  0  0
  1  2  1  0
  2  3  1  0
  3  4  1  0
  4  5  1  0
  5  6  1  0
  6  7  1  0
  7  8  1  0
  8  9  1  0
  9 10  1  0
 10 11  2  0
 11 12  1  0
 12 13  2  0
 13 14  1  0
 13 15  1  0
 15 16  2  0
 16 17  1  0
 17 18  2  0
 18 19  1  0
 19 20  2  0
 12 21  1  0
 21 22  1  0
 22 23  1  0
 23 24  1  0
 24 25  2  0
 20 10  1  0
 24 11  1  0
 20 15  1  0
  1 26  1  0
  1 27  1  0
  1 28  1  0
  2 29  1  0
  2 30  1  0
  3 31  1  0
  4 32  1  0
  4 33  1  0
  5 34  1  0
  5 35  1  0
  7 36  1  0
  7 37  1  0
  8 38  1  0
  8 39  1  0
  9 40  1  0
 14 41  1  0
 14 42  1  0
 14 43  1  0
 16 44  1  0
 17 45  1  0
 18 46  1  0
 19 47  1  0
 21 48  1  0
 21 49  1  0
 22 50  1  0
 22 51  1  0
 23 52  1  0
 23 53  1  0
M  CHG  1  13   1
M  END
>  <UniqueID>  (13) 
13

>  <SMILES>  (13) 
CCNCCOCCNc1c2c([n+](C)c3ccccc13)CCCC2=O

>  <Energy>  (13) 
73.8100245253159

>  <Genealogy>  (13) 
CCNCCOCCNc1c2c([n+](C)c3ccccc13)CCCC2=O (3D coordinates assigned)
CCNCCOCCNc1c2c([n+](C)c3ccccc13)CCCC2=O (nonaromatic ring conformer: 73.8100245253159 kcal/mol)

>  <smiles>  (13) 
CCNCCOCCNc1c2c([n+](C)c3ccccc13)CCCC2=O

>  <score_type>  (13) 
oracle

>  <origin>  (13) 
adg

>  <m_score__min__energy>  (13) 
-4.6100000000000003

>  <m_primary>  (13) 
energy

$$$$
13:0
     RDKit          3D

 39 41  0  0  0  0  0  0  0  0999 V2000
   63.8510   32.9030   47.9310 C   0  0  0  0  0  0  0  0  0  0  0  0
   62.5450   32.9800   47.1290 C   0  0  0  0  0  0  0  0  0  0  0  0
   61.6350   34.1230   47.6410 C   0  0  0  0  0  0  0  0  0  0  0  0
   60.5720   33.6000   48.6200 C   0  0  0  0  0  0  0  0  0  0  0  0
   59.6820   32.5760   48.0090 N   0  0  0  0  0  0  0  0  0  0  0  0
   58.4000   33.1660   47.5730 C   0  0  0  0  0  0  0  0  0  0  0  0
   58.0300   32.6810   46.1960 C   0  0  0  0  0  0  0  0  0  0  0  0
   57.3940   31.4970   46.0010 N   0  0  0  0  0  0  0  0  0  0  0  0
   57.3070   31.4130   44.6620 C   0  0  0  0  0  0  0  0  0  0  0  0
   56.7510   30.3780   43.9150 C   0  0  0  0  0  0  0  0  0  0  0  0
   56.7910   30.4870   42.5120 C   0  0  0  0  0  0  0  0  0  0  0  0
   57.3830   31.6140   41.9000 C   0  0  0  0  0  0  0  0  0  0  0  0
   57.9380   32.6440   42.6830 C   0  0  0  0  0  0  0  0  0  0  0  0
   57.8760   32.5060   44.0740 C   0  0  0  0  0  0  0  0  0  0  0  0
   58.3300   33.3300   45.0370 N   0  0  0  0  0  0  0  0  0  0  0  0
   59.0550   34.5920   44.8770 C   0  0  0  0  0  0  0  0  0  0  0  0
   60.3190   31.7980   46.9130 C   0  0  0  0  0  0  0  0  0  0  0  0
   61.8220   31.6140   47.1420 C   0  0  0  0  0  0  0  0  0  0  0  0
   63.6220   32.9165   49.0068 H   0  0  0  0  0  0  0  0  0  0  0  0
   64.3807   31.9721   47.6805 H   0  0  0  0  0  0  0  0  0  0  0  0
   64.4865   33.7652   47.6805 H   0  0  0  0  0  0  0  0  0  0  0  0
   62.7930   33.2173   46.0839 H   0  0  0  0  0  0  0  0  0  0  0  0
   62.2561   34.8719   48.1542 H   0  0  0  0  0  0  0  0  0  0  0  0
   61.1198   34.5678   46.7769 H   0  0  0  0  0  0  0  0  0  0  0  0
   61.0813   33.1518   49.4859 H   0  0  0  0  0  0  0  0  0  0  0  0
   59.9432   34.4533   48.9143 H   0  0  0  0  0  0  0  0  0  0  0  0
   57.6101   32.8767   48.2818 H   0  0  0  0  0  0  0  0  0  0  0  0
   58.5065   34.2605   47.5450 H   0  0  0  0  0  0  0  0  0  0  0  0
   56.2958   29.5045   44.4046 H   0  0  0  0  0  0  0  0  0  0  0  0
   56.3589   29.6901   41.8889 H   0  0  0  0  0  0  0  0  0  0  0  0
   57.4106   31.6875   40.8028 H   0  0  0  0  0  0  0  0  0  0  0  0
   58.4036   33.5255   42.2180 H   0  0  0  0  0  0  0  0  0  0  0  0
   59.2930   35.0063   45.8678 H   0  0  0  0  0  0  0  0  0  0  0  0
   59.9871   34.4115   44.3215 H   0  0  0  0  0  0  0  0  0  0  0  0
   58.4295   35.3063   44.3215 H   0  0  0  0  0  0  0  0  0  0  0  0
   59.8439   30.8075   46.8574 H   0  0  0  0  0  0  0  0  0  0  0  0
   60.1830   32.3563   45.9750 H   0  0  0  0  0  0  0  0  0  0  0  0
   61.9826   31.1291   48.1162 H   0  0  0  0  0  0  0  0  0  0  0  0
   62.2301   30.9888   46.3341 H   0  0  0  0  0  0  0  0  0  0  0  0
  1  2  1  0
  2  3  1  0
  3  4  1  0
  4  5  1  0
  5  6  1  0
  6  7  1  0
  7  8  2  0
  8  9  1  0
  9 10  2  0
 10 11  1  0
 11 12  2  0
 12 13  1  0
 13 14  2  0
 14 15  1  0
 15 16  1  0
  5 17  1  0
 17 18  1  0
 18  2  1  0
 15  7  1  0
 14  9  1  0
  1 19  1  0
  1 20  1  0
  1 21  1  0
  2 22  1  0
  3 23  1  0
  3 24  1  0
  4 25  1  0
  4 26  1  0
  6 27  1  0
  6 28  1  0
 10 29  1  0
 11 30  1  0
 12 31  1  0
 13 32  1  0
 16 33  1  0
 16 34  1  0
 16 35  1  0
 17 36  1  0
 17 37  1  0
 18 38  1  0
 18 39  1  0
M  END
>  <UniqueID>  (14) 
14

>  <SMILES>  (14) 
CC1CCN(Cc2nc3ccccc3n2C)CC1

>  <Energy>  (14) 
83.43907597598736

>  <Genealogy>  (14) 
CC1CCN(Cc2nc3ccccc3n2C)CC1 (3D coordinates assigned)
CC1CCN(Cc2nc3ccccc3n2C)CC1 (nonaromatic ring conformer: 83.43907597598736 kcal/mol)

>  <smiles>  (14) 
CC1CCN(Cc2nc3ccccc3n2C)CC1

>  <score_type>  (14) 
oracle

>  <origin>  (14) 
adg

>  <m_score__min__energy>  (14) 
-6.9900000000000002

>  <m_primary>  (14) 
energy

$$$$
14:0
     RDKit          3D

 47 49  0  0  0  0  0  0  0  0999 V2000
   62.9070   33.8490   46.3730 C   0  0  0  0  0  0  0  0  0  0  0  0
   63.7640   33.4160   47.5610 C   0  0  0  0  0  0  0  0  0  0  0  0
   63.6670   31.9660   47.7610 N   0  0  0  0  0  0  0  0  0  0  0  0
   62.2850   31.5100   47.5640 C   0  0  0  0  0  0  0  0  0  0  0  0
   61.4920   31.6640   48.8620 C   0  0  0  0  0  0  0  0  0  0  0  0
   60.0690   31.4220   48.6330 N   0  0  0  0  0  0  0  0  0  0  0  0
   59.5670   31.2280   47.3040 C   0  0  0  0  0  0  0  0  0  0  0  0
   59.2860   32.3650   46.5200 C   0  0  0  0  0  0  0  0  0  0  0  0
   59.5830   33.6650   46.9870 C   0  0  0  0  0  0  0  0  0  0  0  0
   59.3110   34.7830   46.1960 C   0  0  0  0  0  0  0  0  0  0  0  0
   58.7530   34.6240   44.9300 C   0  0  0  0  0  0  0  0  0  0  0  0
   58.4560   33.3480   44.4510 C   0  0  0  0  0  0  0  0  0  0  0  0
   58.7050   32.2030   45.2420 C   0  0  0  0  0  0  0  0  0  0  0  0
   58.3940   30.9550   44.7760 N   0  0  0  0  0  0  0  0  0  0  0  0
   57.9100   30.8580   43.4810 O   0  0  0  0  0  0  0  0  0  0  0  0
   58.5960   29.8320   45.5490 C   0  0  0  0  0  0  0  0  0  0  0  0
   58.0960   28.5770   45.1360 C   0  0  0  0  0  0  0  0  0  0  0  0
   58.3420   27.4200   45.8710 C   0  0  0  0  0  0  0  0  0  0  0  0
   57.7550   26.1110   45.4250 C   0  0  0  0  0  0  0  0  0  0  0  0
   59.1130   27.4920   47.0290 C   0  0  0  0  0  0  0  0  0  0  0  0
   59.6190   28.7170   47.4910 C   0  0  0  0  0  0  0  0  0  0  0  0
   60.5340   28.6550   48.6960 C   0  0  0  0  0  0  0  0  0  0  0  0
   59.2760   29.9290   46.8020 C   0  0  0  0  0  0  0  0  0  0  0  0
   61.9814   34.3167   46.7397 H   0  0  0  0  0  0  0  0  0  0  0  0
   63.4663   34.5727   45.7619 H   0  0  0  0  0  0  0  0  0  0  0  0
   62.6562   32.9694   45.7619 H   0  0  0  0  0  0  0  0  0  0  0  0
   64.8129   33.6858   47.3685 H   0  0  0  0  0  0  0  0  0  0  0  0
   63.4021   33.9257   48.4661 H   0  0  0  0  0  0  0  0  0  0  0  0
   64.2580   31.4970   47.0380 H   0  0  0  0  0  0  0  0  0  0  0  0
   61.8119   32.1126   46.7747 H   0  0  0  0  0  0  0  0  0  0  0  0
   62.2936   30.4499   47.2704 H   0  0  0  0  0  0  0  0  0  0  0  0
   61.8664   30.9406   49.6013 H   0  0  0  0  0  0  0  0  0  0  0  0
   61.6195   32.6916   49.2331 H   0  0  0  0  0  0  0  0  0  0  0  0
   59.4430   31.1700   49.4280 H   0  0  0  0  0  0  0  0  0  0  0  0
   60.0324   33.7975   47.9823 H   0  0  0  0  0  0  0  0  0  0  0  0
   59.5378   35.7910   46.5734 H   0  0  0  0  0  0  0  0  0  0  0  0
   58.5461   35.5063   44.3065 H   0  0  0  0  0  0  0  0  0  0  0  0
   58.0232   33.2314   43.4465 H   0  0  0  0  0  0  0  0  0  0  0  0
   58.1610   30.1100   42.8470 H   0  0  0  0  0  0  0  0  0  0  0  0
   57.4995   28.5123   44.2140 H   0  0  0  0  0  0  0  0  0  0  0  0
   57.4858   25.5106   46.3065 H   0  0  0  0  0  0  0  0  0  0  0  0
   56.8552   26.2995   44.8210 H   0  0  0  0  0  0  0  0  0  0  0  0
   58.4942   25.5645   44.8210 H   0  0  0  0  0  0  0  0  0  0  0  0
   59.3292   26.5719   47.5917 H   0  0  0  0  0  0  0  0  0  0  0  0
   59.9322   28.6958   49.6159 H   0  0  0  0  0  0  0  0  0  0  0  0
   61.1065   27.7160   48.6737 H   0  0  0  0  0  0  0  0  0  0  0  0
   61.2280   29.5082   48.6737 H   0  0  0  0  0  0  0  0  0  0  0  0
  1  2  1  0
  2  3  1  0
  3  4  1  0
  4  5  1  0
  5  6  1  0
  6  7  1  0
  7  8  2  0
  8  9  1  0
  9 10  2  0
 10 11  1  0
 11 12  2  0
 12 13  1  0
 13 14  2  0
 14 15  1  0
 14 16  1  0
 16 17  2  0
 17 18  1  0
 18 19  1  0
 18 20  2  0
 20 21  1  0
 21 22  1  0
 21 23  2  0
 23  7  1  0
 13  8  1  0
 23 16  1  0
  1 24  1  0
  1 25  1  0
  1 26  1  0
  2 27  1  0
  2 28  1  0
  3 29  1  0
  4 30  1  0
  4 31  1  0
  5 32  1  0
  5 33  1  0
  6 34  1  0
  9 35  1  0
 10 36  1  0
 11 37  1  0
 12 38  1  0
 15 39  1  0
 17 40  1  0
 19 41  1  0
 19 42  1  0
 19 43  1  0
 20 44  1  0
 22 45  1  0
 22 46  1  0
 22 47  1  0
M  CHG  1  14   1
M  END
>  <UniqueID>  (15) 
15

>  <SMILES>  (15) 
CCNCCNc1c2ccccc2[n+](O)c2cc(C)cc(C)c12

>  <Energy>  (15) 
70.55177855023983

>  <Genealogy>  (15) 
CCNCCNc1c2ccccc2[n+](O)c2cc(C)cc(C)c12 (protonated)
CCNCCNc1c2ccccc2[n+](O)c2cc(C)cc(C)c12 (3D coordinates assigned)
CCNCCNc1c2ccccc2[n+](O)c2cc(C)cc(C)c12 (optimized conformer: 70.55177855023983 kcal/mol)

>  <smiles>  (15) 
CCNCCNc1c2ccccc2[n+]([O-])c2cc(C)cc(C)c12

>  <score_type>  (15) 
oracle

>  <origin>  (15) 
adg

>  <m_score__min__energy>  (15) 
-6.0800000000000001

>  <m_primary>  (15) 
energy

$$$$
15:0
     RDKit          3D

 61 63  0  0  0  0  0  0  0  0999 V2000
   58.1420   27.2290   43.4330 C   0  0  0  0  0  0  0  0  0  0  0  0
   57.6500   28.3490   44.3570 C   0  0  0  0  0  0  0  0  0  0  0  0
   57.8210   29.7290   43.8260 N   0  0  0  0  0  0  0  0  0  0  0  0
   56.6050   30.2510   43.1370 C   0  0  0  0  0  0  0  0  0  0  0  0
   55.2630   29.7170   43.6720 C   0  0  0  0  0  0  0  0  0  0  0  0
   58.4220   30.6840   44.7940 C   0  0  0  0  0  0  0  0  0  0  0  0
   57.4270   31.6690   45.2510 N   0  0  0  0  0  0  0  0  0  0  0  0
   57.6520   32.9960   44.6510 C   0  0  0  0  0  0  0  0  0  0  0  0
   57.3540   34.1130   45.6630 C   0  0  0  0  0  0  0  0  0  0  0  0
   58.4520   34.3020   46.7250 C   0  0  0  0  0  0  0  0  0  0  0  0
   58.8920   33.0280   47.2930 N   0  0  0  0  0  0  0  0  0  0  0  0
   59.8710   33.0030   48.3460 C   0  0  0  0  0  0  0  0  0  0  0  0
   59.4840   32.6500   49.6510 C   0  0  0  0  0  0  0  0  0  0  0  0
   58.1520   32.2870   49.9450 C   0  0  0  0  0  0  0  0  0  0  0  0
   57.7780   31.9430   51.2430 C   0  0  0  0  0  0  0  0  0  0  0  0
   58.7190   31.9590   52.2670 C   0  0  0  0  0  0  0  0  0  0  0  0
   60.0370   32.3350   52.0030 C   0  0  0  0  0  0  0  0  0  0  0  0
   60.4420   32.7020   50.6960 C   0  0  0  0  0  0  0  0  0  0  0  0
   61.7320   33.1160   50.4330 N   0  0  0  0  0  0  0  0  0  0  0  0
   62.5330   33.6820   51.5390 C   0  0  0  0  0  0  0  0  0  0  0  0
   62.1840   33.1820   49.1270 C   0  0  0  0  0  0  0  0  0  0  0  0
   63.5760   33.1760   48.7790 C   0  0  0  0  0  0  0  0  0  0  0  0
   64.6670   32.7110   49.7140 C   0  0  0  0  0  0  0  0  0  0  0  0
   63.9620   33.4760   47.4640 C   0  0  0  0  0  0  0  0  0  0  0  0
   63.0120   33.6670   46.4700 C   0  0  0  0  0  0  0  0  0  0  0  0
   61.6620   33.5170   46.7590 C   0  0  0  0  0  0  0  0  0  0  0  0
   61.2310   33.2450   48.0710 C   0  0  0  0  0  0  0  0  0  0  0  0
   58.5111   26.3888   44.0396 H   0  0  0  0  0  0  0  0  0  0  0  0
   57.3117   26.8860   42.7982 H   0  0  0  0  0  0  0  0  0  0  0  0
   58.9563   27.6085   42.7982 H   0  0  0  0  0  0  0  0  0  0  0  0
   56.5786   28.1877   44.5468 H   0  0  0  0  0  0  0  0  0  0  0  0
   58.2702   28.2915   45.2637 H   0  0  0  0  0  0  0  0  0  0  0  0
   58.5320   29.6240   43.0610 H   0  0  0  0  0  0  0  0  0  0  0  0
   56.6001   31.3461   43.2403 H   0  0  0  0  0  0  0  0  0  0  0  0
   56.6751   29.9060   42.0949 H   0  0  0  0  0  0  0  0  0  0  0  0
   55.2782   29.7231   44.7719 H   0  0  0  0  0  0  0  0  0  0  0  0
   54.4441   30.3578   43.3131 H   0  0  0  0  0  0  0  0  0  0  0  0
   55.1082   28.6888   43.3131 H   0  0  0  0  0  0  0  0  0  0  0  0
   58.8003   30.1253   45.6628 H   0  0  0  0  0  0  0  0  0  0  0  0
   59.2418   31.2204   44.2939 H   0  0  0  0  0  0  0  0  0  0  0  0
   56.4820   31.3380   44.9450 H   0  0  0  0  0  0  0  0  0  0  0  0
   58.7010   33.0724   44.3288 H   0  0  0  0  0  0  0  0  0  0  0  0
   56.9764   33.1118   43.7907 H   0  0  0  0  0  0  0  0  0  0  0  0
   57.2390   35.0580   45.1118 H   0  0  0  0  0  0  0  0  0  0  0  0
   56.4384   33.8223   46.1988 H   0  0  0  0  0  0  0  0  0  0  0  0
   59.3151   34.7995   46.2585 H   0  0  0  0  0  0  0  0  0  0  0  0
   58.0339   34.9105   47.5404 H   0  0  0  0  0  0  0  0  0  0  0  0
   58.3060   32.1720   47.1650 H   0  0  0  0  0  0  0  0  0  0  0  0
   57.4011   32.2755   49.1412 H   0  0  0  0  0  0  0  0  0  0  0  0
   56.7373   31.6585   51.4577 H   0  0  0  0  0  0  0  0  0  0  0  0
   58.4237   31.6746   53.2877 H   0  0  0  0  0  0  0  0  0  0  0  0
   60.7718   32.3465   52.8215 H   0  0  0  0  0  0  0  0  0  0  0  0
   62.0980   33.3746   52.5014 H   0  0  0  0  0  0  0  0  0  0  0  0
   63.5668   33.3128   51.4693 H   0  0  0  0  0  0  0  0  0  0  0  0
   62.5302   34.7798   51.4693 H   0  0  0  0  0  0  0  0  0  0  0  0
   64.3412   32.8499   50.7554 H   0  0  0  0  0  0  0  0  0  0  0  0
   64.8751   31.6460   49.5338 H   0  0  0  0  0  0  0  0  0  0  0  0
   65.5794   33.2985   49.5338 H   0  0  0  0  0  0  0  0  0  0  0  0
   65.0307   33.5609   47.2176 H   0  0  0  0  0  0  0  0  0  0  0  0
   63.3290   33.9375   45.4520 H   0  0  0  0  0  0  0  0  0  0  0  0
   60.9201   33.6120   45.9524 H   0  0  0  0  0  0  0  0  0  0  0  0
  1  2  1  0
  2  3  1  0
  3  4  1  0
  4  5  1  0
  3  6  1  0
  6  7  1  0
  7  8  1  0
  8  9  1  0
  9 10  1  0
 10 11  1  0
 11 12  1  0
 12 13  2  0
 13 14  1  0
 14 15  2  0
 15 16  1  0
 16 17  2  0
 17 18  1  0
 18 19  2  0
 19 20  1  0
 19 21  1  0
 21 22  2  0
 22 23  1  0
 22 24  1  0
 24 25  2  0
 25 26  1  0
 26 27  2  0
 27 12  1  0
 18 13  1  0
 27 21  1  0
  1 28  1  0
  1 29  1  0
  1 30  1  0
  2 31  1  0
  2 32  1  0
  3 33  1  0
  4 34  1  0
  4 35  1  0
  5 36  1  0
  5 37  1  0
  5 38  1  0
  6 39  1  0
  6 40  1  0
  7 41  1  0
  8 42  1  0
  8 43  1  0
  9 44  1  0
  9 45  1  0
 10 46  1  0
 10 47  1  0
 11 48  1  0
 14 49  1  0
 15 50  1  0
 16 51  1  0
 17 52  1  0
 20 53  1  0
 20 54  1  0
 20 55  1  0
 23 56  1  0
 23 57  1  0
 23 58  1  0
 24 59  1  0
 25 60  1  0
 26 61  1  0
M  CHG  2   3   1  19   1
M  END
>  <UniqueID>  (16) 
16

>  <SMILES>  (16) 
CC[NH+](CC)CNCCCNc1c2ccccc2[n+](C)c2c(C)cccc12

>  <Energy>  (16) 
102.54544126827605

>  <Genealogy>  (16) 
CC[NH+](CC)CNCCCNc1c2ccccc2[n+](C)c2c(C)cccc12 (protonated)
CC[NH+](CC)CNCCCNc1c2ccccc2[n+](C)c2c(C)cccc12 (3D coordinates assigned)
CC[NH+](CC)CNCCCNc1c2ccccc2[n+](C)c2c(C)cccc12 (optimized conformer: 102.54544126827605 kcal/mol)

>  <smiles>  (16) 
CCN(CC)CNCCCNc1c2ccccc2[n+](C)c2c(C)cccc12

>  <score_type>  (16) 
oracle

>  <origin>  (16) 
adg

>  <m_score__min__energy>  (16) 
-4.9800000000000004

>  <m_primary>  (16) 
energy

$$$$
16:0
     RDKit          3D

 50 51  0  0  0  0  0  0  0  0999 V2000
   64.7730   32.5950   49.6850 C   0  0  0  0  0  0  0  0  0  0  0  0
   63.6600   32.2970   48.6740 C   0  0  0  0  0  0  0  0  0  0  0  0
   64.0570   32.6250   47.2900 N   0  0  0  0  0  0  0  0  0  0  0  0
   63.1040   33.5250   46.6120 C   0  0  0  0  0  0  0  0  0  0  0  0
   61.8320   33.7630   47.4520 C   0  0  0  0  0  0  0  0  0  0  0  0
   60.6850   34.3500   46.6180 C   0  0  0  0  0  0  0  0  0  0  0  0
   59.6550   33.3080   46.2620 C   0  0  0  0  0  0  0  0  0  0  0  0
   58.8600   33.4640   45.1180 C   0  0  0  0  0  0  0  0  0  0  0  0
   57.9250   32.4840   44.7700 C   0  0  0  0  0  0  0  0  0  0  0  0
   57.7700   31.3370   45.5550 C   0  0  0  0  0  0  0  0  0  0  0  0
   56.8150   30.3880   45.1500 O   0  0  0  0  0  0  0  0  0  0  0  0
   57.0350   28.9850   44.9770 C   0  0  0  0  0  0  0  0  0  0  0  0
   58.0010   28.7020   43.8020 C   0  0  0  0  0  0  0  0  0  0  0  0
   57.7760   27.3990   43.0050 C   0  0  0  0  0  0  0  0  0  0  0  0
   57.9780   26.1000   43.8040 C   0  0  0  0  0  0  0  0  0  0  0  0
   57.2490   26.0290   45.1710 C   0  0  0  0  0  0  0  0  0  0  0  0
   57.8680   26.8660   46.3040 C   0  0  0  0  0  0  0  0  0  0  0  0
   57.4700   28.3570   46.3170 C   0  0  0  0  0  0  0  0  0  0  0  0
   58.5740   31.1750   46.7000 C   0  0  0  0  0  0  0  0  0  0  0  0
   59.5090   32.1550   47.0480 C   0  0  0  0  0  0  0  0  0  0  0  0
   64.3785   32.4894   50.7064 H   0  0  0  0  0  0  0  0  0  0  0  0
   65.6019   31.8872   49.5371 H   0  0  0  0  0  0  0  0  0  0  0  0
   65.1373   33.6223   49.5371 H   0  0  0  0  0  0  0  0  0  0  0  0
   63.4118   31.2267   48.7265 H   0  0  0  0  0  0  0  0  0  0  0  0
   62.7938   32.9236   48.9329 H   0  0  0  0  0  0  0  0  0  0  0  0
   65.0030   33.0750   47.2950 H   0  0  0  0  0  0  0  0  0  0  0  0
   64.1510   31.7360   46.7450 H   0  0  0  0  0  0  0  0  0  0  0  0
   63.5962   34.4921   46.4320 H   0  0  0  0  0  0  0  0  0  0  0  0
   62.8019   33.0488   45.6675 H   0  0  0  0  0  0  0  0  0  0  0  0
   61.5045   32.8031   47.8779 H   0  0  0  0  0  0  0  0  0  0  0  0
   62.0803   34.4884   48.2407 H   0  0  0  0  0  0  0  0  0  0  0  0
   60.1973   35.1482   47.1968 H   0  0  0  0  0  0  0  0  0  0  0  0
   61.1108   34.7407   45.6820 H   0  0  0  0  0  0  0  0  0  0  0  0
   58.9721   34.3611   44.4914 H   0  0  0  0  0  0  0  0  0  0  0  0
   57.3058   32.6165   43.8706 H   0  0  0  0  0  0  0  0  0  0  0  0
   56.0928   28.4960   44.6888 H   0  0  0  0  0  0  0  0  0  0  0  0
   57.9183   29.5411   43.0955 H   0  0  0  0  0  0  0  0  0  0  0  0
   58.9899   28.5830   44.2688 H   0  0  0  0  0  0  0  0  0  0  0  0
   56.7443   27.4071   42.6236 H   0  0  0  0  0  0  0  0  0  0  0  0
   58.5375   27.3910   42.2113 H   0  0  0  0  0  0  0  0  0  0  0  0
   57.6186   25.2641   43.1859 H   0  0  0  0  0  0  0  0  0  0  0  0
   59.0525   26.0552   44.0354 H   0  0  0  0  0  0  0  0  0  0  0  0
   56.2159   26.3756   45.0210 H   0  0  0  0  0  0  0  0  0  0  0  0
   57.3264   24.9812   45.4969 H   0  0  0  0  0  0  0  0  0  0  0  0
   57.5576   26.4232   47.2619 H   0  0  0  0  0  0  0  0  0  0  0  0
   58.9553   26.8433   46.1391 H   0  0  0  0  0  0  0  0  0  0  0  0
   56.6329   28.4694   47.0217 H   0  0  0  0  0  0  0  0  0  0  0  0
   58.3901   28.8924   46.5942 H   0  0  0  0  0  0  0  0  0  0  0  0
   58.4661   30.2746   47.3226 H   0  0  0  0  0  0  0  0  0  0  0  0
   60.1338   32.0211   47.9434 H   0  0  0  0  0  0  0  0  0  0  0  0
  1  2  1  0
  2  3  1  0
  3  4  1  0
  4  5  1  0
  5  6  1  0
  6  7  1  0
  7  8  2  0
  8  9  1  0
  9 10  2  0
 10 11  1  0
 11 12  1  0
 12 13  1  0
 13 14  1  0
 14 15  1  0
 15 16  1  0
 16 17  1  0
 17 18  1  0
 10 19  1  0
 19 20  2  0
 20  7  1  0
 18 12  1  0
  1 21  1  0
  1 22  1  0
  1 23  1  0
  2 24  1  0
  2 25  1  0
  3 26  1  0
  3 27  1  0
  4 28  1  0
  4 29  1  0
  5 30  1  0
  5 31  1  0
  6 32  1  0
  6 33  1  0
  8 34  1  0
  9 35  1  0
 12 36  1  0
 13 37  1  0
 13 38  1  0
 14 39  1  0
 14 40  1  0
 15 41  1  0
 15 42  1  0
 16 43  1  0
 16 44  1  0
 17 45  1  0
 17 46  1  0
 18 47  1  0
 18 48  1  0
 19 49  1  0
 20 50  1  0
M  CHG  1   3   1
M  END
>  <UniqueID>  (17) 
17

>  <SMILES>  (17) 
CC[NH2+]CCCc1ccc(OC2CCCCCC2)cc1

>  <Energy>  (17) 
53.702626830269715

>  <Genealogy>  (17) 
CC[NH2+]CCCc1ccc(OC2CCCCCC2)cc1 (protonated)
CC[NH2+]CCCc1ccc(OC2CCCCCC2)cc1 (3D coordinates assigned)
CC[NH2+]CCCc1ccc(OC2CCCCCC2)cc1 (nonaromatic ring conformer: 53.702626830269715 kcal/mol)

>  <smiles>  (17) 
CCNCCCc1ccc(OC2CCCCCC2)cc1

>  <score_type>  (17) 
oracle

>  <origin>  (17) 
adg

>  <m_score__min__energy>  (17) 
-4.0099999999999998

>  <m_primary>  (17) 
energy

$$$$
17:0
     RDKit          3D

 50 53  0  0  0  0  0  0  0  0999 V2000
   56.3050   30.0560   43.2840 C   0  0  0  0  0  0  0  0  0  0  0  0
   57.5070   29.8200   44.0770 N   0  0  0  0  0  0  0  0  0  0  0  0
   58.1790   28.6590   44.1890 C   0  0  0  0  0  0  0  0  0  0  0  0
   59.3130   28.8860   44.9420 C   0  0  0  0  0  0  0  0  0  0  0  0
   59.3510   30.1880   45.2830 N   0  0  0  0  0  0  0  0  0  0  0  0
   58.2440   30.7320   44.7440 C   0  0  0  0  0  0  0  0  0  0  0  0
   57.8470   32.4800   44.8600 S   0  0  0  0  0  0  0  0  0  0  0  0
   58.3840   32.6590   46.6020 C   0  0  0  0  0  0  0  0  0  0  0  0
   58.5600   34.1240   47.0230 C   0  0  0  0  0  0  0  0  0  0  0  0
   59.9190   34.7000   46.6010 C   0  0  0  0  0  0  0  0  0  0  0  0
   61.0110   33.9000   47.1890 N   0  0  0  0  0  0  0  0  0  0  0  0
   62.2740   33.9770   46.3730 C   0  0  0  0  0  0  0  0  0  0  0  0
   63.4220   33.0440   46.9150 C   0  0  0  0  0  0  0  0  0  0  0  0
   63.0500   32.5630   48.3270 C   0  0  1  0  0  0  0  0  0  0  0  0
   62.0060   31.4430   48.2770 C   0  0  0  0  0  0  0  0  0  0  0  0
   61.7770   30.6510   47.2070 N   0  0  0  0  0  0  0  0  0  0  0  0
   60.8250   29.8030   47.5630 N   0  0  0  0  0  0  0  0  0  0  0  0
   60.5120   30.1030   48.8370 C   0  0  0  0  0  0  0  0  0  0  0  0
   59.4620   29.4000   49.6310 C   0  0  0  0  0  0  0  0  0  0  0  0
   58.6990   30.3310   50.3090 F   0  0  0  0  0  0  0  0  0  0  0  0
   60.0570   28.5470   50.5430 F   0  0  0  0  0  0  0  0  0  0  0  0
   58.6480   28.6650   48.7900 F   0  0  0  0  0  0  0  0  0  0  0  0
   61.2230   31.1100   49.2780 O   0  0  0  0  0  0  0  0  0  0  0  0
   64.0180   32.3060   49.4910 C   0  0  0  0  0  0  0  0  0  0  0  0
   63.2150   33.3160   50.3470 C   0  0  0  0  0  0  0  0  0  0  0  0
   62.6160   33.8350   49.0550 C   0  0  2  0  0  0  0  0  0  0  0  0
   61.1880   34.1910   48.6500 C   0  0  0  0  0  0  0  0  0  0  0  0
   55.4499   30.2239   43.9553 H   0  0  0  0  0  0  0  0  0  0  0  0
   56.4525   30.9423   42.6494 H   0  0  0  0  0  0  0  0  0  0  0  0
   56.1064   29.1797   42.6494 H   0  0  0  0  0  0  0  0  0  0  0  0
   57.8762   27.6948   43.7548 H   0  0  0  0  0  0  0  0  0  0  0  0
   60.0617   28.1288   45.2179 H   0  0  0  0  0  0  0  0  0  0  0  0
   60.0930   30.6740   45.8340 H   0  0  0  0  0  0  0  0  0  0  0  0
   57.6278   32.1950   47.2522 H   0  0  0  0  0  0  0  0  0  0  0  0
   59.3630   32.1670   46.6987 H   0  0  0  0  0  0  0  0  0  0  0  0
   57.7635   34.7227   46.5570 H   0  0  0  0  0  0  0  0  0  0  0  0
   58.5076   34.1638   48.1210 H   0  0  0  0  0  0  0  0  0  0  0  0
   59.9999   34.6763   45.5042 H   0  0  0  0  0  0  0  0  0  0  0  0
   59.9983   35.7372   46.9587 H   0  0  0  0  0  0  0  0  0  0  0  0
   62.0411   33.6802   45.3397 H   0  0  0  0  0  0  0  0  0  0  0  0
   62.6392   35.0128   46.4335 H   0  0  0  0  0  0  0  0  0  0  0  0
   63.5382   32.1767   46.2484 H   0  0  0  0  0  0  0  0  0  0  0  0
   64.3695   33.6017   46.9495 H   0  0  0  0  0  0  0  0  0  0  0  0
   64.0024   31.2749   49.8738 H   0  0  0  0  0  0  0  0  0  0  0  0
   65.1043   32.4160   49.3577 H   0  0  0  0  0  0  0  0  0  0  0  0
   62.4907   32.8585   51.0370 H   0  0  0  0  0  0  0  0  0  0  0  0
   63.7092   33.9864   51.0656 H   0  0  0  0  0  0  0  0  0  0  0  0
   62.9032   34.8896   48.9309 H   0  0  0  0  0  0  0  0  0  0  0  0
   60.4772   33.5892   49.2352 H   0  0  0  0  0  0  0  0  0  0  0  0
   61.0005   35.2575   48.8432 H   0  0  0  0  0  0  0  0  0  0  0  0
  1  2  1  0
  2  3  1  0
  3  4  2  0
  4  5  1  0
  5  6  2  0
  6  7  1  0
  7  8  1  0
  8  9  1  0
  9 10  1  0
 10 11  1  0
 11 12  1  0
 12 13  1  0
 13 14  1  0
 14 15  1  6
 15 16  2  0
 16 17  1  0
 17 18  2  0
 18 19  1  0
 19 20  1  0
 19 21  1  0
 19 22  1  0
 18 23  1  0
 14 24  1  0
 24 25  1  0
 25 26  1  0
 26 27  1  0
  6  2  1  0
 27 11  1  0
 26 14  1  0
 23 15  1  0
  1 28  1  0
  1 29  1  0
  1 30  1  0
  3 31  1  0
  4 32  1  0
  5 33  1  0
  8 34  1  0
  8 35  1  0
  9 36  1  0
  9 37  1  0
 10 38  1  0
 10 39  1  0
 12 40  1  0
 12 41  1  0
 13 42  1  0
 13 43  1  0
 24 44  1  0
 24 45  1  0
 25 46  1  0
 25 47  1  0
 26 48  1  6
 27 49  1  0
 27 50  1  0
M  CHG  1   5   1
M  END
>  <UniqueID>  (18) 
18

>  <SMILES>  (18) 
Cn1cc[nH+]c1SCCCN1CC[C@@]2(c3nnc(C(F)(F)F)o3)CC[C@@H]2C1

>  <Energy>  (18) 
215.7124475816511

>  <Genealogy>  (18) 
Cn1cc[nH+]c1SCCCN1CCC2(c3nnc(C(F)(F)F)o3)CCC2C1 (protonated)
Cn1cc[nH+]c1SCCCN1CC[C@@]2(c3nnc(C(F)(F)F)o3)CC[C@@H]2C1 (chirality)
Cn1cc[nH+]c1SCCCN1CC[C@@]2(c3nnc(C(F)(F)F)o3)CC[C@@H]2C1 (3D coordinates assigned)
Cn1cc[nH+]c1SCCCN1CC[C@@]2(c3nnc(C(F)(F)F)o3)CC[C@@H]2C1 (nonaromatic ring conformer: 215.7124475816511 kcal/mol)

>  <smiles>  (18) 
Cn1ccnc1SCCCN1CCC2(c3nnc(C(F)(F)F)o3)CCC2C1

>  <score_type>  (18) 
oracle

>  <origin>  (18) 
adg

>  <m_score__min__energy>  (18) 
-5.4500000000000002

>  <m_primary>  (18) 
energy

$$$$
18:0
     RDKit          3D

 58 60  0  0  0  0  0  0  0  0999 V2000
   58.2614   26.9762   45.3877 H   0  0  0  0  0  0  0  0  0  0  0  0
   58.7050   27.7570   46.0230 C   0  0  0  0  0  0  0  0  0  0  0  0
   59.6830   27.4240   46.9490 C   0  0  0  0  0  0  0  0  0  0  0  0
   60.0340   26.3839   47.0197 H   0  0  0  0  0  0  0  0  0  0  0  0
   60.2250   28.3930   47.7900 C   0  0  0  0  0  0  0  0  0  0  0  0
   61.0950   27.9500   48.7300 F   0  0  0  0  0  0  0  0  0  0  0  0
   59.8170   29.7580   47.6890 C   0  0  0  0  0  0  0  0  0  0  0  0
   58.8650   30.0980   46.6730 C   0  0  0  0  0  0  0  0  0  0  0  0
   58.2850   29.0760   45.8970 C   0  0  0  0  0  0  0  0  0  0  0  0
   57.4881   29.3251   45.1808 H   0  0  0  0  0  0  0  0  0  0  0  0
   58.5190   31.4590   46.5300 C   0  0  0  0  0  0  0  0  0  0  0  0
   58.9050   32.3760   47.4850 C   0  0  0  0  0  0  0  0  0  0  0  0
   58.5820   33.6370   46.9830 C   0  0  0  0  0  0  0  0  0  0  0  0
   59.1940   34.9570   47.3580 C   0  0  0  0  0  0  0  0  0  0  0  0
   59.2345   35.0443   48.4538 H   0  0  0  0  0  0  0  0  0  0  0  0
   60.2126   35.0188   46.9474 H   0  0  0  0  0  0  0  0  0  0  0  0
   58.5830   35.7743   46.9474 H   0  0  0  0  0  0  0  0  0  0  0  0
   57.9090   33.4110   45.7890 C   0  0  0  0  0  0  0  0  0  0  0  0
   57.4190   34.4960   44.8690 C   0  0  0  0  0  0  0  0  0  0  0  0
   57.0386   35.3384   45.4654 H   0  0  0  0  0  0  0  0  0  0  0  0
   58.2486   34.8411   44.2345 H   0  0  0  0  0  0  0  0  0  0  0  0
   56.6115   34.1018   44.2345 H   0  0  0  0  0  0  0  0  0  0  0  0
   57.9140   32.0890   45.4830 N   0  0  0  0  0  0  0  0  0  0  0  0
   57.5460   31.5370   44.1740 C   0  0  0  0  0  0  0  0  0  0  0  0
   56.9409   30.6294   44.3158 H   0  0  0  0  0  0  0  0  0  0  0  0
   56.9633   32.2821   43.6125 H   0  0  0  0  0  0  0  0  0  0  0  0
   58.4579   31.2857   43.6125 H   0  0  0  0  0  0  0  0  0  0  0  0
   59.6370   31.9700   48.6190 C   0  0  0  0  0  0  0  0  0  0  0  0
   59.6170   32.6190   49.7580 N   0  0  0  0  0  0  0  0  0  0  0  0
   60.5690   33.5720   50.3230 C   0  0  0  0  0  0  0  0  0  0  0  0
   61.1549   33.0786   51.1125 H   0  0  0  0  0  0  0  0  0  0  0  0
   60.0202   34.4255   50.7476 H   0  0  0  0  0  0  0  0  0  0  0  0
   61.5140   34.0730   49.2260 C   0  0  0  0  0  0  0  0  0  0  0  0
   61.2384   35.1071   48.9715 H   0  0  0  0  0  0  0  0  0  0  0  0
   61.4075   33.3957   48.3658 H   0  0  0  0  0  0  0  0  0  0  0  0
   62.9890   34.0500   49.6480 C   0  0  0  0  0  0  0  0  0  0  0  0
   63.0677   33.6270   50.6604 H   0  0  0  0  0  0  0  0  0  0  0  0
   63.3761   35.0795   49.6314 H   0  0  0  0  0  0  0  0  0  0  0  0
   63.7960   33.2220   48.7090 N   0  0  0  0  0  0  0  0  0  0  0  0
   64.3580   32.0290   49.3850 C   0  0  0  0  0  0  0  0  0  0  0  0
   64.5686   31.2549   48.6324 H   0  0  0  0  0  0  0  0  0  0  0  0
   63.6242   31.6638   50.1186 H   0  0  0  0  0  0  0  0  0  0  0  0
   65.6510   32.3750   50.1210 C   0  0  0  0  0  0  0  0  0  0  0  0
   65.4787   32.3289   51.2064 H   0  0  0  0  0  0  0  0  0  0  0  0
   66.4349   31.6550   49.8433 H   0  0  0  0  0  0  0  0  0  0  0  0
   65.9706   33.3903   49.8433 H   0  0  0  0  0  0  0  0  0  0  0  0
   62.9860   32.8460   47.5260 C   0  0  0  0  0  0  0  0  0  0  0  0
   63.3028   31.8504   47.1819 H   0  0  0  0  0  0  0  0  0  0  0  0
   61.9280   32.8480   47.8271 H   0  0  0  0  0  0  0  0  0  0  0  0
   63.1480   33.8400   46.3740 C   0  0  0  0  0  0  0  0  0  0  0  0
   63.3124   34.8488   46.7805 H   0  0  0  0  0  0  0  0  0  0  0  0
   64.0105   33.5484   45.7567 H   0  0  0  0  0  0  0  0  0  0  0  0
   62.2376   33.8374   45.7567 H   0  0  0  0  0  0  0  0  0  0  0  0
   60.2490   30.7340   48.5840 N   0  0  0  0  0  0  0  0  0  0  0  0
   61.2980   30.4500   49.5850 C   0  0  0  0  0  0  0  0  0  0  0  0
   60.8801   30.5631   50.5962 H   0  0  0  0  0  0  0  0  0  0  0  0
   61.6627   29.4208   49.4520 H   0  0  0  0  0  0  0  0  0  0  0  0
   62.1321   31.1547   49.4520 H   0  0  0  0  0  0  0  0  0  0  0  0
  1  2  1  0
  2  3  2  0
  3  4  1  0
  3  5  1  0
  5  6  1  0
  5  7  2  0
  7  8  1  0
  8  9  2  0
  9 10  1  0
  8 11  1  0
 11 12  2  0
 12 13  1  0
 13 14  1  0
 14 15  1  0
 14 16  1  0
 14 17  1  0
 13 18  2  0
 18 19  1  0
 19 20  1  0
 19 21  1  0
 19 22  1  0
 18 23  1  0
 23 24  1  0
 24 25  1  0
 24 26  1  0
 24 27  1  0
 12 28  1  0
 28 29  2  0
 29 30  1  0
 30 31  1  0
 30 32  1  0
 30 33  1  0
 33 34  1  0
 33 35  1  0
 33 36  1  0
 36 37  1  0
 36 38  1  0
 36 39  1  0
 39 40  1  0
 40 41  1  0
 40 42  1  0
 40 43  1  0
 43 44  1  0
 43 45  1  0
 43 46  1  0
 39 47  1  0
 47 48  1  0
 47 49  1  0
 47 50  1  0
 50 51  1  0
 50 52  1  0
 50 53  1  0
 28 54  1  0
 54 55  1  0
 55 56  1  0
 55 57  1  0
 55 58  1  0
  9  2  1  0
 23 11  1  0
 54  7  1  0
M  END
>  <UniqueID>  (19) 
19

>  <SMILES>  (19) 
CCN(CC)CCC/N=c1\c2c(C)c(C)n(C)c2c2cccc(F)c2n1C

>  <Energy>  (19) 
128.57190186507162

>  <Genealogy>  (19) 
CCN(CC)CCC/N=c1\c2c(C)c(C)n(C)c2c2cccc(F)c2n1C (cis-trans isomerization)
CCN(CC)CCC/N=c1\c2c(C)c(C)n(C)c2c2cccc(F)c2n1C (3D coordinates assigned)
CCN(CC)CCC/N=c1\c2c(C)c(C)n(C)c2c2cccc(F)c2n1C (optimized conformer: 128.57190186507162 kcal/mol)

>  <smiles>  (19) 
CCN(CC)CCCN=c1c2c(C)c(C)n(C)c2c2cccc(F)c2n1C

>  <score_type>  (19) 
oracle

>  <origin>  (19) 
adg

>  <m_score__min__energy>  (19) 
-7.3300000000000001

>  <m_primary>  (19) 
energy

$$$$
19:0
     RDKit          3D

 39 42  0  0  0  0  0  0  0  0999 V2000
   58.1260   32.3740   42.0780 C   0  0  0  0  0  0  0  0  0  0  0  0
   57.7810   32.2340   43.4910 N   0  0  0  0  0  0  0  0  0  0  0  0
   57.1530   31.1920   44.0950 C   0  0  0  0  0  0  0  0  0  0  0  0
   56.5930   29.7580   43.2480 S   0  0  0  0  0  0  0  0  0  0  0  0
   55.0400   29.3420   43.7380 O   0  0  0  0  0  0  0  0  0  0  0  0
   57.7240   28.3800   43.3780 C   0  0  0  0  0  0  0  0  0  0  0  0
   57.8450   27.9190   44.8130 C   0  0  0  0  0  0  0  0  0  0  0  0
   56.9750   26.9160   45.2630 C   0  0  0  0  0  0  0  0  0  0  0  0
   57.0150   26.5140   46.5990 C   0  0  0  0  0  0  0  0  0  0  0  0
   56.2430   25.6080   47.0060 O   0  0  0  0  0  0  0  0  0  0  0  0
   57.8600   27.0860   47.4490 O   0  0  0  0  0  0  0  0  0  0  0  0
   58.7000   28.0500   47.0870 C   0  0  0  0  0  0  0  0  0  0  0  0
   59.5390   28.6220   48.0490 C   0  0  0  0  0  0  0  0  0  0  0  0
   60.4130   29.6510   47.6990 C   0  0  0  0  0  0  0  0  0  0  0  0
   60.4620   30.1080   46.3820 C   0  0  0  0  0  0  0  0  0  0  0  0
   59.6390   29.5410   45.4070 C   0  0  0  0  0  0  0  0  0  0  0  0
   58.7380   28.5070   45.7450 C   0  0  0  0  0  0  0  0  0  0  0  0
   57.1150   31.2900   45.4490 N   0  0  0  0  0  0  0  0  0  0  0  0
   57.7680   32.4420   45.6850 C   0  0  0  0  0  0  0  0  0  0  0  0
   58.0820   32.9980   46.9210 C   0  0  0  0  0  0  0  0  0  0  0  0
   58.8480   34.1800   46.9340 C   0  0  0  0  0  0  0  0  0  0  0  0
   59.2840   34.7610   45.7230 C   0  0  0  0  0  0  0  0  0  0  0  0
   58.9560   34.1690   44.4870 C   0  0  0  0  0  0  0  0  0  0  0  0
   58.1830   33.0070   44.5130 C   0  0  0  0  0  0  0  0  0  0  0  0
   59.1418   32.7862   41.9877 H   0  0  0  0  0  0  0  0  0  0  0  0
   58.0857   31.3884   41.5913 H   0  0  0  0  0  0  0  0  0  0  0  0
   57.4102   33.0528   41.5913 H   0  0  0  0  0  0  0  0  0  0  0  0
   54.6090   28.9720   42.9260 H   0  0  0  0  0  0  0  0  0  0  0  0
   57.3515   27.5482   42.7621 H   0  0  0  0  0  0  0  0  0  0  0  0
   58.7151   28.7026   43.0263 H   0  0  0  0  0  0  0  0  0  0  0  0
   56.2640   26.4479   44.5663 H   0  0  0  0  0  0  0  0  0  0  0  0
   59.5093   28.2584   49.0868 H   0  0  0  0  0  0  0  0  0  0  0  0
   61.0641   30.1025   48.4620 H   0  0  0  0  0  0  0  0  0  0  0  0
   61.1529   30.9196   46.1101 H   0  0  0  0  0  0  0  0  0  0  0  0
   59.6926   29.9018   44.3692 H   0  0  0  0  0  0  0  0  0  0  0  0
   57.7433   32.5301   47.8571 H   0  0  0  0  0  0  0  0  0  0  0  0
   59.1079   34.6530   47.8925 H   0  0  0  0  0  0  0  0  0  0  0  0
   59.8842   35.6826   45.7447 H   0  0  0  0  0  0  0  0  0  0  0  0
   59.2965   34.6064   43.5369 H   0  0  0  0  0  0  0  0  0  0  0  0
  1  2  1  0
  2  3  1  0
  3  4  1  0
  4  5  1  1
  4  6  1  0
  6  7  1  0
  7  8  2  0
  8  9  1  0
  9 10  2  0
  9 11  1  0
 11 12  1  0
 12 13  2  0
 13 14  1  0
 14 15  2  0
 15 16  1  0
 16 17  2  0
  3 18  2  0
 18 19  1  0
 19 20  2  0
 20 21  1  0
 21 22  2  0
 22 23  1  0
 23 24  2  0
 24  2  1  0
 17  7  1  0
 24 19  1  0
 17 12  1  0
  1 25  1  0
  1 26  1  0
  1 27  1  0
  5 28  1  0
  6 29  1  0
  6 30  1  0
  8 31  1  0
 13 32  1  0
 14 33  1  0
 15 34  1  0
 16 35  1  0
 20 36  1  0
 21 37  1  0
 22 38  1  0
 23 39  1  0
M  CHG  1   4   1
M  END
>  <UniqueID>  (20) 
20

>  <SMILES>  (20) 
Cn1c([S@+](O)Cc2cc(=O)oc3ccccc23)nc2ccccc21

>  <Energy>  (20) 
79.7672775604373

>  <Genealogy>  (20) 
Cn1c([S+](O)Cc2cc(=O)oc3ccccc23)nc2ccccc21 (protonated)
Cn1c([S@+](O)Cc2cc(=O)oc3ccccc23)nc2ccccc21 (chirality)
Cn1c([S@+](O)Cc2cc(=O)oc3ccccc23)nc2ccccc21 (3D coordinates assigned)
Cn1c([S@+](O)Cc2cc(=O)oc3ccccc23)nc2ccccc21 (optimized conformer: 79.7672775604373 kcal/mol)

>  <smiles>  (20) 
Cn1c([S+]([O-])Cc2cc(=O)oc3ccccc23)nc2ccccc21

>  <score_type>  (20) 
oracle

>  <origin>  (20) 
adg

>  <m_score__min__energy>  (20) 
-7.9000000000000004

>  <m_primary>  (20) 
energy

$$$$
20:0
     RDKit          3D

 55 56  0  0  0  0  0  0  0  0999 V2000
   63.3570   33.8570   46.3730 C   0  0  0  0  0  0  0  0  0  0  0  0
   63.4420   32.5920   47.2390 C   0  0  0  0  0  0  0  0  0  0  0  0
   62.8230   32.7270   48.5830 N   0  0  2  0  0  0  0  0  0  0  0  0
   63.4270   33.8340   49.3500 C   0  0  0  0  0  0  0  0  0  0  0  0
   62.8580   31.4470   49.3370 C   0  0  0  0  0  0  0  0  0  0  0  0
   61.4910   30.7410   49.3680 C   0  0  0  0  0  0  0  0  0  0  0  0
   60.5170   31.5570   48.7460 O   0  0  0  0  0  0  0  0  0  0  0  0
   59.6980   32.1840   49.7100 C   0  0  0  0  0  0  0  0  0  0  0  0
   59.6310   33.6840   49.4290 C   0  0  0  0  0  0  0  0  0  0  0  0
   60.4180   34.0100   48.2970 O   0  0  0  0  0  0  0  0  0  0  0  0
   59.7560   34.9270   47.4450 C   0  0  0  0  0  0  0  0  0  0  0  0
   59.2590   34.2400   46.1680 C   0  0  0  0  0  0  0  0  0  0  0  0
   59.3490   32.7810   46.2730 N   0  0  0  0  0  0  0  0  0  0  0  0
   58.6130   31.8950   45.4040 C   0  0  0  0  0  0  0  0  0  0  0  0
   58.0260   32.3990   44.2380 C   0  0  0  0  0  0  0  0  0  0  0  0
   57.3650   31.5510   43.3590 C   0  0  0  0  0  0  0  0  0  0  0  0
   57.2700   30.2100   43.6010 N   0  0  0  0  0  0  0  0  0  0  0  0
   56.5620   29.3780   42.6130 C   0  0  0  0  0  0  0  0  0  0  0  0
   57.8230   29.6680   44.7440 C   0  0  0  0  0  0  0  0  0  0  0  0
   57.7320   28.2820   45.0220 C   0  0  0  0  0  0  0  0  0  0  0  0
   58.2650   27.7500   46.1950 C   0  0  0  0  0  0  0  0  0  0  0  0
   58.8920   28.5790   47.1180 C   0  0  0  0  0  0  0  0  0  0  0  0
   59.0050   29.9460   46.8710 C   0  0  0  0  0  0  0  0  0  0  0  0
   58.4970   30.5090   45.6790 C   0  0  0  0  0  0  0  0  0  0  0  0
   63.2975   34.7427   47.0226 H   0  0  0  0  0  0  0  0  0  0  0  0
   64.2524   33.9275   45.7380 H   0  0  0  0  0  0  0  0  0  0  0  0
   62.4602   33.8071   45.7380 H   0  0  0  0  0  0  0  0  0  0  0  0
   62.9333   31.7752   46.7061 H   0  0  0  0  0  0  0  0  0  0  0  0
   64.5116   32.3949   47.4037 H   0  0  0  0  0  0  0  0  0  0  0  0
   61.8190   32.9810   48.4130 H   0  0  0  0  0  0  0  0  0  0  0  0
   63.3189   33.6359   50.4266 H   0  0  0  0  0  0  0  0  0  0  0  0
   64.4945   33.9154   49.0975 H   0  0  0  0  0  0  0  0  0  0  0  0
   62.9177   34.7757   49.0975 H   0  0  0  0  0  0  0  0  0  0  0  0
   63.5896   30.7775   48.8609 H   0  0  0  0  0  0  0  0  0  0  0  0
   63.1366   31.6795   50.3754 H   0  0  0  0  0  0  0  0  0  0  0  0
   61.5621   29.7834   48.8314 H   0  0  0  0  0  0  0  0  0  0  0  0
   61.1994   30.5590   50.4129 H   0  0  0  0  0  0  0  0  0  0  0  0
   58.6852   31.7573   49.6630 H   0  0  0  0  0  0  0  0  0  0  0  0
   60.1215   32.0189   50.7117 H   0  0  0  0  0  0  0  0  0  0  0  0
   58.5862   33.9708   49.2388 H   0  0  0  0  0  0  0  0  0  0  0  0
   60.0194   34.2283   50.3024 H   0  0  0  0  0  0  0  0  0  0  0  0
   58.8956   35.3560   47.9794 H   0  0  0  0  0  0  0  0  0  0  0  0
   60.4692   35.7148   47.1609 H   0  0  0  0  0  0  0  0  0  0  0  0
   58.2098   34.5219   45.9957 H   0  0  0  0  0  0  0  0  0  0  0  0
   59.8945   34.5656   45.3313 H   0  0  0  0  0  0  0  0  0  0  0  0
   60.0170   32.3780   46.9660 H   0  0  0  0  0  0  0  0  0  0  0  0
   58.0886   33.4746   44.0161 H   0  0  0  0  0  0  0  0  0  0  0  0
   56.9085   31.9678   42.4491 H   0  0  0  0  0  0  0  0  0  0  0  0
   55.9349   28.6411   43.1362 H   0  0  0  0  0  0  0  0  0  0  0  0
   55.9272   30.0178   41.9825 H   0  0  0  0  0  0  0  0  0  0  0  0
   57.2952   28.8537   41.9825 H   0  0  0  0  0  0  0  0  0  0  0  0
   57.2337   27.6161   44.3021 H   0  0  0  0  0  0  0  0  0  0  0  0
   58.1892   26.6703   46.3910 H   0  0  0  0  0  0  0  0  0  0  0  0
   59.3005   28.1545   48.0469 H   0  0  0  0  0  0  0  0  0  0  0  0
   59.4953   30.5939   47.6125 H   0  0  0  0  0  0  0  0  0  0  0  0
  1  2  1  0
  2  3  1  0
  3  4  1  0
  3  5  1  0
  5  6  1  0
  6  7  1  0
  7  8  1  0
  8  9  1  0
  9 10  1  0
 10 11  1  0
 11 12  1  0
 12 13  1  0
 13 14  1  0
 14 15  2  0
 15 16  1  0
 16 17  2  0
 17 18  1  0
 17 19  1  0
 19 20  2  0
 20 21  1  0
 21 22  2  0
 22 23  1  0
 23 24  2  0
 24 14  1  0
 24 19  1  0
  1 25  1  0
  1 26  1  0
  1 27  1  0
  2 28  1  0
  2 29  1  0
  3 30  1  6
  4 31  1  0
  4 32  1  0
  4 33  1  0
  5 34  1  0
  5 35  1  0
  6 36  1  0
  6 37  1  0
  8 38  1  0
  8 39  1  0
  9 40  1  0
  9 41  1  0
 11 42  1  0
 11 43  1  0
 12 44  1  0
 12 45  1  0
 13 46  1  0
 15 47  1  0
 16 48  1  0
 18 49  1  0
 18 50  1  0
 18 51  1  0
 20 52  1  0
 21 53  1  0
 22 54  1  0
 23 55  1  0
M  CHG  2   3   1  17   1
M  END
>  <UniqueID>  (21) 
21

>  <SMILES>  (21) 
CC[N@H+](C)CCOCCOCCNc1cc[n+](C)c2ccccc12

>  <Energy>  (21) 
68.43868914347694

>  <Genealogy>  (21) 
CC[NH+](C)CCOCCOCCNc1cc[n+](C)c2ccccc12 (protonated)
CC[N@H+](C)CCOCCOCCNc1cc[n+](C)c2ccccc12 (chirality)
CC[N@H+](C)CCOCCOCCNc1cc[n+](C)c2ccccc12 (3D coordinates assigned)
CC[N@H+](C)CCOCCOCCNc1cc[n+](C)c2ccccc12 (optimized conformer: 68.43868914347694 kcal/mol)

>  <smiles>  (21) 
CCN(C)CCOCCOCCNc1cc[n+](C)c2ccccc12

>  <score_type>  (21) 
oracle

>  <origin>  (21) 
adg

>  <m_score__min__energy>  (21) 
-2.8999999999999999

>  <m_primary>  (21) 
energy

$$$$
21:0
     RDKit          3D

 47 48  0  0  0  0  0  0  0  0999 V2000
   56.2850   29.4190   42.6500 C   0  0  0  0  0  0  0  0  0  0  0  0
   55.7180   29.7310   44.0310 C   0  0  0  0  0  0  0  0  0  0  0  0
   56.2970   30.9150   44.5450 O   0  0  0  0  0  0  0  0  0  0  0  0
   57.0740   31.5800   43.5660 C   0  0  0  0  0  0  0  0  0  0  0  0
   58.2790   32.2770   44.2030 C   0  0  0  0  0  0  0  0  0  0  0  0
   58.6740   31.6010   45.4420 N   0  0  0  0  0  0  0  0  0  0  0  0
   58.6340   32.0950   46.7080 C   0  0  0  0  0  0  0  0  0  0  0  0
   58.1420   33.7740   47.1170 S   0  0  0  0  0  0  0  0  0  0  0  0
   59.6250   34.5620   46.3890 C   0  0  0  0  0  0  0  0  0  0  0  0
   60.8750   33.6650   46.4690 C   0  0  0  0  0  0  0  0  0  0  0  0
   61.1490   33.1560   47.8380 N   0  0  2  0  0  0  0  0  0  0  0  0
   61.0440   34.2240   48.8550 C   0  0  0  0  0  0  0  0  0  0  0  0
   62.4580   32.4580   47.9140 C   0  0  0  0  0  0  0  0  0  0  0  0
   63.5720   33.1080   47.0800 C   0  0  0  0  0  0  0  0  0  0  0  0
   58.9820   31.1880   47.6580 N   0  0  0  0  0  0  0  0  0  0  0  0
   59.2460   30.0850   46.9360 C   0  0  0  0  0  0  0  0  0  0  0  0
   59.6420   28.8370   47.4120 C   0  0  0  0  0  0  0  0  0  0  0  0
   59.8460   27.8120   46.4710 C   0  0  0  0  0  0  0  0  0  0  0  0
   59.6490   28.0540   45.0930 C   0  0  0  0  0  0  0  0  0  0  0  0
   59.2490   29.3270   44.6440 C   0  0  0  0  0  0  0  0  0  0  0  0
   59.0580   30.3230   45.6050 C   0  0  0  0  0  0  0  0  0  0  0  0
   57.2441   28.8913   42.7581 H   0  0  0  0  0  0  0  0  0  0  0  0
   55.5770   28.7835   42.0979 H   0  0  0  0  0  0  0  0  0  0  0  0
   56.4429   30.3572   42.0979 H   0  0  0  0  0  0  0  0  0  0  0  0
   54.6287   29.8638   43.9542 H   0  0  0  0  0  0  0  0  0  0  0  0
   55.9498   28.8965   44.7091 H   0  0  0  0  0  0  0  0  0  0  0  0
   57.4313   30.8448   42.8299 H   0  0  0  0  0  0  0  0  0  0  0  0
   56.4468   32.3404   43.0777 H   0  0  0  0  0  0  0  0  0  0  0  0
   59.1221   32.2578   43.4967 H   0  0  0  0  0  0  0  0  0  0  0  0
   58.0025   33.3151   44.4395 H   0  0  0  0  0  0  0  0  0  0  0  0
   59.4206   34.7873   45.3319 H   0  0  0  0  0  0  0  0  0  0  0  0
   59.8336   35.4746   46.9666 H   0  0  0  0  0  0  0  0  0  0  0  0
   60.7301   32.8044   45.7994 H   0  0  0  0  0  0  0  0  0  0  0  0
   61.7367   34.2813   46.1730 H   0  0  0  0  0  0  0  0  0  0  0  0
   60.4310   32.4340   48.0800 H   0  0  0  0  0  0  0  0  0  0  0  0
   61.0878   33.7789   49.8600 H   0  0  0  0  0  0  0  0  0  0  0  0
   61.8769   34.9317   48.7308 H   0  0  0  0  0  0  0  0  0  0  0  0
   60.0892   34.7560   48.7308 H   0  0  0  0  0  0  0  0  0  0  0  0
   62.7796   32.4431   48.9658 H   0  0  0  0  0  0  0  0  0  0  0  0
   62.3018   31.4511   47.4995 H   0  0  0  0  0  0  0  0  0  0  0  0
   64.3243   33.5470   47.7518 H   0  0  0  0  0  0  0  0  0  0  0  0
   64.0474   32.3455   46.4455 H   0  0  0  0  0  0  0  0  0  0  0  0
   63.1421   33.8970   46.4455 H   0  0  0  0  0  0  0  0  0  0  0  0
   59.7901   28.6594   48.4874 H   0  0  0  0  0  0  0  0  0  0  0  0
   60.1613   26.8143   46.8104 H   0  0  0  0  0  0  0  0  0  0  0  0
   59.8090   27.2433   44.3669 H   0  0  0  0  0  0  0  0  0  0  0  0
   59.0924   29.5303   43.5743 H   0  0  0  0  0  0  0  0  0  0  0  0
  1  2  1  0
  2  3  1  0
  3  4  1  0
  4  5  1  0
  5  6  1  0
  6  7  1  0
  7  8  1  0
  8  9  1  0
  9 10  1  0
 10 11  1  0
 11 12  1  0
 11 13  1  0
 13 14  1  0
  7 15  2  0
 15 16  1  0
 16 17  2  0
 17 18  1  0
 18 19  2  0
 19 20  1  0
 20 21  2  0
 21  6  1  0
 21 16  1  0
  1 22  1  0
  1 23  1  0
  1 24  1  0
  2 25  1  0
  2 26  1  0
  4 27  1  0
  4 28  1  0
  5 29  1  0
  5 30  1  0
  9 31  1  0
  9 32  1  0
 10 33  1  0
 10 34  1  0
 11 35  1  1
 12 36  1  0
 12 37  1  0
 12 38  1  0
 13 39  1  0
 13 40  1  0
 14 41  1  0
 14 42  1  0
 14 43  1  0
 17 44  1  0
 18 45  1  0
 19 46  1  0
 20 47  1  0
M  CHG  1  11   1
M  END
>  <UniqueID>  (22) 
22

>  <SMILES>  (22) 
CCOCCn1c(SCC[N@H+](C)CC)nc2ccccc21

>  <Energy>  (22) 
79.14326637238898

>  <Genealogy>  (22) 
CCOCCn1c(SCC[NH+](C)CC)nc2ccccc21 (protonated)
CCOCCn1c(SCC[N@H+](C)CC)nc2ccccc21 (chirality)
CCOCCn1c(SCC[N@H+](C)CC)nc2ccccc21 (3D coordinates assigned)
CCOCCn1c(SCC[N@H+](C)CC)nc2ccccc21 (optimized conformer: 79.14326637238898 kcal/mol)

>  <smiles>  (22) 
CCOCCn1c(SCCN(C)CC)nc2ccccc21

>  <score_type>  (22) 
oracle

>  <origin>  (22) 
adg

>  <m_score__min__energy>  (22) 
-4.9199999999999999

>  <m_primary>  (22) 
energy

$$$$
22:0
     RDKit          3D

 62 65  0  0  0  0  0  0  0  0999 V2000
   62.7740   33.4160   46.9290 C   0  0  0  0  0  0  0  0  0  0  0  0
   63.7320   33.4820   48.1230 C   0  0  0  0  0  0  0  0  0  0  0  0
   63.2190   32.7460   49.3070 N   0  0  0  0  0  0  0  0  0  0  0  0
   64.3320   32.1190   50.0830 C   0  0  0  0  0  0  0  0  0  0  0  0
   65.6850   32.7620   49.7690 C   0  0  0  0  0  0  0  0  0  0  0  0
   62.4290   33.6800   50.1530 C   0  0  0  0  0  0  0  0  0  0  0  0
   60.9610   33.2280   50.3350 C   0  0  0  0  0  0  0  0  0  0  0  0
   60.5950   32.2080   49.3380 N   0  0  0  0  0  0  0  0  0  0  0  0
   59.5600   31.3020   49.8600 C   0  0  0  0  0  0  0  0  0  0  0  0
   59.3340   30.1240   48.9040 C   0  0  0  0  0  0  0  0  0  0  0  0
   59.9260   30.3700   47.5870 N   0  0  0  0  0  0  0  0  0  0  0  0
   59.1420   30.4280   46.3870 C   0  0  0  0  0  0  0  0  0  0  0  0
   58.8410   31.6620   45.7660 C   0  0  0  0  0  0  0  0  0  0  0  0
   59.3640   32.8680   46.2740 C   0  0  0  0  0  0  0  0  0  0  0  0
   59.0850   34.0820   45.6510 C   0  0  0  0  0  0  0  0  0  0  0  0
   58.2980   34.1160   44.5050 C   0  0  0  0  0  0  0  0  0  0  0  0
   57.7640   32.9390   43.9790 C   0  0  0  0  0  0  0  0  0  0  0  0
   57.9960   31.6900   44.6040 C   0  0  0  0  0  0  0  0  0  0  0  0
   57.4300   30.5190   44.1220 N   0  0  0  0  0  0  0  0  0  0  0  0
   56.4700   30.5240   43.0020 C   0  0  0  0  0  0  0  0  0  0  0  0
   57.8120   29.3310   44.6900 C   0  0  0  0  0  0  0  0  0  0  0  0
   57.4980   28.0890   44.2430 N   0  0  0  0  0  0  0  0  0  0  0  0
   58.1710   27.2450   45.0510 C   0  0  0  0  0  0  0  0  0  0  0  0
   58.2200   25.8550   44.9440 C   0  0  0  0  0  0  0  0  0  0  0  0
   59.0580   25.1540   45.8280 C   0  0  0  0  0  0  0  0  0  0  0  0
   59.8430   25.8500   46.7710 C   0  0  0  0  0  0  0  0  0  0  0  0
   59.7860   27.2520   46.8520 C   0  0  0  0  0  0  0  0  0  0  0  0
   58.9080   27.9250   45.9960 C   0  0  0  0  0  0  0  0  0  0  0  0
   58.6590   29.2710   45.7800 C   0  0  0  0  0  0  0  0  0  0  0  0
   61.7385   33.3447   47.2932 H   0  0  0  0  0  0  0  0  0  0  0  0
   62.8861   34.3240   46.3183 H   0  0  0  0  0  0  0  0  0  0  0  0
   63.0096   32.5320   46.3183 H   0  0  0  0  0  0  0  0  0  0  0  0
   64.6962   33.0436   47.8260 H   0  0  0  0  0  0  0  0  0  0  0  0
   63.8381   34.5392   48.4076 H   0  0  0  0  0  0  0  0  0  0  0  0
   62.5540   32.0160   48.9530 H   0  0  0  0  0  0  0  0  0  0  0  0
   64.1249   32.2347   51.1571 H   0  0  0  0  0  0  0  0  0  0  0  0
   64.3870   31.0575   49.7997 H   0  0  0  0  0  0  0  0  0  0  0  0
   66.2013   33.0074   50.7088 H   0  0  0  0  0  0  0  0  0  0  0  0
   66.2986   32.0592   49.1863 H   0  0  0  0  0  0  0  0  0  0  0  0
   65.5275   33.6816   49.1863 H   0  0  0  0  0  0  0  0  0  0  0  0
   62.9027   33.7430   51.1438 H   0  0  0  0  0  0  0  0  0  0  0  0
   62.4146   34.6555   49.6448 H   0  0  0  0  0  0  0  0  0  0  0  0
   60.8370   32.8062   51.3433 H   0  0  0  0  0  0  0  0  0  0  0  0
   60.3062   34.1014   50.1992 H   0  0  0  0  0  0  0  0  0  0  0  0
   60.1930   32.7070   48.5100 H   0  0  0  0  0  0  0  0  0  0  0  0
   59.8796   30.9156   50.8391 H   0  0  0  0  0  0  0  0  0  0  0  0
   58.6183   31.8620   49.9579 H   0  0  0  0  0  0  0  0  0  0  0  0
   59.7909   29.2218   49.3367 H   0  0  0  0  0  0  0  0  0  0  0  0
   58.2497   29.9942   48.7722 H   0  0  0  0  0  0  0  0  0  0  0  0
   60.9400   30.6150   47.5320 H   0  0  0  0  0  0  0  0  0  0  0  0
   59.9992   32.8503   47.1719 H   0  0  0  0  0  0  0  0  0  0  0  0
   59.4885   35.0170   46.0668 H   0  0  0  0  0  0  0  0  0  0  0  0
   58.0951   35.0771   44.0099 H   0  0  0  0  0  0  0  0  0  0  0  0
   57.1536   32.9822   43.0649 H   0  0  0  0  0  0  0  0  0  0  0  0
   55.4440   30.5293   43.3985 H   0  0  0  0  0  0  0  0  0  0  0  0
   56.6298   31.4213   42.3861 H   0  0  0  0  0  0  0  0  0  0  0  0
   56.6204   29.6251   42.3861 H   0  0  0  0  0  0  0  0  0  0  0  0
   56.9280   27.8130   43.4140 H   0  0  0  0  0  0  0  0  0  0  0  0
   57.6206   25.3235   44.1902 H   0  0  0  0  0  0  0  0  0  0  0  0
   59.1020   24.0558   45.7843 H   0  0  0  0  0  0  0  0  0  0  0  0
   60.5051   25.2909   47.4485 H   0  0  0  0  0  0  0  0  0  0  0  0
   60.4134   27.8038   47.5675 H   0  0  0  0  0  0  0  0  0  0  0  0
  1  2  1  0
  2  3  1  0
  3  4  1  0
  4  5  1  0
  3  6  1  0
  6  7  1  0
  7  8  1  0
  8  9  1  0
  9 10  1  0
 10 11  1  0
 11 12  1  0
 12 13  2  0
 13 14  1  0
 14 15  2  0
 15 16  1  0
 16 17  2  0
 17 18  1  0
 18 19  2  0
 19 20  1  0
 19 21  1  0
 21 22  1  0
 22 23  1  0
 23 24  2  0
 24 25  1  0
 25 26  2  0
 26 27  1  0
 27 28  2  0
 28 29  1  0
 29 12  1  0
 18 13  1  0
 29 21  2  0
 28 23  1  0
  1 30  1  0
  1 31  1  0
  1 32  1  0
  2 33  1  0
  2 34  1  0
  3 35  1  0
  4 36  1  0
  4 37  1  0
  5 38  1  0
  5 39  1  0
  5 40  1  0
  6 41  1  0
  6 42  1  0
  7 43  1  0
  7 44  1  0
  8 45  1  0
  9 46  1  0
  9 47  1  0
 10 48  1  0
 10 49  1  0
 11 50  1  0
 14 51  1  0
 15 52  1  0
 16 53  1  0
 17 54  1  0
 20 55  1  0
 20 56  1  0
 20 57  1  0
 22 58  1  0
 24 59  1  0
 25 60  1  0
 26 61  1  0
 27 62  1  0
M  CHG  2   3   1  19   1
M  END
>  <UniqueID>  (23) 
23

>  <SMILES>  (23) 
CC[NH+](CC)CCNCCNc1c2ccccc2[n+](C)c2[nH]c3ccccc3c12

>  <Energy>  (23) 
118.29506833692191

>  <Genealogy>  (23) 
CC[NH+](CC)CCNCCNc1c2ccccc2[n+](C)c2[nH]c3ccccc3c12 (protonated)
CC[NH+](CC)CCNCCNc1c2ccccc2[n+](C)c2[nH]c3ccccc3c12 (3D coordinates assigned)
CC[NH+](CC)CCNCCNc1c2ccccc2[n+](C)c2[nH]c3ccccc3c12 (optimized conformer: 118.29506833692191 kcal/mol)

>  <smiles>  (23) 
CCN(CC)CCNCCNc1c2ccccc2[n+](C)c2[nH]c3ccccc3c12

>  <score_type>  (23) 
oracle

>  <origin>  (23) 
adg

>  <m_score__min__energy>  (23) 
-5.1600000000000001

>  <m_primary>  (23) 
energy

$$$$
23:0
     RDKit          3D

 62 64  0  0  0  0  0  0  0  0999 V2000
   60.1150   30.0690   47.8490 C   0  0  0  0  0  0  0  0  0  0  0  0
   58.8650   30.2950   48.6850 C   0  0  0  0  0  0  0  0  0  0  0  0
   59.2310   30.4120   50.0450 O   0  0  0  0  0  0  0  0  0  0  0  0
   60.4200   29.6910   50.3110 C   0  0  0  0  0  0  0  0  0  0  0  0
   60.6320   29.5590   51.8160 C   0  0  0  0  0  0  0  0  0  0  0  0
   59.6410   30.2940   52.5030 O   0  0  0  0  0  0  0  0  0  0  0  0
   59.0450   29.4750   53.4850 C   0  0  0  0  0  0  0  0  0  0  0  0
   57.7130   28.9450   52.9540 C   0  0  0  0  0  0  0  0  0  0  0  0
   57.2530   29.7110   51.7870 N   0  0  0  0  0  0  0  0  0  0  0  0
   56.0400   30.5080   52.0540 C   0  0  0  0  0  0  0  0  0  0  0  0
   56.3940   31.9850   52.3120 C   0  0  0  0  0  0  0  0  0  0  0  0
   57.8430   32.2310   52.3830 N   0  0  0  0  0  0  0  0  0  0  0  0
   58.1880   33.6610   52.4010 C   0  0  0  0  0  0  0  0  0  0  0  0
   59.5850   33.8720   51.8150 C   0  0  0  0  0  0  0  0  0  0  0  0
   59.9180   32.8530   50.8140 N   0  0  0  0  0  0  0  0  0  0  0  0
   60.7910   33.0940   49.6930 C   0  0  0  0  0  0  0  0  0  0  0  0
   60.2830   33.5000   48.4380 C   0  0  0  0  0  0  0  0  0  0  0  0
   58.8960   33.6490   48.2340 C   0  0  0  0  0  0  0  0  0  0  0  0
   58.3980   34.0760   47.0070 C   0  0  0  0  0  0  0  0  0  0  0  0
   59.2680   34.3710   45.9640 C   0  0  0  0  0  0  0  0  0  0  0  0
   60.6440   34.2140   46.1280 C   0  0  0  0  0  0  0  0  0  0  0  0
   61.1870   33.7420   47.3510 C   0  0  0  0  0  0  0  0  0  0  0  0
   62.5490   33.5260   47.5070 N   0  0  0  0  0  0  0  0  0  0  0  0
   63.4750   33.6790   46.3650 C   0  0  0  0  0  0  0  0  0  0  0  0
   63.0300   33.1900   48.7510 C   0  0  0  0  0  0  0  0  0  0  0  0
   64.3900   33.0640   49.1190 C   0  0  0  0  0  0  0  0  0  0  0  0
   64.5720   32.7310   50.4570 C   0  0  0  0  0  0  0  0  0  0  0  0
   63.0650   32.6120   51.1950 S   0  0  0  0  0  0  0  0  0  0  0  0
   62.1700   32.9670   49.8160 C   0  0  0  0  0  0  0  0  0  0  0  0
   60.9774   29.9131   48.5137 H   0  0  0  0  0  0  0  0  0  0  0  0
   59.9761   29.1814   47.2143 H   0  0  0  0  0  0  0  0  0  0  0  0
   60.2957   30.9490   47.2143 H   0  0  0  0  0  0  0  0  0  0  0  0
   58.3653   31.2187   48.3576 H   0  0  0  0  0  0  0  0  0  0  0  0
   58.1773   29.4458   48.5589 H   0  0  0  0  0  0  0  0  0  0  0  0
   60.3438   28.6881   49.8657 H   0  0  0  0  0  0  0  0  0  0  0  0
   61.2726   30.2324   49.8751 H   0  0  0  0  0  0  0  0  0  0  0  0
   60.5658   28.4991   52.1029 H   0  0  0  0  0  0  0  0  0  0  0  0
   61.6250   29.9519   52.0796 H   0  0  0  0  0  0  0  0  0  0  0  0
   59.7119   28.6309   53.7148 H   0  0  0  0  0  0  0  0  0  0  0  0
   58.8723   30.0602   54.4003 H   0  0  0  0  0  0  0  0  0  0  0  0
   57.8384   27.8917   52.6629 H   0  0  0  0  0  0  0  0  0  0  0  0
   56.9606   29.0454   53.7501 H   0  0  0  0  0  0  0  0  0  0  0  0
   58.0240   30.3710   51.5290 H   0  0  0  0  0  0  0  0  0  0  0  0
   55.3701   30.4456   51.1838 H   0  0  0  0  0  0  0  0  0  0  0  0
   55.5466   30.1047   52.9506 H   0  0  0  0  0  0  0  0  0  0  0  0
   55.9761   32.5922   51.4955 H   0  0  0  0  0  0  0  0  0  0  0  0
   55.9685   32.2567   53.2893 H   0  0  0  0  0  0  0  0  0  0  0  0
   58.3260   31.7580   51.5840 H   0  0  0  0  0  0  0  0  0  0  0  0
   57.4540   34.2199   51.8020 H   0  0  0  0  0  0  0  0  0  0  0  0
   58.1753   34.0214   53.4402 H   0  0  0  0  0  0  0  0  0  0  0  0
   59.6254   34.8634   51.3402 H   0  0  0  0  0  0  0  0  0  0  0  0
   60.3139   33.7950   52.6353 H   0  0  0  0  0  0  0  0  0  0  0  0
   59.6250   31.8710   51.0190 H   0  0  0  0  0  0  0  0  0  0  0  0
   58.1990   33.4249   49.0550 H   0  0  0  0  0  0  0  0  0  0  0  0
   57.3126   34.1804   46.8620 H   0  0  0  0  0  0  0  0  0  0  0  0
   58.8690   34.7303   45.0039 H   0  0  0  0  0  0  0  0  0  0  0  0
   61.3195   34.4601   45.2955 H   0  0  0  0  0  0  0  0  0  0  0  0
   64.4952   33.8476   46.7402 H   0  0  0  0  0  0  0  0  0  0  0  0
   63.4559   32.7655   45.7525 H   0  0  0  0  0  0  0  0  0  0  0  0
   63.1630   34.5378   45.7525 H   0  0  0  0  0  0  0  0  0  0  0  0
   65.2223   33.2147   48.4157 H   0  0  0  0  0  0  0  0  0  0  0  0
   65.5417   32.5717   50.9513 H   0  0  0  0  0  0  0  0  0  0  0  0
  1  2  1  0
  2  3  1  0
  3  4  1  0
  4  5  1  0
  5  6  1  0
  6  7  1  0
  7  8  1  0
  8  9  1  0
  9 10  1  0
 10 11  1  0
 11 12  1  0
 12 13  1  0
 13 14  1  0
 14 15  1  0
 15 16  1  0
 16 17  2  0
 17 18  1  0
 18 19  2  0
 19 20  1  0
 20 21  2  0
 21 22  1  0
 22 23  2  0
 23 24  1  0
 23 25  1  0
 25 26  1  0
 26 27  2  0
 27 28  1  0
 28 29  1  0
 29 16  1  0
 22 17  1  0
 29 25  2  0
  1 30  1  0
  1 31  1  0
  1 32  1  0
  2 33  1  0
  2 34  1  0
  4 35  1  0
  4 36  1  0
  5 37  1  0
  5 38  1  0
  7 39  1  0
  7 40  1  0
  8 41  1  0
  8 42  1  0
  9 43  1  0
 10 44  1  0
 10 45  1  0
 11 46  1  0
 11 47  1  0
 12 48  1  0
 13 49  1  0
 13 50  1  0
 14 51  1  0
 14 52  1  0
 15 53  1  0
 18 54  1  0
 19 55  1  0
 20 56  1  0
 21 57  1  0
 24 58  1  0
 24 59  1  0
 24 60  1  0
 26 61  1  0
 27 62  1  0
M  CHG  1  23   1
M  END
>  <UniqueID>  (24) 
24

>  <SMILES>  (24) 
CCOCCOCCNCCNCCNc1c2ccccc2[n+](C)c2ccsc12

>  <Energy>  (24) 
101.32951037286317

>  <Genealogy>  (24) 
CCOCCOCCNCCNCCNc1c2ccccc2[n+](C)c2ccsc12 (3D coordinates assigned)
CCOCCOCCNCCNCCNc1c2ccccc2[n+](C)c2ccsc12 (optimized conformer: 101.32951037286317 kcal/mol)

>  <smiles>  (24) 
CCOCCOCCNCCNCCNc1c2ccccc2[n+](C)c2ccsc12

>  <score_type>  (24) 
oracle

>  <origin>  (24) 
adg

>  <m_score__min__energy>  (24) 
-5.1299999999999999

>  <m_primary>  (24) 
energy

$$$$
24:0
     RDKit          3D

 66 69  0  0  0  0  0  0  0  0999 V2000
   64.1080   32.6630   50.0630 C   0  0  0  0  0  0  0  0  0  0  0  0
   63.0480   32.8070   49.0500 N   0  0  0  0  0  0  0  0  0  0  0  0
   62.5830   34.2040   49.0180 C   0  0  0  0  0  0  0  0  0  0  0  0
   63.5380   32.3830   47.7190 C   0  0  0  0  0  0  0  0  0  0  0  0
   62.6070   31.3170   47.1320 C   0  0  0  0  0  0  0  0  0  0  0  0
   61.2750   31.3750   47.7460 N   0  0  0  0  0  0  0  0  0  0  0  0
   60.0960   31.1970   46.9440 C   0  0  0  0  0  0  0  0  0  0  0  0
   59.5100   32.3260   46.3410 C   0  0  0  0  0  0  0  0  0  0  0  0
   59.8970   33.6330   46.7160 C   0  0  0  0  0  0  0  0  0  0  0  0
   59.3040   34.7480   46.1310 C   0  0  0  0  0  0  0  0  0  0  0  0
   58.3050   34.5860   45.1790 C   0  0  0  0  0  0  0  0  0  0  0  0
   57.9040   33.3070   44.7970 C   0  0  0  0  0  0  0  0  0  0  0  0
   58.5110   32.1520   45.3530 C   0  0  0  0  0  0  0  0  0  0  0  0
   58.1490   30.8810   44.9620 N   0  0  0  0  0  0  0  0  0  0  0  0
   57.3720   30.6890   43.7160 C   0  0  0  0  0  0  0  0  0  0  0  0
   58.5050   29.7920   45.7340 C   0  0  0  0  0  0  0  0  0  0  0  0
   57.8710   28.5400   45.5540 C   0  0  0  0  0  0  0  0  0  0  0  0
   58.2150   27.4400   46.3210 C   0  0  0  0  0  0  0  0  0  0  0  0
   59.1860   27.5490   47.3010 C   0  0  0  0  0  0  0  0  0  0  0  0
   59.8540   28.7630   47.5290 C   0  0  0  0  0  0  0  0  0  0  0  0
   60.7750   28.8350   48.6330 N   0  0  0  0  0  0  0  0  0  0  0  0
   60.7770   27.9210   49.7840 C   0  0  0  0  0  0  0  0  0  0  0  0
   60.3060   28.5770   51.0940 C   0  0  0  0  0  0  0  0  0  0  0  0
   60.9200   29.9620   51.3140 C   0  0  0  0  0  0  0  0  0  0  0  0
   60.3160   30.9480   50.3980 N   0  0  0  0  0  0  0  0  0  0  0  0
   58.8680   30.7500   50.2160 C   0  0  0  0  0  0  0  0  0  0  0  0
   58.2230   32.1280   50.1000 C   0  0  0  0  0  0  0  0  0  0  0  0
   59.3530   33.1230   50.2910 C   0  0  0  0  0  0  0  0  0  0  0  0
   60.4690   32.3120   50.9090 C   0  0  0  0  0  0  0  0  0  0  0  0
   59.5050   29.9170   46.7510 C   0  0  0  0  0  0  0  0  0  0  0  0
   63.6652   32.7232   51.0681 H   0  0  0  0  0  0  0  0  0  0  0  0
   64.6042   31.6892   49.9386 H   0  0  0  0  0  0  0  0  0  0  0  0
   64.8460   33.4691   49.9386 H   0  0  0  0  0  0  0  0  0  0  0  0
   62.4601   34.5732   50.0469 H   0  0  0  0  0  0  0  0  0  0  0  0
   63.3230   34.8248   48.4916 H   0  0  0  0  0  0  0  0  0  0  0  0
   61.6186   34.2575   48.4916 H   0  0  0  0  0  0  0  0  0  0  0  0
   63.5648   33.2532   47.0467 H   0  0  0  0  0  0  0  0  0  0  0  0
   64.5484   31.9611   47.8242 H   0  0  0  0  0  0  0  0  0  0  0  0
   62.5098   31.4833   46.0490 H   0  0  0  0  0  0  0  0  0  0  0  0
   63.0406   30.3270   47.3365 H   0  0  0  0  0  0  0  0  0  0  0  0
   61.1610   31.8830   48.6530 H   0  0  0  0  0  0  0  0  0  0  0  0
   60.6766   33.7704   47.4798 H   0  0  0  0  0  0  0  0  0  0  0  0
   59.6265   35.7584   46.4226 H   0  0  0  0  0  0  0  0  0  0  0  0
   57.8298   35.4686   44.7261 H   0  0  0  0  0  0  0  0  0  0  0  0
   57.1032   33.1914   44.0517 H   0  0  0  0  0  0  0  0  0  0  0  0
   56.3325   30.4321   43.9680 H   0  0  0  0  0  0  0  0  0  0  0  0
   57.3877   31.6180   43.1272 H   0  0  0  0  0  0  0  0  0  0  0  0
   57.8186   29.8742   43.1272 H   0  0  0  0  0  0  0  0  0  0  0  0
   57.0879   28.4385   44.7882 H   0  0  0  0  0  0  0  0  0  0  0  0
   57.7145   26.4754   46.1508 H   0  0  0  0  0  0  0  0  0  0  0  0
   59.4389   26.6698   47.9117 H   0  0  0  0  0  0  0  0  0  0  0  0
   61.2140   29.7620   48.8140 H   0  0  0  0  0  0  0  0  0  0  0  0
   60.1091   27.0766   49.5584 H   0  0  0  0  0  0  0  0  0  0  0  0
   61.8180   27.6017   49.9399 H   0  0  0  0  0  0  0  0  0  0  0  0
   59.2111   28.6781   51.0634 H   0  0  0  0  0  0  0  0  0  0  0  0
   60.6315   27.9331   51.9243 H   0  0  0  0  0  0  0  0  0  0  0  0
   60.7409   30.2762   52.3528 H   0  0  0  0  0  0  0  0  0  0  0  0
   62.0004   29.9072   51.1145 H   0  0  0  0  0  0  0  0  0  0  0  0
   58.6812   30.1705   49.2999 H   0  0  0  0  0  0  0  0  0  0  0  0
   58.4446   30.1965   51.0671 H   0  0  0  0  0  0  0  0  0  0  0  0
   57.7628   32.2547   49.1089 H   0  0  0  0  0  0  0  0  0  0  0  0
   57.4255   32.2689   50.8444 H   0  0  0  0  0  0  0  0  0  0  0  0
   59.6675   33.5448   49.3250 H   0  0  0  0  0  0  0  0  0  0  0  0
   59.0579   33.9764   50.9192 H   0  0  0  0  0  0  0  0  0  0  0  0
   61.4463   32.7220   50.6143 H   0  0  0  0  0  0  0  0  0  0  0  0
   60.4200   32.3357   52.0077 H   0  0  0  0  0  0  0  0  0  0  0  0
  1  2  1  0
  2  3  1  0
  2  4  1  0
  4  5  1  0
  5  6  1  0
  6  7  1  0
  7  8  2  0
  8  9  1  0
  9 10  2  0
 10 11  1  0
 11 12  2  0
 12 13  1  0
 13 14  2  0
 14 15  1  0
 14 16  1  0
 16 17  2  0
 17 18  1  0
 18 19  2  0
 19 20  1  0
 20 21  1  0
 21 22  1  0
 22 23  1  0
 23 24  1  0
 24 25  1  0
 25 26  1  0
 26 27  1  0
 27 28  1  0
 28 29  1  0
 20 30  2  0
 30  7  1  0
 13  8  1  0
 30 16  1  0
 29 25  1  0
  1 31  1  0
  1 32  1  0
  1 33  1  0
  3 34  1  0
  3 35  1  0
  3 36  1  0
  4 37  1  0
  4 38  1  0
  5 39  1  0
  5 40  1  0
  6 41  1  0
  9 42  1  0
 10 43  1  0
 11 44  1  0
 12 45  1  0
 15 46  1  0
 15 47  1  0
 15 48  1  0
 17 49  1  0
 18 50  1  0
 19 51  1  0
 21 52  1  0
 22 53  1  0
 22 54  1  0
 23 55  1  0
 23 56  1  0
 24 57  1  0
 24 58  1  0
 26 59  1  0
 26 60  1  0
 27 61  1  0
 27 62  1  0
 28 63  1  0
 28 64  1  0
 29 65  1  0
 29 66  1  0
M  CHG  1  14   1
M  END
>  <UniqueID>  (25) 
25

>  <SMILES>  (25) 
CN(C)CCNc1c2ccccc2[n+](C)c2cccc(NCCCN3CCCC3)c12

>  <Energy>  (25) 
101.94778151599813

>  <Genealogy>  (25) 
CN(C)CCNc1c2ccccc2[n+](C)c2cccc(NCCCN3CCCC3)c12 (3D coordinates assigned)
CN(C)CCNc1c2ccccc2[n+](C)c2cccc(NCCCN3CCCC3)c12 (nonaromatic ring conformer: 101.94778151599813 kcal/mol)

>  <smiles>  (25) 
CN(C)CCNc1c2ccccc2[n+](C)c2cccc(NCCCN3CCCC3)c12

>  <score_type>  (25) 
oracle

>  <origin>  (25) 
adg

>  <m_score__min__energy>  (25) 
-5.8899999999999997

>  <m_primary>  (25) 
energy

$$$$
25:0
     RDKit          3D

111114  0  0  0  0  0  0  0  0999 V2000
   59.4210   33.3250   50.6970 C   0  0  0  0  0  0  0  0  0  0  0  0
   58.5430   32.3220   49.9500 C   0  0  0  0  0  0  0  0  0  0  0  0
   58.1080   31.1280   50.8210 C   0  0  0  0  0  0  0  0  0  0  0  0
   58.7950   29.7910   50.4860 C   0  0  0  0  0  0  0  0  0  0  0  0
   60.2040   29.6770   51.0890 C   0  0  0  0  0  0  0  0  0  0  0  0
   61.0450   28.5830   50.4170 C   0  0  0  0  0  0  0  0  0  0  0  0
   60.3820   28.0230   49.1510 C   0  0  0  0  0  0  0  0  0  0  0  0
   60.8770   28.6880   47.9880 O   0  0  0  0  0  0  0  0  0  0  0  0
   60.7070   30.0520   47.6790 C   0  0  0  0  0  0  0  0  0  0  0  0
   61.4700   31.0280   48.3400 C   0  0  0  0  0  0  0  0  0  0  0  0
   61.3210   32.3840   48.0440 C   0  0  0  0  0  0  0  0  0  0  0  0
   62.0320   33.3920   48.7160 O   0  0  0  0  0  0  0  0  0  0  0  0
   63.2760   33.9580   48.3060 C   0  0  0  0  0  0  0  0  0  0  0  0
   64.5010   33.0540   48.6030 C   0  0  0  0  0  0  0  0  0  0  0  0
   64.7560   32.6740   50.0370 N   0  0  0  0  0  0  0  0  0  0  0  0
   64.1520   33.7620   50.8600 C   0  0  0  0  0  0  0  0  0  0  0  0
   64.0760   31.3880   50.3820 C   0  0  0  0  0  0  0  0  0  0  0  0
   64.4680   30.8630   51.7790 C   0  0  0  0  0  0  0  0  0  0  0  0
   65.9530   30.7100   51.9670 N   0  0  0  0  0  0  0  0  0  0  0  0
   66.3740   31.3910   53.2180 C   0  0  0  0  0  0  0  0  0  0  0  0
   66.2870   29.2690   52.1080 C   0  0  0  0  0  0  0  0  0  0  0  0
   66.7360   31.2500   50.8140 C   0  0  0  0  0  0  0  0  0  0  0  0
   66.2310   32.6290   50.3370 C   0  0  0  0  0  0  0  0  0  0  0  0
   60.4200   32.7700   47.0590 C   0  0  0  0  0  0  0  0  0  0  0  0
   59.6080   31.8320   46.3790 C   0  0  0  0  0  0  0  0  0  0  0  0
   59.7680   30.4500   46.6830 C   0  0  0  0  0  0  0  0  0  0  0  0
   58.9780   29.5100   45.9790 C   0  0  0  0  0  0  0  0  0  0  0  0
   58.9690   28.1240   46.3490 N   0  0  0  0  0  0  0  0  0  0  0  0
   57.7790   27.5480   46.9750 C   0  0  0  0  0  0  0  0  0  0  0  0
   57.7250   26.0290   46.7880 C   0  0  0  0  0  0  0  0  0  0  0  0
   58.6470   25.6000   45.7290 N   0  0  0  0  0  0  0  0  0  0  0  0
   58.1030   25.9380   44.4100 C   0  0  0  0  0  0  0  0  0  0  0  0
   57.3990   24.7240   43.7610 C   0  0  0  0  0  0  0  0  0  0  0  0
   57.2200   23.5290   44.6320 N   0  0  0  0  0  0  0  0  0  0  0  0
   57.9490   22.3310   44.1600 C   0  0  0  0  0  0  0  0  0  0  0  0
   59.3180   22.2420   44.8270 C   0  0  0  0  0  0  0  0  0  0  0  0
   55.8250   23.2190   45.0200 C   0  0  0  0  0  0  0  0  0  0  0  0
   55.0240   24.4770   45.3550 C   0  0  0  0  0  0  0  0  0  0  0  0
   58.1920   29.9320   44.8960 C   0  0  0  0  0  0  0  0  0  0  0  0
   57.5020   28.9940   44.0950 C   0  0  0  0  0  0  0  0  0  0  0  0
   56.7630   29.4100   42.9910 C   0  0  0  0  0  0  0  0  0  0  0  0
   56.7070   30.7570   42.6580 C   0  0  0  0  0  0  0  0  0  0  0  0
   57.3650   31.7030   43.4460 C   0  0  0  0  0  0  0  0  0  0  0  0
   58.0870   31.3150   44.6040 C   0  0  0  0  0  0  0  0  0  0  0  0
   58.6810   32.2420   45.4360 N   0  0  0  0  0  0  0  0  0  0  0  0
   58.3030   33.6700   45.3400 C   0  0  0  0  0  0  0  0  0  0  0  0
   59.2977   33.1842   51.7810 H   0  0  0  0  0  0  0  0  0  0  0  0
   60.4745   33.1648   50.4239 H   0  0  0  0  0  0  0  0  0  0  0  0
   59.1229   34.3480   50.4239 H   0  0  0  0  0  0  0  0  0  0  0  0
   57.6413   32.8429   49.5957 H   0  0  0  0  0  0  0  0  0  0  0  0
   59.1414   31.9194   49.1195 H   0  0  0  0  0  0  0  0  0  0  0  0
   58.3309   31.3723   51.8701 H   0  0  0  0  0  0  0  0  0  0  0  0
   57.0360   30.9795   50.6243 H   0  0  0  0  0  0  0  0  0  0  0  0
   58.1771   28.9703   50.8793 H   0  0  0  0  0  0  0  0  0  0  0  0
   58.8979   29.7369   49.3922 H   0  0  0  0  0  0  0  0  0  0  0  0
   60.7185   30.6417   50.9678 H   0  0  0  0  0  0  0  0  0  0  0  0
   60.0925   29.4081   52.1498 H   0  0  0  0  0  0  0  0  0  0  0  0
   62.0225   29.0076   50.1444 H   0  0  0  0  0  0  0  0  0  0  0  0
   61.1480   27.7547   51.1334 H   0  0  0  0  0  0  0  0  0  0  0  0
   60.6013   26.9479   49.0735 H   0  0  0  0  0  0  0  0  0  0  0  0
   59.2962   28.1862   49.2176 H   0  0  0  0  0  0  0  0  0  0  0  0
   62.1979   30.7186   49.1045 H   0  0  0  0  0  0  0  0  0  0  0  0
   63.2339   34.1406   47.2221 H   0  0  0  0  0  0  0  0  0  0  0  0
   63.4131   34.8845   48.8829 H   0  0  0  0  0  0  0  0  0  0  0  0
   64.3676   32.1219   48.0344 H   0  0  0  0  0  0  0  0  0  0  0  0
   65.3721   33.6613   48.3161 H   0  0  0  0  0  0  0  0  0  0  0  0
   64.2812   33.5292   51.9273 H   0  0  0  0  0  0  0  0  0  0  0  0
   64.6500   34.7154   50.6298 H   0  0  0  0  0  0  0  0  0  0  0  0
   63.0795   33.8436   50.6298 H   0  0  0  0  0  0  0  0  0  0  0  0
   62.9879   31.5480   50.3588 H   0  0  0  0  0  0  0  0  0  0  0  0
   64.3926   30.6364   49.6438 H   0  0  0  0  0  0  0  0  0  0  0  0
   64.0922   31.5688   52.5344 H   0  0  0  0  0  0  0  0  0  0  0  0
   64.0233   29.8625   51.8855 H   0  0  0  0  0  0  0  0  0  0  0  0
   66.0186   30.8161   54.0859 H   0  0  0  0  0  0  0  0  0  0  0  0
   67.4715   31.4583   53.2473 H   0  0  0  0  0  0  0  0  0  0  0  0
   65.9436   32.4029   53.2473 H   0  0  0  0  0  0  0  0  0  0  0  0
   66.3472   29.0093   53.1752 H   0  0  0  0  0  0  0  0  0  0  0  0
   65.5056   28.6627   51.6266 H   0  0  0  0  0  0  0  0  0  0  0  0
   67.2555   29.0683   51.6266 H   0  0  0  0  0  0  0  0  0  0  0  0
   67.7881   31.3482   51.1196 H   0  0  0  0  0  0  0  0  0  0  0  0
   66.6165   30.5472   49.9762 H   0  0  0  0  0  0  0  0  0  0  0  0
   66.4460   33.3667   51.1241 H   0  0  0  0  0  0  0  0  0  0  0  0
   66.7531   32.8490   49.3941 H   0  0  0  0  0  0  0  0  0  0  0  0
   60.3357   33.8359   46.8005 H   0  0  0  0  0  0  0  0  0  0  0  0
   59.7490   27.5140   46.0130 H   0  0  0  0  0  0  0  0  0  0  0  0
   57.7960   27.7751   48.0512 H   0  0  0  0  0  0  0  0  0  0  0  0
   56.8910   27.9862   46.4959 H   0  0  0  0  0  0  0  0  0  0  0  0
   58.0072   25.5394   47.7317 H   0  0  0  0  0  0  0  0  0  0  0  0
   56.7018   25.7458   46.5001 H   0  0  0  0  0  0  0  0  0  0  0  0
   58.7260   24.5560   45.7790 H   0  0  0  0  0  0  0  0  0  0  0  0
   57.3756   26.7556   44.5219 H   0  0  0  0  0  0  0  0  0  0  0  0
   58.9365   26.2426   43.7599 H   0  0  0  0  0  0  0  0  0  0  0  0
   56.4024   25.0509   43.4295 H   0  0  0  0  0  0  0  0  0  0  0  0
   58.0614   24.3991   42.9451 H   0  0  0  0  0  0  0  0  0  0  0  0
   57.3663   21.4315   44.4079 H   0  0  0  0  0  0  0  0  0  0  0  0
   58.0876   22.4046   43.0713 H   0  0  0  0  0  0  0  0  0  0  0  0
   59.1945   22.2500   45.9200 H   0  0  0  0  0  0  0  0  0  0  0  0
   59.8151   21.3096   44.5210 H   0  0  0  0  0  0  0  0  0  0  0  0
   59.9316   23.1022   44.5210 H   0  0  0  0  0  0  0  0  0  0  0  0
   55.3330   22.6979   44.1855 H   0  0  0  0  0  0  0  0  0  0  0  0
   55.8579   22.5903   45.9220 H   0  0  0  0  0  0  0  0  0  0  0  0
   54.9539   24.5870   46.4472 H   0  0  0  0  0  0  0  0  0  0  0  0
   55.5284   25.3570   44.9294 H   0  0  0  0  0  0  0  0  0  0  0  0
   54.0132   24.3922   44.9294 H   0  0  0  0  0  0  0  0  0  0  0  0
   57.5494   27.9242   44.3465 H   0  0  0  0  0  0  0  0  0  0  0  0
   56.2227   28.6707   42.3816 H   0  0  0  0  0  0  0  0  0  0  0  0
   56.1425   31.0795   41.7707 H   0  0  0  0  0  0  0  0  0  0  0  0
   57.3230   32.7656   43.1647 H   0  0  0  0  0  0  0  0  0  0  0  0
   58.1922   34.0887   46.3511 H   0  0  0  0  0  0  0  0  0  0  0  0
   59.0862   34.2210   44.7988 H   0  0  0  0  0  0  0  0  0  0  0  0
   57.3497   33.7614   44.7988 H   0  0  0  0  0  0  0  0  0  0  0  0
  1  2  1  0
  2  3  1  0
  3  4  1  0
  4  5  1  0
  5  6  1  0
  6  7  1  0
  7  8  1  0
  8  9  1  0
  9 10  2  0
 10 11  1  0
 11 12  1  0
 12 13  1  0
 13 14  1  0
 14 15  1  0
 15 16  1  0
 15 17  1  0
 17 18  1  0
 18 19  1  0
 19 20  1  0
 19 21  1  0
 19 22  1  0
 22 23  1  0
 11 24  2  0
 24 25  1  0
 25 26  2  0
 26 27  1  0
 27 28  1  0
 28 29  1  0
 29 30  1  0
 30 31  1  0
 31 32  1  0
 32 33  1  0
 33 34  1  0
 34 35  1  0
 35 36  1  0
 34 37  1  0
 37 38  1  0
 27 39  2  0
 39 40  1  0
 40 41  2  0
 41 42  1  0
 42 43  2  0
 43 44  1  0
 44 45  2  0
 45 46  1  0
 26  9  1  0
 44 39  1  0
 23 15  1  0
 45 25  1  0
  1 47  1  0
  1 48  1  0
  1 49  1  0
  2 50  1  0
  2 51  1  0
  3 52  1  0
  3 53  1  0
  4 54  1  0
  4 55  1  0
  5 56  1  0
  5 57  1  0
  6 58  1  0
  6 59  1  0
  7 60  1  0
  7 61  1  0
 10 62  1  0
 13 63  1  0
 13 64  1  0
 14 65  1  0
 14 66  1  0
 16 67  1  0
 16 68  1  0
 16 69  1  0
 17 70  1  0
 17 71  1  0
 18 72  1  0
 18 73  1  0
 20 74  1  0
 20 75  1  0
 20 76  1  0
 21 77  1  0
 21 78  1  0
 21 79  1  0
 22 80  1  0
 22 81  1  0
 23 82  1  0
 23 83  1  0
 24 84  1  0
 28 85  1  0
 29 86  1  0
 29 87  1  0
 30 88  1  0
 30 89  1  0
 31 90  1  0
 32 91  1  0
 32 92  1  0
 33 93  1  0
 33 94  1  0
 35 95  1  0
 35 96  1  0
 36 97  1  0
 36 98  1  0
 36 99  1  0
 37100  1  0
 37101  1  0
 38102  1  0
 38103  1  0
 38104  1  0
 40105  1  0
 41106  1  0
 42107  1  0
 43108  1  0
 46109  1  0
 46110  1  0
 46111  1  0
M  CHG  3  15   1  19   1  45   1
M  END
>  <UniqueID>  (26) 
26

>  <SMILES>  (26) 
CCCCCCCOc1cc(OCC[N+]2(C)CC[N+](C)(C)CC2)cc2c1c(NCCNCCN(CC)CC)c1ccccc1[n+]2C

>  <Energy>  (26) 
157.26060601587062

>  <Genealogy>  (26) 
CCCCCCCOc1cc(OCC[N+]2(C)CC[N+](C)(C)CC2)cc2c1c(NCCNCCN(CC)CC)c1ccccc1[n+]2C (3D coordinates assigned)
CCCCCCCOc1cc(OCC[N+]2(C)CC[N+](C)(C)CC2)cc2c1c(NCCNCCN(CC)CC)c1ccccc1[n+]2C (nonaromatic ring conformer: 157.26060601587062 kcal/mol)

>  <smiles>  (26) 
CCCCCCCOc1cc(OCC[N+]2(C)CC[N+](C)(C)CC2)cc2c1c(NCCNCCN(CC)CC)c1ccccc1[n+]2C

>  <score_type>  (26) 
oracle

>  <origin>  (26) 
adg

>  <m_score__min__energy>  (26) 
-4.3799999999999999

>  <m_primary>  (26) 
energy

$$$$
