0:0
     RDKit          3D

 69 73  0  0  0  0  0  0  0  0999 V2000
   56.8820   21.1400   43.0330 C   0  0  0  0  0  0  0  0  0  0  0  0
   55.9660   22.1480   43.4490 O   0  0  0  0  0  0  0  0  0  0  0  0
   56.3410   23.3700   44.0240 C   0  0  0  0  0  0  0  0  0  0  0  0
   57.3310   24.1270   43.3890 C   0  0  0  0  0  0  0  0  0  0  0  0
   57.7370   25.3550   43.9190 C   0  0  0  0  0  0  0  0  0  0  0  0
   57.1590   25.8480   45.1020 C   0  0  0  0  0  0  0  0  0  0  0  0
   57.5910   27.1510   45.6670 C   0  0  0  0  0  0  0  0  0  0  0  0
   58.5680   27.2050   46.6770 C   0  0  0  0  0  0  0  0  0  0  0  0
   58.9690   28.4320   47.2120 C   0  0  0  0  0  0  0  0  0  0  0  0
   58.4030   29.6270   46.7440 C   0  0  0  0  0  0  0  0  0  0  0  0
   58.7760   30.9420   47.3700 C   0  0  0  0  0  0  0  0  0  0  0  0
   59.9500   30.7400   48.2450 N   0  0  0  0  0  0  0  0  0  0  0  0
   60.9170   31.8660   48.1890 C   0  0  2  0  0  0  0  0  0  0  0  0
   60.2430   33.2110   47.9330 C   0  0  0  0  0  0  0  0  0  0  0  0
   61.0390   33.8550   46.8030 C   0  0  0  0  0  0  0  0  0  0  0  0
   62.2800   33.0860   46.6140 N   0  0  0  0  0  0  0  0  0  0  0  0
   63.4840   33.7340   47.1920 C   0  0  0  0  0  0  0  0  0  0  0  0
   63.6830   33.4950   48.6770 C   0  0  0  0  0  0  0  0  0  0  0  0
   63.0150   34.2960   49.6230 C   0  0  0  0  0  0  0  0  0  0  0  0
   63.2140   34.0910   50.9910 C   0  0  0  0  0  0  0  0  0  0  0  0
   64.0640   33.0720   51.4310 C   0  0  0  0  0  0  0  0  0  0  0  0
   64.7060   32.2510   50.5020 C   0  0  0  0  0  0  0  0  0  0  0  0
   64.5120   32.4540   49.1320 C   0  0  0  0  0  0  0  0  0  0  0  0
   62.0170   31.7370   47.1290 C   0  0  0  0  0  0  0  0  0  0  0  0
   59.4930   30.1700   49.8430 S   0  0  0  0  0  0  0  0  0  0  0  0
   58.2070   29.3930   49.8100 O   0  0  0  0  0  0  0  0  0  0  0  0
   60.5750   29.2900   50.4090 O   0  0  0  0  0  0  0  0  0  0  0  0
   59.2680   31.5800   50.8710 C   0  0  0  0  0  0  0  0  0  0  0  0
   57.9720   31.9560   51.2520 C   0  0  0  0  0  0  0  0  0  0  0  0
   57.7730   33.0940   52.0370 C   0  0  0  0  0  0  0  0  0  0  0  0
   58.8660   33.8580   52.4540 C   0  0  0  0  0  0  0  0  0  0  0  0
   60.1610   33.4830   52.0830 C   0  0  0  0  0  0  0  0  0  0  0  0
   60.3640   32.3480   51.2920 C   0  0  0  0  0  0  0  0  0  0  0  0
   57.4240   29.5770   45.7410 C   0  0  0  0  0  0  0  0  0  0  0  0
   57.0240   28.3510   45.2050 C   0  0  0  0  0  0  0  0  0  0  0  0
   56.1690   25.0830   45.7440 C   0  0  0  0  0  0  0  0  0  0  0  0
   55.7600   23.8570   45.2100 C   0  0  0  0  0  0  0  0  0  0  0  0
   57.3216   20.6563   43.9178 H   0  0  0  0  0  0  0  0  0  0  0  0
   56.3513   20.3885   42.4300 H   0  0  0  0  0  0  0  0  0  0  0  0
   57.6807   21.5966   42.4300 H   0  0  0  0  0  0  0  0  0  0  0  0
   57.7942   23.7526   42.4642 H   0  0  0  0  0  0  0  0  0  0  0  0
   58.5148   25.9402   43.4065 H   0  0  0  0  0  0  0  0  0  0  0  0
   59.0202   26.2738   47.0489 H   0  0  0  0  0  0  0  0  0  0  0  0
   59.7320   28.4609   48.0038 H   0  0  0  0  0  0  0  0  0  0  0  0
   59.0233   31.6689   46.5823 H   0  0  0  0  0  0  0  0  0  0  0  0
   57.9319   31.3258   47.9617 H   0  0  0  0  0  0  0  0  0  0  0  0
   61.3736   31.8184   49.1886 H   0  0  0  0  0  0  0  0  0  0  0  0
   59.1954   33.0651   47.6310 H   0  0  0  0  0  0  0  0  0  0  0  0
   60.2310   33.8405   48.8350 H   0  0  0  0  0  0  0  0  0  0  0  0
   60.4473   33.8398   45.8758 H   0  0  0  0  0  0  0  0  0  0  0  0
   61.2754   34.8996   47.0539 H   0  0  0  0  0  0  0  0  0  0  0  0
   64.3677   33.3493   46.6619 H   0  0  0  0  0  0  0  0  0  0  0  0
   63.3422   34.8178   47.0686 H   0  0  0  0  0  0  0  0  0  0  0  0
   62.3320   35.0884   49.2830 H   0  0  0  0  0  0  0  0  0  0  0  0
   62.7010   34.7324   51.7227 H   0  0  0  0  0  0  0  0  0  0  0  0
   64.2268   32.9173   52.5078 H   0  0  0  0  0  0  0  0  0  0  0  0
   65.3662   31.4423   50.8486 H   0  0  0  0  0  0  0  0  0  0  0  0
   65.0109   31.7954   48.4058 H   0  0  0  0  0  0  0  0  0  0  0  0
   61.6798   31.0807   46.3132 H   0  0  0  0  0  0  0  0  0  0  0  0
   62.9283   31.2984   47.5617 H   0  0  0  0  0  0  0  0  0  0  0  0
   57.1095   31.3530   50.9317 H   0  0  0  0  0  0  0  0  0  0  0  0
   56.7540   33.3893   52.3275 H   0  0  0  0  0  0  0  0  0  0  0  0
   58.7080   34.7533   53.0733 H   0  0  0  0  0  0  0  0  0  0  0  0
   61.0220   34.0822   52.4142 H   0  0  0  0  0  0  0  0  0  0  0  0
   61.3837   32.0571   50.9996 H   0  0  0  0  0  0  0  0  0  0  0  0
   56.9686   30.5088   45.3744 H   0  0  0  0  0  0  0  0  0  0  0  0
   56.2591   28.3244   44.4149 H   0  0  0  0  0  0  0  0  0  0  0  0
   55.7124   25.4521   46.6742 H   0  0  0  0  0  0  0  0  0  0  0  0
   54.9808   23.2706   45.7190 H   0  0  0  0  0  0  0  0  0  0  0  0
  1  2  1  0
  2  3  1  0
  3  4  2  0
  4  5  1  0
  5  6  2  0
  6  7  1  0
  7  8  2  0
  8  9  1  0
  9 10  2  0
 10 11  1  0
 11 12  1  0
 12 13  1  0
 13 14  1  0
 14 15  1  0
 15 16  1  0
 16 17  1  0
 17 18  1  0
 18 19  2  0
 19 20  1  0
 20 21  2  0
 21 22  1  0
 22 23  2  0
 16 24  1  0
 12 25  1  0
 25 26  2  0
 25 27  2  0
 25 28  1  0
 28 29  2  0
 29 30  1  0
 30 31  2  0
 31 32  1  0
 32 33  2  0
 10 34  1  0
 34 35  2  0
  6 36  1  0
 36 37  2  0
 37  3  1  0
 35  7  1  0
 24 13  1  0
 33 28  1  0
 23 18  1  0
  1 38  1  0
  1 39  1  0
  1 40  1  0
  4 41  1  0
  5 42  1  0
  8 43  1  0
  9 44  1  0
 11 45  1  0
 11 46  1  0
 13 47  1  1
 14 48  1  0
 14 49  1  0
 15 50  1  0
 15 51  1  0
 17 52  1  0
 17 53  1  0
 19 54  1  0
 20 55  1  0
 21 56  1  0
 22 57  1  0
 23 58  1  0
 24 59  1  0
 24 60  1  0
 29 61  1  0
 30 62  1  0
 31 63  1  0
 32 64  1  0
 33 65  1  0
 34 66  1  0
 35 67  1  0
 36 68  1  0
 37 69  1  0
M  END
>  <UniqueID>  (1) 
1

>  <SMILES>  (1) 
COc1ccc(-c2ccc(CN([C@@H]3CCN(Cc4ccccc4)C3)S(=O)(=O)c3ccccc3)cc2)cc1

>  <Energy>  (1) 
91.79732945647424

>  <Genealogy>  (1) 
COc1ccc(-c2ccc(CN([C@@H]3CCN(Cc4ccccc4)C3)S(=O)(=O)c3ccccc3)cc2)cc1 (chirality)
COc1ccc(-c2ccc(CN([C@@H]3CCN(Cc4ccccc4)C3)S(=O)(=O)c3ccccc3)cc2)cc1 (3D coordinates assigned)
COc1ccc(-c2ccc(CN([C@@H]3CCN(Cc4ccccc4)C3)S(=O)(=O)c3ccccc3)cc2)cc1 (nonaromatic ring conformer: 91.79732945647424 kcal/mol)

>  <smiles>  (1) 
COc1ccc(-c2ccc(CN(C3CCN(Cc4ccccc4)C3)S(=O)(=O)c3ccccc3)cc2)cc1

>  <score_type>  (1) 
oracle

>  <origin>  (1) 
adg

>  <m_score__min__energy>  (1) 
-10.33

>  <m_primary>  (1) 
energy

$$$$
1:0
     RDKit          3D

 53 57  0  0  0  0  0  0  0  0999 V2000
   59.7540   33.4490   50.0830 O   0  0  0  0  0  0  0  0  0  0  0  0
   60.4120   32.6570   49.3570 C   0  0  0  0  0  0  0  0  0  0  0  0
   59.8240   32.2220   48.0700 C   0  0  0  0  0  0  0  0  0  0  0  0
   59.5490   30.8590   47.8950 C   0  0  0  0  0  0  0  0  0  0  0  0
   58.9440   30.4040   46.7120 C   0  0  0  0  0  0  0  0  0  0  0  0
   58.6310   28.9680   46.4980 C   0  0  0  0  0  0  0  0  0  0  0  0
   59.3740   27.9830   47.1770 C   0  0  0  0  0  0  0  0  0  0  0  0
   59.0960   26.6270   46.9850 C   0  0  0  0  0  0  0  0  0  0  0  0
   58.0790   26.2360   46.1090 C   0  0  0  0  0  0  0  0  0  0  0  0
   57.7330   24.5330   45.8680 Cl  0  0  0  0  0  0  0  0  0  0  0  0
   57.3440   27.2030   45.4190 C   0  0  0  0  0  0  0  0  0  0  0  0
   57.6180   28.5610   45.6080 C   0  0  0  0  0  0  0  0  0  0  0  0
   58.6530   31.2990   45.7300 N   0  0  0  0  0  0  0  0  0  0  0  0
   58.9220   32.6250   45.8460 C   0  0  0  0  0  0  0  0  0  0  0  0
   58.6070   33.4880   44.7900 C   0  0  0  0  0  0  0  0  0  0  0  0
   58.9060   34.8490   44.8830 C   0  0  0  0  0  0  0  0  0  0  0  0
   59.5280   35.3520   46.0260 C   0  0  0  0  0  0  0  0  0  0  0  0
   59.8450   34.5010   47.0900 C   0  0  0  0  0  0  0  0  0  0  0  0
   59.5290   33.1280   47.0220 C   0  0  0  0  0  0  0  0  0  0  0  0
   61.7270   32.2320   49.7710 N   0  0  0  0  0  0  0  0  0  0  0  0
   62.7390   31.7890   48.8000 C   0  0  0  0  0  0  0  0  0  0  0  0
   64.0580   32.5210   49.0510 C   0  0  0  0  0  0  0  0  0  0  0  0
   64.3930   32.4830   50.4770 N   0  0  0  0  0  0  0  0  0  0  0  0
   65.7690   32.4200   50.8750 C   0  0  0  0  0  0  0  0  0  0  0  0
   66.6190   33.4920   50.5690 C   0  0  0  0  0  0  0  0  0  0  0  0
   67.9660   33.4520   50.9450 C   0  0  0  0  0  0  0  0  0  0  0  0
   69.0260   34.7960   50.5580 Cl  0  0  0  0  0  0  0  0  0  0  0  0
   68.4690   32.3400   51.6260 C   0  0  0  0  0  0  0  0  0  0  0  0
   67.6260   31.2660   51.9330 C   0  0  0  0  0  0  0  0  0  0  0  0
   66.2770   31.2990   51.5590 C   0  0  0  0  0  0  0  0  0  0  0  0
   65.2510   29.9260   51.9510 Cl  0  0  0  0  0  0  0  0  0  0  0  0
   63.3820   32.8960   51.4540 C   0  0  0  0  0  0  0  0  0  0  0  0
   62.0750   32.1490   51.1950 C   0  0  0  0  0  0  0  0  0  0  0  0
   59.8082   30.1421   48.6880 H   0  0  0  0  0  0  0  0  0  0  0  0
   60.1792   28.2833   47.8636 H   0  0  0  0  0  0  0  0  0  0  0  0
   59.6786   25.8656   47.5243 H   0  0  0  0  0  0  0  0  0  0  0  0
   56.5477   26.8953   44.7253 H   0  0  0  0  0  0  0  0  0  0  0  0
   57.0384   29.3168   45.0578 H   0  0  0  0  0  0  0  0  0  0  0  0
   58.1227   33.0933   43.8846 H   0  0  0  0  0  0  0  0  0  0  0  0
   58.6507   35.5253   44.0539 H   0  0  0  0  0  0  0  0  0  0  0  0
   59.7703   36.4230   46.0908 H   0  0  0  0  0  0  0  0  0  0  0  0
   60.3431   34.9044   47.9840 H   0  0  0  0  0  0  0  0  0  0  0  0
   62.8972   30.7057   48.9069 H   0  0  0  0  0  0  0  0  0  0  0  0
   62.3876   32.0153   47.7825 H   0  0  0  0  0  0  0  0  0  0  0  0
   64.8593   32.0337   48.4762 H   0  0  0  0  0  0  0  0  0  0  0  0
   63.9534   33.5692   48.7341 H   0  0  0  0  0  0  0  0  0  0  0  0
   66.2256   34.3674   50.0315 H   0  0  0  0  0  0  0  0  0  0  0  0
   69.5283   32.3090   51.9209 H   0  0  0  0  0  0  0  0  0  0  0  0
   68.0245   30.3927   52.4701 H   0  0  0  0  0  0  0  0  0  0  0  0
   63.7392   32.6655   52.4685 H   0  0  0  0  0  0  0  0  0  0  0  0
   63.2065   33.9778   51.3591 H   0  0  0  0  0  0  0  0  0  0  0  0
   62.1952   31.0935   51.4804 H   0  0  0  0  0  0  0  0  0  0  0  0
   61.2718   32.6058   51.7918 H   0  0  0  0  0  0  0  0  0  0  0  0
  1  2  2  0
  2  3  1  0
  3  4  2  0
  4  5  1  0
  5  6  1  0
  6  7  2  0
  7  8  1  0
  8  9  2  0
  9 10  1  0
  9 11  1  0
 11 12  2  0
  5 13  2  0
 13 14  1  0
 14 15  2  0
 15 16  1  0
 16 17  2  0
 17 18  1  0
 18 19  2  0
  2 20  1  0
 20 21  1  0
 21 22  1  0
 22 23  1  0
 23 24  1  0
 24 25  2  0
 25 26  1  0
 26 27  1  0
 26 28  2  0
 28 29  1  0
 29 30  2  0
 30 31  1  0
 23 32  1  0
 32 33  1  0
 19  3  1  0
 33 20  1  0
 12  6  1  0
 19 14  1  0
 30 24  1  0
  4 34  1  0
  7 35  1  0
  8 36  1  0
 11 37  1  0
 12 38  1  0
 15 39  1  0
 16 40  1  0
 17 41  1  0
 18 42  1  0
 21 43  1  0
 21 44  1  0
 22 45  1  0
 22 46  1  0
 25 47  1  0
 28 48  1  0
 29 49  1  0
 32 50  1  0
 32 51  1  0
 33 52  1  0
 33 53  1  0
M  END
>  <UniqueID>  (2) 
2

>  <SMILES>  (2) 
O=C(c1cc(-c2ccc(Cl)cc2)nc2ccccc12)N1CCN(c2cc(Cl)ccc2Cl)CC1

>  <Energy>  (2) 
79.20951961982054

>  <Genealogy>  (2) 
O=C(c1cc(-c2ccc(Cl)cc2)nc2ccccc12)N1CCN(c2cc(Cl)ccc2Cl)CC1 (3D coordinates assigned)
O=C(c1cc(-c2ccc(Cl)cc2)nc2ccccc12)N1CCN(c2cc(Cl)ccc2Cl)CC1 (nonaromatic ring conformer: 79.20951961982054 kcal/mol)

>  <smiles>  (2) 
O=C(c1cc(-c2ccc(Cl)cc2)nc2ccccc12)N1CCN(c2cc(Cl)ccc2Cl)CC1

>  <score_type>  (2) 
oracle

>  <origin>  (2) 
adg

>  <m_score__min__energy>  (2) 
-9.4100000000000001

>  <m_primary>  (2) 
energy

$$$$
2:0
     RDKit          3D

 58 61  0  0  0  0  0  0  0  0999 V2000
   62.4620   31.2060   47.3600 C   0  0  0  0  0  0  0  0  0  0  0  0
   63.1690   32.4240   47.5710 O   0  0  0  0  0  0  0  0  0  0  0  0
   63.5130   32.9370   48.8310 C   0  0  0  0  0  0  0  0  0  0  0  0
   64.8470   32.9590   49.2860 C   0  0  0  0  0  0  0  0  0  0  0  0
   65.1520   33.4510   50.5590 C   0  0  0  0  0  0  0  0  0  0  0  0
   64.1360   33.9230   51.3880 C   0  0  0  0  0  0  0  0  0  0  0  0
   62.8110   33.9110   50.9480 C   0  0  0  0  0  0  0  0  0  0  0  0
   62.4910   33.4260   49.6700 C   0  0  0  0  0  0  0  0  0  0  0  0
   61.1220   33.4400   49.2300 N   0  0  0  0  0  0  0  0  0  0  0  0
   60.1320   32.5780   49.8900 C   0  0  0  0  0  0  0  0  0  0  0  0
   58.8870   32.4160   49.0140 C   0  0  0  0  0  0  0  0  0  0  0  0
   59.3070   32.1870   47.6200 N   0  0  0  0  0  0  0  0  0  0  0  0
   58.2320   31.6580   46.7530 C   0  0  0  0  0  0  0  0  0  0  0  0
   57.9580   32.5190   45.4980 C   0  0  0  0  0  0  0  0  0  0  0  0
   56.8110   31.9620   44.6420 C   0  0  0  0  0  0  0  0  0  0  0  0
   57.2560   30.8040   43.7390 C   0  0  0  0  0  0  0  0  0  0  0  0
   57.4630   29.5980   44.5380 N   0  0  0  0  0  0  0  0  0  0  0  0
   56.5080   28.7680   45.0140 C   0  0  0  0  0  0  0  0  0  0  0  0
   55.1420   28.9760   44.8580 O   0  0  0  0  0  0  0  0  0  0  0  0
   57.0850   27.6900   45.6550 C   0  0  0  0  0  0  0  0  0  0  0  0
   58.4450   27.8560   45.5550 C   0  0  0  0  0  0  0  0  0  0  0  0
   58.6470   29.0300   44.8560 C   0  0  0  0  0  0  0  0  0  0  0  0
   59.8850   29.5560   44.5080 O   0  0  0  0  0  0  0  0  0  0  0  0
   59.4500   26.8830   46.0780 C   0  0  0  0  0  0  0  0  0  0  0  0
   58.7870   25.7400   46.8230 C   0  0  0  0  0  0  0  0  0  0  0  0
   57.4480   25.5760   46.9220 C   0  0  0  0  0  0  0  0  0  0  0  0
   56.4300   26.5120   46.3010 C   0  0  0  0  0  0  0  0  0  0  0  0
   60.0320   33.3330   47.0130 C   0  0  0  0  0  0  0  0  0  0  0  0
   60.7310   34.2260   48.0560 C   0  0  0  0  0  0  0  0  0  0  0  0
   62.2028   30.7595   48.3313 H   0  0  0  0  0  0  0  0  0  0  0  0
   61.5418   31.4097   46.7928 H   0  0  0  0  0  0  0  0  0  0  0  0
   63.0953   30.5080   46.7928 H   0  0  0  0  0  0  0  0  0  0  0  0
   65.6527   32.5870   48.6360 H   0  0  0  0  0  0  0  0  0  0  0  0
   66.1955   33.4655   50.9066 H   0  0  0  0  0  0  0  0  0  0  0  0
   64.3783   34.3056   52.3905 H   0  0  0  0  0  0  0  0  0  0  0  0
   62.0129   34.2839   51.6068 H   0  0  0  0  0  0  0  0  0  0  0  0
   60.5777   31.5887   50.0707 H   0  0  0  0  0  0  0  0  0  0  0  0
   59.8367   33.0429   50.8422 H   0  0  0  0  0  0  0  0  0  0  0  0
   58.2969   31.5574   49.3671 H   0  0  0  0  0  0  0  0  0  0  0  0
   58.2713   33.3257   49.0717 H   0  0  0  0  0  0  0  0  0  0  0  0
   58.5178   30.6479   46.4243 H   0  0  0  0  0  0  0  0  0  0  0  0
   57.3086   31.6623   47.3508 H   0  0  0  0  0  0  0  0  0  0  0  0
   57.6958   33.5378   45.8194 H   0  0  0  0  0  0  0  0  0  0  0  0
   58.8692   32.5114   44.8819 H   0  0  0  0  0  0  0  0  0  0  0  0
   56.0155   31.6014   45.3107 H   0  0  0  0  0  0  0  0  0  0  0  0
   56.4568   32.7747   43.9908 H   0  0  0  0  0  0  0  0  0  0  0  0
   56.4796   30.6118   42.9839 H   0  0  0  0  0  0  0  0  0  0  0  0
   58.1998   31.0750   43.2432 H   0  0  0  0  0  0  0  0  0  0  0  0
   60.0232   26.4734   45.2332 H   0  0  0  0  0  0  0  0  0  0  0  0
   60.1094   27.4142   46.7801 H   0  0  0  0  0  0  0  0  0  0  0  0
   59.4352   24.9986   47.3131 H   0  0  0  0  0  0  0  0  0  0  0  0
   57.0747   24.7099   47.4881 H   0  0  0  0  0  0  0  0  0  0  0  0
   55.8565   25.9614   45.5407 H   0  0  0  0  0  0  0  0  0  0  0  0
   55.7709   26.8814   47.1004 H   0  0  0  0  0  0  0  0  0  0  0  0
   60.7927   32.9400   46.3224 H   0  0  0  0  0  0  0  0  0  0  0  0
   59.2875   33.9550   46.4945 H   0  0  0  0  0  0  0  0  0  0  0  0
   61.6291   34.6732   47.6050 H   0  0  0  0  0  0  0  0  0  0  0  0
   60.0319   35.0136   48.3737 H   0  0  0  0  0  0  0  0  0  0  0  0
  1  2  1  0
  2  3  1  0
  3  4  2  0
  4  5  1  0
  5  6  2  0
  6  7  1  0
  7  8  2  0
  8  9  1  0
  9 10  1  0
 10 11  1  0
 11 12  1  0
 12 13  1  0
 13 14  1  0
 14 15  1  0
 15 16  1  0
 16 17  1  0
 17 18  1  0
 18 19  1  0
 18 20  2  0
 20 21  1  0
 21 22  2  0
 22 23  1  0
 21 24  1  0
 24 25  1  0
 25 26  2  0
 26 27  1  0
 12 28  1  0
 28 29  1  0
  8  3  1  0
 29  9  1  0
 22 17  1  0
 27 20  1  0
  1 30  1  0
  1 31  1  0
  1 32  1  0
  4 33  1  0
  5 34  1  0
  6 35  1  0
  7 36  1  0
 10 37  1  0
 10 38  1  0
 11 39  1  0
 11 40  1  0
 13 41  1  0
 13 42  1  0
 14 43  1  0
 14 44  1  0
 15 45  1  0
 15 46  1  0
 16 47  1  0
 16 48  1  0
 24 49  1  0
 24 50  1  0
 25 51  1  0
 26 52  1  0
 27 53  1  0
 27 54  1  0
 28 55  1  0
 28 56  1  0
 29 57  1  0
 29 58  1  0
M  CHG  2  19  -1  23  -1
M  END
>  <UniqueID>  (3) 
3

>  <SMILES>  (3) 
COc1ccccc1N1CCN(CCCCn2c([O-])c3c(c2[O-])CC=CC3)CC1

>  <Energy>  (3) 
100.78425368552938

>  <Genealogy>  (3) 
COc1ccccc1N1CCN(CCCCn2c([O-])c3c(c2[O-])CC=CC3)CC1 (protonated)
COc1ccccc1N1CCN(CCCCn2c([O-])c3c(c2[O-])CC=CC3)CC1 (3D coordinates assigned)
COc1ccccc1N1CCN(CCCCn2c([O-])c3c(c2[O-])CC=CC3)CC1 (nonaromatic ring conformer: 100.78425368552938 kcal/mol)

>  <smiles>  (3) 
COc1ccccc1N1CCN(CCCCn2c(O)c3c(c2O)CC=CC3)CC1

>  <score_type>  (3) 
oracle

>  <origin>  (3) 
adg

>  <m_score__min__energy>  (3) 
-12.699999999999999

>  <m_primary>  (3) 
energy

$$$$
3:0
     RDKit          3D

 43 45  0  0  0  0  0  0  0  0999 V2000
   64.8400   32.8590   49.3920 C   0  0  0  0  0  0  0  0  0  0  0  0
   63.6360   33.2930   48.6090 C   0  0  0  0  0  0  0  0  0  0  0  0
   63.5880   33.0950   47.2200 C   0  0  0  0  0  0  0  0  0  0  0  0
   62.4510   33.4670   46.4940 C   0  0  0  0  0  0  0  0  0  0  0  0
   61.3460   34.0230   47.1510 C   0  0  0  0  0  0  0  0  0  0  0  0
   59.9300   34.5120   46.2230 S   0  0  0  0  0  0  0  0  0  0  0  0
   59.9800   36.0020   46.0260 O   0  0  0  0  0  0  0  0  0  0  0  0
   59.9670   33.8570   44.8690 O   0  0  0  0  0  0  0  0  0  0  0  0
   58.4750   34.0880   47.1010 N   0  0  0  0  0  0  0  0  0  0  0  0
   57.3190   33.8750   46.2220 C   0  0  0  0  0  0  0  0  0  0  0  0
   57.4320   32.6120   45.3540 C   0  0  0  0  0  0  0  0  0  0  0  0
   58.1660   31.4840   45.9690 N   0  0  0  0  0  0  0  0  0  0  0  0
   58.2830   30.2300   45.2230 C   0  0  0  0  0  0  0  0  0  0  0  0
   59.4170   29.3910   45.3660 C   0  0  0  0  0  0  0  0  0  0  0  0
   59.5250   28.1940   44.6510 C   0  0  0  0  0  0  0  0  0  0  0  0
   58.5130   27.8050   43.7750 C   0  0  0  0  0  0  0  0  0  0  0  0
   57.3910   28.6140   43.6100 C   0  0  0  0  0  0  0  0  0  0  0  0
   57.2740   29.8110   44.3200 C   0  0  0  0  0  0  0  0  0  0  0  0
   58.9010   31.6230   47.2440 C   0  0  0  0  0  0  0  0  0  0  0  0
   58.6490   32.9360   47.9930 C   0  0  0  0  0  0  0  0  0  0  0  0
   61.3880   34.2100   48.5400 C   0  0  0  0  0  0  0  0  0  0  0  0
   62.5230   33.8390   49.2650 C   0  0  0  0  0  0  0  0  0  0  0  0
   64.6251   32.9365   50.4680 H   0  0  0  0  0  0  0  0  0  0  0  0
   65.0843   31.8162   49.1410 H   0  0  0  0  0  0  0  0  0  0  0  0
   65.6934   33.5061   49.1410 H   0  0  0  0  0  0  0  0  0  0  0  0
   64.4473   32.6458   46.7005 H   0  0  0  0  0  0  0  0  0  0  0  0
   62.4250   33.3223   45.4039 H   0  0  0  0  0  0  0  0  0  0  0  0
   58.2520   34.9140   47.7060 H   0  0  0  0  0  0  0  0  0  0  0  0
   56.4180   33.7882   46.8470 H   0  0  0  0  0  0  0  0  0  0  0  0
   57.2712   34.7345   45.5371 H   0  0  0  0  0  0  0  0  0  0  0  0
   56.4135   32.2677   45.1212 H   0  0  0  0  0  0  0  0  0  0  0  0
   58.0128   32.9044   44.4668 H   0  0  0  0  0  0  0  0  0  0  0  0
   60.2254   29.6866   46.0509 H   0  0  0  0  0  0  0  0  0  0  0  0
   60.4123   27.5568   44.7805 H   0  0  0  0  0  0  0  0  0  0  0  0
   58.6001   26.8619   43.2156 H   0  0  0  0  0  0  0  0  0  0  0  0
   56.5932   28.3085   42.9170 H   0  0  0  0  0  0  0  0  0  0  0  0
   56.3830   30.4398   44.1759 H   0  0  0  0  0  0  0  0  0  0  0  0
   58.6053   30.7922   47.9014 H   0  0  0  0  0  0  0  0  0  0  0  0
   59.9704   31.6145   46.9866 H   0  0  0  0  0  0  0  0  0  0  0  0
   57.7382   32.8230   48.5993 H   0  0  0  0  0  0  0  0  0  0  0  0
   59.5365   33.1339   48.6120 H   0  0  0  0  0  0  0  0  0  0  0  0
   60.5246   34.6502   49.0604 H   0  0  0  0  0  0  0  0  0  0  0  0
   62.5439   33.9758   50.3563 H   0  0  0  0  0  0  0  0  0  0  0  0
  1  2  1  0
  2  3  2  0
  3  4  1  0
  4  5  2  0
  5  6  1  0
  6  7  2  0
  6  8  2  0
  6  9  1  0
  9 10  1  0
 10 11  1  0
 11 12  1  0
 12 13  1  0
 13 14  2  0
 14 15  1  0
 15 16  2  0
 16 17  1  0
 17 18  2  0
 12 19  1  0
 19 20  1  0
  5 21  1  0
 21 22  2  0
 22  2  1  0
 20  9  1  0
 18 13  1  0
  1 23  1  0
  1 24  1  0
  1 25  1  0
  3 26  1  0
  4 27  1  0
  9 28  1  0
 10 29  1  0
 10 30  1  0
 11 31  1  0
 11 32  1  0
 14 33  1  0
 15 34  1  0
 16 35  1  0
 17 36  1  0
 18 37  1  0
 19 38  1  0
 19 39  1  0
 20 40  1  0
 20 41  1  0
 21 42  1  0
 22 43  1  0
M  CHG  1   9   1
M  END
>  <UniqueID>  (4) 
4

>  <SMILES>  (4) 
Cc1ccc(S(=O)(=O)[NH+]2CCN(c3ccccc3)CC2)cc1

>  <Energy>  (4) 
53.55723169397021

>  <Genealogy>  (4) 
Cc1ccc(S(=O)(=O)[NH+]2CCN(c3ccccc3)CC2)cc1 (protonated)
Cc1ccc(S(=O)(=O)[NH+]2CCN(c3ccccc3)CC2)cc1 (3D coordinates assigned)
Cc1ccc(S(=O)(=O)[NH+]2CCN(c3ccccc3)CC2)cc1 (nonaromatic ring conformer: 53.55723169397021 kcal/mol)

>  <smiles>  (4) 
Cc1ccc(S(=O)(=O)N2CCN(c3ccccc3)CC2)cc1

>  <score_type>  (4) 
oracle

>  <origin>  (4) 
adg

>  <m_score__min__energy>  (4) 
-6.4900000000000002

>  <m_primary>  (4) 
energy

$$$$
4:0
     RDKit          3D

 61 64  0  0  0  0  0  0  0  0999 V2000
   59.5810   33.7650   51.6130 C   0  0  0  0  0  0  0  0  0  0  0  0
   58.7830   32.7170   50.8430 C   0  0  0  0  0  0  0  0  0  0  0  0
   59.6010   32.0990   49.7940 N   0  0  0  0  0  0  0  0  0  0  0  0
   60.1710   30.7590   49.9850 C   0  0  0  0  0  0  0  0  0  0  0  0
   59.0600   29.7020   50.0250 C   0  0  0  0  0  0  0  0  0  0  0  0
   58.9540   29.0170   48.7200 N   0  0  0  0  0  0  0  0  0  0  0  0
   58.9340   29.9740   47.5800 C   0  0  0  0  0  0  0  0  0  0  0  0
   60.2930   30.0750   46.8650 C   0  0  0  0  0  0  0  0  0  0  0  0
   60.7710   28.7560   46.3870 N   0  0  0  0  0  0  0  0  0  0  0  0
   60.7560   28.5850   44.9180 C   0  0  0  0  0  0  0  0  0  0  0  0
   59.4560   27.9620   44.3660 C   0  0  0  0  0  0  0  0  0  0  0  0
   58.3540   28.9870   44.3550 C   0  0  0  0  0  0  0  0  0  0  0  0
   57.0150   28.5930   44.5150 C   0  0  0  0  0  0  0  0  0  0  0  0
   55.9890   29.5430   44.4680 C   0  0  0  0  0  0  0  0  0  0  0  0
   56.2920   30.8900   44.2510 C   0  0  0  0  0  0  0  0  0  0  0  0
   57.6200   31.2890   44.0770 C   0  0  0  0  0  0  0  0  0  0  0  0
   58.6480   30.3420   44.1240 C   0  0  0  0  0  0  0  0  0  0  0  0
   60.2300   27.5940   47.1250 C   0  0  0  0  0  0  0  0  0  0  0  0
   59.9850   27.9590   48.5910 C   0  0  0  0  0  0  0  0  0  0  0  0
   59.8640   32.8240   48.5800 C   0  0  0  0  0  0  0  0  0  0  0  0
   58.7990   33.3950   47.8690 C   0  0  0  0  0  0  0  0  0  0  0  0
   59.0350   34.0990   46.6850 C   0  0  0  0  0  0  0  0  0  0  0  0
   60.3370   34.2430   46.1990 C   0  0  0  0  0  0  0  0  0  0  0  0
   61.4130   33.6850   46.9020 C   0  0  0  0  0  0  0  0  0  0  0  0
   62.7290   33.8250   46.4410 C   0  0  0  0  0  0  0  0  0  0  0  0
   63.7820   33.2680   47.1690 C   0  0  0  0  0  0  0  0  0  0  0  0
   63.5100   32.5770   48.3530 C   0  0  0  0  0  0  0  0  0  0  0  0
   62.2290   32.4480   48.7890 N   0  0  0  0  0  0  0  0  0  0  0  0
   61.1780   32.9730   48.1010 C   0  0  0  0  0  0  0  0  0  0  0  0
   59.4557   33.6004   52.6934 H   0  0  0  0  0  0  0  0  0  0  0  0
   60.6459   33.6809   51.3504 H   0  0  0  0  0  0  0  0  0  0  0  0
   59.2167   34.7692   51.3504 H   0  0  0  0  0  0  0  0  0  0  0  0
   58.4451   31.9374   51.5416 H   0  0  0  0  0  0  0  0  0  0  0  0
   57.9213   33.2107   50.3700 H   0  0  0  0  0  0  0  0  0  0  0  0
   60.8542   30.5345   49.1526 H   0  0  0  0  0  0  0  0  0  0  0  0
   60.7162   30.7377   50.9401 H   0  0  0  0  0  0  0  0  0  0  0  0
   59.2917   28.9619   50.8051 H   0  0  0  0  0  0  0  0  0  0  0  0
   58.1034   30.1978   50.2467 H   0  0  0  0  0  0  0  0  0  0  0  0
   58.1782   29.6403   46.8537 H   0  0  0  0  0  0  0  0  0  0  0  0
   58.6974   30.9687   47.9856 H   0  0  0  0  0  0  0  0  0  0  0  0
   60.1904   30.7492   46.0019 H   0  0  0  0  0  0  0  0  0  0  0  0
   61.0279   30.4602   47.5872 H   0  0  0  0  0  0  0  0  0  0  0  0
   60.8885   29.5737   44.4544 H   0  0  0  0  0  0  0  0  0  0  0  0
   61.5697   27.8865   44.6731 H   0  0  0  0  0  0  0  0  0  0  0  0
   59.6308   27.6050   43.3403 H   0  0  0  0  0  0  0  0  0  0  0  0
   59.1586   27.1212   45.0099 H   0  0  0  0  0  0  0  0  0  0  0  0
   56.7721   27.5326   44.6780 H   0  0  0  0  0  0  0  0  0  0  0  0
   54.9431   29.2295   44.6019 H   0  0  0  0  0  0  0  0  0  0  0  0
   55.4848   31.6365   44.2171 H   0  0  0  0  0  0  0  0  0  0  0  0
   57.8569   32.3490   43.9029 H   0  0  0  0  0  0  0  0  0  0  0  0
   59.6914   30.6589   43.9795 H   0  0  0  0  0  0  0  0  0  0  0  0
   59.2802   27.2832   46.6654 H   0  0  0  0  0  0  0  0  0  0  0  0
   60.9593   26.7718   47.0794 H   0  0  0  0  0  0  0  0  0  0  0  0
   59.6473   27.0624   49.1315 H   0  0  0  0  0  0  0  0  0  0  0  0
   60.9261   28.3391   49.0151 H   0  0  0  0  0  0  0  0  0  0  0  0
   57.7710   33.2882   48.2455 H   0  0  0  0  0  0  0  0  0  0  0  0
   58.1923   34.5415   46.1335 H   0  0  0  0  0  0  0  0  0  0  0  0
   60.5174   34.7944   45.2645 H   0  0  0  0  0  0  0  0  0  0  0  0
   62.9316   34.3721   45.5084 H   0  0  0  0  0  0  0  0  0  0  0  0
   64.8177   33.3722   46.8135 H   0  0  0  0  0  0  0  0  0  0  0  0
   64.3343   32.1366   48.9332 H   0  0  0  0  0  0  0  0  0  0  0  0
  1  2  1  0
  2  3  1  0
  3  4  1  0
  4  5  1  0
  5  6  1  0
  6  7  1  0
  7  8  1  0
  8  9  1  0
  9 10  1  0
 10 11  1  0
 11 12  1  0
 12 13  2  0
 13 14  1  0
 14 15  2  0
 15 16  1  0
 16 17  2  0
  9 18  1  0
 18 19  1  0
  3 20  1  0
 20 21  2  0
 21 22  1  0
 22 23  2  0
 23 24  1  0
 24 25  2  0
 25 26  1  0
 26 27  2  0
 27 28  1  0
 28 29  2  0
 19  6  1  0
 29 20  1  0
 17 12  1  0
 29 24  1  0
  1 30  1  0
  1 31  1  0
  1 32  1  0
  2 33  1  0
  2 34  1  0
  4 35  1  0
  4 36  1  0
  5 37  1  0
  5 38  1  0
  7 39  1  0
  7 40  1  0
  8 41  1  0
  8 42  1  0
 10 43  1  0
 10 44  1  0
 11 45  1  0
 11 46  1  0
 13 47  1  0
 14 48  1  0
 15 49  1  0
 16 50  1  0
 17 51  1  0
 18 52  1  0
 18 53  1  0
 19 54  1  0
 19 55  1  0
 21 56  1  0
 22 57  1  0
 23 58  1  0
 25 59  1  0
 26 60  1  0
 27 61  1  0
M  END
>  <UniqueID>  (5) 
5

>  <SMILES>  (5) 
CCN(CCN1CCN(CCc2ccccc2)CC1)c1cccc2cccnc12

>  <Energy>  (5) 
80.76393635235165

>  <Genealogy>  (5) 
CCN(CCN1CCN(CCc2ccccc2)CC1)c1cccc2cccnc12 (3D coordinates assigned)
CCN(CCN1CCN(CCc2ccccc2)CC1)c1cccc2cccnc12 (nonaromatic ring conformer: 80.76393635235165 kcal/mol)

>  <smiles>  (5) 
CCN(CCN1CCN(CCc2ccccc2)CC1)c1cccc2cccnc12

>  <score_type>  (5) 
oracle

>  <origin>  (5) 
adg

>  <m_score__min__energy>  (5) 
-8.1400000000000006

>  <m_primary>  (5) 
energy

$$$$
5:0
     RDKit          3D

 56 58  0  0  0  0  0  0  0  0999 V2000
   57.4030   32.3680   40.9230 C   0  0  0  0  0  0  0  0  0  0  0  0
   57.4170   31.6920   42.2850 C   0  0  0  0  0  0  0  0  0  0  0  0
   56.5960   30.5290   42.2460 O   0  0  0  0  0  0  0  0  0  0  0  0
   56.2540   29.8020   43.3910 C   0  0  0  0  0  0  0  0  0  0  0  0
   55.0390   29.6470   43.6930 O   0  0  0  0  0  0  0  0  0  0  0  0
   57.3140   29.2100   44.2500 C   0  0  0  0  0  0  0  0  0  0  0  0
   57.6370   29.8060   45.4800 C   0  0  0  0  0  0  0  0  0  0  0  0
   58.6250   29.2420   46.2910 C   0  0  0  0  0  0  0  0  0  0  0  0
   58.9670   29.8040   47.5310 C   0  0  0  0  0  0  0  0  0  0  0  0
   59.9570   29.2120   48.3320 C   0  0  0  0  0  0  0  0  0  0  0  0
   60.2750   29.8020   49.6070 N   0  0  0  0  0  0  0  0  0  0  0  0
   60.7100   31.1930   49.7620 C   0  0  0  0  0  0  0  0  0  0  0  0
   61.9060   31.5380   48.8450 C   0  0  0  0  0  0  0  0  0  0  0  0
   61.6340   32.6760   47.9260 N   0  0  2  0  0  0  0  0  0  0  0  0
   62.8210   33.5710   47.8180 C   0  0  0  0  0  0  0  0  0  0  0  0
   63.3490   33.7700   46.3880 C   0  0  0  0  0  0  0  0  0  0  0  0
   60.3910   33.4000   48.3020 C   0  0  0  0  0  0  0  0  0  0  0  0
   59.4780   33.6310   47.1190 C   0  0  0  0  0  0  0  0  0  0  0  0
   59.9190   34.3710   46.0090 C   0  0  0  0  0  0  0  0  0  0  0  0
   59.0810   34.5490   44.9040 C   0  0  0  0  0  0  0  0  0  0  0  0
   57.7980   33.9940   44.9000 C   0  0  0  0  0  0  0  0  0  0  0  0
   57.3480   33.2660   46.0040 C   0  0  0  0  0  0  0  0  0  0  0  0
   58.1860   33.0800   47.1080 C   0  0  0  0  0  0  0  0  0  0  0  0
   60.6070   28.0490   47.8690 C   0  0  0  0  0  0  0  0  0  0  0  0
   60.2690   27.4910   46.6340 C   0  0  0  0  0  0  0  0  0  0  0  0
   59.2800   28.0800   45.8440 C   0  0  0  0  0  0  0  0  0  0  0  0
   58.9580   27.5400   44.6730 O   0  0  0  0  0  0  0  0  0  0  0  0
   58.0220   28.0450   43.8750 C   0  0  0  0  0  0  0  0  0  0  0  0
   57.7830   27.4650   42.7840 O   0  0  0  0  0  0  0  0  0  0  0  0
   57.3804   33.4597   41.0557 H   0  0  0  0  0  0  0  0  0  0  0  0
   58.3072   32.0852   40.3640 H   0  0  0  0  0  0  0  0  0  0  0  0
   56.5113   32.0480   40.3640 H   0  0  0  0  0  0  0  0  0  0  0  0
   58.4475   31.4050   42.5414 H   0  0  0  0  0  0  0  0  0  0  0  0
   57.0308   32.3883   43.0440 H   0  0  0  0  0  0  0  0  0  0  0  0
   57.1123   30.7166   45.8048 H   0  0  0  0  0  0  0  0  0  0  0  0
   58.4560   30.7144   47.8777 H   0  0  0  0  0  0  0  0  0  0  0  0
   60.2260   29.1890   50.4530 H   0  0  0  0  0  0  0  0  0  0  0  0
   59.8692   31.8568   49.5120 H   0  0  0  0  0  0  0  0  0  0  0  0
   61.0336   31.3308   50.8043 H   0  0  0  0  0  0  0  0  0  0  0  0
   62.7673   31.7984   49.4777 H   0  0  0  0  0  0  0  0  0  0  0  0
   62.1028   30.6544   48.2200 H   0  0  0  0  0  0  0  0  0  0  0  0
   61.4940   32.2790   46.9660 H   0  0  0  0  0  0  0  0  0  0  0  0
   62.5446   34.5564   48.2212 H   0  0  0  0  0  0  0  0  0  0  0  0
   63.6296   33.0832   48.3821 H   0  0  0  0  0  0  0  0  0  0  0  0
   64.3777   34.1577   46.4276 H   0  0  0  0  0  0  0  0  0  0  0  0
   63.3403   32.8069   45.8566 H   0  0  0  0  0  0  0  0  0  0  0  0
   62.7068   34.4878   45.8566 H   0  0  0  0  0  0  0  0  0  0  0  0
   59.8507   32.8070   49.0546 H   0  0  0  0  0  0  0  0  0  0  0  0
   60.6828   34.3841   48.6976 H   0  0  0  0  0  0  0  0  0  0  0  0
   60.9268   34.8117   46.0093 H   0  0  0  0  0  0  0  0  0  0  0  0
   59.4319   35.1268   44.0363 H   0  0  0  0  0  0  0  0  0  0  0  0
   57.1426   34.1306   44.0272 H   0  0  0  0  0  0  0  0  0  0  0  0
   56.3343   32.8389   46.0050 H   0  0  0  0  0  0  0  0  0  0  0  0
   57.8315   32.4992   47.9723 H   0  0  0  0  0  0  0  0  0  0  0  0
   61.3865   27.5776   48.4856 H   0  0  0  0  0  0  0  0  0  0  0  0
   60.7837   26.5845   46.2827 H   0  0  0  0  0  0  0  0  0  0  0  0
  1  2  1  0
  2  3  1  0
  3  4  1  0
  4  5  2  0
  4  6  1  0
  6  7  2  0
  7  8  1  0
  8  9  2  0
  9 10  1  0
 10 11  1  0
 11 12  1  0
 12 13  1  0
 13 14  1  0
 14 15  1  0
 15 16  1  0
 14 17  1  0
 17 18  1  0
 18 19  2  0
 19 20  1  0
 20 21  2  0
 21 22  1  0
 22 23  2  0
 10 24  2  0
 24 25  1  0
 25 26  2  0
 26 27  1  0
 27 28  1  0
 28 29  2  0
 28  6  1  0
 26  8  1  0
 23 18  1  0
  1 30  1  0
  1 31  1  0
  1 32  1  0
  2 33  1  0
  2 34  1  0
  7 35  1  0
  9 36  1  0
 11 37  1  0
 12 38  1  0
 12 39  1  0
 13 40  1  0
 13 41  1  0
 14 42  1  6
 15 43  1  0
 15 44  1  0
 16 45  1  0
 16 46  1  0
 16 47  1  0
 17 48  1  0
 17 49  1  0
 19 50  1  0
 20 51  1  0
 21 52  1  0
 22 53  1  0
 23 54  1  0
 24 55  1  0
 25 56  1  0
M  CHG  1  14   1
M  END
>  <UniqueID>  (6) 
6

>  <SMILES>  (6) 
CCOC(=O)c1cc2cc(NCC[N@H+](CC)Cc3ccccc3)ccc2oc1=O

>  <Energy>  (6) 
63.42673868184306

>  <Genealogy>  (6) 
CCOC(=O)c1cc2cc(NCC[NH+](CC)Cc3ccccc3)ccc2oc1=O (protonated)
CCOC(=O)c1cc2cc(NCC[N@H+](CC)Cc3ccccc3)ccc2oc1=O (chirality)
CCOC(=O)c1cc2cc(NCC[N@H+](CC)Cc3ccccc3)ccc2oc1=O (3D coordinates assigned)
CCOC(=O)c1cc2cc(NCC[N@H+](CC)Cc3ccccc3)ccc2oc1=O (optimized conformer: 63.42673868184306 kcal/mol)

>  <smiles>  (6) 
CCOC(=O)c1cc2cc(NCCN(CC)Cc3ccccc3)ccc2oc1=O

>  <score_type>  (6) 
oracle

>  <origin>  (6) 
adg

>  <m_score__min__energy>  (6) 
-6.8700000000000001

>  <m_primary>  (6) 
energy

$$$$
6:0
     RDKit          3D

 45 45  0  0  0  0  0  0  0  0999 V2000
   56.1740   30.1550   44.0710 C   0  0  0  0  0  0  0  0  0  0  0  0
   57.6730   29.8800   44.0950 C   0  0  0  0  0  0  0  0  0  0  0  0
   58.3090   30.5850   45.2090 N   0  0  0  0  0  0  0  0  0  0  0  0
   59.6200   30.2750   45.7230 C   0  0  0  0  0  0  0  0  0  0  0  0
   60.3810   28.8800   45.2710 S   0  0  0  0  0  0  0  0  0  0  0  0
   60.1800   31.1040   46.7760 N   0  0  1  0  0  0  0  0  0  0  0  0
   59.2580   31.1550   47.9500 C   0  0  0  0  0  0  0  0  0  0  0  0
   58.4290   32.4520   47.9860 C   0  0  0  0  0  0  0  0  0  0  0  0
   58.4890   33.1420   46.6740 N   0  0  0  0  0  0  0  0  0  0  0  0
   57.1330   33.4960   46.1910 C   0  0  0  0  0  0  0  0  0  0  0  0
   57.2250   34.2280   44.8550 C   0  0  0  0  0  0  0  0  0  0  0  0
   59.3610   34.3370   46.7350 C   0  0  0  0  0  0  0  0  0  0  0  0
   59.8170   34.5910   48.1700 C   0  0  0  0  0  0  0  0  0  0  0  0
   61.5390   30.6350   47.1370 C   0  0  0  0  0  0  0  0  0  0  0  0
   62.4240   31.7690   47.5700 C   0  0  0  0  0  0  0  0  0  0  0  0
   63.2710   31.7610   48.6690 C   0  0  0  0  0  0  0  0  0  0  0  0
   64.0220   32.9360   48.7940 C   0  0  0  0  0  0  0  0  0  0  0  0
   63.7720   33.8660   47.7930 C   0  0  0  0  0  0  0  0  0  0  0  0
   62.6170   33.2250   46.7520 S   0  0  0  0  0  0  0  0  0  0  0  0
   55.7973   30.2241   45.1022 H   0  0  0  0  0  0  0  0  0  0  0  0
   55.9835   31.1031   43.5467 H   0  0  0  0  0  0  0  0  0  0  0  0
   55.6594   29.3363   43.5467 H   0  0  0  0  0  0  0  0  0  0  0  0
   57.8403   28.7988   44.2089 H   0  0  0  0  0  0  0  0  0  0  0  0
   58.1138   30.2363   43.1523 H   0  0  0  0  0  0  0  0  0  0  0  0
   57.7630   31.3520   45.6610 H   0  0  0  0  0  0  0  0  0  0  0  0
   60.2970   32.0630   46.3700 H   0  0  0  0  0  0  0  0  0  0  0  0
   58.5711   30.2974   47.8978 H   0  0  0  0  0  0  0  0  0  0  0  0
   59.8722   31.1228   48.8620 H   0  0  0  0  0  0  0  0  0  0  0  0
   57.3823   32.2065   48.2187 H   0  0  0  0  0  0  0  0  0  0  0  0
   58.8423   33.1178   48.7580 H   0  0  0  0  0  0  0  0  0  0  0  0
   56.5416   32.5775   46.0623 H   0  0  0  0  0  0  0  0  0  0  0  0
   56.6491   34.1533   46.9284 H   0  0  0  0  0  0  0  0  0  0  0  0
   57.3603   35.3046   45.0354 H   0  0  0  0  0  0  0  0  0  0  0  0
   58.0816   33.8415   44.2834 H   0  0  0  0  0  0  0  0  0  0  0  0
   56.2994   34.0655   44.2834 H   0  0  0  0  0  0  0  0  0  0  0  0
   60.2429   34.1750   46.0978 H   0  0  0  0  0  0  0  0  0  0  0  0
   58.7941   35.2107   46.3810 H   0  0  0  0  0  0  0  0  0  0  0  0
   59.0751   34.1777   48.8691 H   0  0  0  0  0  0  0  0  0  0  0  0
   60.7893   34.1045   48.3373 H   0  0  0  0  0  0  0  0  0  0  0  0
   59.9152   35.6738   48.3373 H   0  0  0  0  0  0  0  0  0  0  0  0
   61.4586   29.9113   47.9615 H   0  0  0  0  0  0  0  0  0  0  0  0
   61.9884   30.1715   46.2464 H   0  0  0  0  0  0  0  0  0  0  0  0
   63.3449   30.9172   49.3708 H   0  0  0  0  0  0  0  0  0  0  0  0
   64.7420   33.1065   49.6080 H   0  0  0  0  0  0  0  0  0  0  0  0
   64.2481   34.8530   47.6975 H   0  0  0  0  0  0  0  0  0  0  0  0
  1  2  1  0
  2  3  1  0
  3  4  1  0
  4  5  2  0
  4  6  1  0
  6  7  1  0
  7  8  1  0
  8  9  1  0
  9 10  1  0
 10 11  1  0
  9 12  1  0
 12 13  1  0
  6 14  1  0
 14 15  1  0
 15 16  2  0
 16 17  1  0
 17 18  2  0
 18 19  1  0
 19 15  1  0
  1 20  1  0
  1 21  1  0
  1 22  1  0
  2 23  1  0
  2 24  1  0
  3 25  1  0
  6 26  1  6
  7 27  1  0
  7 28  1  0
  8 29  1  0
  8 30  1  0
 10 31  1  0
 10 32  1  0
 11 33  1  0
 11 34  1  0
 11 35  1  0
 12 36  1  0
 12 37  1  0
 13 38  1  0
 13 39  1  0
 13 40  1  0
 14 41  1  0
 14 42  1  0
 16 43  1  0
 17 44  1  0
 18 45  1  0
M  CHG  1   6   1
M  END
>  <UniqueID>  (7) 
7

>  <SMILES>  (7) 
CCNC(=S)[N@@H+](CCN(CC)CC)Cc1cccs1

>  <Energy>  (7) 
65.50474935781173

>  <Genealogy>  (7) 
CCNC(=S)[NH+](CCN(CC)CC)Cc1cccs1 (protonated)
CCNC(=S)[N@@H+](CCN(CC)CC)Cc1cccs1 (chirality)
CCNC(=S)[N@@H+](CCN(CC)CC)Cc1cccs1 (3D coordinates assigned)
CCNC(=S)[N@@H+](CCN(CC)CC)Cc1cccs1 (optimized conformer: 65.50474935781173 kcal/mol)

>  <smiles>  (7) 
CCNC(=S)N(CCN(CC)CC)Cc1cccs1

>  <score_type>  (7) 
oracle

>  <origin>  (7) 
adg

>  <m_score__min__energy>  (7) 
-3.98

>  <m_primary>  (7) 
energy

$$$$
7:0
     RDKit          3D

 46 49  0  0  0  0  0  0  0  0999 V2000
   59.3485   34.6316   50.3366 H   0  0  0  0  0  0  0  0  0  0  0  0
   59.6750   33.8480   49.6370 C   0  0  0  0  0  0  0  0  0  0  0  0
   60.1450   34.1900   48.4780 N   0  0  0  0  0  0  0  0  0  0  0  0
   59.4410   34.0310   47.2370 C   0  0  0  0  0  0  0  0  0  0  0  0
   59.5770   35.0140   46.2510 C   0  0  0  0  0  0  0  0  0  0  0  0
   60.2032   35.8977   46.4433 H   0  0  0  0  0  0  0  0  0  0  0  0
   58.9230   34.8810   45.0240 C   0  0  0  0  0  0  0  0  0  0  0  0
   59.0298   35.6632   44.2580 H   0  0  0  0  0  0  0  0  0  0  0  0
   58.1340   33.7580   44.7670 C   0  0  0  0  0  0  0  0  0  0  0  0
   57.6189   33.6591   43.8001 H   0  0  0  0  0  0  0  0  0  0  0  0
   57.9960   32.7520   45.7420 C   0  0  0  0  0  0  0  0  0  0  0  0
   57.2220   31.6010   45.5290 O   0  0  0  0  0  0  0  0  0  0  0  0
   57.2620   30.8120   44.3430 C   0  0  0  0  0  0  0  0  0  0  0  0
   57.3160   29.7470   44.6128 H   0  0  0  0  0  0  0  0  0  0  0  0
   56.3534   30.9945   43.7504 H   0  0  0  0  0  0  0  0  0  0  0  0
   58.1474   31.0855   43.7504 H   0  0  0  0  0  0  0  0  0  0  0  0
   58.6530   32.8930   46.9700 C   0  0  0  0  0  0  0  0  0  0  0  0
   58.5534   32.1081   47.7342 H   0  0  0  0  0  0  0  0  0  0  0  0
   59.5680   32.4350   50.0390 C   0  0  0  0  0  0  0  0  0  0  0  0
   60.2960   31.3190   49.5890 C   0  0  0  0  0  0  0  0  0  0  0  0
   61.3810   31.2880   48.5420 C   0  0  0  0  0  0  0  0  0  0  0  0
   61.4678   30.2589   48.1633 H   0  0  0  0  0  0  0  0  0  0  0  0
   61.0896   32.0026   47.7582 H   0  0  0  0  0  0  0  0  0  0  0  0
   62.7400   31.7250   49.0540 C   0  0  0  0  0  0  0  0  0  0  0  0
   63.1820   31.2310   50.2950 C   0  0  0  0  0  0  0  0  0  0  0  0
   62.5578   30.5130   50.8472 H   0  0  0  0  0  0  0  0  0  0  0  0
   64.4040   31.6410   50.8350 C   0  0  0  0  0  0  0  0  0  0  0  0
   64.7384   31.2401   51.8032 H   0  0  0  0  0  0  0  0  0  0  0  0
   65.2000   32.5570   50.1490 C   0  0  0  0  0  0  0  0  0  0  0  0
   66.8750   33.1060   50.8830 Br  0  0  0  0  0  0  0  0  0  0  0  0
   64.7610   33.0860   48.9340 C   0  0  0  0  0  0  0  0  0  0  0  0
   65.3864   33.8164   48.3997 H   0  0  0  0  0  0  0  0  0  0  0  0
   63.5310   32.6950   48.3890 C   0  0  0  0  0  0  0  0  0  0  0  0
   62.9740   33.5800   46.7830 Br  0  0  0  0  0  0  0  0  0  0  0  0
   59.7850   30.1850   50.1260 N   0  0  0  0  0  0  0  0  0  0  0  0
   60.0910   29.2030   49.9370 H   0  0  0  0  0  0  0  0  0  0  0  0
   58.7700   30.5630   50.9180 C   0  0  0  0  0  0  0  0  0  0  0  0
   57.9380   29.7360   51.6730 C   0  0  0  0  0  0  0  0  0  0  0  0
   58.0805   28.6453   51.6834 H   0  0  0  0  0  0  0  0  0  0  0  0
   56.9120   30.3400   52.4200 C   0  0  0  0  0  0  0  0  0  0  0  0
   56.2406   29.7177   53.0299 H   0  0  0  0  0  0  0  0  0  0  0  0
   56.7380   31.7420   52.3920 C   0  0  0  0  0  0  0  0  0  0  0  0
   55.9318   32.2047   52.9802 H   0  0  0  0  0  0  0  0  0  0  0  0
   57.5900   32.5500   51.6160 C   0  0  0  0  0  0  0  0  0  0  0  0
   57.4620   33.6421   51.5839 H   0  0  0  0  0  0  0  0  0  0  0  0
   58.6030   31.9220   50.8880 C   0  0  0  0  0  0  0  0  0  0  0  0
  1  2  1  0
  2  3  2  0
  3  4  1  0
  4  5  2  0
  5  6  1  0
  5  7  1  0
  7  8  1  0
  7  9  2  0
  9 10  1  0
  9 11  1  0
 11 12  1  0
 12 13  1  0
 13 14  1  0
 13 15  1  0
 13 16  1  0
 11 17  2  0
 17 18  1  0
  2 19  1  0
 19 20  2  0
 20 21  1  0
 21 22  1  0
 21 23  1  0
 21 24  1  0
 24 25  2  0
 25 26  1  0
 25 27  1  0
 27 28  1  0
 27 29  2  0
 29 30  1  0
 29 31  1  0
 31 32  1  0
 31 33  2  0
 33 34  1  0
 20 35  1  0
 35 36  1  0
 35 37  1  0
 37 38  2  0
 38 39  1  0
 38 40  1  0
 40 41  1  0
 40 42  2  0
 42 43  1  0
 42 44  1  0
 44 45  1  0
 44 46  2  0
 17  4  1  0
 46 19  1  0
 33 24  1  0
 46 37  1  0
M  END
>  <UniqueID>  (8) 
8

>  <SMILES>  (8) 
COc1cccc(/N=C/c2c(Cc3ccc(Br)cc3Br)[nH]c3ccccc23)c1

>  <Energy>  (8) 
88.21560400210102

>  <Genealogy>  (8) 
COc1cccc(/N=C/c2c(Cc3ccc(Br)cc3Br)[nH]c3ccccc23)c1 (cis-trans isomerization)
COc1cccc(/N=C/c2c(Cc3ccc(Br)cc3Br)[nH]c3ccccc23)c1 (3D coordinates assigned)
COc1cccc(/N=C/c2c(Cc3ccc(Br)cc3Br)[nH]c3ccccc23)c1 (optimized conformer: 88.21560400210102 kcal/mol)

>  <smiles>  (8) 
COc1cccc(N=Cc2c(Cc3ccc(Br)cc3Br)[nH]c3ccccc23)c1

>  <score_type>  (8) 
oracle

>  <origin>  (8) 
adg

>  <m_score__min__energy>  (8) 
-8.9100000000000001

>  <m_primary>  (8) 
energy

$$$$
8:0
     RDKit          3D

 55 59  0  0  0  0  0  0  0  0999 V2000
   53.9520   22.9330   46.7270 C   0  0  0  0  0  0  0  0  0  0  0  0
   54.4500   24.0290   45.9660 O   0  0  0  0  0  0  0  0  0  0  0  0
   55.7660   24.5100   46.0350 C   0  0  0  0  0  0  0  0  0  0  0  0
   56.3600   24.6430   47.2950 C   0  0  0  0  0  0  0  0  0  0  0  0
   57.6680   25.1180   47.4160 C   0  0  0  0  0  0  0  0  0  0  0  0
   58.4020   25.4790   46.2750 C   0  0  0  0  0  0  0  0  0  0  0  0
   59.8250   25.9870   46.4090 C   0  0  0  0  0  0  0  0  0  0  0  0
   59.9260   27.3380   47.0040 N   0  0  0  0  0  0  0  0  0  0  0  0
   58.9530   28.3000   46.4640 C   0  0  0  0  0  0  0  0  0  0  0  0
   59.4430   29.7180   46.7740 C   0  0  0  0  0  0  0  0  0  0  0  0
   60.0480   29.7850   48.1130 N   0  0  0  0  0  0  0  0  0  0  0  0
   60.9510   30.8610   48.4440 C   0  0  0  0  0  0  0  0  0  0  0  0
   61.9140   30.6400   49.3000 N   0  0  0  0  0  0  0  0  0  0  0  0
   62.9230   31.5660   49.7390 C   0  0  0  0  0  0  0  0  0  0  0  0
   63.2160   31.6450   51.1070 C   0  0  0  0  0  0  0  0  0  0  0  0
   64.1700   32.5540   51.5740 C   0  0  0  0  0  0  0  0  0  0  0  0
   64.8470   33.3830   50.6740 C   0  0  0  0  0  0  0  0  0  0  0  0
   64.5870   33.2880   49.3030 C   0  0  0  0  0  0  0  0  0  0  0  0
   63.6450   32.3670   48.8300 C   0  0  0  0  0  0  0  0  0  0  0  0
   63.3870   32.1950   47.0680 S   0  0  0  0  0  0  0  0  0  0  0  0
   61.7610   32.9240   47.2220 C   0  0  0  0  0  0  0  0  0  0  0  0
   61.5330   34.2150   46.7340 C   0  0  0  0  0  0  0  0  0  0  0  0
   60.2670   34.7940   46.8470 C   0  0  0  0  0  0  0  0  0  0  0  0
   59.2280   34.0880   47.4580 C   0  0  0  0  0  0  0  0  0  0  0  0
   59.4540   32.8050   47.9620 C   0  0  0  0  0  0  0  0  0  0  0  0
   60.7220   32.2110   47.8550 C   0  0  0  0  0  0  0  0  0  0  0  0
   59.7360   28.7310   49.0890 C   0  0  0  0  0  0  0  0  0  0  0  0
   59.9590   27.3290   48.4840 C   0  0  0  0  0  0  0  0  0  0  0  0
   57.8120   25.3330   45.0100 C   0  0  0  0  0  0  0  0  0  0  0  0
   56.5040   24.8570   44.8890 C   0  0  0  0  0  0  0  0  0  0  0  0
   54.0530   23.1553   47.7995 H   0  0  0  0  0  0  0  0  0  0  0  0
   52.8915   22.7701   46.4846 H   0  0  0  0  0  0  0  0  0  0  0  0
   54.5269   22.0270   46.4846 H   0  0  0  0  0  0  0  0  0  0  0  0
   55.7924   24.3714   48.1973 H   0  0  0  0  0  0  0  0  0  0  0  0
   58.1260   25.2098   48.4119 H   0  0  0  0  0  0  0  0  0  0  0  0
   60.3846   25.2856   47.0453 H   0  0  0  0  0  0  0  0  0  0  0  0
   60.2369   26.0548   45.3913 H   0  0  0  0  0  0  0  0  0  0  0  0
   58.8663   28.1677   45.3754 H   0  0  0  0  0  0  0  0  0  0  0  0
   57.9671   28.1347   46.9230 H   0  0  0  0  0  0  0  0  0  0  0  0
   60.1934   30.0112   46.0250 H   0  0  0  0  0  0  0  0  0  0  0  0
   58.5814   30.4012   46.7438 H   0  0  0  0  0  0  0  0  0  0  0  0
   62.6925   30.9882   51.8173 H   0  0  0  0  0  0  0  0  0  0  0  0
   64.3883   32.6172   52.6503 H   0  0  0  0  0  0  0  0  0  0  0  0
   65.5845   34.1102   51.0445 H   0  0  0  0  0  0  0  0  0  0  0  0
   65.1233   33.9377   48.5957 H   0  0  0  0  0  0  0  0  0  0  0  0
   62.3525   34.7754   46.2603 H   0  0  0  0  0  0  0  0  0  0  0  0
   60.0881   35.8060   46.4548 H   0  0  0  0  0  0  0  0  0  0  0  0
   58.2302   34.5432   47.5424 H   0  0  0  0  0  0  0  0  0  0  0  0
   58.6329   32.2560   48.4462 H   0  0  0  0  0  0  0  0  0  0  0  0
   60.3872   28.8508   49.9674 H   0  0  0  0  0  0  0  0  0  0  0  0
   58.6781   28.8231   49.3761 H   0  0  0  0  0  0  0  0  0  0  0  0
   60.9399   26.9550   48.8126 H   0  0  0  0  0  0  0  0  0  0  0  0
   59.1414   26.6809   48.8324 H   0  0  0  0  0  0  0  0  0  0  0  0
   58.3834   25.5952   44.1074 H   0  0  0  0  0  0  0  0  0  0  0  0
   56.0492   24.7531   43.8928 H   0  0  0  0  0  0  0  0  0  0  0  0
  1  2  1  0
  2  3  1  0
  3  4  2  0
  4  5  1  0
  5  6  2  0
  6  7  1  0
  7  8  1  0
  8  9  1  0
  9 10  1  0
 10 11  1  0
 11 12  1  0
 12 13  2  0
 13 14  1  0
 14 15  2  0
 15 16  1  0
 16 17  2  0
 17 18  1  0
 18 19  2  0
 19 20  1  0
 20 21  1  0
 21 22  2  0
 22 23  1  0
 23 24  2  0
 24 25  1  0
 25 26  2  0
 11 27  1  0
 27 28  1  0
  6 29  1  0
 29 30  2  0
 30  3  1  0
 28  8  1  0
 26 12  1  0
 19 14  1  0
 26 21  1  0
  1 31  1  0
  1 32  1  0
  1 33  1  0
  4 34  1  0
  5 35  1  0
  7 36  1  0
  7 37  1  0
  9 38  1  0
  9 39  1  0
 10 40  1  0
 10 41  1  0
 15 42  1  0
 16 43  1  0
 17 44  1  0
 18 45  1  0
 22 46  1  0
 23 47  1  0
 24 48  1  0
 25 49  1  0
 27 50  1  0
 27 51  1  0
 28 52  1  0
 28 53  1  0
 29 54  1  0
 30 55  1  0
M  END
>  <UniqueID>  (9) 
9

>  <SMILES>  (9) 
COc1ccc(CN2CCN(C3=Nc4ccccc4Sc4ccccc43)CC2)cc1

>  <Energy>  (9) 
84.58151767897671

>  <Genealogy>  (9) 
COc1ccc(CN2CCN(C3=Nc4ccccc4Sc4ccccc43)CC2)cc1 (3D coordinates assigned)
COc1ccc(CN2CCN(C3=Nc4ccccc4Sc4ccccc43)CC2)cc1 (nonaromatic ring conformer: 84.58151767897671 kcal/mol)

>  <smiles>  (9) 
COc1ccc(CN2CCN(C3=Nc4ccccc4Sc4ccccc43)CC2)cc1

>  <score_type>  (9) 
oracle

>  <origin>  (9) 
adg

>  <m_score__min__energy>  (9) 
-8.2400000000000002

>  <m_primary>  (9) 
energy

$$$$
9:0
     RDKit          3D

 49 52  0  0  0  0  0  0  0  0999 V2000
   57.2710   24.6810   43.4040 C   0  0  0  0  0  0  0  0  0  0  0  0
   56.0320   23.7910   43.5050 C   0  0  0  0  0  0  0  0  0  0  0  0
   55.7660   23.3200   44.9420 C   0  0  0  0  0  0  0  0  0  0  0  0
   54.4790   24.2680   45.7490 S   0  0  0  0  0  0  0  0  0  0  0  0
   53.2710   24.3050   44.8570 O   0  0  0  0  0  0  0  0  0  0  0  0
   54.0920   23.6680   47.0710 O   0  0  0  0  0  0  0  0  0  0  0  0
   55.0430   25.8910   45.9830 N   0  0  0  0  0  0  0  0  0  0  0  0
   56.3970   26.2420   46.2950 C   0  0  0  0  0  0  0  0  0  0  0  0
   57.1480   25.5380   47.2520 C   0  0  0  0  0  0  0  0  0  0  0  0
   58.4770   25.8900   47.4980 C   0  0  0  0  0  0  0  0  0  0  0  0
   59.0810   26.9190   46.7710 C   0  0  0  0  0  0  0  0  0  0  0  0
   60.3910   27.2040   46.9860 F   0  0  0  0  0  0  0  0  0  0  0  0
   58.3480   27.6130   45.7930 C   0  0  0  0  0  0  0  0  0  0  0  0
   59.0050   28.6200   44.9360 C   0  0  0  0  0  0  0  0  0  0  0  0
   60.1200   28.3480   44.4140 O   0  0  0  0  0  0  0  0  0  0  0  0
   58.3920   29.9410   44.6800 C   0  0  0  0  0  0  0  0  0  0  0  0
   57.3310   30.1920   43.8100 C   0  0  0  0  0  0  0  0  0  0  0  0
   57.0240   31.5090   43.8000 N   0  0  0  0  0  0  0  0  0  0  0  0
   57.8720   32.0860   44.6640 C   0  0  0  0  0  0  0  0  0  0  0  0
   57.9180   33.4050   44.9740 N   0  0  0  0  0  0  0  0  0  0  0  0
   58.8360   33.8480   45.8830 C   0  0  0  0  0  0  0  0  0  0  0  0
   59.7280   32.9420   46.5170 C   0  0  0  0  0  0  0  0  0  0  0  0
   60.7470   33.4260   47.4860 C   0  0  0  0  0  0  0  0  0  0  0  0
   60.3910   33.7690   48.8030 C   0  0  0  0  0  0  0  0  0  0  0  0
   61.3640   34.1990   49.7060 C   0  0  0  0  0  0  0  0  0  0  0  0
   62.6920   34.2860   49.2900 C   0  0  0  0  0  0  0  0  0  0  0  0
   63.0290   33.9500   48.0180 N   0  0  0  0  0  0  0  0  0  0  0  0
   62.1010   33.5270   47.1190 C   0  0  0  0  0  0  0  0  0  0  0  0
   59.6430   31.5690   46.1960 C   0  0  0  0  0  0  0  0  0  0  0  0
   58.7150   31.1740   45.2330 C   0  0  0  0  0  0  0  0  0  0  0  0
   56.9920   27.3000   45.5980 C   0  0  0  0  0  0  0  0  0  0  0  0
   57.6238   24.9344   44.4146 H   0  0  0  0  0  0  0  0  0  0  0  0
   58.0643   24.1450   42.8624 H   0  0  0  0  0  0  0  0  0  0  0  0
   57.0163   25.6039   42.8624 H   0  0  0  0  0  0  0  0  0  0  0  0
   55.1589   24.3594   43.1521 H   0  0  0  0  0  0  0  0  0  0  0  0
   56.2084   22.8986   42.8865 H   0  0  0  0  0  0  0  0  0  0  0  0
   55.4617   22.2633   44.9159 H   0  0  0  0  0  0  0  0  0  0  0  0
   56.6937   23.4605   45.5162 H   0  0  0  0  0  0  0  0  0  0  0  0
   56.6881   24.7080   47.8084 H   0  0  0  0  0  0  0  0  0  0  0  0
   59.0513   25.3543   48.2682 H   0  0  0  0  0  0  0  0  0  0  0  0
   56.8152   29.4246   43.2142 H   0  0  0  0  0  0  0  0  0  0  0  0
   56.2810   31.9770   43.2360 H   0  0  0  0  0  0  0  0  0  0  0  0
   58.8853   34.9194   46.1272 H   0  0  0  0  0  0  0  0  0  0  0  0
   59.3408   33.6979   49.1224 H   0  0  0  0  0  0  0  0  0  0  0  0
   61.0861   34.4668   50.7361 H   0  0  0  0  0  0  0  0  0  0  0  0
   63.4670   34.6269   49.9923 H   0  0  0  0  0  0  0  0  0  0  0  0
   62.4113   33.2619   46.0975 H   0  0  0  0  0  0  0  0  0  0  0  0
   60.2911   30.8316   46.6921 H   0  0  0  0  0  0  0  0  0  0  0  0
   56.3925   27.8921   44.8909 H   0  0  0  0  0  0  0  0  0  0  0  0
  1  2  1  0
  2  3  1  0
  3  4  1  0
  4  5  2  0
  4  6  2  0
  4  7  1  0
  7  8  1  0
  8  9  2  0
  9 10  1  0
 10 11  2  0
 11 12  1  0
 11 13  1  0
 13 14  1  0
 14 15  2  0
 14 16  1  0
 16 17  2  0
 17 18  1  0
 18 19  1  0
 19 20  2  0
 20 21  1  0
 21 22  2  0
 22 23  1  0
 23 24  2  0
 24 25  1  0
 25 26  2  0
 26 27  1  0
 27 28  2  0
 22 29  1  0
 29 30  2  0
 13 31  2  0
 31  8  1  0
 30 16  1  0
 30 19  1  0
 28 23  1  0
  1 32  1  0
  1 33  1  0
  1 34  1  0
  2 35  1  0
  2 36  1  0
  3 37  1  0
  3 38  1  0
  9 39  1  0
 10 40  1  0
 17 41  1  0
 18 42  1  0
 21 43  1  0
 24 44  1  0
 25 45  1  0
 26 46  1  0
 28 47  1  0
 29 48  1  0
 31 49  1  0
M  CHG  1   7  -1
M  END
>  <UniqueID>  (10) 
10

>  <SMILES>  (10) 
CCCS(=O)(=O)[N-]c1ccc(F)c(C(=O)c2c[nH]c3ncc(-c4cccnc4)cc23)c1

>  <Energy>  (10) 
94.30546244230653

>  <Genealogy>  (10) 
CCCS(=O)(=O)[N-]c1ccc(F)c(C(=O)c2c[nH]c3ncc(-c4cccnc4)cc23)c1 (protonated)
CCCS(=O)(=O)[N-]c1ccc(F)c(C(=O)c2c[nH]c3ncc(-c4cccnc4)cc23)c1 (3D coordinates assigned)
CCCS(=O)(=O)[N-]c1ccc(F)c(C(=O)c2c[nH]c3ncc(-c4cccnc4)cc23)c1 (optimized conformer: 94.30546244230653 kcal/mol)

>  <smiles>  (10) 
CCCS(=O)(=O)Nc1ccc(F)c(C(=O)c2c[nH]c3ncc(-c4cccnc4)cc23)c1

>  <score_type>  (10) 
oracle

>  <origin>  (10) 
adg

>  <m_score__min__energy>  (10) 
-11.539999999999999

>  <m_primary>  (10) 
energy

$$$$
10:0
     RDKit          3D

 50 53  0  0  0  0  0  0  0  0999 V2000
   56.6960   29.4820   43.0430 C   0  0  0  0  0  0  0  0  0  0  0  0
   57.2630   28.6930   44.0440 C   0  0  0  0  0  0  0  0  0  0  0  0
   58.0470   29.2770   45.0410 C   0  0  0  0  0  0  0  0  0  0  0  0
   58.2720   30.6700   45.0480 C   0  0  0  0  0  0  0  0  0  0  0  0
   59.0640   31.2890   46.0380 C   0  0  0  0  0  0  0  0  0  0  0  0
   59.6610   30.5050   47.0820 N   0  0  0  0  0  0  0  0  0  0  0  0
   58.9460   30.3010   48.3420 C   0  0  0  0  0  0  0  0  0  0  0  0
   59.9030   30.3340   49.5390 C   0  0  0  0  0  0  0  0  0  0  0  0
   61.3740   30.3550   49.1010 C   0  0  0  0  0  0  0  0  0  0  0  0
   61.7170   31.6690   48.5160 N   0  0  0  0  0  0  0  0  0  0  0  0
   62.7530   31.5230   47.4660 C   0  0  0  0  0  0  0  0  0  0  0  0
   63.4050   32.8660   47.1250 C   0  0  0  0  0  0  0  0  0  0  0  0
   64.1330   33.4530   48.3460 C   0  0  0  0  0  0  0  0  0  0  0  0
   63.5490   32.9570   49.6780 C   0  0  0  0  0  0  0  0  0  0  0  0
   62.0430   32.6850   49.5570 C   0  0  0  0  0  0  0  0  0  0  0  0
   59.2620   32.6860   45.9950 C   0  0  0  0  0  0  0  0  0  0  0  0
   60.0130   33.3610   46.9790 C   0  0  0  0  0  0  0  0  0  0  0  0
   60.1930   34.7440   46.9080 C   0  0  0  0  0  0  0  0  0  0  0  0
   59.6230   35.4730   45.8650 C   0  0  0  0  0  0  0  0  0  0  0  0
   58.8640   34.8240   44.8890 C   0  0  0  0  0  0  0  0  0  0  0  0
   58.6720   33.4340   44.9460 C   0  0  0  0  0  0  0  0  0  0  0  0
   57.9170   32.8100   43.9990 N   0  0  0  0  0  0  0  0  0  0  0  0
   57.7010   31.4640   44.0250 C   0  0  0  0  0  0  0  0  0  0  0  0
   56.9140   30.8600   43.0300 C   0  0  0  0  0  0  0  0  0  0  0  0
   56.0759   29.0169   42.2625 H   0  0  0  0  0  0  0  0  0  0  0  0
   57.0918   27.6064   44.0479 H   0  0  0  0  0  0  0  0  0  0  0  0
   58.4919   28.6474   45.8256 H   0  0  0  0  0  0  0  0  0  0  0  0
   60.7010   30.4060   47.0780 H   0  0  0  0  0  0  0  0  0  0  0  0
   58.1962   31.0970   48.4611 H   0  0  0  0  0  0  0  0  0  0  0  0
   58.4641   29.3127   48.3108 H   0  0  0  0  0  0  0  0  0  0  0  0
   59.6968   31.2364   50.1333 H   0  0  0  0  0  0  0  0  0  0  0  0
   59.7383   29.4210   50.1300 H   0  0  0  0  0  0  0  0  0  0  0  0
   62.0154   30.1684   49.9749 H   0  0  0  0  0  0  0  0  0  0  0  0
   61.5327   29.5737   48.3431 H   0  0  0  0  0  0  0  0  0  0  0  0
   63.5289   30.8305   47.8243 H   0  0  0  0  0  0  0  0  0  0  0  0
   62.2690   31.1356   46.5574 H   0  0  0  0  0  0  0  0  0  0  0  0
   64.1302   32.7172   46.3114 H   0  0  0  0  0  0  0  0  0  0  0  0
   62.6172   33.5689   46.8163 H   0  0  0  0  0  0  0  0  0  0  0  0
   65.1931   33.1635   48.2967 H   0  0  0  0  0  0  0  0  0  0  0  0
   64.0085   34.5455   48.3143 H   0  0  0  0  0  0  0  0  0  0  0  0
   64.0593   32.0271   49.9694 H   0  0  0  0  0  0  0  0  0  0  0  0
   63.7020   33.7378   50.4376 H   0  0  0  0  0  0  0  0  0  0  0  0
   61.6728   32.3236   50.5278 H   0  0  0  0  0  0  0  0  0  0  0  0
   61.5610   33.6279   49.2593 H   0  0  0  0  0  0  0  0  0  0  0  0
   60.4604   32.7941   47.8087 H   0  0  0  0  0  0  0  0  0  0  0  0
   60.7863   35.2599   47.6773 H   0  0  0  0  0  0  0  0  0  0  0  0
   59.7715   36.5616   45.8109 H   0  0  0  0  0  0  0  0  0  0  0  0
   58.4138   35.4050   44.0706 H   0  0  0  0  0  0  0  0  0  0  0  0
   57.4890   33.3790   43.2320 H   0  0  0  0  0  0  0  0  0  0  0  0
   56.4673   31.4770   42.2364 H   0  0  0  0  0  0  0  0  0  0  0  0
  1  2  2  0
  2  3  1  0
  3  4  2  0
  4  5  1  0
  5  6  1  0
  6  7  1  0
  7  8  1  0
  8  9  1  0
  9 10  1  0
 10 11  1  0
 11 12  1  0
 12 13  1  0
 13 14  1  0
 14 15  1  0
  5 16  2  0
 16 17  1  0
 17 18  2  0
 18 19  1  0
 19 20  2  0
 20 21  1  0
 21 22  2  0
 22 23  1  0
 23 24  2  0
 24  1  1  0
 23  4  1  0
 15 10  1  0
 21 16  1  0
  1 25  1  0
  2 26  1  0
  3 27  1  0
  6 28  1  0
  7 29  1  0
  7 30  1  0
  8 31  1  0
  8 32  1  0
  9 33  1  0
  9 34  1  0
 11 35  1  0
 11 36  1  0
 12 37  1  0
 12 38  1  0
 13 39  1  0
 13 40  1  0
 14 41  1  0
 14 42  1  0
 15 43  1  0
 15 44  1  0
 17 45  1  0
 18 46  1  0
 19 47  1  0
 20 48  1  0
 22 49  1  0
 24 50  1  0
M  CHG  1  22   1
M  END
>  <UniqueID>  (11) 
11

>  <SMILES>  (11) 
c1ccc2c(NCCCN3CCCCC3)c3ccccc3[nH+]c2c1

>  <Energy>  (11) 
70.29300575969225

>  <Genealogy>  (11) 
c1ccc2c(NCCCN3CCCCC3)c3ccccc3[nH+]c2c1 (protonated)
c1ccc2c(NCCCN3CCCCC3)c3ccccc3[nH+]c2c1 (3D coordinates assigned)
c1ccc2c(NCCCN3CCCCC3)c3ccccc3[nH+]c2c1 (nonaromatic ring conformer: 70.29300575969225 kcal/mol)

>  <smiles>  (11) 
c1ccc2c(NCCCN3CCCCC3)c3ccccc3nc2c1

>  <score_type>  (11) 
oracle

>  <origin>  (11) 
adg

>  <m_score__min__energy>  (11) 
-6.6500000000000004

>  <m_primary>  (11) 
energy

$$$$
11:0
     RDKit          3D

 38 40  0  0  0  0  0  0  0  0999 V2000
   57.1220   34.2100   45.0960 C   0  0  0  0  0  0  0  0  0  0  0  0
   58.3950   34.5530   44.8780 C   0  0  0  0  0  0  0  0  0  0  0  0
   59.3640   34.7600   46.0060 C   0  0  0  0  0  0  0  0  0  0  0  0
   58.8240   33.8410   47.4860 S   0  0  0  0  0  0  0  0  0  0  0  0
   59.2070   32.2230   46.8060 C   0  0  0  0  0  0  0  0  0  0  0  0
   58.2130   31.5160   46.2090 N   0  0  0  0  0  0  0  0  0  0  0  0
   58.4490   30.3120   45.6290 C   0  0  0  0  0  0  0  0  0  0  0  0
   57.4100   29.6040   45.0150 C   0  0  0  0  0  0  0  0  0  0  0  0
   57.6680   28.3670   44.4170 C   0  0  0  0  0  0  0  0  0  0  0  0
   58.9640   27.8360   44.4290 C   0  0  0  0  0  0  0  0  0  0  0  0
   60.0060   28.5400   45.0400 C   0  0  0  0  0  0  0  0  0  0  0  0
   59.7550   29.7820   45.6430 C   0  0  0  0  0  0  0  0  0  0  0  0
   60.7540   30.4860   46.2450 N   0  0  0  0  0  0  0  0  0  0  0  0
   60.5130   31.6910   46.8370 C   0  0  0  0  0  0  0  0  0  0  0  0
   61.5940   32.4020   47.4610 N   0  0  0  0  0  0  0  0  0  0  0  0
   62.2490   33.5150   46.7740 C   0  0  0  0  0  0  0  0  0  0  0  0
   63.7680   33.3540   46.8940 C   0  0  0  0  0  0  0  0  0  0  0  0
   64.1500   33.1840   48.2470 O   0  0  0  0  0  0  0  0  0  0  0  0
   63.6180   31.9730   48.7540 C   0  0  0  0  0  0  0  0  0  0  0  0
   62.0880   32.0220   48.7850 C   0  0  0  0  0  0  0  0  0  0  0  0
   56.4380   34.0661   44.2466 H   0  0  0  0  0  0  0  0  0  0  0  0
   56.7581   34.0716   46.1248 H   0  0  0  0  0  0  0  0  0  0  0  0
   58.7427   34.6875   43.8431 H   0  0  0  0  0  0  0  0  0  0  0  0
   60.3581   34.4021   45.7000 H   0  0  0  0  0  0  0  0  0  0  0  0
   59.4058   35.8323   46.2478 H   0  0  0  0  0  0  0  0  0  0  0  0
   56.3918   30.0201   45.0029 H   0  0  0  0  0  0  0  0  0  0  0  0
   56.8511   27.8093   43.9358 H   0  0  0  0  0  0  0  0  0  0  0  0
   59.1625   26.8627   43.9565 H   0  0  0  0  0  0  0  0  0  0  0  0
   61.0227   28.1202   45.0480 H   0  0  0  0  0  0  0  0  0  0  0  0
   61.7240   30.0960   46.2690 H   0  0  0  0  0  0  0  0  0  0  0  0
   61.9611   33.5132   45.7123 H   0  0  0  0  0  0  0  0  0  0  0  0
   61.9399   34.4664   47.2315 H   0  0  0  0  0  0  0  0  0  0  0  0
   64.0841   32.4727   46.3165 H   0  0  0  0  0  0  0  0  0  0  0  0
   64.2509   34.2615   46.5025 H   0  0  0  0  0  0  0  0  0  0  0  0
   63.9392   31.1407   48.1105 H   0  0  0  0  0  0  0  0  0  0  0  0
   63.9869   31.8282   49.7801 H   0  0  0  0  0  0  0  0  0  0  0  0
   61.6932   31.0315   49.0551 H   0  0  0  0  0  0  0  0  0  0  0  0
   61.7560   32.7599   49.5302 H   0  0  0  0  0  0  0  0  0  0  0  0
  1  2  2  0
  2  3  1  0
  3  4  1  0
  4  5  1  0
  5  6  2  0
  6  7  1  0
  7  8  2  0
  8  9  1  0
  9 10  2  0
 10 11  1  0
 11 12  2  0
 12 13  1  0
 13 14  2  0
 14 15  1  0
 15 16  1  0
 16 17  1  0
 17 18  1  0
 18 19  1  0
 19 20  1  0
 14  5  1  0
 20 15  1  0
 12  7  1  0
  1 21  1  0
  1 22  1  0
  2 23  1  0
  3 24  1  0
  3 25  1  0
  8 26  1  0
  9 27  1  0
 10 28  1  0
 11 29  1  0
 13 30  1  0
 16 31  1  0
 16 32  1  0
 17 33  1  0
 17 34  1  0
 19 35  1  0
 19 36  1  0
 20 37  1  0
 20 38  1  0
M  CHG  1  13   1
M  END
>  <UniqueID>  (12) 
12

>  <SMILES>  (12) 
C=CCSc1nc2ccccc2[nH+]c1N1CCOCC1

>  <Energy>  (12) 
42.70628449909441

>  <Genealogy>  (12) 
C=CCSc1nc2ccccc2[nH+]c1N1CCOCC1 (protonated)
C=CCSc1nc2ccccc2[nH+]c1N1CCOCC1 (3D coordinates assigned)
C=CCSc1nc2ccccc2[nH+]c1N1CCOCC1 (nonaromatic ring conformer: 42.70628449909441 kcal/mol)

>  <smiles>  (12) 
C=CCSc1nc2ccccc2nc1N1CCOCC1

>  <score_type>  (12) 
oracle

>  <origin>  (12) 
adg

>  <m_score__min__energy>  (12) 
-5.1399999999999997

>  <m_primary>  (12) 
energy

$$$$
12:0
     RDKit          3D

 42 44  0  0  0  0  0  0  0  0999 V2000
   58.3100   24.9020   45.3330 C   0  0  0  0  0  0  0  0  0  0  0  0
   57.9900   26.3040   45.0650 C   0  0  0  0  0  0  0  0  0  0  0  0
   57.7260   27.4590   44.8450 C   0  0  0  0  0  0  0  0  0  0  0  0
   57.4120   28.8360   44.5830 C   0  0  0  0  0  0  0  0  0  0  0  0
   56.1430   29.3430   44.3500 C   0  0  0  0  0  0  0  0  0  0  0  0
   56.1410   30.7230   44.1140 C   0  0  0  0  0  0  0  0  0  0  0  0
   57.4090   31.2970   44.1790 C   0  0  0  0  0  0  0  0  0  0  0  0
   57.7400   32.7490   43.9310 C   0  0  0  0  0  0  0  0  0  0  0  0
   58.1760   33.4890   45.1420 N   0  0  0  0  0  0  0  0  0  0  0  0
   58.2830   32.6200   46.3490 C   0  0  0  0  0  0  0  0  0  0  0  0
   59.7350   32.3270   46.7550 C   0  0  0  0  0  0  0  0  0  0  0  0
   60.4660   33.5870   46.9520 N   0  0  0  0  0  0  0  0  0  0  0  0
   61.5800   33.6560   47.8690 C   0  0  0  0  0  0  0  0  0  0  0  0
   62.8650   33.2400   47.4700 C   0  0  0  0  0  0  0  0  0  0  0  0
   63.9410   33.3110   48.3590 C   0  0  0  0  0  0  0  0  0  0  0  0
   63.7500   33.7960   49.6550 C   0  0  0  0  0  0  0  0  0  0  0  0
   62.4810   34.2130   50.0620 C   0  0  0  0  0  0  0  0  0  0  0  0
   61.4020   34.1460   49.1780 C   0  0  0  0  0  0  0  0  0  0  0  0
   60.0670   34.7660   46.1730 C   0  0  0  0  0  0  0  0  0  0  0  0
   59.3730   34.3300   44.8770 C   0  0  0  0  0  0  0  0  0  0  0  0
   58.5330   30.0810   44.4950 S   0  0  0  0  0  0  0  0  0  0  0  0
   58.3479   24.7358   46.4197 H   0  0  0  0  0  0  0  0  0  0  0  0
   57.5357   24.2581   44.8904 H   0  0  0  0  0  0  0  0  0  0  0  0
   59.2870   24.6578   44.8904 H   0  0  0  0  0  0  0  0  0  0  0  0
   55.2327   28.7255   44.3505 H   0  0  0  0  0  0  0  0  0  0  0  0
   55.2281   31.2976   43.8984 H   0  0  0  0  0  0  0  0  0  0  0  0
   58.5495   32.7962   43.1877 H   0  0  0  0  0  0  0  0  0  0  0  0
   56.8137   33.2295   43.5832 H   0  0  0  0  0  0  0  0  0  0  0  0
   57.3970   34.1640   45.3430 H   0  0  0  0  0  0  0  0  0  0  0  0
   57.7798   33.1229   47.1880 H   0  0  0  0  0  0  0  0  0  0  0  0
   57.8113   31.6574   46.1024 H   0  0  0  0  0  0  0  0  0  0  0  0
   59.7421   31.7514   47.6923 H   0  0  0  0  0  0  0  0  0  0  0  0
   60.2229   31.7474   45.9575 H   0  0  0  0  0  0  0  0  0  0  0  0
   63.0229   32.8564   46.4512 H   0  0  0  0  0  0  0  0  0  0  0  0
   64.9409   32.9841   48.0374 H   0  0  0  0  0  0  0  0  0  0  0  0
   64.5979   33.8493   50.3538 H   0  0  0  0  0  0  0  0  0  0  0  0
   62.3308   34.5955   51.0823 H   0  0  0  0  0  0  0  0  0  0  0  0
   60.4060   34.4782   49.5060 H   0  0  0  0  0  0  0  0  0  0  0  0
   59.3741   35.3784   46.7687 H   0  0  0  0  0  0  0  0  0  0  0  0
   60.9632   35.3524   45.9222 H   0  0  0  0  0  0  0  0  0  0  0  0
   59.0610   35.2271   44.3221 H   0  0  0  0  0  0  0  0  0  0  0  0
   60.0875   33.7301   44.2942 H   0  0  0  0  0  0  0  0  0  0  0  0
  1  2  1  0
  2  3  3  0
  3  4  1  0
  4  5  2  0
  5  6  1  0
  6  7  2  0
  7  8  1  0
  8  9  1  0
  9 10  1  0
 10 11  1  0
 11 12  1  0
 12 13  1  0
 13 14  2  0
 14 15  1  0
 15 16  2  0
 16 17  1  0
 17 18  2  0
 12 19  1  0
 19 20  1  0
  7 21  1  0
 21  4  1  0
 20  9  1  0
 18 13  1  0
  1 22  1  0
  1 23  1  0
  1 24  1  0
  5 25  1  0
  6 26  1  0
  8 27  1  0
  8 28  1  0
  9 29  1  0
 10 30  1  0
 10 31  1  0
 11 32  1  0
 11 33  1  0
 14 34  1  0
 15 35  1  0
 16 36  1  0
 17 37  1  0
 18 38  1  0
 19 39  1  0
 19 40  1  0
 20 41  1  0
 20 42  1  0
M  CHG  1   9   1
M  END
>  <UniqueID>  (13) 
13

>  <SMILES>  (13) 
CC#Cc1ccc(C[NH+]2CCN(c3ccccc3)CC2)s1

>  <Energy>  (13) 
76.32651109578426

>  <Genealogy>  (13) 
CC#Cc1ccc(C[NH+]2CCN(c3ccccc3)CC2)s1 (protonated)
CC#Cc1ccc(C[NH+]2CCN(c3ccccc3)CC2)s1 (3D coordinates assigned)
CC#Cc1ccc(C[NH+]2CCN(c3ccccc3)CC2)s1 (nonaromatic ring conformer: 76.32651109578426 kcal/mol)

>  <smiles>  (13) 
CC#Cc1ccc(CN2CCN(c3ccccc3)CC2)s1

>  <score_type>  (13) 
oracle

>  <origin>  (13) 
adg

>  <m_score__min__energy>  (13) 
-5.3200000000000003

>  <m_primary>  (13) 
energy

$$$$
13:0
     RDKit          3D

 57 60  0  0  0  0  0  0  0  0999 V2000
   58.7840   34.2870   53.0030 C   0  0  0  0  0  0  0  0  0  0  0  0
   59.6130   33.1260   53.0350 O   0  0  0  0  0  0  0  0  0  0  0  0
   59.6670   32.1610   52.0210 C   0  0  0  0  0  0  0  0  0  0  0  0
   60.8430   31.4550   51.7090 C   0  0  0  0  0  0  0  0  0  0  0  0
   60.8450   30.5070   50.6800 C   0  0  0  0  0  0  0  0  0  0  0  0
   59.6720   30.2540   49.9440 C   0  0  0  0  0  0  0  0  0  0  0  0
   59.6270   29.3220   48.8960 O   0  0  0  0  0  0  0  0  0  0  0  0
   60.6360   29.1830   47.8970 C   0  0  0  0  0  0  0  0  0  0  0  0
   60.0750   29.5570   46.5150 C   0  0  0  0  0  0  0  0  0  0  0  0
   58.6060   29.8150   46.5240 N   0  0  2  0  0  0  0  0  0  0  0  0
   57.8490   28.5320   46.7040 C   0  0  0  0  0  0  0  0  0  0  0  0
   57.2530   27.9870   45.4030 C   0  0  0  0  0  0  0  0  0  0  0  0
   56.3580   28.9870   44.8560 N   0  0  0  0  0  0  0  0  0  0  0  0
   56.8000   30.3370   44.8580 C   0  0  0  0  0  0  0  0  0  0  0  0
   56.0360   31.2440   44.4330 O   0  0  0  0  0  0  0  0  0  0  0  0
   58.2190   30.6290   45.3160 C   0  0  1  0  0  0  0  0  0  0  0  0
   58.4320   32.1490   45.5760 C   0  0  0  0  0  0  0  0  0  0  0  0
   58.7060   32.4860   47.0250 C   0  0  0  0  0  0  0  0  0  0  0  0
   57.7670   32.4320   47.8650 O   0  0  0  0  0  0  0  0  0  0  0  0
   60.0140   32.9210   47.4540 N   0  0  0  0  0  0  0  0  0  0  0  0
   61.1230   33.0260   46.4840 C   0  0  0  0  0  0  0  0  0  0  0  0
   62.4410   32.5700   47.1170 C   0  0  0  0  0  0  0  0  0  0  0  0
   62.6080   33.2180   48.4520 C   0  0  0  0  0  0  0  0  0  0  0  0
   64.0440   33.4540   49.2850 S   0  0  0  0  0  0  0  0  0  0  0  0
   63.3360   34.1470   50.6490 C   0  0  0  0  0  0  0  0  0  0  0  0
   61.9590   34.1850   50.4630 C   0  0  0  0  0  0  0  0  0  0  0  0
   61.5540   33.6530   49.2340 C   0  0  0  0  0  0  0  0  0  0  0  0
   60.1290   33.5940   48.7620 C   0  0  0  0  0  0  0  0  0  0  0  0
   58.5040   30.9570   50.2610 C   0  0  0  0  0  0  0  0  0  0  0  0
   58.4990   31.8980   51.2940 C   0  0  0  0  0  0  0  0  0  0  0  0
   58.5575   34.6043   54.0316 H   0  0  0  0  0  0  0  0  0  0  0  0
   59.3087   35.0978   52.4764 H   0  0  0  0  0  0  0  0  0  0  0  0
   57.8468   34.0539   52.4764 H   0  0  0  0  0  0  0  0  0  0  0  0
   61.7651   31.6491   52.2765 H   0  0  0  0  0  0  0  0  0  0  0  0
   61.7679   29.9566   50.4449 H   0  0  0  0  0  0  0  0  0  0  0  0
   61.4791   29.8472   48.1381 H   0  0  0  0  0  0  0  0  0  0  0  0
   60.9746   28.1367   47.8741 H   0  0  0  0  0  0  0  0  0  0  0  0
   60.5868   30.4655   46.1648 H   0  0  0  0  0  0  0  0  0  0  0  0
   60.2508   28.6991   45.8493 H   0  0  0  0  0  0  0  0  0  0  0  0
   58.3850   30.3960   47.3680 H   0  0  0  0  0  0  0  0  0  0  0  0
   58.5355   27.7774   47.1154 H   0  0  0  0  0  0  0  0  0  0  0  0
   57.0084   28.7444   47.3810 H   0  0  0  0  0  0  0  0  0  0  0  0
   58.0590   27.7769   44.6845 H   0  0  0  0  0  0  0  0  0  0  0  0
   56.7031   27.0550   45.6004 H   0  0  0  0  0  0  0  0  0  0  0  0
   58.8850   30.3281   44.4938 H   0  0  0  0  0  0  0  0  0  0  0  0
   59.2873   32.4879   44.9730 H   0  0  0  0  0  0  0  0  0  0  0  0
   57.4960   32.6565   45.2996 H   0  0  0  0  0  0  0  0  0  0  0  0
   60.9022   32.3915   45.6130 H   0  0  0  0  0  0  0  0  0  0  0  0
   61.2241   34.0768   46.1749 H   0  0  0  0  0  0  0  0  0  0  0  0
   62.4289   31.4770   47.2399 H   0  0  0  0  0  0  0  0  0  0  0  0
   63.2781   32.8587   46.4643 H   0  0  0  0  0  0  0  0  0  0  0  0
   63.8739   34.5087   51.5377 H   0  0  0  0  0  0  0  0  0  0  0  0
   61.2585   34.5922   51.2069 H   0  0  0  0  0  0  0  0  0  0  0  0
   59.5314   33.0405   49.5013 H   0  0  0  0  0  0  0  0  0  0  0  0
   59.7622   34.6250   48.6502 H   0  0  0  0  0  0  0  0  0  0  0  0
   57.5819   30.7671   49.6920 H   0  0  0  0  0  0  0  0  0  0  0  0
   57.5711   32.4361   51.5380 H   0  0  0  0  0  0  0  0  0  0  0  0
  1  2  1  0
  2  3  1  0
  3  4  2  0
  4  5  1  0
  5  6  2  0
  6  7  1  0
  7  8  1  0
  8  9  1  0
  9 10  1  0
 10 11  1  0
 11 12  1  0
 12 13  1  0
 13 14  1  0
 14 15  2  0
 14 16  1  0
 16 17  1  0
 17 18  1  0
 18 19  2  0
 18 20  1  0
 20 21  1  0
 21 22  1  0
 22 23  1  0
 23 24  1  0
 24 25  1  0
 25 26  2  0
 26 27  1  0
 27 28  1  0
  6 29  1  0
 29 30  2  0
 30  3  1  0
 16 10  1  0
 28 20  1  0
 27 23  2  0
  1 31  1  0
  1 32  1  0
  1 33  1  0
  4 34  1  0
  5 35  1  0
  8 36  1  0
  8 37  1  0
  9 38  1  0
  9 39  1  0
 10 40  1  1
 11 41  1  0
 11 42  1  0
 12 43  1  0
 12 44  1  0
 16 45  1  6
 17 46  1  0
 17 47  1  0
 21 48  1  0
 21 49  1  0
 22 50  1  0
 22 51  1  0
 25 52  1  0
 26 53  1  0
 28 54  1  0
 28 55  1  0
 29 56  1  0
 30 57  1  0
M  CHG  2  10   1  13  -1
M  END
>  <UniqueID>  (14) 
14

>  <SMILES>  (14) 
COc1ccc(OCC[N@@H+]2CC[N-]C(=O)[C@H]2CC(=O)N2CCc3sccc3C2)cc1

>  <Energy>  (14) 
100.49393499995465

>  <Genealogy>  (14) 
COc1ccc(OCC[NH+]2CC[N-]C(=O)C2CC(=O)N2CCc3sccc3C2)cc1 (protonated)
COc1ccc(OCC[N@@H+]2CC[N-]C(=O)[C@H]2CC(=O)N2CCc3sccc3C2)cc1 (chirality)
COc1ccc(OCC[N@@H+]2CC[N-]C(=O)[C@H]2CC(=O)N2CCc3sccc3C2)cc1 (3D coordinates assigned)
COc1ccc(OCC[N@@H+]2CC[N-]C(=O)[C@H]2CC(=O)N2CCc3sccc3C2)cc1 (nonaromatic ring conformer: 100.49393499995465 kcal/mol)

>  <smiles>  (14) 
COc1ccc(OCCN2CCNC(=O)C2CC(=O)N2CCc3sccc3C2)cc1

>  <score_type>  (14) 
oracle

>  <origin>  (14) 
adg

>  <m_score__min__energy>  (14) 
-8.9499999999999993

>  <m_primary>  (14) 
energy

$$$$
14:0
     RDKit          3D

 45 48  0  0  0  0  0  0  0  0999 V2000
   58.9850   32.6310   49.1960 O   0  0  0  0  0  0  0  0  0  0  0  0
   59.7090   33.1560   48.3070 C   0  0  0  0  0  0  0  0  0  0  0  0
   61.1760   33.1510   48.4940 C   0  0  0  0  0  0  0  0  0  0  0  0
   62.0120   32.6520   47.4820 C   0  0  0  0  0  0  0  0  0  0  0  0
   63.3990   32.6340   47.6560 C   0  0  0  0  0  0  0  0  0  0  0  0
   63.9630   33.1030   48.8460 C   0  0  0  0  0  0  0  0  0  0  0  0
   65.3100   33.0810   49.0050 F   0  0  0  0  0  0  0  0  0  0  0  0
   63.1370   33.5830   49.8690 C   0  0  0  0  0  0  0  0  0  0  0  0
   63.8930   34.2060   51.5110 Br  0  0  0  0  0  0  0  0  0  0  0  0
   61.7490   33.6010   49.6960 C   0  0  0  0  0  0  0  0  0  0  0  0
   59.0910   33.7450   47.1410 N   0  0  0  0  0  0  0  0  0  0  0  0
   59.6990   34.9190   46.4910 C   0  0  0  0  0  0  0  0  0  0  0  0
   59.5460   34.8510   44.9650 C   0  0  0  0  0  0  0  0  0  0  0  0
   58.1240   34.4730   44.4980 C   0  0  0  0  0  0  0  0  0  0  0  0
   57.1470   34.2090   45.6520 C   0  0  0  0  0  0  0  0  0  0  0  0
   57.7560   33.2770   46.7180 C   0  0  1  0  0  0  0  0  0  0  0  0
   57.7870   31.8480   46.2150 C   0  0  0  0  0  0  0  0  0  0  0  0
   57.0070   31.5400   45.2230 N   0  0  0  0  0  0  0  0  0  0  0  0
   56.9430   29.9720   44.5090 S   0  0  0  0  0  0  0  0  0  0  0  0
   55.5720   29.3880   44.7000 O   0  0  0  0  0  0  0  0  0  0  0  0
   57.2690   30.0730   43.0460 O   0  0  0  0  0  0  0  0  0  0  0  0
   58.1260   28.9820   45.3120 C   0  0  0  0  0  0  0  0  0  0  0  0
   58.3190   27.6520   44.9140 C   0  0  0  0  0  0  0  0  0  0  0  0
   59.2670   26.8590   45.5640 C   0  0  0  0  0  0  0  0  0  0  0  0
   60.0230   27.3920   46.6090 C   0  0  0  0  0  0  0  0  0  0  0  0
   59.8320   28.7180   47.0080 C   0  0  0  0  0  0  0  0  0  0  0  0
   58.8810   29.5270   46.3610 C   0  0  0  0  0  0  0  0  0  0  0  0
   58.7040   30.8900   46.7910 N   0  0  0  0  0  0  0  0  0  0  0  0
   61.5731   32.2732   46.5472 H   0  0  0  0  0  0  0  0  0  0  0  0
   64.0478   32.2500   46.8550 H   0  0  0  0  0  0  0  0  0  0  0  0
   61.1020   33.9696   50.5056 H   0  0  0  0  0  0  0  0  0  0  0  0
   59.2050   35.8296   46.8608 H   0  0  0  0  0  0  0  0  0  0  0  0
   60.7720   34.9339   46.7328 H   0  0  0  0  0  0  0  0  0  0  0  0
   59.7978   35.8368   44.5469 H   0  0  0  0  0  0  0  0  0  0  0  0
   60.2212   34.0584   44.6102 H   0  0  0  0  0  0  0  0  0  0  0  0
   57.7273   35.2985   43.8887 H   0  0  0  0  0  0  0  0  0  0  0  0
   58.2105   33.5359   43.9284 H   0  0  0  0  0  0  0  0  0  0  0  0
   56.8870   35.1678   46.1244 H   0  0  0  0  0  0  0  0  0  0  0  0
   56.2548   33.7166   45.2378 H   0  0  0  0  0  0  0  0  0  0  0  0
   57.1144   33.3030   47.6111 H   0  0  0  0  0  0  0  0  0  0  0  0
   57.7236   27.2328   44.0895 H   0  0  0  0  0  0  0  0  0  0  0  0
   59.4178   25.8148   45.2525 H   0  0  0  0  0  0  0  0  0  0  0  0
   60.7707   26.7674   47.1197 H   0  0  0  0  0  0  0  0  0  0  0  0
   60.4297   29.1315   47.8337 H   0  0  0  0  0  0  0  0  0  0  0  0
   59.2870   31.2060   47.5960 H   0  0  0  0  0  0  0  0  0  0  0  0
  1  2  2  0
  2  3  1  0
  3  4  2  0
  4  5  1  0
  5  6  2  0
  6  7  1  0
  6  8  1  0
  8  9  1  0
  8 10  2  0
  2 11  1  0
 11 12  1  0
 12 13  1  0
 13 14  1  0
 14 15  1  0
 15 16  1  0
 16 17  1  0
 17 18  2  0
 18 19  1  0
 19 20  2  0
 19 21  2  0
 19 22  1  0
 22 23  2  0
 23 24  1  0
 24 25  2  0
 25 26  1  0
 26 27  2  0
 27 28  1  0
 10  3  1  0
 16 11  1  0
 28 17  1  0
 27 22  1  0
  4 29  1  0
  5 30  1  0
 10 31  1  0
 12 32  1  0
 12 33  1  0
 13 34  1  0
 13 35  1  0
 14 36  1  0
 14 37  1  0
 15 38  1  0
 15 39  1  0
 16 40  1  1
 23 41  1  0
 24 42  1  0
 25 43  1  0
 26 44  1  0
 28 45  1  0
M  END
>  <UniqueID>  (15) 
15

>  <SMILES>  (15) 
O=C(c1ccc(F)c(Br)c1)N1CCCC[C@H]1C1=NS(=O)(=O)c2ccccc2N1

>  <Energy>  (15) 
60.80696682956746

>  <Genealogy>  (15) 
O=C(c1ccc(F)c(Br)c1)N1CCCC[C@H]1C1=NS(=O)(=O)c2ccccc2N1 (chirality)
O=C(c1ccc(F)c(Br)c1)N1CCCC[C@H]1C1=NS(=O)(=O)c2ccccc2N1 (3D coordinates assigned)
O=C(c1ccc(F)c(Br)c1)N1CCCC[C@H]1C1=NS(=O)(=O)c2ccccc2N1 (nonaromatic ring conformer: 60.80696682956746 kcal/mol)

>  <smiles>  (15) 
O=C(c1ccc(F)c(Br)c1)N1CCCCC1C1=NS(=O)(=O)c2ccccc2N1

>  <score_type>  (15) 
oracle

>  <origin>  (15) 
adg

>  <m_score__min__energy>  (15) 
-10.119999999999999

>  <m_primary>  (15) 
energy

$$$$
15:0
     RDKit          3D

 48 49  0  0  0  0  0  0  0  0999 V2000
   56.1760   23.7280   43.6560 C   0  0  0  0  0  0  0  0  0  0  0  0
   57.6010   23.5000   44.1500 C   0  0  0  0  0  0  0  0  0  0  0  0
   58.0000   24.5400   45.0430 O   0  0  0  0  0  0  0  0  0  0  0  0
   57.7480   25.9110   44.8660 C   0  0  0  0  0  0  0  0  0  0  0  0
   58.1310   26.5010   43.6580 C   0  0  0  0  0  0  0  0  0  0  0  0
   57.9140   27.8630   43.4290 C   0  0  0  0  0  0  0  0  0  0  0  0
   57.3190   28.6640   44.4170 C   0  0  0  0  0  0  0  0  0  0  0  0
   57.1140   30.1130   44.1720 C   0  0  0  0  0  0  0  0  0  0  0  0
   57.0350   30.5330   42.9870 O   0  0  0  0  0  0  0  0  0  0  0  0
   56.9630   31.0570   45.2420 N   0  0  0  0  0  0  0  0  0  0  0  0
   57.8020   32.1920   45.5090 C   0  0  0  0  0  0  0  0  0  0  0  0
   57.7480   33.2740   44.6200 C   0  0  0  0  0  0  0  0  0  0  0  0
   58.4980   34.4280   44.8590 C   0  0  0  0  0  0  0  0  0  0  0  0
   59.3190   34.5070   45.9840 C   0  0  0  0  0  0  0  0  0  0  0  0
   59.4120   33.4230   46.8600 C   0  0  0  0  0  0  0  0  0  0  0  0
   58.6810   32.2500   46.6190 C   0  0  0  0  0  0  0  0  0  0  0  0
   58.8860   31.1000   47.5190 C   0  0  0  0  0  0  0  0  0  0  0  0
   58.5200   31.2040   48.7210 O   0  0  0  0  0  0  0  0  0  0  0  0
   59.5130   29.8840   47.0590 N   0  0  0  0  0  0  0  0  0  0  0  0
   59.2420   28.6190   47.7570 C   0  0  0  0  0  0  0  0  0  0  0  0
   60.3290   28.3170   48.7860 C   0  0  0  0  0  0  0  0  0  0  0  0
   60.5710   29.9250   46.0380 C   0  0  0  0  0  0  0  0  0  0  0  0
   60.6520   28.6110   45.2650 C   0  0  0  0  0  0  0  0  0  0  0  0
   56.9040   28.0660   45.6190 C   0  0  0  0  0  0  0  0  0  0  0  0
   57.1220   26.7040   45.8460 C   0  0  0  0  0  0  0  0  0  0  0  0
   55.5018   23.8359   44.5184 H   0  0  0  0  0  0  0  0  0  0  0  0
   56.1412   24.6431   43.0466 H   0  0  0  0  0  0  0  0  0  0  0  0
   55.8574   22.8694   43.0466 H   0  0  0  0  0  0  0  0  0  0  0  0
   57.6506   22.5348   44.6753 H   0  0  0  0  0  0  0  0  0  0  0  0
   58.2789   23.4995   43.2837 H   0  0  0  0  0  0  0  0  0  0  0  0
   58.6080   25.8874   42.8796 H   0  0  0  0  0  0  0  0  0  0  0  0
   58.2112   28.3100   42.4688 H   0  0  0  0  0  0  0  0  0  0  0  0
   57.1095   33.2140   43.7263 H   0  0  0  0  0  0  0  0  0  0  0  0
   58.4411   35.2751   44.1595 H   0  0  0  0  0  0  0  0  0  0  0  0
   59.8937   35.4239   46.1815 H   0  0  0  0  0  0  0  0  0  0  0  0
   60.0626   33.4895   47.7445 H   0  0  0  0  0  0  0  0  0  0  0  0
   58.2717   28.6921   48.2699 H   0  0  0  0  0  0  0  0  0  0  0  0
   59.2263   27.8065   47.0156 H   0  0  0  0  0  0  0  0  0  0  0  0
   59.9166   28.4316   49.7993 H   0  0  0  0  0  0  0  0  0  0  0  0
   60.6863   27.2856   48.6500 H   0  0  0  0  0  0  0  0  0  0  0  0
   61.1671   29.0163   48.6500 H   0  0  0  0  0  0  0  0  0  0  0  0
   60.3565   30.7419   45.3333 H   0  0  0  0  0  0  0  0  0  0  0  0
   61.5338   30.0881   46.5443 H   0  0  0  0  0  0  0  0  0  0  0  0
   60.7038   27.7713   45.9737 H   0  0  0  0  0  0  0  0  0  0  0  0
   59.7589   28.5022   44.6322 H   0  0  0  0  0  0  0  0  0  0  0  0
   61.5517   28.6127   44.6322 H   0  0  0  0  0  0  0  0  0  0  0  0
   56.4038   28.6742   46.3871 H   0  0  0  0  0  0  0  0  0  0  0  0
   56.8026   26.2496   46.7955 H   0  0  0  0  0  0  0  0  0  0  0  0
  1  2  1  0
  2  3  1  0
  3  4  1  0
  4  5  2  0
  5  6  1  0
  6  7  2  0
  7  8  1  0
  8  9  2  0
  8 10  1  0
 10 11  1  0
 11 12  2  0
 12 13  1  0
 13 14  2  0
 14 15  1  0
 15 16  2  0
 16 17  1  0
 17 18  2  0
 17 19  1  0
 19 20  1  0
 20 21  1  0
 19 22  1  0
 22 23  1  0
  7 24  1  0
 24 25  2  0
 25  4  1  0
 16 11  1  0
  1 26  1  0
  1 27  1  0
  1 28  1  0
  2 29  1  0
  2 30  1  0
  5 31  1  0
  6 32  1  0
 12 33  1  0
 13 34  1  0
 14 35  1  0
 15 36  1  0
 20 37  1  0
 20 38  1  0
 21 39  1  0
 21 40  1  0
 21 41  1  0
 22 42  1  0
 22 43  1  0
 23 44  1  0
 23 45  1  0
 23 46  1  0
 24 47  1  0
 25 48  1  0
M  CHG  1  10  -1
M  END
>  <UniqueID>  (16) 
16

>  <SMILES>  (16) 
CCOc1ccc(C(=O)[N-]c2ccccc2C(=O)N(CC)CC)cc1

>  <Energy>  (16) 
54.83935756741024

>  <Genealogy>  (16) 
CCOc1ccc(C(=O)[N-]c2ccccc2C(=O)N(CC)CC)cc1 (protonated)
CCOc1ccc(C(=O)[N-]c2ccccc2C(=O)N(CC)CC)cc1 (3D coordinates assigned)
CCOc1ccc(C(=O)[N-]c2ccccc2C(=O)N(CC)CC)cc1 (optimized conformer: 54.83935756741024 kcal/mol)

>  <smiles>  (16) 
CCOc1ccc(C(=O)Nc2ccccc2C(=O)N(CC)CC)cc1

>  <score_type>  (16) 
oracle

>  <origin>  (16) 
adg

>  <m_score__min__energy>  (16) 
-9.1199999999999992

>  <m_primary>  (16) 
energy

$$$$
16:0
     RDKit          3D

 40 41  0  0  0  0  0  0  0  0999 V2000
   57.5740   32.0880   41.7980 C   0  0  0  0  0  0  0  0  0  0  0  0
   57.0230   31.1940   42.3900 C   0  0  0  0  0  0  0  0  0  0  0  0
   56.3540   30.1100   43.1100 C   0  0  0  0  0  0  0  0  0  0  0  0
   56.4140   30.3770   44.5070 O   0  0  0  0  0  0  0  0  0  0  0  0
   57.5480   30.2710   45.3340 C   0  0  0  0  0  0  0  0  0  0  0  0
   58.1020   31.4690   45.8140 C   0  0  0  0  0  0  0  0  0  0  0  0
   57.3230   33.1560   45.3490 Br  0  0  0  0  0  0  0  0  0  0  0  0
   59.2280   31.4580   46.6380 C   0  0  0  0  0  0  0  0  0  0  0  0
   59.8330   30.2480   46.9940 C   0  0  0  0  0  0  0  0  0  0  0  0
   61.0650   30.2390   47.8700 C   0  0  0  0  0  0  0  0  0  0  0  0
   62.1450   31.0870   47.3260 N   0  0  0  0  0  0  0  0  0  0  0  0
   62.3470   32.3410   48.0760 C   0  0  0  0  0  0  0  0  0  0  0  0
   61.3150   33.3890   47.7300 C   0  0  0  0  0  0  0  0  0  0  0  0
   61.2210   33.9030   46.4290 C   0  0  0  0  0  0  0  0  0  0  0  0
   60.2570   34.8660   46.1240 C   0  0  0  0  0  0  0  0  0  0  0  0
   59.3970   35.3130   47.1280 C   0  0  0  0  0  0  0  0  0  0  0  0
   59.5050   34.8150   48.3890 N   0  0  0  0  0  0  0  0  0  0  0  0
   60.4350   33.8760   48.7090 C   0  0  0  0  0  0  0  0  0  0  0  0
   59.2850   29.0450   46.5320 C   0  0  0  0  0  0  0  0  0  0  0  0
   58.1470   29.0370   45.7000 C   0  0  0  0  0  0  0  0  0  0  0  0
   57.6050   27.8280   45.2340 O   0  0  0  0  0  0  0  0  0  0  0  0
   58.0890   27.0920   44.1150 C   0  0  0  0  0  0  0  0  0  0  0  0
   58.0768   32.9037   41.2578 H   0  0  0  0  0  0  0  0  0  0  0  0
   55.3031   30.0484   42.7908 H   0  0  0  0  0  0  0  0  0  0  0  0
   56.8534   29.1545   42.8919 H   0  0  0  0  0  0  0  0  0  0  0  0
   59.6425   32.4066   47.0099 H   0  0  0  0  0  0  0  0  0  0  0  0
   60.7919   30.6110   48.8685 H   0  0  0  0  0  0  0  0  0  0  0  0
   61.4387   29.2054   47.9151 H   0  0  0  0  0  0  0  0  0  0  0  0
   61.9330   31.3250   46.3290 H   0  0  0  0  0  0  0  0  0  0  0  0
   63.0330   30.5340   47.3240 H   0  0  0  0  0  0  0  0  0  0  0  0
   62.2831   32.1236   49.1524 H   0  0  0  0  0  0  0  0  0  0  0  0
   63.3356   32.7398   47.8045 H   0  0  0  0  0  0  0  0  0  0  0  0
   61.9079   33.5470   45.6471 H   0  0  0  0  0  0  0  0  0  0  0  0
   60.1763   35.2680   45.1033 H   0  0  0  0  0  0  0  0  0  0  0  0
   58.6311   36.0687   46.8993 H   0  0  0  0  0  0  0  0  0  0  0  0
   60.4979   33.4964   49.7395 H   0  0  0  0  0  0  0  0  0  0  0  0
   59.7498   28.0914   46.8228 H   0  0  0  0  0  0  0  0  0  0  0  0
   58.6614   26.2216   44.4684 H   0  0  0  0  0  0  0  0  0  0  0  0
   57.2393   26.7494   43.5061 H   0  0  0  0  0  0  0  0  0  0  0  0
   58.7402   27.7364   43.5061 H   0  0  0  0  0  0  0  0  0  0  0  0
  1  2  3  0
  2  3  1  0
  3  4  1  0
  4  5  1  0
  5  6  2  0
  6  7  1  0
  6  8  1  0
  8  9  2  0
  9 10  1  0
 10 11  1  0
 11 12  1  0
 12 13  1  0
 13 14  2  0
 14 15  1  0
 15 16  2  0
 16 17  1  0
 17 18  2  0
  9 19  1  0
 19 20  2  0
 20 21  1  0
 21 22  1  0
 20  5  1  0
 18 13  1  0
  1 23  1  0
  3 24  1  0
  3 25  1  0
  8 26  1  0
 10 27  1  0
 10 28  1  0
 11 29  1  0
 11 30  1  0
 12 31  1  0
 12 32  1  0
 14 33  1  0
 15 34  1  0
 16 35  1  0
 18 36  1  0
 19 37  1  0
 22 38  1  0
 22 39  1  0
 22 40  1  0
M  CHG  1  11   1
M  END
>  <UniqueID>  (17) 
17

>  <SMILES>  (17) 
C#CCOc1c(Br)cc(C[NH2+]Cc2cccnc2)cc1OC

>  <Energy>  (17) 
40.30985237362657

>  <Genealogy>  (17) 
C#CCOc1c(Br)cc(C[NH2+]Cc2cccnc2)cc1OC (protonated)
C#CCOc1c(Br)cc(C[NH2+]Cc2cccnc2)cc1OC (3D coordinates assigned)
C#CCOc1c(Br)cc(C[NH2+]Cc2cccnc2)cc1OC (optimized conformer: 40.30985237362657 kcal/mol)

>  <smiles>  (17) 
C#CCOc1c(Br)cc(CNCc2cccnc2)cc1OC

>  <score_type>  (17) 
oracle

>  <origin>  (17) 
adg

>  <m_score__min__energy>  (17) 
-5.25

>  <m_primary>  (17) 
energy

$$$$
17:0
     RDKit          3D

 43 45  0  0  0  0  0  0  0  0999 V2000
   58.8334   25.6583   46.0714 H   0  0  0  0  0  0  0  0  0  0  0  0
   57.9900   26.3330   45.8630 C   0  0  0  0  0  0  0  0  0  0  0  0
   58.1010   27.9000   45.2610 S   0  0  0  0  0  0  0  0  0  0  0  0
   56.4280   28.1240   45.2470 C   0  0  0  0  0  0  0  0  0  0  0  0
   55.8000   29.2080   44.8980 N   0  0  0  0  0  0  0  0  0  0  0  0
   56.1830   30.0970   43.8380 C   0  0  0  0  0  0  0  0  0  0  0  0
   55.8720   29.7920   42.6560 O   0  0  0  0  0  0  0  0  0  0  0  0
   57.0170   31.2930   44.0980 C   0  0  0  0  0  0  0  0  0  0  0  0
   57.1930   31.7080   45.3830 N   0  0  0  0  0  0  0  0  0  0  0  0
   57.9520   32.7910   45.6880 C   0  0  0  0  0  0  0  0  0  0  0  0
   58.1110   33.2010   47.0150 C   0  0  0  0  0  0  0  0  0  0  0  0
   57.6190   32.6450   47.8267 H   0  0  0  0  0  0  0  0  0  0  0  0
   58.8980   34.3210   47.3080 C   0  0  0  0  0  0  0  0  0  0  0  0
   59.0238   34.6454   48.3515 H   0  0  0  0  0  0  0  0  0  0  0  0
   59.5260   35.0300   46.2750 C   0  0  0  0  0  0  0  0  0  0  0  0
   60.1438   35.9093   46.5097 H   0  0  0  0  0  0  0  0  0  0  0  0
   59.3690   34.6220   44.9460 C   0  0  0  0  0  0  0  0  0  0  0  0
   59.8626   35.1790   44.1360 H   0  0  0  0  0  0  0  0  0  0  0  0
   58.5820   33.5030   44.6500 C   0  0  0  0  0  0  0  0  0  0  0  0
   58.4150   33.0920   43.3670 N   0  0  0  0  0  0  0  0  0  0  0  0
   57.6500   32.0070   43.0590 C   0  0  0  0  0  0  0  0  0  0  0  0
   57.4850   31.6160   41.7260 O   0  0  0  0  0  0  0  0  0  0  0  0
   57.3380   32.5490   40.6610 C   0  0  0  0  0  0  0  0  0  0  0  0
   57.1794   33.5558   41.0748 H   0  0  0  0  0  0  0  0  0  0  0  0
   58.2477   32.5459   40.0426 H   0  0  0  0  0  0  0  0  0  0  0  0
   56.4733   32.2663   40.0426 H   0  0  0  0  0  0  0  0  0  0  0  0
   55.7770   27.0360   45.7060 N   0  0  0  0  0  0  0  0  0  0  0  0
   56.6400   26.0410   46.0510 C   0  0  0  0  0  0  0  0  0  0  0  0
   56.1530   24.7090   46.5360 C   0  0  0  0  0  0  0  0  0  0  0  0
   57.0165   24.0525   46.7187 H   0  0  0  0  0  0  0  0  0  0  0  0
   55.5843   24.8555   47.4661 H   0  0  0  0  0  0  0  0  0  0  0  0
   55.2370   24.0590   45.4920 C   0  0  0  0  0  0  0  0  0  0  0  0
   54.4321   23.5140   46.0070 H   0  0  0  0  0  0  0  0  0  0  0  0
   54.8147   24.8475   44.8518 H   0  0  0  0  0  0  0  0  0  0  0  0
   55.9980   23.1150   44.6450 N   0  0  0  0  0  0  0  0  0  0  0  0
   56.2680   23.6940   43.3170 C   0  0  0  0  0  0  0  0  0  0  0  0
   56.7302   24.6851   43.4362 H   0  0  0  0  0  0  0  0  0  0  0  0
   56.9517   23.0350   42.7618 H   0  0  0  0  0  0  0  0  0  0  0  0
   55.3237   23.7941   42.7618 H   0  0  0  0  0  0  0  0  0  0  0  0
   57.2730   22.7650   45.2920 C   0  0  0  0  0  0  0  0  0  0  0  0
   57.1510   22.7985   46.3847 H   0  0  0  0  0  0  0  0  0  0  0  0
   57.5726   21.7514   44.9874 H   0  0  0  0  0  0  0  0  0  0  0  0
   58.0481   23.4836   44.9874 H   0  0  0  0  0  0  0  0  0  0  0  0
  1  2  1  0
  2  3  1  0
  3  4  1  0
  4  5  2  0
  5  6  1  0
  6  7  2  0
  6  8  1  0
  8  9  2  0
  9 10  1  0
 10 11  2  0
 11 12  1  0
 11 13  1  0
 13 14  1  0
 13 15  2  0
 15 16  1  0
 15 17  1  0
 17 18  1  0
 17 19  2  0
 19 20  1  0
 20 21  2  0
 21 22  1  0
 22 23  1  0
 23 24  1  0
 23 25  1  0
 23 26  1  0
  4 27  1  0
 27 28  1  0
 28 29  1  0
 29 30  1  0
 29 31  1  0
 29 32  1  0
 32 33  1  0
 32 34  1  0
 32 35  1  0
 35 36  1  0
 36 37  1  0
 36 38  1  0
 36 39  1  0
 35 40  1  0
 40 41  1  0
 40 42  1  0
 40 43  1  0
 28  2  2  0
 21  8  1  0
 19 10  1  0
M  CHG  1  27  -1
M  END
>  <UniqueID>  (18) 
18

>  <SMILES>  (18) 
COc1nc2ccccc2nc1C(=O)/N=c1/[n-]c(CCN(C)C)cs1

>  <Energy>  (18) 
82.26105023467943

>  <Genealogy>  (18) 
COc1nc2ccccc2nc1C(=O)N=c1[n-]c(CCN(C)C)cs1 (protonated)
COc1nc2ccccc2nc1C(=O)/N=c1/[n-]c(CCN(C)C)cs1 (cis-trans isomerization)
COc1nc2ccccc2nc1C(=O)/N=c1/[n-]c(CCN(C)C)cs1 (3D coordinates assigned)
COc1nc2ccccc2nc1C(=O)/N=c1/[n-]c(CCN(C)C)cs1 (optimized conformer: 82.26105023467943 kcal/mol)

>  <smiles>  (18) 
COc1nc2ccccc2nc1C(=O)N=c1[nH]c(CCN(C)C)cs1

>  <score_type>  (18) 
oracle

>  <origin>  (18) 
adg

>  <m_score__min__energy>  (18) 
-9.9100000000000001

>  <m_primary>  (18) 
energy

$$$$
18:0
     RDKit          3D

 54 55  0  0  0  0  0  0  0  0999 V2000
   62.9110   34.0290   50.2010 C   0  0  0  0  0  0  0  0  0  0  0  0
   63.4900   32.7170   49.6480 C   0  0  0  0  0  0  0  0  0  0  0  0
   63.6870   32.6950   48.1790 N   0  0  0  0  0  0  0  0  0  0  0  0
   63.4310   34.0140   47.5490 C   0  0  0  0  0  0  0  0  0  0  0  0
   63.3800   33.9200   46.0200 C   0  0  0  0  0  0  0  0  0  0  0  0
   62.9180   31.6280   47.5600 C   0  0  0  0  0  0  0  0  0  0  0  0
   63.4150   30.9290   46.6850 O   0  0  0  0  0  0  0  0  0  0  0  0
   61.4950   31.3610   47.9800 C   0  0  0  0  0  0  0  0  0  0  0  0
   60.8340   30.3550   47.0360 C   0  0  0  0  0  0  0  0  0  0  0  0
   59.3800   30.0870   47.4440 C   0  0  0  0  0  0  0  0  0  0  0  0
   58.4640   30.3930   46.3340 N   0  0  0  0  0  0  0  0  0  0  0  0
   58.1960   31.6210   45.8220 C   0  0  0  0  0  0  0  0  0  0  0  0
   58.7980   32.8970   46.2650 C   0  0  0  0  0  0  0  0  0  0  0  0
   58.8700   33.1980   47.6360 C   0  0  0  0  0  0  0  0  0  0  0  0
   59.4180   34.4100   48.0630 C   0  0  0  0  0  0  0  0  0  0  0  0
   59.8870   35.3360   47.1270 C   0  0  0  0  0  0  0  0  0  0  0  0
   59.8030   35.0530   45.7620 C   0  0  0  0  0  0  0  0  0  0  0  0
   59.2550   33.8410   45.3300 C   0  0  0  0  0  0  0  0  0  0  0  0
   57.2340   31.5300   44.8360 C   0  0  0  0  0  0  0  0  0  0  0  0
   56.9160   30.1900   44.7100 C   0  0  0  0  0  0  0  0  0  0  0  0
   55.9420   29.6620   43.7280 C   0  0  0  0  0  0  0  0  0  0  0  0
   56.2720   29.4950   42.2770 C   0  0  0  0  0  0  0  0  0  0  0  0
   54.7860   29.3510   44.1220 O   0  0  0  0  0  0  0  0  0  0  0  0
   57.6730   29.5120   45.6660 C   0  0  0  0  0  0  0  0  0  0  0  0
   57.6050   28.0370   45.9520 C   0  0  0  0  0  0  0  0  0  0  0  0
   62.9235   34.0006   51.3006 H   0  0  0  0  0  0  0  0  0  0  0  0
   63.5192   34.8753   49.8491 H   0  0  0  0  0  0  0  0  0  0  0  0
   61.8759   34.1501   49.8491 H   0  0  0  0  0  0  0  0  0  0  0  0
   64.4653   32.5447   50.1267 H   0  0  0  0  0  0  0  0  0  0  0  0
   62.7516   31.9334   49.8732 H   0  0  0  0  0  0  0  0  0  0  0  0
   64.7050   32.4870   48.0380 H   0  0  0  0  0  0  0  0  0  0  0  0
   62.4678   34.4006   47.9133 H   0  0  0  0  0  0  0  0  0  0  0  0
   64.2581   34.6864   47.8206 H   0  0  0  0  0  0  0  0  0  0  0  0
   62.8744   32.9882   45.7266 H   0  0  0  0  0  0  0  0  0  0  0  0
   62.8250   34.7805   45.6180 H   0  0  0  0  0  0  0  0  0  0  0  0
   64.4039   33.9239   45.6180 H   0  0  0  0  0  0  0  0  0  0  0  0
   61.4901   30.9546   49.0022 H   0  0  0  0  0  0  0  0  0  0  0  0
   60.9315   32.3050   47.9428 H   0  0  0  0  0  0  0  0  0  0  0  0
   60.8514   30.7578   46.0125 H   0  0  0  0  0  0  0  0  0  0  0  0
   61.3916   29.4083   47.0887 H   0  0  0  0  0  0  0  0  0  0  0  0
   59.2717   29.0277   47.7201 H   0  0  0  0  0  0  0  0  0  0  0  0
   59.1278   30.7317   48.2989 H   0  0  0  0  0  0  0  0  0  0  0  0
   58.4933   32.4763   48.3758 H   0  0  0  0  0  0  0  0  0  0  0  0
   59.4805   34.6360   49.1377 H   0  0  0  0  0  0  0  0  0  0  0  0
   60.3223   36.2878   47.4655 H   0  0  0  0  0  0  0  0  0  0  0  0
   60.1683   35.7842   45.0258 H   0  0  0  0  0  0  0  0  0  0  0  0
   59.1814   33.6259   44.2538 H   0  0  0  0  0  0  0  0  0  0  0  0
   56.8033   32.3631   44.2612 H   0  0  0  0  0  0  0  0  0  0  0  0
   57.2495   29.0003   42.1779 H   0  0  0  0  0  0  0  0  0  0  0  0
   55.4989   28.8796   41.7936 H   0  0  0  0  0  0  0  0  0  0  0  0
   56.3100   30.4824   41.7936 H   0  0  0  0  0  0  0  0  0  0  0  0
   57.5975   27.8744   47.0399 H   0  0  0  0  0  0  0  0  0  0  0  0
   56.6867   27.6203   45.5126 H   0  0  0  0  0  0  0  0  0  0  0  0
   58.4811   27.5375   45.5126 H   0  0  0  0  0  0  0  0  0  0  0  0
  1  2  1  0
  2  3  1  0
  3  4  1  0
  4  5  1  0
  3  6  1  0
  6  7  2  0
  6  8  1  0
  8  9  1  0
  9 10  1  0
 10 11  1  0
 11 12  1  0
 12 13  1  0
 13 14  2  0
 14 15  1  0
 15 16  2  0
 16 17  1  0
 17 18  2  0
 12 19  2  0
 19 20  1  0
 20 21  1  0
 21 22  1  0
 21 23  2  0
 20 24  2  0
 24 25  1  0
 24 11  1  0
 18 13  1  0
  1 26  1  0
  1 27  1  0
  1 28  1  0
  2 29  1  0
  2 30  1  0
  3 31  1  0
  4 32  1  0
  4 33  1  0
  5 34  1  0
  5 35  1  0
  5 36  1  0
  8 37  1  0
  8 38  1  0
  9 39  1  0
  9 40  1  0
 10 41  1  0
 10 42  1  0
 14 43  1  0
 15 44  1  0
 16 45  1  0
 17 46  1  0
 18 47  1  0
 19 48  1  0
 22 49  1  0
 22 50  1  0
 22 51  1  0
 25 52  1  0
 25 53  1  0
 25 54  1  0
M  CHG  1   3   1
M  END
>  <UniqueID>  (19) 
19

>  <SMILES>  (19) 
CC[NH+](CC)C(=O)CCCn1c(-c2ccccc2)cc(C(C)=O)c1C

>  <Energy>  (19) 
81.3982742384346

>  <Genealogy>  (19) 
CC[NH+](CC)C(=O)CCCn1c(-c2ccccc2)cc(C(C)=O)c1C (protonated)
CC[NH+](CC)C(=O)CCCn1c(-c2ccccc2)cc(C(C)=O)c1C (3D coordinates assigned)
CC[NH+](CC)C(=O)CCCn1c(-c2ccccc2)cc(C(C)=O)c1C (optimized conformer: 81.3982742384346 kcal/mol)

>  <smiles>  (19) 
CCN(CC)C(=O)CCCn1c(-c2ccccc2)cc(C(C)=O)c1C

>  <score_type>  (19) 
oracle

>  <origin>  (19) 
adg

>  <m_score__min__energy>  (19) 
-6.54

>  <m_primary>  (19) 
energy

$$$$
19:0
     RDKit          3D

 46 48  0  0  0  0  0  0  0  0999 V2000
   60.3910   29.3320   45.9110 Br  0  0  0  0  0  0  0  0  0  0  0  0
   58.5420   28.7840   45.6860 C   0  0  0  0  0  0  0  0  0  0  0  0
   58.1420   28.7460   44.2090 C   0  0  0  0  0  0  0  0  0  0  0  0
   56.7500   29.3470   43.9760 C   0  0  0  0  0  0  0  0  0  0  0  0
   56.8170   30.8760   43.9030 C   0  0  0  0  0  0  0  0  0  0  0  0
   57.0650   31.4300   45.1960 O   0  0  0  0  0  0  0  0  0  0  0  0
   57.8820   32.5420   45.4560 C   0  0  0  0  0  0  0  0  0  0  0  0
   58.1130   33.5820   44.5220 C   0  0  0  0  0  0  0  0  0  0  0  0
   58.9540   34.6710   44.8510 C   0  0  0  0  0  0  0  0  0  0  0  0
   59.5770   34.7390   46.1100 C   0  0  0  0  0  0  0  0  0  0  0  0
   59.3320   33.7020   47.0100 C   0  0  0  0  0  0  0  0  0  0  0  0
   58.5210   32.6500   46.6920 C   0  0  0  0  0  0  0  0  0  0  0  0
   58.5310   31.8260   47.7980 C   0  0  0  0  0  0  0  0  0  0  0  0
   59.3330   32.3820   48.7380 N   0  0  0  0  0  0  0  0  0  0  0  0
   59.8090   33.5270   48.2570 N   0  0  0  0  0  0  0  0  0  0  0  0
   60.7560   34.3780   48.9720 C   0  0  0  0  0  0  0  0  0  0  0  0
   61.6550   33.5130   49.8830 C   0  0  0  0  0  0  0  0  0  0  0  0
   62.8730   32.9820   49.2280 N   0  0  0  0  0  0  0  0  0  0  0  0
   62.6820   31.6590   48.6050 C   0  0  0  0  0  0  0  0  0  0  0  0
   63.0690   31.7700   47.1350 C   0  0  0  0  0  0  0  0  0  0  0  0
   63.1480   33.2540   46.8540 C   0  0  0  0  0  0  0  0  0  0  0  0
   63.4400   33.8730   48.2060 C   0  0  0  0  0  0  0  0  0  0  0  0
   58.4120   27.7804   46.1171 H   0  0  0  0  0  0  0  0  0  0  0  0
   57.9009   29.5170   46.1976 H   0  0  0  0  0  0  0  0  0  0  0  0
   58.8785   29.3191   43.6266 H   0  0  0  0  0  0  0  0  0  0  0  0
   58.1157   27.6934   43.8906 H   0  0  0  0  0  0  0  0  0  0  0  0
   56.3446   28.9592   43.0299 H   0  0  0  0  0  0  0  0  0  0  0  0
   56.1010   29.0646   44.8181 H   0  0  0  0  0  0  0  0  0  0  0  0
   57.6289   31.1703   43.2217 H   0  0  0  0  0  0  0  0  0  0  0  0
   55.8535   31.2562   43.5328 H   0  0  0  0  0  0  0  0  0  0  0  0
   57.6343   33.5424   43.5324 H   0  0  0  0  0  0  0  0  0  0  0  0
   59.1221   35.4716   44.1156 H   0  0  0  0  0  0  0  0  0  0  0  0
   60.2342   35.5802   46.3755 H   0  0  0  0  0  0  0  0  0  0  0  0
   57.9814   30.8786   47.8997 H   0  0  0  0  0  0  0  0  0  0  0  0
   61.3829   34.9165   48.2460 H   0  0  0  0  0  0  0  0  0  0  0  0
   60.2006   35.0989   49.5899 H   0  0  0  0  0  0  0  0  0  0  0  0
   61.9674   34.1283   50.7396 H   0  0  0  0  0  0  0  0  0  0  0  0
   61.0531   32.6394   50.1736 H   0  0  0  0  0  0  0  0  0  0  0  0
   63.3210   30.9157   49.1041 H   0  0  0  0  0  0  0  0  0  0  0  0
   61.6339   31.3393   48.7010 H   0  0  0  0  0  0  0  0  0  0  0  0
   64.0432   31.2916   46.9559 H   0  0  0  0  0  0  0  0  0  0  0  0
   62.3421   31.2668   46.4805 H   0  0  0  0  0  0  0  0  0  0  0  0
   63.9567   33.4737   46.1414 H   0  0  0  0  0  0  0  0  0  0  0  0
   62.2258   33.6468   46.4009 H   0  0  0  0  0  0  0  0  0  0  0  0
   64.5265   33.9670   48.3499 H   0  0  0  0  0  0  0  0  0  0  0  0
   62.9976   34.8776   48.2773 H   0  0  0  0  0  0  0  0  0  0  0  0
  1  2  1  0
  2  3  1  0
  3  4  1  0
  4  5  1  0
  5  6  1  0
  6  7  1  0
  7  8  2  0
  8  9  1  0
  9 10  2  0
 10 11  1  0
 11 12  2  0
 12 13  1  0
 13 14  2  0
 14 15  1  0
 15 16  1  0
 16 17  1  0
 17 18  1  0
 18 19  1  0
 19 20  1  0
 20 21  1  0
 21 22  1  0
 12  7  1  0
 22 18  1  0
 15 11  1  0
  2 23  1  0
  2 24  1  0
  3 25  1  0
  3 26  1  0
  4 27  1  0
  4 28  1  0
  5 29  1  0
  5 30  1  0
  8 31  1  0
  9 32  1  0
 10 33  1  0
 13 34  1  0
 16 35  1  0
 16 36  1  0
 17 37  1  0
 17 38  1  0
 19 39  1  0
 19 40  1  0
 20 41  1  0
 20 42  1  0
 21 43  1  0
 21 44  1  0
 22 45  1  0
 22 46  1  0
M  END
>  <UniqueID>  (20) 
20

>  <SMILES>  (20) 
BrCCCCOc1cccc2c1cnn2CCN1CCCC1

>  <Energy>  (20) 
82.32883661926488

>  <Genealogy>  (20) 
BrCCCCOc1cccc2c1cnn2CCN1CCCC1 (3D coordinates assigned)
BrCCCCOc1cccc2c1cnn2CCN1CCCC1 (nonaromatic ring conformer: 82.32883661926488 kcal/mol)

>  <smiles>  (20) 
BrCCCCOc1cccc2c1cnn2CCN1CCCC1

>  <score_type>  (20) 
oracle

>  <origin>  (20) 
adg

>  <m_score__min__energy>  (20) 
-7.4000000000000004

>  <m_primary>  (20) 
energy

$$$$
20:0
     RDKit          3D

 43 46  0  0  0  0  0  0  0  0999 V2000
   59.5940   35.2590   46.9300 C   0  0  0  0  0  0  0  0  0  0  0  0
   58.9390   34.1570   46.1390 C   0  0  0  0  0  0  0  0  0  0  0  0
   58.4280   34.4570   44.8630 C   0  0  0  0  0  0  0  0  0  0  0  0
   57.7780   33.4770   44.1100 C   0  0  0  0  0  0  0  0  0  0  0  0
   57.6330   32.1870   44.6170 C   0  0  0  0  0  0  0  0  0  0  0  0
   58.1520   31.8650   45.8720 C   0  0  0  0  0  0  0  0  0  0  0  0
   58.8280   32.8330   46.6360 C   0  0  0  0  0  0  0  0  0  0  0  0
   59.3810   32.4270   47.9460 C   0  0  0  0  0  0  0  0  0  0  0  0
   60.7600   32.4550   48.1900 C   0  0  0  0  0  0  0  0  0  0  0  0
   61.2560   32.0580   49.4400 C   0  0  0  0  0  0  0  0  0  0  0  0
   62.7130   32.1110   49.7230 C   0  0  0  0  0  0  0  0  0  0  0  0
   63.5380   33.0440   49.0660 C   0  0  0  0  0  0  0  0  0  0  0  0
   64.9090   33.0910   49.3340 C   0  0  0  0  0  0  0  0  0  0  0  0
   65.4730   32.2080   50.2600 C   0  0  0  0  0  0  0  0  0  0  0  0
   64.6660   31.2780   50.9180 C   0  0  0  0  0  0  0  0  0  0  0  0
   63.2940   31.2270   50.6530 C   0  0  0  0  0  0  0  0  0  0  0  0
   60.3520   31.6130   50.4200 C   0  0  0  0  0  0  0  0  0  0  0  0
   58.9780   31.5590   50.1330 C   0  0  0  0  0  0  0  0  0  0  0  0
   57.9890   31.0870   51.1370 C   0  0  0  0  0  0  0  0  0  0  0  0
   57.1370   31.9790   51.8130 C   0  0  0  0  0  0  0  0  0  0  0  0
   56.2270   31.5020   52.7570 C   0  0  0  0  0  0  0  0  0  0  0  0
   56.1740   30.1350   53.0280 C   0  0  0  0  0  0  0  0  0  0  0  0
   57.0070   29.2810   52.3770 N   0  0  0  0  0  0  0  0  0  0  0  0
   57.9040   29.7190   51.4540 C   0  0  0  0  0  0  0  0  0  0  0  0
   58.5390   31.9710   48.9120 N   0  0  0  0  0  0  0  0  0  0  0  0
   59.4752   35.0591   48.0051 H   0  0  0  0  0  0  0  0  0  0  0  0
   60.6646   35.3024   46.6812 H   0  0  0  0  0  0  0  0  0  0  0  0
   59.1205   36.2202   46.6812 H   0  0  0  0  0  0  0  0  0  0  0  0
   58.5415   35.4722   44.4550 H   0  0  0  0  0  0  0  0  0  0  0  0
   57.3797   33.7237   43.1148 H   0  0  0  0  0  0  0  0  0  0  0  0
   57.1085   31.4210   44.0269 H   0  0  0  0  0  0  0  0  0  0  0  0
   58.0313   30.8454   46.2668 H   0  0  0  0  0  0  0  0  0  0  0  0
   61.4524   32.7877   47.4027 H   0  0  0  0  0  0  0  0  0  0  0  0
   63.1002   33.7411   48.3364 H   0  0  0  0  0  0  0  0  0  0  0  0
   65.5451   33.8236   48.8157 H   0  0  0  0  0  0  0  0  0  0  0  0
   66.5521   32.2461   50.4699 H   0  0  0  0  0  0  0  0  0  0  0  0
   65.1104   30.5839   51.6465 H   0  0  0  0  0  0  0  0  0  0  0  0
   62.6640   30.4914   51.1745 H   0  0  0  0  0  0  0  0  0  0  0  0
   60.7201   31.3074   51.4105 H   0  0  0  0  0  0  0  0  0  0  0  0
   57.1883   33.0563   51.5967 H   0  0  0  0  0  0  0  0  0  0  0  0
   55.5571   32.1982   53.2830 H   0  0  0  0  0  0  0  0  0  0  0  0
   55.4583   29.7482   53.7683 H   0  0  0  0  0  0  0  0  0  0  0  0
   58.5674   28.9993   50.9520 H   0  0  0  0  0  0  0  0  0  0  0  0
  1  2  1  0
  2  3  2  0
  3  4  1  0
  4  5  2  0
  5  6  1  0
  6  7  2  0
  7  8  1  0
  8  9  2  0
  9 10  1  0
 10 11  1  0
 11 12  2  0
 12 13  1  0
 13 14  2  0
 14 15  1  0
 15 16  2  0
 10 17  2  0
 17 18  1  0
 18 19  1  0
 19 20  2  0
 20 21  1  0
 21 22  2  0
 22 23  1  0
 23 24  2  0
 18 25  2  0
  7  2  1  0
 25  8  1  0
 16 11  1  0
 24 19  1  0
  1 26  1  0
  1 27  1  0
  1 28  1  0
  3 29  1  0
  4 30  1  0
  5 31  1  0
  6 32  1  0
  9 33  1  0
 12 34  1  0
 13 35  1  0
 14 36  1  0
 15 37  1  0
 16 38  1  0
 17 39  1  0
 20 40  1  0
 21 41  1  0
 22 42  1  0
 24 43  1  0
M  END
>  <UniqueID>  (21) 
21

>  <SMILES>  (21) 
Cc1ccccc1-c1cc(-c2ccccc2)cc(-c2cccnc2)n1

>  <Energy>  (21) 
64.70066634504954

>  <Genealogy>  (21) 
Cc1ccccc1-c1cc(-c2ccccc2)cc(-c2cccnc2)n1 (3D coordinates assigned)
Cc1ccccc1-c1cc(-c2ccccc2)cc(-c2cccnc2)n1 (optimized conformer: 64.70066634504954 kcal/mol)

>  <smiles>  (21) 
Cc1ccccc1-c1cc(-c2ccccc2)cc(-c2cccnc2)n1

>  <score_type>  (21) 
oracle

>  <origin>  (21) 
adg

>  <m_score__min__energy>  (21) 
-7.7000000000000002

>  <m_primary>  (21) 
energy

$$$$
21:0
     RDKit          3D

 35 36  0  0  1  0  0  0  0  0999 V2000
   56.1490   23.6740   45.9000 C   0  0  0  0  0  0  0  0  0  0  0  0
   56.4590   24.5410   47.1000 C   0  0  0  0  0  0  0  0  0  0  0  0
   57.3290   25.6710   46.7500 N   0  0  0  0  0  0  0  0  0  0  0  0
   56.7200   26.7820   46.1570 C   0  0  0  0  0  0  0  0  0  0  0  0
   55.4510   26.6680   45.9790 O   0  0  0  0  0  0  0  0  0  0  0  0
   57.3130   28.0130   45.7210 C   0  0  0  0  0  0  0  0  0  0  0  0
   56.7260   28.6270   44.6500 N   0  0  0  0  0  0  0  0  0  0  0  0
   57.1700   29.7930   44.1520 C   0  0  0  0  0  0  0  0  0  0  0  0
   56.4910   30.4120   42.9860 C   0  0  0  0  0  0  0  0  0  0  0  0
   58.2300   30.4140   44.6990 N   0  0  0  0  0  0  0  0  0  0  0  0
   58.8680   29.8800   45.7560 C   0  0  0  0  0  0  0  0  0  0  0  0
   59.8850   30.4680   46.2860 N   0  0  0  0  0  0  0  0  0  0  0  0
   59.6160   31.6200   47.1030 C   0  0  0  0  0  0  0  0  0  0  0  0
   58.8920   32.6960   46.3960 C   0  0  0  0  0  0  0  0  0  0  0  0
   59.5170   33.7910   45.8340 C   0  0  0  0  0  0  0  0  0  0  0  0
   58.5040   34.5590   45.2740 C   0  0  0  0  0  0  0  0  0  0  0  0
   57.3250   33.9080   45.5160 C   0  0  0  0  0  0  0  0  0  0  0  0
   57.6000   32.8290   46.1710 O   0  0  0  0  0  0  0  0  0  0  0  0
   58.3900   28.6610   46.2640 C   0  0  0  0  0  0  0  0  0  0  0  0
   59.2910   27.9800   47.7720 Br  0  0  0  0  0  0  0  0  0  0  0  0
   55.7968   22.6891   46.2404 H   0  0  0  0  0  0  0  0  0  0  0  0
   55.3666   24.1536   45.2934 H   0  0  0  0  0  0  0  0  0  0  0  0
   57.0581   23.5488   45.2934 H   0  0  0  0  0  0  0  0  0  0  0  0
   55.5158   24.9320   47.5092 H   0  0  0  0  0  0  0  0  0  0  0  0
   56.9865   23.9217   47.8404 H   0  0  0  0  0  0  0  0  0  0  0  0
   58.3370   25.6490   46.9140 H   0  0  0  0  0  0  0  0  0  0  0  0
   55.8950   28.2130   44.1620 H   0  0  0  0  0  0  0  0  0  0  0  0
   55.7213   31.1137   43.3399 H   0  0  0  0  0  0  0  0  0  0  0  0
   57.2294   30.9542   42.3771 H   0  0  0  0  0  0  0  0  0  0  0  0
   56.0192   29.6268   42.3771 H   0  0  0  0  0  0  0  0  0  0  0  0
   59.0094   31.3010   47.9634 H   0  0  0  0  0  0  0  0  0  0  0  0
   60.5897   32.0334   47.4047 H   0  0  0  0  0  0  0  0  0  0  0  0
   60.5949   34.0102   45.8304 H   0  0  0  0  0  0  0  0  0  0  0  0
   58.6265   35.5112   44.7371 H   0  0  0  0  0  0  0  0  0  0  0  0
   56.3235   34.2431   45.2083 H   0  0  0  0  0  0  0  0  0  0  0  0
  1  2  1  0
  2  3  1  0
  3  4  1  0
  4  5  2  0
  4  6  1  0
  6  7  1  0
  7  8  1  0
  8  9  1  0
  8 10  2  0
 10 11  1  0
 11 12  2  0
 12 13  1  0
 13 14  1  0
 14 15  2  0
 15 16  1  0
 16 17  2  0
 17 18  1  0
 11 19  1  0
 19 20  1  0
 19  6  2  0
 18 14  1  0
  1 21  1  0
  1 22  1  0
  1 23  1  0
  2 24  1  0
  2 25  1  0
  3 26  1  0
  7 27  1  0
  9 28  1  0
  9 29  1  0
  9 30  1  0
 13 31  1  0
 13 32  1  0
 15 33  1  0
 16 34  1  0
 17 35  1  0
M  END
>  <smiles>  (22) 
CCNC(=O)c1[nH]c(C)nc(=NCc2ccco2)c1Br

>  <score_type>  (22) 
oracle

>  <origin>  (22) 
adg

>  <m_score__min__energy>  (22) 
-6.6200000000000001

>  <m_primary>  (22) 
energy

$$$$
22:0
     RDKit          3D

 48 51  0  0  0  0  0  0  0  0999 V2000
   62.4500   32.8420   50.0890 C   0  0  0  0  0  0  0  0  0  0  0  0
   61.9330   33.4890   48.8450 C   0  0  0  0  0  0  0  0  0  0  0  0
   60.7630   34.2030   48.7000 C   0  0  0  0  0  0  0  0  0  0  0  0
   60.6890   34.6250   47.4220 N   0  0  0  0  0  0  0  0  0  0  0  0
   59.5830   35.3690   46.8260 C   0  0  0  0  0  0  0  0  0  0  0  0
   59.1870   34.7820   45.4960 C   0  0  0  0  0  0  0  0  0  0  0  0
   59.0230   35.5540   44.5100 O   0  0  0  0  0  0  0  0  0  0  0  0
   59.0020   33.3610   45.3210 N   0  0  0  0  0  0  0  0  0  0  0  0
   59.6090   32.3750   46.2310 C   0  0  0  0  0  0  0  0  0  0  0  0
   58.5580   31.3570   46.6980 C   0  0  0  0  0  0  0  0  0  0  0  0
   57.6020   30.9030   45.5630 C   0  0  0  0  0  0  0  0  0  0  0  0
   57.3890   29.4450   45.5860 N   0  0  0  0  0  0  0  0  0  0  0  0
   56.2530   28.7820   45.2440 C   0  0  0  0  0  0  0  0  0  0  0  0
   55.1960   29.3660   44.8820 O   0  0  0  0  0  0  0  0  0  0  0  0
   56.3470   27.4320   45.3180 N   0  0  0  0  0  0  0  0  0  0  0  0
   57.6170   27.2510   45.7250 C   0  0  0  0  0  0  0  0  0  0  0  0
   58.2590   26.0370   45.9630 C   0  0  0  0  0  0  0  0  0  0  0  0
   59.6010   26.0770   46.3830 C   0  0  0  0  0  0  0  0  0  0  0  0
   60.2600   27.3130   46.5530 C   0  0  0  0  0  0  0  0  0  0  0  0
   59.5860   28.5230   46.3040 C   0  0  0  0  0  0  0  0  0  0  0  0
   58.2520   28.4520   45.8860 C   0  0  0  0  0  0  0  0  0  0  0  0
   58.0540   31.3650   44.1650 C   0  0  0  0  0  0  0  0  0  0  0  0
   58.2520   32.8880   44.1450 C   0  0  0  0  0  0  0  0  0  0  0  0
   61.7470   34.2080   46.7410 N   0  0  0  0  0  0  0  0  0  0  0  0
   62.5290   33.5200   47.5960 C   0  0  0  0  0  0  0  0  0  0  0  0
   63.8190   32.8720   47.2120 C   0  0  0  0  0  0  0  0  0  0  0  0
   62.0379   33.3577   50.9689 H   0  0  0  0  0  0  0  0  0  0  0  0
   62.1447   31.7854   50.1069 H   0  0  0  0  0  0  0  0  0  0  0  0
   63.5479   32.9067   50.1069 H   0  0  0  0  0  0  0  0  0  0  0  0
   60.0203   34.3947   49.4885 H   0  0  0  0  0  0  0  0  0  0  0  0
   58.7189   35.3335   47.5057 H   0  0  0  0  0  0  0  0  0  0  0  0
   59.9075   36.4078   46.6661 H   0  0  0  0  0  0  0  0  0  0  0  0
   60.4170   31.8458   45.7047 H   0  0  0  0  0  0  0  0  0  0  0  0
   60.0104   32.9011   47.1097 H   0  0  0  0  0  0  0  0  0  0  0  0
   59.0790   30.4718   47.0916 H   0  0  0  0  0  0  0  0  0  0  0  0
   57.9437   31.8495   47.4661 H   0  0  0  0  0  0  0  0  0  0  0  0
   56.6421   31.4010   45.7646 H   0  0  0  0  0  0  0  0  0  0  0  0
   57.7341   25.0800   45.8270 H   0  0  0  0  0  0  0  0  0  0  0  0
   60.1401   25.1386   46.5802 H   0  0  0  0  0  0  0  0  0  0  0  0
   61.3092   27.3309   46.8829 H   0  0  0  0  0  0  0  0  0  0  0  0
   60.0905   29.4919   46.4335 H   0  0  0  0  0  0  0  0  0  0  0  0
   59.0037   30.8722   43.9094 H   0  0  0  0  0  0  0  0  0  0  0  0
   57.2800   31.0951   43.4314 H   0  0  0  0  0  0  0  0  0  0  0  0
   58.8069   33.1623   43.2357 H   0  0  0  0  0  0  0  0  0  0  0  0
   57.2588   33.3606   44.1620 H   0  0  0  0  0  0  0  0  0  0  0  0
   64.3739   32.5933   48.1200 H   0  0  0  0  0  0  0  0  0  0  0  0
   63.6134   31.9702   46.6166 H   0  0  0  0  0  0  0  0  0  0  0  0
   64.4197   33.5754   46.6166 H   0  0  0  0  0  0  0  0  0  0  0  0
  1  2  1  0
  2  3  2  0
  3  4  1  0
  4  5  1  0
  5  6  1  0
  6  7  2  0
  6  8  1  0
  8  9  1  0
  9 10  1  0
 10 11  1  0
 11 12  1  0
 12 13  1  0
 13 14  2  0
 13 15  1  0
 15 16  1  0
 16 17  2  0
 17 18  1  0
 18 19  2  0
 19 20  1  0
 20 21  2  0
 11 22  1  0
 22 23  1  0
  4 24  1  0
 24 25  2  0
 25 26  1  0
 25  2  1  0
 23  8  1  0
 21 12  1  0
 21 16  1  0
  1 27  1  0
  1 28  1  0
  1 29  1  0
  3 30  1  0
  5 31  1  0
  5 32  1  0
  9 33  1  0
  9 34  1  0
 10 35  1  0
 10 36  1  0
 11 37  1  0
 17 38  1  0
 18 39  1  0
 19 40  1  0
 20 41  1  0
 22 42  1  0
 22 43  1  0
 23 44  1  0
 23 45  1  0
 26 46  1  0
 26 47  1  0
 26 48  1  0
M  CHG  1  15  -1
M  END
>  <UniqueID>  (23) 
22

>  <SMILES>  (23) 
Cc1cn(CC(=O)N2CCC(n3c(=O)[n-]c4ccccc43)CC2)nc1C

>  <Energy>  (23) 
120.49630103687258

>  <Genealogy>  (23) 
Cc1cn(CC(=O)N2CCC(n3c(=O)[n-]c4ccccc43)CC2)nc1C (protonated)
Cc1cn(CC(=O)N2CCC(n3c(=O)[n-]c4ccccc43)CC2)nc1C (3D coordinates assigned)
Cc1cn(CC(=O)N2CCC(n3c(=O)[n-]c4ccccc43)CC2)nc1C (nonaromatic ring conformer: 120.49630103687258 kcal/mol)

>  <smiles>  (23) 
Cc1cn(CC(=O)N2CCC(n3c(=O)[nH]c4ccccc43)CC2)nc1C

>  <score_type>  (23) 
oracle

>  <origin>  (23) 
adg

>  <m_score__min__energy>  (23) 
-9.9700000000000006

>  <m_primary>  (23) 
energy

$$$$
23:0
     RDKit          3D

 37 39  0  0  0  0  0  0  0  0999 V2000
   64.1450   32.4810   46.7580 N   0  0  0  0  0  0  0  0  0  0  0  0
   63.1160   32.6720   48.1340 S   0  0  0  0  0  0  0  0  0  0  0  0
   63.0770   31.3900   48.9180 O   0  0  0  0  0  0  0  0  0  0  0  0
   63.6600   33.7610   49.0170 O   0  0  0  0  0  0  0  0  0  0  0  0
   61.4940   33.0920   47.5970 C   0  0  0  0  0  0  0  0  0  0  0  0
   61.3150   33.9290   46.4890 C   0  0  0  0  0  0  0  0  0  0  0  0
   60.0280   34.2770   46.0680 C   0  0  0  0  0  0  0  0  0  0  0  0
   58.8980   33.7950   46.7570 C   0  0  0  0  0  0  0  0  0  0  0  0
   57.5570   34.1390   46.3560 N   0  0  0  0  0  0  0  0  0  0  0  0
   57.0160   33.9270   45.0130 C   0  0  0  0  0  0  0  0  0  0  0  0
   57.3140   32.5390   44.5400 C   0  0  0  0  0  0  0  0  0  0  0  0
   57.5360   32.2100   43.2560 N   0  0  0  0  0  0  0  0  0  0  0  0
   57.7760   30.9080   43.2450 N   0  0  0  0  0  0  0  0  0  0  0  0
   57.6950   30.4930   44.5250 C   0  0  0  0  0  0  0  0  0  0  0  0
   57.8920   29.0980   44.9760 C   0  0  0  0  0  0  0  0  0  0  0  0
   59.1970   28.5930   45.1130 C   0  0  0  0  0  0  0  0  0  0  0  0
   59.4070   27.2790   45.5400 C   0  0  0  0  0  0  0  0  0  0  0  0
   58.3180   26.4550   45.8350 C   0  0  0  0  0  0  0  0  0  0  0  0
   57.0170   26.9450   45.7040 C   0  0  0  0  0  0  0  0  0  0  0  0
   56.7980   28.2600   45.2770 C   0  0  0  0  0  0  0  0  0  0  0  0
   55.5210   28.7030   45.1600 F   0  0  0  0  0  0  0  0  0  0  0  0
   57.4150   31.4940   45.3260 O   0  0  0  0  0  0  0  0  0  0  0  0
   59.0870   32.9590   47.8680 C   0  0  0  0  0  0  0  0  0  0  0  0
   60.3750   32.6120   48.2870 C   0  0  0  0  0  0  0  0  0  0  0  0
   64.5060   31.5010   46.7800 H   0  0  0  0  0  0  0  0  0  0  0  0
   64.9670   33.1100   46.9010 H   0  0  0  0  0  0  0  0  0  0  0  0
   62.1912   34.3147   45.9471 H   0  0  0  0  0  0  0  0  0  0  0  0
   59.8971   34.9312   45.1934 H   0  0  0  0  0  0  0  0  0  0  0  0
   56.9240   34.5820   47.0590 H   0  0  0  0  0  0  0  0  0  0  0  0
   55.9263   34.0759   45.0342 H   0  0  0  0  0  0  0  0  0  0  0  0
   57.4840   34.6454   44.3239 H   0  0  0  0  0  0  0  0  0  0  0  0
   60.0587   29.2367   44.8825 H   0  0  0  0  0  0  0  0  0  0  0  0
   60.4317   26.8927   45.6440 H   0  0  0  0  0  0  0  0  0  0  0  0
   58.4854   25.4208   46.1703 H   0  0  0  0  0  0  0  0  0  0  0  0
   56.1608   26.2950   45.9373 H   0  0  0  0  0  0  0  0  0  0  0  0
   58.2138   32.5731   48.4144 H   0  0  0  0  0  0  0  0  0  0  0  0
   60.5093   31.9593   49.1622 H   0  0  0  0  0  0  0  0  0  0  0  0
  1  2  1  0
  2  3  2  0
  2  4  2  0
  2  5  1  0
  5  6  2  0
  6  7  1  0
  7  8  2  0
  8  9  1  0
  9 10  1  0
 10 11  1  0
 11 12  2  0
 12 13  1  0
 13 14  2  0
 14 15  1  0
 15 16  2  0
 16 17  1  0
 17 18  2  0
 18 19  1  0
 19 20  2  0
 20 21  1  0
 14 22  1  0
  8 23  1  0
 23 24  2  0
 24  5  1  0
 22 11  1  0
 20 15  1  0
  1 25  1  0
  1 26  1  0
  6 27  1  0
  7 28  1  0
  9 29  1  0
 10 30  1  0
 10 31  1  0
 16 32  1  0
 17 33  1  0
 18 34  1  0
 19 35  1  0
 23 36  1  0
 24 37  1  0
M  END
>  <UniqueID>  (24) 
23

>  <SMILES>  (24) 
NS(=O)(=O)c1ccc(NCc2nnc(-c3ccccc3F)o2)cc1

>  <Energy>  (24) 
72.25912110363845

>  <Genealogy>  (24) 
NS(=O)(=O)c1ccc(NCc2nnc(-c3ccccc3F)o2)cc1 (3D coordinates assigned)
NS(=O)(=O)c1ccc(NCc2nnc(-c3ccccc3F)o2)cc1 (optimized conformer: 72.25912110363845 kcal/mol)

>  <smiles>  (24) 
NS(=O)(=O)c1ccc(NCc2nnc(-c3ccccc3F)o2)cc1

>  <score_type>  (24) 
oracle

>  <origin>  (24) 
adg

>  <m_score__min__energy>  (24) 
-8.6600000000000001

>  <m_primary>  (24) 
energy

$$$$
24:0
     RDKit          3D

 29 30  0  0  0  0  0  0  0  0999 V2000
   60.7200   28.9600   45.2540 C   0  0  0  0  0  0  0  0  0  0  0  0
   59.3570   28.3550   45.4260 C   0  0  0  0  0  0  0  0  0  0  0  0
   58.2570   28.8750   44.7240 C   0  0  0  0  0  0  0  0  0  0  0  0
   56.9830   28.3290   44.9040 C   0  0  0  0  0  0  0  0  0  0  0  0
   56.7920   27.2520   45.7860 C   0  0  0  0  0  0  0  0  0  0  0  0
   55.4940   26.6780   46.0060 N   0  0  0  0  0  0  0  0  0  0  0  0
   55.0760   25.3610   45.6220 C   0  0  0  0  0  0  0  0  0  0  0  0
   53.8620   25.0530   45.7530 O   0  0  0  0  0  0  0  0  0  0  0  0
   56.0350   24.3430   45.1310 C   0  0  0  0  0  0  0  0  0  0  0  0
   56.0130   23.9450   43.7850 C   0  0  0  0  0  0  0  0  0  0  0  0
   56.9190   22.9810   43.3340 C   0  0  0  0  0  0  0  0  0  0  0  0
   57.8130   22.4190   44.1920 N   0  0  0  0  0  0  0  0  0  0  0  0
   58.6910   21.4700   43.7120 O   0  0  0  0  0  0  0  0  0  0  0  0
   57.8410   22.7770   45.5090 C   0  0  0  0  0  0  0  0  0  0  0  0
   56.9540   23.7370   45.9990 C   0  0  0  0  0  0  0  0  0  0  0  0
   57.8810   26.7600   46.5150 C   0  0  0  0  0  0  0  0  0  0  0  0
   59.1570   27.3040   46.3360 C   0  0  0  0  0  0  0  0  0  0  0  0
   60.1970   26.8080   47.0540 F   0  0  0  0  0  0  0  0  0  0  0  0
   61.1615   29.1560   46.2423 H   0  0  0  0  0  0  0  0  0  0  0  0
   61.3630   28.2628   44.6969 H   0  0  0  0  0  0  0  0  0  0  0  0
   60.6342   29.9046   44.6969 H   0  0  0  0  0  0  0  0  0  0  0  0
   58.3989   29.7160   44.0293 H   0  0  0  0  0  0  0  0  0  0  0  0
   56.1263   28.7442   44.3529 H   0  0  0  0  0  0  0  0  0  0  0  0
   55.2865   24.3895   43.0888 H   0  0  0  0  0  0  0  0  0  0  0  0
   56.9092   22.6744   42.2776 H   0  0  0  0  0  0  0  0  0  0  0  0
   58.7460   20.5450   44.1210 H   0  0  0  0  0  0  0  0  0  0  0  0
   58.5669   22.3061   46.1882 H   0  0  0  0  0  0  0  0  0  0  0  0
   56.9760   24.0170   47.0625 H   0  0  0  0  0  0  0  0  0  0  0  0
   57.7323   25.9403   47.2333 H   0  0  0  0  0  0  0  0  0  0  0  0
  1  2  1  0
  2  3  2  0
  3  4  1  0
  4  5  2  0
  5  6  1  0
  6  7  1  0
  7  8  2  0
  7  9  1  0
  9 10  2  0
 10 11  1  0
 11 12  2  0
 12 13  1  0
 12 14  1  0
 14 15  2  0
  5 16  1  0
 16 17  2  0
 17 18  1  0
 17  2  1  0
 15  9  1  0
  1 19  1  0
  1 20  1  0
  1 21  1  0
  3 22  1  0
  4 23  1  0
 10 24  1  0
 11 25  1  0
 13 26  1  0
 14 27  1  0
 15 28  1  0
 16 29  1  0
M  CHG  2   6  -1  12   1
M  END
>  <UniqueID>  (25) 
24

>  <SMILES>  (25) 
Cc1ccc([N-]C(=O)c2cc[n+](O)cc2)cc1F

>  <Energy>  (25) 
36.09954032150591

>  <Genealogy>  (25) 
Cc1ccc([N-]C(=O)c2cc[n+](O)cc2)cc1F (protonated)
Cc1ccc([N-]C(=O)c2cc[n+](O)cc2)cc1F (3D coordinates assigned)
Cc1ccc([N-]C(=O)c2cc[n+](O)cc2)cc1F (optimized conformer: 36.09954032150591 kcal/mol)

>  <smiles>  (25) 
Cc1ccc(NC(=O)c2cc[n+]([O-])cc2)cc1F

>  <score_type>  (25) 
oracle

>  <origin>  (25) 
adg

>  <m_score__min__energy>  (25) 
-6.8899999999999997

>  <m_primary>  (25) 
energy

$$$$
25:0
     RDKit          3D

 31 33  0  0  0  0  0  0  0  0999 V2000
   58.9320   31.5400   49.0730 C   0  0  0  0  0  0  0  0  0  0  0  0
   58.1550   31.9720   47.9620 O   0  0  0  0  0  0  0  0  0  0  0  0
   58.5330   32.9930   47.0730 C   0  0  0  0  0  0  0  0  0  0  0  0
   59.0570   34.2200   47.5290 C   0  0  0  0  0  0  0  0  0  0  0  0
   59.4250   35.2130   46.6180 C   0  0  0  0  0  0  0  0  0  0  0  0
   59.2710   34.9990   45.2470 C   0  0  0  0  0  0  0  0  0  0  0  0
   58.7520   33.7890   44.7830 C   0  0  0  0  0  0  0  0  0  0  0  0
   58.3920   32.7770   45.6880 C   0  0  0  0  0  0  0  0  0  0  0  0
   57.8120   31.5140   45.1830 C   0  0  0  0  0  0  0  0  0  0  0  0
   56.5620   31.5580   44.6450 N   0  0  0  0  0  0  0  0  0  0  0  0
   55.9520   30.4610   44.1260 C   0  0  0  0  0  0  0  0  0  0  0  0
   56.6030   29.2310   44.1260 C   0  0  0  0  0  0  0  0  0  0  0  0
   57.8840   29.1290   44.6800 C   0  0  0  0  0  0  0  0  0  0  0  0
   58.5470   27.8920   44.7050 C   0  0  0  0  0  0  0  0  0  0  0  0
   59.8140   27.7860   45.2810 C   0  0  0  0  0  0  0  0  0  0  0  0
   60.4250   28.9070   45.8430 C   0  0  0  0  0  0  0  0  0  0  0  0
   59.7790   30.1460   45.8240 C   0  0  0  0  0  0  0  0  0  0  0  0
   58.5070   30.2790   45.2280 C   0  0  0  0  0  0  0  0  0  0  0  0
   58.4245   31.8222   50.0073 H   0  0  0  0  0  0  0  0  0  0  0  0
   59.0497   30.4470   49.0353 H   0  0  0  0  0  0  0  0  0  0  0  0
   59.9225   32.0169   49.0353 H   0  0  0  0  0  0  0  0  0  0  0  0
   59.1767   34.3963   48.6082 H   0  0  0  0  0  0  0  0  0  0  0  0
   59.8371   36.1658   46.9817 H   0  0  0  0  0  0  0  0  0  0  0  0
   59.5587   35.7841   44.5322 H   0  0  0  0  0  0  0  0  0  0  0  0
   58.6243   33.6272   43.7025 H   0  0  0  0  0  0  0  0  0  0  0  0
   54.9396   30.5451   43.7041 H   0  0  0  0  0  0  0  0  0  0  0  0
   56.1142   28.3455   43.6937 H   0  0  0  0  0  0  0  0  0  0  0  0
   58.0666   27.0035   44.2694 H   0  0  0  0  0  0  0  0  0  0  0  0
   60.3321   26.8157   45.2918 H   0  0  0  0  0  0  0  0  0  0  0  0
   61.4199   28.8153   46.3032 H   0  0  0  0  0  0  0  0  0  0  0  0
   60.2651   31.0229   46.2764 H   0  0  0  0  0  0  0  0  0  0  0  0
  1  2  1  0
  2  3  1  0
  3  4  2  0
  4  5  1  0
  5  6  2  0
  6  7  1  0
  7  8  2  0
  8  9  1  0
  9 10  2  0
 10 11  1  0
 11 12  2  0
 12 13  1  0
 13 14  2  0
 14 15  1  0
 15 16  2  0
 16 17  1  0
 17 18  2  0
  8  3  1  0
 18  9  1  0
 18 13  1  0
  1 19  1  0
  1 20  1  0
  1 21  1  0
  4 22  1  0
  5 23  1  0
  6 24  1  0
  7 25  1  0
 11 26  1  0
 12 27  1  0
 14 28  1  0
 15 29  1  0
 16 30  1  0
 17 31  1  0
M  END
>  <UniqueID>  (26) 
25

>  <SMILES>  (26) 
COc1ccccc1-c1nccc2ccccc12

>  <Energy>  (26) 
45.687263858325025

>  <Genealogy>  (26) 
COc1ccccc1-c1nccc2ccccc12 (3D coordinates assigned)
COc1ccccc1-c1nccc2ccccc12 (optimized conformer: 45.687263858325025 kcal/mol)

>  <smiles>  (26) 
COc1ccccc1-c1nccc2ccccc12

>  <score_type>  (26) 
oracle

>  <origin>  (26) 
adg

>  <m_score__min__energy>  (26) 
-6.9500000000000002

>  <m_primary>  (26) 
energy

$$$$
26:0
     RDKit          3D

 45 48  0  0  0  0  0  0  0  0999 V2000
   57.3390   33.9660   45.4150 C   0  0  0  0  0  0  0  0  0  0  0  0
   56.5870   32.7610   45.3310 O   0  0  0  0  0  0  0  0  0  0  0  0
   57.0900   31.5440   44.8470 C   0  0  0  0  0  0  0  0  0  0  0  0
   56.3220   30.6720   44.0520 C   0  0  0  0  0  0  0  0  0  0  0  0
   56.8690   29.4690   43.5930 C   0  0  0  0  0  0  0  0  0  0  0  0
   58.1920   29.1270   43.9110 C   0  0  0  0  0  0  0  0  0  0  0  0
   58.7700   27.8140   43.4540 C   0  0  0  0  0  0  0  0  0  0  0  0
   58.1450   26.6960   44.1770 N   0  0  0  0  0  0  0  0  0  0  0  0
   58.7390   26.5540   45.4870 C   0  0  0  0  0  0  0  0  0  0  0  0
   60.0360   27.0530   45.7170 C   0  0  0  0  0  0  0  0  0  0  0  0
   60.6020   26.9980   46.9930 C   0  0  0  0  0  0  0  0  0  0  0  0
   59.8780   26.4630   48.0590 C   0  0  0  0  0  0  0  0  0  0  0  0
   58.5870   25.9770   47.8540 C   0  0  0  0  0  0  0  0  0  0  0  0
   58.0090   26.0100   46.5750 C   0  0  0  0  0  0  0  0  0  0  0  0
   56.6350   25.5020   46.4090 C   0  0  0  0  0  0  0  0  0  0  0  0
   55.5180   26.2030   45.9760 C   0  0  0  0  0  0  0  0  0  0  0  0
   55.5210   27.5410   45.6000 O   0  0  0  0  0  0  0  0  0  0  0  0
   54.4050   25.4330   45.9530 N   0  0  0  0  0  0  0  0  0  0  0  0
   54.8350   24.2270   46.3750 C   0  0  0  0  0  0  0  0  0  0  0  0
   54.0600   23.0810   46.5430 C   0  0  0  0  0  0  0  0  0  0  0  0
   54.6960   21.9160   47.0110 C   0  0  0  0  0  0  0  0  0  0  0  0
   56.0790   21.9220   47.3020 C   0  0  0  0  0  0  0  0  0  0  0  0
   56.8380   23.0920   47.1240 C   0  0  0  0  0  0  0  0  0  0  0  0
   56.1800   24.2280   46.6550 C   0  0  0  0  0  0  0  0  0  0  0  0
   58.9520   29.9880   44.7160 C   0  0  0  0  0  0  0  0  0  0  0  0
   58.4040   31.1900   45.1750 C   0  0  0  0  0  0  0  0  0  0  0  0
   57.5004   34.2246   46.4719 H   0  0  0  0  0  0  0  0  0  0  0  0
   58.3109   33.8270   44.9190 H   0  0  0  0  0  0  0  0  0  0  0  0
   56.7870   34.7780   44.9190 H   0  0  0  0  0  0  0  0  0  0  0  0
   55.2871   30.9378   43.7906 H   0  0  0  0  0  0  0  0  0  0  0  0
   56.2594   28.7885   42.9803 H   0  0  0  0  0  0  0  0  0  0  0  0
   58.5884   27.6943   42.3757 H   0  0  0  0  0  0  0  0  0  0  0  0
   59.8506   27.8105   43.6594 H   0  0  0  0  0  0  0  0  0  0  0  0
   58.2800   25.8140   43.6250 H   0  0  0  0  0  0  0  0  0  0  0  0
   57.1150   26.8440   44.2610 H   0  0  0  0  0  0  0  0  0  0  0  0
   60.6079   27.4896   44.8850 H   0  0  0  0  0  0  0  0  0  0  0  0
   61.6212   27.3775   47.1578 H   0  0  0  0  0  0  0  0  0  0  0  0
   60.3262   26.4245   49.0628 H   0  0  0  0  0  0  0  0  0  0  0  0
   58.0177   25.5650   48.7002 H   0  0  0  0  0  0  0  0  0  0  0  0
   52.9836   23.0868   46.3166 H   0  0  0  0  0  0  0  0  0  0  0  0
   54.1125   20.9941   47.1513 H   0  0  0  0  0  0  0  0  0  0  0  0
   56.5644   21.0060   47.6699 H   0  0  0  0  0  0  0  0  0  0  0  0
   57.9149   23.1104   47.3473 H   0  0  0  0  0  0  0  0  0  0  0  0
   59.9829   29.7169   44.9874 H   0  0  0  0  0  0  0  0  0  0  0  0
   59.0106   31.8629   45.7990 H   0  0  0  0  0  0  0  0  0  0  0  0
  1  2  1  0
  2  3  1  0
  3  4  2  0
  4  5  1  0
  5  6  2  0
  6  7  1  0
  7  8  1  0
  8  9  1  0
  9 10  2  0
 10 11  1  0
 11 12  2  0
 12 13  1  0
 13 14  2  0
 14 15  1  0
 15 16  2  0
 16 17  1  0
 16 18  1  0
 18 19  1  0
 19 20  2  0
 20 21  1  0
 21 22  2  0
 22 23  1  0
 23 24  2  0
  6 25  1  0
 25 26  2  0
 26  3  1  0
 14  9  1  0
 24 15  1  0
 24 19  1  0
  1 27  1  0
  1 28  1  0
  1 29  1  0
  4 30  1  0
  5 31  1  0
  7 32  1  0
  7 33  1  0
  8 34  1  0
  8 35  1  0
 10 36  1  0
 11 37  1  0
 12 38  1  0
 13 39  1  0
 20 40  1  0
 21 41  1  0
 22 42  1  0
 23 43  1  0
 25 44  1  0
 26 45  1  0
M  CHG  3   8   1  17  -1  18  -1
M  END
>  <UniqueID>  (27) 
26

>  <SMILES>  (27) 
COc1ccc(C[NH2+]c2ccccc2-c2c([O-])[n-]c3ccccc23)cc1

>  <Energy>  (27) 
88.47459457021995

>  <Genealogy>  (27) 
COc1ccc(C[NH2+]c2ccccc2-c2c([O-])[n-]c3ccccc23)cc1 (protonated)
COc1ccc(C[NH2+]c2ccccc2-c2c([O-])[n-]c3ccccc23)cc1 (3D coordinates assigned)
COc1ccc(C[NH2+]c2ccccc2-c2c([O-])[n-]c3ccccc23)cc1 (optimized conformer: 88.47459457021995 kcal/mol)

>  <smiles>  (27) 
COc1ccc(CNc2ccccc2-c2c(O)[nH]c3ccccc23)cc1

>  <score_type>  (27) 
oracle

>  <origin>  (27) 
adg

>  <m_score__min__energy>  (27) 
-11.699999999999999

>  <m_primary>  (27) 
energy

$$$$
27:0
     RDKit          3D

 47 50  0  0  0  0  0  0  0  0999 V2000
   56.6460   30.3310   42.9850 C   0  0  0  0  0  0  0  0  0  0  0  0
   57.1150   29.0620   43.4300 O   0  0  0  0  0  0  0  0  0  0  0  0
   57.9470   28.8720   44.5430 C   0  0  0  0  0  0  0  0  0  0  0  0
   59.2850   29.3120   44.5700 C   0  0  0  0  0  0  0  0  0  0  0  0
   60.0740   29.0990   45.7040 C   0  0  0  0  0  0  0  0  0  0  0  0
   59.5400   28.4540   46.8300 C   0  0  0  0  0  0  0  0  0  0  0  0
   60.4010   28.1890   48.0370 C   0  0  0  0  0  0  0  0  0  0  0  0
   59.9790   29.0350   49.1650 N   0  0  0  0  0  0  0  0  0  0  0  0
   60.8830   30.1830   49.3640 C   0  0  0  0  0  0  0  0  0  0  0  0
   60.6330   31.2940   48.3460 C   0  0  0  0  0  0  0  0  0  0  0  0
   59.3210   31.4980   47.8870 C   0  0  0  0  0  0  0  0  0  0  0  0
   58.2920   30.6830   48.3570 O   0  0  0  0  0  0  0  0  0  0  0  0
   59.0260   32.5140   46.9650 C   0  0  0  0  0  0  0  0  0  0  0  0
   57.6990   32.6920   46.5230 C   0  0  0  0  0  0  0  0  0  0  0  0
   57.3800   33.6910   45.6090 C   0  0  0  0  0  0  0  0  0  0  0  0
   58.3750   34.5280   45.1210 C   0  0  0  0  0  0  0  0  0  0  0  0
   59.6950   34.3730   45.5430 C   0  0  0  0  0  0  0  0  0  0  0  0
   60.0550   33.3640   46.4760 C   0  0  0  0  0  0  0  0  0  0  0  0
   61.3940   33.1760   46.9350 C   0  0  0  0  0  0  0  0  0  0  0  0
   62.4660   33.9920   46.4910 C   0  0  0  0  0  0  0  0  0  0  0  0
   63.7650   33.7950   46.9530 C   0  0  0  0  0  0  0  0  0  0  0  0
   64.0370   32.7870   47.8650 C   0  0  0  0  0  0  0  0  0  0  0  0
   63.0120   31.9650   48.3220 C   0  0  0  0  0  0  0  0  0  0  0  0
   61.6790   32.1360   47.8750 C   0  0  0  0  0  0  0  0  0  0  0  0
   58.2120   28.0020   46.7960 C   0  0  0  0  0  0  0  0  0  0  0  0
   57.4220   28.2150   45.6630 C   0  0  0  0  0  0  0  0  0  0  0  0
   56.4129   30.9617   43.8556 H   0  0  0  0  0  0  0  0  0  0  0  0
   57.4239   30.8171   42.3778 H   0  0  0  0  0  0  0  0  0  0  0  0
   55.7390   30.1944   42.3778 H   0  0  0  0  0  0  0  0  0  0  0  0
   59.7106   29.8253   43.6951 H   0  0  0  0  0  0  0  0  0  0  0  0
   61.1201   29.4391   45.7138 H   0  0  0  0  0  0  0  0  0  0  0  0
   60.3081   27.1309   48.3231 H   0  0  0  0  0  0  0  0  0  0  0  0
   61.4464   28.4231   47.7874 H   0  0  0  0  0  0  0  0  0  0  0  0
   59.0000   29.3660   49.0030 H   0  0  0  0  0  0  0  0  0  0  0  0
   59.9890   28.4600   50.0410 H   0  0  0  0  0  0  0  0  0  0  0  0
   60.7265   30.5866   50.3752 H   0  0  0  0  0  0  0  0  0  0  0  0
   61.9157   29.8281   49.2315 H   0  0  0  0  0  0  0  0  0  0  0  0
   56.9060   32.0327   46.9057 H   0  0  0  0  0  0  0  0  0  0  0  0
   56.3403   33.8179   45.2730 H   0  0  0  0  0  0  0  0  0  0  0  0
   58.1206   35.3171   44.3981 H   0  0  0  0  0  0  0  0  0  0  0  0
   60.4713   35.0439   45.1464 H   0  0  0  0  0  0  0  0  0  0  0  0
   62.2674   34.7964   45.7674 H   0  0  0  0  0  0  0  0  0  0  0  0
   64.5785   34.4419   46.5928 H   0  0  0  0  0  0  0  0  0  0  0  0
   65.0646   32.6370   48.2277 H   0  0  0  0  0  0  0  0  0  0  0  0
   63.2411   31.1673   49.0440 H   0  0  0  0  0  0  0  0  0  0  0  0
   57.7904   27.4771   47.6659 H   0  0  0  0  0  0  0  0  0  0  0  0
   56.3796   27.8639   45.6508 H   0  0  0  0  0  0  0  0  0  0  0  0
  1  2  1  0
  2  3  1  0
  3  4  2  0
  4  5  1  0
  5  6  2  0
  6  7  1  0
  7  8  1  0
  8  9  1  0
  9 10  1  0
 10 11  2  0
 11 12  1  0
 11 13  1  0
 13 14  2  0
 14 15  1  0
 15 16  2  0
 16 17  1  0
 17 18  2  0
 18 19  1  0
 19 20  2  0
 20 21  1  0
 21 22  2  0
 22 23  1  0
 23 24  2  0
  6 25  1  0
 25 26  2  0
 26  3  1  0
 24 10  1  0
 18 13  1  0
 24 19  1  0
  1 27  1  0
  1 28  1  0
  1 29  1  0
  4 30  1  0
  5 31  1  0
  7 32  1  0
  7 33  1  0
  8 34  1  0
  8 35  1  0
  9 36  1  0
  9 37  1  0
 14 38  1  0
 15 39  1  0
 16 40  1  0
 17 41  1  0
 20 42  1  0
 21 43  1  0
 22 44  1  0
 23 45  1  0
 25 46  1  0
 26 47  1  0
M  CHG  2   8   1  12  -1
M  END
>  <UniqueID>  (28) 
27

>  <SMILES>  (28) 
COc1ccc(C[NH2+]Cc2c([O-])c3ccccc3c3ccccc23)cc1

>  <Energy>  (28) 
67.73787929482137

>  <Genealogy>  (28) 
COc1ccc(C[NH2+]Cc2c([O-])c3ccccc3c3ccccc23)cc1 (protonated)
COc1ccc(C[NH2+]Cc2c([O-])c3ccccc3c3ccccc23)cc1 (3D coordinates assigned)
COc1ccc(C[NH2+]Cc2c([O-])c3ccccc3c3ccccc23)cc1 (optimized conformer: 67.73787929482137 kcal/mol)

>  <smiles>  (28) 
COc1ccc(CNCc2c(O)c3ccccc3c3ccccc23)cc1

>  <score_type>  (28) 
oracle

>  <origin>  (28) 
adg

>  <m_score__min__energy>  (28) 
-8.0999999999999996

>  <m_primary>  (28) 
energy

$$$$
28:0
     RDKit          3D

 47 48  0  0  1  0  0  0  0  0999 V2000
   63.3830   33.4310   46.8500 C   0  0  0  0  0  0  0  0  0  0  0  0
   62.4530   33.1790   48.0050 C   0  0  0  0  0  0  0  0  0  0  0  0
   61.0760   33.3700   47.5830 N   0  0  0  0  0  0  0  0  0  0  0  0
   60.4520   34.2250   48.6080 C   0  0  0  0  0  0  0  0  0  0  0  0
   59.6190   33.3980   49.5630 C   0  0  0  0  0  0  0  0  0  0  0  0
   61.0380   34.1800   46.3670 C   0  0  0  0  0  0  0  0  0  0  0  0
   59.7320   34.8470   46.1310 C   0  0  0  0  0  0  0  0  0  0  0  0
   59.1350   34.4060   44.8280 C   0  0  0  0  0  0  0  0  0  0  0  0
   57.6410   34.5740   44.8720 C   0  0  0  0  0  0  0  0  0  0  0  0
   57.0600   33.4880   46.2280 S   0  0  0  0  0  0  0  0  0  0  0  0
   57.7710   31.8760   45.9280 C   0  0  0  0  0  0  0  0  0  0  0  0
   57.1800   30.9450   45.1600 N   0  0  0  0  0  0  0  0  0  0  0  0
   57.7630   29.7420   44.9690 C   0  0  0  0  0  0  0  0  0  0  0  0
   57.2040   28.7820   44.2100 N   0  0  0  0  0  0  0  0  0  0  0  0
   57.7730   27.5640   44.0070 C   0  0  0  0  0  0  0  0  0  0  0  0
   58.9910   27.2440   44.5900 C   0  0  0  0  0  0  0  0  0  0  0  0
   59.5930   28.2170   45.3820 C   0  0  0  0  0  0  0  0  0  0  0  0
   58.9740   29.4460   45.5600 C   0  0  0  0  0  0  0  0  0  0  0  0
   59.5720   30.4260   46.3530 C   0  0  0  0  0  0  0  0  0  0  0  0
   60.7070   30.1400   46.9020 N   0  0  0  0  0  0  0  0  0  0  0  0
   60.7410   30.0400   48.3590 C   0  0  0  0  0  0  0  0  0  0  0  0
   58.9620   31.6240   46.5240 N   0  0  0  0  0  0  0  0  0  0  0  0
   64.3784   33.7007   47.2328 H   0  0  0  0  0  0  0  0  0  0  0  0
   63.4603   32.5214   46.2363 H   0  0  0  0  0  0  0  0  0  0  0  0
   62.9905   34.2552   46.2363 H   0  0  0  0  0  0  0  0  0  0  0  0
   62.5853   32.1467   48.3611 H   0  0  0  0  0  0  0  0  0  0  0  0
   62.6840   33.8851   48.8162 H   0  0  0  0  0  0  0  0  0  0  0  0
   61.2401   34.7439   49.1733 H   0  0  0  0  0  0  0  0  0  0  0  0
   59.7965   34.9534   48.1083 H   0  0  0  0  0  0  0  0  0  0  0  0
   59.8816   33.6587   50.5989 H   0  0  0  0  0  0  0  0  0  0  0  0
   58.5521   33.6044   49.3922 H   0  0  0  0  0  0  0  0  0  0  0  0
   59.8177   32.3297   49.3922 H   0  0  0  0  0  0  0  0  0  0  0  0
   61.8147   34.9553   46.4424 H   0  0  0  0  0  0  0  0  0  0  0  0
   61.2058   33.4965   45.5216 H   0  0  0  0  0  0  0  0  0  0  0  0
   59.0428   34.5894   46.9487 H   0  0  0  0  0  0  0  0  0  0  0  0
   59.8938   35.9344   46.0939 H   0  0  0  0  0  0  0  0  0  0  0  0
   59.5477   35.0167   44.0115 H   0  0  0  0  0  0  0  0  0  0  0  0
   59.3775   33.3469   44.6562 H   0  0  0  0  0  0  0  0  0  0  0  0
   57.3788   35.6217   45.0806 H   0  0  0  0  0  0  0  0  0  0  0  0
   57.1742   34.3096   43.9117 H   0  0  0  0  0  0  0  0  0  0  0  0
   57.2622   26.8239   43.3735 H   0  0  0  0  0  0  0  0  0  0  0  0
   59.4610   26.2620   44.4326 H   0  0  0  0  0  0  0  0  0  0  0  0
   60.5590   28.0120   45.8666 H   0  0  0  0  0  0  0  0  0  0  0  0
   60.4166   30.9942   48.7997 H   0  0  0  0  0  0  0  0  0  0  0  0
   60.0657   29.2361   48.6872 H   0  0  0  0  0  0  0  0  0  0  0  0
   61.7664   29.8144   48.6872 H   0  0  0  0  0  0  0  0  0  0  0  0
   59.4280   32.3440   47.1250 H   0  0  0  0  0  0  0  0  0  0  0  0
  1  2  1  0
  2  3  1  0
  3  4  1  0
  4  5  1  0
  3  6  1  0
  6  7  1  0
  7  8  1  0
  8  9  1  0
  9 10  1  0
 10 11  1  0
 11 12  2  0
 12 13  1  0
 13 14  2  0
 14 15  1  0
 15 16  2  0
 16 17  1  0
 17 18  2  0
 18 19  1  0
 19 20  2  0
 20 21  1  0
 19 22  1  0
 22 11  1  0
 18 13  1  0
  1 23  1  0
  1 24  1  0
  1 25  1  0
  2 26  1  0
  2 27  1  0
  4 28  1  0
  4 29  1  0
  5 30  1  0
  5 31  1  0
  5 32  1  0
  6 33  1  0
  6 34  1  0
  7 35  1  0
  7 36  1  0
  8 37  1  0
  8 38  1  0
  9 39  1  0
  9 40  1  0
 15 41  1  0
 16 42  1  0
 17 43  1  0
 21 44  1  0
 21 45  1  0
 21 46  1  0
 22 47  1  0
M  END
>  <smiles>  (29) 
CCN(CC)CCCCSc1nc2ncccc2c(=NC)[nH]1

>  <score_type>  (29) 
oracle

>  <origin>  (29) 
adg

>  <m_score__min__energy>  (29) 
-6.8799999999999999

>  <m_primary>  (29) 
energy

$$$$
29:0
     RDKit          3D

 40 42  0  0  0  0  0  0  0  0999 V2000
   58.8850   33.8290   44.1250 C   0  0  0  0  0  0  0  0  0  0  0  0
   59.0060   33.8300   45.6260 C   0  0  0  0  0  0  0  0  0  0  0  0
   59.5910   34.9360   46.2670 C   0  0  0  0  0  0  0  0  0  0  0  0
   59.7320   34.9580   47.6560 C   0  0  0  0  0  0  0  0  0  0  0  0
   59.2820   33.8830   48.4220 C   0  0  0  0  0  0  0  0  0  0  0  0
   58.6860   32.7830   47.8020 C   0  0  0  0  0  0  0  0  0  0  0  0
   58.5380   32.7450   46.4070 C   0  0  0  0  0  0  0  0  0  0  0  0
   57.8970   31.5680   45.7850 C   0  0  0  0  0  0  0  0  0  0  0  0
   56.8800   31.6500   44.9040 N   0  0  0  0  0  0  0  0  0  0  0  0
   56.5990   30.4350   44.5300 O   0  0  0  0  0  0  0  0  0  0  0  0
   57.3840   29.5630   45.1180 C   0  0  0  0  0  0  0  0  0  0  0  0
   57.3360   28.0900   44.8750 C   0  0  0  0  0  0  0  0  0  0  0  0
   58.2500   30.2400   45.9560 C   0  0  0  0  0  0  0  0  0  0  0  0
   59.4080   29.6700   46.7400 C   0  0  0  0  0  0  0  0  0  0  0  0
   60.6440   30.4480   46.5520 N   0  0  0  0  0  0  0  0  0  0  0  0
   61.3580   30.6670   47.8200 C   0  0  0  0  0  0  0  0  0  0  0  0
   62.3080   31.8240   47.6890 C   0  0  0  0  0  0  0  0  0  0  0  0
   62.1450   32.8450   46.7390 C   0  0  0  0  0  0  0  0  0  0  0  0
   63.1050   33.8430   46.8300 C   0  0  0  0  0  0  0  0  0  0  0  0
   64.1380   33.4600   48.1000 S   0  0  0  0  0  0  0  0  0  0  0  0
   63.3850   32.0250   48.5450 C   0  0  0  0  0  0  0  0  0  0  0  0
   57.8218   33.8202   43.8429 H   0  0  0  0  0  0  0  0  0  0  0  0
   59.3649   34.7312   43.7178 H   0  0  0  0  0  0  0  0  0  0  0  0
   59.3798   32.9349   43.7178 H   0  0  0  0  0  0  0  0  0  0  0  0
   59.9405   35.7909   45.6695 H   0  0  0  0  0  0  0  0  0  0  0  0
   60.1988   35.8247   48.1469 H   0  0  0  0  0  0  0  0  0  0  0  0
   59.3967   33.9017   49.5158 H   0  0  0  0  0  0  0  0  0  0  0  0
   58.3297   31.9396   48.4118 H   0  0  0  0  0  0  0  0  0  0  0  0
   57.3187   27.5598   45.8386 H   0  0  0  0  0  0  0  0  0  0  0  0
   56.4293   27.8420   44.3037 H   0  0  0  0  0  0  0  0  0  0  0  0
   58.2246   27.7835   44.3037 H   0  0  0  0  0  0  0  0  0  0  0  0
   59.1473   29.6720   47.8087 H   0  0  0  0  0  0  0  0  0  0  0  0
   59.5929   28.6490   46.3748 H   0  0  0  0  0  0  0  0  0  0  0  0
   61.2700   29.9630   45.8680 H   0  0  0  0  0  0  0  0  0  0  0  0
   60.3800   31.3780   46.1480 H   0  0  0  0  0  0  0  0  0  0  0  0
   60.6289   30.8840   48.6145 H   0  0  0  0  0  0  0  0  0  0  0  0
   61.9291   29.7610   48.0708 H   0  0  0  0  0  0  0  0  0  0  0  0
   61.3350   32.8530   45.9948 H   0  0  0  0  0  0  0  0  0  0  0  0
   63.1775   34.7302   46.1837 H   0  0  0  0  0  0  0  0  0  0  0  0
   63.6902   31.3620   49.3680 H   0  0  0  0  0  0  0  0  0  0  0  0
  1  2  1  0
  2  3  2  0
  3  4  1  0
  4  5  2  0
  5  6  1  0
  6  7  2  0
  7  8  1  0
  8  9  2  0
  9 10  1  0
 10 11  1  0
 11 12  1  0
 11 13  2  0
 13 14  1  0
 14 15  1  0
 15 16  1  0
 16 17  1  0
 17 18  1  0
 18 19  2  0
 19 20  1  0
 20 21  1  0
  7  2  1  0
 13  8  1  0
 21 17  2  0
  1 22  1  0
  1 23  1  0
  1 24  1  0
  3 25  1  0
  4 26  1  0
  5 27  1  0
  6 28  1  0
 12 29  1  0
 12 30  1  0
 12 31  1  0
 14 32  1  0
 14 33  1  0
 15 34  1  0
 15 35  1  0
 16 36  1  0
 16 37  1  0
 18 38  1  0
 19 39  1  0
 21 40  1  0
M  CHG  1  15   1
M  END
>  <UniqueID>  (30) 
28

>  <SMILES>  (30) 
Cc1ccccc1-c1noc(C)c1C[NH2+]Cc1ccsc1

>  <Energy>  (30) 
99.85015240781344

>  <Genealogy>  (30) 
Cc1ccccc1-c1noc(C)c1C[NH2+]Cc1ccsc1 (protonated)
Cc1ccccc1-c1noc(C)c1C[NH2+]Cc1ccsc1 (3D coordinates assigned)
Cc1ccccc1-c1noc(C)c1C[NH2+]Cc1ccsc1 (optimized conformer: 99.85015240781344 kcal/mol)

>  <smiles>  (30) 
Cc1ccccc1-c1noc(C)c1CNCc1ccsc1

>  <score_type>  (30) 
oracle

>  <origin>  (30) 
adg

>  <m_score__min__energy>  (30) 
-6.3099999999999996

>  <m_primary>  (30) 
energy

$$$$
30:0
     RDKit          3D

 42 45  0  0  0  0  0  0  0  0999 V2000
   60.9670   28.6570   44.8820 C   0  0  0  0  0  0  0  0  0  0  0  0
   60.1670   29.0600   46.1160 C   0  0  0  0  0  0  0  0  0  0  0  0
   58.9300   29.8330   45.7310 C   0  0  0  0  0  0  0  0  0  0  0  0
   58.7360   31.2020   45.8460 C   0  0  0  0  0  0  0  0  0  0  0  0
   59.6570   32.2230   46.3880 C   0  0  0  0  0  0  0  0  0  0  0  0
   60.5740   31.9840   47.3440 N   0  0  0  0  0  0  0  0  0  0  0  0
   61.2030   33.1700   47.4840 C   0  0  0  0  0  0  0  0  0  0  0  0
   62.3170   33.4250   48.4180 C   0  0  0  0  0  0  0  0  0  0  0  0
   62.1890   34.1580   49.6110 C   0  0  0  0  0  0  0  0  0  0  0  0
   63.3740   34.2690   50.3250 C   0  0  0  0  0  0  0  0  0  0  0  0
   64.5740   33.4570   49.4750 S   0  0  0  0  0  0  0  0  0  0  0  0
   63.6090   32.9590   48.1940 C   0  0  0  0  0  0  0  0  0  0  0  0
   60.6990   34.1050   46.6520 N   0  0  0  0  0  0  0  0  0  0  0  0
   59.7310   33.5070   45.9760 N   0  0  0  0  0  0  0  0  0  0  0  0
   58.9330   34.1720   44.9530 C   0  0  0  0  0  0  0  0  0  0  0  0
   57.4930   31.4350   45.2850 C   0  0  0  0  0  0  0  0  0  0  0  0
   56.9740   30.2730   44.8480 N   0  0  0  0  0  0  0  0  0  0  0  0
   57.8360   29.3090   45.1270 N   0  0  0  0  0  0  0  0  0  0  0  0
   57.6060   27.9380   44.7740 C   0  0  0  0  0  0  0  0  0  0  0  0
   57.9990   27.4450   43.5210 C   0  0  0  0  0  0  0  0  0  0  0  0
   57.7810   26.1030   43.1930 C   0  0  0  0  0  0  0  0  0  0  0  0
   57.1820   25.2430   44.1190 C   0  0  0  0  0  0  0  0  0  0  0  0
   56.9100   23.5600   43.7070 Cl  0  0  0  0  0  0  0  0  0  0  0  0
   56.8080   25.7250   45.3780 C   0  0  0  0  0  0  0  0  0  0  0  0
   57.0260   27.0660   45.7080 C   0  0  0  0  0  0  0  0  0  0  0  0
   61.9089   28.1825   45.1945 H   0  0  0  0  0  0  0  0  0  0  0  0
   60.3805   27.9468   44.2806 H   0  0  0  0  0  0  0  0  0  0  0  0
   61.1887   29.5510   44.2806 H   0  0  0  0  0  0  0  0  0  0  0  0
   59.8687   28.1534   46.6629 H   0  0  0  0  0  0  0  0  0  0  0  0
   60.7982   29.7019   46.7481 H   0  0  0  0  0  0  0  0  0  0  0  0
   60.7800   31.0830   47.8260 H   0  0  0  0  0  0  0  0  0  0  0  0
   61.2399   34.6014   49.9466 H   0  0  0  0  0  0  0  0  0  0  0  0
   63.5047   34.7969   51.2812 H   0  0  0  0  0  0  0  0  0  0  0  0
   63.9406   32.3672   47.3281 H   0  0  0  0  0  0  0  0  0  0  0  0
   58.1733   34.8051   45.4346 H   0  0  0  0  0  0  0  0  0  0  0  0
   59.5868   34.7963   44.3263 H   0  0  0  0  0  0  0  0  0  0  0  0
   58.4368   33.4163   44.3263 H   0  0  0  0  0  0  0  0  0  0  0  0
   57.0047   32.4177   45.2081 H   0  0  0  0  0  0  0  0  0  0  0  0
   58.4801   28.1159   42.7941 H   0  0  0  0  0  0  0  0  0  0  0  0
   58.0811   25.7234   42.2052 H   0  0  0  0  0  0  0  0  0  0  0  0
   56.3419   25.0481   46.1091 H   0  0  0  0  0  0  0  0  0  0  0  0
   56.7419   27.4388   46.7032 H   0  0  0  0  0  0  0  0  0  0  0  0
  1  2  1  0
  2  3  1  0
  3  4  2  0
  4  5  1  0
  5  6  2  0
  6  7  1  0
  7  8  1  0
  8  9  1  0
  9 10  2  0
 10 11  1  0
 11 12  1  0
  7 13  2  0
 13 14  1  0
 14 15  1  0
  4 16  1  0
 16 17  2  0
 17 18  1  0
 18 19  1  0
 19 20  2  0
 20 21  1  0
 21 22  2  0
 22 23  1  0
 22 24  1  0
 24 25  2  0
 18  3  1  0
 25 19  1  0
 14  5  1  0
 12  8  2  0
  1 26  1  0
  1 27  1  0
  1 28  1  0
  2 29  1  0
  2 30  1  0
  6 31  1  0
  9 32  1  0
 10 33  1  0
 12 34  1  0
 15 35  1  0
 15 36  1  0
 15 37  1  0
 16 38  1  0
 20 39  1  0
 21 40  1  0
 24 41  1  0
 25 42  1  0
M  CHG  1   6   1
M  END
>  <UniqueID>  (31) 
29

>  <SMILES>  (31) 
CCc1c(-c2[nH+]c(-c3ccsc3)nn2C)cnn1-c1ccc(Cl)cc1

>  <Energy>  (31) 
142.41202165625484

>  <Genealogy>  (31) 
CCc1c(-c2[nH+]c(-c3ccsc3)nn2C)cnn1-c1ccc(Cl)cc1 (protonated)
CCc1c(-c2[nH+]c(-c3ccsc3)nn2C)cnn1-c1ccc(Cl)cc1 (3D coordinates assigned)
CCc1c(-c2[nH+]c(-c3ccsc3)nn2C)cnn1-c1ccc(Cl)cc1 (optimized conformer: 142.41202165625484 kcal/mol)

>  <smiles>  (31) 
CCc1c(-c2nc(-c3ccsc3)nn2C)cnn1-c1ccc(Cl)cc1

>  <score_type>  (31) 
oracle

>  <origin>  (31) 
adg

>  <m_score__min__energy>  (31) 
-6.9299999999999997

>  <m_primary>  (31) 
energy

$$$$
31:0
     RDKit          3D

 48 51  0  0  0  0  0  0  0  0999 V2000
   65.9130   34.3860   52.3490 C   0  0  0  0  0  0  0  0  0  0  0  0
   65.9330   33.5430   51.1470 N   0  0  0  0  0  0  0  0  0  0  0  0
   67.1420   32.7640   50.8490 C   0  0  0  0  0  0  0  0  0  0  0  0
   64.7790   33.4810   50.2680 C   0  0  0  0  0  0  0  0  0  0  0  0
   63.5750   34.1290   50.6080 C   0  0  0  0  0  0  0  0  0  0  0  0
   62.4650   34.0680   49.7620 C   0  0  0  0  0  0  0  0  0  0  0  0
   62.5230   33.3610   48.5490 C   0  0  0  0  0  0  0  0  0  0  0  0
   61.3360   33.3020   47.6560 C   0  0  0  0  0  0  0  0  0  0  0  0
   60.7250   34.3830   47.0070 C   0  0  0  0  0  0  0  0  0  0  0  0
   59.6200   33.9970   46.2450 C   0  0  0  0  0  0  0  0  0  0  0  0
   58.8310   34.8510   45.5440 N   0  0  0  0  0  0  0  0  0  0  0  0
   57.7550   34.3780   44.8520 C   0  0  0  0  0  0  0  0  0  0  0  0
   57.4470   33.0040   44.8580 C   0  0  0  0  0  0  0  0  0  0  0  0
   58.2600   32.1020   45.5740 C   0  0  0  0  0  0  0  0  0  0  0  0
   57.9480   30.6530   45.5860 C   0  0  0  0  0  0  0  0  0  0  0  0
   57.2770   30.0550   44.5050 C   0  0  0  0  0  0  0  0  0  0  0  0
   56.9810   28.6900   44.5260 C   0  0  0  0  0  0  0  0  0  0  0  0
   57.3390   27.9060   45.6300 C   0  0  0  0  0  0  0  0  0  0  0  0
   56.9820   26.1820   45.6450 S   0  0  0  0  0  0  0  0  0  0  0  0
   58.0150   25.3760   46.8470 C   0  0  0  0  0  0  0  0  0  0  0  0
   57.2420   25.5960   44.2850 O   0  0  0  0  0  0  0  0  0  0  0  0
   55.5380   25.9640   45.9950 O   0  0  0  0  0  0  0  0  0  0  0  0
   58.0050   28.4970   46.7100 C   0  0  0  0  0  0  0  0  0  0  0  0
   58.3030   29.8630   46.6920 C   0  0  0  0  0  0  0  0  0  0  0  0
   59.3520   32.6400   46.2680 C   0  0  0  0  0  0  0  0  0  0  0  0
   60.4780   31.8900   47.2650 S   0  0  0  0  0  0  0  0  0  0  0  0
   63.7210   32.7090   48.2070 C   0  0  0  0  0  0  0  0  0  0  0  0
   64.8320   32.7690   49.0540 C   0  0  0  0  0  0  0  0  0  0  0  0
   65.9281   33.7477   53.2448 H   0  0  0  0  0  0  0  0  0  0  0  0
   66.7958   35.0422   52.3514 H   0  0  0  0  0  0  0  0  0  0  0  0
   65.0000   34.9996   52.3514 H   0  0  0  0  0  0  0  0  0  0  0  0
   67.6207   32.4556   51.7901 H   0  0  0  0  0  0  0  0  0  0  0  0
   66.8689   31.8715   50.2668 H   0  0  0  0  0  0  0  0  0  0  0  0
   67.8418   33.3815   50.2668 H   0  0  0  0  0  0  0  0  0  0  0  0
   63.5082   34.6902   51.5517 H   0  0  0  0  0  0  0  0  0  0  0  0
   61.5344   34.5796   50.0488 H   0  0  0  0  0  0  0  0  0  0  0  0
   61.0770   35.4219   47.0887 H   0  0  0  0  0  0  0  0  0  0  0  0
   57.1223   35.0760   44.2842 H   0  0  0  0  0  0  0  0  0  0  0  0
   56.5717   32.6344   44.3038 H   0  0  0  0  0  0  0  0  0  0  0  0
   56.9835   30.6652   43.6381 H   0  0  0  0  0  0  0  0  0  0  0  0
   56.4643   28.2287   43.6715 H   0  0  0  0  0  0  0  0  0  0  0  0
   57.6753   25.6411   47.8591 H   0  0  0  0  0  0  0  0  0  0  0  0
   57.9519   24.2860   46.7128 H   0  0  0  0  0  0  0  0  0  0  0  0
   59.0569   25.7023   46.7128 H   0  0  0  0  0  0  0  0  0  0  0  0
   58.2951   27.8844   47.5763 H   0  0  0  0  0  0  0  0  0  0  0  0
   58.8184   30.3216   47.5488 H   0  0  0  0  0  0  0  0  0  0  0  0
   63.7848   32.1463   47.2640 H   0  0  0  0  0  0  0  0  0  0  0  0
   65.7604   32.2529   48.7681 H   0  0  0  0  0  0  0  0  0  0  0  0
  1  2  1  0
  2  3  1  0
  2  4  1  0
  4  5  2  0
  5  6  1  0
  6  7  2  0
  7  8  1  0
  8  9  2  0
  9 10  1  0
 10 11  2  0
 11 12  1  0
 12 13  2  0
 13 14  1  0
 14 15  1  0
 15 16  2  0
 16 17  1  0
 17 18  2  0
 18 19  1  0
 19 20  1  0
 19 21  2  0
 19 22  2  0
 18 23  1  0
 23 24  2  0
 14 25  2  0
 25 26  1  0
  7 27  1  0
 27 28  2  0
 28  4  1  0
 26  8  1  0
 25 10  1  0
 24 15  1  0
  1 29  1  0
  1 30  1  0
  1 31  1  0
  3 32  1  0
  3 33  1  0
  3 34  1  0
  5 35  1  0
  6 36  1  0
  9 37  1  0
 12 38  1  0
 13 39  1  0
 16 40  1  0
 17 41  1  0
 20 42  1  0
 20 43  1  0
 20 44  1  0
 23 45  1  0
 24 46  1  0
 27 47  1  0
 28 48  1  0
M  END
>  <UniqueID>  (32) 
30

>  <SMILES>  (32) 
CN(C)c1ccc(-c2cc3nccc(-c4ccc(S(C)(=O)=O)cc4)c3s2)cc1

>  <Energy>  (32) 
91.67892673780571

>  <Genealogy>  (32) 
CN(C)c1ccc(-c2cc3nccc(-c4ccc(S(C)(=O)=O)cc4)c3s2)cc1 (3D coordinates assigned)
CN(C)c1ccc(-c2cc3nccc(-c4ccc(S(C)(=O)=O)cc4)c3s2)cc1 (optimized conformer: 91.67892673780571 kcal/mol)

>  <smiles>  (32) 
CN(C)c1ccc(-c2cc3nccc(-c4ccc(S(C)(=O)=O)cc4)c3s2)cc1

>  <score_type>  (32) 
oracle

>  <origin>  (32) 
adg

>  <m_score__min__energy>  (32) 
-9.5700000000000003

>  <m_primary>  (32) 
energy

$$$$
32:0
     RDKit          3D

 49 51  0  0  1  0  0  0  0  0999 V2000
   60.7070   28.5700   45.2540 C   0  0  0  0  0  0  0  0  0  0  0  0
   59.5140   27.6570   45.3270 C   0  0  0  0  0  0  0  0  0  0  0  0
   59.2530   27.1500   46.7410 C   0  0  0  0  0  0  0  0  0  0  0  0
   59.7750   28.1350   47.7640 C   0  0  0  0  0  0  0  0  0  0  0  0
   58.7440   29.0920   48.0590 N   0  0  0  0  0  0  0  0  0  0  0  0
   58.6970   30.1730   47.3570 C   0  0  0  0  0  0  0  0  0  0  0  0
   59.3740   31.2420   47.8630 N   0  0  0  0  0  0  0  0  0  0  0  0
   59.3960   32.4290   47.2130 C   0  0  0  0  0  0  0  0  0  0  0  0
   60.0270   33.4620   47.6640 N   0  0  0  0  0  0  0  0  0  0  0  0
   61.4470   33.4530   47.8680 C   0  0  0  0  0  0  0  0  0  0  0  0
   62.3440   33.2830   46.8520 C   0  0  0  0  0  0  0  0  0  0  0  0
   63.6900   33.2910   47.1550 C   0  0  0  0  0  0  0  0  0  0  0  0
   64.1510   33.4630   48.4560 C   0  0  0  0  0  0  0  0  0  0  0  0
   63.2540   33.6340   49.4820 C   0  0  0  0  0  0  0  0  0  0  0  0
   63.7660   33.8160   50.8550 C   0  0  0  0  0  0  0  0  0  0  0  0
   61.9000   33.6260   49.1700 C   0  0  0  0  0  0  0  0  0  0  0  0
   58.7170   32.5550   46.0130 C   0  0  0  0  0  0  0  0  0  0  0  0
   58.5340   33.5550   45.1310 N   0  0  0  0  0  0  0  0  0  0  0  0
   57.7690   33.1080   44.1170 C   0  0  0  0  0  0  0  0  0  0  0  0
   57.4530   31.8010   44.3490 N   0  0  0  0  0  0  0  0  0  0  0  0
   56.6540   31.0220   43.4710 C   0  0  0  0  0  0  0  0  0  0  0  0
   56.4180   29.6390   43.9260 C   0  0  0  0  0  0  0  0  0  0  0  0
   57.1650   28.6020   43.2950 N   0  0  0  0  0  0  0  0  0  0  0  0
   55.5870   29.3440   44.8490 O   0  0  0  0  0  0  0  0  0  0  0  0
   58.0310   31.4410   45.5160 C   0  0  0  0  0  0  0  0  0  0  0  0
   58.0270   30.2670   46.1890 N   0  0  0  0  0  0  0  0  0  0  0  0
   61.0378   28.8232   46.2721 H   0  0  0  0  0  0  0  0  0  0  0  0
   61.5237   28.0640   44.7183 H   0  0  0  0  0  0  0  0  0  0  0  0
   60.4320   29.4905   44.7183 H   0  0  0  0  0  0  0  0  0  0  0  0
   58.6269   28.2072   44.9801 H   0  0  0  0  0  0  0  0  0  0  0  0
   59.7220   26.7835   44.6916 H   0  0  0  0  0  0  0  0  0  0  0  0
   58.1702   27.0195   46.8843 H   0  0  0  0  0  0  0  0  0  0  0  0
   59.7727   26.1899   46.8754 H   0  0  0  0  0  0  0  0  0  0  0  0
   60.0549   27.5991   48.6829 H   0  0  0  0  0  0  0  0  0  0  0  0
   60.6598   28.6524   47.3648 H   0  0  0  0  0  0  0  0  0  0  0  0
   59.8970   31.1740   48.7720 H   0  0  0  0  0  0  0  0  0  0  0  0
   62.0012   33.1430   45.8162 H   0  0  0  0  0  0  0  0  0  0  0  0
   64.4204   33.1574   46.3434 H   0  0  0  0  0  0  0  0  0  0  0  0
   65.2314   33.4621   48.6627 H   0  0  0  0  0  0  0  0  0  0  0  0
   62.9845   33.5382   51.5776 H   0  0  0  0  0  0  0  0  0  0  0  0
   64.6483   33.1764   51.0051 H   0  0  0  0  0  0  0  0  0  0  0  0
   64.0466   34.8690   51.0051 H   0  0  0  0  0  0  0  0  0  0  0  0
   61.1652   33.7606   49.9775 H   0  0  0  0  0  0  0  0  0  0  0  0
   57.4512   33.6990   43.2454 H   0  0  0  0  0  0  0  0  0  0  0  0
   55.6788   31.5190   43.3613 H   0  0  0  0  0  0  0  0  0  0  0  0
   57.2082   30.9501   42.5235 H   0  0  0  0  0  0  0  0  0  0  0  0
   56.7600   27.6400   43.1510 H   0  0  0  0  0  0  0  0  0  0  0  0
   58.1410   28.7840   42.9590 H   0  0  0  0  0  0  0  0  0  0  0  0
   57.5160   29.4350   45.8210 H   0  0  0  0  0  0  0  0  0  0  0  0
  1  2  1  0
  2  3  1  0
  3  4  1  0
  4  5  1  0
  5  6  2  0
  6  7  1  0
  7  8  1  0
  8  9  2  0
  9 10  1  0
 10 11  2  0
 11 12  1  0
 12 13  2  0
 13 14  1  0
 14 15  1  0
 14 16  2  0
  8 17  1  0
 17 18  1  0
 18 19  2  0
 19 20  1  0
 20 21  1  0
 21 22  1  0
 22 23  1  0
 22 24  2  0
 20 25  1  0
 25 26  1  0
 26  6  1  0
 16 10  1  0
 25 17  2  0
  1 27  1  0
  1 28  1  0
  1 29  1  0
  2 30  1  0
  2 31  1  0
  3 32  1  0
  3 33  1  0
  4 34  1  0
  4 35  1  0
  7 36  1  0
 11 37  1  0
 12 38  1  0
 13 39  1  0
 15 40  1  0
 15 41  1  0
 15 42  1  0
 16 43  1  0
 19 44  1  0
 21 45  1  0
 21 46  1  0
 23 47  1  0
 23 48  1  0
 26 49  1  0
M  END
>  <smiles>  (33) 
CCCCN=c1[nH]c(=Nc2cccc(C)c2)c2ncn(CC(N)=O)c2[nH]1

>  <score_type>  (33) 
oracle

>  <origin>  (33) 
adg

>  <m_score__min__energy>  (33) 
-8.6600000000000001

>  <m_primary>  (33) 
energy

$$$$
33:0
     RDKit          3D

 33 33  0  0  0  0  0  0  0  0999 V2000
   57.8437   34.7360   46.8315 H   0  0  0  0  0  0  0  0  0  0  0  0
   58.3160   33.7510   46.7020 C   0  0  0  0  0  0  0  0  0  0  0  0
   59.1420   33.3460   47.6230 N   0  0  0  0  0  0  0  0  0  0  0  0
   60.5880   33.1950   47.4840 C   0  0  0  0  0  0  0  0  0  0  0  0
   61.0922   33.7736   48.2720 H   0  0  0  0  0  0  0  0  0  0  0  0
   60.8965   33.5646   46.4949 H   0  0  0  0  0  0  0  0  0  0  0  0
   60.9760   31.7130   47.6130 C   0  0  0  0  0  0  0  0  0  0  0  0
   61.1643   31.4886   48.6733 H   0  0  0  0  0  0  0  0  0  0  0  0
   61.8737   31.5478   46.9991 H   0  0  0  0  0  0  0  0  0  0  0  0
   59.9110   30.7990   47.1130 N   0  0  0  0  0  0  0  0  0  0  0  0
   59.1200   31.3720   46.7360 H   0  0  0  0  0  0  0  0  0  0  0  0
   60.4410   29.9440   46.0150 C   0  0  0  0  0  0  0  0  0  0  0  0
   61.3431   29.4265   46.3733 H   0  0  0  0  0  0  0  0  0  0  0  0
   60.6665   30.5964   45.1585 H   0  0  0  0  0  0  0  0  0  0  0  0
   59.4220   28.8960   45.5520 C   0  0  0  0  0  0  0  0  0  0  0  0
   58.9600   28.4209   46.4300 H   0  0  0  0  0  0  0  0  0  0  0  0
   58.6435   29.3838   44.9469 H   0  0  0  0  0  0  0  0  0  0  0  0
   59.9314   28.1315   44.9469 H   0  0  0  0  0  0  0  0  0  0  0  0
   59.3940   29.9520   48.2230 C   0  0  0  0  0  0  0  0  0  0  0  0
   58.5429   30.4657   48.6939 H   0  0  0  0  0  0  0  0  0  0  0  0
   59.0911   28.9843   47.7967 H   0  0  0  0  0  0  0  0  0  0  0  0
   60.4610   29.6830   49.2910 C   0  0  0  0  0  0  0  0  0  0  0  0
   60.0157   29.7953   50.2906 H   0  0  0  0  0  0  0  0  0  0  0  0
   60.8468   28.6595   49.1743 H   0  0  0  0  0  0  0  0  0  0  0  0
   61.2859   30.4013   49.1743 H   0  0  0  0  0  0  0  0  0  0  0  0
   57.9720   32.9730   45.4940 C   0  0  0  0  0  0  0  0  0  0  0  0
   57.3970   31.7920   45.4830 O   0  0  0  0  0  0  0  0  0  0  0  0
   57.2490   31.4090   44.2370 C   0  0  0  0  0  0  0  0  0  0  0  0
   56.4560   29.7520   43.7160 Br  0  0  0  0  0  0  0  0  0  0  0  0
   57.7480   32.3780   43.3910 C   0  0  0  0  0  0  0  0  0  0  0  0
   57.7900   32.3420   41.4840 Br  0  0  0  0  0  0  0  0  0  0  0  0
   58.2170   33.3900   44.1980 C   0  0  0  0  0  0  0  0  0  0  0  0
   58.6875   34.3319   43.8793 H   0  0  0  0  0  0  0  0  0  0  0  0
  1  2  1  0
  2  3  2  0
  3  4  1  0
  4  5  1  0
  4  6  1  0
  4  7  1  0
  7  8  1  0
  7  9  1  0
  7 10  1  0
 10 11  1  0
 10 12  1  0
 12 13  1  0
 12 14  1  0
 12 15  1  0
 15 16  1  0
 15 17  1  0
 15 18  1  0
 10 19  1  0
 19 20  1  0
 19 21  1  0
 19 22  1  0
 22 23  1  0
 22 24  1  0
 22 25  1  0
  2 26  1  0
 26 27  1  0
 27 28  1  0
 28 29  1  0
 28 30  2  0
 30 31  1  0
 30 32  1  0
 32 33  1  0
 32 26  2  0
M  CHG  1  10   1
M  END
>  <UniqueID>  (34) 
31

>  <SMILES>  (34) 
CC[NH+](CC)CC/N=C\c1cc(Br)c(Br)o1

>  <Energy>  (34) 
57.728509647106215

>  <Genealogy>  (34) 
CC[NH+](CC)CCN=Cc1cc(Br)c(Br)o1 (protonated)
CC[NH+](CC)CC/N=C\c1cc(Br)c(Br)o1 (cis-trans isomerization)
CC[NH+](CC)CC/N=C\c1cc(Br)c(Br)o1 (3D coordinates assigned)
CC[NH+](CC)CC/N=C\c1cc(Br)c(Br)o1 (optimized conformer: 57.728509647106215 kcal/mol)

>  <smiles>  (34) 
CCN(CC)CCN=Cc1cc(Br)c(Br)o1

>  <score_type>  (34) 
oracle

>  <origin>  (34) 
adg

>  <m_score__min__energy>  (34) 
-3.5899999999999999

>  <m_primary>  (34) 
energy

$$$$
34:0
     RDKit          3D

 40 42  0  0  0  0  0  0  0  0999 V2000
   56.9990   30.0260   43.0330 C   0  0  0  0  0  0  0  0  0  0  0  0
   57.5320   31.1560   43.8580 C   0  0  0  0  0  0  0  0  0  0  0  0
   57.7900   32.7160   43.2570 S   0  0  0  0  0  0  0  0  0  0  0  0
   58.3530   33.3250   44.7120 C   0  0  0  0  0  0  0  0  0  0  0  0
   58.7540   34.5920   44.9520 N   0  0  0  0  0  0  0  0  0  0  0  0
   59.1830   34.9250   46.2000 C   0  0  0  0  0  0  0  0  0  0  0  0
   59.2190   33.9900   47.2060 N   0  0  0  0  0  0  0  0  0  0  0  0
   59.6620   34.4050   48.5480 C   0  0  0  0  0  0  0  0  0  0  0  0
   61.1850   34.2240   48.6850 C   0  0  0  0  0  0  0  0  0  0  0  0
   61.6610   32.9020   48.1960 N   0  0  0  0  0  0  0  0  0  0  0  0
   62.6880   32.2910   49.0700 C   0  0  0  0  0  0  0  0  0  0  0  0
   64.0260   33.0680   49.0190 C   0  0  0  0  0  0  0  0  0  0  0  0
   64.1270   33.9320   47.9000 O   0  0  0  0  0  0  0  0  0  0  0  0
   63.6850   33.2720   46.7340 C   0  0  0  0  0  0  0  0  0  0  0  0
   62.1690   32.9900   46.8020 C   0  0  0  0  0  0  0  0  0  0  0  0
   58.7980   32.7000   46.9710 C   0  0  0  0  0  0  0  0  0  0  0  0
   58.8050   31.8460   47.9000 O   0  0  0  0  0  0  0  0  0  0  0  0
   58.3550   32.3490   45.6870 C   0  0  0  0  0  0  0  0  0  0  0  0
   57.8880   31.1020   45.2150 C   0  0  0  0  0  0  0  0  0  0  0  0
   57.7820   29.8650   46.0630 C   0  0  0  0  0  0  0  0  0  0  0  0
   56.6247   29.2324   43.6964 H   0  0  0  0  0  0  0  0  0  0  0  0
   56.1780   30.3908   42.3982 H   0  0  0  0  0  0  0  0  0  0  0  0
   57.8027   29.6245   42.3982 H   0  0  0  0  0  0  0  0  0  0  0  0
   59.5052   35.9564   46.4059 H   0  0  0  0  0  0  0  0  0  0  0  0
   59.4064   35.4635   48.7038 H   0  0  0  0  0  0  0  0  0  0  0  0
   59.1574   33.7820   49.3011 H   0  0  0  0  0  0  0  0  0  0  0  0
   61.6851   35.0131   48.1043 H   0  0  0  0  0  0  0  0  0  0  0  0
   61.4279   34.2848   49.7561 H   0  0  0  0  0  0  0  0  0  0  0  0
   60.8350   32.2570   48.1820 H   0  0  0  0  0  0  0  0  0  0  0  0
   62.3176   32.2883   50.1058 H   0  0  0  0  0  0  0  0  0  0  0  0
   62.8744   31.2674   48.7128 H   0  0  0  0  0  0  0  0  0  0  0  0
   64.1158   33.6703   49.9351 H   0  0  0  0  0  0  0  0  0  0  0  0
   64.8326   32.3251   48.9326 H   0  0  0  0  0  0  0  0  0  0  0  0
   63.8946   33.9060   45.8599 H   0  0  0  0  0  0  0  0  0  0  0  0
   64.2175   32.3132   46.6496 H   0  0  0  0  0  0  0  0  0  0  0  0
   61.6370   33.8021   46.2848 H   0  0  0  0  0  0  0  0  0  0  0  0
   61.9918   32.0157   46.3230 H   0  0  0  0  0  0  0  0  0  0  0  0
   57.8061   30.1461   47.1262 H   0  0  0  0  0  0  0  0  0  0  0  0
   56.8363   29.3486   45.8416 H   0  0  0  0  0  0  0  0  0  0  0  0
   58.6260   29.1952   45.8416 H   0  0  0  0  0  0  0  0  0  0  0  0
  1  2  1  0
  2  3  1  0
  3  4  1  0
  4  5  1  0
  5  6  2  0
  6  7  1  0
  7  8  1  0
  8  9  1  0
  9 10  1  0
 10 11  1  0
 11 12  1  0
 12 13  1  0
 13 14  1  0
 14 15  1  0
  7 16  1  0
 16 17  2  0
 16 18  1  0
 18 19  1  0
 19 20  1  0
 19  2  2  0
 18  4  2  0
 15 10  1  0
  1 21  1  0
  1 22  1  0
  1 23  1  0
  6 24  1  0
  8 25  1  0
  8 26  1  0
  9 27  1  0
  9 28  1  0
 10 29  1  0
 11 30  1  0
 11 31  1  0
 12 32  1  0
 12 33  1  0
 14 34  1  0
 14 35  1  0
 15 36  1  0
 15 37  1  0
 20 38  1  0
 20 39  1  0
 20 40  1  0
M  CHG  1  10   1
M  END
>  <UniqueID>  (35) 
32

>  <SMILES>  (35) 
Cc1sc2ncn(CC[NH+]3CCOCC3)c(=O)c2c1C

>  <Energy>  (35) 
88.12615249634311

>  <Genealogy>  (35) 
Cc1sc2ncn(CC[NH+]3CCOCC3)c(=O)c2c1C (protonated)
Cc1sc2ncn(CC[NH+]3CCOCC3)c(=O)c2c1C (3D coordinates assigned)
Cc1sc2ncn(CC[NH+]3CCOCC3)c(=O)c2c1C (nonaromatic ring conformer: 88.12615249634311 kcal/mol)

>  <smiles>  (35) 
Cc1sc2ncn(CCN3CCOCC3)c(=O)c2c1C

>  <score_type>  (35) 
oracle

>  <origin>  (35) 
adg

>  <m_score__min__energy>  (35) 
-5.0700000000000003

>  <m_primary>  (35) 
energy

$$$$
35:0
     RDKit          3D

 54 57  0  0  0  0  0  0  0  0999 V2000
   59.6180   27.7980   47.9790 C   0  0  0  0  0  0  0  0  0  0  0  0
   58.5570   27.9440   46.9250 C   0  0  0  0  0  0  0  0  0  0  0  0
   57.5940   27.0680   46.8950 N   0  0  0  0  0  0  0  0  0  0  0  0
   56.4990   27.1690   45.9810 C   0  0  0  0  0  0  0  0  0  0  0  0
   55.5160   26.3930   46.0820 O   0  0  0  0  0  0  0  0  0  0  0  0
   56.5250   28.1660   44.9630 N   0  0  0  0  0  0  0  0  0  0  0  0
   57.7680   28.8890   44.7100 C   0  0  1  0  0  0  0  0  0  0  0  0
   57.4810   30.1410   43.9200 C   0  0  0  0  0  0  0  0  0  0  0  0
   56.8920   31.2110   44.4720 C   0  0  0  0  0  0  0  0  0  0  0  0
   57.6320   32.3940   44.9760 C   0  0  0  0  0  0  0  0  0  0  0  0
   58.5010   33.1510   44.1620 C   0  0  0  0  0  0  0  0  0  0  0  0
   59.1690   34.2620   44.6850 C   0  0  0  0  0  0  0  0  0  0  0  0
   58.9760   34.6360   46.0160 C   0  0  0  0  0  0  0  0  0  0  0  0
   58.1070   33.9030   46.8260 C   0  0  0  0  0  0  0  0  0  0  0  0
   57.4350   32.7910   46.3100 C   0  0  0  0  0  0  0  0  0  0  0  0
   58.4960   29.1910   46.0450 C   0  0  2  0  0  0  0  0  0  0  0  0
   59.8700   29.7490   45.7710 C   0  0  0  0  0  0  0  0  0  0  0  0
   60.6220   29.1730   44.9390 O   0  0  0  0  0  0  0  0  0  0  0  0
   60.2970   30.9050   46.4380 O   0  0  0  0  0  0  0  0  0  0  0  0
   61.5260   30.9820   47.1590 C   0  0  0  0  0  0  0  0  0  0  0  0
   61.3530   31.7640   48.4840 C   0  0  0  0  0  0  0  0  0  0  0  0
   59.9490   31.9560   48.9130 N   0  0  2  0  0  0  0  0  0  0  0  0
   59.7430   33.2050   49.6120 C   0  0  0  0  0  0  0  0  0  0  0  0
   59.8750   34.3180   49.0350 O   0  0  0  0  0  0  0  0  0  0  0  0
   59.3270   33.0950   51.0150 C   0  0  0  0  0  0  0  0  0  0  0  0
   59.1400   34.1350   51.9290 C   0  0  0  0  0  0  0  0  0  0  0  0
   58.7370   33.8180   53.2380 C   0  0  0  0  0  0  0  0  0  0  0  0
   58.5240   32.4760   53.6100 C   0  0  0  0  0  0  0  0  0  0  0  0
   58.7130   31.4460   52.6760 C   0  0  0  0  0  0  0  0  0  0  0  0
   59.1160   31.7880   51.3870 C   0  0  0  0  0  0  0  0  0  0  0  0
   59.4120   30.7360   50.0460 S   0  0  0  0  0  0  0  0  0  0  0  0
   58.1440   30.0840   49.5720 O   0  0  0  0  0  0  0  0  0  0  0  0
   60.4660   29.7080   50.3500 O   0  0  0  0  0  0  0  0  0  0  0  0
   59.1562   27.8615   48.9754 H   0  0  0  0  0  0  0  0  0  0  0  0
   60.1148   26.8230   47.8666 H   0  0  0  0  0  0  0  0  0  0  0  0
   60.3597   28.6026   47.8666 H   0  0  0  0  0  0  0  0  0  0  0  0
   58.4432   28.2636   44.1075 H   0  0  0  0  0  0  0  0  0  0  0  0
   57.7638   30.1773   42.8576 H   0  0  0  0  0  0  0  0  0  0  0  0
   55.7952   31.2121   44.5563 H   0  0  0  0  0  0  0  0  0  0  0  0
   58.6536   32.8655   43.1107 H   0  0  0  0  0  0  0  0  0  0  0  0
   59.8492   34.8436   44.0454 H   0  0  0  0  0  0  0  0  0  0  0  0
   59.5080   35.5072   46.4260 H   0  0  0  0  0  0  0  0  0  0  0  0
   57.9505   34.2012   47.8732 H   0  0  0  0  0  0  0  0  0  0  0  0
   56.7469   32.2224   46.9528 H   0  0  0  0  0  0  0  0  0  0  0  0
   57.9252   29.9512   46.5983 H   0  0  0  0  0  0  0  0  0  0  0  0
   61.8721   29.9631   47.3869 H   0  0  0  0  0  0  0  0  0  0  0  0
   62.2612   31.5127   46.5362 H   0  0  0  0  0  0  0  0  0  0  0  0
   61.8810   31.2144   49.2772 H   0  0  0  0  0  0  0  0  0  0  0  0
   61.7626   32.7693   48.3059 H   0  0  0  0  0  0  0  0  0  0  0  0
   59.3220   31.9310   48.0750 H   0  0  0  0  0  0  0  0  0  0  0  0
   59.3048   35.1808   51.6304 H   0  0  0  0  0  0  0  0  0  0  0  0
   58.5874   34.6210   53.9747 H   0  0  0  0  0  0  0  0  0  0  0  0
   58.2085   32.2348   54.6358 H   0  0  0  0  0  0  0  0  0  0  0  0
   58.5471   30.3949   52.9546 H   0  0  0  0  0  0  0  0  0  0  0  0
  1  2  1  0
  2  3  2  0
  3  4  1  0
  4  5  2  0
  4  6  1  0
  6  7  1  0
  7  8  1  0
  8  9  2  3
  9 10  1  0
 10 11  2  0
 11 12  1  0
 12 13  2  0
 13 14  1  0
 14 15  2  0
  7 16  1  0
 16 17  1  0
 17 18  2  0
 17 19  1  0
 19 20  1  0
 20 21  1  0
 21 22  1  0
 22 23  1  0
 23 24  2  0
 23 25  1  0
 25 26  2  0
 26 27  1  0
 27 28  2  0
 28 29  1  0
 29 30  2  0
 30 31  1  0
 31 32  2  0
 31 33  2  0
 16  2  1  0
 31 22  1  0
 15 10  1  0
 30 25  1  0
  1 34  1  0
  1 35  1  0
  1 36  1  0
  7 37  1  6
  8 38  1  0
  9 39  1  0
 11 40  1  0
 12 41  1  0
 13 42  1  0
 14 43  1  0
 15 44  1  0
 16 45  1  1
 20 46  1  0
 20 47  1  0
 21 48  1  0
 21 49  1  0
 22 50  1  6
 26 51  1  0
 27 52  1  0
 28 53  1  0
 29 54  1  0
M  CHG  2   6  -1  22   1
M  END
>  <UniqueID>  (36) 
33

>  <SMILES>  (36) 
CC1=NC(=O)[N-][C@@H](C=Cc2ccccc2)[C@@H]1C(=O)OCC[NH+]1C(=O)c2ccccc2S1(=O)=O

>  <Energy>  (36) 
73.77875377996382

>  <Genealogy>  (36) 
CC1=NC(=O)[N-]C(C=Cc2ccccc2)C1C(=O)OCC[NH+]1C(=O)c2ccccc2S1(=O)=O (protonated)
CC1=NC(=O)[N-][C@@H](C=Cc2ccccc2)[C@@H]1C(=O)OCC[NH+]1C(=O)c2ccccc2S1(=O)=O (chirality)
CC1=NC(=O)[N-][C@@H](C=Cc2ccccc2)[C@@H]1C(=O)OCC[NH+]1C(=O)c2ccccc2S1(=O)=O (3D coordinates assigned)
CC1=NC(=O)[N-][C@@H](C=Cc2ccccc2)[C@@H]1C(=O)OCC[NH+]1C(=O)c2ccccc2S1(=O)=O (nonaromatic ring conformer: 73.77875377996382 kcal/mol)

>  <smiles>  (36) 
CC1=NC(=O)NC(C=Cc2ccccc2)C1C(=O)OCCN1C(=O)c2ccccc2S1(=O)=O

>  <score_type>  (36) 
oracle

>  <origin>  (36) 
adg

>  <m_score__min__energy>  (36) 
-9.6099999999999994

>  <m_primary>  (36) 
energy

$$$$
36:0
     RDKit          3D

 47 49  0  0  0  0  0  0  0  0999 V2000
   58.5870   30.5030   45.3180 C   0  0  0  0  0  0  0  0  0  0  0  0
   59.8320   29.7260   45.7400 C   0  0  0  0  0  0  0  0  0  0  0  0
   60.6650   30.4610   46.8020 C   0  0  0  0  0  0  0  0  0  0  0  0
   60.6690   29.7540   48.1800 C   0  0  0  0  0  0  0  0  0  0  0  0
   60.5600   30.7040   49.3040 N   0  0  0  0  0  0  0  0  0  0  0  0
   59.2070   31.2760   49.4060 C   0  0  0  0  0  0  0  0  0  0  0  0
   59.2710   32.7980   49.5880 C   0  0  0  0  0  0  0  0  0  0  0  0
   59.6940   33.4660   48.3080 C   0  0  0  0  0  0  0  0  0  0  0  0
   60.9970   33.7960   47.9090 C   0  0  0  0  0  0  0  0  0  0  0  0
   62.2240   33.6420   48.7140 C   0  0  0  0  0  0  0  0  0  0  0  0
   63.3130   32.9240   48.1940 C   0  0  0  0  0  0  0  0  0  0  0  0
   64.4740   32.7560   48.9540 C   0  0  0  0  0  0  0  0  0  0  0  0
   64.5600   33.3140   50.2330 C   0  0  0  0  0  0  0  0  0  0  0  0
   63.4890   34.0480   50.7490 C   0  0  0  0  0  0  0  0  0  0  0  0
   62.3260   34.2170   49.9910 C   0  0  0  0  0  0  0  0  0  0  0  0
   61.0120   34.1930   46.6140 N   0  0  0  0  0  0  0  0  0  0  0  0
   59.7390   34.1200   46.1880 C   0  0  0  0  0  0  0  0  0  0  0  0
   59.2640   34.3970   44.9070 C   0  0  0  0  0  0  0  0  0  0  0  0
   57.8930   34.2060   44.6580 C   0  0  0  0  0  0  0  0  0  0  0  0
   57.0400   33.7350   45.6800 C   0  0  0  0  0  0  0  0  0  0  0  0
   57.5480   33.4570   46.9620 C   0  0  0  0  0  0  0  0  0  0  0  0
   58.9100   33.6710   47.1860 C   0  0  0  0  0  0  0  0  0  0  0  0
   58.0449   30.8413   46.2134 H   0  0  0  0  0  0  0  0  0  0  0  0
   58.8851   31.3756   44.7183 H   0  0  0  0  0  0  0  0  0  0  0  0
   57.9341   29.8518   44.7183 H   0  0  0  0  0  0  0  0  0  0  0  0
   59.5173   28.7553   46.1508 H   0  0  0  0  0  0  0  0  0  0  0  0
   60.4649   29.6076   44.8482 H   0  0  0  0  0  0  0  0  0  0  0  0
   61.7026   30.5316   46.4436 H   0  0  0  0  0  0  0  0  0  0  0  0
   60.2061   31.4502   46.9465 H   0  0  0  0  0  0  0  0  0  0  0  0
   59.8175   29.0588   48.2221 H   0  0  0  0  0  0  0  0  0  0  0  0
   61.6285   29.2257   48.2813 H   0  0  0  0  0  0  0  0  0  0  0  0
   61.2640   31.4710   49.1990 H   0  0  0  0  0  0  0  0  0  0  0  0
   60.7700   30.1890   50.1910 H   0  0  0  0  0  0  0  0  0  0  0  0
   58.6480   31.0459   48.4870 H   0  0  0  0  0  0  0  0  0  0  0  0
   58.7038   30.8373   50.2803 H   0  0  0  0  0  0  0  0  0  0  0  0
   58.2773   33.1696   49.8787 H   0  0  0  0  0  0  0  0  0  0  0  0
   60.0079   33.0313   50.3707 H   0  0  0  0  0  0  0  0  0  0  0  0
   63.2521   32.4919   47.1842 H   0  0  0  0  0  0  0  0  0  0  0  0
   65.3205   32.1844   48.5456 H   0  0  0  0  0  0  0  0  0  0  0  0
   65.4712   33.1751   50.8333 H   0  0  0  0  0  0  0  0  0  0  0  0
   63.5606   34.4933   51.7523 H   0  0  0  0  0  0  0  0  0  0  0  0
   61.4879   34.8026   50.3967 H   0  0  0  0  0  0  0  0  0  0  0  0
   61.8460   34.4760   46.0510 H   0  0  0  0  0  0  0  0  0  0  0  0
   59.9401   34.7537   44.1160 H   0  0  0  0  0  0  0  0  0  0  0  0
   57.4827   34.4248   43.6611 H   0  0  0  0  0  0  0  0  0  0  0  0
   55.9704   33.5844   45.4721 H   0  0  0  0  0  0  0  0  0  0  0  0
   56.8933   33.0829   47.7628 H   0  0  0  0  0  0  0  0  0  0  0  0
  1  2  1  0
  2  3  1  0
  3  4  1  0
  4  5  1  0
  5  6  1  0
  6  7  1  0
  7  8  1  0
  8  9  2  0
  9 10  1  0
 10 11  2  0
 11 12  1  0
 12 13  2  0
 13 14  1  0
 14 15  2  0
  9 16  1  0
 16 17  1  0
 17 18  2  0
 18 19  1  0
 19 20  2  0
 20 21  1  0
 21 22  2  0
 22  8  1  0
 15 10  1  0
 22 17  1  0
  1 23  1  0
  1 24  1  0
  1 25  1  0
  2 26  1  0
  2 27  1  0
  3 28  1  0
  3 29  1  0
  4 30  1  0
  4 31  1  0
  5 32  1  0
  5 33  1  0
  6 34  1  0
  6 35  1  0
  7 36  1  0
  7 37  1  0
 11 38  1  0
 12 39  1  0
 13 40  1  0
 14 41  1  0
 15 42  1  0
 16 43  1  0
 18 44  1  0
 19 45  1  0
 20 46  1  0
 21 47  1  0
M  CHG  1   5   1
M  END
>  <UniqueID>  (37) 
34

>  <SMILES>  (37) 
CCCC[NH2+]CCc1c(-c2ccccc2)[nH]c2ccccc12

>  <Energy>  (37) 
80.48675729152166

>  <Genealogy>  (37) 
CCCC[NH2+]CCc1c(-c2ccccc2)[nH]c2ccccc12 (protonated)
CCCC[NH2+]CCc1c(-c2ccccc2)[nH]c2ccccc12 (3D coordinates assigned)
CCCC[NH2+]CCc1c(-c2ccccc2)[nH]c2ccccc12 (optimized conformer: 80.48675729152166 kcal/mol)

>  <smiles>  (37) 
CCCCNCCc1c(-c2ccccc2)[nH]c2ccccc12

>  <score_type>  (37) 
oracle

>  <origin>  (37) 
adg

>  <m_score__min__energy>  (37) 
-5.7800000000000002

>  <m_primary>  (37) 
energy

$$$$
37:0
     RDKit          3D

 40 41  0  0  0  0  0  0  0  0999 V2000
   55.1470   29.5590   44.8470 O   0  0  0  0  0  0  0  0  0  0  0  0
   55.7020   29.7240   43.5700 C   0  0  0  0  0  0  0  0  0  0  0  0
   56.7450   30.8520   43.5600 C   0  0  0  0  0  0  0  0  0  0  0  0
   57.0250   31.4310   44.8920 N   0  0  0  0  0  0  0  0  0  0  0  0
   57.2420   32.8860   44.9620 C   0  0  0  0  0  0  0  0  0  0  0  0
   58.7280   33.2490   45.0760 C   0  0  0  0  0  0  0  0  0  0  0  0
   59.3870   32.5350   46.1820 N   0  0  0  0  0  0  0  0  0  0  0  0
   58.9560   33.0090   47.5170 C   0  0  0  0  0  0  0  0  0  0  0  0
   59.1420   34.5200   47.6300 C   0  0  0  0  0  0  0  0  0  0  0  0
   60.4580   34.8670   47.2060 O   0  0  0  0  0  0  0  0  0  0  0  0
   61.6240   34.2000   47.6110 C   0  0  0  0  0  0  0  0  0  0  0  0
   62.5620   33.6910   46.6910 C   0  0  0  0  0  0  0  0  0  0  0  0
   63.7100   33.0320   47.1480 C   0  0  0  0  0  0  0  0  0  0  0  0
   63.9290   32.8780   48.5190 C   0  0  0  0  0  0  0  0  0  0  0  0
   63.0030   33.3800   49.4360 C   0  0  0  0  0  0  0  0  0  0  0  0
   61.8550   34.0390   48.9830 C   0  0  0  0  0  0  0  0  0  0  0  0
   59.2650   31.0750   46.0040 C   0  0  0  0  0  0  0  0  0  0  0  0
   57.8090   30.6010   45.8300 C   0  0  0  0  0  0  0  0  0  0  0  0
   55.1400   30.4550   45.2730 H   0  0  0  0  0  0  0  0  0  0  0  0
   56.1863   28.7846   43.2649 H   0  0  0  0  0  0  0  0  0  0  0  0
   54.8952   29.9889   42.8707 H   0  0  0  0  0  0  0  0  0  0  0  0
   57.6848   30.4492   43.1545 H   0  0  0  0  0  0  0  0  0  0  0  0
   56.3279   31.6626   42.9444 H   0  0  0  0  0  0  0  0  0  0  0  0
   56.8339   33.3486   44.0513 H   0  0  0  0  0  0  0  0  0  0  0  0
   56.7348   33.2585   45.8642 H   0  0  0  0  0  0  0  0  0  0  0  0
   59.2311   32.9860   44.1338 H   0  0  0  0  0  0  0  0  0  0  0  0
   58.7996   34.3280   45.2777 H   0  0  0  0  0  0  0  0  0  0  0  0
   57.8941   32.7624   47.6639 H   0  0  0  0  0  0  0  0  0  0  0  0
   59.5682   32.5153   48.2861 H   0  0  0  0  0  0  0  0  0  0  0  0
   58.4045   35.0295   46.9924 H   0  0  0  0  0  0  0  0  0  0  0  0
   58.9982   34.8312   48.6752 H   0  0  0  0  0  0  0  0  0  0  0  0
   62.3921   33.8116   45.6109 H   0  0  0  0  0  0  0  0  0  0  0  0
   64.4398   32.6353   46.4269 H   0  0  0  0  0  0  0  0  0  0  0  0
   64.8316   32.3609   48.8766 H   0  0  0  0  0  0  0  0  0  0  0  0
   63.1764   33.2572   50.5153 H   0  0  0  0  0  0  0  0  0  0  0  0
   61.1290   34.4333   49.7092 H   0  0  0  0  0  0  0  0  0  0  0  0
   59.8361   30.7834   45.1102 H   0  0  0  0  0  0  0  0  0  0  0  0
   59.6543   30.6020   46.9177 H   0  0  0  0  0  0  0  0  0  0  0  0
   57.8223   29.5679   45.4526 H   0  0  0  0  0  0  0  0  0  0  0  0
   57.3240   30.6805   46.8141 H   0  0  0  0  0  0  0  0  0  0  0  0
  1  2  1  0
  2  3  1  0
  3  4  1  0
  4  5  1  0
  5  6  1  0
  6  7  1  0
  7  8  1  0
  8  9  1  0
  9 10  1  0
 10 11  1  0
 11 12  2  0
 12 13  1  0
 13 14  2  0
 14 15  1  0
 15 16  2  0
  7 17  1  0
 17 18  1  0
 18  4  1  0
 16 11  1  0
  1 19  1  0
  2 20  1  0
  2 21  1  0
  3 22  1  0
  3 23  1  0
  5 24  1  0
  5 25  1  0
  6 26  1  0
  6 27  1  0
  8 28  1  0
  8 29  1  0
  9 30  1  0
  9 31  1  0
 12 32  1  0
 13 33  1  0
 14 34  1  0
 15 35  1  0
 16 36  1  0
 17 37  1  0
 17 38  1  0
 18 39  1  0
 18 40  1  0
M  END
>  <UniqueID>  (38) 
35

>  <SMILES>  (38) 
OCCN1CCN(CCOc2ccccc2)CC1

>  <Energy>  (38) 
51.18417590601329

>  <Genealogy>  (38) 
OCCN1CCN(CCOc2ccccc2)CC1 (3D coordinates assigned)
OCCN1CCN(CCOc2ccccc2)CC1 (nonaromatic ring conformer: 51.18417590601329 kcal/mol)

>  <smiles>  (38) 
OCCN1CCN(CCOc2ccccc2)CC1

>  <score_type>  (38) 
oracle

>  <origin>  (38) 
adg

>  <m_score__min__energy>  (38) 
-6.8499999999999996

>  <m_primary>  (38) 
energy

$$$$
38:0
     RDKit          3D

 37 38  0  0  0  0  0  0  0  0999 V2000
   57.4130   26.3000   44.8860 C   0  0  0  0  0  0  0  0  0  0  0  0
   56.8230   27.2850   45.8870 C   0  0  0  0  0  0  0  0  0  0  0  0
   55.8980   28.1620   45.2480 O   0  0  0  0  0  0  0  0  0  0  0  0
   56.2680   29.3660   44.6380 C   0  0  0  0  0  0  0  0  0  0  0  0
   55.4360   30.3040   44.5020 O   0  0  0  0  0  0  0  0  0  0  0  0
   57.6620   29.5260   44.1160 C   0  0  0  0  0  0  0  0  0  0  0  0
   58.6070   30.1270   45.1730 C   0  0  1  0  0  0  0  0  0  0  0  0
   59.9470   29.7830   44.8520 O   0  0  0  0  0  0  0  0  0  0  0  0
   60.3090   28.5160   45.3720 C   0  0  0  0  0  0  0  0  0  0  0  0
   59.9950   28.4450   46.8640 C   0  0  0  0  0  0  0  0  0  0  0  0
   58.4940   31.6380   45.1840 C   0  0  0  0  0  0  0  0  0  0  0  0
   57.7470   32.3330   44.2270 C   0  0  0  0  0  0  0  0  0  0  0  0
   57.7790   33.9830   44.5760 S   0  0  0  0  0  0  0  0  0  0  0  0
   58.7330   33.8340   45.9450 C   0  0  0  0  0  0  0  0  0  0  0  0
   59.1660   34.8490   46.7950 C   0  0  0  0  0  0  0  0  0  0  0  0
   59.9470   34.4990   47.9040 C   0  0  0  0  0  0  0  0  0  0  0  0
   60.2740   33.1520   48.1440 C   0  0  0  0  0  0  0  0  0  0  0  0
   59.8250   32.1430   47.2760 C   0  0  0  0  0  0  0  0  0  0  0  0
   59.0450   32.4970   46.1620 C   0  0  0  0  0  0  0  0  0  0  0  0
   57.9052   25.4782   45.4268 H   0  0  0  0  0  0  0  0  0  0  0  0
   56.6094   25.8937   44.2542 H   0  0  0  0  0  0  0  0  0  0  0  0
   58.1504   26.8167   44.2542 H   0  0  0  0  0  0  0  0  0  0  0  0
   56.3025   26.7264   46.6789 H   0  0  0  0  0  0  0  0  0  0  0  0
   57.6396   27.8846   46.3154 H   0  0  0  0  0  0  0  0  0  0  0  0
   58.0450   28.5391   43.8170 H   0  0  0  0  0  0  0  0  0  0  0  0
   57.6276   30.2150   43.2592 H   0  0  0  0  0  0  0  0  0  0  0  0
   58.3286   29.7293   46.1601 H   0  0  0  0  0  0  0  0  0  0  0  0
   59.7443   27.7329   44.8449 H   0  0  0  0  0  0  0  0  0  0  0  0
   61.3889   28.3654   45.2266 H   0  0  0  0  0  0  0  0  0  0  0  0
   60.9084   28.6515   47.4412 H   0  0  0  0  0  0  0  0  0  0  0  0
   59.2271   29.1922   47.1130 H   0  0  0  0  0  0  0  0  0  0  0  0
   59.6233   27.4401   47.1130 H   0  0  0  0  0  0  0  0  0  0  0  0
   57.2198   31.8741   43.3776 H   0  0  0  0  0  0  0  0  0  0  0  0
   58.9014   35.8988   46.6003 H   0  0  0  0  0  0  0  0  0  0  0  0
   60.3060   35.2805   48.5898 H   0  0  0  0  0  0  0  0  0  0  0  0
   60.8863   32.8867   49.0185 H   0  0  0  0  0  0  0  0  0  0  0  0
   60.0805   31.0900   47.4657 H   0  0  0  0  0  0  0  0  0  0  0  0
  1  2  1  0
  2  3  1  0
  3  4  1  0
  4  5  2  0
  4  6  1  0
  6  7  1  0
  7  8  1  0
  8  9  1  0
  9 10  1  0
  7 11  1  0
 11 12  2  0
 12 13  1  0
 13 14  1  0
 14 15  2  0
 15 16  1  0
 16 17  2  0
 17 18  1  0
 18 19  2  0
 19 11  1  0
 19 14  1  0
  1 20  1  0
  1 21  1  0
  1 22  1  0
  2 23  1  0
  2 24  1  0
  6 25  1  0
  6 26  1  0
  7 27  1  1
  9 28  1  0
  9 29  1  0
 10 30  1  0
 10 31  1  0
 10 32  1  0
 12 33  1  0
 15 34  1  0
 16 35  1  0
 17 36  1  0
 18 37  1  0
M  END
>  <UniqueID>  (39) 
36

>  <SMILES>  (39) 
CCOC(=O)C[C@@H](OCC)c1csc2ccccc12

>  <Energy>  (39) 
59.714455931750706

>  <Genealogy>  (39) 
CCOC(=O)C[C@@H](OCC)c1csc2ccccc12 (chirality)
CCOC(=O)C[C@@H](OCC)c1csc2ccccc12 (3D coordinates assigned)
CCOC(=O)C[C@@H](OCC)c1csc2ccccc12 (optimized conformer: 59.714455931750706 kcal/mol)

>  <smiles>  (39) 
CCOC(=O)CC(OCC)c1csc2ccccc12

>  <score_type>  (39) 
oracle

>  <origin>  (39) 
adg

>  <m_score__min__energy>  (39) 
-6.9199999999999999

>  <m_primary>  (39) 
energy

$$$$
39:0
     RDKit          3D

 41 42  0  0  0  0  0  0  0  0999 V2000
   57.1035   30.9718   42.4426 H   0  0  0  0  0  0  0  0  0  0  0  0
   57.4550   31.3930   43.3960 C   0  0  0  0  0  0  0  0  0  0  0  0
   57.5450   30.5100   44.5750 C   0  0  0  0  0  0  0  0  0  0  0  0
   56.5090   29.9660   45.0470 O   0  0  0  0  0  0  0  0  0  0  0  0
   58.8200   30.2750   45.1860 N   0  0  0  0  0  0  0  0  0  0  0  0
   59.6530   30.8100   44.8480 H   0  0  0  0  0  0  0  0  0  0  0  0
   59.0090   29.3270   46.2830 C   0  0  0  0  0  0  0  0  0  0  0  0
   59.0926   28.3110   45.8698 H   0  0  0  0  0  0  0  0  0  0  0  0
   58.1450   29.3983   46.9600 H   0  0  0  0  0  0  0  0  0  0  0  0
   60.2800   29.6510   47.0780 C   0  0  0  0  0  0  0  0  0  0  0  0
   61.1179   29.7794   46.3770 H   0  0  0  0  0  0  0  0  0  0  0  0
   60.4762   28.8203   47.7718 H   0  0  0  0  0  0  0  0  0  0  0  0
   60.1200   30.8850   47.8650 N   0  0  0  0  0  0  0  0  0  0  0  0
   61.1800   31.8650   47.9250 C   0  0  0  0  0  0  0  0  0  0  0  0
   61.0710   32.9900   48.7630 C   0  0  0  0  0  0  0  0  0  0  0  0
   60.1750   33.1217   49.3874 H   0  0  0  0  0  0  0  0  0  0  0  0
   62.0940   33.9410   48.8070 C   0  0  0  0  0  0  0  0  0  0  0  0
   62.0009   34.8169   49.4659 H   0  0  0  0  0  0  0  0  0  0  0  0
   63.2350   33.7820   48.0160 C   0  0  0  0  0  0  0  0  0  0  0  0
   64.0380   34.5329   48.0510 H   0  0  0  0  0  0  0  0  0  0  0  0
   63.3550   32.6690   47.1810 C   0  0  0  0  0  0  0  0  0  0  0  0
   64.2537   32.5435   46.5592 H   0  0  0  0  0  0  0  0  0  0  0  0
   62.3350   31.7140   47.1340 C   0  0  0  0  0  0  0  0  0  0  0  0
   62.4354   30.8391   46.4749 H   0  0  0  0  0  0  0  0  0  0  0  0
   58.9360   31.0340   48.7170 C   0  0  0  0  0  0  0  0  0  0  0  0
   59.2378   30.9960   49.7741 H   0  0  0  0  0  0  0  0  0  0  0  0
   58.4531   32.0000   48.5080 H   0  0  0  0  0  0  0  0  0  0  0  0
   58.2288   30.2178   48.5080 H   0  0  0  0  0  0  0  0  0  0  0  0
   57.7870   32.6910   43.4470 C   0  0  0  0  0  0  0  0  0  0  0  0
   57.7590   33.2707   42.5125 H   0  0  0  0  0  0  0  0  0  0  0  0
   58.1900   33.3900   44.6920 C   0  0  0  0  0  0  0  0  0  0  0  0
   57.4200   33.1950   45.8520 C   0  0  0  0  0  0  0  0  0  0  0  0
   56.5364   32.5407   45.8165 H   0  0  0  0  0  0  0  0  0  0  0  0
   57.7680   33.8260   47.0510 C   0  0  0  0  0  0  0  0  0  0  0  0
   57.1548   33.6715   47.9510 H   0  0  0  0  0  0  0  0  0  0  0  0
   58.8930   34.6520   47.1070 C   0  0  0  0  0  0  0  0  0  0  0  0
   59.1626   35.1522   48.0489 H   0  0  0  0  0  0  0  0  0  0  0  0
   59.6750   34.8420   45.9660 C   0  0  0  0  0  0  0  0  0  0  0  0
   60.5641   35.4881   46.0122 H   0  0  0  0  0  0  0  0  0  0  0  0
   59.3320   34.2140   44.7650 C   0  0  0  0  0  0  0  0  0  0  0  0
   59.9565   34.3635   43.8719 H   0  0  0  0  0  0  0  0  0  0  0  0
  1  2  1  0
  2  3  1  0
  3  4  2  0
  3  5  1  0
  5  6  1  0
  5  7  1  0
  7  8  1  0
  7  9  1  0
  7 10  1  0
 10 11  1  0
 10 12  1  0
 10 13  1  0
 13 14  1  0
 14 15  2  0
 15 16  1  0
 15 17  1  0
 17 18  1  0
 17 19  2  0
 19 20  1  0
 19 21  1  0
 21 22  1  0
 21 23  2  0
 23 24  1  0
 13 25  1  0
 25 26  1  0
 25 27  1  0
 25 28  1  0
  2 29  2  0
 29 30  1  0
 29 31  1  0
 31 32  2  0
 32 33  1  0
 32 34  1  0
 34 35  1  0
 34 36  2  0
 36 37  1  0
 36 38  1  0
 38 39  1  0
 38 40  2  0
 40 41  1  0
 23 14  1  0
 40 31  1  0
M  END
>  <UniqueID>  (40) 
37

>  <SMILES>  (40) 
CN(CCNC(=O)/C=C/c1ccccc1)c1ccccc1

>  <Energy>  (40) 
39.920731219002924

>  <Genealogy>  (40) 
CN(CCNC(=O)/C=C/c1ccccc1)c1ccccc1 (cis-trans isomerization)
CN(CCNC(=O)/C=C/c1ccccc1)c1ccccc1 (3D coordinates assigned)
CN(CCNC(=O)/C=C/c1ccccc1)c1ccccc1 (optimized conformer: 39.920731219002924 kcal/mol)

>  <smiles>  (40) 
CN(CCNC(=O)C=Cc1ccccc1)c1ccccc1

>  <score_type>  (40) 
oracle

>  <origin>  (40) 
adg

>  <m_score__min__energy>  (40) 
-7.0199999999999996

>  <m_primary>  (40) 
energy

$$$$
40:0
     RDKit          3D

 52 56  0  0  0  0  0  0  0  0999 V2000
   58.6230   34.5660   44.9650 C   0  0  0  0  0  0  0  0  0  0  0  0
   57.9070   34.1930   46.1380 O   0  0  0  0  0  0  0  0  0  0  0  0
   58.5100   33.8350   47.3530 C   0  0  0  0  0  0  0  0  0  0  0  0
   59.5180   34.6610   47.8630 C   0  0  0  0  0  0  0  0  0  0  0  0
   60.1540   34.3430   49.0660 C   0  0  0  0  0  0  0  0  0  0  0  0
   59.7940   33.1890   49.7660 C   0  0  0  0  0  0  0  0  0  0  0  0
   58.7970   32.3390   49.2630 C   0  0  0  0  0  0  0  0  0  0  0  0
   58.4680   31.0490   49.9680 C   0  0  0  0  0  0  0  0  0  0  0  0
   59.6710   30.2240   50.1680 N   0  0  0  0  0  0  0  0  0  0  0  0
   59.7480   29.0930   49.2250 C   0  0  0  0  0  0  0  0  0  0  0  0
   59.4710   29.5580   47.8080 C   0  0  0  0  0  0  0  0  0  0  0  0
   58.3710   29.0070   47.1320 C   0  0  0  0  0  0  0  0  0  0  0  0
   57.9610   29.5270   45.9040 C   0  0  0  0  0  0  0  0  0  0  0  0
   56.8310   29.0190   45.2450 C   0  0  0  0  0  0  0  0  0  0  0  0
   56.4140   29.5820   44.0350 C   0  0  0  0  0  0  0  0  0  0  0  0
   57.1240   30.6480   43.4750 C   0  0  0  0  0  0  0  0  0  0  0  0
   58.2550   31.1540   44.1220 C   0  0  0  0  0  0  0  0  0  0  0  0
   58.6810   30.6000   45.3400 C   0  0  0  0  0  0  0  0  0  0  0  0
   59.7840   31.0860   45.9750 N   0  0  0  0  0  0  0  0  0  0  0  0
   60.2180   30.5800   47.1670 C   0  0  0  0  0  0  0  0  0  0  0  0
   61.4570   31.1340   47.7470 C   0  0  0  0  0  0  0  0  0  0  0  0
   61.9660   30.7060   48.9290 N   0  0  0  0  0  0  0  0  0  0  0  0
   63.0540   31.4350   49.2870 C   0  0  0  0  0  0  0  0  0  0  0  0
   63.8020   31.2200   50.4460 C   0  0  0  0  0  0  0  0  0  0  0  0
   64.9050   32.0520   50.7010 C   0  0  0  0  0  0  0  0  0  0  0  0
   65.2440   33.0840   49.8030 C   0  0  0  0  0  0  0  0  0  0  0  0
   64.4830   33.2930   48.6420 C   0  0  0  0  0  0  0  0  0  0  0  0
   63.3960   32.4520   48.4100 C   0  0  0  0  0  0  0  0  0  0  0  0
   62.3110   32.4670   47.1330 S   0  0  0  0  0  0  0  0  0  0  0  0
   58.1430   32.6760   48.0650 C   0  0  0  0  0  0  0  0  0  0  0  0
   59.5650   35.0567   45.2509 H   0  0  0  0  0  0  0  0  0  0  0  0
   58.8435   33.6682   44.3690 H   0  0  0  0  0  0  0  0  0  0  0  0
   58.0136   35.2612   44.3690 H   0  0  0  0  0  0  0  0  0  0  0  0
   59.8118   35.5671   47.3129 H   0  0  0  0  0  0  0  0  0  0  0  0
   60.9398   35.0028   49.4626 H   0  0  0  0  0  0  0  0  0  0  0  0
   60.2939   32.9456   50.7151 H   0  0  0  0  0  0  0  0  0  0  0  0
   58.0252   31.2797   50.9482 H   0  0  0  0  0  0  0  0  0  0  0  0
   57.7606   30.4838   49.3434 H   0  0  0  0  0  0  0  0  0  0  0  0
   60.4980   30.8410   49.9880 H   0  0  0  0  0  0  0  0  0  0  0  0
   60.7550   28.6527   49.2704 H   0  0  0  0  0  0  0  0  0  0  0  0
   58.9920   28.3452   49.5065 H   0  0  0  0  0  0  0  0  0  0  0  0
   57.8280   28.1586   47.5740 H   0  0  0  0  0  0  0  0  0  0  0  0
   56.2729   28.1772   45.6807 H   0  0  0  0  0  0  0  0  0  0  0  0
   55.5252   29.1852   43.5226 H   0  0  0  0  0  0  0  0  0  0  0  0
   56.7921   31.0893   42.5236 H   0  0  0  0  0  0  0  0  0  0  0  0
   58.8137   31.9896   43.6752 H   0  0  0  0  0  0  0  0  0  0  0  0
   60.3260   31.8610   45.5270 H   0  0  0  0  0  0  0  0  0  0  0  0
   63.5331   30.4150   51.1458 H   0  0  0  0  0  0  0  0  0  0  0  0
   65.5081   31.8969   51.6077 H   0  0  0  0  0  0  0  0  0  0  0  0
   66.1097   33.7293   50.0130 H   0  0  0  0  0  0  0  0  0  0  0  0
   64.7372   34.0972   47.9358 H   0  0  0  0  0  0  0  0  0  0  0  0
   57.3394   32.0305   47.6810 H   0  0  0  0  0  0  0  0  0  0  0  0
  1  2  1  0
  2  3  1  0
  3  4  2  0
  4  5  1  0
  5  6  2  0
  6  7  1  0
  7  8  1  0
  8  9  1  0
  9 10  1  0
 10 11  1  0
 11 12  2  0
 12 13  1  0
 13 14  2  0
 14 15  1  0
 15 16  2  0
 16 17  1  0
 17 18  2  0
 18 19  1  0
 19 20  2  0
 20 21  1  0
 21 22  2  0
 22 23  1  0
 23 24  2  0
 24 25  1  0
 25 26  2  0
 26 27  1  0
 27 28  2  0
 28 29  1  0
  7 30  2  0
 30  3  1  0
 20 11  1  0
 29 21  1  0
 18 13  1  0
 28 23  1  0
  1 31  1  0
  1 32  1  0
  1 33  1  0
  4 34  1  0
  5 35  1  0
  6 36  1  0
  8 37  1  0
  8 38  1  0
  9 39  1  0
 10 40  1  0
 10 41  1  0
 12 42  1  0
 14 43  1  0
 15 44  1  0
 16 45  1  0
 17 46  1  0
 19 47  1  0
 24 48  1  0
 25 49  1  0
 26 50  1  0
 27 51  1  0
 30 52  1  0
M  CHG  1  19   1
M  END
>  <UniqueID>  (41) 
38

>  <SMILES>  (41) 
COc1cccc(CNCc2cc3ccccc3[nH+]c2-c2nc3ccccc3s2)c1

>  <Energy>  (41) 
96.67035717712216

>  <Genealogy>  (41) 
COc1cccc(CNCc2cc3ccccc3[nH+]c2-c2nc3ccccc3s2)c1 (protonated)
COc1cccc(CNCc2cc3ccccc3[nH+]c2-c2nc3ccccc3s2)c1 (3D coordinates assigned)
COc1cccc(CNCc2cc3ccccc3[nH+]c2-c2nc3ccccc3s2)c1 (optimized conformer: 96.67035717712216 kcal/mol)

>  <smiles>  (41) 
COc1cccc(CNCc2cc3ccccc3nc2-c2nc3ccccc3s2)c1

>  <score_type>  (41) 
oracle

>  <origin>  (41) 
adg

>  <m_score__min__energy>  (41) 
-7.5

>  <m_primary>  (41) 
energy

$$$$
41:0
     RDKit          3D

 60 64  0  0  0  0  0  0  0  0999 V2000
   54.7390   29.9860   52.3870 C   0  0  0  0  0  0  0  0  0  0  0  0
   56.1220   29.7120   52.1830 O   0  0  0  0  0  0  0  0  0  0  0  0
   57.1500   30.6460   52.3740 C   0  0  0  0  0  0  0  0  0  0  0  0
   56.9390   32.0340   52.2710 C   0  0  0  0  0  0  0  0  0  0  0  0
   57.9990   32.9250   52.4700 C   0  0  0  0  0  0  0  0  0  0  0  0
   59.2800   32.4450   52.7810 C   0  0  0  0  0  0  0  0  0  0  0  0
   60.4250   33.4080   52.9620 C   0  0  0  0  0  0  0  0  0  0  0  0
   61.3320   33.3500   51.8090 N   0  0  0  0  0  0  0  0  0  0  0  0
   62.7820   33.3770   52.0390 C   0  0  0  0  0  0  0  0  0  0  0  0
   63.5340   32.6220   50.9440 C   0  0  0  0  0  0  0  0  0  0  0  0
   63.1690   33.1820   49.5700 C   0  0  0  0  0  0  0  0  0  0  0  0
   61.6550   33.0960   49.2730 C   0  0  1  0  0  0  0  0  0  0  0  0
   61.2880   34.2090   47.8360 S   0  0  0  0  0  0  0  0  0  0  0  0
   60.8900   32.8380   46.6690 C   0  0  2  0  0  0  0  0  0  0  0  0
   59.5390   33.0610   46.0300 C   0  0  0  0  0  0  0  0  0  0  0  0
   59.0970   34.3570   45.7090 C   0  0  0  0  0  0  0  0  0  0  0  0
   57.8470   34.5500   45.1190 C   0  0  0  0  0  0  0  0  0  0  0  0
   57.0240   33.4560   44.8410 C   0  0  0  0  0  0  0  0  0  0  0  0
   57.4500   32.1520   45.1550 C   0  0  0  0  0  0  0  0  0  0  0  0
   56.6620   31.0200   44.8960 O   0  0  0  0  0  0  0  0  0  0  0  0
   57.1680   29.7850   44.4030 C   0  0  0  0  0  0  0  0  0  0  0  0
   58.7060   31.9650   45.7470 C   0  0  0  0  0  0  0  0  0  0  0  0
   60.9140   31.6150   47.4980 C   0  0  0  0  0  0  0  0  0  0  0  0
   61.2710   31.7390   48.7920 C   0  0  0  0  0  0  0  0  0  0  0  0
   61.0380   30.5120   49.3900 C   0  0  0  0  0  0  0  0  0  0  0  0
   61.1680   30.2260   50.7440 O   0  0  0  0  0  0  0  0  0  0  0  0
   60.5940   29.6290   48.4660 N   0  0  0  0  0  0  0  0  0  0  0  0
   60.1310   28.2680   48.7140 C   0  0  0  0  0  0  0  0  0  0  0  0
   60.4920   30.3160   47.3060 C   0  0  0  0  0  0  0  0  0  0  0  0
   59.9870   29.7940   46.1210 O   0  0  0  0  0  0  0  0  0  0  0  0
   60.8130   33.4810   50.4680 C   0  0  0  0  0  0  0  0  0  0  0  0
   59.6120   33.8230   50.2890 O   0  0  0  0  0  0  0  0  0  0  0  0
   59.4900   31.0620   52.8800 C   0  0  0  0  0  0  0  0  0  0  0  0
   58.4310   30.1720   52.6810 C   0  0  0  0  0  0  0  0  0  0  0  0
   54.5287   30.0277   53.4659 H   0  0  0  0  0  0  0  0  0  0  0  0
   54.4847   30.9520   51.9263 H   0  0  0  0  0  0  0  0  0  0  0  0
   54.1356   29.1899   51.9263 H   0  0  0  0  0  0  0  0  0  0  0  0
   55.9366   32.4195   52.0331 H   0  0  0  0  0  0  0  0  0  0  0  0
   57.8271   34.0079   52.3821 H   0  0  0  0  0  0  0  0  0  0  0  0
   60.0275   34.4291   53.0590 H   0  0  0  0  0  0  0  0  0  0  0  0
   60.9833   33.1310   53.8684 H   0  0  0  0  0  0  0  0  0  0  0  0
   63.1230   34.4227   52.0516 H   0  0  0  0  0  0  0  0  0  0  0  0
   62.9891   32.8874   53.0020 H   0  0  0  0  0  0  0  0  0  0  0  0
   64.6166   32.7317   51.1050 H   0  0  0  0  0  0  0  0  0  0  0  0
   63.2538   31.5590   50.9840 H   0  0  0  0  0  0  0  0  0  0  0  0
   63.4764   34.2373   49.5273 H   0  0  0  0  0  0  0  0  0  0  0  0
   63.6903   32.5751   48.8151 H   0  0  0  0  0  0  0  0  0  0  0  0
   61.6052   32.7694   45.8360 H   0  0  0  0  0  0  0  0  0  0  0  0
   59.7400   35.2232   45.9241 H   0  0  0  0  0  0  0  0  0  0  0  0
   57.5087   35.5671   44.8720 H   0  0  0  0  0  0  0  0  0  0  0  0
   56.0401   33.6143   44.3753 H   0  0  0  0  0  0  0  0  0  0  0  0
   57.4346   29.1342   45.2488 H   0  0  0  0  0  0  0  0  0  0  0  0
   56.3992   29.2925   43.7895 H   0  0  0  0  0  0  0  0  0  0  0  0
   58.0614   29.9735   43.7895 H   0  0  0  0  0  0  0  0  0  0  0  0
   59.0443   30.9477   45.9934 H   0  0  0  0  0  0  0  0  0  0  0  0
   60.0714   28.0928   49.7983 H   0  0  0  0  0  0  0  0  0  0  0  0
   59.1359   28.1317   48.2653 H   0  0  0  0  0  0  0  0  0  0  0  0
   60.8365   27.5532   48.2653 H   0  0  0  0  0  0  0  0  0  0  0  0
   60.4928   30.6759   53.1154 H   0  0  0  0  0  0  0  0  0  0  0  0
   58.6056   29.0893   52.7664 H   0  0  0  0  0  0  0  0  0  0  0  0
  1  2  1  0
  2  3  1  0
  3  4  2  0
  4  5  1  0
  5  6  2  0
  6  7  1  0
  7  8  1  0
  8  9  1  0
  9 10  1  0
 10 11  1  0
 11 12  1  0
 12 13  1  6
 13 14  1  0
 14 15  1  0
 15 16  2  0
 16 17  1  0
 17 18  2  0
 18 19  1  0
 19 20  1  0
 20 21  1  0
 19 22  2  0
 14 23  1  0
 23 24  1  0
 24 25  2  0
 25 26  1  0
 25 27  1  0
 27 28  1  0
 27 29  1  0
 29 30  1  0
 12 31  1  0
 31 32  2  0
  6 33  1  0
 33 34  2  0
 34  3  1  0
 31  8  1  0
 24 12  1  0
 22 15  1  0
 29 23  2  0
  1 35  1  0
  1 36  1  0
  1 37  1  0
  4 38  1  0
  5 39  1  0
  7 40  1  0
  7 41  1  0
  9 42  1  0
  9 43  1  0
 10 44  1  0
 10 45  1  0
 11 46  1  0
 11 47  1  0
 14 48  1  6
 16 49  1  0
 17 50  1  0
 18 51  1  0
 21 52  1  0
 21 53  1  0
 21 54  1  0
 22 55  1  0
 28 56  1  0
 28 57  1  0
 28 58  1  0
 33 59  1  0
 34 60  1  0
M  CHG  2  26  -1  30  -1
M  END
>  <UniqueID>  (42) 
39

>  <SMILES>  (42) 
COc1ccc(CN2CCC[C@]3(S[C@H](c4cccc(OC)c4)c4c3c([O-])n(C)c4[O-])C2=O)cc1

>  <Energy>  (42) 
97.99174055460671

>  <Genealogy>  (42) 
COc1ccc(CN2CCCC3(SC(c4cccc(OC)c4)c4c3c([O-])n(C)c4[O-])C2=O)cc1 (protonated)
COc1ccc(CN2CCC[C@]3(S[C@H](c4cccc(OC)c4)c4c3c([O-])n(C)c4[O-])C2=O)cc1 (chirality)
COc1ccc(CN2CCC[C@]3(S[C@H](c4cccc(OC)c4)c4c3c([O-])n(C)c4[O-])C2=O)cc1 (3D coordinates assigned)
COc1ccc(CN2CCC[C@]3(S[C@H](c4cccc(OC)c4)c4c3c([O-])n(C)c4[O-])C2=O)cc1 (nonaromatic ring conformer: 97.99174055460671 kcal/mol)

>  <smiles>  (42) 
COc1ccc(CN2CCCC3(SC(c4cccc(OC)c4)c4c3c(O)n(C)c4O)C2=O)cc1

>  <score_type>  (42) 
oracle

>  <origin>  (42) 
adg

>  <m_score__min__energy>  (42) 
-9.9199999999999999

>  <m_primary>  (42) 
energy

$$$$
42:0
     RDKit          3D

 41 43  0  0  0  0  0  0  0  0999 V2000
   58.0820   21.5330   44.0360 C   0  0  0  0  0  0  0  0  0  0  0  0
   56.9860   21.2660   43.0100 C   0  0  0  0  0  0  0  0  0  0  0  0
   55.9520   22.2420   43.1140 O   0  0  0  0  0  0  0  0  0  0  0  0
   55.5750   22.8460   44.3210 C   0  0  0  0  0  0  0  0  0  0  0  0
   54.7870   22.2510   45.1070 O   0  0  0  0  0  0  0  0  0  0  0  0
   56.1100   24.1790   44.6740 C   0  0  0  0  0  0  0  0  0  0  0  0
   57.2520   24.6800   44.0250 C   0  0  0  0  0  0  0  0  0  0  0  0
   57.7610   25.9390   44.3570 C   0  0  0  0  0  0  0  0  0  0  0  0
   57.1470   26.7100   45.3580 C   0  0  0  0  0  0  0  0  0  0  0  0
   57.6340   28.0130   45.7070 N   0  0  0  0  0  0  0  0  0  0  0  0
   57.0050   29.2590   45.3800 C   0  0  0  0  0  0  0  0  0  0  0  0
   55.8160   29.2470   44.9680 O   0  0  0  0  0  0  0  0  0  0  0  0
   57.6900   30.5510   45.5740 C   0  0  0  0  0  0  0  0  0  0  0  0
   57.3800   31.7350   44.9080 C   0  0  0  0  0  0  0  0  0  0  0  0
   58.1720   32.8160   45.3160 C   0  0  0  0  0  0  0  0  0  0  0  0
   59.0590   32.4970   46.3350 C   0  0  0  0  0  0  0  0  0  0  0  0
   58.9150   30.8630   46.6960 S   0  0  0  0  0  0  0  0  0  0  0  0
   60.0730   33.4440   46.9000 C   0  0  0  0  0  0  0  0  0  0  0  0
   59.6860   34.9010   46.5960 C   0  0  0  0  0  0  0  0  0  0  0  0
   59.2600   35.0720   45.1260 C   0  0  0  0  0  0  0  0  0  0  0  0
   58.0210   34.2190   44.7980 C   0  0  0  0  0  0  0  0  0  0  0  0
   55.9960   26.2260   45.9880 C   0  0  0  0  0  0  0  0  0  0  0  0
   55.4840   24.9660   45.6560 C   0  0  0  0  0  0  0  0  0  0  0  0
   57.6676   21.4320   45.0499 H   0  0  0  0  0  0  0  0  0  0  0  0
   58.8971   20.8072   43.8991 H   0  0  0  0  0  0  0  0  0  0  0  0
   58.4720   22.5524   43.8991 H   0  0  0  0  0  0  0  0  0  0  0  0
   57.4194   21.3049   41.9997 H   0  0  0  0  0  0  0  0  0  0  0  0
   56.5557   20.2720   43.2017 H   0  0  0  0  0  0  0  0  0  0  0  0
   57.7486   24.0771   43.2505 H   0  0  0  0  0  0  0  0  0  0  0  0
   58.6461   26.3276   43.8321 H   0  0  0  0  0  0  0  0  0  0  0  0
   56.5949   31.8128   44.1415 H   0  0  0  0  0  0  0  0  0  0  0  0
   60.1286   33.3052   47.9898 H   0  0  0  0  0  0  0  0  0  0  0  0
   61.0488   33.2338   46.4378 H   0  0  0  0  0  0  0  0  0  0  0  0
   58.8493   35.1929   47.2478 H   0  0  0  0  0  0  0  0  0  0  0  0
   60.5633   35.5387   46.7796 H   0  0  0  0  0  0  0  0  0  0  0  0
   59.0246   36.1307   44.9423 H   0  0  0  0  0  0  0  0  0  0  0  0
   60.0892   34.7397   44.4841 H   0  0  0  0  0  0  0  0  0  0  0  0
   57.1360   34.6791   45.2619 H   0  0  0  0  0  0  0  0  0  0  0  0
   57.9086   34.1755   43.7046 H   0  0  0  0  0  0  0  0  0  0  0  0
   55.4901   26.8388   46.7487 H   0  0  0  0  0  0  0  0  0  0  0  0
   54.5857   24.5894   46.1671 H   0  0  0  0  0  0  0  0  0  0  0  0
  1  2  1  0
  2  3  1  0
  3  4  1  0
  4  5  2  0
  4  6  1  0
  6  7  2  0
  7  8  1  0
  8  9  2  0
  9 10  1  0
 10 11  1  0
 11 12  2  0
 11 13  1  0
 13 14  2  0
 14 15  1  0
 15 16  2  0
 16 17  1  0
 16 18  1  0
 18 19  1  0
 19 20  1  0
 20 21  1  0
  9 22  1  0
 22 23  2  0
 23  6  1  0
 17 13  1  0
 21 15  1  0
  1 24  1  0
  1 25  1  0
  1 26  1  0
  2 27  1  0
  2 28  1  0
  7 29  1  0
  8 30  1  0
 14 31  1  0
 18 32  1  0
 18 33  1  0
 19 34  1  0
 19 35  1  0
 20 36  1  0
 20 37  1  0
 21 38  1  0
 21 39  1  0
 22 40  1  0
 23 41  1  0
M  CHG  1  10  -1
M  END
>  <UniqueID>  (43) 
40

>  <SMILES>  (43) 
CCOC(=O)c1ccc([N-]C(=O)c2cc3c(s2)CCCC3)cc1

>  <Energy>  (43) 
68.44159900825345

>  <Genealogy>  (43) 
CCOC(=O)c1ccc([N-]C(=O)c2cc3c(s2)CCCC3)cc1 (protonated)
CCOC(=O)c1ccc([N-]C(=O)c2cc3c(s2)CCCC3)cc1 (3D coordinates assigned)
CCOC(=O)c1ccc([N-]C(=O)c2cc3c(s2)CCCC3)cc1 (nonaromatic ring conformer: 68.44159900825345 kcal/mol)

>  <smiles>  (43) 
CCOC(=O)c1ccc(NC(=O)c2cc3c(s2)CCCC3)cc1

>  <score_type>  (43) 
oracle

>  <origin>  (43) 
adg

>  <m_score__min__energy>  (43) 
-9.4299999999999997

>  <m_primary>  (43) 
energy

$$$$
43:0
     RDKit          3D

 44 45  0  0  0  0  0  0  0  0999 V2000
   58.0775   24.7271   46.8545 H   0  0  0  0  0  0  0  0  0  0  0  0
   58.1960   25.7490   46.4650 C   0  0  0  0  0  0  0  0  0  0  0  0
   59.4770   26.3070   46.3480 C   0  0  0  0  0  0  0  0  0  0  0  0
   60.3610   25.7230   46.6438 H   0  0  0  0  0  0  0  0  0  0  0  0
   59.6300   27.6090   45.8540 C   0  0  0  0  0  0  0  0  0  0  0  0
   60.6347   28.0470   45.7599 H   0  0  0  0  0  0  0  0  0  0  0  0
   58.4980   28.3570   45.4780 C   0  0  0  0  0  0  0  0  0  0  0  0
   58.6180   29.6600   44.9910 C   0  0  0  0  0  0  0  0  0  0  0  0
   59.6107   30.1234   44.8927 H   0  0  0  0  0  0  0  0  0  0  0  0
   57.4690   30.3750   44.6280 C   0  0  0  0  0  0  0  0  0  0  0  0
   57.5880   31.7580   44.1090 C   0  0  0  0  0  0  0  0  0  0  0  0
   57.3940   32.7530   44.9300 N   0  0  0  0  0  0  0  0  0  0  0  0
   57.8900   34.0080   44.6490 O   0  0  0  0  0  0  0  0  0  0  0  0
   59.2710   34.2990   44.8660 C   0  0  0  0  0  0  0  0  0  0  0  0
   59.6498   34.9148   44.0369 H   0  0  0  0  0  0  0  0  0  0  0  0
   59.8385   33.3580   44.9159 H   0  0  0  0  0  0  0  0  0  0  0  0
   59.4350   35.0580   46.1770 C   0  0  0  0  0  0  0  0  0  0  0  0
   58.4647   35.4804   46.4772 H   0  0  0  0  0  0  0  0  0  0  0  0
   60.1668   35.8672   46.0367 H   0  0  0  0  0  0  0  0  0  0  0  0
   59.9220   34.1380   47.2400 N   0  0  0  0  0  0  0  0  0  0  0  0
   60.9490   33.2110   46.7200 C   0  0  0  0  0  0  0  0  0  0  0  0
   60.7259   32.9855   45.6667 H   0  0  0  0  0  0  0  0  0  0  0  0
   60.9277   32.2963   47.3307 H   0  0  0  0  0  0  0  0  0  0  0  0
   62.3510   33.8150   46.8120 C   0  0  0  0  0  0  0  0  0  0  0  0
   62.6298   33.9351   47.8693 H   0  0  0  0  0  0  0  0  0  0  0  0
   63.0711   33.1473   46.3165 H   0  0  0  0  0  0  0  0  0  0  0  0
   62.3604   34.7970   46.3165 H   0  0  0  0  0  0  0  0  0  0  0  0
   58.8140   33.3750   47.8540 C   0  0  0  0  0  0  0  0  0  0  0  0
   58.7884   33.5872   48.9330 H   0  0  0  0  0  0  0  0  0  0  0  0
   57.8739   33.6827   47.3727 H   0  0  0  0  0  0  0  0  0  0  0  0
   58.9890   31.8760   47.6480 C   0  0  0  0  0  0  0  0  0  0  0  0
   59.0474   31.3758   48.6260 H   0  0  0  0  0  0  0  0  0  0  0  0
   58.1309   31.4807   47.0846 H   0  0  0  0  0  0  0  0  0  0  0  0
   59.9151   31.6890   47.0846 H   0  0  0  0  0  0  0  0  0  0  0  0
   57.7490   32.0040   42.6210 C   0  0  0  0  0  0  0  0  0  0  0  0
   58.3451   32.9148   42.4623 H   0  0  0  0  0  0  0  0  0  0  0  0
   58.2609   31.1460   42.1608 H   0  0  0  0  0  0  0  0  0  0  0  0
   56.7578   32.1296   42.1608 H   0  0  0  0  0  0  0  0  0  0  0  0
   56.2150   29.7420   44.7780 C   0  0  0  0  0  0  0  0  0  0  0  0
   55.1560   30.3510   44.4940 O   0  0  0  0  0  0  0  0  0  0  0  0
   56.1360   28.4980   45.2460 O   0  0  0  0  0  0  0  0  0  0  0  0
   57.2080   27.7930   45.5950 C   0  0  0  0  0  0  0  0  0  0  0  0
   57.0630   26.4890   46.0870 C   0  0  0  0  0  0  0  0  0  0  0  0
   56.0610   26.0442   46.1774 H   0  0  0  0  0  0  0  0  0  0  0  0
  1  2  1  0
  2  3  2  0
  3  4  1  0
  3  5  1  0
  5  6  1  0
  5  7  2  0
  7  8  1  0
  8  9  1  0
  8 10  2  0
 10 11  1  0
 11 12  2  0
 12 13  1  0
 13 14  1  0
 14 15  1  0
 14 16  1  0
 14 17  1  0
 17 18  1  0
 17 19  1  0
 17 20  1  0
 20 21  1  0
 21 22  1  0
 21 23  1  0
 21 24  1  0
 24 25  1  0
 24 26  1  0
 24 27  1  0
 20 28  1  0
 28 29  1  0
 28 30  1  0
 28 31  1  0
 31 32  1  0
 31 33  1  0
 31 34  1  0
 11 35  1  0
 35 36  1  0
 35 37  1  0
 35 38  1  0
 10 39  1  0
 39 40  2  0
 39 41  1  0
 41 42  1  0
 42 43  2  0
 43 44  1  0
 43  2  1  0
 42  7  1  0
M  END
>  <UniqueID>  (44) 
41

>  <SMILES>  (44) 
CCN(CC)CCO/N=C(\C)c1cc2ccccc2oc1=O

>  <Energy>  (44) 
54.80654434953995

>  <Genealogy>  (44) 
CCN(CC)CCO/N=C(\C)c1cc2ccccc2oc1=O (cis-trans isomerization)
CCN(CC)CCO/N=C(\C)c1cc2ccccc2oc1=O (3D coordinates assigned)
CCN(CC)CCO/N=C(\C)c1cc2ccccc2oc1=O (optimized conformer: 54.80654434953995 kcal/mol)

>  <smiles>  (44) 
CCN(CC)CCON=C(C)c1cc2ccccc2oc1=O

>  <score_type>  (44) 
oracle

>  <origin>  (44) 
adg

>  <m_score__min__energy>  (44) 
-7.2999999999999998

>  <m_primary>  (44) 
energy

$$$$
44:0
     RDKit          3D

 47 49  0  0  0  0  0  0  0  0999 V2000
   55.1280   25.0890   45.6330 C   0  0  0  0  0  0  0  0  0  0  0  0
   55.2700   26.4470   45.9920 O   0  0  0  0  0  0  0  0  0  0  0  0
   56.6000   26.8740   45.7670 C   0  0  0  0  0  0  0  0  0  0  0  0
   56.6170   28.2950   45.2950 C   0  0  0  0  0  0  0  0  0  0  0  0
   57.7150   29.1270   45.2750 C   0  0  0  0  0  0  0  0  0  0  0  0
   57.2050   30.3280   44.8320 C   0  0  0  0  0  0  0  0  0  0  0  0
   57.9690   31.6130   44.6870 C   0  0  0  0  0  0  0  0  0  0  0  0
   57.0860   32.7320   44.3180 N   0  0  0  0  0  0  0  0  0  0  0  0
   57.0430   33.7670   45.3630 C   0  0  0  0  0  0  0  0  0  0  0  0
   58.3370   33.7890   46.1350 C   0  0  0  0  0  0  0  0  0  0  0  0
   59.5120   34.2640   45.5330 C   0  0  0  0  0  0  0  0  0  0  0  0
   60.7200   34.2490   46.2360 C   0  0  0  0  0  0  0  0  0  0  0  0
   60.7740   33.7510   47.5500 C   0  0  0  0  0  0  0  0  0  0  0  0
   62.0200   33.7200   48.2740 N   0  0  0  0  0  0  0  0  0  0  0  0
   62.1540   34.4450   49.5420 C   0  0  0  0  0  0  0  0  0  0  0  0
   63.1870   33.7450   50.4290 C   0  0  0  0  0  0  0  0  0  0  0  0
   64.4040   33.5610   49.7310 O   0  0  0  0  0  0  0  0  0  0  0  0
   64.2050   32.6730   48.6470 C   0  0  0  0  0  0  0  0  0  0  0  0
   63.2530   33.2800   47.6120 C   0  0  0  0  0  0  0  0  0  0  0  0
   59.5990   33.2590   48.1420 C   0  0  0  0  0  0  0  0  0  0  0  0
   58.3910   33.2760   47.4390 C   0  0  0  0  0  0  0  0  0  0  0  0
   55.8800   30.2130   44.6180 N   0  0  0  0  0  0  0  0  0  0  0  0
   55.5210   28.9700   44.9020 N   0  0  0  0  0  0  0  0  0  0  0  0
   55.0637   24.4740   46.5428 H   0  0  0  0  0  0  0  0  0  0  0  0
   54.2116   24.9609   45.0383 H   0  0  0  0  0  0  0  0  0  0  0  0
   55.9981   24.7740   45.0383 H   0  0  0  0  0  0  0  0  0  0  0  0
   57.1696   26.7963   46.7048 H   0  0  0  0  0  0  0  0  0  0  0  0
   57.0551   26.2354   44.9956 H   0  0  0  0  0  0  0  0  0  0  0  0
   58.7536   28.8888   45.5482 H   0  0  0  0  0  0  0  0  0  0  0  0
   58.4594   31.8462   45.6436 H   0  0  0  0  0  0  0  0  0  0  0  0
   58.7110   31.4826   43.8855 H   0  0  0  0  0  0  0  0  0  0  0  0
   56.1200   32.3730   44.1280 H   0  0  0  0  0  0  0  0  0  0  0  0
   57.4570   33.1580   43.4350 H   0  0  0  0  0  0  0  0  0  0  0  0
   56.8842   34.7492   44.8939 H   0  0  0  0  0  0  0  0  0  0  0  0
   56.2186   33.5407   46.0552 H   0  0  0  0  0  0  0  0  0  0  0  0
   59.4824   34.6499   44.5033 H   0  0  0  0  0  0  0  0  0  0  0  0
   61.6348   34.6294   45.7581 H   0  0  0  0  0  0  0  0  0  0  0  0
   62.4825   35.4754   49.3413 H   0  0  0  0  0  0  0  0  0  0  0  0
   61.1822   34.4613   50.0572 H   0  0  0  0  0  0  0  0  0  0  0  0
   63.3724   34.3604   51.3217 H   0  0  0  0  0  0  0  0  0  0  0  0
   62.7937   32.7596   50.7192 H   0  0  0  0  0  0  0  0  0  0  0  0
   65.1735   32.4663   48.1681 H   0  0  0  0  0  0  0  0  0  0  0  0
   63.7605   31.7430   49.0311 H   0  0  0  0  0  0  0  0  0  0  0  0
   63.7375   34.1423   47.1306 H   0  0  0  0  0  0  0  0  0  0  0  0
   63.0089   32.5226   46.8525 H   0  0  0  0  0  0  0  0  0  0  0  0
   59.6297   32.8576   49.1657 H   0  0  0  0  0  0  0  0  0  0  0  0
   57.4777   32.8849   47.9112 H   0  0  0  0  0  0  0  0  0  0  0  0
  1  2  1  0
  2  3  1  0
  3  4  1  0
  4  5  2  0
  5  6  1  0
  6  7  1  0
  7  8  1  0
  8  9  1  0
  9 10  1  0
 10 11  2  0
 11 12  1  0
 12 13  2  0
 13 14  1  0
 14 15  1  0
 15 16  1  0
 16 17  1  0
 17 18  1  0
 18 19  1  0
 13 20  1  0
 20 21  2  0
  6 22  2  0
 22 23  1  0
 23  4  1  0
 21 10  1  0
 19 14  1  0
  1 24  1  0
  1 25  1  0
  1 26  1  0
  3 27  1  0
  3 28  1  0
  5 29  1  0
  7 30  1  0
  7 31  1  0
  8 32  1  0
  8 33  1  0
  9 34  1  0
  9 35  1  0
 11 36  1  0
 12 37  1  0
 15 38  1  0
 15 39  1  0
 16 40  1  0
 16 41  1  0
 18 42  1  0
 18 43  1  0
 19 44  1  0
 19 45  1  0
 20 46  1  0
 21 47  1  0
M  CHG  2   8   1  23  -1
M  END
>  <UniqueID>  (45) 
42

>  <SMILES>  (45) 
COCc1cc(C[NH2+]Cc2ccc(N3CCOCC3)cc2)n[n-]1

>  <Energy>  (45) 
81.2511355274581

>  <Genealogy>  (45) 
COCc1cc(C[NH2+]Cc2ccc(N3CCOCC3)cc2)n[n-]1 (protonated)
COCc1cc(C[NH2+]Cc2ccc(N3CCOCC3)cc2)n[n-]1 (3D coordinates assigned)
COCc1cc(C[NH2+]Cc2ccc(N3CCOCC3)cc2)n[n-]1 (nonaromatic ring conformer: 81.2511355274581 kcal/mol)

>  <smiles>  (45) 
COCc1cc(CNCc2ccc(N3CCOCC3)cc2)n[nH]1

>  <score_type>  (45) 
oracle

>  <origin>  (45) 
adg

>  <m_score__min__energy>  (45) 
-8.6899999999999995

>  <m_primary>  (45) 
energy

$$$$
45:0
     RDKit          3D

 39 40  0  0  0  0  0  0  0  0999 V2000
   60.6900   27.0790   49.6240 C   0  0  0  0  0  0  0  0  0  0  0  0
   60.2900   26.3720   48.4530 O   0  0  0  0  0  0  0  0  0  0  0  0
   59.6830   26.9690   47.3380 C   0  0  0  0  0  0  0  0  0  0  0  0
   60.1260   28.2330   46.9370 C   0  0  0  0  0  0  0  0  0  0  0  0
   59.5580   28.8710   45.8310 C   0  0  0  0  0  0  0  0  0  0  0  0
   58.5290   28.2490   45.1000 C   0  0  0  0  0  0  0  0  0  0  0  0
   57.9270   28.8730   43.9510 N   0  0  0  0  0  0  0  0  0  0  0  0
   56.7540   30.1520   44.0400 S   0  0  0  0  0  0  0  0  0  0  0  0
   56.2510   30.4540   42.6550 O   0  0  0  0  0  0  0  0  0  0  0  0
   55.6040   29.6940   44.8930 O   0  0  0  0  0  0  0  0  0  0  0  0
   57.4880   31.6140   44.7090 C   0  0  0  0  0  0  0  0  0  0  0  0
   57.8010   31.6620   46.0760 C   0  0  0  0  0  0  0  0  0  0  0  0
   58.3600   32.8200   46.6430 C   0  0  0  0  0  0  0  0  0  0  0  0
   58.6780   32.9140   48.0070 O   0  0  0  0  0  0  0  0  0  0  0  0
   59.6430   33.8110   48.5480 C   0  0  0  0  0  0  0  0  0  0  0  0
   58.6140   33.9250   45.8260 C   0  0  0  0  0  0  0  0  0  0  0  0
   58.3260   33.8790   44.4600 C   0  0  0  0  0  0  0  0  0  0  0  0
   57.7650   32.7220   43.8860 C   0  0  0  0  0  0  0  0  0  0  0  0
   57.4770   32.6440   42.5140 O   0  0  0  0  0  0  0  0  0  0  0  0
   58.4330   32.3460   41.5020 C   0  0  0  0  0  0  0  0  0  0  0  0
   58.0840   26.9800   45.5030 C   0  0  0  0  0  0  0  0  0  0  0  0
   58.6530   26.3430   46.6110 C   0  0  0  0  0  0  0  0  0  0  0  0
   60.3733   26.5192   50.5164 H   0  0  0  0  0  0  0  0  0  0  0  0
   61.7844   27.1895   49.6297 H   0  0  0  0  0  0  0  0  0  0  0  0
   60.2210   28.0740   49.6297 H   0  0  0  0  0  0  0  0  0  0  0  0
   60.9305   28.7308   47.4983 H   0  0  0  0  0  0  0  0  0  0  0  0
   59.9177   29.8660   45.5299 H   0  0  0  0  0  0  0  0  0  0  0  0
   58.2130   28.5620   42.9940 H   0  0  0  0  0  0  0  0  0  0  0  0
   57.6069   30.7844   46.7102 H   0  0  0  0  0  0  0  0  0  0  0  0
   59.6029   33.7737   49.6466 H   0  0  0  0  0  0  0  0  0  0  0  0
   60.6472   33.5182   48.2076 H   0  0  0  0  0  0  0  0  0  0  0  0
   59.4242   34.8339   48.2076 H   0  0  0  0  0  0  0  0  0  0  0  0
   59.0443   34.8385   46.2623 H   0  0  0  0  0  0  0  0  0  0  0  0
   58.5391   34.7535   43.8277 H   0  0  0  0  0  0  0  0  0  0  0  0
   59.3830   32.0499   41.9708 H   0  0  0  0  0  0  0  0  0  0  0  0
   58.0600   31.5215   40.8766 H   0  0  0  0  0  0  0  0  0  0  0  0
   58.5946   33.2364   40.8766 H   0  0  0  0  0  0  0  0  0  0  0  0
   57.2798   26.4815   44.9419 H   0  0  0  0  0  0  0  0  0  0  0  0
   58.2940   25.3488   46.9153 H   0  0  0  0  0  0  0  0  0  0  0  0
  1  2  1  0
  2  3  1  0
  3  4  2  0
  4  5  1  0
  5  6  2  0
  6  7  1  0
  7  8  1  0
  8  9  2  0
  8 10  2  0
  8 11  1  0
 11 12  2  0
 12 13  1  0
 13 14  1  0
 14 15  1  0
 13 16  2  0
 16 17  1  0
 17 18  2  0
 18 19  1  0
 19 20  1  0
  6 21  1  0
 21 22  2  0
 22  3  1  0
 18 11  1  0
  1 23  1  0
  1 24  1  0
  1 25  1  0
  4 26  1  0
  5 27  1  0
  7 28  1  0
 12 29  1  0
 15 30  1  0
 15 31  1  0
 15 32  1  0
 16 33  1  0
 17 34  1  0
 20 35  1  0
 20 36  1  0
 20 37  1  0
 21 38  1  0
 22 39  1  0
M  END
>  <UniqueID>  (46) 
43

>  <SMILES>  (46) 
COc1ccc(NS(=O)(=O)c2cc(OC)ccc2OC)cc1

>  <Energy>  (46) 
40.46461092530134

>  <Genealogy>  (46) 
COc1ccc(NS(=O)(=O)c2cc(OC)ccc2OC)cc1 (3D coordinates assigned)
COc1ccc(NS(=O)(=O)c2cc(OC)ccc2OC)cc1 (optimized conformer: 40.46461092530134 kcal/mol)

>  <smiles>  (46) 
COc1ccc(NS(=O)(=O)c2cc(OC)ccc2OC)cc1

>  <score_type>  (46) 
oracle

>  <origin>  (46) 
adg

>  <m_score__min__energy>  (46) 
-6.6900000000000004

>  <m_primary>  (46) 
energy

$$$$
46:0
     RDKit          3D

 25 26  0  0  0  0  0  0  0  0999 V2000
   57.7040   28.7910   44.1010 C   0  0  0  0  0  0  0  0  0  0  0  0
   56.2960   29.9140   43.8420 S   0  0  0  0  0  0  0  0  0  0  0  0
   57.2310   31.3830   44.3080 C   0  0  0  0  0  0  0  0  0  0  0  0
   57.4260   31.6440   45.6320 N   0  0  0  0  0  0  0  0  0  0  0  0
   58.1290   32.7330   46.0550 C   0  0  0  0  0  0  0  0  0  0  0  0
   58.3190   32.9720   47.4250 C   0  0  0  0  0  0  0  0  0  0  0  0
   59.0440   34.0900   47.8490 C   0  0  0  0  0  0  0  0  0  0  0  0
   59.5820   34.9760   46.9110 C   0  0  0  0  0  0  0  0  0  0  0  0
   59.4010   34.7480   45.5440 C   0  0  0  0  0  0  0  0  0  0  0  0
   58.6740   33.6290   45.1090 C   0  0  0  0  0  0  0  0  0  0  0  0
   58.4770   33.3820   43.7460 C   0  0  0  0  0  0  0  0  0  0  0  0
   57.7480   32.2590   43.3310 C   0  0  0  0  0  0  0  0  0  0  0  0
   57.5350   32.0060   41.8630 C   0  0  0  0  0  0  0  0  0  0  0  0
   57.8723   28.6567   45.1797 H   0  0  0  0  0  0  0  0  0  0  0  0
   57.4854   27.8165   43.6399 H   0  0  0  0  0  0  0  0  0  0  0  0
   58.6055   29.2208   43.6399 H   0  0  0  0  0  0  0  0  0  0  0  0
   57.0260   30.9820   46.3360 H   0  0  0  0  0  0  0  0  0  0  0  0
   57.8966   32.2782   48.1668 H   0  0  0  0  0  0  0  0  0  0  0  0
   59.1914   34.2728   48.9236 H   0  0  0  0  0  0  0  0  0  0  0  0
   60.1495   35.8553   47.2498 H   0  0  0  0  0  0  0  0  0  0  0  0
   59.8284   35.4457   44.8088 H   0  0  0  0  0  0  0  0  0  0  0  0
   58.8955   34.0712   42.9978 H   0  0  0  0  0  0  0  0  0  0  0  0
   56.8315   31.1704   41.7332 H   0  0  0  0  0  0  0  0  0  0  0  0
   57.1218   32.9098   41.3913 H   0  0  0  0  0  0  0  0  0  0  0  0
   58.4960   31.7529   41.3913 H   0  0  0  0  0  0  0  0  0  0  0  0
  1  2  1  0
  2  3  1  0
  3  4  2  0
  4  5  1  0
  5  6  2  0
  6  7  1  0
  7  8  2  0
  8  9  1  0
  9 10  2  0
 10 11  1  0
 11 12  2  0
 12 13  1  0
 12  3  1  0
 10  5  1  0
  1 14  1  0
  1 15  1  0
  1 16  1  0
  4 17  1  0
  6 18  1  0
  7 19  1  0
  8 20  1  0
  9 21  1  0
 11 22  1  0
 13 23  1  0
 13 24  1  0
 13 25  1  0
M  CHG  1   4   1
M  END
>  <UniqueID>  (47) 
44

>  <SMILES>  (47) 
CSc1[nH+]c2ccccc2cc1C

>  <Energy>  (47) 
24.542473710843943

>  <Genealogy>  (47) 
CSc1[nH+]c2ccccc2cc1C (protonated)
CSc1[nH+]c2ccccc2cc1C (3D coordinates assigned)
CSc1[nH+]c2ccccc2cc1C (optimized conformer: 24.542473710843943 kcal/mol)

>  <smiles>  (47) 
CSc1nc2ccccc2cc1C

>  <score_type>  (47) 
oracle

>  <origin>  (47) 
adg

>  <m_score__min__energy>  (47) 
-5.0300000000000002

>  <m_primary>  (47) 
energy

$$$$
47:0
     RDKit          3D

 28 29  0  0  0  0  0  0  0  0999 V2000
   57.0480   34.4650   44.8700 C   0  0  0  0  0  0  0  0  0  0  0  0
   58.3280   34.0120   45.5200 C   0  0  0  0  0  0  0  0  0  0  0  0
   59.2680   34.9660   45.9360 C   0  0  0  0  0  0  0  0  0  0  0  0
   60.4220   34.5780   46.5330 N   0  0  0  0  0  0  0  0  0  0  0  0
   60.6930   33.2660   46.7370 C   0  0  0  0  0  0  0  0  0  0  0  0
   59.8080   32.3190   46.3370 N   0  0  0  0  0  0  0  0  0  0  0  0
   58.6390   32.6450   45.7160 C   0  0  0  0  0  0  0  0  0  0  0  0
   57.6830   31.5290   45.3320 C   0  0  0  0  0  0  0  0  0  0  0  0
   58.1250   30.1940   45.9730 C   0  0  0  0  0  0  0  0  0  0  0  0
   57.5490   28.9710   45.2330 C   0  0  0  0  0  0  0  0  0  0  0  0
   56.3060   29.3250   44.5370 N   0  0  0  0  0  0  0  0  0  0  0  0
   56.5630   30.2620   43.4270 C   0  0  0  0  0  0  0  0  0  0  0  0
   57.5670   31.3760   43.8050 C   0  0  0  0  0  0  0  0  0  0  0  0
   56.3141   34.7247   45.6471 H   0  0  0  0  0  0  0  0  0  0  0  0
   57.2469   35.3473   44.2440 H   0  0  0  0  0  0  0  0  0  0  0  0
   56.6477   33.6540   44.2440 H   0  0  0  0  0  0  0  0  0  0  0  0
   59.0679   36.0359   45.7770 H   0  0  0  0  0  0  0  0  0  0  0  0
   61.6316   32.9686   47.2275 H   0  0  0  0  0  0  0  0  0  0  0  0
   56.6884   31.7995   45.7163 H   0  0  0  0  0  0  0  0  0  0  0  0
   59.2233   30.1368   45.9494 H   0  0  0  0  0  0  0  0  0  0  0  0
   57.7437   30.1735   47.0046 H   0  0  0  0  0  0  0  0  0  0  0  0
   58.2854   28.6136   44.4981 H   0  0  0  0  0  0  0  0  0  0  0  0
   57.3309   28.1826   45.9684 H   0  0  0  0  0  0  0  0  0  0  0  0
   55.8980   28.4500   44.1320 H   0  0  0  0  0  0  0  0  0  0  0  0
   56.9697   29.6960   42.5760 H   0  0  0  0  0  0  0  0  0  0  0  0
   55.6086   30.7472   43.1748 H   0  0  0  0  0  0  0  0  0  0  0  0
   58.5553   31.1223   43.3941 H   0  0  0  0  0  0  0  0  0  0  0  0
   57.2045   32.3268   43.3871 H   0  0  0  0  0  0  0  0  0  0  0  0
  1  2  1  0
  2  3  2  0
  3  4  1  0
  4  5  2  0
  5  6  1  0
  6  7  2  0
  7  8  1  0
  8  9  1  0
  9 10  1  0
 10 11  1  0
 11 12  1  0
 12 13  1  0
  7  2  1  0
 13  8  1  0
  1 14  1  0
  1 15  1  0
  1 16  1  0
  3 17  1  0
  5 18  1  0
  8 19  1  0
  9 20  1  0
  9 21  1  0
 10 22  1  0
 10 23  1  0
 11 24  1  0
 12 25  1  0
 12 26  1  0
 13 27  1  0
 13 28  1  0
M  END
>  <UniqueID>  (48) 
45

>  <SMILES>  (48) 
Cc1cncnc1C1CCNCC1

>  <Energy>  (48) 
33.324419620933476

>  <Genealogy>  (48) 
Cc1cncnc1C1CCNCC1 (3D coordinates assigned)
Cc1cncnc1C1CCNCC1 (nonaromatic ring conformer: 33.324419620933476 kcal/mol)

>  <smiles>  (48) 
Cc1cncnc1C1CCNCC1

>  <score_type>  (48) 
oracle

>  <origin>  (48) 
adg

>  <m_score__min__energy>  (48) 
-5.8099999999999996

>  <m_primary>  (48) 
energy

$$$$
