0:0
     RDKit          3D

 56 58  0  0  0  0  0  0  0  0999 V2000
   60.5010   29.4690   48.0760 C   0  0  0  0  0  0  0  0  0  0  0  0
   59.0260   29.2740   48.4060 C   0  0  0  0  0  0  0  0  0  0  0  0
   58.1930   29.7510   47.2970 N   0  0  0  0  0  0  0  0  0  0  0  0
   58.3450   28.8710   46.1320 C   0  0  0  0  0  0  0  0  0  0  0  0
   58.7130   29.6920   44.8990 C   0  0  0  0  0  0  0  0  0  0  0  0
   58.7360   31.0550   45.2390 O   0  0  0  0  0  0  0  0  0  0  0  0
   57.4360   31.4480   45.3080 N   0  0  0  0  0  0  0  0  0  0  0  0
   57.3530   32.8090   44.7780 C   0  0  0  0  0  0  0  0  0  0  0  0
   57.0510   33.8080   45.9000 C   0  0  0  0  0  0  0  0  0  0  0  0
   58.2540   33.9920   46.8430 C   0  0  0  0  0  0  0  0  0  0  0  0
   59.0010   32.7290   47.0480 N   0  0  0  0  0  0  0  0  0  0  0  0
   59.9470   32.8350   48.1540 C   0  0  0  0  0  0  0  0  0  0  0  0
   59.5160   32.5920   49.4860 C   0  0  0  0  0  0  0  0  0  0  0  0
   58.1580   32.3160   49.7890 C   0  0  0  0  0  0  0  0  0  0  0  0
   57.7600   31.9910   51.0820 C   0  0  0  0  0  0  0  0  0  0  0  0
   58.6970   31.9260   52.1020 C   0  0  0  0  0  0  0  0  0  0  0  0
   60.0290   32.2340   51.8460 C   0  0  0  0  0  0  0  0  0  0  0  0
   60.4590   32.6260   50.5500 C   0  0  0  0  0  0  0  0  0  0  0  0
   61.7600   33.0220   50.3170 N   0  0  0  0  0  0  0  0  0  0  0  0
   62.6440   33.3550   51.4580 C   0  0  0  0  0  0  0  0  0  0  0  0
   62.2240   33.1580   49.0260 C   0  0  0  0  0  0  0  0  0  0  0  0
   63.6100   33.3090   48.7560 C   0  0  0  0  0  0  0  0  0  0  0  0
   64.0750   33.5430   47.4670 C   0  0  0  0  0  0  0  0  0  0  0  0
   63.1810   33.6260   46.4120 C   0  0  0  0  0  0  0  0  0  0  0  0
   61.8210   33.4240   46.6300 C   0  0  0  0  0  0  0  0  0  0  0  0
   61.3170   33.1380   47.9250 C   0  0  0  0  0  0  0  0  0  0  0  0
   61.0785   29.5453   49.0091 H   0  0  0  0  0  0  0  0  0  0  0  0
   60.8623   28.6108   47.4904 H   0  0  0  0  0  0  0  0  0  0  0  0
   60.6269   30.3916   47.4904 H   0  0  0  0  0  0  0  0  0  0  0  0
   58.8294   28.2050   48.5748 H   0  0  0  0  0  0  0  0  0  0  0  0
   58.7814   29.8477   49.3121 H   0  0  0  0  0  0  0  0  0  0  0  0
   58.5380   30.7020   47.0260 H   0  0  0  0  0  0  0  0  0  0  0  0
   59.1402   28.1376   46.3313 H   0  0  0  0  0  0  0  0  0  0  0  0
   57.3936   28.3507   45.9473 H   0  0  0  0  0  0  0  0  0  0  0  0
   59.7059   29.3867   44.5371 H   0  0  0  0  0  0  0  0  0  0  0  0
   57.9685   29.5221   44.1073 H   0  0  0  0  0  0  0  0  0  0  0  0
   57.1850   31.4800   46.3240 H   0  0  0  0  0  0  0  0  0  0  0  0
   58.3118   33.0728   44.3077 H   0  0  0  0  0  0  0  0  0  0  0  0
   56.5409   32.8519   44.0373 H   0  0  0  0  0  0  0  0  0  0  0  0
   56.7981   34.7803   45.4521 H   0  0  0  0  0  0  0  0  0  0  0  0
   56.2113   33.4137   46.4911 H   0  0  0  0  0  0  0  0  0  0  0  0
   58.9340   34.7395   46.4084 H   0  0  0  0  0  0  0  0  0  0  0  0
   57.8707   34.3207   47.8202 H   0  0  0  0  0  0  0  0  0  0  0  0
   59.4540   32.3910   46.1740 H   0  0  0  0  0  0  0  0  0  0  0  0
   58.3300   31.9500   47.2360 H   0  0  0  0  0  0  0  0  0  0  0  0
   57.4061   32.3597   48.9873 H   0  0  0  0  0  0  0  0  0  0  0  0
   56.7007   31.7854   51.2953 H   0  0  0  0  0  0  0  0  0  0  0  0
   58.3865   31.6304   53.1150 H   0  0  0  0  0  0  0  0  0  0  0  0
   60.7635   32.1729   52.6626 H   0  0  0  0  0  0  0  0  0  0  0  0
   62.1153   33.1558   52.4018 H   0  0  0  0  0  0  0  0  0  0  0  0
   63.5532   32.7377   51.4098 H   0  0  0  0  0  0  0  0  0  0  0  0
   62.9200   34.4187   51.4098 H   0  0  0  0  0  0  0  0  0  0  0  0
   64.3307   33.2393   49.5841 H   0  0  0  0  0  0  0  0  0  0  0  0
   65.1532   33.6623   47.2847 H   0  0  0  0  0  0  0  0  0  0  0  0
   63.5467   33.8521   45.3995 H   0  0  0  0  0  0  0  0  0  0  0  0
   61.1236   33.4874   45.7817 H   0  0  0  0  0  0  0  0  0  0  0  0
  1  2  1  0
  2  3  1  0
  3  4  1  0
  4  5  1  0
  5  6  1  0
  6  7  1  0
  7  8  1  0
  8  9  1  0
  9 10  1  0
 10 11  1  0
 11 12  1  0
 12 13  2  0
 13 14  1  0
 14 15  2  0
 15 16  1  0
 16 17  2  0
 17 18  1  0
 18 19  2  0
 19 20  1  0
 19 21  1  0
 21 22  2  0
 22 23  1  0
 23 24  2  0
 24 25  1  0
 25 26  2  0
 26 12  1  0
 18 13  1  0
 26 21  1  0
  1 27  1  0
  1 28  1  0
  1 29  1  0
  2 30  1  0
  2 31  1  0
  3 32  1  0
  4 33  1  0
  4 34  1  0
  5 35  1  0
  5 36  1  0
  7 37  1  0
  8 38  1  0
  8 39  1  0
  9 40  1  0
  9 41  1  0
 10 42  1  0
 10 43  1  0
 11 44  1  0
 11 45  1  0
 14 46  1  0
 15 47  1  0
 16 48  1  0
 17 49  1  0
 20 50  1  0
 20 51  1  0
 20 52  1  0
 22 53  1  0
 23 54  1  0
 24 55  1  0
 25 56  1  0
M  CHG  2  11   1  19   1
M  END
>  <UniqueID>  (1) 
1

>  <SMILES>  (1) 
CCNCCONCCC[NH2+]c1c2ccccc2[n+](C)c2ccccc12

>  <Energy>  (1) 
76.29620554648982

>  <Genealogy>  (1) 
CCNCCONCCC[NH2+]c1c2ccccc2[n+](C)c2ccccc12 (protonated)
CCNCCONCCC[NH2+]c1c2ccccc2[n+](C)c2ccccc12 (3D coordinates assigned)
CCNCCONCCC[NH2+]c1c2ccccc2[n+](C)c2ccccc12 (optimized conformer: 76.29620554648982 kcal/mol)

>  <smiles>  (1) 
CCNCCONCCCNc1c2ccccc2[n+](C)c2ccccc12

>  <score_type>  (1) 
oracle

>  <origin>  (1) 
adg

>  <m_score__min__energy>  (1) 
-3.1000000000000001

>  <m_primary>  (1) 
energy

$$$$
1:0
     RDKit          3D

 65 68  0  0  0  0  0  0  0  0999 V2000
   57.1090   24.3950   44.0800 C   0  0  0  0  0  0  0  0  0  0  0  0
   55.7290   24.3550   44.7300 C   0  0  0  0  0  0  0  0  0  0  0  0
   55.7420   25.0170   46.1090 C   0  0  0  0  0  0  0  0  0  0  0  0
   55.4900   26.4060   45.9730 O   0  0  0  0  0  0  0  0  0  0  0  0
   56.6950   27.1500   45.9450 C   0  0  0  0  0  0  0  0  0  0  0  0
   56.6440   28.2290   44.8550 C   0  0  0  0  0  0  0  0  0  0  0  0
   55.9410   29.3720   45.3070 O   0  0  0  0  0  0  0  0  0  0  0  0
   56.0690   30.4640   44.4130 C   0  0  0  0  0  0  0  0  0  0  0  0
   57.0510   30.1120   43.2930 C   0  0  0  0  0  0  0  0  0  0  0  0
   58.2910   30.8960   43.4040 N   0  0  0  0  0  0  0  0  0  0  0  0
   58.6780   31.0440   44.7940 C   0  0  0  0  0  0  0  0  0  0  0  0
   58.4300   32.2550   45.4860 C   0  0  0  0  0  0  0  0  0  0  0  0
   59.1040   32.5010   46.6950 C   0  0  0  0  0  0  0  0  0  0  0  0
   59.8720   31.5180   47.2720 N   0  0  0  0  0  0  0  0  0  0  0  0
   60.9510   31.9100   48.1980 C   0  0  0  0  0  0  0  0  0  0  0  0
   59.7610   30.2160   46.8250 C   0  0  0  0  0  0  0  0  0  0  0  0
   59.3130   29.9870   45.5020 C   0  0  0  0  0  0  0  0  0  0  0  0
   59.7310   28.6990   44.8150 C   0  0  0  0  0  0  0  0  0  0  0  0
   59.6490   27.4820   45.7300 C   0  0  0  0  0  0  0  0  0  0  0  0
   60.1940   27.7400   47.1060 C   0  0  0  0  0  0  0  0  0  0  0  0
   60.5610   26.6350   47.8920 C   0  0  0  0  0  0  0  0  0  0  0  0
   60.7870   26.7840   49.2590 C   0  0  0  0  0  0  0  0  0  0  0  0
   60.5800   28.0190   49.8640 C   0  0  0  0  0  0  0  0  0  0  0  0
   60.2080   29.1220   49.0920 C   0  0  0  0  0  0  0  0  0  0  0  0
   60.1080   29.0280   47.6850 C   0  0  0  0  0  0  0  0  0  0  0  0
   58.9220   33.8750   47.3240 C   0  0  0  0  0  0  0  0  0  0  0  0
   59.0450   34.9880   46.2680 C   0  0  0  0  0  0  0  0  0  0  0  0
   58.2960   34.6910   44.9460 C   0  0  0  0  0  0  0  0  0  0  0  0
   57.5300   33.3600   44.9660 C   0  0  0  0  0  0  0  0  0  0  0  0
   57.8822   24.4174   44.8621 H   0  0  0  0  0  0  0  0  0  0  0  0
   57.2458   23.5004   43.4547 H   0  0  0  0  0  0  0  0  0  0  0  0
   57.1938   25.2960   43.4547 H   0  0  0  0  0  0  0  0  0  0  0  0
   55.0139   24.8863   44.0847 H   0  0  0  0  0  0  0  0  0  0  0  0
   55.4353   23.3022   44.8542 H   0  0  0  0  0  0  0  0  0  0  0  0
   54.9631   24.5638   46.7399 H   0  0  0  0  0  0  0  0  0  0  0  0
   56.7269   24.8687   46.5758 H   0  0  0  0  0  0  0  0  0  0  0  0
   56.8442   27.6317   46.9226 H   0  0  0  0  0  0  0  0  0  0  0  0
   57.5272   26.4652   45.7246 H   0  0  0  0  0  0  0  0  0  0  0  0
   57.6707   28.5200   44.5882 H   0  0  0  0  0  0  0  0  0  0  0  0
   56.1206   27.8186   43.9789 H   0  0  0  0  0  0  0  0  0  0  0  0
   55.0860   30.6944   43.9764 H   0  0  0  0  0  0  0  0  0  0  0  0
   56.4473   31.3382   44.9631 H   0  0  0  0  0  0  0  0  0  0  0  0
   57.2969   29.0416   43.3552 H   0  0  0  0  0  0  0  0  0  0  0  0
   56.5767   30.3467   42.3286 H   0  0  0  0  0  0  0  0  0  0  0  0
   59.0550   30.4530   42.8490 H   0  0  0  0  0  0  0  0  0  0  0  0
   58.1770   31.8330   42.9590 H   0  0  0  0  0  0  0  0  0  0  0  0
   60.6073   31.7851   49.2354 H   0  0  0  0  0  0  0  0  0  0  0  0
   61.8319   31.2745   48.0246 H   0  0  0  0  0  0  0  0  0  0  0  0
   61.2186   32.9628   48.0246 H   0  0  0  0  0  0  0  0  0  0  0  0
   59.0713   28.5327   43.9506 H   0  0  0  0  0  0  0  0  0  0  0  0
   60.7825   28.8134   44.5131 H   0  0  0  0  0  0  0  0  0  0  0  0
   58.5942   27.1837   45.8217 H   0  0  0  0  0  0  0  0  0  0  0  0
   60.2638   26.6900   45.2774 H   0  0  0  0  0  0  0  0  0  0  0  0
   60.6708   25.6451   47.4251 H   0  0  0  0  0  0  0  0  0  0  0  0
   61.1283   25.9269   49.8581 H   0  0  0  0  0  0  0  0  0  0  0  0
   60.7093   28.1272   50.9510 H   0  0  0  0  0  0  0  0  0  0  0  0
   59.9892   30.0796   49.5870 H   0  0  0  0  0  0  0  0  0  0  0  0
   57.9262   33.9286   47.7883 H   0  0  0  0  0  0  0  0  0  0  0  0
   59.7087   34.0209   48.0789 H   0  0  0  0  0  0  0  0  0  0  0  0
   58.6371   35.9160   46.6951 H   0  0  0  0  0  0  0  0  0  0  0  0
   60.1127   35.0695   46.0161 H   0  0  0  0  0  0  0  0  0  0  0  0
   57.5782   35.5039   44.7615 H   0  0  0  0  0  0  0  0  0  0  0  0
   59.0539   34.6181   44.1521 H   0  0  0  0  0  0  0  0  0  0  0  0
   56.6518   33.4542   45.6217 H   0  0  0  0  0  0  0  0  0  0  0  0
   57.2059   33.1129   43.9443 H   0  0  0  0  0  0  0  0  0  0  0  0
  1  2  1  0
  2  3  1  0
  3  4  1  0
  4  5  1  0
  5  6  1  0
  6  7  1  0
  7  8  1  0
  8  9  1  0
  9 10  1  0
 10 11  1  0
 11 12  2  0
 12 13  1  0
 13 14  2  0
 14 15  1  0
 14 16  1  0
 16 17  2  0
 17 18  1  0
 18 19  1  0
 19 20  1  0
 20 21  2  0
 21 22  1  0
 22 23  2  0
 23 24  1  0
 24 25  2  0
 13 26  1  0
 26 27  1  0
 27 28  1  0
 28 29  1  0
 17 11  1  0
 25 20  1  0
 29 12  1  0
 25 16  1  0
  1 30  1  0
  1 31  1  0
  1 32  1  0
  2 33  1  0
  2 34  1  0
  3 35  1  0
  3 36  1  0
  5 37  1  0
  5 38  1  0
  6 39  1  0
  6 40  1  0
  8 41  1  0
  8 42  1  0
  9 43  1  0
  9 44  1  0
 10 45  1  0
 10 46  1  0
 15 47  1  0
 15 48  1  0
 15 49  1  0
 18 50  1  0
 18 51  1  0
 19 52  1  0
 19 53  1  0
 21 54  1  0
 22 55  1  0
 23 56  1  0
 24 57  1  0
 26 58  1  0
 26 59  1  0
 27 60  1  0
 27 61  1  0
 28 62  1  0
 28 63  1  0
 29 64  1  0
 29 65  1  0
M  CHG  2  10   1  14   1
M  END
>  <UniqueID>  (2) 
2

>  <SMILES>  (2) 
CCCOCCOCC[NH2+]c1c2c([n+](C)c3c1CCc1ccccc1-3)CCCC2

>  <Energy>  (2) 
106.95164210921813

>  <Genealogy>  (2) 
CCCOCCOCC[NH2+]c1c2c([n+](C)c3c1CCc1ccccc1-3)CCCC2 (protonated)
CCCOCCOCC[NH2+]c1c2c([n+](C)c3c1CCc1ccccc1-3)CCCC2 (3D coordinates assigned)
CCCOCCOCC[NH2+]c1c2c([n+](C)c3c1CCc1ccccc1-3)CCCC2 (nonaromatic ring conformer: 106.95164210921813 kcal/mol)

>  <smiles>  (2) 
CCCOCCOCCNc1c2c([n+](C)c3c1CCc1ccccc1-3)CCCC2

>  <score_type>  (2) 
oracle

>  <origin>  (2) 
adg

>  <m_score__min__energy>  (2) 
-5.9400000000000004

>  <m_primary>  (2) 
energy

$$$$
2:0
     RDKit          3D

 69 72  0  0  0  0  0  0  0  0999 V2000
   55.1100   28.3590   53.5070 C   0  0  0  0  0  0  0  0  0  0  0  0
   56.6360   28.2030   53.5280 C   0  0  0  0  0  0  0  0  0  0  0  0
   57.3450   29.4730   53.2170 N   0  0  2  0  0  0  0  0  0  0  0  0
   58.4220   29.6870   54.2050 C   0  0  0  0  0  0  0  0  0  0  0  0
   56.3950   30.6200   53.2200 C   0  0  0  0  0  0  0  0  0  0  0  0
   56.1110   31.1890   51.8120 C   0  0  0  0  0  0  0  0  0  0  0  0
   57.1540   30.8930   50.9040 O   0  0  0  0  0  0  0  0  0  0  0  0
   58.2560   31.7700   51.0630 C   0  0  0  0  0  0  0  0  0  0  0  0
   59.5160   30.9490   51.2950 C   0  0  0  0  0  0  0  0  0  0  0  0
   59.3270   29.6440   50.7870 O   0  0  0  0  0  0  0  0  0  0  0  0
   60.4650   29.2600   50.0450 C   0  0  0  0  0  0  0  0  0  0  0  0
   60.0940   29.1520   48.5710 C   0  0  0  0  0  0  0  0  0  0  0  0
   58.8590   29.8890   48.3040 N   0  0  0  0  0  0  0  0  0  0  0  0
   58.5980   30.4140   46.9940 C   0  0  0  0  0  0  0  0  0  0  0  0
   58.5720   31.8070   46.7430 C   0  0  0  0  0  0  0  0  0  0  0  0
   58.7340   32.7340   47.7930 C   0  0  0  0  0  0  0  0  0  0  0  0
   58.6900   34.1030   47.5470 C   0  0  0  0  0  0  0  0  0  0  0  0
   58.4720   34.5750   46.2570 C   0  0  0  0  0  0  0  0  0  0  0  0
   58.3150   33.6840   45.1960 C   0  0  0  0  0  0  0  0  0  0  0  0
   58.3850   32.2850   45.4010 C   0  0  0  0  0  0  0  0  0  0  0  0
   58.2710   31.3900   44.3460 N   0  0  0  0  0  0  0  0  0  0  0  0
   58.1900   31.8540   42.9480 C   0  0  0  0  0  0  0  0  0  0  0  0
   58.2210   30.0500   44.6330 C   0  0  0  0  0  0  0  0  0  0  0  0
   57.9860   29.0440   43.7520 N   0  0  0  0  0  0  0  0  0  0  0  0
   57.9960   27.9190   44.4940 C   0  0  0  0  0  0  0  0  0  0  0  0
   57.7660   26.6220   44.0420 C   0  0  0  0  0  0  0  0  0  0  0  0
   57.7730   25.5800   44.9840 C   0  0  0  0  0  0  0  0  0  0  0  0
   57.9940   25.8510   46.3620 C   0  0  0  0  0  0  0  0  0  0  0  0
   57.9950   24.8370   47.3320 O   0  0  0  0  0  0  0  0  0  0  0  0
   56.8680   24.0290   47.6530 C   0  0  0  0  0  0  0  0  0  0  0  0
   58.2140   27.1760   46.7870 C   0  0  0  0  0  0  0  0  0  0  0  0
   58.2270   28.1890   45.8240 C   0  0  0  0  0  0  0  0  0  0  0  0
   58.3790   29.5640   45.9140 C   0  0  0  0  0  0  0  0  0  0  0  0
   54.7312   28.3977   54.5390 H   0  0  0  0  0  0  0  0  0  0  0  0
   54.8437   29.2891   52.9835 H   0  0  0  0  0  0  0  0  0  0  0  0
   54.6610   27.5021   52.9835 H   0  0  0  0  0  0  0  0  0  0  0  0
   56.9418   27.8648   54.5290 H   0  0  0  0  0  0  0  0  0  0  0  0
   56.9069   27.4716   52.7523 H   0  0  0  0  0  0  0  0  0  0  0  0
   57.7960   29.3870   52.2770 H   0  0  0  0  0  0  0  0  0  0  0  0
   58.0090   29.6049   55.2212 H   0  0  0  0  0  0  0  0  0  0  0  0
   59.2046   28.9268   54.0648 H   0  0  0  0  0  0  0  0  0  0  0  0
   58.8545   30.6886   54.0648 H   0  0  0  0  0  0  0  0  0  0  0  0
   55.4437   30.2830   53.6577 H   0  0  0  0  0  0  0  0  0  0  0  0
   56.8620   31.4252   53.8061 H   0  0  0  0  0  0  0  0  0  0  0  0
   55.1752   30.7517   51.4337 H   0  0  0  0  0  0  0  0  0  0  0  0
   56.0317   32.2829   51.8957 H   0  0  0  0  0  0  0  0  0  0  0  0
   58.3755   32.3797   50.1553 H   0  0  0  0  0  0  0  0  0  0  0  0
   58.0814   32.4323   51.9237 H   0  0  0  0  0  0  0  0  0  0  0  0
   60.3636   31.4242   50.7794 H   0  0  0  0  0  0  0  0  0  0  0  0
   59.7263   30.8962   52.3734 H   0  0  0  0  0  0  0  0  0  0  0  0
   61.2564   30.0136   50.1702 H   0  0  0  0  0  0  0  0  0  0  0  0
   60.8277   28.2861   50.4054 H   0  0  0  0  0  0  0  0  0  0  0  0
   60.9068   29.5721   47.9603 H   0  0  0  0  0  0  0  0  0  0  0  0
   59.9412   28.0928   48.3167 H   0  0  0  0  0  0  0  0  0  0  0  0
   58.3540   30.3030   49.1180 H   0  0  0  0  0  0  0  0  0  0  0  0
   58.8971   32.3709   48.8185 H   0  0  0  0  0  0  0  0  0  0  0  0
   58.8280   34.8138   48.3751 H   0  0  0  0  0  0  0  0  0  0  0  0
   58.4231   35.6583   46.0725 H   0  0  0  0  0  0  0  0  0  0  0  0
   58.1339   34.0743   44.1837 H   0  0  0  0  0  0  0  0  0  0  0  0
   58.0009   32.9375   42.9317 H   0  0  0  0  0  0  0  0  0  0  0  0
   59.1391   31.6397   42.4350 H   0  0  0  0  0  0  0  0  0  0  0  0
   57.3696   31.3308   42.4350 H   0  0  0  0  0  0  0  0  0  0  0  0
   57.7810   29.0960   42.7300 H   0  0  0  0  0  0  0  0  0  0  0  0
   57.5838   26.4190   42.9763 H   0  0  0  0  0  0  0  0  0  0  0  0
   57.6059   24.5446   44.6523 H   0  0  0  0  0  0  0  0  0  0  0  0
   56.7678   23.9571   48.7461 H   0  0  0  0  0  0  0  0  0  0  0  0
   55.9593   24.4826   47.2305 H   0  0  0  0  0  0  0  0  0  0  0  0
   57.0060   23.0228   47.2305 H   0  0  0  0  0  0  0  0  0  0  0  0
   58.3717   27.4077   47.8507 H   0  0  0  0  0  0  0  0  0  0  0  0
  1  2  1  0
  2  3  1  0
  3  4  1  0
  3  5  1  0
  5  6  1  0
  6  7  1  0
  7  8  1  0
  8  9  1  0
  9 10  1  0
 10 11  1  0
 11 12  1  0
 12 13  1  0
 13 14  1  0
 14 15  2  0
 15 16  1  0
 16 17  2  0
 17 18  1  0
 18 19  2  0
 19 20  1  0
 20 21  2  0
 21 22  1  0
 21 23  1  0
 23 24  1  0
 24 25  1  0
 25 26  2  0
 26 27  1  0
 27 28  2  0
 28 29  1  0
 29 30  1  0
 28 31  1  0
 31 32  2  0
 32 33  1  0
 33 14  1  0
 20 15  1  0
 33 23  2  0
 32 25  1  0
  1 34  1  0
  1 35  1  0
  1 36  1  0
  2 37  1  0
  2 38  1  0
  3 39  1  6
  4 40  1  0
  4 41  1  0
  4 42  1  0
  5 43  1  0
  5 44  1  0
  6 45  1  0
  6 46  1  0
  8 47  1  0
  8 48  1  0
  9 49  1  0
  9 50  1  0
 11 51  1  0
 11 52  1  0
 12 53  1  0
 12 54  1  0
 13 55  1  0
 16 56  1  0
 17 57  1  0
 18 58  1  0
 19 59  1  0
 22 60  1  0
 22 61  1  0
 22 62  1  0
 24 63  1  0
 26 64  1  0
 27 65  1  0
 30 66  1  0
 30 67  1  0
 30 68  1  0
 31 69  1  0
M  CHG  2   3   1  21   1
M  END
>  <UniqueID>  (3) 
3

>  <SMILES>  (3) 
CC[N@H+](C)CCOCCOCCNc1c2ccccc2[n+](C)c2[nH]c3ccc(OC)cc3c12

>  <Energy>  (3) 
127.11206052770262

>  <Genealogy>  (3) 
CC[NH+](C)CCOCCOCCNc1c2ccccc2[n+](C)c2[nH]c3ccc(OC)cc3c12 (protonated)
CC[N@H+](C)CCOCCOCCNc1c2ccccc2[n+](C)c2[nH]c3ccc(OC)cc3c12 (chirality)
CC[N@H+](C)CCOCCOCCNc1c2ccccc2[n+](C)c2[nH]c3ccc(OC)cc3c12 (3D coordinates assigned)
CC[N@H+](C)CCOCCOCCNc1c2ccccc2[n+](C)c2[nH]c3ccc(OC)cc3c12 (optimized conformer: 127.11206052770262 kcal/mol)

>  <smiles>  (3) 
CCN(C)CCOCCOCCNc1c2ccccc2[n+](C)c2[nH]c3ccc(OC)cc3c12

>  <score_type>  (3) 
oracle

>  <origin>  (3) 
adg

>  <m_score__min__energy>  (3) 
-4.5199999999999996

>  <m_primary>  (3) 
energy

$$$$
3:0
     RDKit          3D

 75 76  0  0  0  0  0  0  0  0999 V2000
   53.9860   30.5680   51.6330 C   0  0  0  0  0  0  0  0  0  0  0  0
   55.3460   31.1340   52.0250 C   0  0  0  0  0  0  0  0  0  0  0  0
   56.3690   30.0640   51.9720 N   0  0  0  0  0  0  0  0  0  0  0  0
   56.2160   29.0780   53.0710 C   0  0  0  0  0  0  0  0  0  0  0  0
   55.9780   29.7060   54.4510 C   0  0  0  0  0  0  0  0  0  0  0  0
   57.7340   30.6270   51.8400 C   0  0  0  0  0  0  0  0  0  0  0  0
   57.7520   31.8790   50.9610 C   0  0  0  0  0  0  0  0  0  0  0  0
   58.1590   31.5280   49.6540 O   0  0  0  0  0  0  0  0  0  0  0  0
   59.2280   30.6020   49.6950 C   0  0  0  0  0  0  0  0  0  0  0  0
   59.5520   30.0890   48.2890 C   0  0  0  0  0  0  0  0  0  0  0  0
   58.5510   30.4910   47.3700 O   0  0  0  0  0  0  0  0  0  0  0  0
   58.5200   29.6270   46.2540 C   0  0  0  0  0  0  0  0  0  0  0  0
   57.9180   30.3660   45.0690 C   0  0  0  0  0  0  0  0  0  0  0  0
   58.6960   31.5190   44.7970 O   0  0  0  0  0  0  0  0  0  0  0  0
   58.0020   32.4340   43.9700 C   0  0  0  0  0  0  0  0  0  0  0  0
   57.7710   33.7570   44.7110 C   0  0  0  0  0  0  0  0  0  0  0  0
   57.2000   33.5130   46.1180 C   0  0  0  0  0  0  0  0  0  0  0  0
   58.2310   33.0600   47.0700 N   0  0  0  0  0  0  0  0  0  0  0  0
   58.9000   34.1770   47.7820 C   0  0  0  0  0  0  0  0  0  0  0  0
   60.0910   33.6880   48.6590 C   0  0  2  0  0  0  0  0  0  0  0  0
   59.9150   34.1900   50.1100 C   0  0  0  0  0  0  0  0  0  0  0  0
   61.4460   34.0540   47.9660 C   0  0  1  0  0  0  0  0  0  0  0  0
   62.6920   34.1680   48.8700 C   0  0  0  0  0  0  0  0  0  0  0  0
   63.7810   33.4830   48.0190 C   0  0  1  0  0  0  0  0  0  0  0  0
   63.5630   31.9610   48.0760 C   0  0  0  0  0  0  0  0  0  0  0  0
   62.3400   31.7630   47.1690 C   0  0  0  0  0  0  0  0  0  0  0  0
   61.9590   33.2030   46.7710 C   0  0  2  0  0  0  0  0  0  0  0  0
   63.3430   33.8010   46.6030 C   0  0  0  0  0  0  0  0  0  0  0  0
   53.4126   30.3294   52.5409 H   0  0  0  0  0  0  0  0  0  0  0  0
   53.4369   31.3123   51.0376 H   0  0  0  0  0  0  0  0  0  0  0  0
   54.1271   29.6539   51.0376 H   0  0  0  0  0  0  0  0  0  0  0  0
   55.6220   31.9380   51.3268 H   0  0  0  0  0  0  0  0  0  0  0  0
   55.2916   31.5341   53.0482 H   0  0  0  0  0  0  0  0  0  0  0  0
   55.3600   28.4287   52.8352 H   0  0  0  0  0  0  0  0  0  0  0  0
   57.1651   28.5256   53.1345 H   0  0  0  0  0  0  0  0  0  0  0  0
   56.2516   28.9840   55.2345 H   0  0  0  0  0  0  0  0  0  0  0  0
   56.5958   30.6103   54.5538 H   0  0  0  0  0  0  0  0  0  0  0  0
   54.9160   29.9738   54.5538 H   0  0  0  0  0  0  0  0  0  0  0  0
   58.1088   30.8894   52.8404 H   0  0  0  0  0  0  0  0  0  0  0  0
   58.3717   29.8673   51.3644 H   0  0  0  0  0  0  0  0  0  0  0  0
   56.7439   32.3177   50.9262 H   0  0  0  0  0  0  0  0  0  0  0  0
   58.4556   32.6130   51.3807 H   0  0  0  0  0  0  0  0  0  0  0  0
   60.1176   31.0954   50.1136 H   0  0  0  0  0  0  0  0  0  0  0  0
   58.9339   29.7491   50.3243 H   0  0  0  0  0  0  0  0  0  0  0  0
   60.5219   30.4978   47.9693 H   0  0  0  0  0  0  0  0  0  0  0  0
   59.5922   28.9900   48.3123 H   0  0  0  0  0  0  0  0  0  0  0  0
   59.5431   29.3070   46.0074 H   0  0  0  0  0  0  0  0  0  0  0  0
   57.9100   28.7419   46.4875 H   0  0  0  0  0  0  0  0  0  0  0  0
   57.9145   29.7078   44.1877 H   0  0  0  0  0  0  0  0  0  0  0  0
   56.8852   30.6630   45.3036 H   0  0  0  0  0  0  0  0  0  0  0  0
   58.5953   32.6252   43.0637 H   0  0  0  0  0  0  0  0  0  0  0  0
   57.0272   32.0018   43.7000 H   0  0  0  0  0  0  0  0  0  0  0  0
   58.7288   34.2906   44.7999 H   0  0  0  0  0  0  0  0  0  0  0  0
   57.0460   34.3549   44.1393 H   0  0  0  0  0  0  0  0  0  0  0  0
   56.7630   34.4514   46.4900 H   0  0  0  0  0  0  0  0  0  0  0  0
   56.4420   32.7196   46.0404 H   0  0  0  0  0  0  0  0  0  0  0  0
   57.7530   32.4570   47.7800 H   0  0  0  0  0  0  0  0  0  0  0  0
   58.9170   32.4480   46.5690 H   0  0  0  0  0  0  0  0  0  0  0  0
   59.2786   34.8942   47.0389 H   0  0  0  0  0  0  0  0  0  0  0  0
   58.1597   34.6435   48.4486 H   0  0  0  0  0  0  0  0  0  0  0  0
   60.1071   32.5913   48.7430 H   0  0  0  0  0  0  0  0  0  0  0  0
   60.1954   33.3902   50.8112 H   0  0  0  0  0  0  0  0  0  0  0  0
   60.5597   35.0657   50.2758 H   0  0  0  0  0  0  0  0  0  0  0  0
   58.8646   34.4714   50.2758 H   0  0  0  0  0  0  0  0  0  0  0  0
   61.0730   35.0256   47.6097 H   0  0  0  0  0  0  0  0  0  0  0  0
   62.9449   35.2199   49.0686 H   0  0  0  0  0  0  0  0  0  0  0  0
   62.5585   33.7132   49.8626 H   0  0  0  0  0  0  0  0  0  0  0  0
   64.7939   33.7819   48.3268 H   0  0  0  0  0  0  0  0  0  0  0  0
   64.4379   31.4198   47.6865 H   0  0  0  0  0  0  0  0  0  0  0  0
   63.4169   31.5781   49.0968 H   0  0  0  0  0  0  0  0  0  0  0  0
   62.5988   31.1644   46.2832 H   0  0  0  0  0  0  0  0  0  0  0  0
   61.5201   31.2210   47.6630 H   0  0  0  0  0  0  0  0  0  0  0  0
   61.2209   33.1961   45.9555 H   0  0  0  0  0  0  0  0  0  0  0  0
   63.9452   33.2869   45.8395 H   0  0  0  0  0  0  0  0  0  0  0  0
   63.4169   34.8440   46.2615 H   0  0  0  0  0  0  0  0  0  0  0  0
  1  2  1  0
  2  3  1  0
  3  4  1  0
  4  5  1  0
  3  6  1  0
  6  7  1  0
  7  8  1  0
  8  9  1  0
  9 10  1  0
 10 11  1  0
 11 12  1  0
 12 13  1  0
 13 14  1  0
 14 15  1  0
 15 16  1  0
 16 17  1  0
 17 18  1  0
 18 19  1  0
 19 20  1  0
 20 21  1  0
 20 22  1  0
 22 23  1  0
 23 24  1  0
 24 25  1  0
 25 26  1  0
 26 27  1  0
 27 28  1  0
 27 22  1  0
 28 24  1  0
  1 29  1  0
  1 30  1  0
  1 31  1  0
  2 32  1  0
  2 33  1  0
  4 34  1  0
  4 35  1  0
  5 36  1  0
  5 37  1  0
  5 38  1  0
  6 39  1  0
  6 40  1  0
  7 41  1  0
  7 42  1  0
  9 43  1  0
  9 44  1  0
 10 45  1  0
 10 46  1  0
 12 47  1  0
 12 48  1  0
 13 49  1  0
 13 50  1  0
 15 51  1  0
 15 52  1  0
 16 53  1  0
 16 54  1  0
 17 55  1  0
 17 56  1  0
 18 57  1  0
 18 58  1  0
 19 59  1  0
 19 60  1  0
 20 61  1  1
 21 62  1  0
 21 63  1  0
 21 64  1  0
 22 65  1  6
 23 66  1  0
 23 67  1  0
 24 68  1  1
 25 69  1  0
 25 70  1  0
 26 71  1  0
 26 72  1  0
 27 73  1  6
 28 74  1  0
 28 75  1  0
M  CHG  1  18   1
M  END
>  <UniqueID>  (4) 
4

>  <SMILES>  (4) 
CCN(CC)CCOCCOCCOCCC[NH2+]C[C@H](C)[C@H]1CC2CCC1C2

>  <Energy>  (4) 
107.16656977440473

>  <Genealogy>  (4) 
CCN(CC)CCOCCOCCOCCC[NH2+]CC(C)C1CC2CCC1C2 (protonated)
CCN(CC)CCOCCOCCOCCC[NH2+]C[C@H](C)[C@H]1CC2CCC1C2 (chirality)
CCN(CC)CCOCCOCCOCCC[NH2+]C[C@H](C)[C@H]1CC2CCC1C2 (3D coordinates assigned)
CCN(CC)CCOCCOCCOCCC[NH2+]C[C@H](C)[C@H]1CC2CCC1C2 (nonaromatic ring conformer: 107.16656977440473 kcal/mol)

>  <smiles>  (4) 
CCN(CC)CCOCCOCCOCCCNCC(C)C1CC2CCC1C2

>  <score_type>  (4) 
oracle

>  <origin>  (4) 
adg

>  <m_score__min__energy>  (4) 
-4.3700000000000001

>  <m_primary>  (4) 
energy

$$$$
4:0
     RDKit          3D

 51 53  0  0  0  0  0  0  0  0999 V2000
   57.5640   26.0050   44.9080 C   0  0  0  0  0  0  0  0  0  0  0  0
   56.6670   26.5140   46.0320 C   0  0  0  0  0  0  0  0  0  0  0  0
   55.9280   27.6600   45.6090 O   0  0  0  0  0  0  0  0  0  0  0  0
   56.4830   28.8710   45.1620 C   0  0  0  0  0  0  0  0  0  0  0  0
   55.7680   29.6120   44.2140 C   0  0  0  0  0  0  0  0  0  0  0  0
   56.2700   30.8230   43.7310 C   0  0  0  0  0  0  0  0  0  0  0  0
   57.5080   31.3050   44.1810 C   0  0  0  0  0  0  0  0  0  0  0  0
   58.0320   32.6310   43.6900 C   0  0  0  0  0  0  0  0  0  0  0  0
   57.5560   33.7210   44.5510 N   0  0  0  0  0  0  0  0  0  0  0  0
   58.4310   33.8700   45.6880 C   0  0  0  0  0  0  0  0  0  0  0  0
   59.7000   34.4530   45.5370 C   0  0  0  0  0  0  0  0  0  0  0  0
   60.5620   34.5670   46.6320 C   0  0  0  0  0  0  0  0  0  0  0  0
   60.1690   34.0950   47.8940 C   0  0  0  0  0  0  0  0  0  0  0  0
   61.1110   34.2020   49.0650 C   0  0  0  0  0  0  0  0  0  0  0  0
   61.7320   32.8890   49.3610 N   0  0  0  0  0  0  0  0  0  0  0  0
   63.0960   33.0170   49.9170 C   0  0  0  0  0  0  0  0  0  0  0  0
   64.1220   33.4600   48.8460 C   0  0  0  0  0  0  0  0  0  0  0  0
   63.6340   33.3300   47.5230 O   0  0  0  0  0  0  0  0  0  0  0  0
   63.0190   32.0720   47.3560 C   0  0  0  0  0  0  0  0  0  0  0  0
   61.7230   31.9850   48.1870 C   0  0  0  0  0  0  0  0  0  0  0  0
   58.9070   33.4980   48.0440 C   0  0  0  0  0  0  0  0  0  0  0  0
   58.0460   33.3830   46.9490 C   0  0  0  0  0  0  0  0  0  0  0  0
   58.2230   30.5730   45.1390 C   0  0  0  0  0  0  0  0  0  0  0  0
   57.7200   29.3600   45.6220 C   0  0  0  0  0  0  0  0  0  0  0  0
   58.4442   25.5055   45.3390 H   0  0  0  0  0  0  0  0  0  0  0  0
   57.0040   25.2901   44.2872 H   0  0  0  0  0  0  0  0  0  0  0  0
   57.8906   26.8524   44.2872 H   0  0  0  0  0  0  0  0  0  0  0  0
   55.9648   25.7184   46.3218 H   0  0  0  0  0  0  0  0  0  0  0  0
   57.2982   26.7965   46.8874 H   0  0  0  0  0  0  0  0  0  0  0  0
   54.8016   29.2373   43.8457 H   0  0  0  0  0  0  0  0  0  0  0  0
   55.6920   31.4009   42.9948 H   0  0  0  0  0  0  0  0  0  0  0  0
   59.1318   32.6131   43.7028 H   0  0  0  0  0  0  0  0  0  0  0  0
   57.6682   32.8009   42.6659 H   0  0  0  0  0  0  0  0  0  0  0  0
   56.5830   33.5150   44.8790 H   0  0  0  0  0  0  0  0  0  0  0  0
   57.5300   34.6160   44.0070 H   0  0  0  0  0  0  0  0  0  0  0  0
   60.0177   34.8223   44.5508 H   0  0  0  0  0  0  0  0  0  0  0  0
   61.5522   35.0285   46.5038 H   0  0  0  0  0  0  0  0  0  0  0  0
   61.9011   34.9295   48.8273 H   0  0  0  0  0  0  0  0  0  0  0  0
   60.5419   34.5304   49.9472 H   0  0  0  0  0  0  0  0  0  0  0  0
   63.0813   33.7638   50.7245 H   0  0  0  0  0  0  0  0  0  0  0  0
   63.4029   32.0296   50.2923 H   0  0  0  0  0  0  0  0  0  0  0  0
   64.3791   34.5149   49.0224 H   0  0  0  0  0  0  0  0  0  0  0  0
   64.9985   32.8019   48.9388 H   0  0  0  0  0  0  0  0  0  0  0  0
   62.7769   31.9266   46.2929 H   0  0  0  0  0  0  0  0  0  0  0  0
   63.7128   31.2905   47.6994 H   0  0  0  0  0  0  0  0  0  0  0  0
   60.8734   32.2545   47.5424 H   0  0  0  0  0  0  0  0  0  0  0  0
   61.6392   30.9547   48.5630 H   0  0  0  0  0  0  0  0  0  0  0  0
   58.5944   33.1189   49.0282 H   0  0  0  0  0  0  0  0  0  0  0  0
   57.0615   32.9087   47.0748 H   0  0  0  0  0  0  0  0  0  0  0  0
   59.1846   30.9542   45.5130 H   0  0  0  0  0  0  0  0  0  0  0  0
   58.2938   28.7860   46.3645 H   0  0  0  0  0  0  0  0  0  0  0  0
  1  2  1  0
  2  3  1  0
  3  4  1  0
  4  5  2  0
  5  6  1  0
  6  7  2  0
  7  8  1  0
  8  9  1  0
  9 10  1  0
 10 11  2  0
 11 12  1  0
 12 13  2  0
 13 14  1  0
 14 15  1  0
 15 16  1  0
 16 17  1  0
 17 18  1  0
 18 19  1  0
 19 20  1  0
 13 21  1  0
 21 22  2  0
  7 23  1  0
 23 24  2  0
 24  4  1  0
 22 10  1  0
 20 15  1  0
  1 25  1  0
  1 26  1  0
  1 27  1  0
  2 28  1  0
  2 29  1  0
  5 30  1  0
  6 31  1  0
  8 32  1  0
  8 33  1  0
  9 34  1  0
  9 35  1  0
 11 36  1  0
 12 37  1  0
 14 38  1  0
 14 39  1  0
 16 40  1  0
 16 41  1  0
 17 42  1  0
 17 43  1  0
 19 44  1  0
 19 45  1  0
 20 46  1  0
 20 47  1  0
 21 48  1  0
 22 49  1  0
 23 50  1  0
 24 51  1  0
M  CHG  1   9   1
M  END
>  <UniqueID>  (5) 
5

>  <SMILES>  (5) 
CCOc1ccc(C[NH2+]c2ccc(CN3CCOCC3)cc2)cc1

>  <Energy>  (5) 
61.825134415940774

>  <Genealogy>  (5) 
CCOc1ccc(C[NH2+]c2ccc(CN3CCOCC3)cc2)cc1 (protonated)
CCOc1ccc(C[NH2+]c2ccc(CN3CCOCC3)cc2)cc1 (3D coordinates assigned)
CCOc1ccc(C[NH2+]c2ccc(CN3CCOCC3)cc2)cc1 (nonaromatic ring conformer: 61.825134415940774 kcal/mol)

>  <smiles>  (5) 
CCOc1ccc(CNc2ccc(CN3CCOCC3)cc2)cc1

>  <score_type>  (5) 
oracle

>  <origin>  (5) 
adg

>  <m_score__min__energy>  (5) 
-6.2199999999999998

>  <m_primary>  (5) 
energy

$$$$
5:0
     RDKit          3D

 81 85  0  0  0  0  0  0  0  0999 V2000
   57.4720   25.0370   44.0570 C   0  0  0  0  0  0  0  0  0  0  0  0
   58.0080   25.8210   45.2320 C   0  0  0  0  0  0  0  0  0  0  0  0
   58.1010   25.2080   46.4970 C   0  0  0  0  0  0  0  0  0  0  0  0
   57.7290   23.8740   46.6800 O   0  0  0  0  0  0  0  0  0  0  0  0
   56.4990   23.5440   47.3150 C   0  0  0  0  0  0  0  0  0  0  0  0
   56.2610   22.0360   47.2340 C   0  0  0  0  0  0  0  0  0  0  0  0
   57.4500   21.3380   46.9070 O   0  0  0  0  0  0  0  0  0  0  0  0
   57.4650   20.9420   45.5440 C   0  0  0  0  0  0  0  0  0  0  0  0
   56.1190   21.2760   44.8980 C   0  0  0  0  0  0  0  0  0  0  0  0
   56.2550   21.4170   43.4280 N   0  0  0  0  0  0  0  0  0  0  0  0
   55.8960   22.7760   42.9870 C   0  0  0  0  0  0  0  0  0  0  0  0
   57.6380   21.1180   43.0150 C   0  0  0  0  0  0  0  0  0  0  0  0
   58.5870   25.9250   47.5900 C   0  0  0  0  0  0  0  0  0  0  0  0
   58.9990   27.2460   47.4480 C   0  0  0  0  0  0  0  0  0  0  0  0
   58.9070   27.8990   46.2000 C   0  0  0  0  0  0  0  0  0  0  0  0
   58.4300   27.1730   45.0850 C   0  0  0  0  0  0  0  0  0  0  0  0
   58.4360   27.8720   43.7490 C   0  0  0  0  0  0  0  0  0  0  0  0
   57.8560   29.2710   43.9180 C   0  0  0  0  0  0  0  0  0  0  0  0
   58.6760   30.1500   44.9030 C   0  0  2  0  0  0  0  0  0  0  0  0
   59.4640   29.3120   45.9850 C   0  0  1  0  0  0  0  0  0  0  0  0
   59.6630   30.0990   47.3080 C   0  0  0  0  0  0  0  0  0  0  0  0
   59.8750   31.5860   47.0370 C   0  0  0  0  0  0  0  0  0  0  0  0
   58.5920   32.2400   46.4410 C   0  0  1  0  0  0  0  0  0  0  0  0
   57.6900   32.7450   47.6030 C   0  0  0  0  0  0  0  0  0  0  0  0
   58.9530   33.4030   45.4790 C   0  0  2  0  0  0  0  0  0  0  0  0
   59.0070   34.6550   46.1520 O   0  0  0  0  0  0  0  0  0  0  0  0
   60.3410   35.0500   46.3950 C   0  0  0  0  0  0  0  0  0  0  0  0
   60.7770   34.4670   47.7140 C   0  0  0  0  0  0  0  0  0  0  0  0
   59.8730   34.4840   48.7910 C   0  0  0  0  0  0  0  0  0  0  0  0
   60.2210   33.9160   50.0210 C   0  0  0  0  0  0  0  0  0  0  0  0
   61.4700   33.3180   50.1860 C   0  0  0  0  0  0  0  0  0  0  0  0
   62.3730   33.2830   49.1220 C   0  0  0  0  0  0  0  0  0  0  0  0
   62.0360   33.8440   47.8830 C   0  0  0  0  0  0  0  0  0  0  0  0
   63.2160   33.7350   46.5790 Cl  0  0  0  0  0  0  0  0  0  0  0  0
   57.8500   33.4440   44.4210 C   0  0  0  0  0  0  0  0  0  0  0  0
   57.0520   32.1500   44.5430 C   0  0  0  0  0  0  0  0  0  0  0  0
   57.7790   31.2500   45.5590 C   0  0  1  0  0  0  0  0  0  0  0  0
   56.8867   24.1809   44.4238 H   0  0  0  0  0  0  0  0  0  0  0  0
   56.8281   25.6865   43.4459 H   0  0  0  0  0  0  0  0  0  0  0  0
   58.3110   24.6727   43.4459 H   0  0  0  0  0  0  0  0  0  0  0  0
   56.5394   23.8509   48.3705 H   0  0  0  0  0  0  0  0  0  0  0  0
   55.6764   24.0687   46.8070 H   0  0  0  0  0  0  0  0  0  0  0  0
   55.8939   21.6796   48.2078 H   0  0  0  0  0  0  0  0  0  0  0  0
   55.5213   21.8460   46.4424 H   0  0  0  0  0  0  0  0  0  0  0  0
   58.2676   21.4777   45.0159 H   0  0  0  0  0  0  0  0  0  0  0  0
   57.6420   19.8582   45.4803 H   0  0  0  0  0  0  0  0  0  0  0  0
   55.4047   20.4688   45.1173 H   0  0  0  0  0  0  0  0  0  0  0  0
   55.7602   22.2308   45.3098 H   0  0  0  0  0  0  0  0  0  0  0  0
   55.7274   23.4144   43.8668 H   0  0  0  0  0  0  0  0  0  0  0  0
   56.7146   23.1936   42.3825 H   0  0  0  0  0  0  0  0  0  0  0  0
   54.9779   22.7348   42.3825 H   0  0  0  0  0  0  0  0  0  0  0  0
   58.2661   20.9822   43.9078 H   0  0  0  0  0  0  0  0  0  0  0  0
   57.6502   20.1965   42.4145 H   0  0  0  0  0  0  0  0  0  0  0  0
   58.0298   21.9522   42.4145 H   0  0  0  0  0  0  0  0  0  0  0  0
   58.6452   25.4403   48.5758 H   0  0  0  0  0  0  0  0  0  0  0  0
   59.4007   27.7873   48.3173 H   0  0  0  0  0  0  0  0  0  0  0  0
   59.4679   27.9434   43.3748 H   0  0  0  0  0  0  0  0  0  0  0  0
   57.8294   27.3028   43.0292 H   0  0  0  0  0  0  0  0  0  0  0  0
   57.8404   29.7656   42.9356 H   0  0  0  0  0  0  0  0  0  0  0  0
   56.8448   29.1610   44.3367 H   0  0  0  0  0  0  0  0  0  0  0  0
   59.4468   30.6526   44.3004 H   0  0  0  0  0  0  0  0  0  0  0  0
   60.4679   29.1526   45.5646 H   0  0  0  0  0  0  0  0  0  0  0  0
   58.7707   29.9725   47.9388 H   0  0  0  0  0  0  0  0  0  0  0  0
   60.5555   29.7062   47.8170 H   0  0  0  0  0  0  0  0  0  0  0  0
   60.1289   32.0900   47.9812 H   0  0  0  0  0  0  0  0  0  0  0  0
   60.6913   31.6937   46.3075 H   0  0  0  0  0  0  0  0  0  0  0  0
   58.1534   32.4855   48.5663 H   0  0  0  0  0  0  0  0  0  0  0  0
   57.5781   33.8370   47.5323 H   0  0  0  0  0  0  0  0  0  0  0  0
   56.7005   32.2696   47.5323 H   0  0  0  0  0  0  0  0  0  0  0  0
   59.9484   33.2318   45.0432 H   0  0  0  0  0  0  0  0  0  0  0  0
   60.9915   34.6763   45.5905 H   0  0  0  0  0  0  0  0  0  0  0  0
   60.4106   36.1474   46.4254 H   0  0  0  0  0  0  0  0  0  0  0  0
   58.8836   34.9480   48.6651 H   0  0  0  0  0  0  0  0  0  0  0  0
   59.5088   33.9410   50.8589 H   0  0  0  0  0  0  0  0  0  0  0  0
   61.7436   32.8739   51.1545 H   0  0  0  0  0  0  0  0  0  0  0  0
   63.3574   32.8111   49.2574 H   0  0  0  0  0  0  0  0  0  0  0  0
   57.1930   34.3087   44.5962 H   0  0  0  0  0  0  0  0  0  0  0  0
   58.2816   33.5404   43.4138 H   0  0  0  0  0  0  0  0  0  0  0  0
   56.0338   32.3690   44.8969 H   0  0  0  0  0  0  0  0  0  0  0  0
   56.9765   31.6487   43.5668 H   0  0  0  0  0  0  0  0  0  0  0  0
   57.0631   30.6564   46.1465 H   0  0  0  0  0  0  0  0  0  0  0  0
  1  2  1  0
  2  3  2  0
  3  4  1  0
  4  5  1  0
  5  6  1  0
  6  7  1  0
  7  8  1  0
  8  9  1  0
  9 10  1  0
 10 11  1  0
 10 12  1  0
  3 13  1  0
 13 14  2  0
 14 15  1  0
 15 16  2  0
 16 17  1  0
 17 18  1  0
 18 19  1  0
 19 20  1  0
 20 21  1  0
 21 22  1  0
 22 23  1  0
 23 24  1  1
 23 25  1  0
 25 26  1  0
 26 27  1  0
 27 28  1  0
 28 29  2  0
 29 30  1  0
 30 31  2  0
 31 32  1  0
 32 33  2  0
 33 34  1  0
 25 35  1  0
 35 36  1  0
 36 37  1  0
 16  2  1  0
 37 19  1  0
 20 15  1  0
 37 23  1  0
 33 28  1  0
  1 38  1  0
  1 39  1  0
  1 40  1  0
  5 41  1  0
  5 42  1  0
  6 43  1  0
  6 44  1  0
  8 45  1  0
  8 46  1  0
  9 47  1  0
  9 48  1  0
 11 49  1  0
 11 50  1  0
 11 51  1  0
 12 52  1  0
 12 53  1  0
 12 54  1  0
 13 55  1  0
 14 56  1  0
 17 57  1  0
 17 58  1  0
 18 59  1  0
 18 60  1  0
 19 61  1  6
 20 62  1  6
 21 63  1  0
 21 64  1  0
 22 65  1  0
 22 66  1  0
 24 67  1  0
 24 68  1  0
 24 69  1  0
 25 70  1  6
 27 71  1  0
 27 72  1  0
 29 73  1  0
 30 74  1  0
 31 75  1  0
 32 76  1  0
 35 77  1  0
 35 78  1  0
 36 79  1  0
 36 80  1  0
 37 81  1  1
M  END
>  <UniqueID>  (6) 
6

>  <SMILES>  (6) 
Cc1c(OCCOCCN(C)C)ccc2c1CC[C@H]1C3CCC(OCc4ccccc4Cl)C3(C)CC[C@@H]21

>  <Energy>  (6) 
114.83227381657758

>  <Genealogy>  (6) 
Cc1c(OCCOCCN(C)C)ccc2c1CC[C@H]1C3CCC(OCc4ccccc4Cl)C3(C)CC[C@@H]21 (chirality)
Cc1c(OCCOCCN(C)C)ccc2c1CC[C@H]1C3CCC(OCc4ccccc4Cl)C3(C)CC[C@@H]21 (3D coordinates assigned)
Cc1c(OCCOCCN(C)C)ccc2c1CC[C@H]1C3CCC(OCc4ccccc4Cl)C3(C)CC[C@@H]21 (nonaromatic ring conformer: 114.83227381657758 kcal/mol)

>  <smiles>  (6) 
Cc1c(OCCOCCN(C)C)ccc2c1CCC1C2CCC2(C)C(OCc3ccccc3Cl)CCC12

>  <score_type>  (6) 
oracle

>  <origin>  (6) 
adg

>  <m_score__min__energy>  (6) 
-10.85

>  <m_primary>  (6) 
energy

$$$$
6:0
     RDKit          3D

 46 49  0  0  0  0  0  0  0  0999 V2000
   63.5280   33.7620   46.7530 C   0  0  0  0  0  0  0  0  0  0  0  0
   63.9210   32.4170   47.1890 N   0  0  0  0  0  0  0  0  0  0  0  0
   62.7660   31.5580   47.5040 C   0  0  0  0  0  0  0  0  0  0  0  0
   62.0550   31.9500   48.8150 C   0  0  0  0  0  0  0  0  0  0  0  0
   60.6090   31.7280   48.7270 N   0  0  0  0  0  0  0  0  0  0  0  0
   59.9250   31.7210   47.4630 C   0  0  0  0  0  0  0  0  0  0  0  0
   59.5270   30.5120   46.8990 C   0  0  0  0  0  0  0  0  0  0  0  0
   58.8230   30.4830   45.7090 C   0  0  0  0  0  0  0  0  0  0  0  0
   58.3990   31.6310   45.0900 N   0  0  0  0  0  0  0  0  0  0  0  0
   57.3780   31.5670   44.0320 C   0  0  0  0  0  0  0  0  0  0  0  0
   58.9160   32.8420   45.5220 C   0  0  0  0  0  0  0  0  0  0  0  0
   58.7300   34.0350   44.7820 C   0  0  0  0  0  0  0  0  0  0  0  0
   59.2660   35.2440   45.2240 C   0  0  0  0  0  0  0  0  0  0  0  0
   60.0170   35.2940   46.3950 C   0  0  0  0  0  0  0  0  0  0  0  0
   60.2400   34.1360   47.1350 C   0  0  0  0  0  0  0  0  0  0  0  0
   59.6880   32.9040   46.7280 C   0  0  0  0  0  0  0  0  0  0  0  0
   58.6140   29.0750   45.3490 C   0  0  0  0  0  0  0  0  0  0  0  0
   58.1530   28.4760   44.1660 C   0  0  0  0  0  0  0  0  0  0  0  0
   58.1420   27.0750   44.0790 C   0  0  0  0  0  0  0  0  0  0  0  0
   58.6270   26.2920   45.1420 C   0  0  0  0  0  0  0  0  0  0  0  0
   59.1470   26.9040   46.2910 C   0  0  0  0  0  0  0  0  0  0  0  0
   59.1420   28.2980   46.3680 C   0  0  0  0  0  0  0  0  0  0  0  0
   59.7530   29.1330   47.4470 C   0  0  0  0  0  0  0  0  0  0  0  0
   63.3434   34.3938   47.6343 H   0  0  0  0  0  0  0  0  0  0  0  0
   64.3351   34.2021   46.1489 H   0  0  0  0  0  0  0  0  0  0  0  0
   62.6109   33.6983   46.1489 H   0  0  0  0  0  0  0  0  0  0  0  0
   64.4570   31.9670   46.4110 H   0  0  0  0  0  0  0  0  0  0  0  0
   64.5540   32.4900   48.0180 H   0  0  0  0  0  0  0  0  0  0  0  0
   62.0420   31.6298   46.6790 H   0  0  0  0  0  0  0  0  0  0  0  0
   63.1466   30.5340   47.6329 H   0  0  0  0  0  0  0  0  0  0  0  0
   62.4608   31.3427   49.6375 H   0  0  0  0  0  0  0  0  0  0  0  0
   62.2301   33.0207   48.9967 H   0  0  0  0  0  0  0  0  0  0  0  0
   60.0360   31.8810   49.5850 H   0  0  0  0  0  0  0  0  0  0  0  0
   56.3795   31.5044   44.4893 H   0  0  0  0  0  0  0  0  0  0  0  0
   57.4395   32.4708   43.4080 H   0  0  0  0  0  0  0  0  0  0  0  0
   57.5519   30.6780   43.4080 H   0  0  0  0  0  0  0  0  0  0  0  0
   58.1544   34.0075   43.8450 H   0  0  0  0  0  0  0  0  0  0  0  0
   59.0945   36.1630   44.6443 H   0  0  0  0  0  0  0  0  0  0  0  0
   60.4358   36.2520   46.7369 H   0  0  0  0  0  0  0  0  0  0  0  0
   60.8534   34.1827   48.0469 H   0  0  0  0  0  0  0  0  0  0  0  0
   57.8070   29.0927   43.3234 H   0  0  0  0  0  0  0  0  0  0  0  0
   57.7517   26.5865   43.1740 H   0  0  0  0  0  0  0  0  0  0  0  0
   58.5981   25.1946   45.0714 H   0  0  0  0  0  0  0  0  0  0  0  0
   59.5509   26.2980   47.1154 H   0  0  0  0  0  0  0  0  0  0  0  0
   59.2389   28.9906   48.4090 H   0  0  0  0  0  0  0  0  0  0  0  0
   60.8050   28.8966   47.6646 H   0  0  0  0  0  0  0  0  0  0  0  0
  1  2  1  0
  2  3  1  0
  3  4  1  0
  4  5  1  0
  5  6  1  0
  6  7  2  0
  7  8  1  0
  8  9  2  0
  9 10  1  0
  9 11  1  0
 11 12  2  0
 12 13  1  0
 13 14  2  0
 14 15  1  0
 15 16  2  0
  8 17  1  0
 17 18  2  0
 18 19  1  0
 19 20  2  0
 20 21  1  0
 21 22  2  0
 22 23  1  0
 16  6  1  0
 22 17  1  0
 23  7  1  0
 16 11  1  0
  1 24  1  0
  1 25  1  0
  1 26  1  0
  2 27  1  0
  2 28  1  0
  3 29  1  0
  3 30  1  0
  4 31  1  0
  4 32  1  0
  5 33  1  0
 10 34  1  0
 10 35  1  0
 10 36  1  0
 12 37  1  0
 13 38  1  0
 14 39  1  0
 15 40  1  0
 18 41  1  0
 19 42  1  0
 20 43  1  0
 21 44  1  0
 23 45  1  0
 23 46  1  0
M  CHG  2   2   1   9   1
M  END
>  <UniqueID>  (7) 
7

>  <SMILES>  (7) 
C[NH2+]CCNc1c2c([n+](C)c3ccccc13)-c1ccccc1C2

>  <Energy>  (7) 
91.57861445728238

>  <Genealogy>  (7) 
C[NH2+]CCNc1c2c([n+](C)c3ccccc13)-c1ccccc1C2 (protonated)
C[NH2+]CCNc1c2c([n+](C)c3ccccc13)-c1ccccc1C2 (3D coordinates assigned)
C[NH2+]CCNc1c2c([n+](C)c3ccccc13)-c1ccccc1C2 (nonaromatic ring conformer: 91.57861445728238 kcal/mol)

>  <smiles>  (7) 
CNCCNc1c2c([n+](C)c3ccccc13)-c1ccccc1C2

>  <score_type>  (7) 
oracle

>  <origin>  (7) 
adg

>  <m_score__min__energy>  (7) 
-5.0499999999999998

>  <m_primary>  (7) 
energy

$$$$
7:0
     RDKit          3D

 51 54  0  0  0  0  0  0  0  0999 V2000
   64.6080   33.0780   49.0050 C   0  0  0  0  0  0  0  0  0  0  0  0
   63.3430   32.9720   48.2630 N   0  0  0  0  0  0  0  0  0  0  0  0
   63.3550   33.8220   47.0610 C   0  0  0  0  0  0  0  0  0  0  0  0
   62.1490   33.1840   49.1130 C   0  0  0  0  0  0  0  0  0  0  0  0
   60.9530   32.2660   48.7720 C   0  0  0  0  0  0  0  0  0  0  0  0
   61.2380   31.3600   47.6390 N   0  0  0  0  0  0  0  0  0  0  0  0
   60.0300   30.9600   46.9250 C   0  0  0  0  0  0  0  0  0  0  0  0
   59.6220   29.5960   46.8580 C   0  0  0  0  0  0  0  0  0  0  0  0
   58.4740   29.2430   46.1020 C   0  0  0  0  0  0  0  0  0  0  0  0
   57.8820   30.1850   45.2860 N   0  0  0  0  0  0  0  0  0  0  0  0
   57.0810   29.7670   44.1160 C   0  0  0  0  0  0  0  0  0  0  0  0
   58.1180   31.5250   45.4950 C   0  0  0  0  0  0  0  0  0  0  0  0
   57.2780   32.5140   44.9230 C   0  0  0  0  0  0  0  0  0  0  0  0
   57.5480   33.8700   45.0820 C   0  0  0  0  0  0  0  0  0  0  0  0
   56.7300   34.7950   44.5220 F   0  0  0  0  0  0  0  0  0  0  0  0
   58.6540   34.2750   45.8150 C   0  0  0  0  0  0  0  0  0  0  0  0
   59.4800   33.3290   46.4170 C   0  0  0  0  0  0  0  0  0  0  0  0
   59.2150   31.9410   46.2960 C   0  0  0  0  0  0  0  0  0  0  0  0
   57.9140   27.8480   46.2600 C   0  0  0  0  0  0  0  0  0  0  0  0
   56.7910   27.4570   45.5930 N   0  0  0  0  0  0  0  0  0  0  0  0
   56.2370   26.2250   45.7380 C   0  0  0  0  0  0  0  0  0  0  0  0
   56.8020   25.3080   46.6170 C   0  0  0  0  0  0  0  0  0  0  0  0
   57.9240   25.6780   47.3540 C   0  0  0  0  0  0  0  0  0  0  0  0
   58.4900   26.9490   47.1840 C   0  0  0  0  0  0  0  0  0  0  0  0
   59.5930   27.3940   48.0910 C   0  0  0  0  0  0  0  0  0  0  0  0
   60.4610   28.4560   47.4260 C   0  0  0  0  0  0  0  0  0  0  0  0
   64.4019   33.0607   50.0854 H   0  0  0  0  0  0  0  0  0  0  0  0
   65.2592   32.2313   48.7424 H   0  0  0  0  0  0  0  0  0  0  0  0
   65.1092   34.0213   48.7424 H   0  0  0  0  0  0  0  0  0  0  0  0
   63.3699   34.8803   47.3605 H   0  0  0  0  0  0  0  0  0  0  0  0
   64.2501   33.5977   46.4622 H   0  0  0  0  0  0  0  0  0  0  0  0
   62.4540   33.6231   46.4622 H   0  0  0  0  0  0  0  0  0  0  0  0
   62.4348   33.0026   50.1596 H   0  0  0  0  0  0  0  0  0  0  0  0
   61.8143   34.2164   48.9334 H   0  0  0  0  0  0  0  0  0  0  0  0
   60.7113   31.6587   49.6568 H   0  0  0  0  0  0  0  0  0  0  0  0
   60.1105   32.9102   48.4803 H   0  0  0  0  0  0  0  0  0  0  0  0
   61.8810   31.8430   46.9730 H   0  0  0  0  0  0  0  0  0  0  0  0
   61.8160   30.5510   47.9500 H   0  0  0  0  0  0  0  0  0  0  0  0
   56.1546   29.2836   44.4597 H   0  0  0  0  0  0  0  0  0  0  0  0
   56.8307   30.6494   43.5089 H   0  0  0  0  0  0  0  0  0  0  0  0
   57.6617   29.0569   43.5089 H   0  0  0  0  0  0  0  0  0  0  0  0
   56.3965   32.2036   44.3428 H   0  0  0  0  0  0  0  0  0  0  0  0
   58.8792   35.3465   45.9210 H   0  0  0  0  0  0  0  0  0  0  0  0
   60.3530   33.6641   46.9963 H   0  0  0  0  0  0  0  0  0  0  0  0
   55.3415   25.9531   45.1600 H   0  0  0  0  0  0  0  0  0  0  0  0
   56.3684   24.3033   46.7288 H   0  0  0  0  0  0  0  0  0  0  0  0
   58.3671   24.9713   48.0711 H   0  0  0  0  0  0  0  0  0  0  0  0
   59.1552   27.8123   49.0094 H   0  0  0  0  0  0  0  0  0  0  0  0
   60.2248   26.5239   48.3229 H   0  0  0  0  0  0  0  0  0  0  0  0
   61.1588   28.8643   48.1719 H   0  0  0  0  0  0  0  0  0  0  0  0
   61.0046   27.9832   46.5947 H   0  0  0  0  0  0  0  0  0  0  0  0
  1  2  1  0
  2  3  1  0
  2  4  1  0
  4  5  1  0
  5  6  1  0
  6  7  1  0
  7  8  2  0
  8  9  1  0
  9 10  2  0
 10 11  1  0
 10 12  1  0
 12 13  2  0
 13 14  1  0
 14 15  1  0
 14 16  2  0
 16 17  1  0
 17 18  2  0
  9 19  1  0
 19 20  2  0
 20 21  1  0
 21 22  2  0
 22 23  1  0
 23 24  2  0
 24 25  1  0
 25 26  1  0
 18  7  1  0
 24 19  1  0
 26  8  1  0
 18 12  1  0
  1 27  1  0
  1 28  1  0
  1 29  1  0
  3 30  1  0
  3 31  1  0
  3 32  1  0
  4 33  1  0
  4 34  1  0
  5 35  1  0
  5 36  1  0
  6 37  1  0
  6 38  1  0
 11 39  1  0
 11 40  1  0
 11 41  1  0
 13 42  1  0
 16 43  1  0
 17 44  1  0
 21 45  1  0
 22 46  1  0
 23 47  1  0
 25 48  1  0
 25 49  1  0
 26 50  1  0
 26 51  1  0
M  CHG  2   6   1  10   1
M  END
>  <UniqueID>  (8) 
8

>  <SMILES>  (8) 
CN(C)CC[NH2+]c1c2c([n+](C)c3cc(F)ccc13)-c1ncccc1CC2

>  <Energy>  (8) 
91.54689921375406

>  <Genealogy>  (8) 
CN(C)CC[NH2+]c1c2c([n+](C)c3cc(F)ccc13)-c1ncccc1CC2 (protonated)
CN(C)CC[NH2+]c1c2c([n+](C)c3cc(F)ccc13)-c1ncccc1CC2 (3D coordinates assigned)
CN(C)CC[NH2+]c1c2c([n+](C)c3cc(F)ccc13)-c1ncccc1CC2 (nonaromatic ring conformer: 91.54689921375406 kcal/mol)

>  <smiles>  (8) 
CN(C)CCNc1c2c([n+](C)c3cc(F)ccc13)-c1ncccc1CC2

>  <score_type>  (8) 
oracle

>  <origin>  (8) 
adg

>  <m_score__min__energy>  (8) 
-4.3399999999999999

>  <m_primary>  (8) 
energy

$$$$
8:0
     RDKit          3D

 52 54  0  0  0  0  0  0  0  0999 V2000
   65.2170   32.4500   49.7920 C   0  0  0  0  0  0  0  0  0  0  0  0
   63.7590   32.0010   49.9040 C   0  0  0  0  0  0  0  0  0  0  0  0
   62.8710   32.8000   49.0280 N   0  0  0  0  0  0  0  0  0  0  0  0
   63.0100   34.2410   49.3160 C   0  0  0  0  0  0  0  0  0  0  0  0
   63.1630   32.5270   47.6000 C   0  0  0  0  0  0  0  0  0  0  0  0
   62.4850   31.2260   47.1290 C   0  0  0  0  0  0  0  0  0  0  0  0
   61.2880   30.8790   47.9250 N   0  0  0  0  0  0  0  0  0  0  0  0
   60.0520   30.9740   47.1440 C   0  0  0  0  0  0  0  0  0  0  0  0
   59.5820   29.8420   46.4300 C   0  0  0  0  0  0  0  0  0  0  0  0
   59.8530   28.5230   46.8680 C   0  0  0  0  0  0  0  0  0  0  0  0
   59.4920   27.4200   46.1000 C   0  0  0  0  0  0  0  0  0  0  0  0
   58.8670   27.6020   44.8770 C   0  0  0  0  0  0  0  0  0  0  0  0
   58.5310   28.8850   44.4500 C   0  0  0  0  0  0  0  0  0  0  0  0
   58.8150   30.0250   45.2480 C   0  0  0  0  0  0  0  0  0  0  0  0
   58.3890   31.2850   44.8820 N   0  0  0  0  0  0  0  0  0  0  0  0
   57.4160   31.4400   43.7760 C   0  0  0  0  0  0  0  0  0  0  0  0
   58.8090   32.3940   45.5890 C   0  0  0  0  0  0  0  0  0  0  0  0
   58.6030   33.7050   45.0910 C   0  0  0  0  0  0  0  0  0  0  0  0
   58.9230   34.8230   45.8490 C   0  0  0  0  0  0  0  0  0  0  0  0
   59.4090   34.6710   47.1360 C   0  0  0  0  0  0  0  0  0  0  0  0
   59.6680   33.3950   47.6550 C   0  0  0  0  0  0  0  0  0  0  0  0
   59.9360   33.2650   49.0620 N   0  0  0  0  0  0  0  0  0  0  0  0
   58.9670   32.7150   50.0050 C   0  0  0  0  0  0  0  0  0  0  0  0
   59.4990   32.2470   46.8240 C   0  0  0  0  0  0  0  0  0  0  0  0
   65.6391   32.5800   50.7995 H   0  0  0  0  0  0  0  0  0  0  0  0
   65.7945   31.6881   49.2480 H   0  0  0  0  0  0  0  0  0  0  0  0
   65.2659   33.4048   49.2480 H   0  0  0  0  0  0  0  0  0  0  0  0
   63.6885   30.9426   49.6129 H   0  0  0  0  0  0  0  0  0  0  0  0
   63.4345   32.1459   50.9450 H   0  0  0  0  0  0  0  0  0  0  0  0
   63.0251   34.3975   50.4047 H   0  0  0  0  0  0  0  0  0  0  0  0
   63.9482   34.6134   48.8790 H   0  0  0  0  0  0  0  0  0  0  0  0
   62.1602   34.7859   48.8790 H   0  0  0  0  0  0  0  0  0  0  0  0
   62.7919   33.3650   46.9918 H   0  0  0  0  0  0  0  0  0  0  0  0
   64.2509   32.4136   47.4835 H   0  0  0  0  0  0  0  0  0  0  0  0
   62.1842   31.3478   46.0780 H   0  0  0  0  0  0  0  0  0  0  0  0
   63.2126   30.4107   47.2552 H   0  0  0  0  0  0  0  0  0  0  0  0
   61.4570   29.9300   48.3130 H   0  0  0  0  0  0  0  0  0  0  0  0
   61.2530   31.4810   48.7700 H   0  0  0  0  0  0  0  0  0  0  0  0
   60.3580   28.3674   47.8328 H   0  0  0  0  0  0  0  0  0  0  0  0
   59.7029   26.4036   46.4640 H   0  0  0  0  0  0  0  0  0  0  0  0
   58.6360   26.7333   44.2429 H   0  0  0  0  0  0  0  0  0  0  0  0
   58.0364   29.0175   43.4764 H   0  0  0  0  0  0  0  0  0  0  0  0
   56.4104   31.6002   44.1921 H   0  0  0  0  0  0  0  0  0  0  0  0
   57.6988   32.3044   43.1573 H   0  0  0  0  0  0  0  0  0  0  0  0
   57.4162   30.5305   43.1573 H   0  0  0  0  0  0  0  0  0  0  0  0
   58.1812   33.8391   44.0840 H   0  0  0  0  0  0  0  0  0  0  0  0
   58.7903   35.8300   45.4267 H   0  0  0  0  0  0  0  0  0  0  0  0
   59.5937   35.5598   47.7573 H   0  0  0  0  0  0  0  0  0  0  0  0
   60.8770   33.5340   49.4230 H   0  0  0  0  0  0  0  0  0  0  0  0
   59.3063   32.9076   51.0335 H   0  0  0  0  0  0  0  0  0  0  0  0
   57.9889   33.1926   49.8461 H   0  0  0  0  0  0  0  0  0  0  0  0
   58.8756   31.6304   49.8461 H   0  0  0  0  0  0  0  0  0  0  0  0
  1  2  1  0
  2  3  1  0
  3  4  1  0
  3  5  1  0
  5  6  1  0
  6  7  1  0
  7  8  1  0
  8  9  2  0
  9 10  1  0
 10 11  2  0
 11 12  1  0
 12 13  2  0
 13 14  1  0
 14 15  2  0
 15 16  1  0
 15 17  1  0
 17 18  2  0
 18 19  1  0
 19 20  2  0
 20 21  1  0
 21 22  1  0
 22 23  1  0
 21 24  2  0
 24  8  1  0
 14  9  1  0
 24 17  1  0
  1 25  1  0
  1 26  1  0
  1 27  1  0
  2 28  1  0
  2 29  1  0
  4 30  1  0
  4 31  1  0
  4 32  1  0
  5 33  1  0
  5 34  1  0
  6 35  1  0
  6 36  1  0
  7 37  1  0
  7 38  1  0
 10 39  1  0
 11 40  1  0
 12 41  1  0
 13 42  1  0
 16 43  1  0
 16 44  1  0
 16 45  1  0
 18 46  1  0
 19 47  1  0
 20 48  1  0
 22 49  1  0
 23 50  1  0
 23 51  1  0
 23 52  1  0
M  CHG  2   7   1  15   1
M  END
>  <UniqueID>  (9) 
9

>  <SMILES>  (9) 
CCN(C)CC[NH2+]c1c2ccccc2[n+](C)c2cccc(NC)c12

>  <Energy>  (9) 
95.23351842787929

>  <Genealogy>  (9) 
CCN(C)CC[NH2+]c1c2ccccc2[n+](C)c2cccc(NC)c12 (protonated)
CCN(C)CC[NH2+]c1c2ccccc2[n+](C)c2cccc(NC)c12 (3D coordinates assigned)
CCN(C)CC[NH2+]c1c2ccccc2[n+](C)c2cccc(NC)c12 (optimized conformer: 95.23351842787929 kcal/mol)

>  <smiles>  (9) 
CCN(C)CCNc1c2ccccc2[n+](C)c2cccc(NC)c12

>  <score_type>  (9) 
oracle

>  <origin>  (9) 
adg

>  <m_score__min__energy>  (9) 
-3.5499999999999998

>  <m_primary>  (9) 
energy

$$$$
9:0
     RDKit          3D

 68 71  0  0  0  0  0  0  0  0999 V2000
   63.2400   33.8370   50.2050 C   0  0  0  0  0  0  0  0  0  0  0  0
   62.5600   32.5550   50.6770 C   0  0  0  0  0  0  0  0  0  0  0  0
   62.5540   31.5490   49.6050 N   0  0  0  0  0  0  0  0  0  0  0  0
   63.2180   32.0520   48.3930 C   0  0  0  0  0  0  0  0  0  0  0  0
   62.5650   31.4700   47.1310 C   0  0  0  0  0  0  0  0  0  0  0  0
   61.3470   30.7220   47.4480 N   0  0  0  0  0  0  0  0  0  0  0  0
   60.1500   30.8560   46.6710 C   0  0  0  0  0  0  0  0  0  0  0  0
   59.6650   29.7310   45.9820 C   0  0  0  0  0  0  0  0  0  0  0  0
   60.1280   28.4330   46.2900 C   0  0  0  0  0  0  0  0  0  0  0  0
   59.6200   27.3210   45.6220 C   0  0  0  0  0  0  0  0  0  0  0  0
   58.6450   27.4810   44.6450 C   0  0  0  0  0  0  0  0  0  0  0  0
   58.1960   28.7560   44.3060 C   0  0  0  0  0  0  0  0  0  0  0  0
   58.7250   29.9090   44.9390 C   0  0  0  0  0  0  0  0  0  0  0  0
   58.3650   31.1820   44.5530 N   0  0  0  0  0  0  0  0  0  0  0  0
   57.7010   31.3930   43.2470 C   0  0  0  0  0  0  0  0  0  0  0  0
   58.6290   32.2570   45.3840 C   0  0  0  0  0  0  0  0  0  0  0  0
   58.0150   33.5110   45.1600 C   0  0  0  0  0  0  0  0  0  0  0  0
   58.2590   34.5910   45.9930 C   0  0  0  0  0  0  0  0  0  0  0  0
   59.0610   34.4430   47.1110 C   0  0  0  0  0  0  0  0  0  0  0  0
   59.6670   33.2130   47.4180 C   0  0  0  0  0  0  0  0  0  0  0  0
   60.2700   33.0830   48.7340 N   0  0  0  0  0  0  0  0  0  0  0  0
   59.8220   34.1650   49.6260 C   0  0  0  0  0  0  0  0  0  0  0  0
   59.3250   33.5970   50.9650 C   0  0  0  0  0  0  0  0  0  0  0  0
   58.6500   32.2090   50.8460 C   0  0  0  0  0  0  0  0  0  0  0  0
   59.5370   31.0780   50.4830 N   0  0  0  0  0  0  0  0  0  0  0  0
   60.2280   30.4240   51.6060 C   0  0  0  0  0  0  0  0  0  0  0  0
   61.3090   29.4600   51.0680 C   0  0  0  0  0  0  0  0  0  0  0  0
   61.1420   29.1430   49.6940 O   0  0  0  0  0  0  0  0  0  0  0  0
   59.7880   28.8460   49.4240 C   0  0  0  0  0  0  0  0  0  0  0  0
   58.9340   30.1200   49.5360 C   0  0  0  0  0  0  0  0  0  0  0  0
   59.5080   32.1100   46.5030 C   0  0  0  0  0  0  0  0  0  0  0  0
   63.5537   34.4284   51.0778 H   0  0  0  0  0  0  0  0  0  0  0  0
   64.1217   33.5825   49.5985 H   0  0  0  0  0  0  0  0  0  0  0  0
   62.5348   34.4242   49.5985 H   0  0  0  0  0  0  0  0  0  0  0  0
   63.1045   32.1552   51.5452 H   0  0  0  0  0  0  0  0  0  0  0  0
   61.5206   32.7854   50.9536 H   0  0  0  0  0  0  0  0  0  0  0  0
   61.5530   31.3550   49.3690 H   0  0  0  0  0  0  0  0  0  0  0  0
   63.1382   33.1488   48.3671 H   0  0  0  0  0  0  0  0  0  0  0  0
   64.2740   31.7449   48.4167 H   0  0  0  0  0  0  0  0  0  0  0  0
   62.3098   32.2944   46.4490 H   0  0  0  0  0  0  0  0  0  0  0  0
   63.2804   30.7782   46.6624 H   0  0  0  0  0  0  0  0  0  0  0  0
   61.3760   30.0190   48.2220 H   0  0  0  0  0  0  0  0  0  0  0  0
   60.8972   28.2986   47.0648 H   0  0  0  0  0  0  0  0  0  0  0  0
   59.9911   26.3152   45.8683 H   0  0  0  0  0  0  0  0  0  0  0  0
   58.2265   26.5991   44.1379 H   0  0  0  0  0  0  0  0  0  0  0  0
   57.4192   28.8695   43.5355 H   0  0  0  0  0  0  0  0  0  0  0  0
   56.6645   31.7224   43.4116 H   0  0  0  0  0  0  0  0  0  0  0  0
   58.2445   32.1627   42.6794 H   0  0  0  0  0  0  0  0  0  0  0  0
   57.7005   30.4507   42.6794 H   0  0  0  0  0  0  0  0  0  0  0  0
   57.3302   33.6314   44.3076 H   0  0  0  0  0  0  0  0  0  0  0  0
   57.8132   35.5704   45.7646 H   0  0  0  0  0  0  0  0  0  0  0  0
   59.2275   35.3058   47.7728 H   0  0  0  0  0  0  0  0  0  0  0  0
   60.1030   32.1450   49.1470 H   0  0  0  0  0  0  0  0  0  0  0  0
   61.3130   33.1470   48.6590 H   0  0  0  0  0  0  0  0  0  0  0  0
   60.6628   34.8489   49.8141 H   0  0  0  0  0  0  0  0  0  0  0  0
   58.9933   34.7018   49.1411 H   0  0  0  0  0  0  0  0  0  0  0  0
   60.1860   33.5063   51.6436 H   0  0  0  0  0  0  0  0  0  0  0  0
   58.5608   34.2922   51.3427 H   0  0  0  0  0  0  0  0  0  0  0  0
   58.1893   31.9757   51.8172 H   0  0  0  0  0  0  0  0  0  0  0  0
   57.9348   32.3001   50.0153 H   0  0  0  0  0  0  0  0  0  0  0  0
   60.7032   31.1892   52.2374 H   0  0  0  0  0  0  0  0  0  0  0  0
   59.4972   29.8544   52.1989 H   0  0  0  0  0  0  0  0  0  0  0  0
   62.2944   29.9304   51.2010 H   0  0  0  0  0  0  0  0  0  0  0  0
   61.2199   28.5206   51.6334 H   0  0  0  0  0  0  0  0  0  0  0  0
   59.7011   28.4383   48.4060 H   0  0  0  0  0  0  0  0  0  0  0  0
   59.4291   28.1070   50.1555 H   0  0  0  0  0  0  0  0  0  0  0  0
   58.8597   30.5918   48.5451 H   0  0  0  0  0  0  0  0  0  0  0  0
   57.9359   29.8421   49.9057 H   0  0  0  0  0  0  0  0  0  0  0  0
  1  2  1  0
  2  3  1  0
  3  4  1  0
  4  5  1  0
  5  6  1  0
  6  7  1  0
  7  8  2  0
  8  9  1  0
  9 10  2  0
 10 11  1  0
 11 12  2  0
 12 13  1  0
 13 14  2  0
 14 15  1  0
 14 16  1  0
 16 17  2  0
 17 18  1  0
 18 19  2  0
 19 20  1  0
 20 21  1  0
 21 22  1  0
 22 23  1  0
 23 24  1  0
 24 25  1  0
 25 26  1  0
 26 27  1  0
 27 28  1  0
 28 29  1  0
 29 30  1  0
 20 31  2  0
 31  7  1  0
 13  8  1  0
 31 16  1  0
 30 25  1  0
  1 32  1  0
  1 33  1  0
  1 34  1  0
  2 35  1  0
  2 36  1  0
  3 37  1  0
  4 38  1  0
  4 39  1  0
  5 40  1  0
  5 41  1  0
  6 42  1  0
  9 43  1  0
 10 44  1  0
 11 45  1  0
 12 46  1  0
 15 47  1  0
 15 48  1  0
 15 49  1  0
 17 50  1  0
 18 51  1  0
 19 52  1  0
 21 53  1  0
 21 54  1  0
 22 55  1  0
 22 56  1  0
 23 57  1  0
 23 58  1  0
 24 59  1  0
 24 60  1  0
 26 61  1  0
 26 62  1  0
 27 63  1  0
 27 64  1  0
 29 65  1  0
 29 66  1  0
 30 67  1  0
 30 68  1  0
M  CHG  2  14   1  21   1
M  END
>  <UniqueID>  (10) 
10

>  <SMILES>  (10) 
CCNCCNc1c2ccccc2[n+](C)c2cccc([NH2+]CCCN3CCOCC3)c12

>  <Energy>  (10) 
116.21806692567357

>  <Genealogy>  (10) 
CCNCCNc1c2ccccc2[n+](C)c2cccc([NH2+]CCCN3CCOCC3)c12 (protonated)
CCNCCNc1c2ccccc2[n+](C)c2cccc([NH2+]CCCN3CCOCC3)c12 (3D coordinates assigned)
CCNCCNc1c2ccccc2[n+](C)c2cccc([NH2+]CCCN3CCOCC3)c12 (nonaromatic ring conformer: 116.21806692567357 kcal/mol)

>  <smiles>  (10) 
CCNCCNc1c2ccccc2[n+](C)c2cccc(NCCCN3CCOCC3)c12

>  <score_type>  (10) 
oracle

>  <origin>  (10) 
adg

>  <m_score__min__energy>  (10) 
-3.48

>  <m_primary>  (10) 
energy

$$$$
10:0
     RDKit          3D

 63 65  0  0  0  0  0  0  0  0999 V2000
   58.7020   32.3140   50.3810 C   0  0  0  0  0  0  0  0  0  0  0  0
   59.7240   33.3340   49.9090 C   0  0  0  0  0  0  0  0  0  0  0  0
   60.1760   32.9800   48.6060 O   0  0  0  0  0  0  0  0  0  0  0  0
   59.4440   33.1420   47.4170 C   0  0  0  0  0  0  0  0  0  0  0  0
   58.8930   34.3920   47.0920 C   0  0  0  0  0  0  0  0  0  0  0  0
   58.1230   34.5520   45.9510 C   0  0  0  0  0  0  0  0  0  0  0  0
   57.9050   33.4790   45.0960 C   0  0  0  0  0  0  0  0  0  0  0  0
   58.4800   32.2100   45.3490 C   0  0  0  0  0  0  0  0  0  0  0  0
   59.2390   32.0320   46.5440 C   0  0  0  0  0  0  0  0  0  0  0  0
   59.7620   30.7470   46.8230 C   0  0  0  0  0  0  0  0  0  0  0  0
   60.6700   30.5420   47.9180 N   0  0  0  0  0  0  0  0  0  0  0  0
   60.4840   29.4550   48.8810 C   0  0  0  0  0  0  0  0  0  0  0  0
   61.2520   29.7280   50.1770 C   0  0  0  0  0  0  0  0  0  0  0  0
   61.7280   31.0600   50.1890 O   0  0  0  0  0  0  0  0  0  0  0  0
   63.1050   31.0960   50.5080 C   0  0  0  0  0  0  0  0  0  0  0  0
   63.8580   31.9510   49.4710 C   0  0  0  0  0  0  0  0  0  0  0  0
   62.9810   32.6970   48.5320 N   0  0  0  0  0  0  0  0  0  0  0  0
   63.3700   32.4940   47.1180 C   0  0  0  0  0  0  0  0  0  0  0  0
   63.3180   33.8180   46.3640 C   0  0  0  0  0  0  0  0  0  0  0  0
   62.8270   34.1340   48.8560 C   0  0  0  0  0  0  0  0  0  0  0  0
   63.0230   34.4030   50.3480 C   0  0  0  0  0  0  0  0  0  0  0  0
   59.3700   29.6500   46.0360 C   0  0  0  0  0  0  0  0  0  0  0  0
   59.7030   28.3310   46.4150 C   0  0  0  0  0  0  0  0  0  0  0  0
   59.2850   27.2440   45.6520 C   0  0  0  0  0  0  0  0  0  0  0  0
   58.5130   27.4480   44.5150 C   0  0  0  0  0  0  0  0  0  0  0  0
   58.1670   28.7410   44.1250 C   0  0  0  0  0  0  0  0  0  0  0  0
   58.6080   29.8710   44.8620 C   0  0  0  0  0  0  0  0  0  0  0  0
   58.3030   31.1580   44.4690 N   0  0  0  0  0  0  0  0  0  0  0  0
   57.8010   31.4110   43.0990 C   0  0  0  0  0  0  0  0  0  0  0  0
   58.6834   32.2954   51.4807 H   0  0  0  0  0  0  0  0  0  0  0  0
   57.7068   32.5897   50.0020 H   0  0  0  0  0  0  0  0  0  0  0  0
   58.9757   31.3183   50.0020 H   0  0  0  0  0  0  0  0  0  0  0  0
   59.2607   34.3312   49.8788 H   0  0  0  0  0  0  0  0  0  0  0  0
   60.5771   33.3488   50.6033 H   0  0  0  0  0  0  0  0  0  0  0  0
   59.0747   35.2541   47.7506 H   0  0  0  0  0  0  0  0  0  0  0  0
   57.6823   35.5333   45.7212 H   0  0  0  0  0  0  0  0  0  0  0  0
   57.2739   33.6178   44.2058 H   0  0  0  0  0  0  0  0  0  0  0  0
   61.4320   31.2390   48.0790 H   0  0  0  0  0  0  0  0  0  0  0  0
   59.4128   29.3591   49.1118 H   0  0  0  0  0  0  0  0  0  0  0  0
   60.8689   28.5254   48.4365 H   0  0  0  0  0  0  0  0  0  0  0  0
   60.5826   29.5732   51.0360 H   0  0  0  0  0  0  0  0  0  0  0  0
   62.1076   29.0395   50.2401 H   0  0  0  0  0  0  0  0  0  0  0  0
   63.2369   31.5346   51.5081 H   0  0  0  0  0  0  0  0  0  0  0  0
   63.5077   30.0724   50.4965 H   0  0  0  0  0  0  0  0  0  0  0  0
   64.4793   32.6794   50.0127 H   0  0  0  0  0  0  0  0  0  0  0  0
   64.4477   31.2524   48.8593 H   0  0  0  0  0  0  0  0  0  0  0  0
   64.3930   32.0918   47.0764 H   0  0  0  0  0  0  0  0  0  0  0  0
   62.6697   31.7862   46.6505 H   0  0  0  0  0  0  0  0  0  0  0  0
   63.2854   34.6490   47.0840 H   0  0  0  0  0  0  0  0  0  0  0  0
   64.2130   33.9154   45.7320 H   0  0  0  0  0  0  0  0  0  0  0  0
   62.4181   33.8449   45.7320 H   0  0  0  0  0  0  0  0  0  0  0  0
   63.5741   34.7090   48.2892 H   0  0  0  0  0  0  0  0  0  0  0  0
   61.8054   34.4384   48.5847 H   0  0  0  0  0  0  0  0  0  0  0  0
   62.4739   33.6494   50.9317 H   0  0  0  0  0  0  0  0  0  0  0  0
   64.0939   34.3477   50.5930 H   0  0  0  0  0  0  0  0  0  0  0  0
   62.6422   35.4055   50.5930 H   0  0  0  0  0  0  0  0  0  0  0  0
   60.2994   28.1604   47.3234 H   0  0  0  0  0  0  0  0  0  0  0  0
   59.5661   26.2230   45.9496 H   0  0  0  0  0  0  0  0  0  0  0  0
   58.1738   26.5867   43.9207 H   0  0  0  0  0  0  0  0  0  0  0  0
   57.5421   28.8878   43.2317 H   0  0  0  0  0  0  0  0  0  0  0  0
   56.8199   31.9055   43.1535 H   0  0  0  0  0  0  0  0  0  0  0  0
   58.5093   32.0598   42.5629 H   0  0  0  0  0  0  0  0  0  0  0  0
   57.7009   30.4557   42.5629 H   0  0  0  0  0  0  0  0  0  0  0  0
  1  2  1  0
  2  3  1  0
  3  4  1  0
  4  5  2  0
  5  6  1  0
  6  7  2  0
  7  8  1  0
  8  9  2  0
  9 10  1  0
 10 11  1  0
 11 12  1  0
 12 13  1  0
 13 14  1  0
 14 15  1  0
 15 16  1  0
 16 17  1  0
 17 18  1  0
 18 19  1  0
 17 20  1  0
 20 21  1  0
 10 22  2  0
 22 23  1  0
 23 24  2  0
 24 25  1  0
 25 26  2  0
 26 27  1  0
 27 28  2  0
 28 29  1  0
  9  4  1  0
 27 22  1  0
 28  8  1  0
  1 30  1  0
  1 31  1  0
  1 32  1  0
  2 33  1  0
  2 34  1  0
  5 35  1  0
  6 36  1  0
  7 37  1  0
 11 38  1  0
 12 39  1  0
 12 40  1  0
 13 41  1  0
 13 42  1  0
 15 43  1  0
 15 44  1  0
 16 45  1  0
 16 46  1  0
 18 47  1  0
 18 48  1  0
 19 49  1  0
 19 50  1  0
 19 51  1  0
 20 52  1  0
 20 53  1  0
 21 54  1  0
 21 55  1  0
 21 56  1  0
 23 57  1  0
 24 58  1  0
 25 59  1  0
 26 60  1  0
 29 61  1  0
 29 62  1  0
 29 63  1  0
M  CHG  1  28   1
M  END
>  <UniqueID>  (11) 
11

>  <SMILES>  (11) 
CCOc1cccc2c1c(NCCOCCN(CC)CC)c1ccccc1[n+]2C

>  <Energy>  (11) 
89.95370093876295

>  <Genealogy>  (11) 
CCOc1cccc2c1c(NCCOCCN(CC)CC)c1ccccc1[n+]2C (3D coordinates assigned)
CCOc1cccc2c1c(NCCOCCN(CC)CC)c1ccccc1[n+]2C (optimized conformer: 89.95370093876295 kcal/mol)

>  <smiles>  (11) 
CCOc1cccc2c1c(NCCOCCN(CC)CC)c1ccccc1[n+]2C

>  <score_type>  (11) 
oracle

>  <origin>  (11) 
adg

>  <m_score__min__energy>  (11) 
-5.2999999999999998

>  <m_primary>  (11) 
energy

$$$$
11:0
     RDKit          3D

 55 58  0  0  0  0  0  0  0  0999 V2000
   62.8250   33.8880   48.3130 C   0  0  0  0  0  0  0  0  0  0  0  0
   61.4880   33.5500   48.9680 C   0  0  0  0  0  0  0  0  0  0  0  0
   60.3840   33.7400   48.0220 N   0  0  0  0  0  0  0  0  0  0  0  0
   60.0200   34.9700   47.5850 C   0  0  0  0  0  0  0  0  0  0  0  0
   59.0740   34.8860   46.5850 C   0  0  0  0  0  0  0  0  0  0  0  0
   58.8640   33.5420   46.4010 C   0  0  0  0  0  0  0  0  0  0  0  0
   58.0340   32.9240   45.4750 C   0  0  0  0  0  0  0  0  0  0  0  0
   57.9940   31.5210   45.4350 C   0  0  0  0  0  0  0  0  0  0  0  0
   57.1410   30.8560   44.4790 N   0  0  0  0  0  0  0  0  0  0  0  0
   57.3330   30.7470   43.1460 C   0  0  0  0  0  0  0  0  0  0  0  0
   56.2920   30.0220   42.6090 C   0  0  0  0  0  0  0  0  0  0  0  0
   55.4890   29.7120   43.6870 C   0  0  0  0  0  0  0  0  0  0  0  0
   56.0240   30.2260   44.8100 N   0  0  0  0  0  0  0  0  0  0  0  0
   58.7960   30.7840   46.3410 C   0  0  0  0  0  0  0  0  0  0  0  0
   59.6290   31.4200   47.2950 C   0  0  0  0  0  0  0  0  0  0  0  0
   60.3260   30.5120   48.2940 C   0  0  0  0  0  0  0  0  0  0  0  0
   59.8040   30.6810   49.6600 N   0  0  0  0  0  0  0  0  0  0  0  0
   59.6400   29.4030   50.3640 C   0  0  0  0  0  0  0  0  0  0  0  0
   60.7320   28.4100   49.9400 C   0  0  0  0  0  0  0  0  0  0  0  0
   60.2000   27.2950   49.0240 C   0  0  0  0  0  0  0  0  0  0  0  0
   60.5210   27.5490   47.6180 N   0  0  0  0  0  0  0  0  0  0  0  0
   59.5590   27.5610   46.5460 C   0  0  0  0  0  0  0  0  0  0  0  0
   59.9970   27.8280   45.2380 C   0  0  0  0  0  0  0  0  0  0  0  0
   59.0900   27.8460   44.1740 C   0  0  0  0  0  0  0  0  0  0  0  0
   57.7350   27.5940   44.4050 C   0  0  0  0  0  0  0  0  0  0  0  0
   57.2860   27.3220   45.7000 C   0  0  0  0  0  0  0  0  0  0  0  0
   55.9700   27.0720   45.9210 F   0  0  0  0  0  0  0  0  0  0  0  0
   58.1910   27.3030   46.7670 C   0  0  0  0  0  0  0  0  0  0  0  0
   59.6600   32.8430   47.2870 C   0  0  0  0  0  0  0  0  0  0  0  0
   63.5775   34.0782   49.0925 H   0  0  0  0  0  0  0  0  0  0  0  0
   63.1506   33.0439   47.6873 H   0  0  0  0  0  0  0  0  0  0  0  0
   62.7103   34.7854   47.6873 H   0  0  0  0  0  0  0  0  0  0  0  0
   61.5032   32.5011   49.2991 H   0  0  0  0  0  0  0  0  0  0  0  0
   61.3362   34.2197   49.8274 H   0  0  0  0  0  0  0  0  0  0  0  0
   60.4267   35.9138   47.9773 H   0  0  0  0  0  0  0  0  0  0  0  0
   58.5915   35.7172   46.0499 H   0  0  0  0  0  0  0  0  0  0  0  0
   57.4196   33.5221   44.7860 H   0  0  0  0  0  0  0  0  0  0  0  0
   58.1796   31.1672   42.5833 H   0  0  0  0  0  0  0  0  0  0  0  0
   56.1357   29.7505   41.5545 H   0  0  0  0  0  0  0  0  0  0  0  0
   54.5548   29.1335   43.6365 H   0  0  0  0  0  0  0  0  0  0  0  0
   58.7714   29.6849   46.3028 H   0  0  0  0  0  0  0  0  0  0  0  0
   60.1780   29.4666   47.9854 H   0  0  0  0  0  0  0  0  0  0  0  0
   61.3929   30.7798   48.3054 H   0  0  0  0  0  0  0  0  0  0  0  0
   60.4560   31.2890   50.2070 H   0  0  0  0  0  0  0  0  0  0  0  0
   59.7092   29.5757   51.4481 H   0  0  0  0  0  0  0  0  0  0  0  0
   58.6570   28.9804   50.1087 H   0  0  0  0  0  0  0  0  0  0  0  0
   61.5186   28.9606   49.4032 H   0  0  0  0  0  0  0  0  0  0  0  0
   61.1185   27.9329   50.8527 H   0  0  0  0  0  0  0  0  0  0  0  0
   60.6531   26.3392   49.3259 H   0  0  0  0  0  0  0  0  0  0  0  0
   59.1051   27.2619   49.1249 H   0  0  0  0  0  0  0  0  0  0  0  0
   61.5190   27.7690   47.3920 H   0  0  0  0  0  0  0  0  0  0  0  0
   61.0627   28.0246   45.0493 H   0  0  0  0  0  0  0  0  0  0  0  0
   59.4433   28.0587   43.1542 H   0  0  0  0  0  0  0  0  0  0  0  0
   57.0220   27.6098   43.5675 H   0  0  0  0  0  0  0  0  0  0  0  0
   57.8328   27.0855   47.7841 H   0  0  0  0  0  0  0  0  0  0  0  0
  1  2  1  0
  2  3  1  0
  3  4  1  0
  4  5  2  0
  5  6  1  0
  6  7  2  0
  7  8  1  0
  8  9  1  0
  9 10  1  0
 10 11  2  0
 11 12  1  0
 12 13  2  0
  8 14  2  0
 14 15  1  0
 15 16  1  0
 16 17  1  0
 17 18  1  0
 18 19  1  0
 19 20  1  0
 20 21  1  0
 21 22  1  0
 22 23  2  0
 23 24  1  0
 24 25  2  0
 25 26  1  0
 26 27  1  0
 26 28  2  0
 15 29  2  0
 29  3  1  0
 29  6  1  0
 13  9  1  0
 28 22  1  0
  1 30  1  0
  1 31  1  0
  1 32  1  0
  2 33  1  0
  2 34  1  0
  4 35  1  0
  5 36  1  0
  7 37  1  0
 10 38  1  0
 11 39  1  0
 12 40  1  0
 14 41  1  0
 16 42  1  0
 16 43  1  0
 17 44  1  0
 18 45  1  0
 18 46  1  0
 19 47  1  0
 19 48  1  0
 20 49  1  0
 20 50  1  0
 21 51  1  0
 23 52  1  0
 24 53  1  0
 25 54  1  0
 28 55  1  0
M  END
>  <UniqueID>  (12) 
12

>  <SMILES>  (12) 
CCn1ccc2cc(-n3cccn3)cc(CNCCCNc3cccc(F)c3)c21

>  <Energy>  (12) 
125.14562544633726

>  <Genealogy>  (12) 
CCn1ccc2cc(-n3cccn3)cc(CNCCCNc3cccc(F)c3)c21 (3D coordinates assigned)
CCn1ccc2cc(-n3cccn3)cc(CNCCCNc3cccc(F)c3)c21 (optimized conformer: 125.14562544633726 kcal/mol)

>  <smiles>  (12) 
CCn1ccc2cc(-n3cccn3)cc(CNCCCNc3cccc(F)c3)c21

>  <score_type>  (12) 
oracle

>  <origin>  (12) 
adg

>  <m_score__min__energy>  (12) 
-7.8799999999999999

>  <m_primary>  (12) 
energy

$$$$
12:0
     RDKit          3D

 83 88  0  0  0  0  0  0  0  0999 V2000
   67.5740   26.9680   50.0790 C   0  0  0  0  0  0  0  0  0  0  0  0
   66.4430   26.9460   51.1050 C   0  0  0  0  0  0  0  0  0  0  0  0
   66.1820   28.2890   51.6450 N   0  0  0  0  0  0  0  0  0  0  0  0
   67.2270   29.2640   51.2780 C   0  0  0  0  0  0  0  0  0  0  0  0
   66.6580   30.6830   51.2750 C   0  0  0  0  0  0  0  0  0  0  0  0
   65.2420   30.6480   51.2300 O   0  0  0  0  0  0  0  0  0  0  0  0
   64.6910   31.9310   51.0160 C   0  0  0  0  0  0  0  0  0  0  0  0
   65.0080   32.5060   49.6180 C   0  0  0  0  0  0  0  0  0  0  0  0
   63.8370   32.8250   48.7710 N   0  0  0  0  0  0  0  0  0  0  0  0
   63.0390   31.6640   48.3540 C   0  0  0  0  0  0  0  0  0  0  0  0
   62.1780   32.0540   47.1390 C   0  0  0  0  0  0  0  0  0  0  0  0
   62.0320   33.5260   47.0080 N   0  0  0  0  0  0  0  0  0  0  0  0
   60.9540   33.8790   46.0590 C   0  0  0  0  0  0  0  0  0  0  0  0
   59.9010   34.7770   46.7300 C   0  0  0  0  0  0  0  0  0  0  0  0
   58.5040   34.5800   46.1320 C   0  0  0  0  0  0  0  0  0  0  0  0
   57.7380   33.5870   46.8820 N   0  0  0  0  0  0  0  0  0  0  0  0
   58.1700   32.2200   46.8800 C   0  0  0  0  0  0  0  0  0  0  0  0
   58.9020   31.7290   47.9520 C   0  0  0  0  0  0  0  0  0  0  0  0
   59.2590   30.4020   48.0140 C   0  0  0  0  0  0  0  0  0  0  0  0
   58.8890   29.4870   47.0620 N   0  0  0  0  0  0  0  0  0  0  0  0
   59.1540   28.0530   47.2750 C   0  0  0  0  0  0  0  0  0  0  0  0
   58.2690   29.9570   45.9130 C   0  0  0  0  0  0  0  0  0  0  0  0
   58.0220   29.1140   44.8020 C   0  0  0  0  0  0  0  0  0  0  0  0
   57.3860   29.6010   43.6600 C   0  0  0  0  0  0  0  0  0  0  0  0
   57.0020   30.9350   43.5810 C   0  0  0  0  0  0  0  0  0  0  0  0
   57.2550   31.8010   44.6420 C   0  0  0  0  0  0  0  0  0  0  0  0
   57.8820   31.3370   45.8140 C   0  0  0  0  0  0  0  0  0  0  0  0
   60.0260   30.2490   49.2420 C   0  0  0  0  0  0  0  0  0  0  0  0
   60.6860   29.1500   49.6820 N   0  0  0  0  0  0  0  0  0  0  0  0
   61.4060   29.2150   50.8370 C   0  0  0  0  0  0  0  0  0  0  0  0
   62.0760   28.0790   51.3040 C   0  0  0  0  0  0  0  0  0  0  0  0
   62.8200   28.1400   52.4860 C   0  0  0  0  0  0  0  0  0  0  0  0
   62.8970   29.3360   53.2070 C   0  0  0  0  0  0  0  0  0  0  0  0
   62.2360   30.4810   52.7520 C   0  0  0  0  0  0  0  0  0  0  0  0
   61.4840   30.4320   51.5660 C   0  0  0  0  0  0  0  0  0  0  0  0
   60.8080   31.5560   51.0560 C   0  0  0  0  0  0  0  0  0  0  0  0
   60.8590   32.6710   51.6440 O   0  0  0  0  0  0  0  0  0  0  0  0
   60.1030   31.4230   49.9020 N   0  0  0  0  0  0  0  0  0  0  0  0
   59.3880   32.4680   49.1680 C   0  0  0  0  0  0  0  0  0  0  0  0
   61.7830   34.1480   48.3280 C   0  0  0  0  0  0  0  0  0  0  0  0
   62.9800   33.9140   49.2750 C   0  0  0  0  0  0  0  0  0  0  0  0
   68.5421   26.9868   50.6009 H   0  0  0  0  0  0  0  0  0  0  0  0
   67.5147   26.0685   49.4486 H   0  0  0  0  0  0  0  0  0  0  0  0
   67.4798   27.8645   49.4486 H   0  0  0  0  0  0  0  0  0  0  0  0
   65.5288   26.5706   50.6219 H   0  0  0  0  0  0  0  0  0  0  0  0
   66.7425   26.2908   51.9363 H   0  0  0  0  0  0  0  0  0  0  0  0
   65.2810   28.6150   51.2250 H   0  0  0  0  0  0  0  0  0  0  0  0
   68.0490   29.2051   52.0066 H   0  0  0  0  0  0  0  0  0  0  0  0
   67.5965   29.0267   50.2695 H   0  0  0  0  0  0  0  0  0  0  0  0
   66.9787   31.2039   52.1892 H   0  0  0  0  0  0  0  0  0  0  0  0
   67.0299   31.2144   50.3866 H   0  0  0  0  0  0  0  0  0  0  0  0
   63.5986   31.8649   51.1269 H   0  0  0  0  0  0  0  0  0  0  0  0
   65.1424   32.6074   51.7568 H   0  0  0  0  0  0  0  0  0  0  0  0
   65.5859   33.4316   49.7571 H   0  0  0  0  0  0  0  0  0  0  0  0
   65.5538   31.7128   49.0860 H   0  0  0  0  0  0  0  0  0  0  0  0
   63.7091   30.8359   48.0799 H   0  0  0  0  0  0  0  0  0  0  0  0
   62.3885   31.3451   49.1818 H   0  0  0  0  0  0  0  0  0  0  0  0
   62.6526   31.6620   46.2273 H   0  0  0  0  0  0  0  0  0  0  0  0
   61.1752   31.6253   47.2825 H   0  0  0  0  0  0  0  0  0  0  0  0
   61.3898   34.4141   45.2024 H   0  0  0  0  0  0  0  0  0  0  0  0
   60.4634   32.9526   45.7257 H   0  0  0  0  0  0  0  0  0  0  0  0
   59.8637   34.5376   47.8030 H   0  0  0  0  0  0  0  0  0  0  0  0
   60.1947   35.8237   46.5624 H   0  0  0  0  0  0  0  0  0  0  0  0
   57.9662   35.5393   46.1555 H   0  0  0  0  0  0  0  0  0  0  0  0
   58.6174   34.2212   45.0984 H   0  0  0  0  0  0  0  0  0  0  0  0
   56.7130   33.7580   47.0000 H   0  0  0  0  0  0  0  0  0  0  0  0
   59.1927   27.8436   48.3542 H   0  0  0  0  0  0  0  0  0  0  0  0
   58.3504   27.4593   46.8149 H   0  0  0  0  0  0  0  0  0  0  0  0
   60.1167   27.7857   46.8149 H   0  0  0  0  0  0  0  0  0  0  0  0
   58.3361   28.0605   44.8402 H   0  0  0  0  0  0  0  0  0  0  0  0
   57.1868   28.9246   42.8157 H   0  0  0  0  0  0  0  0  0  0  0  0
   56.4968   31.3075   42.6777 H   0  0  0  0  0  0  0  0  0  0  0  0
   56.9619   32.8583   44.5635 H   0  0  0  0  0  0  0  0  0  0  0  0
   62.0173   27.1363   50.7402 H   0  0  0  0  0  0  0  0  0  0  0  0
   63.3462   27.2452   52.8499 H   0  0  0  0  0  0  0  0  0  0  0  0
   63.4814   29.3761   54.1381 H   0  0  0  0  0  0  0  0  0  0  0  0
   62.3046   31.4193   53.3220 H   0  0  0  0  0  0  0  0  0  0  0  0
   58.5470   32.8639   49.7563 H   0  0  0  0  0  0  0  0  0  0  0  0
   60.0092   33.3446   48.9320 H   0  0  0  0  0  0  0  0  0  0  0  0
   61.6334   35.2297   48.1952 H   0  0  0  0  0  0  0  0  0  0  0  0
   60.8861   33.6908   48.7713 H   0  0  0  0  0  0  0  0  0  0  0  0
   63.5728   34.8381   49.3432 H   0  0  0  0  0  0  0  0  0  0  0  0
   62.5969   33.6328   50.2671 H   0  0  0  0  0  0  0  0  0  0  0  0
  1  2  1  0
  2  3  1  0
  3  4  1  0
  4  5  1  0
  5  6  1  0
  6  7  1  0
  7  8  1  0
  8  9  1  0
  9 10  1  0
 10 11  1  0
 11 12  1  0
 12 13  1  0
 13 14  1  0
 14 15  1  0
 15 16  1  0
 16 17  1  0
 17 18  2  0
 18 19  1  0
 19 20  2  0
 20 21  1  0
 20 22  1  0
 22 23  2  0
 23 24  1  0
 24 25  2  0
 25 26  1  0
 26 27  2  0
 19 28  1  0
 28 29  2  0
 29 30  1  0
 30 31  2  0
 31 32  1  0
 32 33  2  0
 33 34  1  0
 34 35  2  0
 35 36  1  0
 36 37  2  0
 36 38  1  0
 38 39  1  0
 12 40  1  0
 40 41  1  0
 41  9  1  0
 27 17  1  0
 38 28  1  0
 39 18  1  0
 27 22  1  0
 35 30  1  0
  1 42  1  0
  1 43  1  0
  1 44  1  0
  2 45  1  0
  2 46  1  0
  3 47  1  0
  4 48  1  0
  4 49  1  0
  5 50  1  0
  5 51  1  0
  7 52  1  0
  7 53  1  0
  8 54  1  0
  8 55  1  0
 10 56  1  0
 10 57  1  0
 11 58  1  0
 11 59  1  0
 13 60  1  0
 13 61  1  0
 14 62  1  0
 14 63  1  0
 15 64  1  0
 15 65  1  0
 16 66  1  0
 21 67  1  0
 21 68  1  0
 21 69  1  0
 23 70  1  0
 24 71  1  0
 25 72  1  0
 26 73  1  0
 31 74  1  0
 32 75  1  0
 33 76  1  0
 34 77  1  0
 39 78  1  0
 39 79  1  0
 40 80  1  0
 40 81  1  0
 41 82  1  0
 41 83  1  0
M  CHG  1  20   1
M  END
>  <UniqueID>  (13) 
13

>  <SMILES>  (13) 
CCNCCOCCN1CCN(CCCNc2c3c([n+](C)c4ccccc24)-c2nc4ccccc4c(=O)n2C3)CC1

>  <Energy>  (13) 
145.99990136589167

>  <Genealogy>  (13) 
CCNCCOCCN1CCN(CCCNc2c3c([n+](C)c4ccccc24)-c2nc4ccccc4c(=O)n2C3)CC1 (3D coordinates assigned)
CCNCCOCCN1CCN(CCCNc2c3c([n+](C)c4ccccc24)-c2nc4ccccc4c(=O)n2C3)CC1 (nonaromatic ring conformer: 145.99990136589167 kcal/mol)

>  <smiles>  (13) 
CCNCCOCCN1CCN(CCCNc2c3c([n+](C)c4ccccc24)-c2nc4ccccc4c(=O)n2C3)CC1

>  <score_type>  (13) 
oracle

>  <origin>  (13) 
adg

>  <m_score__min__energy>  (13) 
-7.8899999999999997

>  <m_primary>  (13) 
energy

$$$$
13:0
     RDKit          3D

 55 57  0  0  0  0  0  0  0  0999 V2000
   62.4640   33.8310   48.5990 C   0  0  0  0  0  0  0  0  0  0  0  0
   61.3440   32.8050   48.7000 C   0  0  0  0  0  0  0  0  0  0  0  0
   60.1730   33.4150   49.3710 N   0  0  0  0  0  0  0  0  0  0  0  0
   59.1550   32.4140   49.7790 C   0  0  0  0  0  0  0  0  0  0  0  0
   59.7260   31.0220   50.0900 C   0  0  0  0  0  0  0  0  0  0  0  0
   59.6320   34.5760   48.6300 C   0  0  0  0  0  0  0  0  0  0  0  0
   59.1310   34.1710   47.2660 C   0  0  0  0  0  0  0  0  0  0  0  0
   59.9130   34.4180   46.1290 C   0  0  0  0  0  0  0  0  0  0  0  0
   59.4490   34.0560   44.8610 C   0  0  0  0  0  0  0  0  0  0  0  0
   58.2020   33.4380   44.7100 C   0  0  0  0  0  0  0  0  0  0  0  0
   57.7800   33.0940   43.4180 O   0  0  0  0  0  0  0  0  0  0  0  0
   57.8800   31.7850   42.8590 C   0  0  0  0  0  0  0  0  0  0  0  0
   56.6430   30.9700   43.0650 C   0  0  0  0  0  0  0  0  0  0  0  0
   57.2390   30.0180   44.0190 N   0  0  0  0  0  0  0  0  0  0  0  0
   56.7710   28.9600   44.8570 C   0  0  0  0  0  0  0  0  0  0  0  0
   55.5340   28.7330   44.9280 O   0  0  0  0  0  0  0  0  0  0  0  0
   57.7090   28.1710   45.6770 C   0  0  0  0  0  0  0  0  0  0  0  0
   57.7060   26.7720   45.5490 C   0  0  0  0  0  0  0  0  0  0  0  0
   58.5120   25.9840   46.3740 C   0  0  0  0  0  0  0  0  0  0  0  0
   59.3300   26.5840   47.3340 C   0  0  0  0  0  0  0  0  0  0  0  0
   59.3610   27.9750   47.4550 C   0  0  0  0  0  0  0  0  0  0  0  0
   60.1790   28.5490   48.3730 F   0  0  0  0  0  0  0  0  0  0  0  0
   58.5790   28.7790   46.6130 C   0  0  0  0  0  0  0  0  0  0  0  0
   58.6970   30.1680   46.7260 O   0  0  0  0  0  0  0  0  0  0  0  0
   59.9480   30.8410   46.6320 C   0  0  0  0  0  0  0  0  0  0  0  0
   58.4690   30.8100   43.8250 C   0  0  0  0  0  0  0  0  0  0  0  0
   57.4200   33.1810   45.8530 C   0  0  0  0  0  0  0  0  0  0  0  0
   57.8830   33.5440   47.1210 C   0  0  0  0  0  0  0  0  0  0  0  0
   62.7845   34.1246   49.6095 H   0  0  0  0  0  0  0  0  0  0  0  0
   63.3151   33.3926   48.0573 H   0  0  0  0  0  0  0  0  0  0  0  0
   62.1017   34.7172   48.0573 H   0  0  0  0  0  0  0  0  0  0  0  0
   61.0572   32.4750   47.6906 H   0  0  0  0  0  0  0  0  0  0  0  0
   61.6913   31.9401   49.2843 H   0  0  0  0  0  0  0  0  0  0  0  0
   58.6469   32.7872   50.6804 H   0  0  0  0  0  0  0  0  0  0  0  0
   58.4738   32.2912   48.9241 H   0  0  0  0  0  0  0  0  0  0  0  0
   59.7826   30.8840   51.1798 H   0  0  0  0  0  0  0  0  0  0  0  0
   59.0712   30.2518   49.6564 H   0  0  0  0  0  0  0  0  0  0  0  0
   60.7331   30.9335   49.6564 H   0  0  0  0  0  0  0  0  0  0  0  0
   58.7995   35.0104   49.2030 H   0  0  0  0  0  0  0  0  0  0  0  0
   60.4398   35.3110   48.4989 H   0  0  0  0  0  0  0  0  0  0  0  0
   60.8965   34.8990   46.2351 H   0  0  0  0  0  0  0  0  0  0  0  0
   60.0686   34.2583   43.9749 H   0  0  0  0  0  0  0  0  0  0  0  0
   58.3023   32.0205   41.8710 H   0  0  0  0  0  0  0  0  0  0  0  0
   55.8196   31.5520   43.5046 H   0  0  0  0  0  0  0  0  0  0  0  0
   56.1665   30.5477   42.1680 H   0  0  0  0  0  0  0  0  0  0  0  0
   57.0646   26.2939   44.7940 H   0  0  0  0  0  0  0  0  0  0  0  0
   58.5025   24.8892   46.2674 H   0  0  0  0  0  0  0  0  0  0  0  0
   59.9501   25.9607   47.9950 H   0  0  0  0  0  0  0  0  0  0  0  0
   60.3305   31.0468   47.6426 H   0  0  0  0  0  0  0  0  0  0  0  0
   60.6656   30.2072   46.0904 H   0  0  0  0  0  0  0  0  0  0  0  0
   59.8145   31.7891   46.0904 H   0  0  0  0  0  0  0  0  0  0  0  0
   58.8164   31.2886   44.7525 H   0  0  0  0  0  0  0  0  0  0  0  0
   59.3688   30.2662   43.5015 H   0  0  0  0  0  0  0  0  0  0  0  0
   56.4402   32.6923   45.7473 H   0  0  0  0  0  0  0  0  0  0  0  0
   57.2672   33.3376   48.0088 H   0  0  0  0  0  0  0  0  0  0  0  0
  1  2  1  0
  2  3  1  0
  3  4  1  0
  4  5  1  0
  3  6  1  0
  6  7  1  0
  7  8  2  0
  8  9  1  0
  9 10  2  0
 10 11  1  0
 11 12  1  0
 12 13  1  0
 13 14  1  0
 14 15  1  0
 15 16  2  0
 15 17  1  0
 17 18  2  0
 18 19  1  0
 19 20  2  0
 20 21  1  0
 21 22  1  0
 21 23  2  0
 23 24  1  0
 24 25  1  0
 14 26  1  0
 10 27  1  0
 27 28  2  0
 28  7  1  0
 26 12  1  0
 23 17  1  0
  1 29  1  0
  1 30  1  0
  1 31  1  0
  2 32  1  0
  2 33  1  0
  4 34  1  0
  4 35  1  0
  5 36  1  0
  5 37  1  0
  5 38  1  0
  6 39  1  0
  6 40  1  0
  8 41  1  0
  9 42  1  0
 12 43  1  0
 13 44  1  0
 13 45  1  0
 18 46  1  0
 19 47  1  0
 20 48  1  0
 25 49  1  0
 25 50  1  0
 25 51  1  0
 26 52  1  0
 26 53  1  0
 27 54  1  0
 28 55  1  0
M  END
>  <UniqueID>  (14) 
14

>  <SMILES>  (14) 
CCN(CC)Cc1ccc(OC2CN(C(=O)c3cccc(F)c3OC)C2)cc1

>  <Energy>  (14) 
112.1852623629471

>  <Genealogy>  (14) 
CCN(CC)Cc1ccc(OC2CN(C(=O)c3cccc(F)c3OC)C2)cc1 (3D coordinates assigned)
CCN(CC)Cc1ccc(OC2CN(C(=O)c3cccc(F)c3OC)C2)cc1 (nonaromatic ring conformer: 112.1852623629471 kcal/mol)

>  <smiles>  (14) 
CCN(CC)Cc1ccc(OC2CN(C(=O)c3cccc(F)c3OC)C2)cc1

>  <score_type>  (14) 
oracle

>  <origin>  (14) 
adg

>  <m_score__min__energy>  (14) 
-8.6899999999999995

>  <m_primary>  (14) 
energy

$$$$
14:0
     RDKit          3D

 53 56  0  0  0  0  0  0  0  0999 V2000
   54.9750   30.8440   52.0180 C   0  0  0  0  0  0  0  0  0  0  0  0
   56.2270   31.6010   52.4510 C   0  0  0  0  0  0  0  0  0  0  0  0
   57.1890   31.7200   51.3450 N   0  0  0  0  0  0  0  0  0  0  0  0
   57.8570   30.4440   51.0260 C   0  0  0  0  0  0  0  0  0  0  0  0
   59.3820   30.6120   51.0870 C   0  0  0  0  0  0  0  0  0  0  0  0
   59.7960   32.0120   51.3180 N   0  0  0  0  0  0  0  0  0  0  0  0
   60.5830   32.5370   50.2160 C   0  0  0  0  0  0  0  0  0  0  0  0
   59.9710   32.8520   48.9940 C   0  0  0  0  0  0  0  0  0  0  0  0
   60.7120   33.3170   47.9240 C   0  0  0  0  0  0  0  0  0  0  0  0
   62.0790   33.3820   47.9620 N   0  0  0  0  0  0  0  0  0  0  0  0
   62.8460   33.5280   46.7130 C   0  0  0  0  0  0  0  0  0  0  0  0
   62.7140   33.2400   49.1840 C   0  0  0  0  0  0  0  0  0  0  0  0
   64.0880   33.5500   49.3380 C   0  0  0  0  0  0  0  0  0  0  0  0
   64.7400   33.3830   50.5710 C   0  0  0  0  0  0  0  0  0  0  0  0
   66.1020   33.6720   50.7510 O   0  0  0  0  0  0  0  0  0  0  0  0
   67.1620   32.7500   50.5180 C   0  0  0  0  0  0  0  0  0  0  0  0
   64.0190   32.9170   51.6660 C   0  0  0  0  0  0  0  0  0  0  0  0
   62.6600   32.6360   51.5570 C   0  0  0  0  0  0  0  0  0  0  0  0
   61.9790   32.7960   50.3310 C   0  0  0  0  0  0  0  0  0  0  0  0
   59.7810   33.6540   46.8380 C   0  0  0  0  0  0  0  0  0  0  0  0
   59.9700   34.3470   45.6330 C   0  0  0  0  0  0  0  0  0  0  0  0
   58.8550   34.6010   44.8190 C   0  0  0  0  0  0  0  0  0  0  0  0
   57.5690   34.2090   45.2310 C   0  0  0  0  0  0  0  0  0  0  0  0
   57.3870   33.5820   46.4700 C   0  0  0  0  0  0  0  0  0  0  0  0
   58.5060   33.3240   47.2630 C   0  0  0  0  0  0  0  0  0  0  0  0
   58.5060   32.7810   48.6530 C   0  0  0  0  0  0  0  0  0  0  0  0
   54.4223   30.5098   52.9084 H   0  0  0  0  0  0  0  0  0  0  0  0
   54.3353   31.5068   51.4167 H   0  0  0  0  0  0  0  0  0  0  0  0
   55.2648   29.9696   51.4167 H   0  0  0  0  0  0  0  0  0  0  0  0
   55.9388   32.6086   52.7852 H   0  0  0  0  0  0  0  0  0  0  0  0
   56.7054   31.0417   53.2685 H   0  0  0  0  0  0  0  0  0  0  0  0
   56.6470   32.0240   50.5020 H   0  0  0  0  0  0  0  0  0  0  0  0
   57.5466   29.6798   51.7538 H   0  0  0  0  0  0  0  0  0  0  0  0
   57.5711   30.1343   50.0099 H   0  0  0  0  0  0  0  0  0  0  0  0
   59.7714   29.9907   51.9070 H   0  0  0  0  0  0  0  0  0  0  0  0
   59.7881   30.3034   50.1124 H   0  0  0  0  0  0  0  0  0  0  0  0
   60.3550   32.0700   52.1990 H   0  0  0  0  0  0  0  0  0  0  0  0
   58.9530   32.5990   51.5000 H   0  0  0  0  0  0  0  0  0  0  0  0
   63.9008   33.7288   46.9518 H   0  0  0  0  0  0  0  0  0  0  0  0
   62.7729   32.5998   46.1272 H   0  0  0  0  0  0  0  0  0  0  0  0
   62.4370   34.3644   46.1272 H   0  0  0  0  0  0  0  0  0  0  0  0
   64.6553   33.9289   48.4751 H   0  0  0  0  0  0  0  0  0  0  0  0
   67.5630   32.4012   51.4811 H   0  0  0  0  0  0  0  0  0  0  0  0
   66.7815   31.8906   49.9465 H   0  0  0  0  0  0  0  0  0  0  0  0
   67.9604   33.2459   49.9465 H   0  0  0  0  0  0  0  0  0  0  0  0
   64.5290   32.7689   52.6293 H   0  0  0  0  0  0  0  0  0  0  0  0
   62.1078   32.2835   52.4407 H   0  0  0  0  0  0  0  0  0  0  0  0
   60.9726   34.6848   45.3319 H   0  0  0  0  0  0  0  0  0  0  0  0
   58.9881   35.1098   43.8529 H   0  0  0  0  0  0  0  0  0  0  0  0
   56.7034   34.3953   44.5783 H   0  0  0  0  0  0  0  0  0  0  0  0
   56.3807   33.2982   46.8118 H   0  0  0  0  0  0  0  0  0  0  0  0
   57.9038   33.4050   49.3297 H   0  0  0  0  0  0  0  0  0  0  0  0
   58.0689   31.7758   48.7453 H   0  0  0  0  0  0  0  0  0  0  0  0
  1  2  1  0
  2  3  1  0
  3  4  1  0
  4  5  1  0
  5  6  1  0
  6  7  1  0
  7  8  2  0
  8  9  1  0
  9 10  2  0
 10 11  1  0
 10 12  1  0
 12 13  2  0
 13 14  1  0
 14 15  1  0
 15 16  1  0
 14 17  2  0
 17 18  1  0
 18 19  2  0
  9 20  1  0
 20 21  2  0
 21 22  1  0
 22 23  2  0
 23 24  1  0
 24 25  2  0
 25 26  1  0
 19  7  1  0
 25 20  1  0
 26  8  1  0
 19 12  1  0
  1 27  1  0
  1 28  1  0
  1 29  1  0
  2 30  1  0
  2 31  1  0
  3 32  1  0
  4 33  1  0
  4 34  1  0
  5 35  1  0
  5 36  1  0
  6 37  1  0
  6 38  1  0
 11 39  1  0
 11 40  1  0
 11 41  1  0
 13 42  1  0
 16 43  1  0
 16 44  1  0
 16 45  1  0
 17 46  1  0
 18 47  1  0
 21 48  1  0
 22 49  1  0
 23 50  1  0
 24 51  1  0
 26 52  1  0
 26 53  1  0
M  CHG  2   6   1  10   1
M  END
>  <UniqueID>  (15) 
15

>  <SMILES>  (15) 
CCNCC[NH2+]c1c2c([n+](C)c3cc(OC)ccc13)-c1ccccc1C2

>  <Energy>  (15) 
95.56917195144364

>  <Genealogy>  (15) 
CCNCC[NH2+]c1c2c([n+](C)c3cc(OC)ccc13)-c1ccccc1C2 (protonated)
CCNCC[NH2+]c1c2c([n+](C)c3cc(OC)ccc13)-c1ccccc1C2 (3D coordinates assigned)
CCNCC[NH2+]c1c2c([n+](C)c3cc(OC)ccc13)-c1ccccc1C2 (nonaromatic ring conformer: 95.56917195144364 kcal/mol)

>  <smiles>  (15) 
CCNCCNc1c2c([n+](C)c3cc(OC)ccc13)-c1ccccc1C2

>  <score_type>  (15) 
oracle

>  <origin>  (15) 
adg

>  <m_score__min__energy>  (15) 
-4.4500000000000002

>  <m_primary>  (15) 
energy

$$$$
15:0
     RDKit          3D

 49 52  0  0  0  0  0  0  0  0999 V2000
   55.6200   24.1630   45.2520 C   0  0  0  0  0  0  0  0  0  0  0  0
   55.8400   25.0350   46.3560 O   0  0  0  0  0  0  0  0  0  0  0  0
   56.6300   26.1940   46.3090 C   0  0  0  0  0  0  0  0  0  0  0  0
   57.8600   26.1810   46.9660 C   0  0  0  0  0  0  0  0  0  0  0  0
   58.6910   27.3040   46.9630 C   0  0  0  0  0  0  0  0  0  0  0  0
   60.3810   27.1330   47.8610 Br  0  0  0  0  0  0  0  0  0  0  0  0
   58.2790   28.4890   46.3070 C   0  0  0  0  0  0  0  0  0  0  0  0
   59.1540   29.7300   46.2970 C   0  0  0  0  0  0  0  0  0  0  0  0
   58.3980   30.9180   46.7400 N   0  0  0  0  0  0  0  0  0  0  0  0
   59.1760   32.1600   46.9690 C   0  0  1  0  0  0  0  0  0  0  0  0
   58.5860   33.0070   48.1380 C   0  0  0  0  0  0  0  0  0  0  0  0
   59.4710   34.2490   48.3920 C   0  0  2  0  0  0  0  0  0  0  0  0
   59.5320   35.1110   47.1110 C   0  0  0  0  0  0  0  0  0  0  0  0
   60.1450   34.2860   45.9590 C   0  0  1  0  0  0  0  0  0  0  0  0
   61.5690   33.8370   46.3470 C   0  0  0  0  0  0  0  0  0  0  0  0
   61.5030   32.9730   47.6220 C   0  0  1  0  0  0  0  0  0  0  0  0
   60.8960   33.7980   48.7760 C   0  0  0  0  0  0  0  0  0  0  0  0
   60.6210   31.7350   47.3580 C   0  0  0  0  0  0  0  0  0  0  0  0
   59.2660   33.0460   45.6900 C   0  0  0  0  0  0  0  0  0  0  0  0
   57.0520   28.4960   45.6030 C   0  0  0  0  0  0  0  0  0  0  0  0
   56.6810   29.6490   44.8910 O   0  0  0  0  0  0  0  0  0  0  0  0
   56.6580   29.7590   43.4700 C   0  0  0  0  0  0  0  0  0  0  0  0
   56.2310   27.3520   45.6220 C   0  0  0  0  0  0  0  0  0  0  0  0
   55.3666   23.1588   45.6227 H   0  0  0  0  0  0  0  0  0  0  0  0
   54.7908   24.5480   44.6402 H   0  0  0  0  0  0  0  0  0  0  0  0
   56.5326   24.1086   44.6402 H   0  0  0  0  0  0  0  0  0  0  0  0
   58.1811   25.2717   47.4952 H   0  0  0  0  0  0  0  0  0  0  0  0
   60.0065   29.5737   46.9743 H   0  0  0  0  0  0  0  0  0  0  0  0
   59.5034   29.9023   45.2683 H   0  0  0  0  0  0  0  0  0  0  0  0
   57.6520   31.1140   46.0310 H   0  0  0  0  0  0  0  0  0  0  0  0
   58.5497   32.3932   49.0501 H   0  0  0  0  0  0  0  0  0  0  0  0
   57.5716   33.3362   47.8685 H   0  0  0  0  0  0  0  0  0  0  0  0
   59.0406   34.8417   49.2126 H   0  0  0  0  0  0  0  0  0  0  0  0
   60.1543   35.9988   47.2967 H   0  0  0  0  0  0  0  0  0  0  0  0
   58.5149   35.4251   46.8338 H   0  0  0  0  0  0  0  0  0  0  0  0
   60.1930   34.9040   45.0503 H   0  0  0  0  0  0  0  0  0  0  0  0
   62.1945   34.7220   46.5352 H   0  0  0  0  0  0  0  0  0  0  0  0
   62.0056   33.2488   45.5264 H   0  0  0  0  0  0  0  0  0  0  0  0
   62.5181   32.6508   47.8975 H   0  0  0  0  0  0  0  0  0  0  0  0
   61.5225   34.6825   48.9634 H   0  0  0  0  0  0  0  0  0  0  0  0
   60.8525   33.1801   49.6850 H   0  0  0  0  0  0  0  0  0  0  0  0
   60.5830   31.1184   48.2681 H   0  0  0  0  0  0  0  0  0  0  0  0
   61.0565   31.1624   46.5259 H   0  0  0  0  0  0  0  0  0  0  0  0
   58.2556   33.3726   45.4028 H   0  0  0  0  0  0  0  0  0  0  0  0
   59.7165   32.4572   44.8774 H   0  0  0  0  0  0  0  0  0  0  0  0
   56.4405   30.7993   43.1862 H   0  0  0  0  0  0  0  0  0  0  0  0
   57.6370   29.4651   43.0636 H   0  0  0  0  0  0  0  0  0  0  0  0
   55.8787   29.0975   43.0636 H   0  0  0  0  0  0  0  0  0  0  0  0
   55.2667   27.3656   45.0930 H   0  0  0  0  0  0  0  0  0  0  0  0
  1  2  1  0
  2  3  1  0
  3  4  2  0
  4  5  1  0
  5  6  1  0
  5  7  2  0
  7  8  1  0
  8  9  1  0
 10  9  1  6
 10 11  1  0
 11 12  1  0
 12 13  1  0
 13 14  1  0
 14 15  1  0
 15 16  1  0
 16 17  1  0
 16 18  1  0
 14 19  1  0
  7 20  1  0
 20 21  1  0
 21 22  1  0
 20 23  2  0
 23  3  1  0
 18 10  1  0
 19 10  1  0
 17 12  1  0
  1 24  1  0
  1 25  1  0
  1 26  1  0
  4 27  1  0
  8 28  1  0
  8 29  1  0
  9 30  1  0
 11 31  1  0
 11 32  1  0
 12 33  1  1
 13 34  1  0
 13 35  1  0
 14 36  1  6
 15 37  1  0
 15 38  1  0
 16 39  1  1
 17 40  1  0
 17 41  1  0
 18 42  1  0
 18 43  1  0
 19 44  1  0
 19 45  1  0
 22 46  1  0
 22 47  1  0
 22 48  1  0
 23 49  1  0
M  END
>  <UniqueID>  (16) 
16

>  <SMILES>  (16) 
COc1cc(Br)c(CNC23CC4CC(CC(C4)C2)C3)c(OC)c1

>  <Energy>  (16) 
54.57926994253091

>  <Genealogy>  (16) 
COc1cc(Br)c(CNC23CC4CC(CC(C4)C2)C3)c(OC)c1 (3D coordinates assigned)
COc1cc(Br)c(CNC23CC4CC(CC(C4)C2)C3)c(OC)c1 (nonaromatic ring conformer: 54.57926994253091 kcal/mol)

>  <smiles>  (16) 
COc1cc(Br)c(CNC23CC4CC(CC(C4)C2)C3)c(OC)c1

>  <score_type>  (16) 
oracle

>  <origin>  (16) 
adg

>  <m_score__min__energy>  (16) 
-8.2200000000000006

>  <m_primary>  (16) 
energy

$$$$
16:0
     RDKit          3D

 34 36  0  0  0  0  0  0  0  0999 V2000
   63.3790   33.7640   46.7050 C   0  0  0  0  0  0  0  0  0  0  0  0
   63.2100   32.8700   47.6840 C   0  0  0  0  0  0  0  0  0  0  0  0
   62.3850   31.6270   47.4870 C   0  0  0  0  0  0  0  0  0  0  0  0
   61.1660   31.6690   48.3120 N   0  0  0  0  0  0  0  0  0  0  0  0
   60.5860   33.0220   48.3690 C   0  0  0  0  0  0  0  0  0  0  0  0
   59.8530   33.3750   47.0970 C   0  0  0  0  0  0  0  0  0  0  0  0
   59.9010   34.6810   46.5600 C   0  0  0  0  0  0  0  0  0  0  0  0
   59.2330   34.9910   45.3530 C   0  0  0  0  0  0  0  0  0  0  0  0
   58.5120   34.0030   44.6610 C   0  0  0  0  0  0  0  0  0  0  0  0
   58.4840   32.7230   45.2060 C   0  0  0  0  0  0  0  0  0  0  0  0
   59.1310   32.4110   46.3840 C   0  0  0  0  0  0  0  0  0  0  0  0
   58.9620   31.1390   46.6940 O   0  0  0  0  0  0  0  0  0  0  0  0
   58.2180   30.6140   45.7400 C   0  0  0  0  0  0  0  0  0  0  0  0
   57.7790   29.2970   45.6350 C   0  0  0  0  0  0  0  0  0  0  0  0
   56.9880   28.9520   44.5220 C   0  0  0  0  0  0  0  0  0  0  0  0
   56.6560   29.9230   43.5490 C   0  0  0  0  0  0  0  0  0  0  0  0
   57.1110   31.2490   43.6770 C   0  0  0  0  0  0  0  0  0  0  0  0
   57.8910   31.5570   44.7890 C   0  0  0  0  0  0  0  0  0  0  0  0
   63.9881   34.6630   46.8803 H   0  0  0  0  0  0  0  0  0  0  0  0
   62.9090   33.6008   45.7240 H   0  0  0  0  0  0  0  0  0  0  0  0
   63.6865   33.0475   48.6594 H   0  0  0  0  0  0  0  0  0  0  0  0
   62.1002   31.5480   46.4274 H   0  0  0  0  0  0  0  0  0  0  0  0
   62.9844   30.7558   47.7898 H   0  0  0  0  0  0  0  0  0  0  0  0
   60.4550   30.9960   47.9410 H   0  0  0  0  0  0  0  0  0  0  0  0
   61.4090   31.3830   49.2900 H   0  0  0  0  0  0  0  0  0  0  0  0
   59.8803   33.0711   49.2113 H   0  0  0  0  0  0  0  0  0  0  0  0
   61.4090   33.7403   48.4985 H   0  0  0  0  0  0  0  0  0  0  0  0
   60.4643   35.4653   47.0868 H   0  0  0  0  0  0  0  0  0  0  0  0
   59.2781   36.0144   44.9522 H   0  0  0  0  0  0  0  0  0  0  0  0
   57.9882   34.2334   43.7216 H   0  0  0  0  0  0  0  0  0  0  0  0
   58.0418   28.5491   46.3976 H   0  0  0  0  0  0  0  0  0  0  0  0
   56.6257   27.9196   44.4087 H   0  0  0  0  0  0  0  0  0  0  0  0
   56.0370   29.6398   42.6849 H   0  0  0  0  0  0  0  0  0  0  0  0
   56.8599   32.0133   42.9268 H   0  0  0  0  0  0  0  0  0  0  0  0
  1  2  2  0
  2  3  1  0
  3  4  1  0
  4  5  1  0
  5  6  1  0
  6  7  2  0
  7  8  1  0
  8  9  2  0
  9 10  1  0
 10 11  2  0
 11 12  1  0
 12 13  1  0
 13 14  2  0
 14 15  1  0
 15 16  2  0
 16 17  1  0
 17 18  2  0
 11  6  1  0
 18 13  1  0
 18 10  1  0
  1 19  1  0
  1 20  1  0
  2 21  1  0
  3 22  1  0
  3 23  1  0
  4 24  1  0
  4 25  1  0
  5 26  1  0
  5 27  1  0
  7 28  1  0
  8 29  1  0
  9 30  1  0
 14 31  1  0
 15 32  1  0
 16 33  1  0
 17 34  1  0
M  CHG  1   4   1
M  END
>  <UniqueID>  (17) 
17

>  <SMILES>  (17) 
C=CC[NH2+]Cc1cccc2c1oc1ccccc12

>  <Energy>  (17) 
73.91089020980115

>  <Genealogy>  (17) 
C=CC[NH2+]Cc1cccc2c1oc1ccccc12 (protonated)
C=CC[NH2+]Cc1cccc2c1oc1ccccc12 (3D coordinates assigned)
C=CC[NH2+]Cc1cccc2c1oc1ccccc12 (optimized conformer: 73.91089020980115 kcal/mol)

>  <smiles>  (17) 
C=CCNCc1cccc2c1oc1ccccc12

>  <score_type>  (17) 
oracle

>  <origin>  (17) 
adg

>  <m_score__min__energy>  (17) 
-5.5999999999999996

>  <m_primary>  (17) 
energy

$$$$
17:0
     RDKit          3D

 92 96  0  0  0  0  0  0  0  0999 V2000
   65.2320   32.1240   50.1600 C   0  0  0  0  0  0  0  0  0  0  0  0
   64.4540   33.0960   49.2650 C   0  0  0  0  0  0  0  0  0  0  0  0
   63.0640   32.6780   48.9330 N   0  0  0  0  0  0  0  0  0  0  0  0
   62.7950   32.6430   47.4670 C   0  0  0  0  0  0  0  0  0  0  0  0
   63.3610   33.8260   46.6590 C   0  0  0  0  0  0  0  0  0  0  0  0
   62.0060   33.3750   49.7100 C   0  0  0  0  0  0  0  0  0  0  0  0
   60.8570   33.9330   48.8390 C   0  0  0  0  0  0  0  0  0  0  0  0
   59.6680   33.0790   48.8960 N   0  0  0  0  0  0  0  0  0  0  0  0
   59.4280   32.1200   47.8560 C   0  0  0  0  0  0  0  0  0  0  0  0
   58.8370   32.5150   46.6480 C   0  0  0  0  0  0  0  0  0  0  0  0
   58.5440   33.8720   46.4030 C   0  0  0  0  0  0  0  0  0  0  0  0
   58.0040   34.2720   45.1840 C   0  0  0  0  0  0  0  0  0  0  0  0
   57.7720   33.3340   44.1850 C   0  0  0  0  0  0  0  0  0  0  0  0
   58.0500   31.9850   44.4070 C   0  0  0  0  0  0  0  0  0  0  0  0
   58.5560   31.5380   45.6550 C   0  0  0  0  0  0  0  0  0  0  0  0
   58.7890   30.1980   45.9140 N   0  0  0  0  0  0  0  0  0  0  0  0
   58.2470   29.1620   45.0060 C   0  0  0  0  0  0  0  0  0  0  0  0
   59.5090   29.8240   47.0360 C   0  0  0  0  0  0  0  0  0  0  0  0
   59.9630   28.4930   47.2330 C   0  0  0  0  0  0  0  0  0  0  0  0
   60.6230   28.1210   48.4060 C   0  0  0  0  0  0  0  0  0  0  0  0
   60.8810   29.0670   49.4010 C   0  0  0  0  0  0  0  0  0  0  0  0
   61.5090   28.7400   50.6090 O   0  0  0  0  0  0  0  0  0  0  0  0
   62.0760   29.6910   51.5060 C   0  0  0  0  0  0  0  0  0  0  0  0
   61.9480   29.1810   52.9600 C   0  0  0  0  0  0  0  0  0  0  0  0
   60.5700   29.2220   53.5610 N   0  0  2  0  0  0  0  0  0  0  0  0
   60.5310   28.4330   54.8240 C   0  0  0  0  0  0  0  0  0  0  0  0
   59.6280   28.5850   52.5810 C   0  0  0  0  0  0  0  0  0  0  0  0
   58.1880   29.1190   52.7200 C   0  0  0  0  0  0  0  0  0  0  0  0
   58.0860   30.5790   52.3940 N   0  0  1  0  0  0  0  0  0  0  0  0
   57.7960   30.7420   50.9440 C   0  0  0  0  0  0  0  0  0  0  0  0
   56.9960   31.2260   53.1980 C   0  0  0  0  0  0  0  0  0  0  0  0
   55.6090   30.6370   52.9870 C   0  0  0  0  0  0  0  0  0  0  0  0
   55.1410   29.5950   53.8070 C   0  0  0  0  0  0  0  0  0  0  0  0
   53.8640   29.0580   53.6130 C   0  0  0  0  0  0  0  0  0  0  0  0
   53.0340   29.5680   52.6110 C   0  0  0  0  0  0  0  0  0  0  0  0
   51.4370   28.8870   52.3620 Cl  0  0  0  0  0  0  0  0  0  0  0  0
   53.4780   30.6220   51.8080 C   0  0  0  0  0  0  0  0  0  0  0  0
   54.7560   31.1610   51.9990 C   0  0  0  0  0  0  0  0  0  0  0  0
   59.3800   31.2850   52.6870 C   0  0  0  0  0  0  0  0  0  0  0  0
   60.1570   30.6380   53.8540 C   0  0  0  0  0  0  0  0  0  0  0  0
   60.5030   30.3900   49.2000 C   0  0  0  0  0  0  0  0  0  0  0  0
   59.8200   30.7840   48.0330 C   0  0  0  0  0  0  0  0  0  0  0  0
   65.0398   32.3642   51.2161 H   0  0  0  0  0  0  0  0  0  0  0  0
   64.9060   31.0940   49.9530 H   0  0  0  0  0  0  0  0  0  0  0  0
   66.3084   32.2165   49.9530 H   0  0  0  0  0  0  0  0  0  0  0  0
   64.4036   34.0667   49.7800 H   0  0  0  0  0  0  0  0  0  0  0  0
   64.9980   33.1331   48.3096 H   0  0  0  0  0  0  0  0  0  0  0  0
   63.0160   31.6730   49.2280 H   0  0  0  0  0  0  0  0  0  0  0  0
   63.2328   31.7177   47.0644 H   0  0  0  0  0  0  0  0  0  0  0  0
   61.7017   32.7005   47.3598 H   0  0  0  0  0  0  0  0  0  0  0  0
   63.7305   34.5983   47.3496 H   0  0  0  0  0  0  0  0  0  0  0  0
   64.1885   33.4746   46.0252 H   0  0  0  0  0  0  0  0  0  0  0  0
   62.5681   34.2499   46.0252 H   0  0  0  0  0  0  0  0  0  0  0  0
   61.5796   32.6627   50.4316 H   0  0  0  0  0  0  0  0  0  0  0  0
   62.4835   34.2362   50.2002 H   0  0  0  0  0  0  0  0  0  0  0  0
   60.5917   34.9375   49.2003 H   0  0  0  0  0  0  0  0  0  0  0  0
   61.2040   33.9673   47.7957 H   0  0  0  0  0  0  0  0  0  0  0  0
   58.8580   33.3420   49.5010 H   0  0  0  0  0  0  0  0  0  0  0  0
   58.7440   34.6219   47.1825 H   0  0  0  0  0  0  0  0  0  0  0  0
   57.7608   35.3308   45.0113 H   0  0  0  0  0  0  0  0  0  0  0  0
   57.3672   33.6568   43.2145 H   0  0  0  0  0  0  0  0  0  0  0  0
   57.8742   31.2564   43.6019 H   0  0  0  0  0  0  0  0  0  0  0  0
   57.8179   28.3418   45.6002 H   0  0  0  0  0  0  0  0  0  0  0  0
   57.4644   29.6036   44.3716 H   0  0  0  0  0  0  0  0  0  0  0  0
   59.0560   28.7709   44.3716 H   0  0  0  0  0  0  0  0  0  0  0  0
   59.7918   27.7419   46.4478 H   0  0  0  0  0  0  0  0  0  0  0  0
   60.9414   27.0776   48.5473 H   0  0  0  0  0  0  0  0  0  0  0  0
   63.1388   29.8348   51.2617 H   0  0  0  0  0  0  0  0  0  0  0  0
   61.5404   30.6468   51.4080 H   0  0  0  0  0  0  0  0  0  0  0  0
   62.2917   28.1363   52.9803 H   0  0  0  0  0  0  0  0  0  0  0  0
   62.5537   29.8699   53.5671 H   0  0  0  0  0  0  0  0  0  0  0  0
   60.5648   29.1170   55.6848 H   0  0  0  0  0  0  0  0  0  0  0  0
   59.6026   27.8440   54.8599 H   0  0  0  0  0  0  0  0  0  0  0  0
   61.3967   27.7554   54.8599 H   0  0  0  0  0  0  0  0  0  0  0  0
   59.9851   28.7923   51.5614 H   0  0  0  0  0  0  0  0  0  0  0  0
   59.6073   27.5049   52.7881 H   0  0  0  0  0  0  0  0  0  0  0  0
   57.5354   28.5577   52.0352 H   0  0  0  0  0  0  0  0  0  0  0  0
   57.8810   28.9870   53.7680 H   0  0  0  0  0  0  0  0  0  0  0  0
   56.8434   31.2775   50.8185 H   0  0  0  0  0  0  0  0  0  0  0  0
   58.6052   31.3175   50.4707 H   0  0  0  0  0  0  0  0  0  0  0  0
   57.7250   29.7516   50.4707 H   0  0  0  0  0  0  0  0  0  0  0  0
   57.2515   31.1257   54.2632 H   0  0  0  0  0  0  0  0  0  0  0  0
   56.9421   32.2714   52.8600 H   0  0  0  0  0  0  0  0  0  0  0  0
   55.7839   29.1992   54.6070 H   0  0  0  0  0  0  0  0  0  0  0  0
   53.5126   28.2330   54.2501 H   0  0  0  0  0  0  0  0  0  0  0  0
   52.8221   31.0290   51.0243 H   0  0  0  0  0  0  0  0  0  0  0  0
   55.0950   31.9993   51.3726 H   0  0  0  0  0  0  0  0  0  0  0  0
   60.0094   31.2559   51.7854 H   0  0  0  0  0  0  0  0  0  0  0  0
   59.1381   32.3176   52.9790 H   0  0  0  0  0  0  0  0  0  0  0  0
   61.0601   31.2348   54.0494 H   0  0  0  0  0  0  0  0  0  0  0  0
   59.4880   30.6154   54.7269 H   0  0  0  0  0  0  0  0  0  0  0  0
   60.7417   31.1423   49.9662 H   0  0  0  0  0  0  0  0  0  0  0  0
  1  2  1  0
  2  3  1  0
  3  4  1  0
  4  5  1  0
  3  6  1  0
  6  7  1  0
  7  8  1  0
  8  9  1  0
  9 10  2  0
 10 11  1  0
 11 12  2  0
 12 13  1  0
 13 14  2  0
 14 15  1  0
 15 16  2  0
 16 17  1  0
 16 18  1  0
 18 19  2  0
 19 20  1  0
 20 21  2  0
 21 22  1  0
 22 23  1  0
 23 24  1  0
 25 24  1  6
 25 26  1  0
 25 27  1  0
 27 28  1  0
 28 29  1  0
 29 30  1  6
 29 31  1  0
 31 32  1  0
 32 33  2  0
 33 34  1  0
 34 35  2  0
 35 36  1  0
 35 37  1  0
 37 38  2  0
 29 39  1  0
 39 40  1  0
 21 41  1  0
 41 42  2  0
 42  9  1  0
 15 10  1  0
 42 18  1  0
 40 25  1  0
 38 32  1  0
  1 43  1  0
  1 44  1  0
  1 45  1  0
  2 46  1  0
  2 47  1  0
  3 48  1  0
  4 49  1  0
  4 50  1  0
  5 51  1  0
  5 52  1  0
  5 53  1  0
  6 54  1  0
  6 55  1  0
  7 56  1  0
  7 57  1  0
  8 58  1  0
 11 59  1  0
 12 60  1  0
 13 61  1  0
 14 62  1  0
 17 63  1  0
 17 64  1  0
 17 65  1  0
 19 66  1  0
 20 67  1  0
 23 68  1  0
 23 69  1  0
 24 70  1  0
 24 71  1  0
 26 72  1  0
 26 73  1  0
 26 74  1  0
 27 75  1  0
 27 76  1  0
 28 77  1  0
 28 78  1  0
 30 79  1  0
 30 80  1  0
 30 81  1  0
 31 82  1  0
 31 83  1  0
 33 84  1  0
 34 85  1  0
 37 86  1  0
 38 87  1  0
 39 88  1  0
 39 89  1  0
 40 90  1  0
 40 91  1  0
 41 92  1  0
M  CHG  4   3   1  16   1  25   1  29   1
M  END
>  <UniqueID>  (18) 
18

>  <SMILES>  (18) 
CC[NH+](CC)CCNc1c2ccccc2[n+](C)c2ccc(OCC[N+]3(C)CC[N+](C)(Cc4ccc(Cl)cc4)CC3)cc12

>  <Energy>  (18) 
162.30871950827697

>  <Genealogy>  (18) 
CC[NH+](CC)CCNc1c2ccccc2[n+](C)c2ccc(OCC[N+]3(C)CC[N+](C)(Cc4ccc(Cl)cc4)CC3)cc12 (protonated)
CC[NH+](CC)CCNc1c2ccccc2[n+](C)c2ccc(OCC[N+]3(C)CC[N+](C)(Cc4ccc(Cl)cc4)CC3)cc12 (3D coordinates assigned)
CC[NH+](CC)CCNc1c2ccccc2[n+](C)c2ccc(OCC[N+]3(C)CC[N+](C)(Cc4ccc(Cl)cc4)CC3)cc12 (nonaromatic ring conformer: 162.30871950827697 kcal/mol)

>  <smiles>  (18) 
CCN(CC)CCNc1c2ccccc2[n+](C)c2ccc(OCC[N+]3(C)CC[N+](C)(Cc4ccc(Cl)cc4)CC3)cc12

>  <score_type>  (18) 
oracle

>  <origin>  (18) 
adg

>  <m_score__min__energy>  (18) 
-3.4700000000000002

>  <m_primary>  (18) 
energy

$$$$
18:0
     RDKit          3D

 63 65  0  0  0  0  0  0  0  0999 V2000
   57.2327   31.7211   42.1805 H   0  0  0  0  0  0  0  0  0  0  0  0
   57.1770   31.2740   43.1840 C   0  0  0  0  0  0  0  0  0  0  0  0
   56.5700   30.0820   43.2980 C   0  0  0  0  0  0  0  0  0  0  0  0
   56.8635   29.2934   42.5895 H   0  0  0  0  0  0  0  0  0  0  0  0
   55.5190   29.7410   44.3200 C   0  0  0  0  0  0  0  0  0  0  0  0
   54.5802   29.4924   43.8035 H   0  0  0  0  0  0  0  0  0  0  0  0
   55.3729   30.6085   44.9803 H   0  0  0  0  0  0  0  0  0  0  0  0
   55.9240   28.6370   45.1030 O   0  0  0  0  0  0  0  0  0  0  0  0
   57.3350   28.5420   45.1380 C   0  0  0  0  0  0  0  0  0  0  0  0
   57.7741   29.4491   44.6971 H   0  0  0  0  0  0  0  0  0  0  0  0
   57.6563   27.6608   44.5633 H   0  0  0  0  0  0  0  0  0  0  0  0
   57.8040   28.4020   46.5880 C   0  0  0  0  0  0  0  0  0  0  0  0
   57.6311   27.3691   46.9245 H   0  0  0  0  0  0  0  0  0  0  0  0
   57.2363   29.1087   47.2111 H   0  0  0  0  0  0  0  0  0  0  0  0
   59.2480   28.7170   46.7090 N   0  0  0  0  0  0  0  0  0  0  0  0
   60.0560   27.9530   45.7300 C   0  0  0  0  0  0  0  0  0  0  0  0
   59.3882   27.3439   45.1030 H   0  0  0  0  0  0  0  0  0  0  0  0
   60.7572   27.3010   46.2714 H   0  0  0  0  0  0  0  0  0  0  0  0
   60.8450   28.9100   44.8450 C   0  0  0  0  0  0  0  0  0  0  0  0
   61.4181   29.6051   45.4763 H   0  0  0  0  0  0  0  0  0  0  0  0
   61.5363   28.3366   44.2099 H   0  0  0  0  0  0  0  0  0  0  0  0
   60.1503   29.4792   44.2099 H   0  0  0  0  0  0  0  0  0  0  0  0
   59.7330   28.4830   48.0900 C   0  0  0  0  0  0  0  0  0  0  0  0
   59.5589   27.4314   48.3616 H   0  0  0  0  0  0  0  0  0  0  0  0
   60.8079   28.7126   48.1335 H   0  0  0  0  0  0  0  0  0  0  0  0
   58.9950   29.3850   49.0750 C   0  0  0  0  0  0  0  0  0  0  0  0
   59.2416   29.0836   50.1038 H   0  0  0  0  0  0  0  0  0  0  0  0
   59.3008   30.4295   48.9156 H   0  0  0  0  0  0  0  0  0  0  0  0
   57.9106   29.2921   48.9156 H   0  0  0  0  0  0  0  0  0  0  0  0
   57.7760   32.0320   44.3020 C   0  0  0  0  0  0  0  0  0  0  0  0
   57.4290   33.3810   44.4650 C   0  0  0  0  0  0  0  0  0  0  0  0
   56.7077   33.8470   43.7776 H   0  0  0  0  0  0  0  0  0  0  0  0
   57.9940   34.1360   45.4950 C   0  0  0  0  0  0  0  0  0  0  0  0
   57.7142   35.1926   45.6189 H   0  0  0  0  0  0  0  0  0  0  0  0
   58.9140   33.5510   46.3680 C   0  0  0  0  0  0  0  0  0  0  0  0
   59.3577   34.1500   47.1769 H   0  0  0  0  0  0  0  0  0  0  0  0
   59.2750   32.2050   46.2190 C   0  0  0  0  0  0  0  0  0  0  0  0
   60.2390   31.6310   47.1160 N   0  0  0  0  0  0  0  0  0  0  0  0
   60.1080   30.6280   47.3820 H   0  0  0  0  0  0  0  0  0  0  0  0
   61.4360   32.2930   47.5690 C   0  0  0  0  0  0  0  0  0  0  0  0
   62.1080   33.1710   46.7060 C   0  0  0  0  0  0  0  0  0  0  0  0
   61.7240   33.3386   45.6889 H   0  0  0  0  0  0  0  0  0  0  0  0
   63.2310   33.8160   47.1190 N   0  0  0  0  0  0  0  0  0  0  0  0
   63.7340   33.6520   48.3710 C   0  0  0  0  0  0  0  0  0  0  0  0
   64.6530   34.1801   48.6652 H   0  0  0  0  0  0  0  0  0  0  0  0
   63.0880   32.8140   49.2880 C   0  0  0  0  0  0  0  0  0  0  0  0
   63.6540   32.6190   50.5950 N   0  0  0  0  0  0  0  0  0  0  0  0
   63.1100   32.9660   51.4170 H   0  0  0  0  0  0  0  0  0  0  0  0
   64.9480   32.0460   50.8450 C   0  0  0  0  0  0  0  0  0  0  0  0
   66.1270   32.7690   50.5880 C   0  0  0  0  0  0  0  0  0  0  0  0
   66.0665   33.7945   50.1947 H   0  0  0  0  0  0  0  0  0  0  0  0
   67.3760   32.1880   50.8310 C   0  0  0  0  0  0  0  0  0  0  0  0
   68.2950   32.7607   50.6377 H   0  0  0  0  0  0  0  0  0  0  0  0
   67.4580   30.8810   51.3190 C   0  0  0  0  0  0  0  0  0  0  0  0
   68.4409   30.4286   51.5170 H   0  0  0  0  0  0  0  0  0  0  0  0
   66.2890   30.1470   51.5560 C   0  0  0  0  0  0  0  0  0  0  0  0
   66.3532   29.1179   51.9391 H   0  0  0  0  0  0  0  0  0  0  0  0
   65.0400   30.7240   51.3050 C   0  0  0  0  0  0  0  0  0  0  0  0
   64.1240   30.1375   51.4693 H   0  0  0  0  0  0  0  0  0  0  0  0
   61.9310   32.1330   48.8740 C   0  0  0  0  0  0  0  0  0  0  0  0
   61.4081   31.4687   49.5778 H   0  0  0  0  0  0  0  0  0  0  0  0
   58.7340   31.4600   45.1550 C   0  0  0  0  0  0  0  0  0  0  0  0
   59.0633   30.4235   44.9903 H   0  0  0  0  0  0  0  0  0  0  0  0
  1  2  1  0
  2  3  2  0
  3  4  1  0
  3  5  1  0
  5  6  1  0
  5  7  1  0
  5  8  1  0
  8  9  1  0
  9 10  1  0
  9 11  1  0
  9 12  1  0
 12 13  1  0
 12 14  1  0
 12 15  1  0
 15 16  1  0
 16 17  1  0
 16 18  1  0
 16 19  1  0
 19 20  1  0
 19 21  1  0
 19 22  1  0
 15 23  1  0
 23 24  1  0
 23 25  1  0
 23 26  1  0
 26 27  1  0
 26 28  1  0
 26 29  1  0
  2 30  1  0
 30 31  2  0
 31 32  1  0
 31 33  1  0
 33 34  1  0
 33 35  2  0
 35 36  1  0
 35 37  1  0
 37 38  1  0
 38 39  1  0
 38 40  1  0
 40 41  2  0
 41 42  1  0
 41 43  1  0
 43 44  2  0
 44 45  1  0
 44 46  1  0
 46 47  1  0
 47 48  1  0
 47 49  1  0
 49 50  2  0
 50 51  1  0
 50 52  1  0
 52 53  1  0
 52 54  2  0
 54 55  1  0
 54 56  1  0
 56 57  1  0
 56 58  2  0
 58 59  1  0
 46 60  2  0
 60 61  1  0
 37 62  2  0
 62 63  1  0
 62 30  1  0
 60 40  1  0
 58 49  1  0
M  END
>  <UniqueID>  (19) 
19

>  <SMILES>  (19) 
CCN(CC)CCOC/C=C\c1cccc(Nc2cncc(Nc3ccccc3)c2)c1

>  <Energy>  (19) 
71.27489208282454

>  <Genealogy>  (19) 
CCN(CC)CCOC/C=C\c1cccc(Nc2cncc(Nc3ccccc3)c2)c1 (cis-trans isomerization)
CCN(CC)CCOC/C=C\c1cccc(Nc2cncc(Nc3ccccc3)c2)c1 (3D coordinates assigned)
CCN(CC)CCOC/C=C\c1cccc(Nc2cncc(Nc3ccccc3)c2)c1 (optimized conformer: 71.27489208282454 kcal/mol)

>  <smiles>  (19) 
CCN(CC)CCOCC=Cc1cccc(Nc2cncc(Nc3ccccc3)c2)c1

>  <score_type>  (19) 
oracle

>  <origin>  (19) 
adg

>  <m_score__min__energy>  (19) 
-7.2800000000000002

>  <m_primary>  (19) 
energy

$$$$
19:0
     RDKit          3D

 97100  0  0  0  0  0  0  0  0999 V2000
   56.9180   20.1560   46.4890 C   0  0  0  0  0  0  0  0  0  0  0  0
   56.7600   21.1810   45.3420 C   0  0  0  0  0  0  0  0  0  0  0  0
   57.8950   21.0760   44.3810 N   0  0  1  0  0  0  0  0  0  0  0  0
   57.3560   21.0790   42.9850 C   0  0  0  0  0  0  0  0  0  0  0  0
   58.9530   22.1060   44.5720 C   0  0  0  0  0  0  0  0  0  0  0  0
   58.4450   23.5530   44.8760 C   0  0  0  0  0  0  0  0  0  0  0  0
   57.3980   23.9590   43.9880 O   0  0  0  0  0  0  0  0  0  0  0  0
   57.3930   25.3500   43.8150 C   0  0  0  0  0  0  0  0  0  0  0  0
   58.0400   26.0290   45.0160 C   0  0  0  0  0  0  0  0  0  0  0  0
   57.0460   26.2070   46.1550 C   0  0  0  0  0  0  0  0  0  0  0  0
   57.7540   26.8330   47.2710 N   0  0  0  0  0  0  0  0  0  0  0  0
   59.1970   26.8880   47.0320 C   0  0  0  0  0  0  0  0  0  0  0  0
   59.6370   28.3370   46.8920 C   0  0  0  0  0  0  0  0  0  0  0  0
   58.4880   29.2350   47.0690 N   0  0  0  0  0  0  0  0  0  0  0  0
   58.4890   30.5810   46.5340 C   0  0  0  0  0  0  0  0  0  0  0  0
   57.9200   30.8520   45.2720 C   0  0  0  0  0  0  0  0  0  0  0  0
   57.1540   29.8670   44.6080 C   0  0  0  0  0  0  0  0  0  0  0  0
   56.7330   30.0420   43.3020 C   0  0  0  0  0  0  0  0  0  0  0  0
   57.0890   31.2020   42.6230 C   0  0  0  0  0  0  0  0  0  0  0  0
   57.7660   32.2350   43.2980 C   0  0  0  0  0  0  0  0  0  0  0  0
   58.1350   32.1190   44.6610 C   0  0  0  0  0  0  0  0  0  0  0  0
   58.7220   33.1530   45.3830 N   0  0  0  0  0  0  0  0  0  0  0  0
   58.8880   34.5030   44.8060 C   0  0  0  0  0  0  0  0  0  0  0  0
   59.2660   32.8980   46.6280 C   0  0  0  0  0  0  0  0  0  0  0  0
   59.8830   33.9360   47.3940 C   0  0  0  0  0  0  0  0  0  0  0  0
   60.7000   33.6320   48.4930 C   0  0  0  0  0  0  0  0  0  0  0  0
   61.5640   34.5640   49.0850 O   0  0  0  0  0  0  0  0  0  0  0  0
   62.5710   34.2660   50.0490 C   0  0  0  0  0  0  0  0  0  0  0  0
   63.7460   33.4790   49.4340 C   0  0  0  0  0  0  0  0  0  0  0  0
   64.7750   32.9730   50.4200 N   0  0  0  0  0  0  0  0  0  0  0  0
   64.2070   31.7040   50.9800 C   0  0  0  0  0  0  0  0  0  0  0  0
   66.0730   32.6570   49.7410 C   0  0  0  0  0  0  0  0  0  0  0  0
   67.1670   32.3350   50.7630 C   0  0  0  0  0  0  0  0  0  0  0  0
   67.4800   33.5060   51.6490 N   0  0  0  0  0  0  0  0  0  0  0  0
   67.6570   33.0470   53.0340 C   0  0  0  0  0  0  0  0  0  0  0  0
   68.7330   34.1290   51.1750 C   0  0  0  0  0  0  0  0  0  0  0  0
   66.4020   34.5330   51.6510 C   0  0  0  0  0  0  0  0  0  0  0  0
   64.9750   33.9370   51.5450 C   0  0  0  0  0  0  0  0  0  0  0  0
   60.6310   32.3430   49.0340 C   0  0  0  0  0  0  0  0  0  0  0  0
   59.8130   31.3640   48.4560 C   0  0  0  0  0  0  0  0  0  0  0  0
   59.1840   31.6050   47.2050 C   0  0  0  0  0  0  0  0  0  0  0  0
   56.8383   20.6732   47.4565 H   0  0  0  0  0  0  0  0  0  0  0  0
   56.1264   19.3960   46.4132 H   0  0  0  0  0  0  0  0  0  0  0  0
   57.9017   19.6696   46.4132 H   0  0  0  0  0  0  0  0  0  0  0  0
   55.8173   20.9851   44.8101 H   0  0  0  0  0  0  0  0  0  0  0  0
   56.7528   22.1937   45.7714 H   0  0  0  0  0  0  0  0  0  0  0  0
   58.3660   20.1450   44.5030 H   0  0  0  0  0  0  0  0  0  0  0  0
   56.2565   21.0851   43.0165 H   0  0  0  0  0  0  0  0  0  0  0  0
   57.7127   21.9752   42.4562 H   0  0  0  0  0  0  0  0  0  0  0  0
   57.7027   20.1789   42.4562 H   0  0  0  0  0  0  0  0  0  0  0  0
   59.5870   21.7871   45.4124 H   0  0  0  0  0  0  0  0  0  0  0  0
   59.4844   22.1710   43.6111 H   0  0  0  0  0  0  0  0  0  0  0  0
   58.0659   23.5853   45.9081 H   0  0  0  0  0  0  0  0  0  0  0  0
   59.2906   24.2427   44.7369 H   0  0  0  0  0  0  0  0  0  0  0  0
   57.9562   25.6056   42.9054 H   0  0  0  0  0  0  0  0  0  0  0  0
   56.3536   25.6976   43.7214 H   0  0  0  0  0  0  0  0  0  0  0  0
   58.8798   25.4113   45.3670 H   0  0  0  0  0  0  0  0  0  0  0  0
   58.3910   27.0237   44.7040 H   0  0  0  0  0  0  0  0  0  0  0  0
   56.2156   26.8510   45.8300 H   0  0  0  0  0  0  0  0  0  0  0  0
   56.6315   25.2346   46.4593 H   0  0  0  0  0  0  0  0  0  0  0  0
   57.4090   27.8080   47.4040 H   0  0  0  0  0  0  0  0  0  0  0  0
   59.7259   26.4251   47.8781 H   0  0  0  0  0  0  0  0  0  0  0  0
   59.4346   26.3434   46.1063 H   0  0  0  0  0  0  0  0  0  0  0  0
   60.3953   28.5620   47.6564 H   0  0  0  0  0  0  0  0  0  0  0  0
   60.0598   28.4885   45.8879 H   0  0  0  0  0  0  0  0  0  0  0  0
   57.7860   29.0260   47.8130 H   0  0  0  0  0  0  0  0  0  0  0  0
   56.8872   28.9423   45.1407 H   0  0  0  0  0  0  0  0  0  0  0  0
   56.1235   29.2722   42.8062 H   0  0  0  0  0  0  0  0  0  0  0  0
   56.8412   31.3125   41.5570 H   0  0  0  0  0  0  0  0  0  0  0  0
   58.0153   33.1572   42.7526 H   0  0  0  0  0  0  0  0  0  0  0  0
   58.9786   35.2400   45.6175 H   0  0  0  0  0  0  0  0  0  0  0  0
   59.7959   34.5274   44.1854 H   0  0  0  0  0  0  0  0  0  0  0  0
   58.0131   34.7466   44.1854 H   0  0  0  0  0  0  0  0  0  0  0  0
   59.7146   34.9873   47.1176 H   0  0  0  0  0  0  0  0  0  0  0  0
   62.9546   35.2094   50.4648 H   0  0  0  0  0  0  0  0  0  0  0  0
   62.1169   33.6410   50.8320 H   0  0  0  0  0  0  0  0  0  0  0  0
   63.3309   32.6108   48.9012 H   0  0  0  0  0  0  0  0  0  0  0  0
   64.2757   34.1873   48.7801 H   0  0  0  0  0  0  0  0  0  0  0  0
   64.2264   31.7472   52.0790 H   0  0  0  0  0  0  0  0  0  0  0  0
   63.1691   31.5837   50.6360 H   0  0  0  0  0  0  0  0  0  0  0  0
   64.8087   30.8498   50.6360 H   0  0  0  0  0  0  0  0  0  0  0  0
   65.9310   31.7883   49.0813 H   0  0  0  0  0  0  0  0  0  0  0  0
   66.3862   33.5371   49.1602 H   0  0  0  0  0  0  0  0  0  0  0  0
   66.8297   31.4967   51.3903 H   0  0  0  0  0  0  0  0  0  0  0  0
   68.0815   32.0783   50.2082 H   0  0  0  0  0  0  0  0  0  0  0  0
   67.3495   33.8443   53.7266 H   0  0  0  0  0  0  0  0  0  0  0  0
   67.0390   32.1534   53.2060 H   0  0  0  0  0  0  0  0  0  0  0  0
   68.7150   32.7997   53.2060 H   0  0  0  0  0  0  0  0  0  0  0  0
   69.3419   34.4317   52.0396 H   0  0  0  0  0  0  0  0  0  0  0  0
   69.2949   33.4053   50.5662 H   0  0  0  0  0  0  0  0  0  0  0  0
   68.4951   35.0138   50.5662 H   0  0  0  0  0  0  0  0  0  0  0  0
   66.4703   35.1067   52.5871 H   0  0  0  0  0  0  0  0  0  0  0  0
   66.5550   35.1621   50.7618 H   0  0  0  0  0  0  0  0  0  0  0  0
   64.7530   33.4134   52.4866 H   0  0  0  0  0  0  0  0  0  0  0  0
   64.3019   34.7842   51.3473 H   0  0  0  0  0  0  0  0  0  0  0  0
   61.2270   32.0956   49.9248 H   0  0  0  0  0  0  0  0  0  0  0  0
   59.6570   30.4053   48.9723 H   0  0  0  0  0  0  0  0  0  0  0  0
  1  2  1  0
  2  3  1  0
  3  4  1  0
  3  5  1  0
  5  6  1  0
  6  7  1  0
  7  8  1  0
  8  9  1  0
  9 10  1  0
 10 11  1  0
 11 12  1  0
 12 13  1  0
 13 14  1  0
 14 15  1  0
 15 16  2  0
 16 17  1  0
 17 18  2  0
 18 19  1  0
 19 20  2  0
 20 21  1  0
 21 22  2  0
 22 23  1  0
 22 24  1  0
 24 25  2  0
 25 26  1  0
 26 27  1  0
 27 28  1  0
 28 29  1  0
 29 30  1  0
 30 31  1  0
 30 32  1  0
 32 33  1  0
 33 34  1  0
 34 35  1  0
 34 36  1  0
 34 37  1  0
 37 38  1  0
 26 39  2  0
 39 40  1  0
 40 41  2  0
 41 15  1  0
 21 16  1  0
 41 24  1  0
 38 30  1  0
  1 42  1  0
  1 43  1  0
  1 44  1  0
  2 45  1  0
  2 46  1  0
  3 47  1  1
  4 48  1  0
  4 49  1  0
  4 50  1  0
  5 51  1  0
  5 52  1  0
  6 53  1  0
  6 54  1  0
  8 55  1  0
  8 56  1  0
  9 57  1  0
  9 58  1  0
 10 59  1  0
 10 60  1  0
 11 61  1  0
 12 62  1  0
 12 63  1  0
 13 64  1  0
 13 65  1  0
 14 66  1  0
 17 67  1  0
 18 68  1  0
 19 69  1  0
 20 70  1  0
 23 71  1  0
 23 72  1  0
 23 73  1  0
 25 74  1  0
 28 75  1  0
 28 76  1  0
 29 77  1  0
 29 78  1  0
 31 79  1  0
 31 80  1  0
 31 81  1  0
 32 82  1  0
 32 83  1  0
 33 84  1  0
 33 85  1  0
 35 86  1  0
 35 87  1  0
 35 88  1  0
 36 89  1  0
 36 90  1  0
 36 91  1  0
 37 92  1  0
 37 93  1  0
 38 94  1  0
 38 95  1  0
 39 96  1  0
 40 97  1  0
M  CHG  4   3   1  22   1  30   1  34   1
M  END
>  <UniqueID>  (20) 
20

>  <SMILES>  (20) 
CC[N@@H+](C)CCOCCCNCCNc1c2ccccc2[n+](C)c2cc(OCC[N+]3(C)CC[N+](C)(C)CC3)ccc12

>  <Energy>  (20) 
179.41895035919813

>  <Genealogy>  (20) 
CC[NH+](C)CCOCCCNCCNc1c2ccccc2[n+](C)c2cc(OCC[N+]3(C)CC[N+](C)(C)CC3)ccc12 (protonated)
CC[N@@H+](C)CCOCCCNCCNc1c2ccccc2[n+](C)c2cc(OCC[N+]3(C)CC[N+](C)(C)CC3)ccc12 (chirality)
CC[N@@H+](C)CCOCCCNCCNc1c2ccccc2[n+](C)c2cc(OCC[N+]3(C)CC[N+](C)(C)CC3)ccc12 (3D coordinates assigned)
CC[N@@H+](C)CCOCCCNCCNc1c2ccccc2[n+](C)c2cc(OCC[N+]3(C)CC[N+](C)(C)CC3)ccc12 (nonaromatic ring conformer: 179.41895035919813 kcal/mol)

>  <smiles>  (20) 
CCN(C)CCOCCCNCCNc1c2ccccc2[n+](C)c2cc(OCC[N+]3(C)CC[N+](C)(C)CC3)ccc12

>  <score_type>  (20) 
oracle

>  <origin>  (20) 
adg

>  <m_score__min__energy>  (20) 
-3.5299999999999998

>  <m_primary>  (20) 
energy

$$$$
20:0
     RDKit          3D

 70 73  0  0  0  0  0  0  0  0999 V2000
   58.6200   32.5140   50.2730 C   0  0  0  0  0  0  0  0  0  0  0  0
   59.2760   31.1610   50.5970 C   0  0  0  0  0  0  0  0  0  0  0  0
   58.2120   30.0660   50.6830 C   0  0  0  0  0  0  0  0  0  0  0  0
   60.2760   30.7770   49.5830 N   0  0  0  0  0  0  0  0  0  0  0  0
   60.4200   29.3200   49.4620 C   0  0  0  0  0  0  0  0  0  0  0  0
   60.2830   28.8990   47.9990 C   0  0  0  0  0  0  0  0  0  0  0  0
   60.8300   29.9190   47.1030 N   0  0  0  0  0  0  0  0  0  0  0  0
   59.9550   30.8060   46.3940 C   0  0  0  0  0  0  0  0  0  0  0  0
   58.9600   30.2640   45.5620 C   0  0  0  0  0  0  0  0  0  0  0  0
   58.8580   28.8680   45.3770 C   0  0  0  0  0  0  0  0  0  0  0  0
   57.8390   28.3250   44.6000 C   0  0  0  0  0  0  0  0  0  0  0  0
   56.9000   29.1580   44.0030 C   0  0  0  0  0  0  0  0  0  0  0  0
   56.9950   30.5410   44.1550 C   0  0  0  0  0  0  0  0  0  0  0  0
   58.0460   31.1280   44.9060 C   0  0  0  0  0  0  0  0  0  0  0  0
   58.1810   32.4970   45.0240 N   0  0  0  0  0  0  0  0  0  0  0  0
   57.4160   33.3910   44.1250 C   0  0  0  0  0  0  0  0  0  0  0  0
   59.0540   33.0320   45.9540 C   0  0  0  0  0  0  0  0  0  0  0  0
   59.0040   34.4040   46.3000 C   0  0  0  0  0  0  0  0  0  0  0  0
   59.9240   34.9580   47.1800 C   0  0  0  0  0  0  0  0  0  0  0  0
   60.9220   34.1730   47.7370 C   0  0  0  0  0  0  0  0  0  0  0  0
   60.9900   32.7970   47.4600 C   0  0  0  0  0  0  0  0  0  0  0  0
   62.0240   32.0100   47.9990 O   0  0  0  0  0  0  0  0  0  0  0  0
   63.3910   32.0050   47.5880 C   0  0  0  0  0  0  0  0  0  0  0  0
   64.1880   33.0820   48.3650 C   0  0  0  0  0  0  0  0  0  0  0  0
   64.2440   32.9030   49.8530 N   0  0  0  0  0  0  0  0  0  0  0  0
   65.6400   33.0670   50.3380 C   0  0  0  0  0  0  0  0  0  0  0  0
   63.7980   31.5040   50.1630 C   0  0  0  0  0  0  0  0  0  0  0  0
   63.1010   31.4070   51.5340 C   0  0  0  0  0  0  0  0  0  0  0  0
   61.9250   32.1980   51.6290 O   0  0  0  0  0  0  0  0  0  0  0  0
   61.9430   33.3450   50.7910 C   0  0  0  0  0  0  0  0  0  0  0  0
   63.3590   33.8990   50.5430 C   0  0  0  0  0  0  0  0  0  0  0  0
   60.0140   32.2040   46.6050 C   0  0  0  0  0  0  0  0  0  0  0  0
   58.3683   33.0331   51.2096 H   0  0  0  0  0  0  0  0  0  0  0  0
   59.3194   33.1301   49.6889 H   0  0  0  0  0  0  0  0  0  0  0  0
   57.7031   32.3464   49.6889 H   0  0  0  0  0  0  0  0  0  0  0  0
   59.7868   31.2722   51.5648 H   0  0  0  0  0  0  0  0  0  0  0  0
   57.9975   29.8453   51.7391 H   0  0  0  0  0  0  0  0  0  0  0  0
   57.2924   30.4084   50.1859 H   0  0  0  0  0  0  0  0  0  0  0  0
   58.5807   29.1566   50.1859 H   0  0  0  0  0  0  0  0  0  0  0  0
   61.2070   31.1910   49.8310 H   0  0  0  0  0  0  0  0  0  0  0  0
   61.4100   29.0198   49.8359 H   0  0  0  0  0  0  0  0  0  0  0  0
   59.6325   28.8298   50.0533 H   0  0  0  0  0  0  0  0  0  0  0  0
   60.8274   27.9558   47.8442 H   0  0  0  0  0  0  0  0  0  0  0  0
   59.2145   28.7710   47.7712 H   0  0  0  0  0  0  0  0  0  0  0  0
   61.8620   30.0360   46.9820 H   0  0  0  0  0  0  0  0  0  0  0  0
   59.5927   28.2016   45.8526 H   0  0  0  0  0  0  0  0  0  0  0  0
   57.7767   27.2360   44.4582 H   0  0  0  0  0  0  0  0  0  0  0  0
   56.0807   28.7257   43.4098 H   0  0  0  0  0  0  0  0  0  0  0  0
   56.2411   31.1888   43.6839 H   0  0  0  0  0  0  0  0  0  0  0  0
   56.8172   34.0908   44.7265 H   0  0  0  0  0  0  0  0  0  0  0  0
   58.1137   33.9571   43.4903 H   0  0  0  0  0  0  0  0  0  0  0  0
   56.7488   32.7892   43.4903 H   0  0  0  0  0  0  0  0  0  0  0  0
   58.2219   35.0427   45.8636 H   0  0  0  0  0  0  0  0  0  0  0  0
   59.8608   36.0257   47.4368 H   0  0  0  0  0  0  0  0  0  0  0  0
   61.6680   34.6319   48.4024 H   0  0  0  0  0  0  0  0  0  0  0  0
   63.8270   31.0152   47.7887 H   0  0  0  0  0  0  0  0  0  0  0  0
   63.4427   32.2274   46.5120 H   0  0  0  0  0  0  0  0  0  0  0  0
   65.2203   33.0780   47.9851 H   0  0  0  0  0  0  0  0  0  0  0  0
   63.6542   34.0290   48.1970 H   0  0  0  0  0  0  0  0  0  0  0  0
   65.6483   33.0680   51.4380 H   0  0  0  0  0  0  0  0  0  0  0  0
   66.2570   32.2352   49.9674 H   0  0  0  0  0  0  0  0  0  0  0  0
   66.0474   34.0192   49.9674 H   0  0  0  0  0  0  0  0  0  0  0  0
   63.0947   31.1753   49.3837 H   0  0  0  0  0  0  0  0  0  0  0  0
   64.6912   30.8627   50.1915 H   0  0  0  0  0  0  0  0  0  0  0  0
   62.8292   30.3562   51.7128 H   0  0  0  0  0  0  0  0  0  0  0  0
   63.8090   31.7884   52.2846 H   0  0  0  0  0  0  0  0  0  0  0  0
   61.4992   33.0754   49.8213 H   0  0  0  0  0  0  0  0  0  0  0  0
   61.3717   34.1320   51.3051 H   0  0  0  0  0  0  0  0  0  0  0  0
   63.2824   34.7993   49.9157 H   0  0  0  0  0  0  0  0  0  0  0  0
   63.8077   34.1295   51.5205 H   0  0  0  0  0  0  0  0  0  0  0  0
  1  2  1  0
  2  3  1  0
  2  4  1  0
  4  5  1  0
  5  6  1  0
  6  7  1  0
  7  8  1  0
  8  9  2  0
  9 10  1  0
 10 11  2  0
 11 12  1  0
 12 13  2  0
 13 14  1  0
 14 15  2  0
 15 16  1  0
 15 17  1  0
 17 18  2  0
 18 19  1  0
 19 20  2  0
 20 21  1  0
 21 22  1  0
 22 23  1  0
 23 24  1  0
 24 25  1  0
 25 26  1  0
 25 27  1  0
 27 28  1  0
 28 29  1  0
 29 30  1  0
 30 31  1  0
 21 32  2  0
 32  8  1  0
 14  9  1  0
 32 17  1  0
 31 25  1  0
  1 33  1  0
  1 34  1  0
  1 35  1  0
  2 36  1  0
  3 37  1  0
  3 38  1  0
  3 39  1  0
  4 40  1  0
  5 41  1  0
  5 42  1  0
  6 43  1  0
  6 44  1  0
  7 45  1  0
 10 46  1  0
 11 47  1  0
 12 48  1  0
 13 49  1  0
 16 50  1  0
 16 51  1  0
 16 52  1  0
 18 53  1  0
 19 54  1  0
 20 55  1  0
 23 56  1  0
 23 57  1  0
 24 58  1  0
 24 59  1  0
 26 60  1  0
 26 61  1  0
 26 62  1  0
 27 63  1  0
 27 64  1  0
 28 65  1  0
 28 66  1  0
 30 67  1  0
 30 68  1  0
 31 69  1  0
 31 70  1  0
M  CHG  2  15   1  25   1
M  END
>  <UniqueID>  (21) 
21

>  <SMILES>  (21) 
CC(C)NCCNc1c2ccccc2[n+](C)c2cccc(OCC[N+]3(C)CCOCC3)c12

>  <Energy>  (21) 
117.15163008814378

>  <Genealogy>  (21) 
CC(C)NCCNc1c2ccccc2[n+](C)c2cccc(OCC[N+]3(C)CCOCC3)c12 (3D coordinates assigned)
CC(C)NCCNc1c2ccccc2[n+](C)c2cccc(OCC[N+]3(C)CCOCC3)c12 (nonaromatic ring conformer: 117.15163008814378 kcal/mol)

>  <smiles>  (21) 
CC(C)NCCNc1c2ccccc2[n+](C)c2cccc(OCC[N+]3(C)CCOCC3)c12

>  <score_type>  (21) 
oracle

>  <origin>  (21) 
adg

>  <m_score__min__energy>  (21) 
-4.5800000000000001

>  <m_primary>  (21) 
energy

$$$$
21:0
     RDKit          3D

 72 76  0  0  0  0  0  0  0  0999 V2000
   57.1210   31.1930   51.7330 C   0  0  0  0  0  0  0  0  0  0  0  0
   58.1290   30.0500   51.5890 C   0  0  0  0  0  0  0  0  0  0  0  0
   59.2810   30.4240   50.7470 N   0  0  0  0  0  0  0  0  0  0  0  0
   59.8120   31.7540   51.0970 C   0  0  0  0  0  0  0  0  0  0  0  0
   60.3990   32.4690   49.8690 C   0  0  0  0  0  0  0  0  0  0  0  0
   60.6680   31.5230   48.7840 N   0  0  0  0  0  0  0  0  0  0  0  0
   59.8690   31.4770   47.5910 C   0  0  0  0  0  0  0  0  0  0  0  0
   59.2500   30.2890   47.2140 C   0  0  0  0  0  0  0  0  0  0  0  0
   58.4200   30.2220   46.1090 C   0  0  0  0  0  0  0  0  0  0  0  0
   58.2860   31.2810   45.2460 N   0  0  0  0  0  0  0  0  0  0  0  0
   57.6640   31.0790   43.9280 C   0  0  0  0  0  0  0  0  0  0  0  0
   58.8250   32.5070   45.6140 C   0  0  0  0  0  0  0  0  0  0  0  0
   58.5570   33.6850   44.8740 C   0  0  0  0  0  0  0  0  0  0  0  0
   59.1570   34.8990   45.2130 C   0  0  0  0  0  0  0  0  0  0  0  0
   60.0320   34.9730   46.2940 C   0  0  0  0  0  0  0  0  0  0  0  0
   60.2850   33.8440   47.0700 C   0  0  0  0  0  0  0  0  0  0  0  0
   59.6600   32.6140   46.7750 C   0  0  0  0  0  0  0  0  0  0  0  0
   57.7880   28.8760   46.0910 C   0  0  0  0  0  0  0  0  0  0  0  0
   56.7410   28.3430   45.3260 C   0  0  0  0  0  0  0  0  0  0  0  0
   56.2820   27.0450   45.6150 C   0  0  0  0  0  0  0  0  0  0  0  0
   56.8170   26.3150   46.7060 C   0  0  0  0  0  0  0  0  0  0  0  0
   56.3430   25.0490   47.0680 O   0  0  0  0  0  0  0  0  0  0  0  0
   57.1610   23.9110   47.3380 C   0  0  0  0  0  0  0  0  0  0  0  0
   57.0030   22.8890   46.1920 C   0  0  0  0  0  0  0  0  0  0  0  0
   57.9010   23.1000   44.9990 N   0  0  0  0  0  0  0  0  0  0  0  0
   59.1790   23.7100   45.4590 C   0  0  0  0  0  0  0  0  0  0  0  0
   57.3000   23.9740   43.9440 C   0  0  0  0  0  0  0  0  0  0  0  0
   56.3290   23.2230   43.0040 C   0  0  0  0  0  0  0  0  0  0  0  0
   55.9120   21.9950   43.5560 O   0  0  0  0  0  0  0  0  0  0  0  0
   57.0190   21.1220   43.6760 C   0  0  0  0  0  0  0  0  0  0  0  0
   58.2290   21.7740   44.3960 C   0  0  0  0  0  0  0  0  0  0  0  0
   57.8230   26.8910   47.4960 C   0  0  0  0  0  0  0  0  0  0  0  0
   58.2940   28.1580   47.1630 C   0  0  0  0  0  0  0  0  0  0  0  0
   59.2380   28.9900   47.8850 C   0  0  0  0  0  0  0  0  0  0  0  0
   59.9000   28.6550   48.9000 O   0  0  0  0  0  0  0  0  0  0  0  0
   56.9441   31.3936   52.8000 H   0  0  0  0  0  0  0  0  0  0  0  0
   57.5209   32.0974   51.2512 H   0  0  0  0  0  0  0  0  0  0  0  0
   56.1737   30.9093   51.2512 H   0  0  0  0  0  0  0  0  0  0  0  0
   58.4960   29.7736   52.5885 H   0  0  0  0  0  0  0  0  0  0  0  0
   57.6158   29.2072   51.1030 H   0  0  0  0  0  0  0  0  0  0  0  0
   58.9570   30.4490   49.7520 H   0  0  0  0  0  0  0  0  0  0  0  0
   60.0300   29.7000   50.8190 H   0  0  0  0  0  0  0  0  0  0  0  0
   58.9973   32.3662   51.5112 H   0  0  0  0  0  0  0  0  0  0  0  0
   60.6166   31.6204   51.8351 H   0  0  0  0  0  0  0  0  0  0  0  0
   59.6814   33.2246   49.5166 H   0  0  0  0  0  0  0  0  0  0  0  0
   61.3478   32.9422   50.1619 H   0  0  0  0  0  0  0  0  0  0  0  0
   61.2700   30.6960   49.0020 H   0  0  0  0  0  0  0  0  0  0  0  0
   56.6254   30.7417   44.0605 H   0  0  0  0  0  0  0  0  0  0  0  0
   57.6734   32.0264   43.3691 H   0  0  0  0  0  0  0  0  0  0  0  0
   58.2282   30.3179   43.3691 H   0  0  0  0  0  0  0  0  0  0  0  0
   57.8657   33.6424   44.0194 H   0  0  0  0  0  0  0  0  0  0  0  0
   58.9377   35.8014   44.6235 H   0  0  0  0  0  0  0  0  0  0  0  0
   60.5250   35.9261   46.5359 H   0  0  0  0  0  0  0  0  0  0  0  0
   60.9787   33.9122   47.9209 H   0  0  0  0  0  0  0  0  0  0  0  0
   56.2864   28.9295   44.5140 H   0  0  0  0  0  0  0  0  0  0  0  0
   55.5000   26.5919   44.9880 H   0  0  0  0  0  0  0  0  0  0  0  0
   58.2133   24.2231   47.4102 H   0  0  0  0  0  0  0  0  0  0  0  0
   56.8524   23.4512   48.2884 H   0  0  0  0  0  0  0  0  0  0  0  0
   57.2122   21.8890   46.5998 H   0  0  0  0  0  0  0  0  0  0  0  0
   55.9755   23.0129   45.8194 H   0  0  0  0  0  0  0  0  0  0  0  0
   59.2046   23.7222   46.5586 H   0  0  0  0  0  0  0  0  0  0  0  0
   60.0252   23.1187   45.0791 H   0  0  0  0  0  0  0  0  0  0  0  0
   59.2514   24.7398   45.0791 H   0  0  0  0  0  0  0  0  0  0  0  0
   56.7480   24.7873   44.4378 H   0  0  0  0  0  0  0  0  0  0  0  0
   58.1271   24.3495   43.3236 H   0  0  0  0  0  0  0  0  0  0  0  0
   55.4447   23.8531   42.8282 H   0  0  0  0  0  0  0  0  0  0  0  0
   56.8578   23.0130   42.0626 H   0  0  0  0  0  0  0  0  0  0  0  0
   56.7064   20.2359   44.2480 H   0  0  0  0  0  0  0  0  0  0  0  0
   57.3435   20.8598   42.6582 H   0  0  0  0  0  0  0  0  0  0  0  0
   58.5670   21.0987   45.1958 H   0  0  0  0  0  0  0  0  0  0  0  0
   59.0122   21.9392   43.6414 H   0  0  0  0  0  0  0  0  0  0  0  0
   58.2322   26.3514   48.3628 H   0  0  0  0  0  0  0  0  0  0  0  0
  1  2  1  0
  2  3  1  0
  3  4  1  0
  4  5  1  0
  5  6  1  0
  6  7  1  0
  7  8  2  0
  8  9  1  0
  9 10  2  0
 10 11  1  0
 10 12  1  0
 12 13  2  0
 13 14  1  0
 14 15  2  0
 15 16  1  0
 16 17  2  0
  9 18  1  0
 18 19  2  0
 19 20  1  0
 20 21  2  0
 21 22  1  0
 22 23  1  0
 23 24  1  0
 24 25  1  0
 25 26  1  0
 25 27  1  0
 27 28  1  0
 28 29  1  0
 29 30  1  0
 30 31  1  0
 21 32  1  0
 32 33  2  0
 33 34  1  0
 34 35  2  0
 17  7  1  0
 33 18  1  0
 34  8  1  0
 17 12  1  0
 31 25  1  0
  1 36  1  0
  1 37  1  0
  1 38  1  0
  2 39  1  0
  2 40  1  0
  3 41  1  0
  3 42  1  0
  4 43  1  0
  4 44  1  0
  5 45  1  0
  5 46  1  0
  6 47  1  0
 11 48  1  0
 11 49  1  0
 11 50  1  0
 13 51  1  0
 14 52  1  0
 15 53  1  0
 16 54  1  0
 19 55  1  0
 20 56  1  0
 23 57  1  0
 23 58  1  0
 24 59  1  0
 24 60  1  0
 26 61  1  0
 26 62  1  0
 26 63  1  0
 27 64  1  0
 27 65  1  0
 28 66  1  0
 28 67  1  0
 30 68  1  0
 30 69  1  0
 31 70  1  0
 31 71  1  0
 32 72  1  0
M  CHG  3   3   1  10   1  25   1
M  END
>  <UniqueID>  (22) 
22

>  <SMILES>  (22) 
CC[NH2+]CCNc1c2c([n+](C)c3ccccc13)-c1ccc(OCC[N+]3(C)CCOCC3)cc1C2=O

>  <Energy>  (22) 
149.3532634918222

>  <Genealogy>  (22) 
CC[NH2+]CCNc1c2c([n+](C)c3ccccc13)-c1ccc(OCC[N+]3(C)CCOCC3)cc1C2=O (protonated)
CC[NH2+]CCNc1c2c([n+](C)c3ccccc13)-c1ccc(OCC[N+]3(C)CCOCC3)cc1C2=O (3D coordinates assigned)
CC[NH2+]CCNc1c2c([n+](C)c3ccccc13)-c1ccc(OCC[N+]3(C)CCOCC3)cc1C2=O (nonaromatic ring conformer: 149.3532634918222 kcal/mol)

>  <smiles>  (22) 
CCNCCNc1c2c([n+](C)c3ccccc13)-c1ccc(OCC[N+]3(C)CCOCC3)cc1C2=O

>  <score_type>  (22) 
oracle

>  <origin>  (22) 
adg

>  <m_score__min__energy>  (22) 
-5.1600000000000001

>  <m_primary>  (22) 
energy

$$$$
22:0
     RDKit          3D

 35 36  0  0  0  0  0  0  0  0999 V2000
   58.1930   32.7250   48.0540 C   0  0  0  0  0  0  0  0  0  0  0  0
   58.5340   32.9020   46.6310 N   0  0  2  0  0  0  0  0  0  0  0  0
   58.9870   31.6350   46.0050 C   0  0  0  0  0  0  0  0  0  0  0  0
   58.1520   31.1980   44.8180 C   0  0  0  0  0  0  0  0  0  0  0  0
   57.4060   30.0090   44.8780 C   0  0  0  0  0  0  0  0  0  0  0  0
   56.6520   29.5910   43.7770 C   0  0  0  0  0  0  0  0  0  0  0  0
   56.6320   30.3580   42.6100 C   0  0  0  0  0  0  0  0  0  0  0  0
   57.3800   31.5350   42.5360 C   0  0  0  0  0  0  0  0  0  0  0  0
   58.1470   31.9480   43.6280 C   0  0  0  0  0  0  0  0  0  0  0  0
   59.4570   34.0000   46.3810 C   0  0  0  0  0  0  0  0  0  0  0  0
   59.1930   34.9570   45.0720 S   0  0  0  0  0  0  0  0  0  0  0  0
   60.3060   34.5160   47.4210 N   0  0  0  0  0  0  0  0  0  0  0  0
   61.5590   33.9060   47.7630 C   0  0  0  0  0  0  0  0  0  0  0  0
   62.5150   33.6940   46.7560 C   0  0  0  0  0  0  0  0  0  0  0  0
   63.7530   33.1250   47.0580 C   0  0  0  0  0  0  0  0  0  0  0  0
   64.0360   32.7230   48.3630 C   0  0  0  0  0  0  0  0  0  0  0  0
   63.0730   32.8680   49.3620 C   0  0  0  0  0  0  0  0  0  0  0  0
   61.8300   33.4450   49.0710 C   0  0  0  0  0  0  0  0  0  0  0  0
   60.5140   33.4690   50.4620 Br  0  0  0  0  0  0  0  0  0  0  0  0
   58.9968   33.1422   48.6783 H   0  0  0  0  0  0  0  0  0  0  0  0
   57.2501   33.2475   48.2728 H   0  0  0  0  0  0  0  0  0  0  0  0
   58.0776   31.6532   48.2728 H   0  0  0  0  0  0  0  0  0  0  0  0
   57.6290   33.1520   46.1650 H   0  0  0  0  0  0  0  0  0  0  0  0
   60.0251   31.7688   45.6666 H   0  0  0  0  0  0  0  0  0  0  0  0
   58.8870   30.8502   46.7692 H   0  0  0  0  0  0  0  0  0  0  0  0
   57.4151   29.4034   45.7963 H   0  0  0  0  0  0  0  0  0  0  0  0
   56.0738   28.6567   43.8301 H   0  0  0  0  0  0  0  0  0  0  0  0
   56.0274   30.0352   41.7496 H   0  0  0  0  0  0  0  0  0  0  0  0
   57.3652   32.1380   41.6161 H   0  0  0  0  0  0  0  0  0  0  0  0
   58.7505   32.8649   43.5569 H   0  0  0  0  0  0  0  0  0  0  0  0
   59.8470   35.1140   48.1450 H   0  0  0  0  0  0  0  0  0  0  0  0
   62.2855   33.9794   45.7187 H   0  0  0  0  0  0  0  0  0  0  0  0
   64.5056   32.9936   46.2666 H   0  0  0  0  0  0  0  0  0  0  0  0
   65.0186   32.2916   48.6047 H   0  0  0  0  0  0  0  0  0  0  0  0
   63.2911   32.5271   50.3848 H   0  0  0  0  0  0  0  0  0  0  0  0
  1  2  1  0
  2  3  1  0
  3  4  1  0
  4  5  2  0
  5  6  1  0
  6  7  2  0
  7  8  1  0
  8  9  2  0
  2 10  1  0
 10 11  2  0
 10 12  1  0
 12 13  1  0
 13 14  2  0
 14 15  1  0
 15 16  2  0
 16 17  1  0
 17 18  2  0
 18 19  1  0
  9  4  1  0
 18 13  1  0
  1 20  1  0
  1 21  1  0
  1 22  1  0
  2 23  1  6
  3 24  1  0
  3 25  1  0
  5 26  1  0
  6 27  1  0
  7 28  1  0
  8 29  1  0
  9 30  1  0
 12 31  1  0
 14 32  1  0
 15 33  1  0
 16 34  1  0
 17 35  1  0
M  CHG  1   2   1
M  END
>  <UniqueID>  (23) 
23

>  <SMILES>  (23) 
C[N@H+](Cc1ccccc1)C(=S)Nc1ccccc1Br

>  <Energy>  (23) 
52.17418590991852

>  <Genealogy>  (23) 
C[NH+](Cc1ccccc1)C(=S)Nc1ccccc1Br (protonated)
C[N@H+](Cc1ccccc1)C(=S)Nc1ccccc1Br (chirality)
C[N@H+](Cc1ccccc1)C(=S)Nc1ccccc1Br (3D coordinates assigned)
C[N@H+](Cc1ccccc1)C(=S)Nc1ccccc1Br (optimized conformer: 52.17418590991852 kcal/mol)

>  <smiles>  (23) 
CN(Cc1ccccc1)C(=S)Nc1ccccc1Br

>  <score_type>  (23) 
oracle

>  <origin>  (23) 
adg

>  <m_score__min__energy>  (23) 
-5.71

>  <m_primary>  (23) 
energy

$$$$
23:0
     RDKit          3D

 75 78  0  0  0  0  0  0  0  0999 V2000
   63.3380   34.1290   46.4160 C   0  0  0  0  0  0  0  0  0  0  0  0
   63.7560   32.8510   47.1330 C   0  0  0  0  0  0  0  0  0  0  0  0
   63.2250   32.8420   48.5160 N   0  0  0  0  0  0  0  0  0  0  0  0
   64.1790   33.4780   49.4410 C   0  0  0  0  0  0  0  0  0  0  0  0
   62.9090   31.4700   48.9670 C   0  0  0  0  0  0  0  0  0  0  0  0
   61.9080   30.8180   48.0020 C   0  0  0  0  0  0  0  0  0  0  0  0
   60.6570   30.3020   48.7250 C   0  0  0  0  0  0  0  0  0  0  0  0
   59.4690   31.0690   48.3470 N   0  0  0  0  0  0  0  0  0  0  0  0
   58.9900   31.0340   46.9970 C   0  0  0  0  0  0  0  0  0  0  0  0
   58.4710   29.8260   46.4980 C   0  0  0  0  0  0  0  0  0  0  0  0
   58.5630   28.6350   47.2530 C   0  0  0  0  0  0  0  0  0  0  0  0
   58.0150   27.4460   46.7810 C   0  0  0  0  0  0  0  0  0  0  0  0
   57.3520   27.4240   45.5620 C   0  0  0  0  0  0  0  0  0  0  0  0
   57.2480   28.5860   44.7980 C   0  0  0  0  0  0  0  0  0  0  0  0
   57.8310   29.8050   45.2330 C   0  0  0  0  0  0  0  0  0  0  0  0
   57.7500   30.9590   44.4790 N   0  0  0  0  0  0  0  0  0  0  0  0
   57.3010   30.8890   43.0700 C   0  0  0  0  0  0  0  0  0  0  0  0
   58.1230   32.1730   45.0250 C   0  0  0  0  0  0  0  0  0  0  0  0
   57.7590   33.3940   44.4080 C   0  0  0  0  0  0  0  0  0  0  0  0
   58.2070   34.6100   44.9010 C   0  0  0  0  0  0  0  0  0  0  0  0
   59.0630   34.6500   45.9910 C   0  0  0  0  0  0  0  0  0  0  0  0
   59.4300   33.4720   46.6620 C   0  0  0  0  0  0  0  0  0  0  0  0
   60.4700   33.5280   47.6640 N   0  0  0  0  0  0  0  0  0  0  0  0
   60.5730   34.5500   48.7080 C   0  0  0  0  0  0  0  0  0  0  0  0
   59.6640   34.2250   49.9010 C   0  0  0  0  0  0  0  0  0  0  0  0
   60.3570   33.3150   50.9190 C   0  0  0  0  0  0  0  0  0  0  0  0
   59.5850   32.0610   51.0750 N   0  0  0  0  0  0  0  0  0  0  0  0
   58.1460   32.3220   51.3150 C   0  0  0  0  0  0  0  0  0  0  0  0
   57.3650   31.0360   51.6700 C   0  0  0  0  0  0  0  0  0  0  0  0
   58.1640   29.7770   51.3240 C   0  0  0  0  0  0  0  0  0  0  0  0
   59.5260   29.7780   52.0370 C   0  0  0  0  0  0  0  0  0  0  0  0
   60.1460   31.1870   52.1240 C   0  0  0  0  0  0  0  0  0  0  0  0
   58.8660   32.2240   46.2400 C   0  0  0  0  0  0  0  0  0  0  0  0
   63.0857   34.9003   47.1586 H   0  0  0  0  0  0  0  0  0  0  0  0
   64.1669   34.4838   45.7859 H   0  0  0  0  0  0  0  0  0  0  0  0
   62.4596   33.9254   45.7859 H   0  0  0  0  0  0  0  0  0  0  0  0
   63.3606   31.9821   46.5865 H   0  0  0  0  0  0  0  0  0  0  0  0
   64.8543   32.8038   47.1704 H   0  0  0  0  0  0  0  0  0  0  0  0
   63.8746   33.2751   50.4784 H   0  0  0  0  0  0  0  0  0  0  0  0
   65.1856   33.0696   49.2676 H   0  0  0  0  0  0  0  0  0  0  0  0
   64.1892   34.5642   49.2676 H   0  0  0  0  0  0  0  0  0  0  0  0
   63.8325   30.8730   48.9923 H   0  0  0  0  0  0  0  0  0  0  0  0
   62.4655   31.5134   49.9727 H   0  0  0  0  0  0  0  0  0  0  0  0
   61.6020   31.5628   47.2526 H   0  0  0  0  0  0  0  0  0  0  0  0
   62.4050   29.9569   47.5313 H   0  0  0  0  0  0  0  0  0  0  0  0
   60.5005   29.2458   48.4605 H   0  0  0  0  0  0  0  0  0  0  0  0
   60.8117   30.4136   49.8083 H   0  0  0  0  0  0  0  0  0  0  0  0
   59.0610   31.7770   48.9990 H   0  0  0  0  0  0  0  0  0  0  0  0
   59.0746   28.6479   48.2267 H   0  0  0  0  0  0  0  0  0  0  0  0
   58.1073   26.5241   47.3739 H   0  0  0  0  0  0  0  0  0  0  0  0
   56.9069   26.4866   45.1971 H   0  0  0  0  0  0  0  0  0  0  0  0
   56.7049   28.5575   43.8419 H   0  0  0  0  0  0  0  0  0  0  0  0
   56.2145   30.7196   43.0394 H   0  0  0  0  0  0  0  0  0  0  0  0
   57.5391   31.8351   42.5619 H   0  0  0  0  0  0  0  0  0  0  0  0
   57.8158   30.0603   42.5619 H   0  0  0  0  0  0  0  0  0  0  0  0
   57.1087   33.3777   43.5210 H   0  0  0  0  0  0  0  0  0  0  0  0
   57.8819   35.5470   44.4253 H   0  0  0  0  0  0  0  0  0  0  0  0
   59.4597   35.6167   46.3346 H   0  0  0  0  0  0  0  0  0  0  0  0
   61.2960   32.8990   47.5550 H   0  0  0  0  0  0  0  0  0  0  0  0
   61.6152   34.6025   49.0559 H   0  0  0  0  0  0  0  0  0  0  0  0
   60.2547   35.5131   48.2824 H   0  0  0  0  0  0  0  0  0  0  0  0
   59.3818   35.1645   50.3987 H   0  0  0  0  0  0  0  0  0  0  0  0
   58.7787   33.6954   49.5192 H   0  0  0  0  0  0  0  0  0  0  0  0
   61.3717   33.0781   50.5664 H   0  0  0  0  0  0  0  0  0  0  0  0
   60.4137   33.8307   51.8890 H   0  0  0  0  0  0  0  0  0  0  0  0
   58.0503   33.0346   52.1475 H   0  0  0  0  0  0  0  0  0  0  0  0
   57.7193   32.7279   50.3859 H   0  0  0  0  0  0  0  0  0  0  0  0
   57.1486   31.0362   52.7485 H   0  0  0  0  0  0  0  0  0  0  0  0
   56.4351   31.0253   51.0824 H   0  0  0  0  0  0  0  0  0  0  0  0
   57.5935   28.8907   51.6386 H   0  0  0  0  0  0  0  0  0  0  0  0
   58.3361   29.7577   50.2377 H   0  0  0  0  0  0  0  0  0  0  0  0
   59.3906   29.3886   53.0568 H   0  0  0  0  0  0  0  0  0  0  0  0
   60.2105   29.1473   51.4508 H   0  0  0  0  0  0  0  0  0  0  0  0
   59.9269   31.6192   53.1115 H   0  0  0  0  0  0  0  0  0  0  0  0
   61.2336   31.1082   51.9792 H   0  0  0  0  0  0  0  0  0  0  0  0
  1  2  1  0
  2  3  1  0
  3  4  1  0
  3  5  1  0
  5  6  1  0
  6  7  1  0
  7  8  1  0
  8  9  1  0
  9 10  2  0
 10 11  1  0
 11 12  2  0
 12 13  1  0
 13 14  2  0
 14 15  1  0
 15 16  2  0
 16 17  1  0
 16 18  1  0
 18 19  2  0
 19 20  1  0
 20 21  2  0
 21 22  1  0
 22 23  1  0
 23 24  1  0
 24 25  1  0
 25 26  1  0
 26 27  1  0
 27 28  1  0
 28 29  1  0
 29 30  1  0
 30 31  1  0
 31 32  1  0
 22 33  2  0
 33  9  1  0
 15 10  1  0
 33 18  1  0
 32 27  1  0
  1 34  1  0
  1 35  1  0
  1 36  1  0
  2 37  1  0
  2 38  1  0
  4 39  1  0
  4 40  1  0
  4 41  1  0
  5 42  1  0
  5 43  1  0
  6 44  1  0
  6 45  1  0
  7 46  1  0
  7 47  1  0
  8 48  1  0
 11 49  1  0
 12 50  1  0
 13 51  1  0
 14 52  1  0
 17 53  1  0
 17 54  1  0
 17 55  1  0
 19 56  1  0
 20 57  1  0
 21 58  1  0
 23 59  1  0
 24 60  1  0
 24 61  1  0
 25 62  1  0
 25 63  1  0
 26 64  1  0
 26 65  1  0
 28 66  1  0
 28 67  1  0
 29 68  1  0
 29 69  1  0
 30 70  1  0
 30 71  1  0
 31 72  1  0
 31 73  1  0
 32 74  1  0
 32 75  1  0
M  CHG  1  16   1
M  END
>  <UniqueID>  (24) 
24

>  <SMILES>  (24) 
CCN(C)CCCNc1c2ccccc2[n+](C)c2cccc(NCCCN3CCCCC3)c12

>  <Energy>  (24) 
107.83763956563011

>  <Genealogy>  (24) 
CCN(C)CCCNc1c2ccccc2[n+](C)c2cccc(NCCCN3CCCCC3)c12 (3D coordinates assigned)
CCN(C)CCCNc1c2ccccc2[n+](C)c2cccc(NCCCN3CCCCC3)c12 (nonaromatic ring conformer: 107.83763956563011 kcal/mol)

>  <smiles>  (24) 
CCN(C)CCCNc1c2ccccc2[n+](C)c2cccc(NCCCN3CCCCC3)c12

>  <score_type>  (24) 
oracle

>  <origin>  (24) 
adg

>  <m_score__min__energy>  (24) 
-6.4800000000000004

>  <m_primary>  (24) 
energy

$$$$
24:0
     RDKit          3D

 11 10  0  0  0  0  0  0  0  0999 V2000
   66.7310   27.0070   42.6250 C   0  0  0  0  0  0  0  0  0  0  0  0
   65.6460   27.1580   43.6890 C   0  0  0  0  0  0  0  0  0  0  0  0
   65.1270   28.5250   43.7190 N   0  0  0  0  0  0  0  0  0  0  0  0
   67.7072   26.8711   43.1135 H   0  0  0  0  0  0  0  0  0  0  0  0
   66.5099   26.1310   41.9976 H   0  0  0  0  0  0  0  0  0  0  0  0
   66.7575   27.9101   41.9976 H   0  0  0  0  0  0  0  0  0  0  0  0
   64.8219   26.4654   43.4630 H   0  0  0  0  0  0  0  0  0  0  0  0
   66.0845   26.9283   44.6713 H   0  0  0  0  0  0  0  0  0  0  0  0
   64.1050   28.5160   43.9430 H   0  0  0  0  0  0  0  0  0  0  0  0
   65.6410   29.0900   44.4320 H   0  0  0  0  0  0  0  0  0  0  0  0
   65.2630   28.9620   42.7790 H   0  0  0  0  0  0  0  0  0  0  0  0
  1  2  1  0
  2  3  1  0
  1  4  1  0
  1  5  1  0
  1  6  1  0
  2  7  1  0
  2  8  1  0
  3  9  1  0
  3 10  1  0
  3 11  1  0
M  CHG  1   3   1
M  END
>  <UniqueID>  (25) 
25

>  <SMILES>  (25) 
CC[NH3+]

>  <Energy>  (25) 
2.5274334224558044

>  <Genealogy>  (25) 
CC[NH3+] (protonated)
CC[NH3+] (3D coordinates assigned)
CC[NH3+] (optimized conformer: 2.5274334224558044 kcal/mol)

>  <smiles>  (25) 
CCN

>  <score_type>  (25) 
oracle

>  <origin>  (25) 
adg

>  <m_score__min__energy>  (25) 
-1.8799999999999999

>  <m_primary>  (25) 
energy

$$$$
25:0
     RDKit          3D

 61 63  0  0  0  0  0  0  0  0999 V2000
   57.7620   26.0660   44.1600 C   0  0  0  0  0  0  0  0  0  0  0  0
   58.3090   27.4760   43.9430 C   0  0  0  0  0  0  0  0  0  0  0  0
   57.4240   28.2500   43.0600 N   0  0  0  0  0  0  0  0  0  0  0  0
   56.8280   29.3820   43.7870 C   0  0  0  0  0  0  0  0  0  0  0  0
   57.8860   30.4520   44.0920 C   0  0  0  0  0  0  0  0  0  0  0  0
   57.9140   30.8240   45.5810 C   0  0  0  0  0  0  0  0  0  0  0  0
   59.2460   31.2700   46.0010 N   0  0  0  0  0  0  0  0  0  0  0  0
   59.8060   30.8560   47.2610 C   0  0  0  0  0  0  0  0  0  0  0  0
   60.0640   29.4920   47.4800 C   0  0  0  0  0  0  0  0  0  0  0  0
   60.0700   28.5780   46.4050 C   0  0  0  0  0  0  0  0  0  0  0  0
   60.2250   27.2130   46.6280 C   0  0  0  0  0  0  0  0  0  0  0  0
   60.3730   26.7340   47.9230 C   0  0  0  0  0  0  0  0  0  0  0  0
   60.4020   27.6210   49.0010 C   0  0  0  0  0  0  0  0  0  0  0  0
   60.2890   29.0220   48.8000 C   0  0  0  0  0  0  0  0  0  0  0  0
   60.3500   29.9150   49.8530 N   0  0  0  0  0  0  0  0  0  0  0  0
   60.8120   29.4550   51.1840 C   0  0  0  0  0  0  0  0  0  0  0  0
   60.0320   31.2470   49.6560 C   0  0  0  0  0  0  0  0  0  0  0  0
   59.8310   32.1280   50.7460 C   0  0  0  0  0  0  0  0  0  0  0  0
   59.6260   33.4870   50.5430 C   0  0  0  0  0  0  0  0  0  0  0  0
   59.6540   34.0140   49.2600 C   0  0  0  0  0  0  0  0  0  0  0  0
   59.8010   33.1750   48.1460 C   0  0  0  0  0  0  0  0  0  0  0  0
   60.0420   33.7790   46.8550 N   0  0  0  0  0  0  0  0  0  0  0  0
   59.0530   34.7430   46.3320 C   0  0  0  0  0  0  0  0  0  0  0  0
   58.3010   34.2120   45.1120 C   0  0  0  0  0  0  0  0  0  0  0  0
   61.4330   33.8020   46.3670 C   0  0  0  0  0  0  0  0  0  0  0  0
   62.4160   33.5140   47.4990 C   0  0  0  0  0  0  0  0  0  0  0  0
   59.8800   31.7630   48.3380 C   0  0  0  0  0  0  0  0  0  0  0  0
   57.6840   25.8649   45.2387 H   0  0  0  0  0  0  0  0  0  0  0  0
   56.7667   25.9838   43.6988 H   0  0  0  0  0  0  0  0  0  0  0  0
   58.4414   25.3341   43.6988 H   0  0  0  0  0  0  0  0  0  0  0  0
   58.3853   27.9865   44.9144 H   0  0  0  0  0  0  0  0  0  0  0  0
   59.2996   27.4007   43.4708 H   0  0  0  0  0  0  0  0  0  0  0  0
   56.6590   27.6270   42.7100 H   0  0  0  0  0  0  0  0  0  0  0  0
   57.9760   28.6160   42.2480 H   0  0  0  0  0  0  0  0  0  0  0  0
   56.0321   29.8269   43.1717 H   0  0  0  0  0  0  0  0  0  0  0  0
   56.4158   29.0127   44.7377 H   0  0  0  0  0  0  0  0  0  0  0  0
   58.8749   30.0662   43.8036 H   0  0  0  0  0  0  0  0  0  0  0  0
   57.6298   31.3562   43.5203 H   0  0  0  0  0  0  0  0  0  0  0  0
   57.1930   31.6353   45.7599 H   0  0  0  0  0  0  0  0  0  0  0  0
   57.6511   29.9291   46.1642 H   0  0  0  0  0  0  0  0  0  0  0  0
   59.8250   31.8410   45.3460 H   0  0  0  0  0  0  0  0  0  0  0  0
   59.9505   28.9495   45.3765 H   0  0  0  0  0  0  0  0  0  0  0  0
   60.2303   26.5139   45.7788 H   0  0  0  0  0  0  0  0  0  0  0  0
   60.4677   25.6525   48.1001 H   0  0  0  0  0  0  0  0  0  0  0  0
   60.5142   27.2281   50.0223 H   0  0  0  0  0  0  0  0  0  0  0  0
   60.2663   29.9983   51.9695 H   0  0  0  0  0  0  0  0  0  0  0  0
   60.6226   28.3762   51.2852 H   0  0  0  0  0  0  0  0  0  0  0  0
   61.8900   29.6491   51.2852 H   0  0  0  0  0  0  0  0  0  0  0  0
   59.8373   31.7296   51.7713 H   0  0  0  0  0  0  0  0  0  0  0  0
   59.4408   34.1476   51.4028 H   0  0  0  0  0  0  0  0  0  0  0  0
   59.5600   35.1004   49.1151 H   0  0  0  0  0  0  0  0  0  0  0  0
   58.3243   34.9652   47.1255 H   0  0  0  0  0  0  0  0  0  0  0  0
   59.6004   35.6443   46.0189 H   0  0  0  0  0  0  0  0  0  0  0  0
   57.4443   33.6071   45.4440 H   0  0  0  0  0  0  0  0  0  0  0  0
   57.9407   35.0570   44.5070 H   0  0  0  0  0  0  0  0  0  0  0  0
   58.9768   33.5897   44.5070 H   0  0  0  0  0  0  0  0  0  0  0  0
   61.5521   33.0382   45.5844 H   0  0  0  0  0  0  0  0  0  0  0  0
   61.6462   34.8033   45.9647 H   0  0  0  0  0  0  0  0  0  0  0  0
   61.9141   33.6610   48.4667 H   0  0  0  0  0  0  0  0  0  0  0  0
   62.7686   32.4748   47.4230 H   0  0  0  0  0  0  0  0  0  0  0  0
   63.2736   34.1986   47.4230 H   0  0  0  0  0  0  0  0  0  0  0  0
  1  2  1  0
  2  3  1  0
  3  4  1  0
  4  5  1  0
  5  6  1  0
  6  7  1  0
  7  8  1  0
  8  9  2  0
  9 10  1  0
 10 11  2  0
 11 12  1  0
 12 13  2  0
 13 14  1  0
 14 15  2  0
 15 16  1  0
 15 17  1  0
 17 18  2  0
 18 19  1  0
 19 20  2  0
 20 21  1  0
 21 22  1  0
 22 23  1  0
 23 24  1  0
 22 25  1  0
 25 26  1  0
 21 27  2  0
 27  8  1  0
 14  9  1  0
 27 17  1  0
  1 28  1  0
  1 29  1  0
  1 30  1  0
  2 31  1  0
  2 32  1  0
  3 33  1  0
  3 34  1  0
  4 35  1  0
  4 36  1  0
  5 37  1  0
  5 38  1  0
  6 39  1  0
  6 40  1  0
  7 41  1  0
 10 42  1  0
 11 43  1  0
 12 44  1  0
 13 45  1  0
 16 46  1  0
 16 47  1  0
 16 48  1  0
 18 49  1  0
 19 50  1  0
 20 51  1  0
 23 52  1  0
 23 53  1  0
 24 54  1  0
 24 55  1  0
 24 56  1  0
 25 57  1  0
 25 58  1  0
 26 59  1  0
 26 60  1  0
 26 61  1  0
M  CHG  2   3   1  15   1
M  END
>  <UniqueID>  (26) 
26

>  <SMILES>  (26) 
CC[NH2+]CCCNc1c2ccccc2[n+](C)c2cccc(N(CC)CC)c12

>  <Energy>  (26) 
85.78671243147174

>  <Genealogy>  (26) 
CC[NH2+]CCCNc1c2ccccc2[n+](C)c2cccc(N(CC)CC)c12 (protonated)
CC[NH2+]CCCNc1c2ccccc2[n+](C)c2cccc(N(CC)CC)c12 (3D coordinates assigned)
CC[NH2+]CCCNc1c2ccccc2[n+](C)c2cccc(N(CC)CC)c12 (optimized conformer: 85.78671243147174 kcal/mol)

>  <smiles>  (26) 
CCNCCCNc1c2ccccc2[n+](C)c2cccc(N(CC)CC)c12

>  <score_type>  (26) 
oracle

>  <origin>  (26) 
adg

>  <m_score__min__energy>  (26) 
-4.6299999999999999

>  <m_primary>  (26) 
energy

$$$$
26:0
     RDKit          3D

 61 63  0  0  0  0  0  0  0  0999 V2000
   60.6480   26.8940   46.6570 C   0  0  0  0  0  0  0  0  0  0  0  0
   60.3490   28.2880   46.2840 N   0  0  0  0  0  0  0  0  0  0  0  0
   60.8740   28.6090   44.9470 C   0  0  0  0  0  0  0  0  0  0  0  0
   60.7690   29.2600   47.3170 C   0  0  0  0  0  0  0  0  0  0  0  0
   59.8650   29.2980   48.5630 C   0  0  0  0  0  0  0  0  0  0  0  0
   58.6020   29.9590   48.2380 N   0  0  0  0  0  0  0  0  0  0  0  0
   58.5600   31.0890   47.3520 C   0  0  0  0  0  0  0  0  0  0  0  0
   58.9550   32.3410   47.8150 C   0  0  0  0  0  0  0  0  0  0  0  0
   58.8970   33.4460   47.0090 C   0  0  0  0  0  0  0  0  0  0  0  0
   58.4660   33.3760   45.7070 N   0  0  0  0  0  0  0  0  0  0  0  0
   58.4200   34.5920   44.8740 C   0  0  0  0  0  0  0  0  0  0  0  0
   58.0910   32.1460   45.1880 C   0  0  0  0  0  0  0  0  0  0  0  0
   57.6640   32.0060   43.8460 C   0  0  0  0  0  0  0  0  0  0  0  0
   57.3070   30.7600   43.3300 C   0  0  0  0  0  0  0  0  0  0  0  0
   57.3690   29.6120   44.1270 C   0  0  0  0  0  0  0  0  0  0  0  0
   57.0250   28.3210   43.5780 N   0  0  0  0  0  0  0  0  0  0  0  0
   58.1920   27.4240   43.5170 C   0  0  0  0  0  0  0  0  0  0  0  0
   58.1110   26.2490   44.5140 C   0  0  0  0  0  0  0  0  0  0  0  0
   56.9400   26.3610   45.4140 N   0  0  0  0  0  0  0  0  0  0  0  0
   57.3800   26.7320   46.7680 C   0  0  0  0  0  0  0  0  0  0  0  0
   56.1900   25.0950   45.4710 C   0  0  0  0  0  0  0  0  0  0  0  0
   57.7940   29.7260   45.4580 C   0  0  0  0  0  0  0  0  0  0  0  0
   58.1380   30.9760   46.0080 C   0  0  0  0  0  0  0  0  0  0  0  0
   59.3390   34.6700   47.7380 C   0  0  0  0  0  0  0  0  0  0  0  0
   59.6810   34.1790   49.1530 C   0  0  0  0  0  0  0  0  0  0  0  0
   59.4310   32.6640   49.1840 C   0  0  0  0  0  0  0  0  0  0  0  0
   60.6673   26.8038   47.7531 H   0  0  0  0  0  0  0  0  0  0  0  0
   59.8717   26.2305   46.2481 H   0  0  0  0  0  0  0  0  0  0  0  0
   61.6281   26.6072   46.2481 H   0  0  0  0  0  0  0  0  0  0  0  0
   61.8086   29.1804   45.0475 H   0  0  0  0  0  0  0  0  0  0  0  0
   61.0714   27.6770   44.3971 H   0  0  0  0  0  0  0  0  0  0  0  0
   60.1344   29.2095   44.3971 H   0  0  0  0  0  0  0  0  0  0  0  0
   61.7879   28.9998   47.6396 H   0  0  0  0  0  0  0  0  0  0  0  0
   60.7056   30.2558   46.8539 H   0  0  0  0  0  0  0  0  0  0  0  0
   59.6634   28.2703   48.8995 H   0  0  0  0  0  0  0  0  0  0  0  0
   60.3723   29.8569   49.3631 H   0  0  0  0  0  0  0  0  0  0  0  0
   57.7310   29.3930   48.3470 H   0  0  0  0  0  0  0  0  0  0  0  0
   58.3864   35.4797   45.5227 H   0  0  0  0  0  0  0  0  0  0  0  0
   59.3171   34.6356   44.2390 H   0  0  0  0  0  0  0  0  0  0  0  0
   57.5221   34.5677   44.2390 H   0  0  0  0  0  0  0  0  0  0  0  0
   57.6128   32.8942   43.1992 H   0  0  0  0  0  0  0  0  0  0  0  0
   56.9731   30.6794   42.2850 H   0  0  0  0  0  0  0  0  0  0  0  0
   56.6600   28.4550   42.6070 H   0  0  0  0  0  0  0  0  0  0  0  0
   56.2530   27.8760   44.1270 H   0  0  0  0  0  0  0  0  0  0  0  0
   58.2643   27.0138   42.4989 H   0  0  0  0  0  0  0  0  0  0  0  0
   59.0760   28.0203   43.7871 H   0  0  0  0  0  0  0  0  0  0  0  0
   58.0349   25.3086   43.9484 H   0  0  0  0  0  0  0  0  0  0  0  0
   59.0185   26.2690   45.1353 H   0  0  0  0  0  0  0  0  0  0  0  0
   56.7600   26.2092   47.5111 H   0  0  0  0  0  0  0  0  0  0  0  0
   58.4335   26.4454   46.9026 H   0  0  0  0  0  0  0  0  0  0  0  0
   57.2755   27.8187   46.9026 H   0  0  0  0  0  0  0  0  0  0  0  0
   56.0237   24.8143   46.5215 H   0  0  0  0  0  0  0  0  0  0  0  0
   55.2203   25.2203   44.9670 H   0  0  0  0  0  0  0  0  0  0  0  0
   56.7657   24.3047   44.9670 H   0  0  0  0  0  0  0  0  0  0  0  0
   57.8599   28.8236   46.0836 H   0  0  0  0  0  0  0  0  0  0  0  0
   60.2241   35.1103   47.2557 H   0  0  0  0  0  0  0  0  0  0  0  0
   58.5659   35.4525   47.7445 H   0  0  0  0  0  0  0  0  0  0  0  0
   60.7362   34.3911   49.3802 H   0  0  0  0  0  0  0  0  0  0  0  0
   59.0609   34.6913   49.9033 H   0  0  0  0  0  0  0  0  0  0  0  0
   60.3600   32.1206   49.4116 H   0  0  0  0  0  0  0  0  0  0  0  0
   58.7067   32.3740   49.9594 H   0  0  0  0  0  0  0  0  0  0  0  0
  1  2  1  0
  2  3  1  0
  2  4  1  0
  4  5  1  0
  5  6  1  0
  6  7  1  0
  7  8  2  0
  8  9  1  0
  9 10  2  0
 10 11  1  0
 10 12  1  0
 12 13  2  0
 13 14  1  0
 14 15  2  0
 15 16  1  0
 16 17  1  0
 17 18  1  0
 18 19  1  0
 19 20  1  0
 19 21  1  0
 15 22  1  0
 22 23  2  0
  9 24  1  0
 24 25  1  0
 25 26  1  0
 23  7  1  0
 26  8  1  0
 23 12  1  0
  1 27  1  0
  1 28  1  0
  1 29  1  0
  3 30  1  0
  3 31  1  0
  3 32  1  0
  4 33  1  0
  4 34  1  0
  5 35  1  0
  5 36  1  0
  6 37  1  0
 11 38  1  0
 11 39  1  0
 11 40  1  0
 13 41  1  0
 14 42  1  0
 16 43  1  0
 16 44  1  0
 17 45  1  0
 17 46  1  0
 18 47  1  0
 18 48  1  0
 20 49  1  0
 20 50  1  0
 20 51  1  0
 21 52  1  0
 21 53  1  0
 21 54  1  0
 22 55  1  0
 24 56  1  0
 24 57  1  0
 25 58  1  0
 25 59  1  0
 26 60  1  0
 26 61  1  0
M  CHG  2  10   1  16   1
M  END
>  <UniqueID>  (27) 
27

>  <SMILES>  (27) 
CN(C)CCNc1c2c([n+](C)c3ccc([NH2+]CCN(C)C)cc13)CCC2

>  <Energy>  (27) 
81.67916084522555

>  <Genealogy>  (27) 
CN(C)CCNc1c2c([n+](C)c3ccc([NH2+]CCN(C)C)cc13)CCC2 (protonated)
CN(C)CCNc1c2c([n+](C)c3ccc([NH2+]CCN(C)C)cc13)CCC2 (3D coordinates assigned)
CN(C)CCNc1c2c([n+](C)c3ccc([NH2+]CCN(C)C)cc13)CCC2 (nonaromatic ring conformer: 81.67916084522555 kcal/mol)

>  <smiles>  (27) 
CN(C)CCNc1ccc2c(c1)c(NCCN(C)C)c1c([n+]2C)CCC1

>  <score_type>  (27) 
oracle

>  <origin>  (27) 
adg

>  <m_score__min__energy>  (27) 
-4.25

>  <m_primary>  (27) 
energy

$$$$
27:0
     RDKit          3D

 57 60  0  0  0  0  0  0  0  0999 V2000
   52.7150   30.5070   50.8240 C   0  0  0  0  0  0  0  0  0  0  0  0
   53.5340   30.3000   52.0970 C   0  0  0  0  0  0  0  0  0  0  0  0
   54.4050   29.1190   51.9750 N   0  0  0  0  0  0  0  0  0  0  0  0
   55.0380   28.7520   53.2600 C   0  0  0  0  0  0  0  0  0  0  0  0
   56.5550   29.0110   53.2770 C   0  0  0  0  0  0  0  0  0  0  0  0
   57.0020   29.5500   52.0460 O   0  0  0  0  0  0  0  0  0  0  0  0
   58.4130   29.6510   52.0060 C   0  0  0  0  0  0  0  0  0  0  0  0
   58.8280   31.0090   51.4310 C   0  0  0  0  0  0  0  0  0  0  0  0
   59.4360   30.8570   50.0300 C   0  0  0  0  0  0  0  0  0  0  0  0
   59.1290   32.0220   49.2030 N   0  0  0  0  0  0  0  0  0  0  0  0
   58.8930   31.9700   47.7840 C   0  0  0  0  0  0  0  0  0  0  0  0
   58.6430   30.8550   46.9990 C   0  0  0  0  0  0  0  0  0  0  0  0
   58.5270   29.2380   47.3780 S   0  0  0  0  0  0  0  0  0  0  0  0
   58.2840   28.3440   45.9670 C   0  0  0  0  0  0  0  0  0  0  0  0
   58.2510   26.9500   46.0530 C   0  0  0  0  0  0  0  0  0  0  0  0
   58.1180   26.1790   44.9020 C   0  0  0  0  0  0  0  0  0  0  0  0
   58.0270   26.7970   43.6590 C   0  0  0  0  0  0  0  0  0  0  0  0
   58.0410   28.1900   43.5600 C   0  0  0  0  0  0  0  0  0  0  0  0
   58.1340   29.0170   44.7120 C   0  0  0  0  0  0  0  0  0  0  0  0
   58.0770   30.4100   44.5970 N   0  0  0  0  0  0  0  0  0  0  0  0
   57.4950   31.0030   43.3760 C   0  0  0  0  0  0  0  0  0  0  0  0
   58.4710   31.2580   45.6180 C   0  0  0  0  0  0  0  0  0  0  0  0
   58.6950   32.6470   45.6160 C   0  0  0  0  0  0  0  0  0  0  0  0
   58.8300   33.5630   44.5590 C   0  0  0  0  0  0  0  0  0  0  0  0
   59.1160   34.9050   44.8570 C   0  0  0  0  0  0  0  0  0  0  0  0
   59.2980   35.3200   46.1880 C   0  0  0  0  0  0  0  0  0  0  0  0
   59.2170   34.3920   47.2350 C   0  0  0  0  0  0  0  0  0  0  0  0
   58.9210   33.0610   46.9280 C   0  0  0  0  0  0  0  0  0  0  0  0
   51.6807   30.7684   51.0919 H   0  0  0  0  0  0  0  0  0  0  0  0
   53.1574   31.3216   50.2318 H   0  0  0  0  0  0  0  0  0  0  0  0
   52.7173   29.5800   50.2318 H   0  0  0  0  0  0  0  0  0  0  0  0
   54.1562   31.1897   52.2736 H   0  0  0  0  0  0  0  0  0  0  0  0
   52.8427   30.1416   52.9379 H   0  0  0  0  0  0  0  0  0  0  0  0
   53.8180   28.3100   51.6640 H   0  0  0  0  0  0  0  0  0  0  0  0
   55.1340   29.2870   51.2430 H   0  0  0  0  0  0  0  0  0  0  0  0
   54.5721   29.3433   54.0621 H   0  0  0  0  0  0  0  0  0  0  0  0
   54.8862   27.6723   53.4058 H   0  0  0  0  0  0  0  0  0  0  0  0
   56.7876   29.7214   54.0840 H   0  0  0  0  0  0  0  0  0  0  0  0
   57.0677   28.0517   53.4409 H   0  0  0  0  0  0  0  0  0  0  0  0
   58.8140   29.5497   53.0253 H   0  0  0  0  0  0  0  0  0  0  0  0
   58.8129   28.8515   51.3651 H   0  0  0  0  0  0  0  0  0  0  0  0
   57.9421   31.6581   51.3690 H   0  0  0  0  0  0  0  0  0  0  0  0
   59.5870   31.4502   52.0937 H   0  0  0  0  0  0  0  0  0  0  0  0
   60.5277   30.7556   50.1195 H   0  0  0  0  0  0  0  0  0  0  0  0
   59.0067   29.9631   49.5539 H   0  0  0  0  0  0  0  0  0  0  0  0
   59.1720   32.9600   49.6630 H   0  0  0  0  0  0  0  0  0  0  0  0
   58.3305   26.4598   47.0345 H   0  0  0  0  0  0  0  0  0  0  0  0
   58.0849   25.0819   44.9751 H   0  0  0  0  0  0  0  0  0  0  0  0
   57.9435   26.1849   42.7488 H   0  0  0  0  0  0  0  0  0  0  0  0
   57.9786   28.6583   42.5666 H   0  0  0  0  0  0  0  0  0  0  0  0
   56.7499   31.7621   43.6563 H   0  0  0  0  0  0  0  0  0  0  0  0
   58.2918   31.4734   42.7811 H   0  0  0  0  0  0  0  0  0  0  0  0
   57.0098   30.2152   42.7811 H   0  0  0  0  0  0  0  0  0  0  0  0
   58.7136   33.2343   43.5157 H   0  0  0  0  0  0  0  0  0  0  0  0
   59.1984   35.6386   44.0415 H   0  0  0  0  0  0  0  0  0  0  0  0
   59.5049   36.3776   46.4084 H   0  0  0  0  0  0  0  0  0  0  0  0
   59.3829   34.7046   48.2765 H   0  0  0  0  0  0  0  0  0  0  0  0
  1  2  1  0
  2  3  1  0
  3  4  1  0
  4  5  1  0
  5  6  1  0
  6  7  1  0
  7  8  1  0
  8  9  1  0
  9 10  1  0
 10 11  1  0
 11 12  2  0
 12 13  1  0
 13 14  1  0
 14 15  2  0
 15 16  1  0
 16 17  2  0
 17 18  1  0
 18 19  2  0
 19 20  1  0
 20 21  1  0
 20 22  2  0
 22 23  1  0
 23 24  2  0
 24 25  1  0
 25 26  2  0
 26 27  1  0
 27 28  2  0
 28 11  1  0
 22 12  1  0
 28 23  1  0
 19 14  1  0
  1 29  1  0
  1 30  1  0
  1 31  1  0
  2 32  1  0
  2 33  1  0
  3 34  1  0
  3 35  1  0
  4 36  1  0
  4 37  1  0
  5 38  1  0
  5 39  1  0
  7 40  1  0
  7 41  1  0
  8 42  1  0
  8 43  1  0
  9 44  1  0
  9 45  1  0
 10 46  1  0
 15 47  1  0
 16 48  1  0
 17 49  1  0
 18 50  1  0
 21 51  1  0
 21 52  1  0
 21 53  1  0
 24 54  1  0
 25 55  1  0
 26 56  1  0
 27 57  1  0
M  CHG  2   3   1  20   1
M  END
>  <UniqueID>  (28) 
28

>  <SMILES>  (28) 
CC[NH2+]CCOCCCNc1c2sc3ccccc3[n+](C)c-2c2ccccc12

>  <Energy>  (28) 
115.22244410490178

>  <Genealogy>  (28) 
CC[NH2+]CCOCCCNc1c2sc3ccccc3[n+](C)c-2c2ccccc12 (protonated)
CC[NH2+]CCOCCCNc1c2sc3ccccc3[n+](C)c-2c2ccccc12 (3D coordinates assigned)
CC[NH2+]CCOCCCNc1c2sc3ccccc3[n+](C)c-2c2ccccc12 (optimized conformer: 115.22244410490178 kcal/mol)

>  <smiles>  (28) 
CCNCCOCCCNc1c2sc3ccccc3[n+](C)c-2c2ccccc12

>  <score_type>  (28) 
oracle

>  <origin>  (28) 
adg

>  <m_score__min__energy>  (28) 
-5.3300000000000001

>  <m_primary>  (28) 
energy

$$$$
