0:0
     RDKit          3D

 26 28  0  0  0  0  0  0  0  0999 V2000
   60.0190   36.1040   45.9920 C   0  0  0  0  0  0  0  0  0  0  0  0
   60.0320   34.6280   46.2250 C   0  0  0  0  0  0  0  0  0  0  0  0
   61.0300   33.9630   46.8410 N   0  0  0  0  0  0  0  0  0  0  0  0
   60.7160   32.6720   46.8760 N   0  0  0  0  0  0  0  0  0  0  0  0
   61.6020   31.6850   47.4820 C   0  0  0  0  0  0  0  0  0  0  0  0
   59.5050   32.4950   46.2810 C   0  0  0  0  0  0  0  0  0  0  0  0
   59.0570   33.7260   45.8620 C   0  0  0  0  0  0  0  0  0  0  0  0
   57.8430   33.9100   45.2100 C   0  0  0  0  0  0  0  0  0  0  0  0
   57.0480   32.7820   44.9750 C   0  0  0  0  0  0  0  0  0  0  0  0
   57.4740   31.5030   45.3890 C   0  0  0  0  0  0  0  0  0  0  0  0
   56.6920   30.4550   45.1470 O   0  0  0  0  0  0  0  0  0  0  0  0
   57.0170   29.2180   45.5030 C   0  0  0  0  0  0  0  0  0  0  0  0
   56.2310   28.2690   45.2450 O   0  0  0  0  0  0  0  0  0  0  0  0
   58.2210   28.9660   46.1610 C   0  0  0  0  0  0  0  0  0  0  0  0
   59.0800   30.0280   46.4400 C   0  0  0  0  0  0  0  0  0  0  0  0
   58.7240   31.3330   46.0570 C   0  0  0  0  0  0  0  0  0  0  0  0
   60.0144   36.6279   46.9592 H   0  0  0  0  0  0  0  0  0  0  0  0
   60.9146   36.3932   45.4226 H   0  0  0  0  0  0  0  0  0  0  0  0
   59.1184   36.3774   45.4226 H   0  0  0  0  0  0  0  0  0  0  0  0
   61.5369   31.7575   48.5777 H   0  0  0  0  0  0  0  0  0  0  0  0
   61.3004   30.6765   47.1627 H   0  0  0  0  0  0  0  0  0  0  0  0
   62.6371   31.8764   47.1627 H   0  0  0  0  0  0  0  0  0  0  0  0
   57.5174   34.9104   44.8889 H   0  0  0  0  0  0  0  0  0  0  0  0
   56.0813   32.8944   44.4623 H   0  0  0  0  0  0  0  0  0  0  0  0
   58.4895   27.9410   46.4564 H   0  0  0  0  0  0  0  0  0  0  0  0
   60.0331   29.8455   46.9580 H   0  0  0  0  0  0  0  0  0  0  0  0
  1  2  1  0
  2  3  2  0
  3  4  1  0
  4  5  1  0
  4  6  1  0
  6  7  2  0
  7  8  1  0
  8  9  2  0
  9 10  1  0
 10 11  1  0
 11 12  1  0
 12 13  2  0
 12 14  1  0
 14 15  2  0
 15 16  1  0
  7  2  1  0
 16 10  2  0
 16  6  1  0
  1 17  1  0
  1 18  1  0
  1 19  1  0
  5 20  1  0
  5 21  1  0
  5 22  1  0
  8 23  1  0
  9 24  1  0
 14 25  1  0
 15 26  1  0
M  END
>  <UniqueID>  (1) 
1

>  <SMILES>  (1) 
Cc1nn(C)c2c1ccc1oc(=O)ccc12

>  <Energy>  (1) 
74.36603008270141

>  <Genealogy>  (1) 
Cc1nn(C)c2c1ccc1oc(=O)ccc12 (3D coordinates assigned)
Cc1nn(C)c2c1ccc1oc(=O)ccc12 (optimized conformer: 74.36603008270141 kcal/mol)

>  <smiles>  (1) 
Cc1nn(C)c2c1ccc1oc(=O)ccc12

>  <score_type>  (1) 
oracle

>  <origin>  (1) 
adg

>  <m_score__min__energy>  (1) 
-6.04

>  <m_primary>  (1) 
energy

$$$$
1:0
     RDKit          3D

 62 64  0  0  0  0  0  0  0  0999 V2000
   58.7230   31.6080   50.0360 C   0  0  0  0  0  0  0  0  0  0  0  0
   59.7200   32.0830   51.1010 C   0  0  0  0  0  0  0  0  0  0  0  0
   61.1170   31.6550   50.8240 N   0  0  0  0  0  0  0  0  0  0  0  0
   62.1120   32.7520   50.9750 C   0  0  0  0  0  0  0  0  0  0  0  0
   63.5780   32.2990   50.8970 C   0  0  0  0  0  0  0  0  0  0  0  0
   61.4850   30.4770   51.6590 C   0  0  0  0  0  0  0  0  0  0  0  0
   61.5860   29.1820   50.8360 C   0  0  0  0  0  0  0  0  0  0  0  0
   61.0850   29.4180   49.4750 N   0  0  0  0  0  0  0  0  0  0  0  0
   60.3820   28.2390   48.9470 C   0  0  0  0  0  0  0  0  0  0  0  0
   59.8400   28.5320   47.5450 C   0  0  0  0  0  0  0  0  0  0  0  0
   60.4770   29.7160   46.9630 N   0  0  0  0  0  0  0  0  0  0  0  0
   59.7140   30.7650   46.3410 C   0  0  0  0  0  0  0  0  0  0  0  0
   58.7040   30.4310   45.4210 C   0  0  0  0  0  0  0  0  0  0  0  0
   58.5370   29.0990   44.9820 C   0  0  0  0  0  0  0  0  0  0  0  0
   57.4880   28.7520   44.1360 C   0  0  0  0  0  0  0  0  0  0  0  0
   56.5870   29.7200   43.7150 C   0  0  0  0  0  0  0  0  0  0  0  0
   56.7570   31.0500   44.0990 C   0  0  0  0  0  0  0  0  0  0  0  0
   57.8480   31.4430   44.9190 C   0  0  0  0  0  0  0  0  0  0  0  0
   58.0750   32.7670   45.2400 N   0  0  0  0  0  0  0  0  0  0  0  0
   57.3640   33.8370   44.5030 C   0  0  0  0  0  0  0  0  0  0  0  0
   58.9990   33.0980   46.2150 C   0  0  0  0  0  0  0  0  0  0  0  0
   59.0670   34.4110   46.7430 C   0  0  0  0  0  0  0  0  0  0  0  0
   60.0440   34.7690   47.6620 C   0  0  0  0  0  0  0  0  0  0  0  0
   60.9830   33.8400   48.0820 C   0  0  0  0  0  0  0  0  0  0  0  0
   60.9320   32.5120   47.6250 C   0  0  0  0  0  0  0  0  0  0  0  0
   61.9060   31.5850   48.0330 O   0  0  0  0  0  0  0  0  0  0  0  0
   63.2680   31.5890   47.6170 C   0  0  0  0  0  0  0  0  0  0  0  0
   59.8940   32.1150   46.7290 C   0  0  0  0  0  0  0  0  0  0  0  0
   57.8348   31.1848   50.5280 H   0  0  0  0  0  0  0  0  0  0  0  0
   58.4234   32.4601   49.4082 H   0  0  0  0  0  0  0  0  0  0  0  0
   59.1960   30.8385   49.4082 H   0  0  0  0  0  0  0  0  0  0  0  0
   59.6920   33.1819   51.1415 H   0  0  0  0  0  0  0  0  0  0  0  0
   59.4208   31.6280   52.0568 H   0  0  0  0  0  0  0  0  0  0  0  0
   61.1640   31.3640   49.8170 H   0  0  0  0  0  0  0  0  0  0  0  0
   61.9367   33.4870   50.1756 H   0  0  0  0  0  0  0  0  0  0  0  0
   61.9670   33.1688   51.9826 H   0  0  0  0  0  0  0  0  0  0  0  0
   63.9782   32.1753   51.9141 H   0  0  0  0  0  0  0  0  0  0  0  0
   63.6376   31.3405   50.3605 H   0  0  0  0  0  0  0  0  0  0  0  0
   64.1679   33.0568   50.3605 H   0  0  0  0  0  0  0  0  0  0  0  0
   62.4584   30.6707   52.1332 H   0  0  0  0  0  0  0  0  0  0  0  0
   60.6918   30.3366   52.4081 H   0  0  0  0  0  0  0  0  0  0  0  0
   62.6369   28.8607   50.7879 H   0  0  0  0  0  0  0  0  0  0  0  0
   60.9809   28.3984   51.3154 H   0  0  0  0  0  0  0  0  0  0  0  0
   61.9140   29.5980   48.8620 H   0  0  0  0  0  0  0  0  0  0  0  0
   61.0810   27.3912   48.8967 H   0  0  0  0  0  0  0  0  0  0  0  0
   59.5418   27.9932   49.6131 H   0  0  0  0  0  0  0  0  0  0  0  0
   60.0360   27.6650   46.8970 H   0  0  0  0  0  0  0  0  0  0  0  0
   58.7597   28.7234   47.6242 H   0  0  0  0  0  0  0  0  0  0  0  0
   61.5200   29.7680   46.9290 H   0  0  0  0  0  0  0  0  0  0  0  0
   59.2456   28.3256   45.3132 H   0  0  0  0  0  0  0  0  0  0  0  0
   57.3730   27.7106   43.8010 H   0  0  0  0  0  0  0  0  0  0  0  0
   55.7367   29.4376   43.0769 H   0  0  0  0  0  0  0  0  0  0  0  0
   56.0341   31.8071   43.7612 H   0  0  0  0  0  0  0  0  0  0  0  0
   56.9024   34.5317   45.2201 H   0  0  0  0  0  0  0  0  0  0  0  0
   58.0788   34.3841   43.8708 H   0  0  0  0  0  0  0  0  0  0  0  0
   56.5827   33.3899   43.8708 H   0  0  0  0  0  0  0  0  0  0  0  0
   58.3312   35.1615   46.4184 H   0  0  0  0  0  0  0  0  0  0  0  0
   60.0731   35.7946   48.0587 H   0  0  0  0  0  0  0  0  0  0  0  0
   61.7763   34.1453   48.7802 H   0  0  0  0  0  0  0  0  0  0  0  0
   63.9216   31.5909   48.5018 H   0  0  0  0  0  0  0  0  0  0  0  0
   63.4698   30.6914   47.0140 H   0  0  0  0  0  0  0  0  0  0  0  0
   63.4646   32.4877   47.0140 H   0  0  0  0  0  0  0  0  0  0  0  0
  1  2  1  0
  2  3  1  0
  3  4  1  0
  4  5  1  0
  3  6  1  0
  6  7  1  0
  7  8  1  0
  8  9  1  0
  9 10  1  0
 10 11  1  0
 11 12  1  0
 12 13  2  0
 13 14  1  0
 14 15  2  0
 15 16  1  0
 16 17  2  0
 17 18  1  0
 18 19  2  0
 19 20  1  0
 19 21  1  0
 21 22  2  0
 22 23  1  0
 23 24  2  0
 24 25  1  0
 25 26  1  0
 26 27  1  0
 25 28  2  0
 28 12  1  0
 18 13  1  0
 28 21  1  0
  1 29  1  0
  1 30  1  0
  1 31  1  0
  2 32  1  0
  2 33  1  0
  3 34  1  0
  4 35  1  0
  4 36  1  0
  5 37  1  0
  5 38  1  0
  5 39  1  0
  6 40  1  0
  6 41  1  0
  7 42  1  0
  7 43  1  0
  8 44  1  0
  9 45  1  0
  9 46  1  0
 10 47  1  0
 10 48  1  0
 11 49  1  0
 14 50  1  0
 15 51  1  0
 16 52  1  0
 17 53  1  0
 20 54  1  0
 20 55  1  0
 20 56  1  0
 22 57  1  0
 23 58  1  0
 24 59  1  0
 27 60  1  0
 27 61  1  0
 27 62  1  0
M  CHG  2   3   1  19   1
M  END
>  <UniqueID>  (2) 
2

>  <SMILES>  (2) 
CC[NH+](CC)CCNCCNc1c2ccccc2[n+](C)c2cccc(OC)c12

>  <Energy>  (2) 
92.13426848996349

>  <Genealogy>  (2) 
CC[NH+](CC)CCNCCNc1c2ccccc2[n+](C)c2cccc(OC)c12 (protonated)
CC[NH+](CC)CCNCCNc1c2ccccc2[n+](C)c2cccc(OC)c12 (3D coordinates assigned)
CC[NH+](CC)CCNCCNc1c2ccccc2[n+](C)c2cccc(OC)c12 (optimized conformer: 92.13426848996349 kcal/mol)

>  <smiles>  (2) 
CCN(CC)CCNCCNc1c2ccccc2[n+](C)c2cccc(OC)c12

>  <score_type>  (2) 
oracle

>  <origin>  (2) 
adg

>  <m_score__min__energy>  (2) 
-3.2000000000000002

>  <m_primary>  (2) 
energy

$$$$
2:0
     RDKit          3D

 75 77  0  0  0  0  0  0  0  0999 V2000
   65.4980   33.1180   50.1320 C   0  0  0  0  0  0  0  0  0  0  0  0
   64.5120   32.2000   49.3940 C   0  0  0  0  0  0  0  0  0  0  0  0
   63.4390   32.9200   48.6630 N   0  0  0  0  0  0  0  0  0  0  0  0
   63.4080   32.5780   47.2230 C   0  0  0  0  0  0  0  0  0  0  0  0
   63.2100   33.8400   46.3900 C   0  0  0  0  0  0  0  0  0  0  0  0
   62.0970   32.8000   49.2850 C   0  0  0  0  0  0  0  0  0  0  0  0
   61.3910   34.1540   49.4030 C   0  0  0  0  0  0  0  0  0  0  0  0
   59.9910   33.9570   49.3820 O   0  0  0  0  0  0  0  0  0  0  0  0
   59.4150   34.4790   48.1960 C   0  0  0  0  0  0  0  0  0  0  0  0
   58.7550   33.3510   47.3750 C   0  0  0  0  0  0  0  0  0  0  0  0
   59.7070   32.1380   47.1930 C   0  0  0  0  0  0  0  0  0  0  0  0
   59.5540   31.4280   45.8360 C   0  0  0  0  0  0  0  0  0  0  0  0
   58.1540   31.4570   45.3800 N   0  0  0  0  0  0  0  0  0  0  0  0
   57.4380   30.2730   44.9420 C   0  0  0  0  0  0  0  0  0  0  0  0
   56.2580   30.3990   44.5080 O   0  0  0  0  0  0  0  0  0  0  0  0
   58.0460   28.8830   45.0280 C   0  0  0  0  0  0  0  0  0  0  0  0
   57.5700   28.1380   46.3070 C   0  0  0  0  0  0  0  0  0  0  0  0
   56.6460   26.9530   45.9920 C   0  0  0  0  0  0  0  0  0  0  0  0
   57.2700   25.9880   45.0560 N   0  0  0  0  0  0  0  0  0  0  0  0
   57.8000   24.7520   45.6820 C   0  0  0  0  0  0  0  0  0  0  0  0
   57.3920   23.4670   44.9760 C   0  0  0  0  0  0  0  0  0  0  0  0
   57.0920   23.5040   43.6000 C   0  0  0  0  0  0  0  0  0  0  0  0
   56.7320   22.3410   42.9170 C   0  0  0  0  0  0  0  0  0  0  0  0
   56.6410   21.1300   43.6000 C   0  0  0  0  0  0  0  0  0  0  0  0
   56.8920   21.0790   44.9720 C   0  0  0  0  0  0  0  0  0  0  0  0
   57.2520   22.2460   45.6790 C   0  0  0  0  0  0  0  0  0  0  0  0
   57.4610   22.2230   47.0680 O   0  0  0  0  0  0  0  0  0  0  0  0
   56.5540   21.6750   48.0160 C   0  0  0  0  0  0  0  0  0  0  0  0
   58.1460   26.5770   44.0140 C   0  0  0  0  0  0  0  0  0  0  0  0
   57.8010   28.0460   43.7470 C   0  0  0  0  0  0  0  0  0  0  0  0
   57.4760   32.7630   45.2900 C   0  0  0  0  0  0  0  0  0  0  0  0
   58.2550   33.8710   46.0160 C   0  0  0  0  0  0  0  0  0  0  0  0
   65.3687   32.9976   51.2177 H   0  0  0  0  0  0  0  0  0  0  0  0
   66.5277   32.8495   49.8534 H   0  0  0  0  0  0  0  0  0  0  0  0
   65.3037   34.1642   49.8534 H   0  0  0  0  0  0  0  0  0  0  0  0
   65.0787   31.5974   48.6689 H   0  0  0  0  0  0  0  0  0  0  0  0
   64.0153   31.5884   50.1616 H   0  0  0  0  0  0  0  0  0  0  0  0
   64.3586   32.1014   46.9415 H   0  0  0  0  0  0  0  0  0  0  0  0
   62.5732   31.8869   47.0345 H   0  0  0  0  0  0  0  0  0  0  0  0
   63.0746   34.7031   47.0584 H   0  0  0  0  0  0  0  0  0  0  0  0
   64.0936   34.0028   45.7554 H   0  0  0  0  0  0  0  0  0  0  0  0
   62.3190   33.7244   45.7554 H   0  0  0  0  0  0  0  0  0  0  0  0
   61.4792   32.1309   48.6681 H   0  0  0  0  0  0  0  0  0  0  0  0
   62.2301   32.3989   50.3006 H   0  0  0  0  0  0  0  0  0  0  0  0
   61.6795   34.6372   50.3481 H   0  0  0  0  0  0  0  0  0  0  0  0
   61.6844   34.7961   48.5595 H   0  0  0  0  0  0  0  0  0  0  0  0
   58.6533   35.2267   48.4620 H   0  0  0  0  0  0  0  0  0  0  0  0
   60.2067   34.9440   47.5903 H   0  0  0  0  0  0  0  0  0  0  0  0
   57.8826   33.0005   47.9460 H   0  0  0  0  0  0  0  0  0  0  0  0
   60.7439   32.4940   47.2835 H   0  0  0  0  0  0  0  0  0  0  0  0
   59.4449   31.4049   47.9701 H   0  0  0  0  0  0  0  0  0  0  0  0
   60.1854   31.9351   45.0915 H   0  0  0  0  0  0  0  0  0  0  0  0
   59.8629   30.3787   45.9527 H   0  0  0  0  0  0  0  0  0  0  0  0
   59.1354   29.0148   45.1044 H   0  0  0  0  0  0  0  0  0  0  0  0
   58.4530   27.7627   46.8450 H   0  0  0  0  0  0  0  0  0  0  0  0
   56.9975   28.8537   46.9152 H   0  0  0  0  0  0  0  0  0  0  0  0
   56.4066   26.4316   46.9305 H   0  0  0  0  0  0  0  0  0  0  0  0
   55.7398   27.3506   45.5117 H   0  0  0  0  0  0  0  0  0  0  0  0
   58.8984   24.8104   45.6833 H   0  0  0  0  0  0  0  0  0  0  0  0
   57.3729   24.7040   46.6945 H   0  0  0  0  0  0  0  0  0  0  0  0
   57.1420   24.4598   43.0579 H   0  0  0  0  0  0  0  0  0  0  0  0
   56.5199   22.3807   41.8384 H   0  0  0  0  0  0  0  0  0  0  0  0
   56.3708   20.2124   43.0569 H   0  0  0  0  0  0  0  0  0  0  0  0
   56.8085   20.1213   45.5066 H   0  0  0  0  0  0  0  0  0  0  0  0
   56.9119   21.8913   49.0334 H   0  0  0  0  0  0  0  0  0  0  0  0
   55.5597   22.1236   47.8740 H   0  0  0  0  0  0  0  0  0  0  0  0
   56.4886   20.5862   47.8740 H   0  0  0  0  0  0  0  0  0  0  0  0
   59.1917   26.5117   44.3489 H   0  0  0  0  0  0  0  0  0  0  0  0
   57.9948   26.0144   43.0810 H   0  0  0  0  0  0  0  0  0  0  0  0
   58.4355   28.4283   42.9339 H   0  0  0  0  0  0  0  0  0  0  0  0
   56.7424   28.1242   43.4585 H   0  0  0  0  0  0  0  0  0  0  0  0
   57.3745   33.0374   44.2296 H   0  0  0  0  0  0  0  0  0  0  0  0
   56.4928   32.6679   45.7740 H   0  0  0  0  0  0  0  0  0  0  0  0
   59.1157   34.1748   45.4020 H   0  0  0  0  0  0  0  0  0  0  0  0
   57.5928   34.7342   46.1784 H   0  0  0  0  0  0  0  0  0  0  0  0
  1  2  1  0
  2  3  1  0
  3  4  1  0
  4  5  1  0
  3  6  1  0
  6  7  1  0
  7  8  1  0
  8  9  1  0
  9 10  1  0
 10 11  1  0
 11 12  1  0
 12 13  1  0
 13 14  1  0
 14 15  2  0
 14 16  1  0
 16 17  1  0
 17 18  1  0
 18 19  1  0
 19 20  1  0
 20 21  1  0
 21 22  2  0
 22 23  1  0
 23 24  2  0
 24 25  1  0
 25 26  2  0
 26 27  1  0
 27 28  1  0
 19 29  1  0
 29 30  1  0
 13 31  1  0
 31 32  1  0
 32 10  1  0
 30 16  1  0
 26 21  1  0
  1 33  1  0
  1 34  1  0
  1 35  1  0
  2 36  1  0
  2 37  1  0
  4 38  1  0
  4 39  1  0
  5 40  1  0
  5 41  1  0
  5 42  1  0
  6 43  1  0
  6 44  1  0
  7 45  1  0
  7 46  1  0
  9 47  1  0
  9 48  1  0
 10 49  1  0
 11 50  1  0
 11 51  1  0
 12 52  1  0
 12 53  1  0
 16 54  1  0
 17 55  1  0
 17 56  1  0
 18 57  1  0
 18 58  1  0
 20 59  1  0
 20 60  1  0
 22 61  1  0
 23 62  1  0
 24 63  1  0
 25 64  1  0
 28 65  1  0
 28 66  1  0
 28 67  1  0
 29 68  1  0
 29 69  1  0
 30 70  1  0
 30 71  1  0
 31 72  1  0
 31 73  1  0
 32 74  1  0
 32 75  1  0
M  END
>  <UniqueID>  (3) 
3

>  <SMILES>  (3) 
CCN(CC)CCOCC1CCN(C(=O)C2CCN(Cc3ccccc3OC)CC2)CC1

>  <Energy>  (3) 
91.73252138044445

>  <Genealogy>  (3) 
CCN(CC)CCOCC1CCN(C(=O)C2CCN(Cc3ccccc3OC)CC2)CC1 (3D coordinates assigned)
CCN(CC)CCOCC1CCN(C(=O)C2CCN(Cc3ccccc3OC)CC2)CC1 (nonaromatic ring conformer: 91.73252138044445 kcal/mol)

>  <smiles>  (3) 
CCN(CC)CCOCC1CCN(C(=O)C2CCN(Cc3ccccc3OC)CC2)CC1

>  <score_type>  (3) 
oracle

>  <origin>  (3) 
adg

>  <m_score__min__energy>  (3) 
-8.8900000000000006

>  <m_primary>  (3) 
energy

$$$$
3:0
     RDKit          3D

 74 79  0  0  0  0  0  0  0  0999 V2000
   61.4170   33.8820   46.3550 C   0  0  0  0  0  0  0  0  0  0  0  0
   62.9000   33.5680   46.5290 C   0  0  0  0  0  0  0  0  0  0  0  0
   63.1050   32.7220   47.6600 O   0  0  0  0  0  0  0  0  0  0  0  0
   62.8140   33.0500   48.9960 C   0  0  0  0  0  0  0  0  0  0  0  0
   63.6740   33.8580   49.7670 C   0  0  0  0  0  0  0  0  0  0  0  0
   63.3410   34.1930   51.0810 C   0  0  0  0  0  0  0  0  0  0  0  0
   62.1500   33.7320   51.6390 C   0  0  0  0  0  0  0  0  0  0  0  0
   61.2910   32.9260   50.8920 C   0  0  0  0  0  0  0  0  0  0  0  0
   61.6130   32.5730   49.5690 C   0  0  0  0  0  0  0  0  0  0  0  0
   60.7250   31.7140   48.8240 N   0  0  0  0  0  0  0  0  0  0  0  0
   59.2990   32.0500   48.6980 C   0  0  0  0  0  0  0  0  0  0  0  0
   58.8000   31.7190   47.2880 C   0  0  0  0  0  0  0  0  0  0  0  0
   59.2060   30.3700   46.8680 N   0  0  0  0  0  0  0  0  0  0  0  0
   58.7760   29.9050   45.5710 C   0  0  0  0  0  0  0  0  0  0  0  0
   58.7920   30.7100   44.6000 O   0  0  0  0  0  0  0  0  0  0  0  0
   58.2910   28.4920   45.3130 C   0  0  0  0  0  0  0  0  0  0  0  0
   57.7940   28.3090   43.8600 C   0  0  0  0  0  0  0  0  0  0  0  0
   58.0120   26.8880   43.3060 C   0  0  0  0  0  0  0  0  0  0  0  0
   57.8960   25.8690   44.3630 N   0  0  0  0  0  0  0  0  0  0  0  0
   57.1370   24.6640   44.1490 C   0  0  0  0  0  0  0  0  0  0  0  0
   57.0230   24.1330   42.8940 N   0  0  0  0  0  0  0  0  0  0  0  0
   56.3000   22.9910   42.6540 C   0  0  0  0  0  0  0  0  0  0  0  0
   55.6560   22.3520   43.6750 N   0  0  0  0  0  0  0  0  0  0  0  0
   55.7610   22.8770   44.9190 C   0  0  0  0  0  0  0  0  0  0  0  0
   56.4650   24.0050   45.1800 C   0  0  0  0  0  0  0  0  0  0  0  0
   56.3400   24.3440   46.4770 N   0  0  0  0  0  0  0  0  0  0  0  0
   55.5360   23.3630   46.9760 C   0  0  0  0  0  0  0  0  0  0  0  0
   55.1730   22.4430   46.0400 N   0  0  0  0  0  0  0  0  0  0  0  0
   54.3270   21.2620   46.2080 C   0  0  0  0  0  0  0  0  0  0  0  0
   54.8660   20.3430   47.3150 C   0  0  0  0  0  0  0  0  0  0  0  0
   54.5770   20.8330   48.7500 C   0  0  0  0  0  0  0  0  0  0  0  0
   54.0560   22.2800   48.8040 C   0  0  0  0  0  0  0  0  0  0  0  0
   55.1110   23.3450   48.4240 C   0  0  0  0  0  0  0  0  0  0  0  0
   58.6150   26.0310   45.6370 C   0  0  0  0  0  0  0  0  0  0  0  0
   59.2920   27.4020   45.7320 C   0  0  0  0  0  0  0  0  0  0  0  0
   60.1090   29.5810   47.7170 C   0  0  0  0  0  0  0  0  0  0  0  0
   61.2430   30.4680   48.2400 C   0  0  0  0  0  0  0  0  0  0  0  0
   60.9449   33.9820   47.3435 H   0  0  0  0  0  0  0  0  0  0  0  0
   61.3045   34.8239   45.7980 H   0  0  0  0  0  0  0  0  0  0  0  0
   60.9324   33.0665   45.7980 H   0  0  0  0  0  0  0  0  0  0  0  0
   63.2704   33.0605   45.6261 H   0  0  0  0  0  0  0  0  0  0  0  0
   63.4458   34.5099   46.6871 H   0  0  0  0  0  0  0  0  0  0  0  0
   64.6138   34.2271   49.3306 H   0  0  0  0  0  0  0  0  0  0  0  0
   64.0195   34.8215   51.6765 H   0  0  0  0  0  0  0  0  0  0  0  0
   61.8866   34.0046   52.6716 H   0  0  0  0  0  0  0  0  0  0  0  0
   60.3545   32.5636   51.3410 H   0  0  0  0  0  0  0  0  0  0  0  0
   58.7225   31.4692   49.4331 H   0  0  0  0  0  0  0  0  0  0  0  0
   59.1662   33.1263   48.8822 H   0  0  0  0  0  0  0  0  0  0  0  0
   57.7018   31.7804   47.2754 H   0  0  0  0  0  0  0  0  0  0  0  0
   59.2445   32.4430   46.5892 H   0  0  0  0  0  0  0  0  0  0  0  0
   57.4246   28.3519   45.9761 H   0  0  0  0  0  0  0  0  0  0  0  0
   56.7172   28.5320   43.8304 H   0  0  0  0  0  0  0  0  0  0  0  0
   58.3814   28.9935   43.2304 H   0  0  0  0  0  0  0  0  0  0  0  0
   57.2565   26.6870   42.5322 H   0  0  0  0  0  0  0  0  0  0  0  0
   59.0278   26.8346   42.8874 H   0  0  0  0  0  0  0  0  0  0  0  0
   56.2389   22.5878   41.6324 H   0  0  0  0  0  0  0  0  0  0  0  0
   53.3096   21.5848   46.4738 H   0  0  0  0  0  0  0  0  0  0  0  0
   54.3221   20.7006   45.2620 H   0  0  0  0  0  0  0  0  0  0  0  0
   54.4073   19.3508   47.1917 H   0  0  0  0  0  0  0  0  0  0  0  0
   55.9603   20.3274   47.2039 H   0  0  0  0  0  0  0  0  0  0  0  0
   53.8209   20.1723   49.1992 H   0  0  0  0  0  0  0  0  0  0  0  0
   55.5284   20.8077   49.3015 H   0  0  0  0  0  0  0  0  0  0  0  0
   53.2092   22.3686   48.1075 H   0  0  0  0  0  0  0  0  0  0  0  0
   53.7694   22.4754   49.8479 H   0  0  0  0  0  0  0  0  0  0  0  0
   54.6940   24.3339   48.6654 H   0  0  0  0  0  0  0  0  0  0  0  0
   56.0142   23.0875   48.9966 H   0  0  0  0  0  0  0  0  0  0  0  0
   57.8997   25.9279   46.4663 H   0  0  0  0  0  0  0  0  0  0  0  0
   59.3951   25.2574   45.6926 H   0  0  0  0  0  0  0  0  0  0  0  0
   59.6176   27.5803   46.7675 H   0  0  0  0  0  0  0  0  0  0  0  0
   60.1668   27.4285   45.0656 H   0  0  0  0  0  0  0  0  0  0  0  0
   59.5445   29.1717   48.5678 H   0  0  0  0  0  0  0  0  0  0  0  0
   60.5369   28.7593   47.1239 H   0  0  0  0  0  0  0  0  0  0  0  0
   61.8017   29.9169   49.0108 H   0  0  0  0  0  0  0  0  0  0  0  0
   61.8966   30.7281   47.3943 H   0  0  0  0  0  0  0  0  0  0  0  0
  1  2  1  0
  2  3  1  0
  3  4  1  0
  4  5  2  0
  5  6  1  0
  6  7  2  0
  7  8  1  0
  8  9  2  0
  9 10  1  0
 10 11  1  0
 11 12  1  0
 12 13  1  0
 13 14  1  0
 14 15  2  0
 14 16  1  0
 16 17  1  0
 17 18  1  0
 18 19  1  0
 19 20  1  0
 20 21  2  0
 21 22  1  0
 22 23  2  0
 23 24  1  0
 24 25  2  0
 25 26  1  0
 26 27  2  0
 27 28  1  0
 28 29  1  0
 29 30  1  0
 30 31  1  0
 31 32  1  0
 32 33  1  0
 19 34  1  0
 34 35  1  0
 13 36  1  0
 36 37  1  0
  9  4  1  0
 37 10  1  0
 35 16  1  0
 25 20  1  0
 33 27  1  0
 28 24  1  0
  1 38  1  0
  1 39  1  0
  1 40  1  0
  2 41  1  0
  2 42  1  0
  5 43  1  0
  6 44  1  0
  7 45  1  0
  8 46  1  0
 11 47  1  0
 11 48  1  0
 12 49  1  0
 12 50  1  0
 16 51  1  0
 17 52  1  0
 17 53  1  0
 18 54  1  0
 18 55  1  0
 22 56  1  0
 29 57  1  0
 29 58  1  0
 30 59  1  0
 30 60  1  0
 31 61  1  0
 31 62  1  0
 32 63  1  0
 32 64  1  0
 33 65  1  0
 33 66  1  0
 34 67  1  0
 34 68  1  0
 35 69  1  0
 35 70  1  0
 36 71  1  0
 36 72  1  0
 37 73  1  0
 37 74  1  0
M  END
>  <UniqueID>  (4) 
4

>  <SMILES>  (4) 
CCOc1ccccc1N1CCN(C(=O)C2CCN(c3ncnc4c3nc3n4CCCCC3)CC2)CC1

>  <Energy>  (4) 
135.9122024632617

>  <Genealogy>  (4) 
CCOc1ccccc1N1CCN(C(=O)C2CCN(c3ncnc4c3nc3n4CCCCC3)CC2)CC1 (3D coordinates assigned)
CCOc1ccccc1N1CCN(C(=O)C2CCN(c3ncnc4c3nc3n4CCCCC3)CC2)CC1 (nonaromatic ring conformer: 135.9122024632617 kcal/mol)

>  <smiles>  (4) 
CCOc1ccccc1N1CCN(C(=O)C2CCN(c3ncnc4c3nc3n4CCCCC3)CC2)CC1

>  <score_type>  (4) 
oracle

>  <origin>  (4) 
adg

>  <m_score__min__energy>  (4) 
-6.1100000000000003

>  <m_primary>  (4) 
energy

$$$$
4:0
     RDKit          3D

 72 74  0  0  0  0  0  0  0  0999 V2000
   64.5250   31.4740   50.4420 C   0  0  0  0  0  0  0  0  0  0  0  0
   63.2580   31.2880   49.6130 C   0  0  0  0  0  0  0  0  0  0  0  0
   62.9550   32.5230   48.8550 N   0  0  0  0  0  0  0  0  0  0  0  0
   63.0350   32.3110   47.3910 C   0  0  0  0  0  0  0  0  0  0  0  0
   63.3120   33.6120   46.6430 C   0  0  0  0  0  0  0  0  0  0  0  0
   63.6980   33.7100   49.3510 C   0  0  0  0  0  0  0  0  0  0  0  0
   62.9210   34.6110   50.3320 C   0  0  0  0  0  0  0  0  0  0  0  0
   61.9610   33.8550   51.0510 O   0  0  0  0  0  0  0  0  0  0  0  0
   62.4950   33.2920   52.2330 C   0  0  0  0  0  0  0  0  0  0  0  0
   61.4990   32.3350   52.8820 C   0  0  0  0  0  0  0  0  0  0  0  0
   60.5780   31.8390   51.9290 O   0  0  0  0  0  0  0  0  0  0  0  0
   59.4670   32.7030   51.7720 C   0  0  0  0  0  0  0  0  0  0  0  0
   59.3360   33.1980   50.3200 C   0  0  0  0  0  0  0  0  0  0  0  0
   60.4090   32.7170   49.4230 N   0  0  0  0  0  0  0  0  0  0  0  0
   59.9090   32.0420   48.2270 C   0  0  0  0  0  0  0  0  0  0  0  0
   59.4650   32.8060   47.1110 C   0  0  0  0  0  0  0  0  0  0  0  0
   59.4780   34.2250   47.1190 C   0  0  0  0  0  0  0  0  0  0  0  0
   58.9460   34.9590   46.0650 C   0  0  0  0  0  0  0  0  0  0  0  0
   58.3930   34.3060   44.9740 C   0  0  0  0  0  0  0  0  0  0  0  0
   58.4060   32.9160   44.9130 C   0  0  0  0  0  0  0  0  0  0  0  0
   58.9870   32.1370   45.9480 C   0  0  0  0  0  0  0  0  0  0  0  0
   59.0920   30.7690   45.8390 N   0  0  0  0  0  0  0  0  0  0  0  0
   58.9270   30.1180   44.5170 C   0  0  0  0  0  0  0  0  0  0  0  0
   59.3900   30.0030   46.9470 C   0  0  0  0  0  0  0  0  0  0  0  0
   59.2620   28.5900   46.9130 C   0  0  0  0  0  0  0  0  0  0  0  0
   59.6580   27.7850   47.9780 C   0  0  0  0  0  0  0  0  0  0  0  0
   59.5670   26.3980   47.7940 O   0  0  0  0  0  0  0  0  0  0  0  0
   59.1000   25.7610   46.6080 C   0  0  0  0  0  0  0  0  0  0  0  0
   60.1020   28.3770   49.1670 C   0  0  0  0  0  0  0  0  0  0  0  0
   60.4350   27.5570   50.2580 O   0  0  0  0  0  0  0  0  0  0  0  0
   61.3350   27.9110   51.3060 C   0  0  0  0  0  0  0  0  0  0  0  0
   60.1670   29.7790   49.2470 C   0  0  0  0  0  0  0  0  0  0  0  0
   59.8270   30.6160   48.1520 C   0  0  0  0  0  0  0  0  0  0  0  0
   64.2719   31.4368   51.5118 H   0  0  0  0  0  0  0  0  0  0  0  0
   65.2388   30.6710   50.2060 H   0  0  0  0  0  0  0  0  0  0  0  0
   64.9779   32.4483   50.2060 H   0  0  0  0  0  0  0  0  0  0  0  0
   63.4041   30.4562   48.9083 H   0  0  0  0  0  0  0  0  0  0  0  0
   62.4178   31.0666   50.2876 H   0  0  0  0  0  0  0  0  0  0  0  0
   63.8459   31.5987   47.1784 H   0  0  0  0  0  0  0  0  0  0  0  0
   62.0651   31.9205   47.0491 H   0  0  0  0  0  0  0  0  0  0  0  0
   63.4844   34.4218   47.3672 H   0  0  0  0  0  0  0  0  0  0  0  0
   64.2041   33.4890   46.0113 H   0  0  0  0  0  0  0  0  0  0  0  0
   62.4472   33.8630   46.0113 H   0  0  0  0  0  0  0  0  0  0  0  0
   64.6049   33.3542   49.8618 H   0  0  0  0  0  0  0  0  0  0  0  0
   63.9051   34.3306   48.4667 H   0  0  0  0  0  0  0  0  0  0  0  0
   63.6276   35.0664   51.0415 H   0  0  0  0  0  0  0  0  0  0  0  0
   62.4001   35.3923   49.7590 H   0  0  0  0  0  0  0  0  0  0  0  0
   63.4142   32.7409   51.9854 H   0  0  0  0  0  0  0  0  0  0  0  0
   62.7118   34.1052   52.9413 H   0  0  0  0  0  0  0  0  0  0  0  0
   62.0476   31.4909   53.3253 H   0  0  0  0  0  0  0  0  0  0  0  0
   60.9415   32.8816   53.6569 H   0  0  0  0  0  0  0  0  0  0  0  0
   58.5508   32.1606   52.0485 H   0  0  0  0  0  0  0  0  0  0  0  0
   59.6163   33.5777   52.4220 H   0  0  0  0  0  0  0  0  0  0  0  0
   58.3708   32.8517   49.9219 H   0  0  0  0  0  0  0  0  0  0  0  0
   59.4123   34.2950   50.3489 H   0  0  0  0  0  0  0  0  0  0  0  0
   61.1010   32.1590   49.9620 H   0  0  0  0  0  0  0  0  0  0  0  0
   60.9920   33.5340   49.1300 H   0  0  0  0  0  0  0  0  0  0  0  0
   59.9180   34.7550   47.9766 H   0  0  0  0  0  0  0  0  0  0  0  0
   58.9638   36.0584   46.0966 H   0  0  0  0  0  0  0  0  0  0  0  0
   57.9434   34.8876   44.1557 H   0  0  0  0  0  0  0  0  0  0  0  0
   57.9570   32.4105   44.0453 H   0  0  0  0  0  0  0  0  0  0  0  0
   58.6590   29.0607   44.6598 H   0  0  0  0  0  0  0  0  0  0  0  0
   58.1292   30.6258   43.9552 H   0  0  0  0  0  0  0  0  0  0  0  0
   59.8704   30.1845   43.9552 H   0  0  0  0  0  0  0  0  0  0  0  0
   58.8363   28.1155   46.0166 H   0  0  0  0  0  0  0  0  0  0  0  0
   58.4695   24.9009   46.8777 H   0  0  0  0  0  0  0  0  0  0  0  0
   58.5107   26.4762   46.0154 H   0  0  0  0  0  0  0  0  0  0  0  0
   59.9593   25.4141   46.0154 H   0  0  0  0  0  0  0  0  0  0  0  0
   60.8571   27.7230   52.2788 H   0  0  0  0  0  0  0  0  0  0  0  0
   62.2498   27.3057   51.2238 H   0  0  0  0  0  0  0  0  0  0  0  0
   61.5923   28.9773   51.2238 H   0  0  0  0  0  0  0  0  0  0  0  0
   60.4923   30.2431   50.1898 H   0  0  0  0  0  0  0  0  0  0  0  0
  1  2  1  0
  2  3  1  0
  3  4  1  0
  4  5  1  0
  3  6  1  0
  6  7  1  0
  7  8  1  0
  8  9  1  0
  9 10  1  0
 10 11  1  0
 11 12  1  0
 12 13  1  0
 13 14  1  0
 14 15  1  0
 15 16  2  0
 16 17  1  0
 17 18  2  0
 18 19  1  0
 19 20  2  0
 20 21  1  0
 21 22  2  0
 22 23  1  0
 22 24  1  0
 24 25  2  0
 25 26  1  0
 26 27  1  0
 27 28  1  0
 26 29  2  0
 29 30  1  0
 30 31  1  0
 29 32  1  0
 32 33  2  0
 33 15  1  0
 21 16  1  0
 33 24  1  0
  1 34  1  0
  1 35  1  0
  1 36  1  0
  2 37  1  0
  2 38  1  0
  4 39  1  0
  4 40  1  0
  5 41  1  0
  5 42  1  0
  5 43  1  0
  6 44  1  0
  6 45  1  0
  7 46  1  0
  7 47  1  0
  9 48  1  0
  9 49  1  0
 10 50  1  0
 10 51  1  0
 12 52  1  0
 12 53  1  0
 13 54  1  0
 13 55  1  0
 14 56  1  0
 14 57  1  0
 17 58  1  0
 18 59  1  0
 19 60  1  0
 20 61  1  0
 23 62  1  0
 23 63  1  0
 23 64  1  0
 25 65  1  0
 28 66  1  0
 28 67  1  0
 28 68  1  0
 31 69  1  0
 31 70  1  0
 31 71  1  0
 32 72  1  0
M  CHG  2  14   1  22   1
M  END
>  <UniqueID>  (5) 
5

>  <SMILES>  (5) 
CCN(CC)CCOCCOCC[NH2+]c1c2ccccc2[n+](C)c2cc(OC)c(OC)cc12

>  <Energy>  (5) 
111.24623128210872

>  <Genealogy>  (5) 
CCN(CC)CCOCCOCC[NH2+]c1c2ccccc2[n+](C)c2cc(OC)c(OC)cc12 (protonated)
CCN(CC)CCOCCOCC[NH2+]c1c2ccccc2[n+](C)c2cc(OC)c(OC)cc12 (3D coordinates assigned)
CCN(CC)CCOCCOCC[NH2+]c1c2ccccc2[n+](C)c2cc(OC)c(OC)cc12 (optimized conformer: 111.24623128210872 kcal/mol)

>  <smiles>  (5) 
CCN(CC)CCOCCOCCNc1c2ccccc2[n+](C)c2cc(OC)c(OC)cc12

>  <score_type>  (5) 
oracle

>  <origin>  (5) 
adg

>  <m_score__min__energy>  (5) 
-3.7400000000000002

>  <m_primary>  (5) 
energy

$$$$
5:0
     RDKit          3D

 53 55  0  0  0  0  0  0  0  0999 V2000
   62.6950   32.8080   47.4710 C   0  0  0  0  0  0  0  0  0  0  0  0
   62.2160   32.3710   48.7940 N   0  0  0  0  0  0  0  0  0  0  0  0
   63.2520   31.5530   49.4450 C   0  0  0  0  0  0  0  0  0  0  0  0
   61.8810   33.5280   49.6520 C   0  0  0  0  0  0  0  0  0  0  0  0
   60.4810   33.4070   50.2750 C   0  0  0  0  0  0  0  0  0  0  0  0
   59.6270   32.5160   49.4800 N   0  0  0  0  0  0  0  0  0  0  0  0
   58.8050   31.6720   50.3550 C   0  0  0  0  0  0  0  0  0  0  0  0
   59.6530   30.5540   50.9760 C   0  0  0  0  0  0  0  0  0  0  0  0
   60.6950   30.0930   50.0460 N   0  0  0  0  0  0  0  0  0  0  0  0
   60.3290   28.8270   49.3960 C   0  0  0  0  0  0  0  0  0  0  0  0
   59.7960   29.0830   47.9830 C   0  0  0  0  0  0  0  0  0  0  0  0
   59.7240   30.5170   47.7080 N   0  0  0  0  0  0  0  0  0  0  0  0
   58.8760   31.0440   46.6810 C   0  0  0  0  0  0  0  0  0  0  0  0
   57.9160   30.3560   45.9490 C   0  0  0  0  0  0  0  0  0  0  0  0
   57.4350   29.0550   46.0160 C   0  0  0  0  0  0  0  0  0  0  0  0
   56.4600   28.6800   45.1350 N   0  0  0  0  0  0  0  0  0  0  0  0
   55.9340   29.5320   44.1970 C   0  0  0  0  0  0  0  0  0  0  0  0
   56.3640   30.8670   44.1020 C   0  0  0  0  0  0  0  0  0  0  0  0
   57.3480   31.2780   44.9910 C   0  0  0  0  0  0  0  0  0  0  0  0
   57.9770   32.4910   45.1750 C   0  0  0  0  0  0  0  0  0  0  0  0
   57.8240   33.6960   44.4880 C   0  0  0  0  0  0  0  0  0  0  0  0
   58.6310   34.7810   44.8690 C   0  0  0  0  0  0  0  0  0  0  0  0
   59.5660   34.6440   45.9180 C   0  0  0  0  0  0  0  0  0  0  0  0
   59.7050   33.4210   46.5960 C   0  0  0  0  0  0  0  0  0  0  0  0
   58.8960   32.3530   46.2060 C   0  0  0  0  0  0  0  0  0  0  0  0
   63.5022   33.5444   47.5982 H   0  0  0  0  0  0  0  0  0  0  0  0
   63.0756   31.9394   46.9135 H   0  0  0  0  0  0  0  0  0  0  0  0
   61.8649   33.2664   46.9135 H   0  0  0  0  0  0  0  0  0  0  0  0
   63.1501   31.6335   50.5373 H   0  0  0  0  0  0  0  0  0  0  0  0
   63.1335   30.5022   49.1421 H   0  0  0  0  0  0  0  0  0  0  0  0
   64.2467   31.9120   49.1421 H   0  0  0  0  0  0  0  0  0  0  0  0
   62.6234   33.5951   50.4609 H   0  0  0  0  0  0  0  0  0  0  0  0
   61.8915   34.4289   49.0209 H   0  0  0  0  0  0  0  0  0  0  0  0
   60.5742   33.0018   51.2934 H   0  0  0  0  0  0  0  0  0  0  0  0
   60.0201   34.4055   50.2984 H   0  0  0  0  0  0  0  0  0  0  0  0
   60.2450   31.8830   48.9180 H   0  0  0  0  0  0  0  0  0  0  0  0
   58.3782   32.2910   51.1580 H   0  0  0  0  0  0  0  0  0  0  0  0
   58.0007   31.2179   49.7575 H   0  0  0  0  0  0  0  0  0  0  0  0
   60.1318   30.9337   51.8907 H   0  0  0  0  0  0  0  0  0  0  0  0
   58.9927   29.7047   51.2056 H   0  0  0  0  0  0  0  0  0  0  0  0
   60.7850   30.8170   49.2940 H   0  0  0  0  0  0  0  0  0  0  0  0
   61.2173   28.1809   49.3361 H   0  0  0  0  0  0  0  0  0  0  0  0
   59.5427   28.3372   49.9892 H   0  0  0  0  0  0  0  0  0  0  0  0
   60.4680   28.6089   47.2525 H   0  0  0  0  0  0  0  0  0  0  0  0
   58.7847   28.6575   47.9048 H   0  0  0  0  0  0  0  0  0  0  0  0
   60.5480   31.0920   47.9940 H   0  0  0  0  0  0  0  0  0  0  0  0
   57.8284   28.3452   46.7585 H   0  0  0  0  0  0  0  0  0  0  0  0
   55.1613   29.1635   43.5063 H   0  0  0  0  0  0  0  0  0  0  0  0
   55.9397   31.5555   43.3564 H   0  0  0  0  0  0  0  0  0  0  0  0
   57.0929   33.7934   43.6720 H   0  0  0  0  0  0  0  0  0  0  0  0
   58.5337   35.7440   44.3464 H   0  0  0  0  0  0  0  0  0  0  0  0
   60.1909   35.5019   46.2070 H   0  0  0  0  0  0  0  0  0  0  0  0
   60.4328   33.3085   47.4131 H   0  0  0  0  0  0  0  0  0  0  0  0
  1  2  1  0
  2  3  1  0
  2  4  1  0
  4  5  1  0
  5  6  1  0
  6  7  1  0
  7  8  1  0
  8  9  1  0
  9 10  1  0
 10 11  1  0
 11 12  1  0
 12 13  1  0
 13 14  1  0
 14 15  2  0
 15 16  1  0
 16 17  1  0
 17 18  2  0
 18 19  1  0
 19 20  2  0
 20 21  1  0
 21 22  2  0
 22 23  1  0
 23 24  2  0
 24 25  1  0
 25 13  2  0
 19 14  1  0
 25 20  1  0
  1 26  1  0
  1 27  1  0
  1 28  1  0
  3 29  1  0
  3 30  1  0
  3 31  1  0
  4 32  1  0
  4 33  1  0
  5 34  1  0
  5 35  1  0
  6 36  1  0
  7 37  1  0
  7 38  1  0
  8 39  1  0
  8 40  1  0
  9 41  1  0
 10 42  1  0
 10 43  1  0
 11 44  1  0
 11 45  1  0
 12 46  1  0
 15 47  1  0
 17 48  1  0
 18 49  1  0
 21 50  1  0
 22 51  1  0
 23 52  1  0
 24 53  1  0
M  CHG  1  16  -1
M  END
>  <UniqueID>  (6) 
6

>  <SMILES>  (6) 
CN(C)CCNCCNCCNc1c2c[n-]ccc-2c2ccccc12

>  <Energy>  (6) 
83.44409141742432

>  <Genealogy>  (6) 
CN(C)CCNCCNCCNc1c2c[n-]ccc-2c2ccccc12 (protonated)
CN(C)CCNCCNCCNc1c2c[n-]ccc-2c2ccccc12 (3D coordinates assigned)
CN(C)CCNCCNCCNc1c2c[n-]ccc-2c2ccccc12 (optimized conformer: 83.44409141742432 kcal/mol)

>  <smiles>  (6) 
CN(C)CCNCCNCCNc1c2c[nH]ccc-2c2ccccc12

>  <score_type>  (6) 
oracle

>  <origin>  (6) 
adg

>  <m_score__min__energy>  (6) 
-8.1199999999999992

>  <m_primary>  (6) 
energy

$$$$
6:0
     RDKit          3D

 57 60  0  0  0  0  0  0  0  0999 V2000
   56.3940   30.1980   52.8150 C   0  0  0  0  0  0  0  0  0  0  0  0
   57.2970   31.2320   52.2090 C   0  0  0  0  0  0  0  0  0  0  0  0
   57.3580   32.5430   52.7210 C   0  0  0  0  0  0  0  0  0  0  0  0
   58.2090   33.4980   52.1340 C   0  0  0  0  0  0  0  0  0  0  0  0
   58.9920   33.1400   51.0290 C   0  0  0  0  0  0  0  0  0  0  0  0
   58.9010   31.8670   50.5580 N   0  0  0  0  0  0  0  0  0  0  0  0
   59.5310   31.2700   49.5300 C   0  0  0  0  0  0  0  0  0  0  0  0
   60.5540   31.9530   48.6570 C   0  0  0  0  0  0  0  0  0  0  0  0
   60.0480   32.0720   47.2720 N   0  0  0  0  0  0  0  0  0  0  0  0
   58.5800   32.2710   47.2130 C   0  0  0  0  0  0  0  0  0  0  0  0
   58.1820   33.7620   47.1990 C   0  0  0  0  0  0  0  0  0  0  0  0
   59.1830   34.5530   47.7990 O   0  0  0  0  0  0  0  0  0  0  0  0
   60.3560   34.5440   47.0030 C   0  0  0  0  0  0  0  0  0  0  0  0
   60.7520   33.1280   46.5200 C   0  0  0  0  0  0  0  0  0  0  0  0
   59.0820   29.9430   49.4910 C   0  0  0  0  0  0  0  0  0  0  0  0
   59.4920   28.8580   48.5710 C   0  0  0  0  0  0  0  0  0  0  0  0
   59.7310   27.7020   49.0100 O   0  0  0  0  0  0  0  0  0  0  0  0
   59.6110   29.1190   47.1630 N   0  0  0  0  0  0  0  0  0  0  0  0
   59.9090   28.0670   46.1930 C   0  0  0  0  0  0  0  0  0  0  0  0
   60.2390   28.6780   44.8230 C   0  0  0  0  0  0  0  0  0  0  0  0
   59.0150   29.1030   44.1090 N   0  0  0  0  0  0  0  0  0  0  0  0
   57.9320   28.0960   44.2440 C   0  0  0  0  0  0  0  0  0  0  0  0
   56.9080   28.4960   45.3210 C   0  0  0  0  0  0  0  0  0  0  0  0
   56.2730   29.7440   45.0720 O   0  0  0  0  0  0  0  0  0  0  0  0
   57.0670   30.6480   44.3170 C   0  0  0  0  0  0  0  0  0  0  0  0
   58.5790   30.4580   44.5260 C   0  0  0  0  0  0  0  0  0  0  0  0
   58.1800   29.7420   50.4830 N   0  0  0  0  0  0  0  0  0  0  0  0
   58.1010   30.9360   51.1030 C   0  0  0  0  0  0  0  0  0  0  0  0
   56.4488   30.2608   53.9118 H   0  0  0  0  0  0  0  0  0  0  0  0
   55.3591   30.3784   52.4887 H   0  0  0  0  0  0  0  0  0  0  0  0
   56.7121   29.1968   52.4887 H   0  0  0  0  0  0  0  0  0  0  0  0
   56.7367   32.8220   53.5848 H   0  0  0  0  0  0  0  0  0  0  0  0
   58.2589   34.5190   52.5403 H   0  0  0  0  0  0  0  0  0  0  0  0
   59.6638   33.8701   50.5539 H   0  0  0  0  0  0  0  0  0  0  0  0
   60.7594   32.9573   49.0561 H   0  0  0  0  0  0  0  0  0  0  0  0
   61.4769   31.3545   48.6511 H   0  0  0  0  0  0  0  0  0  0  0  0
   58.1968   31.7957   46.2980 H   0  0  0  0  0  0  0  0  0  0  0  0
   58.1465   31.8195   48.1176 H   0  0  0  0  0  0  0  0  0  0  0  0
   58.0407   34.0878   46.1579 H   0  0  0  0  0  0  0  0  0  0  0  0
   57.2485   33.8831   47.7682 H   0  0  0  0  0  0  0  0  0  0  0  0
   60.1856   35.1795   46.1215 H   0  0  0  0  0  0  0  0  0  0  0  0
   61.1794   34.9190   47.6286 H   0  0  0  0  0  0  0  0  0  0  0  0
   60.5001   33.0329   45.4535 H   0  0  0  0  0  0  0  0  0  0  0  0
   61.8320   33.0015   46.6858 H   0  0  0  0  0  0  0  0  0  0  0  0
   59.5240   30.1000   46.8120 H   0  0  0  0  0  0  0  0  0  0  0  0
   60.7713   27.4824   46.5461 H   0  0  0  0  0  0  0  0  0  0  0  0
   59.0275   27.4170   46.0902 H   0  0  0  0  0  0  0  0  0  0  0  0
   60.8893   29.5530   44.9693 H   0  0  0  0  0  0  0  0  0  0  0  0
   60.7436   27.9117   44.2162 H   0  0  0  0  0  0  0  0  0  0  0  0
   57.4136   27.9996   43.2786 H   0  0  0  0  0  0  0  0  0  0  0  0
   58.3890   27.1419   44.5455 H   0  0  0  0  0  0  0  0  0  0  0  0
   56.1336   27.7163   45.3703 H   0  0  0  0  0  0  0  0  0  0  0  0
   57.4605   28.5999   46.2665 H   0  0  0  0  0  0  0  0  0  0  0  0
   56.8418   30.5020   43.2502 H   0  0  0  0  0  0  0  0  0  0  0  0
   56.8177   31.6627   44.6607 H   0  0  0  0  0  0  0  0  0  0  0  0
   59.1200   31.2077   43.9300 H   0  0  0  0  0  0  0  0  0  0  0  0
   58.7992   30.5792   45.5969 H   0  0  0  0  0  0  0  0  0  0  0  0
  1  2  1  0
  2  3  2  0
  3  4  1  0
  4  5  2  0
  5  6  1  0
  6  7  1  0
  7  8  1  0
  8  9  1  0
  9 10  1  0
 10 11  1  0
 11 12  1  0
 12 13  1  0
 13 14  1  0
  7 15  2  0
 15 16  1  0
 16 17  2  0
 16 18  1  0
 18 19  1  0
 19 20  1  0
 20 21  1  0
 21 22  1  0
 22 23  1  0
 23 24  1  0
 24 25  1  0
 25 26  1  0
 15 27  1  0
 27 28  2  0
 28  2  1  0
 28  6  1  0
 14  9  1  0
 26 21  1  0
  1 29  1  0
  1 30  1  0
  1 31  1  0
  3 32  1  0
  4 33  1  0
  5 34  1  0
  8 35  1  0
  8 36  1  0
 10 37  1  0
 10 38  1  0
 11 39  1  0
 11 40  1  0
 13 41  1  0
 13 42  1  0
 14 43  1  0
 14 44  1  0
 18 45  1  0
 19 46  1  0
 19 47  1  0
 20 48  1  0
 20 49  1  0
 22 50  1  0
 22 51  1  0
 23 52  1  0
 23 53  1  0
 25 54  1  0
 25 55  1  0
 26 56  1  0
 26 57  1  0
M  END
>  <UniqueID>  (7) 
7

>  <SMILES>  (7) 
Cc1cccn2c(CN3CCOCC3)c(C(=O)NCCN3CCOCC3)nc12

>  <Energy>  (7) 
116.37988179526069

>  <Genealogy>  (7) 
Cc1cccn2c(CN3CCOCC3)c(C(=O)NCCN3CCOCC3)nc12 (3D coordinates assigned)
Cc1cccn2c(CN3CCOCC3)c(C(=O)NCCN3CCOCC3)nc12 (nonaromatic ring conformer: 116.37988179526069 kcal/mol)

>  <smiles>  (7) 
Cc1cccn2c(CN3CCOCC3)c(C(=O)NCCN3CCOCC3)nc12

>  <score_type>  (7) 
oracle

>  <origin>  (7) 
adg

>  <m_score__min__energy>  (7) 
-7.8600000000000003

>  <m_primary>  (7) 
energy

$$$$
7:0
     RDKit          3D

 49 52  0  0  0  0  0  0  0  0999 V2000
   55.8660   22.8940   48.1460 C   0  0  0  0  0  0  0  0  0  0  0  0
   57.1410   23.0560   47.5320 O   0  0  0  0  0  0  0  0  0  0  0  0
   57.5170   24.1720   46.7710 C   0  0  0  0  0  0  0  0  0  0  0  0
   57.4000   24.2030   45.3680 C   0  0  0  0  0  0  0  0  0  0  0  0
   57.7850   25.3400   44.6540 C   0  0  0  0  0  0  0  0  0  0  0  0
   58.2870   26.4680   45.3240 C   0  0  0  0  0  0  0  0  0  0  0  0
   58.6890   27.7090   44.5550 C   0  0  0  0  0  0  0  0  0  0  0  0
   57.5450   28.7460   44.3880 C   0  0  2  0  0  0  0  0  0  0  0  0
   57.0540   28.7440   42.9830 N   0  0  0  0  0  0  0  0  0  0  0  0
   56.2250   29.9170   42.6540 C   0  0  0  0  0  0  0  0  0  0  0  0
   57.0500   31.2130   42.7320 C   0  0  0  0  0  0  0  0  0  0  0  0
   57.7370   31.2550   44.0550 C   0  0  0  0  0  0  0  0  0  0  0  0
   57.9430   30.1400   44.8470 C   0  0  0  0  0  0  0  0  0  0  0  0
   58.3680   30.5160   46.0850 N   0  0  0  0  0  0  0  0  0  0  0  0
   58.5370   29.6710   47.2680 C   0  0  0  0  0  0  0  0  0  0  0  0
   58.5250   31.8590   46.0250 C   0  0  0  0  0  0  0  0  0  0  0  0
   58.9670   32.7230   47.0320 C   0  0  0  0  0  0  0  0  0  0  0  0
   59.0050   34.1050   46.7650 C   0  0  0  0  0  0  0  0  0  0  0  0
   59.4570   34.9620   47.7800 O   0  0  0  0  0  0  0  0  0  0  0  0
   60.0550   34.5250   48.9960 C   0  0  0  0  0  0  0  0  0  0  0  0
   58.5910   34.5890   45.4940 C   0  0  0  0  0  0  0  0  0  0  0  0
   58.1470   33.7010   44.4990 C   0  0  0  0  0  0  0  0  0  0  0  0
   58.1390   32.3410   44.7980 C   0  0  0  0  0  0  0  0  0  0  0  0
   58.4140   26.4290   46.7230 C   0  0  0  0  0  0  0  0  0  0  0  0
   58.0280   25.2910   47.4370 C   0  0  0  0  0  0  0  0  0  0  0  0
   55.9813   22.9086   49.2398 H   0  0  0  0  0  0  0  0  0  0  0  0
   55.2028   23.7151   47.8362 H   0  0  0  0  0  0  0  0  0  0  0  0
   55.4293   21.9331   47.8362 H   0  0  0  0  0  0  0  0  0  0  0  0
   57.0037   23.3280   44.8321 H   0  0  0  0  0  0  0  0  0  0  0  0
   57.6944   25.3523   43.5578 H   0  0  0  0  0  0  0  0  0  0  0  0
   59.5197   28.1932   45.0893 H   0  0  0  0  0  0  0  0  0  0  0  0
   58.9708   27.3799   43.5439 H   0  0  0  0  0  0  0  0  0  0  0  0
   56.7198   28.4403   45.0480 H   0  0  0  0  0  0  0  0  0  0  0  0
   57.8560   28.7430   42.3130 H   0  0  0  0  0  0  0  0  0  0  0  0
   55.8290   29.8032   41.6341 H   0  0  0  0  0  0  0  0  0  0  0  0
   55.4022   29.9804   43.3814 H   0  0  0  0  0  0  0  0  0  0  0  0
   57.7972   31.2268   41.9248 H   0  0  0  0  0  0  0  0  0  0  0  0
   56.3918   32.0872   42.6201 H   0  0  0  0  0  0  0  0  0  0  0  0
   58.4149   30.2813   48.1750 H   0  0  0  0  0  0  0  0  0  0  0  0
   57.7808   28.8722   47.2591 H   0  0  0  0  0  0  0  0  0  0  0  0
   59.5422   29.2244   47.2591 H   0  0  0  0  0  0  0  0  0  0  0  0
   59.2783   32.3313   48.0116 H   0  0  0  0  0  0  0  0  0  0  0  0
   59.4939   34.9351   49.8486 H   0  0  0  0  0  0  0  0  0  0  0  0
   60.0366   33.4260   49.0394 H   0  0  0  0  0  0  0  0  0  0  0  0
   61.0965   34.8763   49.0394 H   0  0  0  0  0  0  0  0  0  0  0  0
   58.6184   35.6690   45.2872 H   0  0  0  0  0  0  0  0  0  0  0  0
   57.8166   34.0684   43.5162 H   0  0  0  0  0  0  0  0  0  0  0  0
   58.8197   27.2994   47.2595 H   0  0  0  0  0  0  0  0  0  0  0  0
   58.1269   25.2752   48.5324 H   0  0  0  0  0  0  0  0  0  0  0  0
  1  2  1  0
  2  3  1  0
  3  4  2  0
  4  5  1  0
  5  6  2  0
  6  7  1  0
  7  8  1  0
  8  9  1  0
  9 10  1  0
 10 11  1  0
 11 12  1  0
 12 13  2  0
 13 14  1  0
 14 15  1  0
 14 16  1  0
 16 17  2  0
 17 18  1  0
 18 19  1  0
 19 20  1  0
 18 21  2  0
 21 22  1  0
 22 23  2  0
  6 24  1  0
 24 25  2  0
 25  3  1  0
 13  8  1  0
 23 16  1  0
 23 12  1  0
  1 26  1  0
  1 27  1  0
  1 28  1  0
  4 29  1  0
  5 30  1  0
  7 31  1  0
  7 32  1  0
  8 33  1  1
  9 34  1  0
 10 35  1  0
 10 36  1  0
 11 37  1  0
 11 38  1  0
 15 39  1  0
 15 40  1  0
 15 41  1  0
 17 42  1  0
 20 43  1  0
 20 44  1  0
 20 45  1  0
 21 46  1  0
 22 47  1  0
 24 48  1  0
 25 49  1  0
M  END
>  <UniqueID>  (8) 
8

>  <SMILES>  (8) 
COc1ccc(C[C@@H]2NCCc3c2n(C)c2cc(OC)ccc32)cc1

>  <Energy>  (8) 
90.79600859725834

>  <Genealogy>  (8) 
COc1ccc(C[C@@H]2NCCc3c2n(C)c2cc(OC)ccc32)cc1 (chirality)
COc1ccc(C[C@@H]2NCCc3c2n(C)c2cc(OC)ccc32)cc1 (3D coordinates assigned)
COc1ccc(C[C@@H]2NCCc3c2n(C)c2cc(OC)ccc32)cc1 (nonaromatic ring conformer: 90.79600859725834 kcal/mol)

>  <smiles>  (8) 
COc1ccc(CC2NCCc3c2n(C)c2cc(OC)ccc32)cc1

>  <score_type>  (8) 
oracle

>  <origin>  (8) 
adg

>  <m_score__min__energy>  (8) 
-7.9100000000000001

>  <m_primary>  (8) 
energy

$$$$
8:0
     RDKit          3D

 41 42  0  0  0  0  0  0  0  0999 V2000
   57.7740   26.4710   44.4610 C   0  0  0  0  0  0  0  0  0  0  0  0
   58.1630   27.4560   43.3550 C   0  0  0  0  0  0  0  0  0  0  0  0
   57.9170   28.8600   43.7420 N   0  0  0  0  0  0  0  0  0  0  0  0
   56.5990   29.3580   43.3000 C   0  0  0  0  0  0  0  0  0  0  0  0
   56.1520   30.5970   44.0940 C   0  0  0  0  0  0  0  0  0  0  0  0
   57.0210   30.8150   45.2030 O   0  0  0  0  0  0  0  0  0  0  0  0
   57.7540   31.9900   45.4520 C   0  0  0  0  0  0  0  0  0  0  0  0
   57.7080   33.0990   44.5830 C   0  0  0  0  0  0  0  0  0  0  0  0
   58.4460   34.2500   44.8640 C   0  0  0  0  0  0  0  0  0  0  0  0
   59.2360   34.3120   46.0120 C   0  0  0  0  0  0  0  0  0  0  0  0
   59.2920   33.2230   46.8820 C   0  0  0  0  0  0  0  0  0  0  0  0
   58.5620   32.0530   46.6070 C   0  0  0  0  0  0  0  0  0  0  0  0
   58.5930   30.9100   47.5920 C   0  0  0  0  0  0  0  0  0  0  0  0
   59.3320   29.7360   47.0060 C   0  0  0  0  0  0  0  0  0  0  0  0
   60.1160   29.8900   45.8490 C   0  0  0  0  0  0  0  0  0  0  0  0
   60.7650   28.7870   45.2860 C   0  0  0  0  0  0  0  0  0  0  0  0
   60.6350   27.5240   45.8700 C   0  0  0  0  0  0  0  0  0  0  0  0
   59.8550   27.3610   47.0170 C   0  0  0  0  0  0  0  0  0  0  0  0
   59.2020   28.4620   47.5840 C   0  0  0  0  0  0  0  0  0  0  0  0
   57.9560   26.9318   45.4431 H   0  0  0  0  0  0  0  0  0  0  0  0
   56.7079   26.2167   44.3672 H   0  0  0  0  0  0  0  0  0  0  0  0
   58.3786   25.5569   44.3672 H   0  0  0  0  0  0  0  0  0  0  0  0
   59.2331   27.3329   43.1322 H   0  0  0  0  0  0  0  0  0  0  0  0
   57.5411   27.2359   42.4747 H   0  0  0  0  0  0  0  0  0  0  0  0
   58.6730   29.4600   43.3370 H   0  0  0  0  0  0  0  0  0  0  0  0
   57.9830   28.9530   44.7820 H   0  0  0  0  0  0  0  0  0  0  0  0
   56.6592   29.6227   42.2340 H   0  0  0  0  0  0  0  0  0  0  0  0
   55.8608   28.5610   43.4725 H   0  0  0  0  0  0  0  0  0  0  0  0
   56.1762   31.4779   43.4356 H   0  0  0  0  0  0  0  0  0  0  0  0
   55.1304   30.4329   44.4673 H   0  0  0  0  0  0  0  0  0  0  0  0
   57.0859   33.0570   43.6768 H   0  0  0  0  0  0  0  0  0  0  0  0
   58.4045   35.1097   44.1790 H   0  0  0  0  0  0  0  0  0  0  0  0
   59.8156   35.2208   46.2315 H   0  0  0  0  0  0  0  0  0  0  0  0
   59.9114   33.2799   47.7893 H   0  0  0  0  0  0  0  0  0  0  0  0
   59.1011   31.2367   48.5113 H   0  0  0  0  0  0  0  0  0  0  0  0
   57.5608   30.6058   47.8202 H   0  0  0  0  0  0  0  0  0  0  0  0
   60.2191   30.8820   45.3850 H   0  0  0  0  0  0  0  0  0  0  0  0
   61.3789   28.9135   44.3820 H   0  0  0  0  0  0  0  0  0  0  0  0
   61.1473   26.6577   45.4260 H   0  0  0  0  0  0  0  0  0  0  0  0
   59.7536   26.3663   47.4755 H   0  0  0  0  0  0  0  0  0  0  0  0
   58.5851   28.3292   48.4850 H   0  0  0  0  0  0  0  0  0  0  0  0
  1  2  1  0
  2  3  1  0
  3  4  1  0
  4  5  1  0
  5  6  1  0
  6  7  1  0
  7  8  2  0
  8  9  1  0
  9 10  2  0
 10 11  1  0
 11 12  2  0
 12 13  1  0
 13 14  1  0
 14 15  2  0
 15 16  1  0
 16 17  2  0
 17 18  1  0
 18 19  2  0
 12  7  1  0
 19 14  1  0
  1 20  1  0
  1 21  1  0
  1 22  1  0
  2 23  1  0
  2 24  1  0
  3 25  1  0
  3 26  1  0
  4 27  1  0
  4 28  1  0
  5 29  1  0
  5 30  1  0
  8 31  1  0
  9 32  1  0
 10 33  1  0
 11 34  1  0
 13 35  1  0
 13 36  1  0
 15 37  1  0
 16 38  1  0
 17 39  1  0
 18 40  1  0
 19 41  1  0
M  CHG  1   3   1
M  END
>  <UniqueID>  (9) 
9

>  <SMILES>  (9) 
CC[NH2+]CCOc1ccccc1Cc1ccccc1

>  <Energy>  (9) 
37.37109294141628

>  <Genealogy>  (9) 
CC[NH2+]CCOc1ccccc1Cc1ccccc1 (protonated)
CC[NH2+]CCOc1ccccc1Cc1ccccc1 (3D coordinates assigned)
CC[NH2+]CCOc1ccccc1Cc1ccccc1 (optimized conformer: 37.37109294141628 kcal/mol)

>  <smiles>  (9) 
CCNCCOc1ccccc1Cc1ccccc1

>  <score_type>  (9) 
oracle

>  <origin>  (9) 
adg

>  <m_score__min__energy>  (9) 
-4.8899999999999997

>  <m_primary>  (9) 
energy

$$$$
9:0
     RDKit          3D

 78 80  0  0  0  0  0  0  0  0999 V2000
   57.3740   27.6870   45.4270 C   0  0  0  0  0  0  0  0  0  0  0  0
   57.2530   29.2140   45.4810 C   0  0  0  0  0  0  0  0  0  0  0  0
   58.5260   29.9110   45.1520 N   0  0  0  0  0  0  0  0  0  0  0  0
   58.2900   31.0830   44.2530 C   0  0  0  0  0  0  0  0  0  0  0  0
   57.0930   30.8710   43.3220 C   0  0  0  0  0  0  0  0  0  0  0  0
   59.4830   28.9780   44.4960 C   0  0  0  0  0  0  0  0  0  0  0  0
   60.8450   28.8340   45.2140 C   0  0  0  0  0  0  0  0  0  0  0  0
   60.7830   29.1640   46.5900 O   0  0  0  0  0  0  0  0  0  0  0  0
   60.3520   28.0550   47.3560 C   0  0  0  0  0  0  0  0  0  0  0  0
   59.7710   28.5560   48.6810 C   0  0  0  0  0  0  0  0  0  0  0  0
   58.7330   29.6640   48.4680 C   0  0  0  0  0  0  0  0  0  0  0  0
   59.4090   30.9340   48.1500 N   0  0  0  0  0  0  0  0  0  0  0  0
   58.5510   32.1080   48.3600 C   0  0  0  0  0  0  0  0  0  0  0  0
   58.5480   32.9820   47.1270 C   0  0  0  0  0  0  0  0  0  0  0  0
   57.3360   33.2190   46.4550 C   0  0  0  0  0  0  0  0  0  0  0  0
   57.2990   34.0430   45.3290 C   0  0  0  0  0  0  0  0  0  0  0  0
   58.4690   34.6370   44.8560 C   0  0  0  0  0  0  0  0  0  0  0  0
   59.6810   34.4140   45.5100 C   0  0  0  0  0  0  0  0  0  0  0  0
   59.7330   33.6000   46.6530 C   0  0  0  0  0  0  0  0  0  0  0  0
   61.0350   33.3870   47.3140 C   0  0  0  0  0  0  0  0  0  0  0  0
   61.4470   34.2180   48.3660 C   0  0  0  0  0  0  0  0  0  0  0  0
   62.6630   33.9820   49.0140 C   0  0  0  0  0  0  0  0  0  0  0  0
   63.4800   32.9130   48.6160 C   0  0  0  0  0  0  0  0  0  0  0  0
   64.7410   32.5980   49.3800 C   0  0  0  0  0  0  0  0  0  0  0  0
   64.5610   32.8450   50.8180 N   0  0  0  0  0  0  0  0  0  0  0  0
   64.2760   31.6120   51.5750 C   0  0  0  0  0  0  0  0  0  0  0  0
   63.1220   30.8620   50.9050 C   0  0  0  0  0  0  0  0  0  0  0  0
   61.8020   31.4920   51.2360 C   0  0  0  0  0  0  0  0  0  0  0  0
   60.6130   30.7520   51.1580 C   0  0  0  0  0  0  0  0  0  0  0  0
   59.3980   31.3760   51.4530 C   0  0  0  0  0  0  0  0  0  0  0  0
   59.3810   32.7240   51.8200 C   0  0  0  0  0  0  0  0  0  0  0  0
   60.5830   33.4310   51.8830 C   0  0  0  0  0  0  0  0  0  0  0  0
   61.7550   32.8080   51.5890 N   0  0  0  0  0  0  0  0  0  0  0  0
   63.0790   32.1010   47.5430 C   0  0  0  0  0  0  0  0  0  0  0  0
   61.8650   32.3390   46.8950 C   0  0  0  0  0  0  0  0  0  0  0  0
   57.4058   27.2853   46.4505 H   0  0  0  0  0  0  0  0  0  0  0  0
   56.5062   27.2690   44.8959 H   0  0  0  0  0  0  0  0  0  0  0  0
   58.2968   27.4109   44.8959 H   0  0  0  0  0  0  0  0  0  0  0  0
   56.4841   29.5302   44.7607 H   0  0  0  0  0  0  0  0  0  0  0  0
   56.9864   29.4863   46.5129 H   0  0  0  0  0  0  0  0  0  0  0  0
   58.9660   30.2340   46.0460 H   0  0  0  0  0  0  0  0  0  0  0  0
   58.1025   31.9720   44.8730 H   0  0  0  0  0  0  0  0  0  0  0  0
   59.1847   31.2111   43.6261 H   0  0  0  0  0  0  0  0  0  0  0  0
   56.1854   30.7103   43.9224 H   0  0  0  0  0  0  0  0  0  0  0  0
   56.9602   31.7596   42.6874 H   0  0  0  0  0  0  0  0  0  0  0  0
   57.2734   29.9908   42.6874 H   0  0  0  0  0  0  0  0  0  0  0  0
   59.0141   27.9840   44.4494 H   0  0  0  0  0  0  0  0  0  0  0  0
   59.6993   29.4032   43.5049 H   0  0  0  0  0  0  0  0  0  0  0  0
   61.1831   27.7916   45.1184 H   0  0  0  0  0  0  0  0  0  0  0  0
   61.5438   29.5377   44.7381 H   0  0  0  0  0  0  0  0  0  0  0  0
   59.5799   27.5019   46.8011 H   0  0  0  0  0  0  0  0  0  0  0  0
   61.2040   27.3880   47.5539 H   0  0  0  0  0  0  0  0  0  0  0  0
   59.2903   27.7134   49.1996 H   0  0  0  0  0  0  0  0  0  0  0  0
   60.5954   28.9718   49.2790 H   0  0  0  0  0  0  0  0  0  0  0  0
   58.0694   29.3863   47.6358 H   0  0  0  0  0  0  0  0  0  0  0  0
   58.1445   29.7891   49.3889 H   0  0  0  0  0  0  0  0  0  0  0  0
   59.6960   30.9170   47.1410 H   0  0  0  0  0  0  0  0  0  0  0  0
   57.5243   31.7742   48.5708 H   0  0  0  0  0  0  0  0  0  0  0  0
   58.9401   32.6885   49.2095 H   0  0  0  0  0  0  0  0  0  0  0  0
   56.4095   32.7513   46.8195 H   0  0  0  0  0  0  0  0  0  0  0  0
   56.3445   34.2244   44.8132 H   0  0  0  0  0  0  0  0  0  0  0  0
   58.4361   35.2824   43.9658 H   0  0  0  0  0  0  0  0  0  0  0  0
   60.6018   34.8788   45.1278 H   0  0  0  0  0  0  0  0  0  0  0  0
   60.8113   35.0581   48.6822 H   0  0  0  0  0  0  0  0  0  0  0  0
   62.9805   34.6368   49.8389 H   0  0  0  0  0  0  0  0  0  0  0  0
   65.0000   31.5400   49.2263 H   0  0  0  0  0  0  0  0  0  0  0  0
   65.5467   33.2494   49.0106 H   0  0  0  0  0  0  0  0  0  0  0  0
   65.4510   33.2610   51.1810 H   0  0  0  0  0  0  0  0  0  0  0  0
   65.1714   30.9732   51.5873 H   0  0  0  0  0  0  0  0  0  0  0  0
   63.9977   31.8697   52.6075 H   0  0  0  0  0  0  0  0  0  0  0  0
   63.2659   30.8820   49.8146 H   0  0  0  0  0  0  0  0  0  0  0  0
   63.1170   29.8265   51.2762 H   0  0  0  0  0  0  0  0  0  0  0  0
   60.6367   29.6913   50.8676 H   0  0  0  0  0  0  0  0  0  0  0  0
   58.4579   30.8077   51.3965 H   0  0  0  0  0  0  0  0  0  0  0  0
   58.4299   33.2232   52.0569 H   0  0  0  0  0  0  0  0  0  0  0  0
   60.5819   34.4927   52.1707 H   0  0  0  0  0  0  0  0  0  0  0  0
   63.7238   31.2738   47.2114 H   0  0  0  0  0  0  0  0  0  0  0  0
   61.5593   31.7012   46.0525 H   0  0  0  0  0  0  0  0  0  0  0  0
  1  2  1  0
  2  3  1  0
  3  4  1  0
  4  5  1  0
  3  6  1  0
  6  7  1  0
  7  8  1  0
  8  9  1  0
  9 10  1  0
 10 11  1  0
 11 12  1  0
 12 13  1  0
 13 14  1  0
 14 15  2  0
 15 16  1  0
 16 17  2  0
 17 18  1  0
 18 19  2  0
 19 20  1  0
 20 21  2  0
 21 22  1  0
 22 23  2  0
 23 24  1  0
 24 25  1  0
 25 26  1  0
 26 27  1  0
 27 28  1  0
 28 29  2  0
 29 30  1  0
 30 31  2  0
 31 32  1  0
 32 33  2  0
 23 34  1  0
 34 35  2  0
 19 14  1  0
 35 20  1  0
 33 28  1  0
  1 36  1  0
  1 37  1  0
  1 38  1  0
  2 39  1  0
  2 40  1  0
  3 41  1  0
  4 42  1  0
  4 43  1  0
  5 44  1  0
  5 45  1  0
  5 46  1  0
  6 47  1  0
  6 48  1  0
  7 49  1  0
  7 50  1  0
  9 51  1  0
  9 52  1  0
 10 53  1  0
 10 54  1  0
 11 55  1  0
 11 56  1  0
 12 57  1  0
 13 58  1  0
 13 59  1  0
 15 60  1  0
 16 61  1  0
 17 62  1  0
 18 63  1  0
 21 64  1  0
 22 65  1  0
 24 66  1  0
 24 67  1  0
 25 68  1  0
 26 69  1  0
 26 70  1  0
 27 71  1  0
 27 72  1  0
 29 73  1  0
 30 74  1  0
 31 75  1  0
 32 76  1  0
 34 77  1  0
 35 78  1  0
M  CHG  1   3   1
M  END
>  <UniqueID>  (10) 
10

>  <SMILES>  (10) 
CC[NH+](CC)CCOCCCNCc1ccccc1-c1ccc(CNCCc2ccccn2)cc1

>  <Energy>  (10) 
80.51409820921023

>  <Genealogy>  (10) 
CC[NH+](CC)CCOCCCNCc1ccccc1-c1ccc(CNCCc2ccccn2)cc1 (protonated)
CC[NH+](CC)CCOCCCNCc1ccccc1-c1ccc(CNCCc2ccccn2)cc1 (3D coordinates assigned)
CC[NH+](CC)CCOCCCNCc1ccccc1-c1ccc(CNCCc2ccccn2)cc1 (optimized conformer: 80.51409820921023 kcal/mol)

>  <smiles>  (10) 
CCN(CC)CCOCCCNCc1ccccc1-c1ccc(CNCCc2ccccn2)cc1

>  <score_type>  (10) 
oracle

>  <origin>  (10) 
adg

>  <m_score__min__energy>  (10) 
-5.6699999999999999

>  <m_primary>  (10) 
energy

$$$$
10:0
     RDKit          3D

 60 63  0  0  0  0  0  0  0  0999 V2000
   63.1850   33.2460   46.9950 C   0  0  0  0  0  0  0  0  0  0  0  0
   62.6310   31.9030   47.4980 C   0  0  0  0  0  0  0  0  0  0  0  0
   62.7410   31.7100   48.9660 N   0  0  1  0  0  0  0  0  0  0  0  0
   63.4210   32.8490   49.6160 C   0  0  0  0  0  0  0  0  0  0  0  0
   61.4220   31.4270   49.5930 C   0  0  0  0  0  0  0  0  0  0  0  0
   60.6210   30.3410   48.8440 C   0  0  0  0  0  0  0  0  0  0  0  0
   59.2680   30.7970   48.4990 N   0  0  0  0  0  0  0  0  0  0  0  0
   58.9160   31.2720   47.1870 C   0  0  0  0  0  0  0  0  0  0  0  0
   59.0680   32.6350   46.8750 C   0  0  0  0  0  0  0  0  0  0  0  0
   59.4640   33.5630   47.8630 C   0  0  0  0  0  0  0  0  0  0  0  0
   59.7040   34.8930   47.5350 C   0  0  0  0  0  0  0  0  0  0  0  0
   59.5640   35.3210   46.2210 C   0  0  0  0  0  0  0  0  0  0  0  0
   59.1490   34.4290   45.2330 C   0  0  0  0  0  0  0  0  0  0  0  0
   58.8530   33.0770   45.5430 C   0  0  0  0  0  0  0  0  0  0  0  0
   58.3920   32.1940   44.5840 N   0  0  0  0  0  0  0  0  0  0  0  0
   57.9070   32.7060   43.2810 C   0  0  0  0  0  0  0  0  0  0  0  0
   58.3400   30.8390   44.8560 C   0  0  0  0  0  0  0  0  0  0  0  0
   58.1190   29.8810   43.8350 C   0  0  0  0  0  0  0  0  0  0  0  0
   57.9940   28.5130   44.1210 C   0  0  0  0  0  0  0  0  0  0  0  0
   57.7830   27.5480   42.9840 C   0  0  0  0  0  0  0  0  0  0  0  0
   58.0420   28.0820   45.4630 C   0  0  0  0  0  0  0  0  0  0  0  0
   57.8380   26.6640   45.8410 C   0  0  0  0  0  0  0  0  0  0  0  0
   56.6140   26.2390   46.3860 C   0  0  0  0  0  0  0  0  0  0  0  0
   56.4330   24.9020   46.7530 C   0  0  0  0  0  0  0  0  0  0  0  0
   57.4720   23.9830   46.5850 C   0  0  0  0  0  0  0  0  0  0  0  0
   58.6970   24.4000   46.0540 C   0  0  0  0  0  0  0  0  0  0  0  0
   58.8820   25.7360   45.6860 C   0  0  0  0  0  0  0  0  0  0  0  0
   58.3210   29.0090   46.4710 C   0  0  0  0  0  0  0  0  0  0  0  0
   58.5320   30.3700   46.1790 C   0  0  0  0  0  0  0  0  0  0  0  0
   63.4465   33.8800   47.8550 H   0  0  0  0  0  0  0  0  0  0  0  0
   64.0827   33.0670   46.3850 H   0  0  0  0  0  0  0  0  0  0  0  0
   62.4222   33.7520   46.3850 H   0  0  0  0  0  0  0  0  0  0  0  0
   61.5681   31.8429   47.2210 H   0  0  0  0  0  0  0  0  0  0  0  0
   63.2391   31.1152   47.0295 H   0  0  0  0  0  0  0  0  0  0  0  0
   63.3680   30.8840   49.0940 H   0  0  0  0  0  0  0  0  0  0  0  0
   63.3559   32.7399   50.7086 H   0  0  0  0  0  0  0  0  0  0  0  0
   64.4779   32.8672   49.3117 H   0  0  0  0  0  0  0  0  0  0  0  0
   62.9356   33.7880   49.3117 H   0  0  0  0  0  0  0  0  0  0  0  0
   61.5899   31.0892   50.6263 H   0  0  0  0  0  0  0  0  0  0  0  0
   60.8332   32.3554   49.5561 H   0  0  0  0  0  0  0  0  0  0  0  0
   61.1551   30.0804   47.9183 H   0  0  0  0  0  0  0  0  0  0  0  0
   60.5274   29.4686   49.5075 H   0  0  0  0  0  0  0  0  0  0  0  0
   58.5520   30.8570   49.2580 H   0  0  0  0  0  0  0  0  0  0  0  0
   59.5841   33.2299   48.9045 H   0  0  0  0  0  0  0  0  0  0  0  0
   60.0048   35.6063   48.3165 H   0  0  0  0  0  0  0  0  0  0  0  0
   59.7812   36.3670   45.9590 H   0  0  0  0  0  0  0  0  0  0  0  0
   59.0494   34.7799   44.1952 H   0  0  0  0  0  0  0  0  0  0  0  0
   57.1597   33.4949   43.4522 H   0  0  0  0  0  0  0  0  0  0  0  0
   58.7526   33.1193   42.7117 H   0  0  0  0  0  0  0  0  0  0  0  0
   57.4485   31.8840   42.7117 H   0  0  0  0  0  0  0  0  0  0  0  0
   58.0435   30.2189   42.7909 H   0  0  0  0  0  0  0  0  0  0  0  0
   57.5644   26.5482   43.3874 H   0  0  0  0  0  0  0  0  0  0  0  0
   56.9378   27.8873   42.3671 H   0  0  0  0  0  0  0  0  0  0  0  0
   58.6927   27.5036   42.3671 H   0  0  0  0  0  0  0  0  0  0  0  0
   55.7956   26.9609   46.5243 H   0  0  0  0  0  0  0  0  0  0  0  0
   55.4716   24.5733   47.1744 H   0  0  0  0  0  0  0  0  0  0  0  0
   57.3265   22.9307   46.8706 H   0  0  0  0  0  0  0  0  0  0  0  0
   59.5154   23.6762   45.9259 H   0  0  0  0  0  0  0  0  0  0  0  0
   59.8483   26.0620   45.2736 H   0  0  0  0  0  0  0  0  0  0  0  0
   58.3770   28.6678   47.5153 H   0  0  0  0  0  0  0  0  0  0  0  0
  1  2  1  0
  2  3  1  0
  3  4  1  0
  3  5  1  0
  5  6  1  0
  6  7  1  0
  7  8  1  0
  8  9  2  0
  9 10  1  0
 10 11  2  0
 11 12  1  0
 12 13  2  0
 13 14  1  0
 14 15  2  0
 15 16  1  0
 15 17  1  0
 17 18  2  0
 18 19  1  0
 19 20  1  0
 19 21  2  0
 21 22  1  0
 22 23  2  0
 23 24  1  0
 24 25  2  0
 25 26  1  0
 26 27  2  0
 21 28  1  0
 28 29  2  0
 29  8  1  0
 14  9  1  0
 29 17  1  0
 27 22  1  0
  1 30  1  0
  1 31  1  0
  1 32  1  0
  2 33  1  0
  2 34  1  0
  3 35  1  6
  4 36  1  0
  4 37  1  0
  4 38  1  0
  5 39  1  0
  5 40  1  0
  6 41  1  0
  6 42  1  0
  7 43  1  0
 10 44  1  0
 11 45  1  0
 12 46  1  0
 13 47  1  0
 16 48  1  0
 16 49  1  0
 16 50  1  0
 18 51  1  0
 20 52  1  0
 20 53  1  0
 20 54  1  0
 23 55  1  0
 24 56  1  0
 25 57  1  0
 26 58  1  0
 27 59  1  0
 28 60  1  0
M  CHG  2   3   1  15   1
M  END
>  <UniqueID>  (11) 
11

>  <SMILES>  (11) 
CC[N@@H+](C)CCNc1c2ccccc2[n+](C)c2cc(C)c(-c3ccccc3)cc12

>  <Energy>  (11) 
98.00710028781086

>  <Genealogy>  (11) 
CC[NH+](C)CCNc1c2ccccc2[n+](C)c2cc(C)c(-c3ccccc3)cc12 (protonated)
CC[N@@H+](C)CCNc1c2ccccc2[n+](C)c2cc(C)c(-c3ccccc3)cc12 (chirality)
CC[N@@H+](C)CCNc1c2ccccc2[n+](C)c2cc(C)c(-c3ccccc3)cc12 (3D coordinates assigned)
CC[N@@H+](C)CCNc1c2ccccc2[n+](C)c2cc(C)c(-c3ccccc3)cc12 (optimized conformer: 98.00710028781086 kcal/mol)

>  <smiles>  (11) 
CCN(C)CCNc1c2ccccc2[n+](C)c2cc(C)c(-c3ccccc3)cc12

>  <score_type>  (11) 
oracle

>  <origin>  (11) 
adg

>  <m_score__min__energy>  (11) 
-5.4299999999999997

>  <m_primary>  (11) 
energy

$$$$
11:0
     RDKit          3D

 52 53  0  0  0  0  0  0  0  0999 V2000
   56.4560   29.7150   42.7620 C   0  0  0  0  0  0  0  0  0  0  0  0
   55.5410   29.9700   43.9570 C   0  0  0  0  0  0  0  0  0  0  0  0
   56.2250   29.6250   45.2130 N   0  0  0  0  0  0  0  0  0  0  0  0
   56.7010   28.2360   45.1970 C   0  0  0  0  0  0  0  0  0  0  0  0
   58.2060   28.2000   45.4840 C   0  0  0  0  0  0  0  0  0  0  0  0
   58.9490   29.4150   44.9040 C   0  0  0  0  0  0  0  0  0  0  0  0
   59.2030   30.4850   45.9520 C   0  0  0  0  0  0  0  0  0  0  0  0
   58.7890   31.8070   45.7340 C   0  0  0  0  0  0  0  0  0  0  0  0
   58.9530   32.7700   46.7010 C   0  0  0  0  0  0  0  0  0  0  0  0
   59.4990   32.4800   47.9280 N   0  0  0  0  0  0  0  0  0  0  0  0
   59.6330   33.5240   48.9720 C   0  0  0  0  0  0  0  0  0  0  0  0
   61.0140   34.2400   48.9640 C   0  0  0  0  0  0  0  0  0  0  0  0
   62.2030   33.3800   48.7360 N   0  0  0  0  0  0  0  0  0  0  0  0
   62.6540   33.3810   47.3330 C   0  0  0  0  0  0  0  0  0  0  0  0
   63.3140   33.6680   49.6610 C   0  0  0  0  0  0  0  0  0  0  0  0
   60.0060   31.2170   48.1430 C   0  0  0  0  0  0  0  0  0  0  0  0
   60.6440   30.9600   49.2030 O   0  0  0  0  0  0  0  0  0  0  0  0
   59.8440   30.1960   47.1800 C   0  0  0  0  0  0  0  0  0  0  0  0
   60.3560   28.8710   47.4600 C   0  0  0  0  0  0  0  0  0  0  0  0
   60.7660   27.8120   47.6840 N   0  0  0  0  0  0  0  0  0  0  0  0
   58.5030   34.1080   46.2200 C   0  0  0  0  0  0  0  0  0  0  0  0
   58.0400   33.8670   44.7750 C   0  0  0  0  0  0  0  0  0  0  0  0
   58.1800   32.3640   44.4950 C   0  0  0  0  0  0  0  0  0  0  0  0
   57.4578   29.4358   43.1203 H   0  0  0  0  0  0  0  0  0  0  0  0
   56.0436   28.8975   42.1523 H   0  0  0  0  0  0  0  0  0  0  0  0
   56.5259   30.6279   42.1523 H   0  0  0  0  0  0  0  0  0  0  0  0
   55.2607   31.0335   43.9778 H   0  0  0  0  0  0  0  0  0  0  0  0
   54.6428   29.3428   43.8573 H   0  0  0  0  0  0  0  0  0  0  0  0
   55.5270   29.7100   45.9900 H   0  0  0  0  0  0  0  0  0  0  0  0
   56.1684   27.6585   45.9670 H   0  0  0  0  0  0  0  0  0  0  0  0
   56.5094   27.7977   44.2065 H   0  0  0  0  0  0  0  0  0  0  0  0
   58.3563   28.1826   46.5735 H   0  0  0  0  0  0  0  0  0  0  0  0
   58.6149   27.2992   45.0029 H   0  0  0  0  0  0  0  0  0  0  0  0
   59.9150   29.0794   44.4988 H   0  0  0  0  0  0  0  0  0  0  0  0
   58.3168   29.8545   44.1184 H   0  0  0  0  0  0  0  0  0  0  0  0
   58.8491   34.2788   48.8114 H   0  0  0  0  0  0  0  0  0  0  0  0
   59.5365   33.0207   49.9453 H   0  0  0  0  0  0  0  0  0  0  0  0
   60.9926   34.9991   48.1682 H   0  0  0  0  0  0  0  0  0  0  0  0
   61.1380   34.6465   49.9786 H   0  0  0  0  0  0  0  0  0  0  0  0
   61.8940   32.4000   48.9450 H   0  0  0  0  0  0  0  0  0  0  0  0
   63.7535   33.3834   47.3013 H   0  0  0  0  0  0  0  0  0  0  0  0
   62.2745   32.4820   46.8252 H   0  0  0  0  0  0  0  0  0  0  0  0
   62.2706   34.2783   46.8252 H   0  0  0  0  0  0  0  0  0  0  0  0
   62.9604   33.5763   50.6986 H   0  0  0  0  0  0  0  0  0  0  0  0
   64.1307   32.9519   49.4873 H   0  0  0  0  0  0  0  0  0  0  0  0
   63.6800   34.6907   49.4873 H   0  0  0  0  0  0  0  0  0  0  0  0
   57.6724   34.4826   46.8362 H   0  0  0  0  0  0  0  0  0  0  0  0
   59.3011   34.8625   46.2811 H   0  0  0  0  0  0  0  0  0  0  0  0
   56.9903   34.1751   44.6598 H   0  0  0  0  0  0  0  0  0  0  0  0
   58.6470   34.4527   44.0689 H   0  0  0  0  0  0  0  0  0  0  0  0
   57.1955   31.9103   44.3082 H   0  0  0  0  0  0  0  0  0  0  0  0
   58.7898   32.1607   43.6023 H   0  0  0  0  0  0  0  0  0  0  0  0
  1  2  1  0
  2  3  1  0
  3  4  1  0
  4  5  1  0
  5  6  1  0
  6  7  1  0
  7  8  1  0
  8  9  2  0
  9 10  1  0
 10 11  1  0
 11 12  1  0
 12 13  1  0
 13 14  1  0
 13 15  1  0
 10 16  1  0
 16 17  2  0
 16 18  1  0
 18 19  1  0
 19 20  3  0
  9 21  1  0
 21 22  1  0
 22 23  1  0
 18  7  2  0
 23  8  1  0
  1 24  1  0
  1 25  1  0
  1 26  1  0
  2 27  1  0
  2 28  1  0
  3 29  1  0
  4 30  1  0
  4 31  1  0
  5 32  1  0
  5 33  1  0
  6 34  1  0
  6 35  1  0
 11 36  1  0
 11 37  1  0
 12 38  1  0
 12 39  1  0
 13 40  1  0
 14 41  1  0
 14 42  1  0
 14 43  1  0
 15 44  1  0
 15 45  1  0
 15 46  1  0
 21 47  1  0
 21 48  1  0
 22 49  1  0
 22 50  1  0
 23 51  1  0
 23 52  1  0
M  CHG  1  13   1
M  END
>  <UniqueID>  (12) 
12

>  <SMILES>  (12) 
CCNCCCc1c2c(n(CC[NH+](C)C)c(=O)c1C#N)CCC2

>  <Energy>  (12) 
60.7350085172202

>  <Genealogy>  (12) 
CCNCCCc1c2c(n(CC[NH+](C)C)c(=O)c1C#N)CCC2 (protonated)
CCNCCCc1c2c(n(CC[NH+](C)C)c(=O)c1C#N)CCC2 (3D coordinates assigned)
CCNCCCc1c2c(n(CC[NH+](C)C)c(=O)c1C#N)CCC2 (nonaromatic ring conformer: 60.7350085172202 kcal/mol)

>  <smiles>  (12) 
CCNCCCc1c2c(n(CCN(C)C)c(=O)c1C#N)CCC2

>  <score_type>  (12) 
oracle

>  <origin>  (12) 
adg

>  <m_score__min__energy>  (12) 
-5.5999999999999996

>  <m_primary>  (12) 
energy

$$$$
12:0
     RDKit          3D

 35 36  0  0  0  0  0  0  0  0999 V2000
   53.9909   29.2978   52.0852 H   0  0  0  0  0  0  0  0  0  0  0  0
   54.1820   30.2920   51.6550 C   0  0  0  0  0  0  0  0  0  0  0  0
   53.1830   30.9220   51.1070 N   0  0  0  0  0  0  0  0  0  0  0  0
   52.1160   31.5810   51.8020 C   0  0  0  0  0  0  0  0  0  0  0  0
   51.1100   32.3300   51.2190 C   0  0  0  0  0  0  0  0  0  0  0  0
   51.0490   32.6640   49.8730 O   0  0  0  0  0  0  0  0  0  0  0  0
   50.1710   32.7040   52.1210 N   0  0  0  0  0  0  0  0  0  0  0  0
   50.5900   32.1530   53.2790 C   0  0  0  0  0  0  0  0  0  0  0  0
   49.9370   32.2130   54.5100 C   0  0  0  0  0  0  0  0  0  0  0  0
   49.0063   32.7869   54.6301 H   0  0  0  0  0  0  0  0  0  0  0  0
   50.5040   31.5180   55.5930 C   0  0  0  0  0  0  0  0  0  0  0  0
   50.0177   31.5540   56.5790 H   0  0  0  0  0  0  0  0  0  0  0  0
   51.6930   30.7740   55.4250 C   0  0  0  0  0  0  0  0  0  0  0  0
   52.1232   30.2306   56.2791 H   0  0  0  0  0  0  0  0  0  0  0  0
   52.3300   30.7240   54.1720 C   0  0  0  0  0  0  0  0  0  0  0  0
   53.2475   30.1355   54.0240 H   0  0  0  0  0  0  0  0  0  0  0  0
   51.7600   31.4450   53.1240 C   0  0  0  0  0  0  0  0  0  0  0  0
   55.5850   30.8400   51.7370 C   0  0  0  0  0  0  0  0  0  0  0  0
   55.6476   31.5624   52.5642 H   0  0  0  0  0  0  0  0  0  0  0  0
   55.8366   31.3399   50.7900 H   0  0  0  0  0  0  0  0  0  0  0  0
   56.5390   29.7350   51.9760 N   0  0  0  0  0  0  0  0  0  0  0  0
   56.2720   29.0840   53.2800 C   0  0  0  0  0  0  0  0  0  0  0  0
   57.1930   28.6029   53.6408 H   0  0  0  0  0  0  0  0  0  0  0  0
   55.4804   28.3315   53.1490 H   0  0  0  0  0  0  0  0  0  0  0  0
   55.8100   30.1180   54.3030 C   0  0  0  0  0  0  0  0  0  0  0  0
   55.9826   29.7317   55.3184 H   0  0  0  0  0  0  0  0  0  0  0  0
   56.3772   31.0502   54.1640 H   0  0  0  0  0  0  0  0  0  0  0  0
   54.7372   30.3174   54.1640 H   0  0  0  0  0  0  0  0  0  0  0  0
   57.9360   30.2230   51.8970 C   0  0  0  0  0  0  0  0  0  0  0  0
   58.2006   30.7201   52.8419 H   0  0  0  0  0  0  0  0  0  0  0  0
   58.6043   29.3672   51.7210 H   0  0  0  0  0  0  0  0  0  0  0  0
   58.0870   31.2150   50.7470 C   0  0  0  0  0  0  0  0  0  0  0  0
   58.2409   32.2259   51.1526 H   0  0  0  0  0  0  0  0  0  0  0  0
   58.9524   30.9319   50.1298 H   0  0  0  0  0  0  0  0  0  0  0  0
   57.1766   31.2022   50.1298 H   0  0  0  0  0  0  0  0  0  0  0  0
  1  2  1  0
  2  3  2  0
  3  4  1  0
  4  5  2  0
  5  6  1  0
  5  7  1  0
  7  8  1  0
  8  9  2  0
  9 10  1  0
  9 11  1  0
 11 12  1  0
 11 13  2  0
 13 14  1  0
 13 15  1  0
 15 16  1  0
 15 17  2  0
  2 18  1  0
 18 19  1  0
 18 20  1  0
 18 21  1  0
 21 22  1  0
 22 23  1  0
 22 24  1  0
 22 25  1  0
 25 26  1  0
 25 27  1  0
 25 28  1  0
 21 29  1  0
 29 30  1  0
 29 31  1  0
 29 32  1  0
 32 33  1  0
 32 34  1  0
 32 35  1  0
 17  4  1  0
 17  8  1  0
M  CHG  2   6  -1   7  -1
M  END
>  <UniqueID>  (13) 
13

>  <SMILES>  (13) 
CCN(CC)C/C=N\c1c([O-])[n-]c2ccccc12

>  <Energy>  (13) 
74.89568385192968

>  <Genealogy>  (13) 
CCN(CC)CC=Nc1c([O-])[n-]c2ccccc12 (protonated)
CCN(CC)C/C=N\c1c([O-])[n-]c2ccccc12 (cis-trans isomerization)
CCN(CC)C/C=N\c1c([O-])[n-]c2ccccc12 (3D coordinates assigned)
CCN(CC)C/C=N\c1c([O-])[n-]c2ccccc12 (optimized conformer: 74.89568385192968 kcal/mol)

>  <smiles>  (13) 
CCN(CC)CC=Nc1c(O)[nH]c2ccccc12

>  <score_type>  (13) 
oracle

>  <origin>  (13) 
adg

>  <m_score__min__energy>  (13) 
-12.869999999999999

>  <m_primary>  (13) 
energy

$$$$
13:0
     RDKit          3D

 52 54  0  0  0  0  0  0  0  0999 V2000
   63.8940   31.9920   49.2880 C   0  0  0  0  0  0  0  0  0  0  0  0
   62.8450   32.6710   48.5090 N   0  0  0  0  0  0  0  0  0  0  0  0
   63.3060   32.8470   47.1200 C   0  0  0  0  0  0  0  0  0  0  0  0
   62.5050   33.9710   49.1300 C   0  0  0  0  0  0  0  0  0  0  0  0
   61.2530   33.8690   50.0260 C   0  0  0  0  0  0  0  0  0  0  0  0
   61.0360   32.5180   50.5700 N   0  0  0  0  0  0  0  0  0  0  0  0
   59.6130   32.1940   50.7430 C   0  0  0  0  0  0  0  0  0  0  0  0
   58.9550   31.9750   49.3770 C   0  0  0  0  0  0  0  0  0  0  0  0
   59.8990   31.3870   48.4120 N   0  0  0  0  0  0  0  0  0  0  0  0
   59.3920   31.5300   47.0550 C   0  0  0  0  0  0  0  0  0  0  0  0
   59.4110   32.7920   46.4040 C   0  0  0  0  0  0  0  0  0  0  0  0
   60.0300   33.9250   46.9900 C   0  0  0  0  0  0  0  0  0  0  0  0
   59.9540   35.1790   46.3900 C   0  0  0  0  0  0  0  0  0  0  0  0
   59.2650   35.3370   45.1960 C   0  0  0  0  0  0  0  0  0  0  0  0
   58.6960   34.2350   44.5690 C   0  0  0  0  0  0  0  0  0  0  0  0
   58.8030   32.9320   45.1250 C   0  0  0  0  0  0  0  0  0  0  0  0
   58.3200   31.8260   44.4560 N   0  0  0  0  0  0  0  0  0  0  0  0
   57.9710   31.9290   43.0190 C   0  0  0  0  0  0  0  0  0  0  0  0
   58.2170   30.6110   45.1030 C   0  0  0  0  0  0  0  0  0  0  0  0
   57.5040   29.5270   44.5260 C   0  0  0  0  0  0  0  0  0  0  0  0
   57.4840   28.2730   45.1260 C   0  0  0  0  0  0  0  0  0  0  0  0
   58.1660   28.0610   46.3180 C   0  0  0  0  0  0  0  0  0  0  0  0
   58.1750   26.4660   47.0470 Cl  0  0  0  0  0  0  0  0  0  0  0  0
   58.8240   29.1190   46.9410 C   0  0  0  0  0  0  0  0  0  0  0  0
   58.8160   30.4210   46.3790 C   0  0  0  0  0  0  0  0  0  0  0  0
   63.6946   32.1211   50.3621 H   0  0  0  0  0  0  0  0  0  0  0  0
   63.8975   30.9199   49.0419 H   0  0  0  0  0  0  0  0  0  0  0  0
   64.8735   32.4278   49.0419 H   0  0  0  0  0  0  0  0  0  0  0  0
   64.3337   33.2393   47.1217 H   0  0  0  0  0  0  0  0  0  0  0  0
   63.2845   31.8774   46.6009 H   0  0  0  0  0  0  0  0  0  0  0  0
   62.6438   33.5556   46.6009 H   0  0  0  0  0  0  0  0  0  0  0  0
   63.3549   34.3058   49.7428 H   0  0  0  0  0  0  0  0  0  0  0  0
   62.2909   34.6887   48.3244 H   0  0  0  0  0  0  0  0  0  0  0  0
   61.3666   34.5698   50.8662 H   0  0  0  0  0  0  0  0  0  0  0  0
   60.3824   34.1121   49.3991 H   0  0  0  0  0  0  0  0  0  0  0  0
   61.4780   31.8080   49.9410 H   0  0  0  0  0  0  0  0  0  0  0  0
   59.5186   31.2774   51.3438 H   0  0  0  0  0  0  0  0  0  0  0  0
   59.1124   33.0291   51.2549 H   0  0  0  0  0  0  0  0  0  0  0  0
   58.0979   31.2962   49.4977 H   0  0  0  0  0  0  0  0  0  0  0  0
   58.6291   32.9518   48.9900 H   0  0  0  0  0  0  0  0  0  0  0  0
   60.8440   31.8210   48.5060 H   0  0  0  0  0  0  0  0  0  0  0  0
   60.0830   30.3870   48.6470 H   0  0  0  0  0  0  0  0  0  0  0  0
   60.5802   33.8112   47.9357 H   0  0  0  0  0  0  0  0  0  0  0  0
   60.4404   36.0450   46.8627 H   0  0  0  0  0  0  0  0  0  0  0  0
   59.1691   36.3358   44.7452 H   0  0  0  0  0  0  0  0  0  0  0  0
   58.1518   34.3744   43.6232 H   0  0  0  0  0  0  0  0  0  0  0  0
   56.9204   32.2391   42.9181 H   0  0  0  0  0  0  0  0  0  0  0  0
   58.6210   32.6736   42.5363 H   0  0  0  0  0  0  0  0  0  0  0  0
   58.1126   30.9508   42.5363 H   0  0  0  0  0  0  0  0  0  0  0  0
   56.9562   29.6826   43.5849 H   0  0  0  0  0  0  0  0  0  0  0  0
   56.9279   27.4480   44.6568 H   0  0  0  0  0  0  0  0  0  0  0  0
   59.3592   28.9414   47.8855 H   0  0  0  0  0  0  0  0  0  0  0  0
  1  2  1  0
  2  3  1  0
  2  4  1  0
  4  5  1  0
  5  6  1  0
  6  7  1  0
  7  8  1  0
  8  9  1  0
  9 10  1  0
 10 11  2  0
 11 12  1  0
 12 13  2  0
 13 14  1  0
 14 15  2  0
 15 16  1  0
 16 17  2  0
 17 18  1  0
 17 19  1  0
 19 20  2  0
 20 21  1  0
 21 22  2  0
 22 23  1  0
 22 24  1  0
 24 25  2  0
 25 10  1  0
 16 11  1  0
 25 19  1  0
  1 26  1  0
  1 27  1  0
  1 28  1  0
  3 29  1  0
  3 30  1  0
  3 31  1  0
  4 32  1  0
  4 33  1  0
  5 34  1  0
  5 35  1  0
  6 36  1  0
  7 37  1  0
  7 38  1  0
  8 39  1  0
  8 40  1  0
  9 41  1  0
  9 42  1  0
 12 43  1  0
 13 44  1  0
 14 45  1  0
 15 46  1  0
 18 47  1  0
 18 48  1  0
 18 49  1  0
 20 50  1  0
 21 51  1  0
 24 52  1  0
M  CHG  2   9   1  17   1
M  END
>  <UniqueID>  (14) 
14

>  <SMILES>  (14) 
CN(C)CCNCC[NH2+]c1c2ccccc2[n+](C)c2ccc(Cl)cc12

>  <Energy>  (14) 
80.23842980618608

>  <Genealogy>  (14) 
CN(C)CCNCC[NH2+]c1c2ccccc2[n+](C)c2ccc(Cl)cc12 (protonated)
CN(C)CCNCC[NH2+]c1c2ccccc2[n+](C)c2ccc(Cl)cc12 (3D coordinates assigned)
CN(C)CCNCC[NH2+]c1c2ccccc2[n+](C)c2ccc(Cl)cc12 (optimized conformer: 80.23842980618608 kcal/mol)

>  <smiles>  (14) 
CN(C)CCNCCNc1c2ccccc2[n+](C)c2ccc(Cl)cc12

>  <score_type>  (14) 
oracle

>  <origin>  (14) 
adg

>  <m_score__min__energy>  (14) 
-3.77

>  <m_primary>  (14) 
energy

$$$$
14:0
     RDKit          3D

 53 55  0  0  0  0  0  0  0  0999 V2000
   56.6210   29.7890   43.3520 C   0  0  0  0  0  0  0  0  0  0  0  0
   57.0080   31.2230   43.7230 C   0  0  0  0  0  0  0  0  0  0  0  0
   56.6760   31.5560   45.1180 N   0  0  0  0  0  0  0  0  0  0  0  0
   57.2730   32.8280   45.5530 C   0  0  0  0  0  0  0  0  0  0  0  0
   58.5040   32.5640   46.4720 C   0  0  2  0  0  0  0  0  0  0  0  0
   59.7430   33.3550   45.9640 C   0  0  0  0  0  0  0  0  0  0  0  0
   60.7670   33.6030   47.0470 C   0  0  0  0  0  0  0  0  0  0  0  0
   60.3570   33.9900   48.3350 C   0  0  0  0  0  0  0  0  0  0  0  0
   61.3030   34.2070   49.3410 C   0  0  0  0  0  0  0  0  0  0  0  0
   62.6640   34.0480   49.0690 C   0  0  0  0  0  0  0  0  0  0  0  0
   63.0820   33.6760   47.7890 C   0  0  0  0  0  0  0  0  0  0  0  0
   62.1390   33.4570   46.7790 C   0  0  0  0  0  0  0  0  0  0  0  0
   58.7990   31.1100   46.6860 N   0  0  0  0  0  0  0  0  0  0  0  0
   59.6760   30.5650   45.6230 C   0  0  0  0  0  0  0  0  0  0  0  0
   59.7320   29.0350   45.7120 C   0  0  0  0  0  0  0  0  0  0  0  0
   59.9480   28.5950   47.0970 N   0  0  0  0  0  0  0  0  0  0  0  0
   59.9150   27.1890   47.4300 C   0  0  0  0  0  0  0  0  0  0  0  0
   60.0290   26.8200   48.6310 O   0  0  0  0  0  0  0  0  0  0  0  0
   59.6800   26.1440   46.3720 C   0  0  0  0  0  0  0  0  0  0  0  0
   58.3710   26.2710   45.6030 C   0  0  0  0  0  0  0  0  0  0  0  0
   58.5240   25.1990   46.6670 C   0  0  0  0  0  0  0  0  0  0  0  0
   60.2820   29.6040   48.1130 C   0  0  0  0  0  0  0  0  0  0  0  0
   59.2900   30.7830   48.0610 C   0  0  0  0  0  0  0  0  0  0  0  0
   56.4628   29.2029   44.2693 H   0  0  0  0  0  0  0  0  0  0  0  0
   55.6939   29.8009   42.7601 H   0  0  0  0  0  0  0  0  0  0  0  0
   57.4282   29.3329   42.7601 H   0  0  0  0  0  0  0  0  0  0  0  0
   58.0921   31.3434   43.5805 H   0  0  0  0  0  0  0  0  0  0  0  0
   56.4355   31.9013   43.0732 H   0  0  0  0  0  0  0  0  0  0  0  0
   55.6350   31.6100   45.2220 H   0  0  0  0  0  0  0  0  0  0  0  0
   57.5960   33.3978   44.6693 H   0  0  0  0  0  0  0  0  0  0  0  0
   56.5221   33.4000   46.1178 H   0  0  0  0  0  0  0  0  0  0  0  0
   58.2409   32.9413   47.4712 H   0  0  0  0  0  0  0  0  0  0  0  0
   60.2191   32.7803   45.1558 H   0  0  0  0  0  0  0  0  0  0  0  0
   59.3879   34.3358   45.6147 H   0  0  0  0  0  0  0  0  0  0  0  0
   59.2868   34.1226   48.5521 H   0  0  0  0  0  0  0  0  0  0  0  0
   60.9753   34.5034   50.3483 H   0  0  0  0  0  0  0  0  0  0  0  0
   63.4067   34.2158   49.8629 H   0  0  0  0  0  0  0  0  0  0  0  0
   64.1542   33.5551   47.5749 H   0  0  0  0  0  0  0  0  0  0  0  0
   62.4727   33.1694   45.7711 H   0  0  0  0  0  0  0  0  0  0  0  0
   57.8850   30.6110   46.5690 H   0  0  0  0  0  0  0  0  0  0  0  0
   59.2788   30.8570   44.6397 H   0  0  0  0  0  0  0  0  0  0  0  0
   60.6908   30.9686   45.7544 H   0  0  0  0  0  0  0  0  0  0  0  0
   58.7818   28.6185   45.3465 H   0  0  0  0  0  0  0  0  0  0  0  0
   60.5713   28.6790   45.0966 H   0  0  0  0  0  0  0  0  0  0  0  0
   60.7369   26.0309   46.0889 H   0  0  0  0  0  0  0  0  0  0  0  0
   57.7100   27.1320   45.7810 H   0  0  0  0  0  0  0  0  0  0  0  0
   58.0916   26.2762   44.5391 H   0  0  0  0  0  0  0  0  0  0  0  0
   57.9734   25.2835   47.6155 H   0  0  0  0  0  0  0  0  0  0  0  0
   58.4009   24.1062   46.6922 H   0  0  0  0  0  0  0  0  0  0  0  0
   60.2390   29.1402   49.1095 H   0  0  0  0  0  0  0  0  0  0  0  0
   61.2938   29.9856   47.9115 H   0  0  0  0  0  0  0  0  0  0  0  0
   58.4212   30.5310   48.6869 H   0  0  0  0  0  0  0  0  0  0  0  0
   59.8323   31.6691   48.4225 H   0  0  0  0  0  0  0  0  0  0  0  0
  1  2  1  0
  2  3  1  0
  3  4  1  0
  4  5  1  0
  5  6  1  0
  6  7  1  0
  7  8  2  0
  8  9  1  0
  9 10  2  0
 10 11  1  0
 11 12  2  0
  5 13  1  0
 13 14  1  0
 14 15  1  0
 15 16  1  0
 16 17  1  0
 17 18  2  0
 17 19  1  0
 19 20  1  0
 20 21  1  0
 16 22  1  0
 22 23  1  0
 12  7  1  0
 23 13  1  0
 21 19  1  0
  1 24  1  0
  1 25  1  0
  1 26  1  0
  2 27  1  0
  2 28  1  0
  3 29  1  0
  4 30  1  0
  4 31  1  0
  5 32  1  1
  6 33  1  0
  6 34  1  0
  8 35  1  0
  9 36  1  0
 10 37  1  0
 11 38  1  0
 12 39  1  0
 13 40  1  0
 14 41  1  0
 14 42  1  0
 15 43  1  0
 15 44  1  0
 19 45  1  0
 20 46  1  0
 20 47  1  0
 21 48  1  0
 21 49  1  0
 22 50  1  0
 22 51  1  0
 23 52  1  0
 23 53  1  0
M  CHG  1  13   1
M  END
>  <UniqueID>  (15) 
15

>  <SMILES>  (15) 
CCNC[C@H](Cc1ccccc1)[NH+]1CCN(C(=O)C2CC2)CC1

>  <Energy>  (15) 
325.35706850683005

>  <Genealogy>  (15) 
CCNCC(Cc1ccccc1)[NH+]1CCN(C(=O)C2CC2)CC1 (protonated)
CCNC[C@H](Cc1ccccc1)[NH+]1CCN(C(=O)C2CC2)CC1 (chirality)
CCNC[C@H](Cc1ccccc1)[NH+]1CCN(C(=O)C2CC2)CC1 (3D coordinates assigned)
CCNC[C@H](Cc1ccccc1)[NH+]1CCN(C(=O)C2CC2)CC1 (nonaromatic ring conformer: 325.35706850683005 kcal/mol)

>  <smiles>  (15) 
CCNCC(Cc1ccccc1)N1CCN(C(=O)C2CC2)CC1

>  <score_type>  (15) 
oracle

>  <origin>  (15) 
adg

>  <m_score__min__energy>  (15) 
-5.29

>  <m_primary>  (15) 
energy

$$$$
15:0
     RDKit          3D

 33 34  0  0  1  0  0  0  0  0999 V2000
   63.2400   33.8410   46.4900 C   0  0  0  0  0  0  0  0  0  0  0  0
   63.0250   33.6840   47.9620 C   0  0  0  0  0  0  0  0  0  0  0  0
   61.6750   33.2180   48.2950 N   0  0  0  0  0  0  0  0  0  0  0  0
   61.1040   32.2670   47.5980 C   0  0  0  0  0  0  0  0  0  0  0  0
   59.9140   32.5350   47.0420 N   0  0  0  0  0  0  0  0  0  0  0  0
   59.2970   31.5930   46.3230 C   0  0  0  0  0  0  0  0  0  0  0  0
   59.9080   30.3530   46.1680 C   0  0  0  0  0  0  0  0  0  0  0  0
   61.1370   30.1350   46.7650 C   0  0  0  0  0  0  0  0  0  0  0  0
   61.7440   31.0980   47.4860 N   0  0  0  0  0  0  0  0  0  0  0  0
   59.2810   29.4080   45.4420 N   0  0  0  0  0  0  0  0  0  0  0  0
   58.0850   29.6170   44.8610 C   0  0  0  0  0  0  0  0  0  0  0  0
   57.4060   28.5600   44.0620 C   0  0  0  0  0  0  0  0  0  0  0  0
   57.5010   30.8680   45.0350 C   0  0  0  0  0  0  0  0  0  0  0  0
   56.3860   31.0890   44.5050 O   0  0  0  0  0  0  0  0  0  0  0  0
   58.0840   31.8450   45.7500 N   0  0  0  0  0  0  0  0  0  0  0  0
   57.5230   33.1500   45.9580 C   0  0  0  0  0  0  0  0  0  0  0  0
   58.0630   34.1670   44.9690 C   0  0  0  0  0  0  0  0  0  0  0  0
   59.1210   34.9760   45.5560 C   0  0  0  0  0  0  0  0  0  0  0  0
   59.9840   35.6340   46.0110 N   0  0  0  0  0  0  0  0  0  0  0  0
   64.1169   34.4813   46.3138 H   0  0  0  0  0  0  0  0  0  0  0  0
   63.4103   32.8532   46.0369 H   0  0  0  0  0  0  0  0  0  0  0  0
   62.3509   34.3039   46.0369 H   0  0  0  0  0  0  0  0  0  0  0  0
   63.7530   32.9549   48.3473 H   0  0  0  0  0  0  0  0  0  0  0  0
   63.1552   34.6746   48.4221 H   0  0  0  0  0  0  0  0  0  0  0  0
   61.6277   29.1574   46.6489 H   0  0  0  0  0  0  0  0  0  0  0  0
   62.6660   30.8770   47.9110 H   0  0  0  0  0  0  0  0  0  0  0  0
   56.9380   27.8314   44.7403 H   0  0  0  0  0  0  0  0  0  0  0  0
   56.6335   29.0192   43.4277 H   0  0  0  0  0  0  0  0  0  0  0  0
   58.1448   28.0484   43.4277 H   0  0  0  0  0  0  0  0  0  0  0  0
   56.4307   33.0890   45.8435 H   0  0  0  0  0  0  0  0  0  0  0  0
   57.8000   33.4808   46.9699 H   0  0  0  0  0  0  0  0  0  0  0  0
   58.4642   33.6354   44.0936 H   0  0  0  0  0  0  0  0  0  0  0  0
   57.2392   34.8358   44.6791 H   0  0  0  0  0  0  0  0  0  0  0  0
  1  2  1  0
  2  3  1  0
  3  4  2  0
  4  5  1  0
  5  6  2  0
  6  7  1  0
  7  8  2  0
  8  9  1  0
  7 10  1  0
 10 11  2  0
 11 12  1  0
 11 13  1  0
 13 14  2  0
 13 15  1  0
 15 16  1  0
 16 17  1  0
 17 18  1  0
 18 19  3  0
  9  4  1  0
 15  6  1  0
  1 20  1  0
  1 21  1  0
  1 22  1  0
  2 23  1  0
  2 24  1  0
  8 25  1  0
  9 26  1  0
 12 27  1  0
 12 28  1  0
 12 29  1  0
 16 30  1  0
 16 31  1  0
 17 32  1  0
 17 33  1  0
M  END
>  <smiles>  (16) 
CCN=c1nc2c(c[nH]1)nc(C)c(=O)n2CCC#N

>  <score_type>  (16) 
oracle

>  <origin>  (16) 
adg

>  <m_score__min__energy>  (16) 
-5.4900000000000002

>  <m_primary>  (16) 
energy

$$$$
16:0
     RDKit          3D

 38 37  0  0  0  0  0  0  0  0999 V2000
   59.7120   31.1510   48.1060 C   0  0  0  0  0  0  0  0  0  0  0  0
   58.9010   29.8680   47.8900 C   0  0  0  0  0  0  0  0  0  0  0  0
   58.7460   29.5380   46.4470 N   0  0  0  0  0  0  0  0  0  0  0  0
   59.9760   29.8320   45.6630 C   0  0  0  0  0  0  0  0  0  0  0  0
   60.5490   28.6360   44.9000 C   0  0  0  0  0  0  0  0  0  0  0  0
   58.1490   28.2020   46.1270 C   0  0  0  0  0  0  0  0  0  0  0  0
   56.9170   28.1770   45.1940 C   0  0  0  0  0  0  0  0  0  0  0  0
   56.2120   29.3970   45.2430 O   0  0  0  0  0  0  0  0  0  0  0  0
   55.7690   29.7440   43.9460 C   0  0  0  0  0  0  0  0  0  0  0  0
   56.9400   30.3000   43.1320 C   0  0  0  0  0  0  0  0  0  0  0  0
   57.4710   31.6300   43.6880 C   0  0  0  0  0  0  0  0  0  0  0  0
   57.1530   31.7850   45.1150 N   0  0  0  0  0  0  0  0  0  0  0  0
   57.3370   33.1690   45.5610 C   0  0  0  0  0  0  0  0  0  0  0  0
   59.8279   31.3343   49.1844 H   0  0  0  0  0  0  0  0  0  0  0  0
   60.7042   31.0397   47.6443 H   0  0  0  0  0  0  0  0  0  0  0  0
   59.1858   31.9995   47.6443 H   0  0  0  0  0  0  0  0  0  0  0  0
   59.4158   29.0348   48.3908 H   0  0  0  0  0  0  0  0  0  0  0  0
   57.8970   30.0280   48.3099 H   0  0  0  0  0  0  0  0  0  0  0  0
   58.0620   30.2390   46.0720 H   0  0  0  0  0  0  0  0  0  0  0  0
   59.7375   30.6209   44.9344 H   0  0  0  0  0  0  0  0  0  0  0  0
   60.7439   30.1329   46.3909 H   0  0  0  0  0  0  0  0  0  0  0  0
   60.9098   27.8830   45.6161 H   0  0  0  0  0  0  0  0  0  0  0  0
   59.7646   28.1945   44.2677 H   0  0  0  0  0  0  0  0  0  0  0  0
   61.3846   28.9706   44.2677 H   0  0  0  0  0  0  0  0  0  0  0  0
   58.9342   27.5951   45.6525 H   0  0  0  0  0  0  0  0  0  0  0  0
   57.7791   27.8218   47.0906 H   0  0  0  0  0  0  0  0  0  0  0  0
   57.2528   27.9985   44.1618 H   0  0  0  0  0  0  0  0  0  0  0  0
   56.2443   27.3737   45.5290 H   0  0  0  0  0  0  0  0  0  0  0  0
   55.3675   28.8505   43.4456 H   0  0  0  0  0  0  0  0  0  0  0  0
   54.9827   30.5095   44.0224 H   0  0  0  0  0  0  0  0  0  0  0  0
   57.7568   29.5633   43.1423 H   0  0  0  0  0  0  0  0  0  0  0  0
   56.5749   30.4889   42.1117 H   0  0  0  0  0  0  0  0  0  0  0  0
   58.5632   31.6598   43.5603 H   0  0  0  0  0  0  0  0  0  0  0  0
   56.9887   32.4507   43.1367 H   0  0  0  0  0  0  0  0  0  0  0  0
   56.1400   31.5530   45.2450 H   0  0  0  0  0  0  0  0  0  0  0  0
   57.3414   33.2024   46.6605 H   0  0  0  0  0  0  0  0  0  0  0  0
   58.2941   33.5533   45.1786 H   0  0  0  0  0  0  0  0  0  0  0  0
   56.5135   33.7900   45.1786 H   0  0  0  0  0  0  0  0  0  0  0  0
  1  2  1  0
  2  3  1  0
  3  4  1  0
  4  5  1  0
  3  6  1  0
  6  7  1  0
  7  8  1  0
  8  9  1  0
  9 10  1  0
 10 11  1  0
 11 12  1  0
 12 13  1  0
  1 14  1  0
  1 15  1  0
  1 16  1  0
  2 17  1  0
  2 18  1  0
  3 19  1  0
  4 20  1  0
  4 21  1  0
  5 22  1  0
  5 23  1  0
  5 24  1  0
  6 25  1  0
  6 26  1  0
  7 27  1  0
  7 28  1  0
  9 29  1  0
  9 30  1  0
 10 31  1  0
 10 32  1  0
 11 33  1  0
 11 34  1  0
 12 35  1  0
 13 36  1  0
 13 37  1  0
 13 38  1  0
M  CHG  1   3   1
M  END
>  <UniqueID>  (17) 
16

>  <SMILES>  (17) 
CC[NH+](CC)CCOCCCNC

>  <Energy>  (17) 
37.587717388867176

>  <Genealogy>  (17) 
CC[NH+](CC)CCOCCCNC (protonated)
CC[NH+](CC)CCOCCCNC (3D coordinates assigned)
CC[NH+](CC)CCOCCCNC (optimized conformer: 37.587717388867176 kcal/mol)

>  <smiles>  (17) 
CCN(CC)CCOCCCNC

>  <score_type>  (17) 
oracle

>  <origin>  (17) 
adg

>  <m_score__min__energy>  (17) 
-2.54

>  <m_primary>  (17) 
energy

$$$$
17:0
     RDKit          3D

 53 55  0  0  0  0  0  0  0  0999 V2000
   62.3230   34.2200   50.5460 C   0  0  0  0  0  0  0  0  0  0  0  0
   63.0090   34.0170   49.1880 C   0  0  0  0  0  0  0  0  0  0  0  0
   63.3130   32.6010   48.8660 N   0  0  0  0  0  0  0  0  0  0  0  0
   63.6110   32.3570   47.4350 C   0  0  0  0  0  0  0  0  0  0  0  0
   63.3660   33.6010   46.5830 C   0  0  0  0  0  0  0  0  0  0  0  0
   64.3560   32.0310   49.7490 C   0  0  0  0  0  0  0  0  0  0  0  0
   63.7070   31.1540   50.8260 C   0  0  0  0  0  0  0  0  0  0  0  0
   62.5580   30.4100   50.2840 N   0  0  0  0  0  0  0  0  0  0  0  0
   61.2920   30.7010   50.9770 C   0  0  0  0  0  0  0  0  0  0  0  0
   60.3120   31.4270   50.0940 C   0  0  0  0  0  0  0  0  0  0  0  0
   60.6280   31.9880   48.9130 N   0  0  0  0  0  0  0  0  0  0  0  0
   59.4780   32.5490   48.4850 C   0  0  0  0  0  0  0  0  0  0  0  0
   59.3240   33.2650   47.2010 C   0  0  0  0  0  0  0  0  0  0  0  0
   59.7860   34.5900   47.1380 C   0  0  0  0  0  0  0  0  0  0  0  0
   59.6090   35.3530   45.9840 C   0  0  0  0  0  0  0  0  0  0  0  0
   58.9750   34.8050   44.8710 C   0  0  0  0  0  0  0  0  0  0  0  0
   58.5340   33.4740   44.8910 C   0  0  0  0  0  0  0  0  0  0  0  0
   57.9220   32.9200   43.7550 C   0  0  0  0  0  0  0  0  0  0  0  0
   57.5200   31.5850   43.7520 C   0  0  0  0  0  0  0  0  0  0  0  0
   57.7330   30.7880   44.8750 C   0  0  0  0  0  0  0  0  0  0  0  0
   58.3340   31.3230   46.0170 C   0  0  0  0  0  0  0  0  0  0  0  0
   58.7200   32.6810   46.0560 C   0  0  0  0  0  0  0  0  0  0  0  0
   58.4870   32.3480   49.3280 O   0  0  0  0  0  0  0  0  0  0  0  0
   58.9740   31.6650   50.3390 C   0  0  0  0  0  0  0  0  0  0  0  0
   58.1810   31.2410   51.5310 C   0  0  0  0  0  0  0  0  0  0  0  0
   63.0390   34.0081   51.3538 H   0  0  0  0  0  0  0  0  0  0  0  0
   61.9741   35.2599   50.6287 H   0  0  0  0  0  0  0  0  0  0  0  0
   61.4643   33.5375   50.6287 H   0  0  0  0  0  0  0  0  0  0  0  0
   62.3473   34.4146   48.4044 H   0  0  0  0  0  0  0  0  0  0  0  0
   63.9734   34.5437   49.2391 H   0  0  0  0  0  0  0  0  0  0  0  0
   64.6657   32.0605   47.3367 H   0  0  0  0  0  0  0  0  0  0  0  0
   62.9409   31.5612   47.0777 H   0  0  0  0  0  0  0  0  0  0  0  0
   63.1954   34.4671   47.2393 H   0  0  0  0  0  0  0  0  0  0  0  0
   64.2443   33.7894   45.9481 H   0  0  0  0  0  0  0  0  0  0  0  0
   62.4819   33.4423   45.9481 H   0  0  0  0  0  0  0  0  0  0  0  0
   65.0474   31.4205   49.1496 H   0  0  0  0  0  0  0  0  0  0  0  0
   64.9072   32.8504   50.2335 H   0  0  0  0  0  0  0  0  0  0  0  0
   64.4523   30.4384   51.2035 H   0  0  0  0  0  0  0  0  0  0  0  0
   63.3496   31.8051   51.6374 H   0  0  0  0  0  0  0  0  0  0  0  0
   62.4470   30.6560   49.2710 H   0  0  0  0  0  0  0  0  0  0  0  0
   60.8401   29.7522   51.3019 H   0  0  0  0  0  0  0  0  0  0  0  0
   61.5191   31.3516   51.8344 H   0  0  0  0  0  0  0  0  0  0  0  0
   61.5530   31.9690   48.4290 H   0  0  0  0  0  0  0  0  0  0  0  0
   60.2932   35.0309   48.0088 H   0  0  0  0  0  0  0  0  0  0  0  0
   59.9713   36.3912   45.9525 H   0  0  0  0  0  0  0  0  0  0  0  0
   58.8196   35.4195   43.9720 H   0  0  0  0  0  0  0  0  0  0  0  0
   57.7589   33.5425   42.8629 H   0  0  0  0  0  0  0  0  0  0  0  0
   57.0338   31.1601   42.8615 H   0  0  0  0  0  0  0  0  0  0  0  0
   57.4262   29.7317   44.8622 H   0  0  0  0  0  0  0  0  0  0  0  0
   58.5081   30.6812   46.8932 H   0  0  0  0  0  0  0  0  0  0  0  0
   58.7164   31.5273   52.4483 H   0  0  0  0  0  0  0  0  0  0  0  0
   57.1977   31.7337   51.5114 H   0  0  0  0  0  0  0  0  0  0  0  0
   58.0447   30.1497   51.5114 H   0  0  0  0  0  0  0  0  0  0  0  0
  1  2  1  0
  2  3  1  0
  3  4  1  0
  4  5  1  0
  3  6  1  0
  6  7  1  0
  7  8  1  0
  8  9  1  0
  9 10  1  0
 10 11  1  0
 11 12  2  0
 12 13  1  0
 13 14  2  0
 14 15  1  0
 15 16  2  0
 16 17  1  0
 17 18  2  0
 18 19  1  0
 19 20  2  0
 20 21  1  0
 21 22  2  0
 12 23  1  0
 23 24  1  0
 24 25  1  0
 24 10  2  0
 22 13  1  0
 22 17  1  0
  1 26  1  0
  1 27  1  0
  1 28  1  0
  2 29  1  0
  2 30  1  0
  4 31  1  0
  4 32  1  0
  5 33  1  0
  5 34  1  0
  5 35  1  0
  6 36  1  0
  6 37  1  0
  7 38  1  0
  7 39  1  0
  8 40  1  0
  9 41  1  0
  9 42  1  0
 11 43  1  0
 14 44  1  0
 15 45  1  0
 16 46  1  0
 18 47  1  0
 19 48  1  0
 20 49  1  0
 21 50  1  0
 25 51  1  0
 25 52  1  0
 25 53  1  0
M  CHG  1  11   1
M  END
>  <UniqueID>  (18) 
17

>  <SMILES>  (18) 
CCN(CC)CCNCc1[nH+]c(-c2cccc3ccccc23)oc1C

>  <Energy>  (18) 
94.17963520454782

>  <Genealogy>  (18) 
CCN(CC)CCNCc1[nH+]c(-c2cccc3ccccc23)oc1C (protonated)
CCN(CC)CCNCc1[nH+]c(-c2cccc3ccccc23)oc1C (3D coordinates assigned)
CCN(CC)CCNCc1[nH+]c(-c2cccc3ccccc23)oc1C (optimized conformer: 94.17963520454782 kcal/mol)

>  <smiles>  (18) 
CCN(CC)CCNCc1nc(-c2cccc3ccccc23)oc1C

>  <score_type>  (18) 
oracle

>  <origin>  (18) 
adg

>  <m_score__min__energy>  (18) 
-6.1399999999999997

>  <m_primary>  (18) 
energy

$$$$
18:0
     RDKit          3D

 70 73  0  0  0  0  0  0  0  0999 V2000
   56.8660   30.7020   52.2250 C   0  0  0  0  0  0  0  0  0  0  0  0
   57.9790   30.9380   51.2030 C   0  0  0  0  0  0  0  0  0  0  0  0
   59.1980   30.1420   51.5140 N   0  0  2  0  0  0  0  0  0  0  0  0
   60.2470   31.0150   52.0760 C   0  0  0  0  0  0  0  0  0  0  0  0
   59.7110   29.4520   50.3030 C   0  0  0  0  0  0  0  0  0  0  0  0
   58.6450   29.3830   49.1960 C   0  0  0  0  0  0  0  0  0  0  0  0
   59.2220   29.6890   47.8830 N   0  0  0  0  0  0  0  0  0  0  0  0
   58.7920   30.8120   47.0930 C   0  0  0  0  0  0  0  0  0  0  0  0
   58.1720   30.5960   45.8500 C   0  0  0  0  0  0  0  0  0  0  0  0
   57.9590   29.2860   45.3700 C   0  0  0  0  0  0  0  0  0  0  0  0
   57.4140   29.0710   44.1060 C   0  0  0  0  0  0  0  0  0  0  0  0
   57.0830   30.1510   43.2980 C   0  0  0  0  0  0  0  0  0  0  0  0
   57.2650   31.4540   43.7600 C   0  0  0  0  0  0  0  0  0  0  0  0
   57.7770   31.7070   45.0590 C   0  0  0  0  0  0  0  0  0  0  0  0
   57.9120   32.9920   45.5500 N   0  0  0  0  0  0  0  0  0  0  0  0
   57.2440   34.1180   44.8590 C   0  0  0  0  0  0  0  0  0  0  0  0
   58.6310   33.2190   46.7090 C   0  0  0  0  0  0  0  0  0  0  0  0
   58.9980   34.5260   47.1140 C   0  0  0  0  0  0  0  0  0  0  0  0
   59.6630   34.7490   48.3190 C   0  0  0  0  0  0  0  0  0  0  0  0
   59.9960   33.6870   49.1520 C   0  0  0  0  0  0  0  0  0  0  0  0
   60.6890   33.9640   50.3380 O   0  0  0  0  0  0  0  0  0  0  0  0
   62.1060   34.1050   50.4270 C   0  0  0  0  0  0  0  0  0  0  0  0
   62.7950   32.7540   50.1440 C   0  0  0  0  0  0  0  0  0  0  0  0
   63.7990   32.7580   49.0260 N   0  0  0  0  0  0  0  0  0  0  0  0
   65.1900   32.7270   49.5410 C   0  0  0  0  0  0  0  0  0  0  0  0
   63.5950   33.9150   48.1170 C   0  0  0  0  0  0  0  0  0  0  0  0
   62.6020   33.4950   47.0370 C   0  0  0  0  0  0  0  0  0  0  0  0
   62.5150   31.9830   47.1250 C   0  0  0  0  0  0  0  0  0  0  0  0
   63.5610   31.5820   48.1540 C   0  0  0  0  0  0  0  0  0  0  0  0
   59.6530   32.3830   48.7700 C   0  0  0  0  0  0  0  0  0  0  0  0
   59.0300   32.1300   47.5280 C   0  0  0  0  0  0  0  0  0  0  0  0
   57.2771   30.7892   53.2415 H   0  0  0  0  0  0  0  0  0  0  0  0
   56.0739   31.4522   52.0843 H   0  0  0  0  0  0  0  0  0  0  0  0
   56.4465   29.6949   52.0843 H   0  0  0  0  0  0  0  0  0  0  0  0
   57.6125   30.6519   50.2061 H   0  0  0  0  0  0  0  0  0  0  0  0
   58.2507   32.0034   51.2357 H   0  0  0  0  0  0  0  0  0  0  0  0
   58.9800   29.4170   52.2420 H   0  0  0  0  0  0  0  0  0  0  0  0
   60.2041   30.9793   53.1746 H   0  0  0  0  0  0  0  0  0  0  0  0
   61.2339   30.6678   51.7361 H   0  0  0  0  0  0  0  0  0  0  0  0
   60.0849   32.0485   51.7361 H   0  0  0  0  0  0  0  0  0  0  0  0
   60.5853   30.0008   49.9229 H   0  0  0  0  0  0  0  0  0  0  0  0
   59.9836   28.4236   50.5826 H   0  0  0  0  0  0  0  0  0  0  0  0
   58.2175   28.3698   49.1725 H   0  0  0  0  0  0  0  0  0  0  0  0
   57.8663   30.1281   49.4160 H   0  0  0  0  0  0  0  0  0  0  0  0
   60.0290   29.1200   47.5430 H   0  0  0  0  0  0  0  0  0  0  0  0
   58.2262   28.4253   46.0008 H   0  0  0  0  0  0  0  0  0  0  0  0
   57.2457   28.0447   43.7476 H   0  0  0  0  0  0  0  0  0  0  0  0
   56.6761   29.9780   42.2908 H   0  0  0  0  0  0  0  0  0  0  0  0
   57.0073   32.3003   43.1063 H   0  0  0  0  0  0  0  0  0  0  0  0
   56.8316   34.8132   45.6050 H   0  0  0  0  0  0  0  0  0  0  0  0
   57.9745   34.6470   44.2293 H   0  0  0  0  0  0  0  0  0  0  0  0
   56.4296   33.7305   44.2293 H   0  0  0  0  0  0  0  0  0  0  0  0
   58.7538   35.3806   46.4659 H   0  0  0  0  0  0  0  0  0  0  0  0
   59.9268   35.7755   48.6135 H   0  0  0  0  0  0  0  0  0  0  0  0
   62.4443   34.8470   49.6888 H   0  0  0  0  0  0  0  0  0  0  0  0
   62.3705   34.4370   51.4418 H   0  0  0  0  0  0  0  0  0  0  0  0
   63.3125   32.4393   51.0622 H   0  0  0  0  0  0  0  0  0  0  0  0
   61.9948   32.0691   49.8269 H   0  0  0  0  0  0  0  0  0  0  0  0
   65.1739   32.7274   50.6409 H   0  0  0  0  0  0  0  0  0  0  0  0
   65.6937   31.8174   49.1820 H   0  0  0  0  0  0  0  0  0  0  0  0
   65.7338   33.6133   49.1820 H   0  0  0  0  0  0  0  0  0  0  0  0
   63.1928   34.7682   48.6829 H   0  0  0  0  0  0  0  0  0  0  0  0
   64.5498   34.2175   47.6623 H   0  0  0  0  0  0  0  0  0  0  0  0
   61.6171   33.9474   47.2247 H   0  0  0  0  0  0  0  0  0  0  0  0
   62.9241   33.8257   46.0386 H   0  0  0  0  0  0  0  0  0  0  0  0
   61.5121   31.6729   47.4536 H   0  0  0  0  0  0  0  0  0  0  0  0
   62.6921   31.5038   46.1508 H   0  0  0  0  0  0  0  0  0  0  0  0
   63.1931   30.7370   48.7545 H   0  0  0  0  0  0  0  0  0  0  0  0
   64.4928   31.2703   47.6595 H   0  0  0  0  0  0  0  0  0  0  0  0
   59.8722   31.5444   49.4473 H   0  0  0  0  0  0  0  0  0  0  0  0
  1  2  1  0
  2  3  1  0
  3  4  1  0
  3  5  1  0
  5  6  1  0
  6  7  1  0
  7  8  1  0
  8  9  2  0
  9 10  1  0
 10 11  2  0
 11 12  1  0
 12 13  2  0
 13 14  1  0
 14 15  2  0
 15 16  1  0
 15 17  1  0
 17 18  2  0
 18 19  1  0
 19 20  2  0
 20 21  1  0
 21 22  1  0
 22 23  1  0
 23 24  1  0
 24 25  1  0
 24 26  1  0
 26 27  1  0
 27 28  1  0
 28 29  1  0
 20 30  1  0
 30 31  2  0
 31  8  1  0
 14  9  1  0
 31 17  1  0
 29 24  1  0
  1 32  1  0
  1 33  1  0
  1 34  1  0
  2 35  1  0
  2 36  1  0
  3 37  1  1
  4 38  1  0
  4 39  1  0
  4 40  1  0
  5 41  1  0
  5 42  1  0
  6 43  1  0
  6 44  1  0
  7 45  1  0
 10 46  1  0
 11 47  1  0
 12 48  1  0
 13 49  1  0
 16 50  1  0
 16 51  1  0
 16 52  1  0
 18 53  1  0
 19 54  1  0
 22 55  1  0
 22 56  1  0
 23 57  1  0
 23 58  1  0
 25 59  1  0
 25 60  1  0
 25 61  1  0
 26 62  1  0
 26 63  1  0
 27 64  1  0
 27 65  1  0
 28 66  1  0
 28 67  1  0
 29 68  1  0
 29 69  1  0
 30 70  1  0
M  CHG  3   3   1  15   1  24   1
M  END
>  <UniqueID>  (19) 
18

>  <SMILES>  (19) 
CC[N@H+](C)CCNc1c2ccccc2[n+](C)c2ccc(OCC[N+]3(C)CCCC3)cc12

>  <Energy>  (19) 
108.61989764768695

>  <Genealogy>  (19) 
CC[NH+](C)CCNc1c2ccccc2[n+](C)c2ccc(OCC[N+]3(C)CCCC3)cc12 (protonated)
CC[N@H+](C)CCNc1c2ccccc2[n+](C)c2ccc(OCC[N+]3(C)CCCC3)cc12 (chirality)
CC[N@H+](C)CCNc1c2ccccc2[n+](C)c2ccc(OCC[N+]3(C)CCCC3)cc12 (3D coordinates assigned)
CC[N@H+](C)CCNc1c2ccccc2[n+](C)c2ccc(OCC[N+]3(C)CCCC3)cc12 (nonaromatic ring conformer: 108.61989764768695 kcal/mol)

>  <smiles>  (19) 
CCN(C)CCNc1c2ccccc2[n+](C)c2ccc(OCC[N+]3(C)CCCC3)cc12

>  <score_type>  (19) 
oracle

>  <origin>  (19) 
adg

>  <m_score__min__energy>  (19) 
-3.8100000000000001

>  <m_primary>  (19) 
energy

$$$$
19:0
     RDKit          3D

 60 61  0  0  0  0  0  0  0  0999 V2000
   63.4850   33.1990   47.0810 C   0  0  0  0  0  0  0  0  0  0  0  0
   62.1530   33.6850   47.6500 C   0  0  0  0  0  0  0  0  0  0  0  0
   61.6340   32.6940   48.6230 N   0  0  0  0  0  0  0  0  0  0  0  0
   62.4290   31.4480   48.6990 C   0  0  0  0  0  0  0  0  0  0  0  0
   62.4340   30.8700   50.1150 C   0  0  0  0  0  0  0  0  0  0  0  0
   61.3280   33.2710   49.9590 C   0  0  0  0  0  0  0  0  0  0  0  0
   59.9030   33.8420   50.1180 C   0  0  0  0  0  0  0  0  0  0  0  0
   58.9470   32.8000   50.1070 O   0  0  0  0  0  0  0  0  0  0  0  0
   58.9960   32.0910   51.3250 C   0  0  0  0  0  0  0  0  0  0  0  0
   57.6870   31.3370   51.5240 C   0  0  0  0  0  0  0  0  0  0  0  0
   57.7520   30.0930   50.8540 O   0  0  0  0  0  0  0  0  0  0  0  0
   59.0960   29.7330   50.5960 C   0  0  0  0  0  0  0  0  0  0  0  0
   59.3040   29.4200   49.1050 C   0  0  0  0  0  0  0  0  0  0  0  0
   59.3950   30.6530   48.3160 N   0  0  0  0  0  0  0  0  0  0  0  0
   58.9270   30.7760   46.9570 C   0  0  0  0  0  0  0  0  0  0  0  0
   58.6510   29.6230   46.2170 C   0  0  0  0  0  0  0  0  0  0  0  0
   58.1050   29.7130   44.9460 C   0  0  0  0  0  0  0  0  0  0  0  0
   57.8300   30.9230   44.3690 N   0  0  0  0  0  0  0  0  0  0  0  0
   57.2200   30.8990   43.0230 C   0  0  0  0  0  0  0  0  0  0  0  0
   56.2720   29.7100   42.8800 C   0  0  0  0  0  0  0  0  0  0  0  0
   58.0870   32.0950   45.0610 C   0  0  0  0  0  0  0  0  0  0  0  0
   57.7920   33.3680   44.5080 C   0  0  0  0  0  0  0  0  0  0  0  0
   58.0840   34.5400   45.2070 C   0  0  0  0  0  0  0  0  0  0  0  0
   58.6780   34.4780   46.4620 C   0  0  0  0  0  0  0  0  0  0  0  0
   58.9680   33.2440   47.0430 C   0  0  0  0  0  0  0  0  0  0  0  0
   58.6590   32.0400   46.3690 C   0  0  0  0  0  0  0  0  0  0  0  0
   64.1675   32.9500   47.9069 H   0  0  0  0  0  0  0  0  0  0  0  0
   63.3154   32.3048   46.4632 H   0  0  0  0  0  0  0  0  0  0  0  0
   63.9311   33.9923   46.4632 H   0  0  0  0  0  0  0  0  0  0  0  0
   62.3018   34.6505   48.1556 H   0  0  0  0  0  0  0  0  0  0  0  0
   61.4289   33.8049   46.8307 H   0  0  0  0  0  0  0  0  0  0  0  0
   61.9965   30.7059   48.0118 H   0  0  0  0  0  0  0  0  0  0  0  0
   63.4665   31.6837   48.4195 H   0  0  0  0  0  0  0  0  0  0  0  0
   62.4269   31.6916   50.8464 H   0  0  0  0  0  0  0  0  0  0  0  0
   61.5412   30.2436   50.2585 H   0  0  0  0  0  0  0  0  0  0  0  0
   63.3375   30.2591   50.2585 H   0  0  0  0  0  0  0  0  0  0  0  0
   61.4631   32.4792   50.7106 H   0  0  0  0  0  0  0  0  0  0  0  0
   62.0136   34.1215   50.0882 H   0  0  0  0  0  0  0  0  0  0  0  0
   59.8352   34.3852   51.0721 H   0  0  0  0  0  0  0  0  0  0  0  0
   59.6970   34.5222   49.2785 H   0  0  0  0  0  0  0  0  0  0  0  0
   59.8314   31.3759   51.3001 H   0  0  0  0  0  0  0  0  0  0  0  0
   59.1437   32.7969   52.1556 H   0  0  0  0  0  0  0  0  0  0  0  0
   57.5218   31.1666   52.5981 H   0  0  0  0  0  0  0  0  0  0  0  0
   56.8564   31.9307   51.1145 H   0  0  0  0  0  0  0  0  0  0  0  0
   59.7537   30.5663   50.8842 H   0  0  0  0  0  0  0  0  0  0  0  0
   59.3371   28.8331   51.1808 H   0  0  0  0  0  0  0  0  0  0  0  0
   60.2349   28.8465   48.9844 H   0  0  0  0  0  0  0  0  0  0  0  0
   58.4427   28.8375   48.7461 H   0  0  0  0  0  0  0  0  0  0  0  0
   59.8280   31.4820   48.7880 H   0  0  0  0  0  0  0  0  0  0  0  0
   58.8692   28.6344   46.6473 H   0  0  0  0  0  0  0  0  0  0  0  0
   57.8877   28.7902   44.3882 H   0  0  0  0  0  0  0  0  0  0  0  0
   56.6568   31.8306   42.8653 H   0  0  0  0  0  0  0  0  0  0  0  0
   58.0202   30.8048   42.2741 H   0  0  0  0  0  0  0  0  0  0  0  0
   55.9839   29.3486   43.8782 H   0  0  0  0  0  0  0  0  0  0  0  0
   55.3724   30.0224   42.3294 H   0  0  0  0  0  0  0  0  0  0  0  0
   56.7769   28.9026   42.3294 H   0  0  0  0  0  0  0  0  0  0  0  0
   57.3262   33.4320   43.5135 H   0  0  0  0  0  0  0  0  0  0  0  0
   57.8430   35.5171   44.7628 H   0  0  0  0  0  0  0  0  0  0  0  0
   58.9205   35.4067   46.9994 H   0  0  0  0  0  0  0  0  0  0  0  0
   59.4417   33.2068   48.0351 H   0  0  0  0  0  0  0  0  0  0  0  0
  1  2  1  0
  2  3  1  0
  3  4  1  0
  4  5  1  0
  3  6  1  0
  6  7  1  0
  7  8  1  0
  8  9  1  0
  9 10  1  0
 10 11  1  0
 11 12  1  0
 12 13  1  0
 13 14  1  0
 14 15  1  0
 15 16  2  0
 16 17  1  0
 17 18  2  0
 18 19  1  0
 19 20  1  0
 18 21  1  0
 21 22  2  0
 22 23  1  0
 23 24  2  0
 24 25  1  0
 25 26  2  0
 26 15  1  0
 26 21  1  0
  1 27  1  0
  1 28  1  0
  1 29  1  0
  2 30  1  0
  2 31  1  0
  4 32  1  0
  4 33  1  0
  5 34  1  0
  5 35  1  0
  5 36  1  0
  6 37  1  0
  6 38  1  0
  7 39  1  0
  7 40  1  0
  9 41  1  0
  9 42  1  0
 10 43  1  0
 10 44  1  0
 12 45  1  0
 12 46  1  0
 13 47  1  0
 13 48  1  0
 14 49  1  0
 16 50  1  0
 17 51  1  0
 19 52  1  0
 19 53  1  0
 20 54  1  0
 20 55  1  0
 20 56  1  0
 22 57  1  0
 23 58  1  0
 24 59  1  0
 25 60  1  0
M  CHG  1  18   1
M  END
>  <UniqueID>  (20) 
19

>  <SMILES>  (20) 
CCN(CC)CCOCCOCCNc1cc[n+](CC)c2ccccc12

>  <Energy>  (20) 
68.18961790759764

>  <Genealogy>  (20) 
CCN(CC)CCOCCOCCNc1cc[n+](CC)c2ccccc12 (3D coordinates assigned)
CCN(CC)CCOCCOCCNc1cc[n+](CC)c2ccccc12 (optimized conformer: 68.18961790759764 kcal/mol)

>  <smiles>  (20) 
CCN(CC)CCOCCOCCNc1cc[n+](CC)c2ccccc12

>  <score_type>  (20) 
oracle

>  <origin>  (20) 
adg

>  <m_score__min__energy>  (20) 
-4.96

>  <m_primary>  (20) 
energy

$$$$
20:0
     RDKit          3D

 59 62  0  0  0  0  0  0  0  0999 V2000
   64.9990   32.4060   49.7640 C   0  0  0  0  0  0  0  0  0  0  0  0
   63.6780   33.1390   49.5470 C   0  0  0  0  0  0  0  0  0  0  0  0
   62.6530   32.2140   49.0110 N   0  0  0  0  0  0  0  0  0  0  0  0
   62.8710   31.9390   47.5720 C   0  0  0  0  0  0  0  0  0  0  0  0
   63.3740   33.1890   46.8490 C   0  0  0  0  0  0  0  0  0  0  0  0
   62.5720   30.9600   49.8030 C   0  0  0  0  0  0  0  0  0  0  0  0
   61.6490   31.1540   51.0120 C   0  0  0  0  0  0  0  0  0  0  0  0
   60.3180   30.5600   50.7830 N   0  0  0  0  0  0  0  0  0  0  0  0
   59.9830   30.5500   49.3690 C   0  0  0  0  0  0  0  0  0  0  0  0
   60.0510   29.3250   48.6730 C   0  0  0  0  0  0  0  0  0  0  0  0
   60.7710   27.7180   49.4480 Br  0  0  0  0  0  0  0  0  0  0  0  0
   59.5050   29.2260   47.4060 C   0  0  0  0  0  0  0  0  0  0  0  0
   59.0070   30.3580   46.7480 C   0  0  0  0  0  0  0  0  0  0  0  0
   58.2720   30.2740   45.5320 C   0  0  0  0  0  0  0  0  0  0  0  0
   57.7920   29.0320   45.0380 C   0  0  0  0  0  0  0  0  0  0  0  0
   57.0180   28.9650   43.8850 C   0  0  0  0  0  0  0  0  0  0  0  0
   56.6780   30.1260   43.2060 C   0  0  0  0  0  0  0  0  0  0  0  0
   57.1220   31.3610   43.6670 C   0  0  0  0  0  0  0  0  0  0  0  0
   57.9380   31.4660   44.8240 C   0  0  0  0  0  0  0  0  0  0  0  0
   58.4690   32.7100   45.2680 C   0  0  0  0  0  0  0  0  0  0  0  0
   58.3650   33.8980   44.4960 C   0  0  0  0  0  0  0  0  0  0  0  0
   59.0270   35.0630   44.8770 C   0  0  0  0  0  0  0  0  0  0  0  0
   59.8460   35.0620   45.9960 C   0  0  0  0  0  0  0  0  0  0  0  0
   59.9510   33.9160   46.7770 C   0  0  0  0  0  0  0  0  0  0  0  0
   59.1900   32.7630   46.4950 C   0  0  0  0  0  0  0  0  0  0  0  0
   59.2590   31.6190   47.3400 C   0  0  0  0  0  0  0  0  0  0  0  0
   59.5470   31.6890   48.7020 N   0  0  0  0  0  0  0  0  0  0  0  0
   59.0870   32.8710   49.4850 C   0  0  0  0  0  0  0  0  0  0  0  0
   60.2200   33.8290   49.8930 C   0  0  0  0  0  0  0  0  0  0  0  0
   65.1874   32.3014   50.8427 H   0  0  0  0  0  0  0  0  0  0  0  0
   64.9451   31.4088   49.3029 H   0  0  0  0  0  0  0  0  0  0  0  0
   65.8166   32.9795   49.3029 H   0  0  0  0  0  0  0  0  0  0  0  0
   63.3295   33.5486   50.5066 H   0  0  0  0  0  0  0  0  0  0  0  0
   63.8371   33.9517   48.8229 H   0  0  0  0  0  0  0  0  0  0  0  0
   63.6170   31.1374   47.4673 H   0  0  0  0  0  0  0  0  0  0  0  0
   61.9143   31.6337   47.1231 H   0  0  0  0  0  0  0  0  0  0  0  0
   63.6777   33.9436   47.5895 H   0  0  0  0  0  0  0  0  0  0  0  0
   64.2363   32.9260   46.2187 H   0  0  0  0  0  0  0  0  0  0  0  0
   62.5699   33.5966   46.2187 H   0  0  0  0  0  0  0  0  0  0  0  0
   62.1742   30.1546   49.1681 H   0  0  0  0  0  0  0  0  0  0  0  0
   63.5785   30.6958   50.1595 H   0  0  0  0  0  0  0  0  0  0  0  0
   62.1067   30.6754   51.8904 H   0  0  0  0  0  0  0  0  0  0  0  0
   61.5192   32.2341   51.1746 H   0  0  0  0  0  0  0  0  0  0  0  0
   59.5960   31.1050   51.3050 H   0  0  0  0  0  0  0  0  0  0  0  0
   60.2860   29.6080   51.1950 H   0  0  0  0  0  0  0  0  0  0  0  0
   59.4613   28.2458   46.9087 H   0  0  0  0  0  0  0  0  0  0  0  0
   58.0372   28.1055   45.5778 H   0  0  0  0  0  0  0  0  0  0  0  0
   56.6745   27.9895   43.5104 H   0  0  0  0  0  0  0  0  0  0  0  0
   56.0557   30.0698   42.3007 H   0  0  0  0  0  0  0  0  0  0  0  0
   56.8353   32.2740   43.1246 H   0  0  0  0  0  0  0  0  0  0  0  0
   57.7519   33.8980   43.5827 H   0  0  0  0  0  0  0  0  0  0  0  0
   58.9000   35.9844   44.2897 H   0  0  0  0  0  0  0  0  0  0  0  0
   60.4117   35.9661   46.2655 H   0  0  0  0  0  0  0  0  0  0  0  0
   60.6422   33.9090   47.6327 H   0  0  0  0  0  0  0  0  0  0  0  0
   58.3636   33.4307   48.8740 H   0  0  0  0  0  0  0  0  0  0  0  0
   58.6453   32.4849   50.4155 H   0  0  0  0  0  0  0  0  0  0  0  0
   60.2800   33.8797   50.9902 H   0  0  0  0  0  0  0  0  0  0  0  0
   61.1749   33.4602   49.4902 H   0  0  0  0  0  0  0  0  0  0  0  0
   60.0151   34.8319   49.4902 H   0  0  0  0  0  0  0  0  0  0  0  0
  1  2  1  0
  2  3  1  0
  3  4  1  0
  4  5  1  0
  3  6  1  0
  6  7  1  0
  7  8  1  0
  8  9  1  0
  9 10  2  0
 10 11  1  0
 10 12  1  0
 12 13  2  0
 13 14  1  0
 14 15  2  0
 15 16  1  0
 16 17  2  0
 17 18  1  0
 18 19  2  0
 19 20  1  0
 20 21  2  0
 21 22  1  0
 22 23  2  0
 23 24  1  0
 24 25  2  0
 25 26  1  0
 26 27  2  0
 27 28  1  0
 28 29  1  0
 27  9  1  0
 26 13  1  0
 19 14  1  0
 25 20  1  0
  1 30  1  0
  1 31  1  0
  1 32  1  0
  2 33  1  0
  2 34  1  0
  4 35  1  0
  4 36  1  0
  5 37  1  0
  5 38  1  0
  5 39  1  0
  6 40  1  0
  6 41  1  0
  7 42  1  0
  7 43  1  0
  8 44  1  0
  8 45  1  0
 12 46  1  0
 15 47  1  0
 16 48  1  0
 17 49  1  0
 18 50  1  0
 21 51  1  0
 22 52  1  0
 23 53  1  0
 24 54  1  0
 28 55  1  0
 28 56  1  0
 29 57  1  0
 29 58  1  0
 29 59  1  0
M  CHG  2   8   1  27   1
M  END
>  <UniqueID>  (21) 
20

>  <SMILES>  (21) 
CCN(CC)CC[NH2+]c1c(Br)cc2c3ccccc3c3ccccc3c2[n+]1CC

>  <Energy>  (21) 
114.85932230780186

>  <Genealogy>  (21) 
CCN(CC)CC[NH2+]c1c(Br)cc2c3ccccc3c3ccccc3c2[n+]1CC (protonated)
CCN(CC)CC[NH2+]c1c(Br)cc2c3ccccc3c3ccccc3c2[n+]1CC (3D coordinates assigned)
CCN(CC)CC[NH2+]c1c(Br)cc2c3ccccc3c3ccccc3c2[n+]1CC (optimized conformer: 114.85932230780186 kcal/mol)

>  <smiles>  (21) 
CCN(CC)CCNc1c(Br)cc2c3ccccc3c3ccccc3c2[n+]1CC

>  <score_type>  (21) 
oracle

>  <origin>  (21) 
adg

>  <m_score__min__energy>  (21) 
-6.0099999999999998

>  <m_primary>  (21) 
energy

$$$$
21:0
     RDKit          3D

 36 37  0  0  0  0  0  0  0  0999 V2000
   56.4690   24.5900   46.3520 C   0  0  0  0  0  0  0  0  0  0  0  0
   55.4590   25.4720   45.6260 C   0  0  0  0  0  0  0  0  0  0  0  0
   55.6160   26.8820   46.0080 N   0  0  0  0  0  0  0  0  0  0  0  0
   57.0260   27.3110   46.0850 C   0  0  0  0  0  0  0  0  0  0  0  0
   57.4950   27.8870   44.7440 C   0  0  0  0  0  0  0  0  0  0  0  0
   56.7330   29.1310   44.3910 C   0  0  0  0  0  0  0  0  0  0  0  0
   55.5770   29.3070   44.8610 O   0  0  0  0  0  0  0  0  0  0  0  0
   57.3500   30.1460   43.5880 N   0  0  0  0  0  0  0  0  0  0  0  0
   56.9950   31.5550   43.7260 C   0  0  0  0  0  0  0  0  0  0  0  0
   57.8960   32.1970   44.7430 C   0  0  0  0  0  0  0  0  0  0  0  0
   57.9520   33.6110   44.8430 C   0  0  0  0  0  0  0  0  0  0  0  0
   58.8540   34.2300   45.7290 C   0  0  0  0  0  0  0  0  0  0  0  0
   59.6840   33.4100   46.4870 C   0  0  0  0  0  0  0  0  0  0  0  0
   59.6400   32.0560   46.3910 C   0  0  0  0  0  0  0  0  0  0  0  0
   58.7630   31.4060   45.5290 C   0  0  0  0  0  0  0  0  0  0  0  0
   60.5750   31.5040   47.2440 O   0  0  0  0  0  0  0  0  0  0  0  0
   61.2480   32.5770   47.9180 C   0  0  0  0  0  0  0  0  0  0  0  0
   60.6480   33.7760   47.4060 O   0  0  0  0  0  0  0  0  0  0  0  0
   56.3399   24.7027   47.4386 H   0  0  0  0  0  0  0  0  0  0  0  0
   56.3071   23.5390   46.0706 H   0  0  0  0  0  0  0  0  0  0  0  0
   57.4886   24.8920   46.0706 H   0  0  0  0  0  0  0  0  0  0  0  0
   55.6118   25.3747   44.5410 H   0  0  0  0  0  0  0  0  0  0  0  0
   54.4463   25.1455   45.9050 H   0  0  0  0  0  0  0  0  0  0  0  0
   55.1400   27.4570   45.2730 H   0  0  0  0  0  0  0  0  0  0  0  0
   57.1262   28.0820   46.8632 H   0  0  0  0  0  0  0  0  0  0  0  0
   57.6472   26.4367   46.3292 H   0  0  0  0  0  0  0  0  0  0  0  0
   58.5657   28.1295   44.8125 H   0  0  0  0  0  0  0  0  0  0  0  0
   57.3167   27.1355   43.9608 H   0  0  0  0  0  0  0  0  0  0  0  0
   58.2250   29.9130   43.0670 H   0  0  0  0  0  0  0  0  0  0  0  0
   57.1157   32.0610   42.7568 H   0  0  0  0  0  0  0  0  0  0  0  0
   55.9487   31.6409   44.0544 H   0  0  0  0  0  0  0  0  0  0  0  0
   57.2853   34.2286   44.2233 H   0  0  0  0  0  0  0  0  0  0  0  0
   58.9010   35.3253   45.8190 H   0  0  0  0  0  0  0  0  0  0  0  0
   58.7451   30.3082   45.4614 H   0  0  0  0  0  0  0  0  0  0  0  0
   61.0981   32.5042   49.0053 H   0  0  0  0  0  0  0  0  0  0  0  0
   62.3343   32.5543   47.7461 H   0  0  0  0  0  0  0  0  0  0  0  0
  1  2  1  0
  2  3  1  0
  3  4  1  0
  4  5  1  0
  5  6  1  0
  6  7  2  0
  6  8  1  0
  8  9  1  0
  9 10  1  0
 10 11  2  0
 11 12  1  0
 12 13  2  0
 13 14  1  0
 14 15  2  0
 14 16  1  0
 16 17  1  0
 17 18  1  0
 15 10  1  0
 18 13  1  0
  1 19  1  0
  1 20  1  0
  1 21  1  0
  2 22  1  0
  2 23  1  0
  3 24  1  0
  4 25  1  0
  4 26  1  0
  5 27  1  0
  5 28  1  0
  8 29  1  0
  9 30  1  0
  9 31  1  0
 11 32  1  0
 12 33  1  0
 15 34  1  0
 17 35  1  0
 17 36  1  0
M  END
>  <UniqueID>  (22) 
21

>  <SMILES>  (22) 
CCNCCC(=O)NCc1ccc2c(c1)OCO2

>  <Energy>  (22) 
54.128396592165075

>  <Genealogy>  (22) 
CCNCCC(=O)NCc1ccc2c(c1)OCO2 (3D coordinates assigned)
CCNCCC(=O)NCc1ccc2c(c1)OCO2 (nonaromatic ring conformer: 54.128396592165075 kcal/mol)

>  <smiles>  (22) 
CCNCCC(=O)NCc1ccc2c(c1)OCO2

>  <score_type>  (22) 
oracle

>  <origin>  (22) 
adg

>  <m_score__min__energy>  (22) 
-6.2199999999999998

>  <m_primary>  (22) 
energy

$$$$
22:0
     RDKit          3D

 47 49  0  0  0  0  0  0  0  0999 V2000
   63.4170   33.8820   46.3530 C   0  0  0  0  0  0  0  0  0  0  0  0
   63.4400   33.8590   47.8850 C   0  0  0  0  0  0  0  0  0  0  0  0
   64.0940   32.6380   48.4260 N   0  0  1  0  0  0  0  0  0  0  0  0
   64.8390   32.9900   49.6520 C   0  0  0  0  0  0  0  0  0  0  0  0
   63.0820   31.5840   48.7080 C   0  0  0  0  0  0  0  0  0  0  0  0
   62.2760   31.1560   47.4670 C   0  0  0  0  0  0  0  0  0  0  0  0
   60.8350   31.2530   47.7060 N   0  0  0  0  0  0  0  0  0  0  0  0
   59.8710   31.1390   46.6400 C   0  0  0  0  0  0  0  0  0  0  0  0
   59.3050   32.2930   46.0620 C   0  0  0  0  0  0  0  0  0  0  0  0
   59.7910   33.5790   46.3810 C   0  0  0  0  0  0  0  0  0  0  0  0
   59.2490   34.7140   45.7850 C   0  0  0  0  0  0  0  0  0  0  0  0
   58.2360   34.5900   44.8430 C   0  0  0  0  0  0  0  0  0  0  0  0
   57.7520   33.3290   44.4950 C   0  0  0  0  0  0  0  0  0  0  0  0
   58.2610   32.1550   45.1080 C   0  0  0  0  0  0  0  0  0  0  0  0
   57.7840   30.9000   44.7770 N   0  0  0  0  0  0  0  0  0  0  0  0
   56.5180   30.7630   44.0250 C   0  0  0  0  0  0  0  0  0  0  0  0
   58.4880   29.7740   45.1600 C   0  0  0  0  0  0  0  0  0  0  0  0
   58.2090   28.4980   44.6060 C   0  0  0  0  0  0  0  0  0  0  0  0
   58.8880   27.3600   45.0400 C   0  0  0  0  0  0  0  0  0  0  0  0
   58.5990   26.1510   44.4980 F   0  0  0  0  0  0  0  0  0  0  0  0
   59.8640   27.4620   46.0220 C   0  0  0  0  0  0  0  0  0  0  0  0
   60.1880   28.7060   46.5580 C   0  0  0  0  0  0  0  0  0  0  0  0
   59.5270   29.8760   46.1240 C   0  0  0  0  0  0  0  0  0  0  0  0
   62.6783   34.6207   46.0084 H   0  0  0  0  0  0  0  0  0  0  0  0
   64.4132   34.1560   45.9754 H   0  0  0  0  0  0  0  0  0  0  0  0
   63.1430   32.8858   45.9754 H   0  0  0  0  0  0  0  0  0  0  0  0
   63.9899   34.7419   48.2429 H   0  0  0  0  0  0  0  0  0  0  0  0
   62.3972   33.8629   48.2352 H   0  0  0  0  0  0  0  0  0  0  0  0
   64.7900   32.2880   47.7280 H   0  0  0  0  0  0  0  0  0  0  0  0
   64.2457   32.7097   50.5348 H   0  0  0  0  0  0  0  0  0  0  0  0
   65.7967   32.4492   49.6671 H   0  0  0  0  0  0  0  0  0  0  0  0
   65.0294   34.0733   49.6671 H   0  0  0  0  0  0  0  0  0  0  0  0
   63.6018   30.7005   49.1069 H   0  0  0  0  0  0  0  0  0  0  0  0
   62.3661   32.0081   49.4275 H   0  0  0  0  0  0  0  0  0  0  0  0
   62.5436   31.8095   46.6236 H   0  0  0  0  0  0  0  0  0  0  0  0
   62.5195   30.1074   47.2410 H   0  0  0  0  0  0  0  0  0  0  0  0
   60.5120   31.5330   48.6590 H   0  0  0  0  0  0  0  0  0  0  0  0
   60.6082   33.6856   47.1096 H   0  0  0  0  0  0  0  0  0  0  0  0
   59.6236   35.7109   46.0605 H   0  0  0  0  0  0  0  0  0  0  0  0
   57.8141   35.4890   44.3699 H   0  0  0  0  0  0  0  0  0  0  0  0
   56.9631   33.2433   43.7332 H   0  0  0  0  0  0  0  0  0  0  0  0
   55.6798   30.6723   44.7316 H   0  0  0  0  0  0  0  0  0  0  0  0
   56.3696   31.6503   43.3921 H   0  0  0  0  0  0  0  0  0  0  0  0
   56.5629   29.8645   43.3921 H   0  0  0  0  0  0  0  0  0  0  0  0
   57.4442   28.4048   43.8209 H   0  0  0  0  0  0  0  0  0  0  0  0
   60.3822   26.5591   46.3773 H   0  0  0  0  0  0  0  0  0  0  0  0
   60.9689   28.7781   47.3294 H   0  0  0  0  0  0  0  0  0  0  0  0
  1  2  1  0
  2  3  1  0
  3  4  1  0
  3  5  1  0
  5  6  1  0
  6  7  1  0
  7  8  1  0
  8  9  2  0
  9 10  1  0
 10 11  2  0
 11 12  1  0
 12 13  2  0
 13 14  1  0
 14 15  2  0
 15 16  1  0
 15 17  1  0
 17 18  2  0
 18 19  1  0
 19 20  1  0
 19 21  2  0
 21 22  1  0
 22 23  2  0
 23  8  1  0
 14  9  1  0
 23 17  1  0
  1 24  1  0
  1 25  1  0
  1 26  1  0
  2 27  1  0
  2 28  1  0
  3 29  1  6
  4 30  1  0
  4 31  1  0
  4 32  1  0
  5 33  1  0
  5 34  1  0
  6 35  1  0
  6 36  1  0
  7 37  1  0
 10 38  1  0
 11 39  1  0
 12 40  1  0
 13 41  1  0
 16 42  1  0
 16 43  1  0
 16 44  1  0
 18 45  1  0
 21 46  1  0
 22 47  1  0
M  CHG  2   3   1  15   1
M  END
>  <UniqueID>  (23) 
22

>  <SMILES>  (23) 
CC[N@@H+](C)CCNc1c2ccccc2[n+](C)c2cc(F)ccc12

>  <Energy>  (23) 
74.27072525280776

>  <Genealogy>  (23) 
CC[NH+](C)CCNc1c2ccccc2[n+](C)c2cc(F)ccc12 (protonated)
CC[N@@H+](C)CCNc1c2ccccc2[n+](C)c2cc(F)ccc12 (chirality)
CC[N@@H+](C)CCNc1c2ccccc2[n+](C)c2cc(F)ccc12 (3D coordinates assigned)
CC[N@@H+](C)CCNc1c2ccccc2[n+](C)c2cc(F)ccc12 (optimized conformer: 74.27072525280776 kcal/mol)

>  <smiles>  (23) 
CCN(C)CCNc1c2ccccc2[n+](C)c2cc(F)ccc12

>  <score_type>  (23) 
oracle

>  <origin>  (23) 
adg

>  <m_score__min__energy>  (23) 
-4.2000000000000002

>  <m_primary>  (23) 
energy

$$$$
23:0
     RDKit          3D

 53 55  0  0  0  0  0  0  0  0999 V2000
   58.2680   33.4690   44.1790 C   0  0  0  0  0  0  0  0  0  0  0  0
   57.2040   34.0330   45.1180 C   0  0  0  0  0  0  0  0  0  0  0  0
   57.4440   33.5940   46.5030 N   0  0  0  0  0  0  0  0  0  0  0  0
   58.6150   34.2550   47.1130 C   0  0  0  0  0  0  0  0  0  0  0  0
   59.8810   33.3770   47.1420 C   0  0  0  0  0  0  0  0  0  0  0  0
   59.6340   32.0540   47.7980 C   0  0  0  0  0  0  0  0  0  0  0  0
   60.2380   31.7620   48.8660 O   0  0  0  0  0  0  0  0  0  0  0  0
   58.6990   31.1740   47.2400 O   0  0  0  0  0  0  0  0  0  0  0  0
   58.9620   30.3760   46.0870 C   0  0  0  0  0  0  0  0  0  0  0  0
   57.7120   30.1470   45.2680 C   0  0  0  0  0  0  0  0  0  0  0  0
   56.9060   31.0550   45.1200 O   0  0  0  0  0  0  0  0  0  0  0  0
   57.4130   28.7950   44.6530 C   0  0  1  0  0  0  0  0  0  0  0  0
   58.6840   28.1190   44.1060 C   0  0  0  0  0  0  0  0  0  0  0  0
   58.3240   26.8200   43.3760 C   0  0  0  0  0  0  0  0  0  0  0  0
   57.4190   25.9490   44.2100 C   0  0  0  0  0  0  0  0  0  0  0  0
   57.0520   24.7450   43.7460 C   0  0  0  0  0  0  0  0  0  0  0  0
   56.1870   23.8560   44.5430 C   0  0  0  0  0  0  0  0  0  0  0  0
   55.6670   24.3260   45.7490 C   0  0  0  0  0  0  0  0  0  0  0  0
   54.8120   23.5180   46.4950 C   0  0  0  0  0  0  0  0  0  0  0  0
   54.5010   22.2390   46.0140 C   0  0  0  0  0  0  0  0  0  0  0  0
   53.5850   21.3450   46.7860 C   0  0  0  0  0  0  0  0  0  0  0  0
   55.0140   21.8190   44.8600 O   0  0  0  0  0  0  0  0  0  0  0  0
   55.8300   22.5650   44.1160 C   0  0  0  0  0  0  0  0  0  0  0  0
   56.2690   22.1030   43.0290 O   0  0  0  0  0  0  0  0  0  0  0  0
   55.9860   25.6140   46.1880 O   0  0  0  0  0  0  0  0  0  0  0  0
   57.0400   26.4010   45.6140 C   0  0  2  0  0  0  0  0  0  0  0  0
   56.6310   27.8880   45.6440 C   0  0  0  0  0  0  0  0  0  0  0  0
   59.0869   33.0349   44.7714 H   0  0  0  0  0  0  0  0  0  0  0  0
   57.8211   32.6894   43.5446 H   0  0  0  0  0  0  0  0  0  0  0  0
   58.6624   34.2765   43.5446 H   0  0  0  0  0  0  0  0  0  0  0  0
   57.2331   35.1319   45.0777 H   0  0  0  0  0  0  0  0  0  0  0  0
   56.2186   33.6644   44.7967 H   0  0  0  0  0  0  0  0  0  0  0  0
   57.5530   32.5530   46.5370 H   0  0  0  0  0  0  0  0  0  0  0  0
   56.6090   33.8460   47.0840 H   0  0  0  0  0  0  0  0  0  0  0  0
   58.8378   35.1656   46.5375 H   0  0  0  0  0  0  0  0  0  0  0  0
   58.3516   34.4712   48.1589 H   0  0  0  0  0  0  0  0  0  0  0  0
   60.2161   33.2035   46.1087 H   0  0  0  0  0  0  0  0  0  0  0  0
   60.6475   33.9070   47.7265 H   0  0  0  0  0  0  0  0  0  0  0  0
   59.7087   30.8878   45.4621 H   0  0  0  0  0  0  0  0  0  0  0  0
   59.3343   29.3977   46.4250 H   0  0  0  0  0  0  0  0  0  0  0  0
   56.7576   28.9591   43.7849 H   0  0  0  0  0  0  0  0  0  0  0  0
   59.1852   28.8023   43.4047 H   0  0  0  0  0  0  0  0  0  0  0  0
   59.3536   27.8833   44.9463 H   0  0  0  0  0  0  0  0  0  0  0  0
   57.8120   27.0692   42.4348 H   0  0  0  0  0  0  0  0  0  0  0  0
   59.2535   26.2648   43.1816 H   0  0  0  0  0  0  0  0  0  0  0  0
   57.4016   24.4161   42.7562 H   0  0  0  0  0  0  0  0  0  0  0  0
   54.3886   23.8774   47.4445 H   0  0  0  0  0  0  0  0  0  0  0  0
   53.7436   21.4998   47.8634 H   0  0  0  0  0  0  0  0  0  0  0  0
   52.5413   21.5814   46.5313 H   0  0  0  0  0  0  0  0  0  0  0  0
   53.7960   20.2959   46.5313 H   0  0  0  0  0  0  0  0  0  0  0  0
   57.9463   26.2575   46.2207 H   0  0  0  0  0  0  0  0  0  0  0  0
   55.5609   27.9544   45.3983 H   0  0  0  0  0  0  0  0  0  0  0  0
   56.8658   28.2553   46.6539 H   0  0  0  0  0  0  0  0  0  0  0  0
  1  2  1  0
  2  3  1  0
  3  4  1  0
  4  5  1  0
  5  6  1  0
  6  7  2  0
  6  8  1  0
  8  9  1  0
  9 10  1  0
 10 11  2  0
 10 12  1  0
 12 13  1  0
 13 14  1  0
 14 15  1  0
 15 16  2  0
 16 17  1  0
 17 18  2  0
 18 19  1  0
 19 20  2  0
 20 21  1  0
 20 22  1  0
 22 23  1  0
 23 24  2  0
 18 25  1  0
 25 26  1  0
 26 27  1  0
 27 12  1  0
 26 15  1  0
 23 17  1  0
  1 28  1  0
  1 29  1  0
  1 30  1  0
  2 31  1  0
  2 32  1  0
  3 33  1  0
  3 34  1  0
  4 35  1  0
  4 36  1  0
  5 37  1  0
  5 38  1  0
  9 39  1  0
  9 40  1  0
 12 41  1  6
 13 42  1  0
 13 43  1  0
 14 44  1  0
 14 45  1  0
 16 46  1  0
 19 47  1  0
 21 48  1  0
 21 49  1  0
 21 50  1  0
 26 51  1  1
 27 52  1  0
 27 53  1  0
M  CHG  1   3   1
M  END
>  <UniqueID>  (24) 
23

>  <SMILES>  (24) 
CC[NH2+]CCC(=O)OCC(=O)[C@H]1CCC2=Cc3c(cc(C)oc3=O)O[C@@H]2C1

>  <Energy>  (24) 
53.61276952768957

>  <Genealogy>  (24) 
CC[NH2+]CCC(=O)OCC(=O)C1CCC2=Cc3c(cc(C)oc3=O)OC2C1 (protonated)
CC[NH2+]CCC(=O)OCC(=O)[C@H]1CCC2=Cc3c(cc(C)oc3=O)O[C@@H]2C1 (chirality)
CC[NH2+]CCC(=O)OCC(=O)[C@H]1CCC2=Cc3c(cc(C)oc3=O)O[C@@H]2C1 (3D coordinates assigned)
CC[NH2+]CCC(=O)OCC(=O)[C@H]1CCC2=Cc3c(cc(C)oc3=O)O[C@@H]2C1 (nonaromatic ring conformer: 53.61276952768957 kcal/mol)

>  <smiles>  (24) 
CCNCCC(=O)OCC(=O)C1CCC2=Cc3c(cc(C)oc3=O)OC2C1

>  <score_type>  (24) 
oracle

>  <origin>  (24) 
adg

>  <m_score__min__energy>  (24) 
-5.5499999999999998

>  <m_primary>  (24) 
energy

$$$$
24:0
     RDKit          3D

 36 37  0  0  0  0  0  0  0  0999 V2000
   56.2750   29.7240   42.6260 C   0  0  0  0  0  0  0  0  0  0  0  0
   55.7900   30.0190   44.0520 C   0  0  0  0  0  0  0  0  0  0  0  0
   56.7530   30.7920   44.8760 N   0  0  0  0  0  0  0  0  0  0  0  0
   57.7410   29.9220   45.5520 C   0  0  0  0  0  0  0  0  0  0  0  0
   58.8110   29.4700   44.5640 C   0  0  0  0  0  0  0  0  0  0  0  0
   57.4080   31.8960   44.1400 C   0  0  0  0  0  0  0  0  0  0  0  0
   58.1460   32.8020   45.0780 C   0  0  0  0  0  0  0  0  0  0  0  0
   57.7570   34.0600   45.4820 C   0  0  0  0  0  0  0  0  0  0  0  0
   58.6560   34.4990   46.3320 O   0  0  0  0  0  0  0  0  0  0  0  0
   59.5730   33.5620   46.4660 C   0  0  0  0  0  0  0  0  0  0  0  0
   60.7510   33.6970   47.3530 C   0  0  0  0  0  0  0  0  0  0  0  0
   60.5660   34.0580   48.7000 C   0  0  0  0  0  0  0  0  0  0  0  0
   61.6630   34.1920   49.5570 C   0  0  0  0  0  0  0  0  0  0  0  0
   62.9560   33.9680   49.0790 C   0  0  0  0  0  0  0  0  0  0  0  0
   63.1550   33.6100   47.7440 C   0  0  0  0  0  0  0  0  0  0  0  0
   64.4100   33.3940   47.2820 F   0  0  0  0  0  0  0  0  0  0  0  0
   62.0600   33.4760   46.8830 C   0  0  0  0  0  0  0  0  0  0  0  0
   59.2930   32.4830   45.7020 N   0  0  0  0  0  0  0  0  0  0  0  0
   57.2141   29.1528   42.6689 H   0  0  0  0  0  0  0  0  0  0  0  0
   55.5125   29.1365   42.0935 H   0  0  0  0  0  0  0  0  0  0  0  0
   56.4460   30.6712   42.0935 H   0  0  0  0  0  0  0  0  0  0  0  0
   54.8542   30.5933   43.9859 H   0  0  0  0  0  0  0  0  0  0  0  0
   55.6597   29.0461   44.5485 H   0  0  0  0  0  0  0  0  0  0  0  0
   58.2165   30.4812   46.3713 H   0  0  0  0  0  0  0  0  0  0  0  0
   57.2246   29.0363   45.9505 H   0  0  0  0  0  0  0  0  0  0  0  0
   59.6873   29.0998   45.1164 H   0  0  0  0  0  0  0  0  0  0  0  0
   58.4093   28.6647   43.9314 H   0  0  0  0  0  0  0  0  0  0  0  0
   59.1083   30.3194   43.9314 H   0  0  0  0  0  0  0  0  0  0  0  0
   58.1185   31.4731   43.4145 H   0  0  0  0  0  0  0  0  0  0  0  0
   56.6332   32.4816   43.6235 H   0  0  0  0  0  0  0  0  0  0  0  0
   56.8566   34.5990   45.1523 H   0  0  0  0  0  0  0  0  0  0  0  0
   59.5501   34.2363   49.0823 H   0  0  0  0  0  0  0  0  0  0  0  0
   61.5073   34.4741   50.6087 H   0  0  0  0  0  0  0  0  0  0  0  0
   63.8179   34.0736   49.7543 H   0  0  0  0  0  0  0  0  0  0  0  0
   62.2229   33.1961   45.8317 H   0  0  0  0  0  0  0  0  0  0  0  0
   59.8240   31.5890   45.6080 H   0  0  0  0  0  0  0  0  0  0  0  0
  1  2  1  0
  2  3  1  0
  3  4  1  0
  4  5  1  0
  3  6  1  0
  6  7  1  0
  7  8  2  0
  8  9  1  0
  9 10  1  0
 10 11  1  0
 11 12  2  0
 12 13  1  0
 13 14  2  0
 14 15  1  0
 15 16  1  0
 15 17  2  0
 10 18  2  0
 18  7  1  0
 17 11  1  0
  1 19  1  0
  1 20  1  0
  1 21  1  0
  2 22  1  0
  2 23  1  0
  4 24  1  0
  4 25  1  0
  5 26  1  0
  5 27  1  0
  5 28  1  0
  6 29  1  0
  6 30  1  0
  8 31  1  0
 12 32  1  0
 13 33  1  0
 14 34  1  0
 17 35  1  0
 18 36  1  0
M  CHG  1  18   1
M  END
>  <UniqueID>  (25) 
24

>  <SMILES>  (25) 
CCN(CC)Cc1coc(-c2cccc(F)c2)[nH+]1

>  <Energy>  (25) 
67.64071424703478

>  <Genealogy>  (25) 
CCN(CC)Cc1coc(-c2cccc(F)c2)[nH+]1 (protonated)
CCN(CC)Cc1coc(-c2cccc(F)c2)[nH+]1 (3D coordinates assigned)
CCN(CC)Cc1coc(-c2cccc(F)c2)[nH+]1 (optimized conformer: 67.64071424703478 kcal/mol)

>  <smiles>  (25) 
CCN(CC)Cc1coc(-c2cccc(F)c2)n1

>  <score_type>  (25) 
oracle

>  <origin>  (25) 
adg

>  <m_score__min__energy>  (25) 
-4.6299999999999999

>  <m_primary>  (25) 
energy

$$$$
25:0
     RDKit          3D

 46 45  0  0  0  0  0  0  0  0999 V2000
   58.3878   33.8274   44.2551 H   0  0  0  0  0  0  0  0  0  0  0  0
   57.8310   33.0460   44.7930 C   0  0  0  0  0  0  0  0  0  0  0  0
   57.6020   33.2340   46.1060 C   0  0  0  0  0  0  0  0  0  0  0  0
   56.7481   33.8664   46.3905 H   0  0  0  0  0  0  0  0  0  0  0  0
   58.4360   32.6370   47.2180 C   0  0  0  0  0  0  0  0  0  0  0  0
   57.8353   32.6112   48.1391 H   0  0  0  0  0  0  0  0  0  0  0  0
   59.3315   33.2626   47.3475 H   0  0  0  0  0  0  0  0  0  0  0  0
   58.8760   31.2680   46.8970 N   0  0  0  0  0  0  0  0  0  0  0  0
   58.5140   31.0250   45.9450 H   0  0  0  0  0  0  0  0  0  0  0  0
   58.4720   30.5910   47.5860 H   0  0  0  0  0  0  0  0  0  0  0  0
   60.3430   31.1510   46.8900 C   0  0  0  0  0  0  0  0  0  0  0  0
   60.7288   31.3912   47.8917 H   0  0  0  0  0  0  0  0  0  0  0  0
   60.7491   31.8514   46.1454 H   0  0  0  0  0  0  0  0  0  0  0  0
   60.7750   29.7240   46.5120 C   0  0  0  0  0  0  0  0  0  0  0  0
   60.3529   29.0212   47.2454 H   0  0  0  0  0  0  0  0  0  0  0  0
   61.8746   29.6952   46.5127 H   0  0  0  0  0  0  0  0  0  0  0  0
   60.2950   29.3180   45.1040 C   0  0  0  0  0  0  0  0  0  0  0  0
   61.0782   28.7068   44.6318 H   0  0  0  0  0  0  0  0  0  0  0  0
   60.0993   30.2469   44.5482 H   0  0  0  0  0  0  0  0  0  0  0  0
   58.9880   28.5120   45.1120 C   0  0  0  0  0  0  0  0  0  0  0  0
   59.2270   27.4391   45.1529 H   0  0  0  0  0  0  0  0  0  0  0  0
   58.4256   28.7462   44.1961 H   0  0  0  0  0  0  0  0  0  0  0  0
   58.1600   28.8650   46.2740 N   0  0  0  0  0  0  0  0  0  0  0  0
   57.1850   29.0720   45.9590 H   0  0  0  0  0  0  0  0  0  0  0  0
   58.1280   27.8020   47.2930 C   0  0  0  0  0  0  0  0  0  0  0  0
   57.3599   28.0596   48.0371 H   0  0  0  0  0  0  0  0  0  0  0  0
   59.1375   27.7472   47.7265 H   0  0  0  0  0  0  0  0  0  0  0  0
   57.8080   26.4010   46.7310 C   0  0  0  0  0  0  0  0  0  0  0  0
   57.8341   25.6768   47.5586 H   0  0  0  0  0  0  0  0  0  0  0  0
   58.5623   26.1740   45.9632 H   0  0  0  0  0  0  0  0  0  0  0  0
   56.4360   26.3260   46.0610 C   0  0  0  0  0  0  0  0  0  0  0  0
   55.6531   26.2832   46.8325 H   0  0  0  0  0  0  0  0  0  0  0  0
   56.2848   27.2172   45.4342 H   0  0  0  0  0  0  0  0  0  0  0  0
   56.3829   25.4236   45.4342 H   0  0  0  0  0  0  0  0  0  0  0  0
   57.3780   31.8380   44.0040 C   0  0  0  0  0  0  0  0  0  0  0  0
   56.6979   32.1696   43.2056 H   0  0  0  0  0  0  0  0  0  0  0  0
   58.2710   31.3491   43.5875 H   0  0  0  0  0  0  0  0  0  0  0  0
   56.6750   30.8580   44.8520 N   0  0  0  0  0  0  0  0  0  0  0  0
   57.3780   30.2600   45.3470 H   0  0  0  0  0  0  0  0  0  0  0  0
   55.7750   29.9860   44.0830 C   0  0  0  0  0  0  0  0  0  0  0  0
   55.6449   29.0358   44.6217 H   0  0  0  0  0  0  0  0  0  0  0  0
   54.8058   30.4927   43.9652 H   0  0  0  0  0  0  0  0  0  0  0  0
   56.3530   29.7030   42.7000 C   0  0  0  0  0  0  0  0  0  0  0  0
   57.3364   29.2215   42.8051 H   0  0  0  0  0  0  0  0  0  0  0  0
   55.6747   29.0351   42.1488 H   0  0  0  0  0  0  0  0  0  0  0  0
   56.4646   30.6484   42.1488 H   0  0  0  0  0  0  0  0  0  0  0  0
  1  2  1  0
  2  3  2  0
  3  4  1  0
  3  5  1  0
  5  6  1  0
  5  7  1  0
  5  8  1  0
  8  9  1  0
  8 10  1  0
  8 11  1  0
 11 12  1  0
 11 13  1  0
 11 14  1  0
 14 15  1  0
 14 16  1  0
 14 17  1  0
 17 18  1  0
 17 19  1  0
 17 20  1  0
 20 21  1  0
 20 22  1  0
 20 23  1  0
 23 24  1  0
 23 25  1  0
 25 26  1  0
 25 27  1  0
 25 28  1  0
 28 29  1  0
 28 30  1  0
 28 31  1  0
 31 32  1  0
 31 33  1  0
 31 34  1  0
  2 35  1  0
 35 36  1  0
 35 37  1  0
 35 38  1  0
 38 39  1  0
 38 40  1  0
 40 41  1  0
 40 42  1  0
 40 43  1  0
 43 44  1  0
 43 45  1  0
 43 46  1  0
M  CHG  1   8   1
M  END
>  <UniqueID>  (26) 
25

>  <SMILES>  (26) 
CCCNCCCC[NH2+]C/C=C\CNCC

>  <Energy>  (26) 
31.54895838912889

>  <Genealogy>  (26) 
CCCNCCCC[NH2+]CC=CCNCC (protonated)
CCCNCCCC[NH2+]C/C=C\CNCC (cis-trans isomerization)
CCCNCCCC[NH2+]C/C=C\CNCC (3D coordinates assigned)
CCCNCCCC[NH2+]C/C=C\CNCC (optimized conformer: 31.54895838912889 kcal/mol)

>  <smiles>  (26) 
CCCNCCCCNCC=CCNCC

>  <score_type>  (26) 
oracle

>  <origin>  (26) 
adg

>  <m_score__min__energy>  (26) 
-2.1299999999999999

>  <m_primary>  (26) 
energy

$$$$
26:0
     RDKit          3D

 46 45  0  0  0  0  0  0  0  0999 V2000
   58.5490   26.4760   45.0600 C   0  0  0  0  0  0  0  0  0  0  0  0
   58.1260   27.5930   44.0890 C   0  0  0  0  0  0  0  0  0  0  0  0
   58.1610   27.0590   42.6490 C   0  0  0  0  0  0  0  0  0  0  0  0
   58.9950   28.7850   44.2080 N   0  0  0  0  0  0  0  0  0  0  0  0
   60.2760   28.4830   44.8760 C   0  0  0  0  0  0  0  0  0  0  0  0
   60.2850   28.9900   46.3250 C   0  0  0  0  0  0  0  0  0  0  0  0
   58.9130   29.1840   46.8120 N   0  0  0  0  0  0  0  0  0  0  0  0
   58.8740   30.2500   47.8220 C   0  0  0  0  0  0  0  0  0  0  0  0
   58.7200   31.6220   47.1590 C   0  0  0  0  0  0  0  0  0  0  0  0
   58.6930   31.4960   45.6960 N   0  0  0  0  0  0  0  0  0  0  0  0
   58.1650   32.7230   45.0860 C   0  0  0  0  0  0  0  0  0  0  0  0
   57.7410   32.4640   43.6370 C   0  0  0  0  0  0  0  0  0  0  0  0
   57.8970   31.0450   43.2970 N   0  0  0  0  0  0  0  0  0  0  0  0
   56.6420   30.5100   42.7540 C   0  0  0  0  0  0  0  0  0  0  0  0
   55.8630   29.7690   43.8420 C   0  0  0  0  0  0  0  0  0  0  0  0
   56.4050   30.0770   45.1630 N   0  0  0  0  0  0  0  0  0  0  0  0
   58.4181   26.8217   46.0960 H   0  0  0  0  0  0  0  0  0  0  0  0
   57.9257   25.5859   44.8889 H   0  0  0  0  0  0  0  0  0  0  0  0
   59.6055   26.2221   44.8889 H   0  0  0  0  0  0  0  0  0  0  0  0
   57.1033   27.9026   44.3504 H   0  0  0  0  0  0  0  0  0  0  0  0
   58.2329   25.9615   42.6666 H   0  0  0  0  0  0  0  0  0  0  0  0
   57.2413   27.3578   42.1247 H   0  0  0  0  0  0  0  0  0  0  0  0
   59.0338   27.4753   42.1247 H   0  0  0  0  0  0  0  0  0  0  0  0
   59.1800   29.1840   43.2560 H   0  0  0  0  0  0  0  0  0  0  0  0
   58.4960   29.5100   44.7760 H   0  0  0  0  0  0  0  0  0  0  0  0
   60.4312   27.3940   44.8768 H   0  0  0  0  0  0  0  0  0  0  0  0
   61.0816   28.9916   44.3262 H   0  0  0  0  0  0  0  0  0  0  0  0
   60.7945   28.2529   46.9630 H   0  0  0  0  0  0  0  0  0  0  0  0
   60.8142   29.9537   46.3608 H   0  0  0  0  0  0  0  0  0  0  0  0
   58.3320   29.4910   45.9970 H   0  0  0  0  0  0  0  0  0  0  0  0
   58.0218   30.0774   48.4958 H   0  0  0  0  0  0  0  0  0  0  0  0
   59.8178   30.2353   48.3868 H   0  0  0  0  0  0  0  0  0  0  0  0
   57.7806   32.0828   47.4984 H   0  0  0  0  0  0  0  0  0  0  0  0
   59.5788   32.2481   47.4424 H   0  0  0  0  0  0  0  0  0  0  0  0
   58.0330   30.7200   45.4570 H   0  0  0  0  0  0  0  0  0  0  0  0
   57.2933   33.0671   45.6620 H   0  0  0  0  0  0  0  0  0  0  0  0
   58.9527   33.4908   45.0937 H   0  0  0  0  0  0  0  0  0  0  0  0
   56.6866   32.7514   43.5124 H   0  0  0  0  0  0  0  0  0  0  0  0
   58.3804   33.0602   42.9693 H   0  0  0  0  0  0  0  0  0  0  0  0
   58.1110   30.5250   44.1810 H   0  0  0  0  0  0  0  0  0  0  0  0
   56.0298   31.3399   42.3714 H   0  0  0  0  0  0  0  0  0  0  0  0
   56.8761   29.8068   41.9412 H   0  0  0  0  0  0  0  0  0  0  0  0
   54.8075   30.0763   43.8037 H   0  0  0  0  0  0  0  0  0  0  0  0
   55.9510   28.6867   43.6663 H   0  0  0  0  0  0  0  0  0  0  0  0
   56.6010   31.1040   45.2060 H   0  0  0  0  0  0  0  0  0  0  0  0
   57.3290   29.5930   45.2490 H   0  0  0  0  0  0  0  0  0  0  0  0
  1  2  1  0
  2  3  1  0
  2  4  1  0
  4  5  1  0
  5  6  1  0
  6  7  1  0
  7  8  1  0
  8  9  1  0
  9 10  1  0
 10 11  1  0
 11 12  1  0
 12 13  1  0
 13 14  1  0
 14 15  1  0
 15 16  1  0
  1 17  1  0
  1 18  1  0
  1 19  1  0
  2 20  1  0
  3 21  1  0
  3 22  1  0
  3 23  1  0
  4 24  1  0
  4 25  1  0
  5 26  1  0
  5 27  1  0
  6 28  1  0
  6 29  1  0
  7 30  1  0
  8 31  1  0
  8 32  1  0
  9 33  1  0
  9 34  1  0
 10 35  1  0
 11 36  1  0
 11 37  1  0
 12 38  1  0
 12 39  1  0
 13 40  1  0
 14 41  1  0
 14 42  1  0
 15 43  1  0
 15 44  1  0
 16 45  1  0
 16 46  1  0
M  CHG  1   4   1
M  END
>  <UniqueID>  (27) 
26

>  <SMILES>  (27) 
CC(C)[NH2+]CCNCCNCCNCCN

>  <Energy>  (27) 
24.29841268443858

>  <Genealogy>  (27) 
CC(C)[NH2+]CCNCCNCCNCCN (protonated)
CC(C)[NH2+]CCNCCNCCNCCN (3D coordinates assigned)
CC(C)[NH2+]CCNCCNCCNCCN (optimized conformer: 24.29841268443858 kcal/mol)

>  <smiles>  (27) 
CC(C)NCCNCCNCCNCCN

>  <score_type>  (27) 
oracle

>  <origin>  (27) 
adg

>  <m_score__min__energy>  (27) 
-1.54

>  <m_primary>  (27) 
energy

$$$$
27:0
     RDKit          3D

 52 55  0  0  0  0  0  0  0  0999 V2000
   63.1340   33.4760   46.7550 C   0  0  0  0  0  0  0  0  0  0  0  0
   63.2620   32.2100   47.6040 C   0  0  0  0  0  0  0  0  0  0  0  0
   62.1010   31.3130   47.4440 N   0  0  0  0  0  0  0  0  0  0  0  0
   61.3950   31.0370   48.7040 C   0  0  0  0  0  0  0  0  0  0  0  0
   60.2160   30.0670   48.5130 C   0  0  0  0  0  0  0  0  0  0  0  0
   58.9620   30.8050   48.2950 N   0  0  0  0  0  0  0  0  0  0  0  0
   58.8770   31.2720   46.9270 C   0  0  0  0  0  0  0  0  0  0  0  0
   59.1160   32.6350   46.5770 C   0  0  0  0  0  0  0  0  0  0  0  0
   59.6000   33.5660   47.5250 C   0  0  0  0  0  0  0  0  0  0  0  0
   59.8550   34.8880   47.1680 C   0  0  0  0  0  0  0  0  0  0  0  0
   59.6500   35.3120   45.8620 C   0  0  0  0  0  0  0  0  0  0  0  0
   59.1810   34.4220   44.9000 C   0  0  0  0  0  0  0  0  0  0  0  0
   58.8860   33.0760   45.2280 C   0  0  0  0  0  0  0  0  0  0  0  0
   58.4050   32.1940   44.2740 N   0  0  0  0  0  0  0  0  0  0  0  0
   58.0190   32.6530   42.9260 C   0  0  0  0  0  0  0  0  0  0  0  0
   58.3170   30.8670   44.5970 C   0  0  0  0  0  0  0  0  0  0  0  0
   58.0280   29.8590   43.7400 N   0  0  0  0  0  0  0  0  0  0  0  0
   58.0780   28.7390   44.4790 C   0  0  0  0  0  0  0  0  0  0  0  0
   57.8830   27.4390   44.0160 C   0  0  0  0  0  0  0  0  0  0  0  0
   58.0280   26.3820   44.9260 C   0  0  0  0  0  0  0  0  0  0  0  0
   58.3800   26.6280   46.2700 C   0  0  0  0  0  0  0  0  0  0  0  0
   58.5330   25.5280   47.1250 O   0  0  0  0  0  0  0  0  0  0  0  0
   57.4760   24.6570   47.5170 C   0  0  0  0  0  0  0  0  0  0  0  0
   58.5740   27.9600   46.7120 C   0  0  0  0  0  0  0  0  0  0  0  0
   58.3990   29.0060   45.7940 C   0  0  0  0  0  0  0  0  0  0  0  0
   58.5520   30.3940   45.8760 C   0  0  0  0  0  0  0  0  0  0  0  0
   63.0454   34.3521   47.4142 H   0  0  0  0  0  0  0  0  0  0  0  0
   64.0259   33.5835   46.1201 H   0  0  0  0  0  0  0  0  0  0  0  0
   62.2387   33.4028   46.1201 H   0  0  0  0  0  0  0  0  0  0  0  0
   64.1713   31.6703   47.3008 H   0  0  0  0  0  0  0  0  0  0  0  0
   63.3111   32.5145   48.6599 H   0  0  0  0  0  0  0  0  0  0  0  0
   61.4250   31.6700   46.7270 H   0  0  0  0  0  0  0  0  0  0  0  0
   62.1053   30.5941   49.4177 H   0  0  0  0  0  0  0  0  0  0  0  0
   60.9901   31.9889   49.0781 H   0  0  0  0  0  0  0  0  0  0  0  0
   60.4137   29.4264   47.6409 H   0  0  0  0  0  0  0  0  0  0  0  0
   60.1118   29.4556   49.4215 H   0  0  0  0  0  0  0  0  0  0  0  0
   58.8920   31.6030   48.9650 H   0  0  0  0  0  0  0  0  0  0  0  0
   58.1290   30.2190   48.5180 H   0  0  0  0  0  0  0  0  0  0  0  0
   59.7779   33.2411   48.5607 H   0  0  0  0  0  0  0  0  0  0  0  0
   60.2202   35.5989   47.9238 H   0  0  0  0  0  0  0  0  0  0  0  0
   59.8592   36.3561   45.5862 H   0  0  0  0  0  0  0  0  0  0  0  0
   59.0369   34.7702   43.8666 H   0  0  0  0  0  0  0  0  0  0  0  0
   57.3132   33.4923   43.0126 H   0  0  0  0  0  0  0  0  0  0  0  0
   58.9154   32.9825   42.3802 H   0  0  0  0  0  0  0  0  0  0  0  0
   57.5406   31.8264   42.3802 H   0  0  0  0  0  0  0  0  0  0  0  0
   57.8550   29.9010   42.7110 H   0  0  0  0  0  0  0  0  0  0  0  0
   57.6223   27.2472   42.9647 H   0  0  0  0  0  0  0  0  0  0  0  0
   57.8653   25.3480   44.5878 H   0  0  0  0  0  0  0  0  0  0  0  0
   57.4242   24.6143   48.6149 H   0  0  0  0  0  0  0  0  0  0  0  0
   56.5227   25.0352   47.1194 H   0  0  0  0  0  0  0  0  0  0  0  0
   57.6650   23.6490   47.1194 H   0  0  0  0  0  0  0  0  0  0  0  0
   58.8562   28.1697   47.7543 H   0  0  0  0  0  0  0  0  0  0  0  0
  1  2  1  0
  2  3  1  0
  3  4  1  0
  4  5  1  0
  5  6  1  0
  6  7  1  0
  7  8  2  0
  8  9  1  0
  9 10  2  0
 10 11  1  0
 11 12  2  0
 12 13  1  0
 13 14  2  0
 14 15  1  0
 14 16  1  0
 16 17  1  0
 17 18  1  0
 18 19  2  0
 19 20  1  0
 20 21  2  0
 21 22  1  0
 22 23  1  0
 21 24  1  0
 24 25  2  0
 25 26  1  0
 26  7  1  0
 13  8  1  0
 26 16  2  0
 25 18  1  0
  1 27  1  0
  1 28  1  0
  1 29  1  0
  2 30  1  0
  2 31  1  0
  3 32  1  0
  4 33  1  0
  4 34  1  0
  5 35  1  0
  5 36  1  0
  6 37  1  0
  6 38  1  0
  9 39  1  0
 10 40  1  0
 11 41  1  0
 12 42  1  0
 15 43  1  0
 15 44  1  0
 15 45  1  0
 17 46  1  0
 19 47  1  0
 20 48  1  0
 23 49  1  0
 23 50  1  0
 23 51  1  0
 24 52  1  0
M  CHG  2   6   1  14   1
M  END
>  <UniqueID>  (28) 
27

>  <SMILES>  (28) 
CCNCC[NH2+]c1c2ccccc2[n+](C)c2[nH]c3ccc(OC)cc3c12

>  <Energy>  (28) 
110.8840171595778

>  <Genealogy>  (28) 
CCNCC[NH2+]c1c2ccccc2[n+](C)c2[nH]c3ccc(OC)cc3c12 (protonated)
CCNCC[NH2+]c1c2ccccc2[n+](C)c2[nH]c3ccc(OC)cc3c12 (3D coordinates assigned)
CCNCC[NH2+]c1c2ccccc2[n+](C)c2[nH]c3ccc(OC)cc3c12 (optimized conformer: 110.8840171595778 kcal/mol)

>  <smiles>  (28) 
CCNCCNc1c2ccccc2[n+](C)c2[nH]c3ccc(OC)cc3c12

>  <score_type>  (28) 
oracle

>  <origin>  (28) 
adg

>  <m_score__min__energy>  (28) 
-4.2999999999999998

>  <m_primary>  (28) 
energy

$$$$
28:0
     RDKit          3D

 60 62  0  0  0  0  0  0  0  0999 V2000
   63.2840   33.8410   46.4100 C   0  0  0  0  0  0  0  0  0  0  0  0
   62.7200   33.8380   47.8310 C   0  0  0  0  0  0  0  0  0  0  0  0
   63.1430   32.6230   48.5670 N   0  0  0  0  0  0  0  0  0  0  0  0
   64.5380   32.7650   49.0330 C   0  0  0  0  0  0  0  0  0  0  0  0
   62.2390   32.3620   49.7130 C   0  0  0  0  0  0  0  0  0  0  0  0
   61.8050   30.8870   49.7480 C   0  0  0  0  0  0  0  0  0  0  0  0
   60.5240   30.6370   48.9410 C   0  0  0  0  0  0  0  0  0  0  0  0
   60.7840   30.7110   47.5020 N   0  0  0  0  0  0  0  0  0  0  0  0
   59.7050   30.6700   46.5490 C   0  0  0  0  0  0  0  0  0  0  0  0
   59.2070   31.8590   45.9860 C   0  0  0  0  0  0  0  0  0  0  0  0
   59.6930   33.1180   46.3980 C   0  0  0  0  0  0  0  0  0  0  0  0
   59.1790   34.3010   45.8580 C   0  0  0  0  0  0  0  0  0  0  0  0
   59.6700   35.6340   46.3420 C   0  0  0  0  0  0  0  0  0  0  0  0
   58.1400   34.2360   44.9300 C   0  0  0  0  0  0  0  0  0  0  0  0
   57.6540   33.0010   44.4990 C   0  0  0  0  0  0  0  0  0  0  0  0
   58.2010   31.7870   44.9860 C   0  0  0  0  0  0  0  0  0  0  0  0
   57.7700   30.5590   44.5220 N   0  0  0  0  0  0  0  0  0  0  0  0
   56.9650   30.4760   43.2820 C   0  0  0  0  0  0  0  0  0  0  0  0
   58.1090   29.4040   45.2040 C   0  0  0  0  0  0  0  0  0  0  0  0
   57.4670   28.1660   44.9420 C   0  0  0  0  0  0  0  0  0  0  0  0
   57.8320   26.9840   45.6120 C   0  0  0  0  0  0  0  0  0  0  0  0
   57.1710   25.7280   45.3150 N   0  0  0  0  0  0  0  0  0  0  0  0
   56.2740   25.1080   46.2980 C   0  0  0  0  0  0  0  0  0  0  0  0
   57.4040   25.0470   44.0360 C   0  0  0  0  0  0  0  0  0  0  0  0
   58.8400   27.0500   46.5840 C   0  0  0  0  0  0  0  0  0  0  0  0
   59.4560   28.2590   46.8890 C   0  0  0  0  0  0  0  0  0  0  0  0
   59.1050   29.4430   46.2130 C   0  0  0  0  0  0  0  0  0  0  0  0
   64.3832   33.8468   46.4518 H   0  0  0  0  0  0  0  0  0  0  0  0
   62.9421   32.9410   45.8779 H   0  0  0  0  0  0  0  0  0  0  0  0
   62.9325   34.7373   45.8779 H   0  0  0  0  0  0  0  0  0  0  0  0
   63.0852   34.7276   48.3650 H   0  0  0  0  0  0  0  0  0  0  0  0
   61.6216   33.8481   47.7725 H   0  0  0  0  0  0  0  0  0  0  0  0
   64.5588   32.7671   50.1328 H   0  0  0  0  0  0  0  0  0  0  0  0
   65.1378   31.9233   48.6566 H   0  0  0  0  0  0  0  0  0  0  0  0
   64.9559   33.7103   48.6566 H   0  0  0  0  0  0  0  0  0  0  0  0
   62.7647   32.6046   50.6483 H   0  0  0  0  0  0  0  0  0  0  0  0
   61.3419   32.9887   49.6014 H   0  0  0  0  0  0  0  0  0  0  0  0
   62.6134   30.2704   49.3282 H   0  0  0  0  0  0  0  0  0  0  0  0
   61.5997   30.6216   50.7956 H   0  0  0  0  0  0  0  0  0  0  0  0
   60.1353   29.6373   49.1848 H   0  0  0  0  0  0  0  0  0  0  0  0
   59.7892   31.4124   49.2033 H   0  0  0  0  0  0  0  0  0  0  0  0
   61.7640   30.5940   47.1620 H   0  0  0  0  0  0  0  0  0  0  0  0
   60.4886   33.1697   47.1558 H   0  0  0  0  0  0  0  0  0  0  0  0
   59.6744   35.6458   47.4419 H   0  0  0  0  0  0  0  0  0  0  0  0
   60.6906   35.8062   45.9694 H   0  0  0  0  0  0  0  0  0  0  0  0
   59.0050   36.4270   45.9694 H   0  0  0  0  0  0  0  0  0  0  0  0
   57.7008   35.1641   44.5353 H   0  0  0  0  0  0  0  0  0  0  0  0
   56.8321   32.9688   43.7686 H   0  0  0  0  0  0  0  0  0  0  0  0
   55.9017   30.3664   43.5418 H   0  0  0  0  0  0  0  0  0  0  0  0
   57.1055   31.3934   42.6915 H   0  0  0  0  0  0  0  0  0  0  0  0
   57.2897   29.6066   42.6915 H   0  0  0  0  0  0  0  0  0  0  0  0
   56.6613   28.1294   44.1940 H   0  0  0  0  0  0  0  0  0  0  0  0
   56.6212   25.3480   47.3138 H   0  0  0  0  0  0  0  0  0  0  0  0
   55.2537   25.4946   46.1584 H   0  0  0  0  0  0  0  0  0  0  0  0
   56.2750   24.0169   46.1584 H   0  0  0  0  0  0  0  0  0  0  0  0
   57.7548   24.0217   44.2251 H   0  0  0  0  0  0  0  0  0  0  0  0
   56.4661   25.0137   43.4621 H   0  0  0  0  0  0  0  0  0  0  0  0
   58.1657   25.5952   43.4621 H   0  0  0  0  0  0  0  0  0  0  0  0
   59.1473   26.1350   47.1116 H   0  0  0  0  0  0  0  0  0  0  0  0
   60.2295   28.2906   47.6705 H   0  0  0  0  0  0  0  0  0  0  0  0
  1  2  1  0
  2  3  1  0
  3  4  1  0
  3  5  1  0
  5  6  1  0
  6  7  1  0
  7  8  1  0
  8  9  1  0
  9 10  2  0
 10 11  1  0
 11 12  2  0
 12 13  1  0
 12 14  1  0
 14 15  2  0
 15 16  1  0
 16 17  2  0
 17 18  1  0
 17 19  1  0
 19 20  2  0
 20 21  1  0
 21 22  1  0
 22 23  1  0
 22 24  1  0
 21 25  2  0
 25 26  1  0
 26 27  2  0
 27  9  1  0
 16 10  1  0
 27 19  1  0
  1 28  1  0
  1 29  1  0
  1 30  1  0
  2 31  1  0
  2 32  1  0
  4 33  1  0
  4 34  1  0
  4 35  1  0
  5 36  1  0
  5 37  1  0
  6 38  1  0
  6 39  1  0
  7 40  1  0
  7 41  1  0
  8 42  1  0
 11 43  1  0
 13 44  1  0
 13 45  1  0
 13 46  1  0
 14 47  1  0
 15 48  1  0
 18 49  1  0
 18 50  1  0
 18 51  1  0
 20 52  1  0
 23 53  1  0
 23 54  1  0
 23 55  1  0
 24 56  1  0
 24 57  1  0
 24 58  1  0
 25 59  1  0
 26 60  1  0
M  CHG  1  17   1
M  END
>  <UniqueID>  (29) 
28

>  <SMILES>  (29) 
CCN(C)CCCNc1c2cc(C)ccc2[n+](C)c2cc(N(C)C)ccc12

>  <Energy>  (29) 
83.99971020241458

>  <Genealogy>  (29) 
CCN(C)CCCNc1c2cc(C)ccc2[n+](C)c2cc(N(C)C)ccc12 (3D coordinates assigned)
CCN(C)CCCNc1c2cc(C)ccc2[n+](C)c2cc(N(C)C)ccc12 (optimized conformer: 83.99971020241458 kcal/mol)

>  <smiles>  (29) 
CCN(C)CCCNc1c2cc(C)ccc2[n+](C)c2cc(N(C)C)ccc12

>  <score_type>  (29) 
oracle

>  <origin>  (29) 
adg

>  <m_score__min__energy>  (29) 
-5.7300000000000004

>  <m_primary>  (29) 
energy

$$$$
29:0
     RDKit          3D

 50 51  0  0  0  0  0  0  0  0999 V2000
   56.8590   30.3750   43.9890 C   0  0  0  0  0  0  0  0  0  0  0  0
   57.0110   31.0620   45.2270 O   0  0  0  0  0  0  0  0  0  0  0  0
   57.7540   32.2380   45.4120 C   0  0  0  0  0  0  0  0  0  0  0  0
   57.4030   33.4230   44.7350 C   0  0  0  0  0  0  0  0  0  0  0  0
   58.1450   34.5870   44.9080 C   0  0  0  0  0  0  0  0  0  0  0  0
   59.2420   34.5970   45.7620 C   0  0  0  0  0  0  0  0  0  0  0  0
   59.6090   33.4400   46.4680 C   0  0  0  0  0  0  0  0  0  0  0  0
   60.8060   33.5000   47.4070 C   0  0  0  0  0  0  0  0  0  0  0  0
   60.5990   32.7980   48.7010 N   0  0  1  0  0  0  0  0  0  0  0  0
   61.6620   31.8070   48.9650 C   0  0  0  0  0  0  0  0  0  0  0  0
   60.4450   33.7480   49.8280 C   0  0  0  0  0  0  0  0  0  0  0  0
   59.3570   33.3200   50.7710 C   0  0  0  0  0  0  0  0  0  0  0  0
   59.1130   33.8550   52.0220 C   0  0  0  0  0  0  0  0  0  0  0  0
   58.0420   33.1510   52.5260 C   0  0  0  0  0  0  0  0  0  0  0  0
   57.7040   32.2320   51.5510 C   0  0  0  0  0  0  0  0  0  0  0  0
   56.5780   31.2360   51.6280 C   0  0  0  0  0  0  0  0  0  0  0  0
   57.0330   29.8520   51.8850 N   0  0  0  0  0  0  0  0  0  0  0  0
   56.4220   29.2770   53.0950 C   0  0  0  0  0  0  0  0  0  0  0  0
   58.4990   29.7450   51.9340 C   0  0  0  0  0  0  0  0  0  0  0  0
   58.5050   32.3550   50.5170 O   0  0  0  0  0  0  0  0  0  0  0  0
   58.8780   32.2430   46.2840 C   0  0  0  0  0  0  0  0  0  0  0  0
   59.3150   31.1000   46.9810 O   0  0  0  0  0  0  0  0  0  0  0  0
   59.6970   29.8490   46.4210 C   0  0  0  0  0  0  0  0  0  0  0  0
   56.6251   29.3178   44.1827 H   0  0  0  0  0  0  0  0  0  0  0  0
   56.0403   30.8323   43.4140 H   0  0  0  0  0  0  0  0  0  0  0  0
   57.7942   30.4443   43.4140 H   0  0  0  0  0  0  0  0  0  0  0  0
   56.5327   33.4277   44.0623 H   0  0  0  0  0  0  0  0  0  0  0  0
   57.8628   35.5024   44.3673 H   0  0  0  0  0  0  0  0  0  0  0  0
   59.8279   35.5197   45.8858 H   0  0  0  0  0  0  0  0  0  0  0  0
   61.6668   33.0408   46.8989 H   0  0  0  0  0  0  0  0  0  0  0  0
   60.9692   34.5615   47.6449 H   0  0  0  0  0  0  0  0  0  0  0  0
   59.7000   32.2660   48.6040 H   0  0  0  0  0  0  0  0  0  0  0  0
   61.7903   31.6874   50.0509 H   0  0  0  0  0  0  0  0  0  0  0  0
   61.3812   30.8409   48.5203 H   0  0  0  0  0  0  0  0  0  0  0  0
   62.6061   32.1547   48.5203 H   0  0  0  0  0  0  0  0  0  0  0  0
   61.3946   33.8025   50.3806 H   0  0  0  0  0  0  0  0  0  0  0  0
   60.1729   34.7300   49.4138 H   0  0  0  0  0  0  0  0  0  0  0  0
   59.6605   34.6731   52.5129 H   0  0  0  0  0  0  0  0  0  0  0  0
   57.5561   33.2913   53.5028 H   0  0  0  0  0  0  0  0  0  0  0  0
   55.9014   31.5371   52.4414 H   0  0  0  0  0  0  0  0  0  0  0  0
   56.0774   31.2361   50.6485 H   0  0  0  0  0  0  0  0  0  0  0  0
   56.8905   29.7179   53.9873 H   0  0  0  0  0  0  0  0  0  0  0  0
   55.3440   29.4958   53.1008 H   0  0  0  0  0  0  0  0  0  0  0  0
   56.5751   28.1877   53.1008 H   0  0  0  0  0  0  0  0  0  0  0  0
   58.8300   29.7208   52.9827 H   0  0  0  0  0  0  0  0  0  0  0  0
   58.8163   28.8213   51.4280 H   0  0  0  0  0  0  0  0  0  0  0  0
   58.9471   30.6128   51.4280 H   0  0  0  0  0  0  0  0  0  0  0  0
   59.9146   29.1362   47.2301 H   0  0  0  0  0  0  0  0  0  0  0  0
   58.8768   29.4595   45.8000 H   0  0  0  0  0  0  0  0  0  0  0  0
   60.5948   29.9841   45.8000 H   0  0  0  0  0  0  0  0  0  0  0  0
  1  2  1  0
  2  3  1  0
  3  4  2  0
  4  5  1  0
  5  6  2  0
  6  7  1  0
  7  8  1  0
  8  9  1  0
  9 10  1  0
  9 11  1  0
 11 12  1  0
 12 13  2  0
 13 14  1  0
 14 15  2  0
 15 16  1  0
 16 17  1  0
 17 18  1  0
 17 19  1  0
 15 20  1  0
  7 21  2  0
 21 22  1  0
 22 23  1  0
 21  3  1  0
 20 12  1  0
  1 24  1  0
  1 25  1  0
  1 26  1  0
  4 27  1  0
  5 28  1  0
  6 29  1  0
  8 30  1  0
  8 31  1  0
  9 32  1  6
 10 33  1  0
 10 34  1  0
 10 35  1  0
 11 36  1  0
 11 37  1  0
 13 38  1  0
 14 39  1  0
 16 40  1  0
 16 41  1  0
 18 42  1  0
 18 43  1  0
 18 44  1  0
 19 45  1  0
 19 46  1  0
 19 47  1  0
 23 48  1  0
 23 49  1  0
 23 50  1  0
M  CHG  1   9   1
M  END
>  <UniqueID>  (30) 
29

>  <SMILES>  (30) 
COc1cccc(C[N@@H+](C)Cc2ccc(CN(C)C)o2)c1OC

>  <Energy>  (30) 
81.36404460906695

>  <Genealogy>  (30) 
COc1cccc(C[NH+](C)Cc2ccc(CN(C)C)o2)c1OC (protonated)
COc1cccc(C[N@@H+](C)Cc2ccc(CN(C)C)o2)c1OC (chirality)
COc1cccc(C[N@@H+](C)Cc2ccc(CN(C)C)o2)c1OC (3D coordinates assigned)
COc1cccc(C[N@@H+](C)Cc2ccc(CN(C)C)o2)c1OC (optimized conformer: 81.36404460906695 kcal/mol)

>  <smiles>  (30) 
COc1cccc(CN(C)Cc2ccc(CN(C)C)o2)c1OC

>  <score_type>  (30) 
oracle

>  <origin>  (30) 
adg

>  <m_score__min__energy>  (30) 
-4.2599999999999998

>  <m_primary>  (30) 
energy

$$$$
