0:0
     RDKit          3D

 47 49  0  0  0  0  0  0  0  0999 V2000
   54.8310   22.3060   45.5530 C   0  0  0  0  0  0  0  0  0  0  0  0
   55.6680   23.4190   46.0120 N   0  0  0  0  0  0  0  0  0  0  0  0
   57.0340   23.1860   46.4830 C   0  0  0  0  0  0  0  0  0  0  0  0
   55.1480   24.7600   45.9950 C   0  0  0  0  0  0  0  0  0  0  0  0
   53.9650   24.9710   45.6130 O   0  0  0  0  0  0  0  0  0  0  0  0
   55.9460   25.8170   46.4570 O   0  0  0  0  0  0  0  0  0  0  0  0
   56.8160   26.5840   45.6680 C   0  0  0  0  0  0  0  0  0  0  0  0
   57.4710   26.0560   44.5400 C   0  0  0  0  0  0  0  0  0  0  0  0
   58.3400   26.8560   43.7930 C   0  0  0  0  0  0  0  0  0  0  0  0
   58.5710   28.1810   44.1660 C   0  0  0  0  0  0  0  0  0  0  0  0
   57.9370   28.7180   45.2980 C   0  0  0  0  0  0  0  0  0  0  0  0
   58.1870   30.0810   45.6970 N   0  0  0  0  0  0  0  0  0  0  0  0
   59.2280   30.3390   46.5450 C   0  0  0  0  0  0  0  0  0  0  0  0
   59.5120   31.6430   46.9510 C   0  0  0  0  0  0  0  0  0  0  0  0
   58.7250   32.7010   46.4960 C   0  0  0  0  0  0  0  0  0  0  0  0
   59.0380   34.0000   46.9300 O   0  0  0  0  0  0  0  0  0  0  0  0
   60.2030   34.7360   46.5570 C   0  0  0  0  0  0  0  0  0  0  0  0
   61.4320   34.1640   47.2140 C   0  0  0  0  0  0  0  0  0  0  0  0
   62.5560   33.8140   46.4470 C   0  0  0  0  0  0  0  0  0  0  0  0
   63.6900   33.2750   47.0640 C   0  0  0  0  0  0  0  0  0  0  0  0
   63.7050   33.0730   48.4460 C   0  0  0  0  0  0  0  0  0  0  0  0
   62.5860   33.4070   49.2140 C   0  0  0  0  0  0  0  0  0  0  0  0
   61.4510   33.9460   48.6010 C   0  0  0  0  0  0  0  0  0  0  0  0
   57.6580   32.4260   45.6270 C   0  0  0  0  0  0  0  0  0  0  0  0
   57.3980   31.1070   45.2400 C   0  0  0  0  0  0  0  0  0  0  0  0
   56.4190   30.8750   44.4780 O   0  0  0  0  0  0  0  0  0  0  0  0
   57.0690   27.9080   46.0490 C   0  0  0  0  0  0  0  0  0  0  0  0
   54.4266   21.7682   46.4232 H   0  0  0  0  0  0  0  0  0  0  0  0
   54.0014   22.6972   44.9457 H   0  0  0  0  0  0  0  0  0  0  0  0
   55.4371   21.6176   44.9457 H   0  0  0  0  0  0  0  0  0  0  0  0
   57.0472   23.1837   47.5829 H   0  0  0  0  0  0  0  0  0  0  0  0
   57.3897   22.2142   46.1100 H   0  0  0  0  0  0  0  0  0  0  0  0
   57.6917   23.9849   46.1100 H   0  0  0  0  0  0  0  0  0  0  0  0
   57.2985   25.0103   44.2453 H   0  0  0  0  0  0  0  0  0  0  0  0
   58.8437   26.4400   42.9080 H   0  0  0  0  0  0  0  0  0  0  0  0
   59.2523   28.8069   43.5710 H   0  0  0  0  0  0  0  0  0  0  0  0
   59.8490   29.5083   46.9115 H   0  0  0  0  0  0  0  0  0  0  0  0
   60.3559   31.8368   47.6294 H   0  0  0  0  0  0  0  0  0  0  0  0
   60.3239   34.6901   45.4646 H   0  0  0  0  0  0  0  0  0  0  0  0
   60.0810   35.7785   46.8859 H   0  0  0  0  0  0  0  0  0  0  0  0
   62.5443   33.9643   45.3574 H   0  0  0  0  0  0  0  0  0  0  0  0
   64.5705   33.0101   46.4603 H   0  0  0  0  0  0  0  0  0  0  0  0
   64.5979   32.6508   48.9302 H   0  0  0  0  0  0  0  0  0  0  0  0
   62.5984   33.2456   50.3020 H   0  0  0  0  0  0  0  0  0  0  0  0
   60.5694   34.2003   49.2076 H   0  0  0  0  0  0  0  0  0  0  0  0
   57.0277   33.2454   45.2511 H   0  0  0  0  0  0  0  0  0  0  0  0
   56.5825   28.3181   46.9463 H   0  0  0  0  0  0  0  0  0  0  0  0
  1  2  1  0
  2  3  1  0
  2  4  1  0
  4  5  2  0
  4  6  1  0
  6  7  1  0
  7  8  2  0
  8  9  1  0
  9 10  2  0
 10 11  1  0
 11 12  1  0
 12 13  1  0
 13 14  2  0
 14 15  1  0
 15 16  1  0
 16 17  1  0
 17 18  1  0
 18 19  2  0
 19 20  1  0
 20 21  2  0
 21 22  1  0
 22 23  2  0
 15 24  2  0
 24 25  1  0
 25 26  2  0
 11 27  2  0
 27  7  1  0
 25 12  1  0
 23 18  1  0
  1 28  1  0
  1 29  1  0
  1 30  1  0
  3 31  1  0
  3 32  1  0
  3 33  1  0
  8 34  1  0
  9 35  1  0
 10 36  1  0
 13 37  1  0
 14 38  1  0
 17 39  1  0
 17 40  1  0
 19 41  1  0
 20 42  1  0
 21 43  1  0
 22 44  1  0
 23 45  1  0
 24 46  1  0
 27 47  1  0
M  END
>  <UniqueID>  (1) 
1

>  <SMILES>  (1) 
CN(C)C(=O)Oc1cccc(-n2ccc(OCc3ccccc3)cc2=O)c1

>  <Energy>  (1) 
58.81090449082223

>  <Genealogy>  (1) 
CN(C)C(=O)Oc1cccc(-n2ccc(OCc3ccccc3)cc2=O)c1 (3D coordinates assigned)
CN(C)C(=O)Oc1cccc(-n2ccc(OCc3ccccc3)cc2=O)c1 (optimized conformer: 58.81090449082223 kcal/mol)

>  <smiles>  (1) 
CN(C)C(=O)Oc1cccc(-n2ccc(OCc3ccccc3)cc2=O)c1

>  <score_type>  (1) 
oracle

>  <origin>  (1) 
adg

>  <m_score__min__energy>  (1) 
-7.9299999999999997

>  <m_primary>  (1) 
energy

$$$$
1:0
     RDKit          3D

 58 59  0  0  0  0  0  0  0  0999 V2000
   59.6250   35.1150   46.3940 C   0  0  0  0  0  0  0  0  0  0  0  0
   59.3220   34.1990   45.2200 C   0  0  0  0  0  0  0  0  0  0  0  0
   59.4650   32.8430   45.6270 O   0  0  0  0  0  0  0  0  0  0  0  0
   58.5710   32.2210   46.5020 C   0  0  0  0  0  0  0  0  0  0  0  0
   57.5140   32.8040   46.8640 O   0  0  0  0  0  0  0  0  0  0  0  0
   58.8930   30.8930   47.0360 C   0  0  0  0  0  0  0  0  0  0  0  0
   59.7870   30.6760   48.1030 C   0  0  0  0  0  0  0  0  0  0  0  0
   60.5770   31.6730   48.7930 N   0  0  0  0  0  0  0  0  0  0  0  0
   59.9780   32.9540   49.2140 C   0  0  0  0  0  0  0  0  0  0  0  0
   58.8870   32.7430   50.2620 C   0  0  0  0  0  0  0  0  0  0  0  0
   62.0440   31.5400   48.8240 C   0  0  0  0  0  0  0  0  0  0  0  0
   62.6830   31.7080   47.4220 C   0  0  0  0  0  0  0  0  0  0  0  0
   63.6960   32.7880   47.3070 N   0  0  0  0  0  0  0  0  0  0  0  0
   64.0730   33.3660   48.6110 C   0  0  0  0  0  0  0  0  0  0  0  0
   63.3000   33.8390   46.3570 C   0  0  0  0  0  0  0  0  0  0  0  0
   59.9110   29.0160   48.3930 S   0  0  0  0  0  0  0  0  0  0  0  0
   58.8380   28.5630   47.1930 C   0  0  0  0  0  0  0  0  0  0  0  0
   58.4430   27.2710   46.8660 C   0  0  0  0  0  0  0  0  0  0  0  0
   57.5080   27.0930   45.8280 C   0  0  0  0  0  0  0  0  0  0  0  0
   57.0630   25.8240   45.4310 O   0  0  0  0  0  0  0  0  0  0  0  0
   57.4070   25.2010   44.1970 C   0  0  0  0  0  0  0  0  0  0  0  0
   56.9910   28.2190   45.1610 C   0  0  0  0  0  0  0  0  0  0  0  0
   57.3950   29.5310   45.5090 C   0  0  0  0  0  0  0  0  0  0  0  0
   56.8560   30.6610   44.8740 O   0  0  0  0  0  0  0  0  0  0  0  0
   56.7770   30.8350   43.4620 C   0  0  0  0  0  0  0  0  0  0  0  0
   57.7710   31.8970   43.0230 C   0  0  0  0  0  0  0  0  0  0  0  0
   58.3530   29.6860   46.5320 C   0  0  0  0  0  0  0  0  0  0  0  0
   59.4465   34.5753   47.3357 H   0  0  0  0  0  0  0  0  0  0  0  0
   60.6766   35.4343   46.3480 H   0  0  0  0  0  0  0  0  0  0  0  0
   58.9712   35.9984   46.3480 H   0  0  0  0  0  0  0  0  0  0  0  0
   58.2914   34.3720   44.8765 H   0  0  0  0  0  0  0  0  0  0  0  0
   60.0227   34.4112   44.3990 H   0  0  0  0  0  0  0  0  0  0  0  0
   60.7647   33.5936   49.6406 H   0  0  0  0  0  0  0  0  0  0  0  0
   59.5230   33.4290   48.3323 H   0  0  0  0  0  0  0  0  0  0  0  0
   59.3237   32.8275   51.2681 H   0  0  0  0  0  0  0  0  0  0  0  0
   58.1053   33.5066   50.1363 H   0  0  0  0  0  0  0  0  0  0  0  0
   58.4463   31.7430   50.1363 H   0  0  0  0  0  0  0  0  0  0  0  0
   62.4543   32.3102   49.4937 H   0  0  0  0  0  0  0  0  0  0  0  0
   62.2811   30.5270   49.1811 H   0  0  0  0  0  0  0  0  0  0  0  0
   63.1686   30.7579   47.1547 H   0  0  0  0  0  0  0  0  0  0  0  0
   61.8616   31.9909   46.7473 H   0  0  0  0  0  0  0  0  0  0  0  0
   64.5590   32.3390   46.9180 H   0  0  0  0  0  0  0  0  0  0  0  0
   63.6659   32.7419   49.4202 H   0  0  0  0  0  0  0  0  0  0  0  0
   65.1694   33.4029   48.6925 H   0  0  0  0  0  0  0  0  0  0  0  0
   63.6648   34.3842   48.6925 H   0  0  0  0  0  0  0  0  0  0  0  0
   62.9651   34.7277   46.9120 H   0  0  0  0  0  0  0  0  0  0  0  0
   64.1598   34.1043   45.7243 H   0  0  0  0  0  0  0  0  0  0  0  0
   62.4789   33.4709   45.7243 H   0  0  0  0  0  0  0  0  0  0  0  0
   58.8524   26.4052   47.4070 H   0  0  0  0  0  0  0  0  0  0  0  0
   57.9298   24.2542   44.3975 H   0  0  0  0  0  0  0  0  0  0  0  0
   56.4922   24.9997   43.6203 H   0  0  0  0  0  0  0  0  0  0  0  0
   58.0647   25.8680   43.6203 H   0  0  0  0  0  0  0  0  0  0  0  0
   56.2582   28.0773   44.3529 H   0  0  0  0  0  0  0  0  0  0  0  0
   57.0128   29.8839   42.9622 H   0  0  0  0  0  0  0  0  0  0  0  0
   55.7595   31.1519   43.1893 H   0  0  0  0  0  0  0  0  0  0  0  0
   58.2156   32.3721   43.9099 H   0  0  0  0  0  0  0  0  0  0  0  0
   58.5642   31.4302   42.4206 H   0  0  0  0  0  0  0  0  0  0  0  0
   57.2528   32.6576   42.4206 H   0  0  0  0  0  0  0  0  0  0  0  0
  1  2  1  0
  2  3  1  0
  3  4  1  0
  4  5  2  0
  4  6  1  0
  6  7  2  0
  7  8  1  0
  8  9  1  0
  9 10  1  0
  8 11  1  0
 11 12  1  0
 12 13  1  0
 13 14  1  0
 13 15  1  0
  7 16  1  0
 16 17  1  0
 17 18  2  0
 18 19  1  0
 19 20  1  0
 20 21  1  0
 19 22  2  0
 22 23  1  0
 23 24  1  0
 24 25  1  0
 25 26  1  0
 23 27  2  0
 27  6  1  0
 27 17  1  0
  1 28  1  0
  1 29  1  0
  1 30  1  0
  2 31  1  0
  2 32  1  0
  9 33  1  0
  9 34  1  0
 10 35  1  0
 10 36  1  0
 10 37  1  0
 11 38  1  0
 11 39  1  0
 12 40  1  0
 12 41  1  0
 13 42  1  0
 14 43  1  0
 14 44  1  0
 14 45  1  0
 15 46  1  0
 15 47  1  0
 15 48  1  0
 18 49  1  0
 21 50  1  0
 21 51  1  0
 21 52  1  0
 22 53  1  0
 25 54  1  0
 25 55  1  0
 26 56  1  0
 26 57  1  0
 26 58  1  0
M  CHG  1  13   1
M  END
>  <UniqueID>  (2) 
2

>  <SMILES>  (2) 
CCOC(=O)c1c(N(CC)CC[NH+](C)C)sc2cc(OC)cc(OCC)c12

>  <Energy>  (2) 
87.98620133342672

>  <Genealogy>  (2) 
CCOC(=O)c1c(N(CC)CC[NH+](C)C)sc2cc(OC)cc(OCC)c12 (protonated)
CCOC(=O)c1c(N(CC)CC[NH+](C)C)sc2cc(OC)cc(OCC)c12 (3D coordinates assigned)
CCOC(=O)c1c(N(CC)CC[NH+](C)C)sc2cc(OC)cc(OCC)c12 (optimized conformer: 87.98620133342672 kcal/mol)

>  <smiles>  (2) 
CCOC(=O)c1c(N(CC)CCN(C)C)sc2cc(OC)cc(OCC)c12

>  <score_type>  (2) 
oracle

>  <origin>  (2) 
adg

>  <m_score__min__energy>  (2) 
-5.3300000000000001

>  <m_primary>  (2) 
energy

$$$$
2:0
     RDKit          3D

 69 71  0  0  0  0  0  0  0  0999 V2000
   59.6730   35.2740   46.3910 C   0  0  0  0  0  0  0  0  0  0  0  0
   59.7450   33.7430   46.4460 C   0  0  0  0  0  0  0  0  0  0  0  0
   58.3980   33.1180   46.4500 N   0  0  1  0  0  0  0  0  0  0  0  0
   57.9240   32.9780   47.8410 C   0  0  0  0  0  0  0  0  0  0  0  0
   57.4300   33.9220   45.6520 C   0  0  0  0  0  0  0  0  0  0  0  0
   57.4010   33.5080   44.1740 C   0  0  0  0  0  0  0  0  0  0  0  0
   58.2820   32.4220   43.9710 O   0  0  0  0  0  0  0  0  0  0  0  0
   58.1320   31.9300   42.6570 C   0  0  0  0  0  0  0  0  0  0  0  0
   56.9150   31.0050   42.6070 C   0  0  0  0  0  0  0  0  0  0  0  0
   57.1720   29.7800   43.2690 O   0  0  0  0  0  0  0  0  0  0  0  0
   56.4230   29.6880   44.4640 C   0  0  0  0  0  0  0  0  0  0  0  0
   57.3520   29.3050   45.6100 C   0  0  0  0  0  0  0  0  0  0  0  0
   58.6010   30.0650   45.5020 N   0  0  0  0  0  0  0  0  0  0  0  0
   59.7720   29.1930   45.6670 C   0  0  0  0  0  0  0  0  0  0  0  0
   60.4180   29.4290   47.0360 C   0  0  0  0  0  0  0  0  0  0  0  0
   59.7420   30.5030   47.7740 N   0  0  0  0  0  0  0  0  0  0  0  0
   60.3830   31.2340   48.8360 C   0  0  0  0  0  0  0  0  0  0  0  0
   61.5910   31.9150   48.6060 C   0  0  0  0  0  0  0  0  0  0  0  0
   62.2730   31.7850   47.3780 C   0  0  0  0  0  0  0  0  0  0  0  0
   63.4220   32.5280   47.1180 C   0  0  0  0  0  0  0  0  0  0  0  0
   63.9100   33.4100   48.0730 C   0  0  0  0  0  0  0  0  0  0  0  0
   63.2800   33.5210   49.3130 C   0  0  0  0  0  0  0  0  0  0  0  0
   62.1380   32.7390   49.6270 C   0  0  0  0  0  0  0  0  0  0  0  0
   61.5520   32.7760   50.8800 N   0  0  0  0  0  0  0  0  0  0  0  0
   62.2650   33.4110   52.0110 C   0  0  0  0  0  0  0  0  0  0  0  0
   60.3180   32.1870   51.0860 C   0  0  0  0  0  0  0  0  0  0  0  0
   59.5720   32.4120   52.2720 C   0  0  0  0  0  0  0  0  0  0  0  0
   58.3450   31.7820   52.4830 C   0  0  0  0  0  0  0  0  0  0  0  0
   57.8290   30.9200   51.5240 C   0  0  0  0  0  0  0  0  0  0  0  0
   58.5170   30.7090   50.3320 C   0  0  0  0  0  0  0  0  0  0  0  0
   59.7450   31.3600   50.0840 C   0  0  0  0  0  0  0  0  0  0  0  0
   59.6540   35.6772   47.4143 H   0  0  0  0  0  0  0  0  0  0  0  0
   60.5538   35.6636   45.8596 H   0  0  0  0  0  0  0  0  0  0  0  0
   58.7595   35.5793   45.8596 H   0  0  0  0  0  0  0  0  0  0  0  0
   60.3001   33.3827   45.5674 H   0  0  0  0  0  0  0  0  0  0  0  0
   60.2505   33.4621   47.3817 H   0  0  0  0  0  0  0  0  0  0  0  0
   58.4770   32.1510   46.0550 H   0  0  0  0  0  0  0  0  0  0  0  0
   58.7435   33.2200   48.5337 H   0  0  0  0  0  0  0  0  0  0  0  0
   57.0832   33.6662   48.0129 H   0  0  0  0  0  0  0  0  0  0  0  0
   57.5921   31.9435   48.0129 H   0  0  0  0  0  0  0  0  0  0  0  0
   56.4242   33.7863   46.0763 H   0  0  0  0  0  0  0  0  0  0  0  0
   57.7497   34.9735   45.6988 H   0  0  0  0  0  0  0  0  0  0  0  0
   56.3795   33.2080   43.8974 H   0  0  0  0  0  0  0  0  0  0  0  0
   57.7160   34.3570   43.5495 H   0  0  0  0  0  0  0  0  0  0  0  0
   57.9849   32.7707   41.9631 H   0  0  0  0  0  0  0  0  0  0  0  0
   59.0341   31.3731   42.3637 H   0  0  0  0  0  0  0  0  0  0  0  0
   56.0651   31.5045   43.0949 H   0  0  0  0  0  0  0  0  0  0  0  0
   56.6866   30.7886   41.5530 H   0  0  0  0  0  0  0  0  0  0  0  0
   55.9538   30.6592   44.6797 H   0  0  0  0  0  0  0  0  0  0  0  0
   55.6404   28.9232   44.3515 H   0  0  0  0  0  0  0  0  0  0  0  0
   56.8649   29.5347   46.5692 H   0  0  0  0  0  0  0  0  0  0  0  0
   57.5724   28.2285   45.5589 H   0  0  0  0  0  0  0  0  0  0  0  0
   58.6460   30.4930   44.5470 H   0  0  0  0  0  0  0  0  0  0  0  0
   59.4562   28.1421   45.5904 H   0  0  0  0  0  0  0  0  0  0  0  0
   60.5049   29.4230   44.8796 H   0  0  0  0  0  0  0  0  0  0  0  0
   60.3596   28.5007   47.6232 H   0  0  0  0  0  0  0  0  0  0  0  0
   61.4647   29.7271   46.8760 H   0  0  0  0  0  0  0  0  0  0  0  0
   58.7910   30.8050   47.4640 H   0  0  0  0  0  0  0  0  0  0  0  0
   61.8927   31.0883   46.6165 H   0  0  0  0  0  0  0  0  0  0  0  0
   63.9431   32.4161   46.1557 H   0  0  0  0  0  0  0  0  0  0  0  0
   64.7960   34.0231   47.8513 H   0  0  0  0  0  0  0  0  0  0  0  0
   63.6748   34.2260   50.0593 H   0  0  0  0  0  0  0  0  0  0  0  0
   61.8498   33.0413   52.9602 H   0  0  0  0  0  0  0  0  0  0  0  0
   63.3349   33.1611   51.9567 H   0  0  0  0  0  0  0  0  0  0  0  0
   62.1402   34.5025   51.9567 H   0  0  0  0  0  0  0  0  0  0  0  0
   59.9678   33.0948   53.0382 H   0  0  0  0  0  0  0  0  0  0  0  0
   57.7850   31.9685   53.4112 H   0  0  0  0  0  0  0  0  0  0  0  0
   56.8753   30.4032   51.7064 H   0  0  0  0  0  0  0  0  0  0  0  0
   58.0994   30.0281   49.5757 H   0  0  0  0  0  0  0  0  0  0  0  0
  1  2  1  0
  2  3  1  0
  3  4  1  0
  3  5  1  0
  5  6  1  0
  6  7  1  0
  7  8  1  0
  8  9  1  0
  9 10  1  0
 10 11  1  0
 11 12  1  0
 12 13  1  0
 13 14  1  0
 14 15  1  0
 15 16  1  0
 16 17  1  0
 17 18  2  0
 18 19  1  0
 19 20  2  0
 20 21  1  0
 21 22  2  0
 22 23  1  0
 23 24  2  0
 24 25  1  0
 24 26  1  0
 26 27  2  0
 27 28  1  0
 28 29  2  0
 29 30  1  0
 30 31  2  0
 31 17  1  0
 23 18  1  0
 31 26  1  0
  1 32  1  0
  1 33  1  0
  1 34  1  0
  2 35  1  0
  2 36  1  0
  3 37  1  6
  4 38  1  0
  4 39  1  0
  4 40  1  0
  5 41  1  0
  5 42  1  0
  6 43  1  0
  6 44  1  0
  8 45  1  0
  8 46  1  0
  9 47  1  0
  9 48  1  0
 11 49  1  0
 11 50  1  0
 12 51  1  0
 12 52  1  0
 13 53  1  0
 14 54  1  0
 14 55  1  0
 15 56  1  0
 15 57  1  0
 16 58  1  0
 19 59  1  0
 20 60  1  0
 21 61  1  0
 22 62  1  0
 25 63  1  0
 25 64  1  0
 25 65  1  0
 27 66  1  0
 28 67  1  0
 29 68  1  0
 30 69  1  0
M  CHG  2   3   1  24   1
M  END
>  <UniqueID>  (3) 
3

>  <SMILES>  (3) 
CC[N@@H+](C)CCOCCOCCNCCNc1c2ccccc2[n+](C)c2ccccc12

>  <Energy>  (3) 
89.33057581584453

>  <Genealogy>  (3) 
CC[NH+](C)CCOCCOCCNCCNc1c2ccccc2[n+](C)c2ccccc12 (protonated)
CC[N@@H+](C)CCOCCOCCNCCNc1c2ccccc2[n+](C)c2ccccc12 (chirality)
CC[N@@H+](C)CCOCCOCCNCCNc1c2ccccc2[n+](C)c2ccccc12 (3D coordinates assigned)
CC[N@@H+](C)CCOCCOCCNCCNc1c2ccccc2[n+](C)c2ccccc12 (optimized conformer: 89.33057581584453 kcal/mol)

>  <smiles>  (3) 
CCN(C)CCOCCOCCNCCNc1c2ccccc2[n+](C)c2ccccc12

>  <score_type>  (3) 
oracle

>  <origin>  (3) 
adg

>  <m_score__min__energy>  (3) 
-5.2699999999999996

>  <m_primary>  (3) 
energy

$$$$
3:0
     RDKit          3D

 43 45  0  0  0  0  0  0  0  0999 V2000
   60.3090   28.5890   44.5290 C   0  0  0  0  0  0  0  0  0  0  0  0
   59.9380   29.4320   45.7470 C   0  0  0  0  0  0  0  0  0  0  0  0
   58.5410   29.8920   45.6570 N   0  0  0  0  0  0  0  0  0  0  0  0
   57.4130   29.0050   45.8530 C   0  0  0  0  0  0  0  0  0  0  0  0
   56.3480   29.2080   45.2090 O   0  0  0  0  0  0  0  0  0  0  0  0
   57.4480   27.8390   46.8080 C   0  0  0  0  0  0  0  0  0  0  0  0
   57.2040   26.5770   46.1060 N   0  0  0  0  0  0  0  0  0  0  0  0
   56.0040   26.0600   45.7600 C   0  0  0  0  0  0  0  0  0  0  0  0
   54.7820   26.6790   46.0040 O   0  0  0  0  0  0  0  0  0  0  0  0
   56.1670   24.8390   45.1380 C   0  0  0  0  0  0  0  0  0  0  0  0
   57.5170   24.5690   45.1540 C   0  0  0  0  0  0  0  0  0  0  0  0
   58.1270   25.6580   45.7420 C   0  0  0  0  0  0  0  0  0  0  0  0
   59.4960   25.8010   45.9400 O   0  0  0  0  0  0  0  0  0  0  0  0
   58.1380   23.3620   44.5220 C   0  0  0  0  0  0  0  0  0  0  0  0
   57.0770   22.2620   44.3130 C   0  0  0  0  0  0  0  0  0  0  0  0
   55.7710   22.8300   43.7140 C   0  0  0  0  0  0  0  0  0  0  0  0
   55.1270   23.8830   44.6390 C   0  0  0  0  0  0  0  0  0  0  0  0
   58.2900   31.2850   45.3880 C   0  0  0  0  0  0  0  0  0  0  0  0
   58.2800   32.2260   46.4320 C   0  0  0  0  0  0  0  0  0  0  0  0
   58.0220   33.5740   46.1630 C   0  0  0  0  0  0  0  0  0  0  0  0
   57.7730   33.9930   44.8530 C   0  0  0  0  0  0  0  0  0  0  0  0
   57.7820   33.0630   43.8090 C   0  0  0  0  0  0  0  0  0  0  0  0
   58.0400   31.7150   44.0740 C   0  0  0  0  0  0  0  0  0  0  0  0
   60.7313   27.6294   44.8621 H   0  0  0  0  0  0  0  0  0  0  0  0
   59.4094   28.4034   43.9238 H   0  0  0  0  0  0  0  0  0  0  0  0
   61.0535   29.1269   43.9238 H   0  0  0  0  0  0  0  0  0  0  0  0
   60.0605   28.8256   46.6565 H   0  0  0  0  0  0  0  0  0  0  0  0
   60.5980   30.3113   45.7824 H   0  0  0  0  0  0  0  0  0  0  0  0
   58.4365   27.7977   47.2889 H   0  0  0  0  0  0  0  0  0  0  0  0
   56.6583   27.9792   47.5608 H   0  0  0  0  0  0  0  0  0  0  0  0
   58.5670   23.6421   43.5486 H   0  0  0  0  0  0  0  0  0  0  0  0
   58.9271   22.9770   45.1846 H   0  0  0  0  0  0  0  0  0  0  0  0
   57.4819   21.5025   43.6280 H   0  0  0  0  0  0  0  0  0  0  0  0
   56.8408   21.8243   45.2942 H   0  0  0  0  0  0  0  0  0  0  0  0
   55.9980   23.2985   42.7450 H   0  0  0  0  0  0  0  0  0  0  0  0
   55.0600   21.9992   43.5946 H   0  0  0  0  0  0  0  0  0  0  0  0
   54.3613   24.4393   44.0784 H   0  0  0  0  0  0  0  0  0  0  0  0
   54.6671   23.3726   45.4981 H   0  0  0  0  0  0  0  0  0  0  0  0
   58.4758   31.9010   47.4645 H   0  0  0  0  0  0  0  0  0  0  0  0
   58.0150   34.3060   46.9841 H   0  0  0  0  0  0  0  0  0  0  0  0
   57.5701   35.0536   44.6436 H   0  0  0  0  0  0  0  0  0  0  0  0
   57.5858   33.3925   42.7780 H   0  0  0  0  0  0  0  0  0  0  0  0
   58.0473   30.9870   43.2494 H   0  0  0  0  0  0  0  0  0  0  0  0
  1  2  1  0
  2  3  1  0
  3  4  1  0
  4  5  2  0
  4  6  1  0
  6  7  1  0
  7  8  1  0
  8  9  1  0
  8 10  2  0
 10 11  1  0
 11 12  2  0
 12 13  1  0
 11 14  1  0
 14 15  1  0
 15 16  1  0
 16 17  1  0
  3 18  1  0
 18 19  2  0
 19 20  1  0
 20 21  2  0
 21 22  1  0
 22 23  2  0
 12  7  1  0
 23 18  1  0
 17 10  1  0
  1 24  1  0
  1 25  1  0
  1 26  1  0
  2 27  1  0
  2 28  1  0
  6 29  1  0
  6 30  1  0
 14 31  1  0
 14 32  1  0
 15 33  1  0
 15 34  1  0
 16 35  1  0
 16 36  1  0
 17 37  1  0
 17 38  1  0
 19 39  1  0
 20 40  1  0
 21 41  1  0
 22 42  1  0
 23 43  1  0
M  CHG  2   9  -1  13  -1
M  END
>  <UniqueID>  (4) 
4

>  <SMILES>  (4) 
CCN(C(=O)Cn1c([O-])c2c(c1[O-])CCCC2)c1ccccc1

>  <Energy>  (4) 
75.09104620606028

>  <Genealogy>  (4) 
CCN(C(=O)Cn1c([O-])c2c(c1[O-])CCCC2)c1ccccc1 (protonated)
CCN(C(=O)Cn1c([O-])c2c(c1[O-])CCCC2)c1ccccc1 (3D coordinates assigned)
CCN(C(=O)Cn1c([O-])c2c(c1[O-])CCCC2)c1ccccc1 (nonaromatic ring conformer: 75.09104620606028 kcal/mol)

>  <smiles>  (4) 
CCN(C(=O)Cn1c(O)c2c(c1O)CCCC2)c1ccccc1

>  <score_type>  (4) 
oracle

>  <origin>  (4) 
adg

>  <m_score__min__energy>  (4) 
-12.300000000000001

>  <m_primary>  (4) 
energy

$$$$
4:0
     RDKit          3D

 38 40  0  0  0  0  0  0  0  0999 V2000
   63.8290   33.4010   48.0080 C   0  0  0  0  0  0  0  0  0  0  0  0
   64.0220   32.5640   49.2020 N   0  0  0  0  0  0  0  0  0  0  0  0
   65.3800   32.7140   49.7460 C   0  0  0  0  0  0  0  0  0  0  0  0
   62.9640   32.7570   50.2210 C   0  0  0  0  0  0  0  0  0  0  0  0
   61.8850   31.6460   50.2390 C   0  0  0  0  0  0  0  0  0  0  0  0
   61.9050   30.8450   49.0040 N   0  0  0  0  0  0  0  0  0  0  0  0
   60.9690   31.3560   48.0360 C   0  0  0  0  0  0  0  0  0  0  0  0
   60.1050   30.5370   47.4080 C   0  0  0  0  0  0  0  0  0  0  0  0
   59.1710   31.0850   46.4030 C   0  0  0  0  0  0  0  0  0  0  0  0
   58.2640   30.2540   45.7310 C   0  0  0  0  0  0  0  0  0  0  0  0
   57.3870   30.7910   44.7790 C   0  0  0  0  0  0  0  0  0  0  0  0
   56.2560   29.7420   43.9440 Cl  0  0  0  0  0  0  0  0  0  0  0  0
   57.4120   32.1620   44.4900 C   0  0  0  0  0  0  0  0  0  0  0  0
   58.3150   33.0050   45.1550 C   0  0  0  0  0  0  0  0  0  0  0  0
   58.3590   34.3810   44.8830 C   0  0  0  0  0  0  0  0  0  0  0  0
   59.2720   35.2010   45.5600 C   0  0  0  0  0  0  0  0  0  0  0  0
   60.1430   34.6560   46.5090 C   0  0  0  0  0  0  0  0  0  0  0  0
   60.1080   33.2860   46.7870 C   0  0  0  0  0  0  0  0  0  0  0  0
   59.1960   32.4590   46.1130 C   0  0  0  0  0  0  0  0  0  0  0  0
   60.9770   32.7300   47.7350 O   0  0  0  0  0  0  0  0  0  0  0  0
   63.5917   34.4300   48.3160 H   0  0  0  0  0  0  0  0  0  0  0  0
   64.7506   33.4013   47.4075 H   0  0  0  0  0  0  0  0  0  0  0  0
   63.0003   32.9977   47.4075 H   0  0  0  0  0  0  0  0  0  0  0  0
   65.3373   32.7093   50.8452 H   0  0  0  0  0  0  0  0  0  0  0  0
   66.0079   31.8797   49.3999 H   0  0  0  0  0  0  0  0  0  0  0  0
   65.8107   33.6652   49.3999 H   0  0  0  0  0  0  0  0  0  0  0  0
   63.4416   32.7893   51.2114 H   0  0  0  0  0  0  0  0  0  0  0  0
   62.4471   33.6935   49.9644 H   0  0  0  0  0  0  0  0  0  0  0  0
   62.0710   30.9828   51.0967 H   0  0  0  0  0  0  0  0  0  0  0  0
   60.8993   32.1277   50.3184 H   0  0  0  0  0  0  0  0  0  0  0  0
   61.6160   29.8670   49.2400 H   0  0  0  0  0  0  0  0  0  0  0  0
   62.8780   30.8000   48.6160 H   0  0  0  0  0  0  0  0  0  0  0  0
   60.0943   29.4623   47.6425 H   0  0  0  0  0  0  0  0  0  0  0  0
   58.2405   29.1766   45.9517 H   0  0  0  0  0  0  0  0  0  0  0  0
   56.7225   32.5779   43.7406 H   0  0  0  0  0  0  0  0  0  0  0  0
   57.6766   34.8162   44.1381 H   0  0  0  0  0  0  0  0  0  0  0  0
   59.3037   36.2791   45.3438 H   0  0  0  0  0  0  0  0  0  0  0  0
   60.8563   35.3058   47.0372 H   0  0  0  0  0  0  0  0  0  0  0  0
  1  2  1  0
  2  3  1  0
  2  4  1  0
  4  5  1  0
  5  6  1  0
  6  7  1  0
  7  8  2  0
  8  9  1  0
  9 10  1  0
 10 11  2  0
 11 12  1  0
 11 13  1  0
 13 14  2  0
 14 15  1  0
 15 16  2  0
 16 17  1  0
 17 18  2  0
 18 19  1  0
 18 20  1  0
 20  7  1  0
 19  9  2  0
 19 14  1  0
  1 21  1  0
  1 22  1  0
  1 23  1  0
  3 24  1  0
  3 25  1  0
  3 26  1  0
  4 27  1  0
  4 28  1  0
  5 29  1  0
  5 30  1  0
  6 31  1  0
  6 32  1  0
  8 33  1  0
 10 34  1  0
 13 35  1  0
 15 36  1  0
 16 37  1  0
 17 38  1  0
M  CHG  1   6   1
M  END
>  <UniqueID>  (5) 
5

>  <SMILES>  (5) 
CN(C)CC[NH2+]C1=Cc2cc(Cl)cc3cccc(c23)O1

>  <Energy>  (5) 
46.49686022807689

>  <Genealogy>  (5) 
CN(C)CC[NH2+]C1=Cc2cc(Cl)cc3cccc(c23)O1 (protonated)
CN(C)CC[NH2+]C1=Cc2cc(Cl)cc3cccc(c23)O1 (3D coordinates assigned)
CN(C)CC[NH2+]C1=Cc2cc(Cl)cc3cccc(c23)O1 (nonaromatic ring conformer: 46.49686022807689 kcal/mol)

>  <smiles>  (5) 
CN(C)CCNC1=Cc2cc(Cl)cc3cccc(c23)O1

>  <score_type>  (5) 
oracle

>  <origin>  (5) 
adg

>  <m_score__min__energy>  (5) 
-5.21

>  <m_primary>  (5) 
energy

$$$$
5:0
     RDKit          3D

 51 53  0  0  1  0  0  0  0  0999 V2000
   63.3070   33.8230   46.3990 C   0  0  0  0  0  0  0  0  0  0  0  0
   63.3730   32.6320   47.3330 C   0  0  0  0  0  0  0  0  0  0  0  0
   62.0280   32.1630   47.4980 N   0  0  0  0  0  0  0  0  0  0  0  0
   61.0280   33.2120   47.5360 C   0  0  0  0  0  0  0  0  0  0  0  0
   59.7770   32.8330   46.7630 C   0  0  0  0  0  0  0  0  0  0  0  0
   59.7800   31.5000   46.3080 N   0  0  0  0  0  0  0  0  0  0  0  0
   58.7040   30.8240   45.5960 C   0  0  0  0  0  0  0  0  0  0  0  0
   58.0450   31.4350   44.5900 C   0  0  0  0  0  0  0  0  0  0  0  0
   58.1300   32.6280   43.7960 C   0  0  0  0  0  0  0  0  0  0  0  0
   57.6520   33.8760   44.5730 C   0  0  0  0  0  0  0  0  0  0  0  0
   56.6950   30.2550   44.0740 S   0  0  0  0  0  0  0  0  0  0  0  0
   57.2390   29.0280   45.3560 C   0  0  0  0  0  0  0  0  0  0  0  0
   56.6930   27.8210   45.6080 N   0  0  0  0  0  0  0  0  0  0  0  0
   57.2150   27.0350   46.5900 C   0  0  0  0  0  0  0  0  0  0  0  0
   56.6860   25.8930   46.8120 N   0  0  0  0  0  0  0  0  0  0  0  0
   56.7810   24.8770   45.8220 C   0  0  0  0  0  0  0  0  0  0  0  0
   57.9750   24.2990   45.4410 C   0  0  0  0  0  0  0  0  0  0  0  0
   57.9470   23.3200   44.4710 C   0  0  0  0  0  0  0  0  0  0  0  0
   56.7400   22.9370   43.9030 C   0  0  0  0  0  0  0  0  0  0  0  0
   56.7240   21.6940   42.6750 Cl  0  0  0  0  0  0  0  0  0  0  0  0
   55.5440   23.4950   44.2650 C   0  0  0  0  0  0  0  0  0  0  0  0
   55.5650   24.4870   45.2460 C   0  0  0  0  0  0  0  0  0  0  0  0
   54.3660   25.0480   45.6080 O   0  0  0  0  0  0  0  0  0  0  0  0
   53.1250   24.4640   45.2940 C   0  0  0  0  0  0  0  0  0  0  0  0
   58.2610   27.5450   47.2480 N   0  0  0  0  0  0  0  0  0  0  0  0
   58.8120   28.7330   47.0150 C   0  0  0  0  0  0  0  0  0  0  0  0
   58.2920   29.5870   45.9910 C   0  0  0  0  0  0  0  0  0  0  0  0
   63.2556   34.7496   46.9895 H   0  0  0  0  0  0  0  0  0  0  0  0
   64.2055   33.8418   45.7647 H   0  0  0  0  0  0  0  0  0  0  0  0
   62.4119   33.7424   45.7647 H   0  0  0  0  0  0  0  0  0  0  0  0
   63.9993   31.8409   46.8950 H   0  0  0  0  0  0  0  0  0  0  0  0
   63.8161   32.9116   48.3002 H   0  0  0  0  0  0  0  0  0  0  0  0
   61.9780   31.6220   48.3850 H   0  0  0  0  0  0  0  0  0  0  0  0
   60.7537   33.4035   48.5839 H   0  0  0  0  0  0  0  0  0  0  0  0
   61.4585   34.1092   47.0673 H   0  0  0  0  0  0  0  0  0  0  0  0
   58.9058   32.9749   47.4194 H   0  0  0  0  0  0  0  0  0  0  0  0
   59.7385   33.4785   45.8732 H   0  0  0  0  0  0  0  0  0  0  0  0
   60.6760   30.9410   46.5120 H   0  0  0  0  0  0  0  0  0  0  0  0
   59.1763   32.7783   43.4917 H   0  0  0  0  0  0  0  0  0  0  0  0
   57.4755   32.5012   42.9210 H   0  0  0  0  0  0  0  0  0  0  0  0
   57.7251   33.6852   45.6539 H   0  0  0  0  0  0  0  0  0  0  0  0
   58.2841   34.7367   44.3090 H   0  0  0  0  0  0  0  0  0  0  0  0
   56.6067   34.0942   44.3090 H   0  0  0  0  0  0  0  0  0  0  0  0
   58.9247   24.6116   45.8997 H   0  0  0  0  0  0  0  0  0  0  0  0
   58.8829   22.8415   44.1466 H   0  0  0  0  0  0  0  0  0  0  0  0
   54.6007   23.1732   43.7996 H   0  0  0  0  0  0  0  0  0  0  0  0
   52.5922   24.2133   46.2231 H   0  0  0  0  0  0  0  0  0  0  0  0
   52.5239   25.1737   44.7067 H   0  0  0  0  0  0  0  0  0  0  0  0
   53.2887   23.5484   44.7067 H   0  0  0  0  0  0  0  0  0  0  0  0
   58.6720   26.9580   48.0010 H   0  0  0  0  0  0  0  0  0  0  0  0
   59.6741   29.0616   47.6140 H   0  0  0  0  0  0  0  0  0  0  0  0
  1  2  1  0
  2  3  1  0
  3  4  1  0
  4  5  1  0
  5  6  1  0
  6  7  1  0
  7  8  2  0
  8  9  1  0
  9 10  1  0
  8 11  1  0
 11 12  1  0
 12 13  2  0
 13 14  1  0
 14 15  2  0
 15 16  1  0
 16 17  2  0
 17 18  1  0
 18 19  2  0
 19 20  1  0
 19 21  1  0
 21 22  2  0
 22 23  1  0
 23 24  1  0
 14 25  1  0
 25 26  1  0
 26 27  2  0
 27  7  1  0
 27 12  1  0
 22 16  1  0
  1 28  1  0
  1 29  1  0
  1 30  1  0
  2 31  1  0
  2 32  1  0
  3 33  1  0
  4 34  1  0
  4 35  1  0
  5 36  1  0
  5 37  1  0
  6 38  1  0
  9 39  1  0
  9 40  1  0
 10 41  1  0
 10 42  1  0
 10 43  1  0
 17 44  1  0
 18 45  1  0
 21 46  1  0
 24 47  1  0
 24 48  1  0
 24 49  1  0
 25 50  1  0
 26 51  1  0
M  END
>  <smiles>  (6) 
CCNCCNc1c(CC)sc2nc(=Nc3ccc(Cl)cc3OC)[nH]cc12

>  <score_type>  (6) 
oracle

>  <origin>  (6) 
adg

>  <m_score__min__energy>  (6) 
-7.5099999999999998

>  <m_primary>  (6) 
energy

$$$$
6:0
     RDKit          3D

 48 50  0  0  0  0  0  0  0  0999 V2000
   55.8600   24.0640   44.5640 C   0  0  0  0  0  0  0  0  0  0  0  0
   54.9840   24.6190   45.6820 C   0  0  0  0  0  0  0  0  0  0  0  0
   55.3300   26.0210   45.9630 N   0  0  0  0  0  0  0  0  0  0  0  0
   56.6540   26.1650   46.5930 C   0  0  0  0  0  0  0  0  0  0  0  0
   57.5880   27.0800   45.7850 C   0  0  0  0  0  0  0  0  0  0  0  0
   56.8040   28.1290   45.1180 N   0  0  0  0  0  0  0  0  0  0  0  0
   57.5400   28.7310   43.9940 C   0  0  0  0  0  0  0  0  0  0  0  0
   57.7540   30.2320   44.2220 C   0  0  0  0  0  0  0  0  0  0  0  0
   57.4110   30.6120   45.5900 N   0  0  0  0  0  0  0  0  0  0  0  0
   58.3460   31.3150   46.4220 C   0  0  0  0  0  0  0  0  0  0  0  0
   58.7010   32.6590   46.1750 C   0  0  0  0  0  0  0  0  0  0  0  0
   58.0810   33.3910   45.1420 C   0  0  0  0  0  0  0  0  0  0  0  0
   58.4630   34.7020   44.8720 C   0  0  0  0  0  0  0  0  0  0  0  0
   59.4690   35.3060   45.6190 C   0  0  0  0  0  0  0  0  0  0  0  0
   60.0830   34.6140   46.6630 C   0  0  0  0  0  0  0  0  0  0  0  0
   59.6970   33.2900   46.9910 C   0  0  0  0  0  0  0  0  0  0  0  0
   60.2700   32.6060   48.0540 N   0  0  0  0  0  0  0  0  0  0  0  0
   61.1950   33.2870   48.9830 C   0  0  0  0  0  0  0  0  0  0  0  0
   59.9680   31.2760   48.2300 C   0  0  0  0  0  0  0  0  0  0  0  0
   60.5720   30.3910   49.1510 C   0  0  0  0  0  0  0  0  0  0  0  0
   60.0660   29.0970   49.0860 C   0  0  0  0  0  0  0  0  0  0  0  0
   58.8880   29.0350   47.8860 S   0  0  0  0  0  0  0  0  0  0  0  0
   59.0110   30.6510   47.4460 C   0  0  0  0  0  0  0  0  0  0  0  0
   56.7129   23.5236   45.0005 H   0  0  0  0  0  0  0  0  0  0  0  0
   55.2688   23.3753   43.9425 H   0  0  0  0  0  0  0  0  0  0  0  0
   56.2302   24.8927   43.9425 H   0  0  0  0  0  0  0  0  0  0  0  0
   53.9287   24.5612   45.3770 H   0  0  0  0  0  0  0  0  0  0  0  0
   55.1502   24.0234   46.5917 H   0  0  0  0  0  0  0  0  0  0  0  0
   55.3090   26.5640   45.0680 H   0  0  0  0  0  0  0  0  0  0  0  0
   56.5229   26.5922   47.5981 H   0  0  0  0  0  0  0  0  0  0  0  0
   57.1158   25.1676   46.6375 H   0  0  0  0  0  0  0  0  0  0  0  0
   58.3188   27.5456   46.4626 H   0  0  0  0  0  0  0  0  0  0  0  0
   58.1141   26.4823   45.0261 H   0  0  0  0  0  0  0  0  0  0  0  0
   55.9410   27.6780   44.7340 H   0  0  0  0  0  0  0  0  0  0  0  0
   58.5187   28.2379   43.8990 H   0  0  0  0  0  0  0  0  0  0  0  0
   56.9509   28.5954   43.0750 H   0  0  0  0  0  0  0  0  0  0  0  0
   58.8102   30.4763   44.0357 H   0  0  0  0  0  0  0  0  0  0  0  0
   57.1006   30.7861   43.5320 H   0  0  0  0  0  0  0  0  0  0  0  0
   56.6330   30.0920   46.0560 H   0  0  0  0  0  0  0  0  0  0  0  0
   57.2870   32.9212   44.5430 H   0  0  0  0  0  0  0  0  0  0  0  0
   57.9677   35.2622   44.0653 H   0  0  0  0  0  0  0  0  0  0  0  0
   59.7819   36.3343   45.3853 H   0  0  0  0  0  0  0  0  0  0  0  0
   60.8801   35.1039   47.2415 H   0  0  0  0  0  0  0  0  0  0  0  0
   60.8994   33.0694   50.0199 H   0  0  0  0  0  0  0  0  0  0  0  0
   62.2197   32.9261   48.8104 H   0  0  0  0  0  0  0  0  0  0  0  0
   61.1547   34.3726   48.8104 H   0  0  0  0  0  0  0  0  0  0  0  0
   61.3644   30.6954   49.8506 H   0  0  0  0  0  0  0  0  0  0  0  0
   60.3837   28.2528   49.7156 H   0  0  0  0  0  0  0  0  0  0  0  0
  1  2  1  0
  2  3  1  0
  3  4  1  0
  4  5  1  0
  5  6  1  0
  6  7  1  0
  7  8  1  0
  8  9  1  0
  9 10  1  0
 10 11  2  0
 11 12  1  0
 12 13  2  0
 13 14  1  0
 14 15  2  0
 15 16  1  0
 16 17  2  0
 17 18  1  0
 17 19  1  0
 19 20  1  0
 20 21  2  0
 21 22  1  0
 22 23  1  0
 23 10  1  0
 16 11  1  0
 23 19  2  0
  1 24  1  0
  1 25  1  0
  1 26  1  0
  2 27  1  0
  2 28  1  0
  3 29  1  0
  4 30  1  0
  4 31  1  0
  5 32  1  0
  5 33  1  0
  6 34  1  0
  7 35  1  0
  7 36  1  0
  8 37  1  0
  8 38  1  0
  9 39  1  0
 12 40  1  0
 13 41  1  0
 14 42  1  0
 15 43  1  0
 18 44  1  0
 18 45  1  0
 18 46  1  0
 20 47  1  0
 21 48  1  0
M  CHG  1  17   1
M  END
>  <UniqueID>  (7) 
6

>  <SMILES>  (7) 
CCNCCNCCNc1c2ccccc2[n+](C)c2ccsc12

>  <Energy>  (7) 
90.52757661949119

>  <Genealogy>  (7) 
CCNCCNCCNc1c2ccccc2[n+](C)c2ccsc12 (3D coordinates assigned)
CCNCCNCCNc1c2ccccc2[n+](C)c2ccsc12 (optimized conformer: 90.52757661949119 kcal/mol)

>  <smiles>  (7) 
CCNCCNCCNc1c2ccccc2[n+](C)c2ccsc12

>  <score_type>  (7) 
oracle

>  <origin>  (7) 
adg

>  <m_score__min__energy>  (7) 
-6.5099999999999998

>  <m_primary>  (7) 
energy

$$$$
7:0
     RDKit          3D

 46 48  0  0  0  0  0  0  0  0999 V2000
   63.3860   33.5410   47.0110 C   0  0  0  0  0  0  0  0  0  0  0  0
   63.0890   32.0530   47.1670 C   0  0  0  0  0  0  0  0  0  0  0  0
   63.1570   31.6550   48.5890 N   0  0  0  0  0  0  0  0  0  0  0  0
   63.7510   32.6990   49.4410 C   0  0  0  0  0  0  0  0  0  0  0  0
   61.8780   31.1270   49.1230 C   0  0  0  0  0  0  0  0  0  0  0  0
   60.6890   32.1160   49.1110 C   0  0  0  0  0  0  0  0  0  0  0  0
   59.8440   32.0100   47.8730 C   0  0  0  0  0  0  0  0  0  0  0  0
   59.2840   30.8440   47.3560 C   0  0  0  0  0  0  0  0  0  0  0  0
   58.6320   31.1160   46.2040 N   0  0  0  0  0  0  0  0  0  0  0  0
   57.8870   29.9500   45.1580 S   0  0  0  0  0  0  0  0  0  0  0  0
   58.3390   30.2050   43.7470 O   0  0  0  0  0  0  0  0  0  0  0  0
   56.3920   30.0840   45.2280 O   0  0  0  0  0  0  0  0  0  0  0  0
   58.3450   28.3300   45.6700 C   0  0  0  0  0  0  0  0  0  0  0  0
   57.3630   27.3830   45.9940 C   0  0  0  0  0  0  0  0  0  0  0  0
   57.7340   26.0950   46.3910 C   0  0  0  0  0  0  0  0  0  0  0  0
   59.0870   25.7480   46.4690 C   0  0  0  0  0  0  0  0  0  0  0  0
   60.0690   26.6900   46.1510 C   0  0  0  0  0  0  0  0  0  0  0  0
   59.7000   27.9790   45.7540 C   0  0  0  0  0  0  0  0  0  0  0  0
   58.7630   32.4380   45.9850 C   0  0  0  0  0  0  0  0  0  0  0  0
   58.2860   33.1830   44.9030 C   0  0  0  0  0  0  0  0  0  0  0  0
   58.5670   34.5600   44.8770 C   0  0  0  0  0  0  0  0  0  0  0  0
   59.3110   35.1590   45.9160 C   0  0  0  0  0  0  0  0  0  0  0  0
   59.7850   34.3860   46.9900 C   0  0  0  0  0  0  0  0  0  0  0  0
   59.4920   33.0210   46.9930 C   0  0  0  0  0  0  0  0  0  0  0  0
   63.4782   34.0027   48.0052 H   0  0  0  0  0  0  0  0  0  0  0  0
   64.3278   33.6709   46.4577 H   0  0  0  0  0  0  0  0  0  0  0  0
   62.5662   34.0225   46.4577 H   0  0  0  0  0  0  0  0  0  0  0  0
   62.0806   31.8432   46.7807 H   0  0  0  0  0  0  0  0  0  0  0  0
   63.8396   31.4805   46.6023 H   0  0  0  0  0  0  0  0  0  0  0  0
   63.6022   32.4374   50.4990 H   0  0  0  0  0  0  0  0  0  0  0  0
   64.8279   32.7755   49.2302 H   0  0  0  0  0  0  0  0  0  0  0  0
   63.2666   33.6639   49.2302 H   0  0  0  0  0  0  0  0  0  0  0  0
   61.5956   30.2512   48.5203 H   0  0  0  0  0  0  0  0  0  0  0  0
   62.0667   30.8966   50.1819 H   0  0  0  0  0  0  0  0  0  0  0  0
   60.0547   31.9109   49.9860 H   0  0  0  0  0  0  0  0  0  0  0  0
   61.1088   33.1325   49.1345 H   0  0  0  0  0  0  0  0  0  0  0  0
   59.3611   29.8485   47.8175 H   0  0  0  0  0  0  0  0  0  0  0  0
   56.2985   27.6541   45.9357 H   0  0  0  0  0  0  0  0  0  0  0  0
   56.9613   25.3536   46.6423 H   0  0  0  0  0  0  0  0  0  0  0  0
   59.3778   24.7339   46.7806 H   0  0  0  0  0  0  0  0  0  0  0  0
   61.1329   26.4173   46.2130 H   0  0  0  0  0  0  0  0  0  0  0  0
   60.4748   28.7197   45.5069 H   0  0  0  0  0  0  0  0  0  0  0  0
   57.7087   32.7066   44.0969 H   0  0  0  0  0  0  0  0  0  0  0  0
   58.2043   35.1754   44.0405 H   0  0  0  0  0  0  0  0  0  0  0  0
   59.5214   36.2383   45.8851 H   0  0  0  0  0  0  0  0  0  0  0  0
   60.3687   34.8424   47.8030 H   0  0  0  0  0  0  0  0  0  0  0  0
  1  2  1  0
  2  3  1  0
  3  4  1  0
  3  5  1  0
  5  6  1  0
  6  7  1  0
  7  8  2  0
  8  9  1  0
  9 10  1  0
 10 11  2  0
 10 12  2  0
 10 13  1  0
 13 14  2  0
 14 15  1  0
 15 16  2  0
 16 17  1  0
 17 18  2  0
  9 19  1  0
 19 20  2  0
 20 21  1  0
 21 22  2  0
 22 23  1  0
 23 24  2  0
 24  7  1  0
 18 13  1  0
 24 19  1  0
  1 25  1  0
  1 26  1  0
  1 27  1  0
  2 28  1  0
  2 29  1  0
  4 30  1  0
  4 31  1  0
  4 32  1  0
  5 33  1  0
  5 34  1  0
  6 35  1  0
  6 36  1  0
  8 37  1  0
 14 38  1  0
 15 39  1  0
 16 40  1  0
 17 41  1  0
 18 42  1  0
 20 43  1  0
 21 44  1  0
 22 45  1  0
 23 46  1  0
M  END
>  <UniqueID>  (8) 
7

>  <SMILES>  (8) 
CCN(C)CCc1cn(S(=O)(=O)c2ccccc2)c2ccccc12

>  <Energy>  (8) 
82.17117299240122

>  <Genealogy>  (8) 
CCN(C)CCc1cn(S(=O)(=O)c2ccccc2)c2ccccc12 (3D coordinates assigned)
CCN(C)CCc1cn(S(=O)(=O)c2ccccc2)c2ccccc12 (optimized conformer: 82.17117299240122 kcal/mol)

>  <smiles>  (8) 
CCN(C)CCc1cn(S(=O)(=O)c2ccccc2)c2ccccc12

>  <score_type>  (8) 
oracle

>  <origin>  (8) 
adg

>  <m_score__min__energy>  (8) 
-8.3900000000000006

>  <m_primary>  (8) 
energy

$$$$
8:0
     RDKit          3D

 46 48  0  0  0  0  0  0  0  0999 V2000
   57.4330   32.3250   41.4380 C   0  0  0  0  0  0  0  0  0  0  0  0
   57.8620   31.9510   42.6470 C   0  0  0  0  0  0  0  0  0  0  0  0
   56.9880   31.2020   43.6190 C   0  0  0  0  0  0  0  0  0  0  0  0
   57.6430   31.0720   44.9320 N   0  0  0  0  0  0  0  0  0  0  0  0
   57.8440   31.9820   45.9460 C   0  0  0  0  0  0  0  0  0  0  0  0
   57.5590   33.2580   45.9330 N   0  0  0  0  0  0  0  0  0  0  0  0
   57.7500   34.2730   44.9030 C   0  0  0  0  0  0  0  0  0  0  0  0
   59.2150   34.7120   44.8760 C   0  0  0  0  0  0  0  0  0  0  0  0
   59.6480   35.3450   46.2040 C   0  0  0  0  0  0  0  0  0  0  0  0
   60.1370   34.3140   47.1150 N   0  0  0  0  0  0  0  0  0  0  0  0
   61.1020   33.4130   46.8710 C   0  0  0  0  0  0  0  0  0  0  0  0
   61.1910   32.5850   47.9680 C   0  0  0  0  0  0  0  0  0  0  0  0
   60.2780   32.9550   48.8900 N   0  0  0  0  0  0  0  0  0  0  0  0
   59.6490   34.0110   48.3330 C   0  0  0  0  0  0  0  0  0  0  0  0
   58.4000   31.4220   47.0450 N   0  0  0  0  0  0  0  0  0  0  0  0
   58.5540   30.1290   46.7250 C   0  0  0  0  0  0  0  0  0  0  0  0
   58.0980   29.9090   45.4680 C   0  0  0  0  0  0  0  0  0  0  0  0
   58.1130   28.6130   44.9480 C   0  0  0  0  0  0  0  0  0  0  0  0
   57.6630   28.3750   43.7950 O   0  0  0  0  0  0  0  0  0  0  0  0
   58.6190   27.5980   45.7290 N   0  0  0  0  0  0  0  0  0  0  0  0
   58.6220   26.2160   45.2190 C   0  0  0  0  0  0  0  0  0  0  0  0
   59.0530   27.8560   47.0180 C   0  0  0  0  0  0  0  0  0  0  0  0
   59.4570   26.9040   47.7430 O   0  0  0  0  0  0  0  0  0  0  0  0
   59.0410   29.1380   47.5210 N   0  0  0  0  0  0  0  0  0  0  0  0
   59.4870   29.4450   48.8870 C   0  0  0  0  0  0  0  0  0  0  0  0
   58.1059   32.8707   40.7601 H   0  0  0  0  0  0  0  0  0  0  0  0
   56.4070   32.0872   41.1206 H   0  0  0  0  0  0  0  0  0  0  0  0
   58.8917   32.1993   42.9436 H   0  0  0  0  0  0  0  0  0  0  0  0
   56.0403   31.7466   43.7429 H   0  0  0  0  0  0  0  0  0  0  0  0
   56.8059   30.1937   43.2188 H   0  0  0  0  0  0  0  0  0  0  0  0
   57.4754   33.8555   43.9231 H   0  0  0  0  0  0  0  0  0  0  0  0
   57.1137   35.1421   45.1261 H   0  0  0  0  0  0  0  0  0  0  0  0
   59.8459   33.8327   44.6790 H   0  0  0  0  0  0  0  0  0  0  0  0
   59.3293   35.4681   44.0852 H   0  0  0  0  0  0  0  0  0  0  0  0
   60.4499   36.0739   46.0153 H   0  0  0  0  0  0  0  0  0  0  0  0
   58.7840   35.8493   46.6613 H   0  0  0  0  0  0  0  0  0  0  0  0
   61.7124   33.3478   45.9582 H   0  0  0  0  0  0  0  0  0  0  0  0
   61.8984   31.7496   48.0760 H   0  0  0  0  0  0  0  0  0  0  0  0
   58.8303   34.5620   48.8189 H   0  0  0  0  0  0  0  0  0  0  0  0
   58.6370   31.8990   47.9440 H   0  0  0  0  0  0  0  0  0  0  0  0
   58.6235   25.5130   46.0650 H   0  0  0  0  0  0  0  0  0  0  0  0
   57.7242   26.0496   44.6056 H   0  0  0  0  0  0  0  0  0  0  0  0
   59.5205   26.0535   44.6056 H   0  0  0  0  0  0  0  0  0  0  0  0
   58.8041   28.9750   49.6100 H   0  0  0  0  0  0  0  0  0  0  0  0
   60.5046   29.0551   49.0368 H   0  0  0  0  0  0  0  0  0  0  0  0
   59.4861   30.5348   49.0368 H   0  0  0  0  0  0  0  0  0  0  0  0
  1  2  2  0
  2  3  1  0
  3  4  1  0
  4  5  1  0
  5  6  2  3
  6  7  1  0
  7  8  1  0
  8  9  1  0
  9 10  1  0
 10 11  1  0
 11 12  2  0
 12 13  1  0
 13 14  2  0
  5 15  1  0
 15 16  1  0
 16 17  2  0
 17 18  1  0
 18 19  2  0
 18 20  1  0
 20 21  1  0
 20 22  1  0
 22 23  2  0
 22 24  1  0
 24 25  1  0
 17  4  1  0
 14 10  1  0
 24 16  1  0
  1 26  1  0
  1 27  1  0
  2 28  1  0
  3 29  1  0
  3 30  1  0
  7 31  1  0
  7 32  1  0
  8 33  1  0
  8 34  1  0
  9 35  1  0
  9 36  1  0
 11 37  1  0
 12 38  1  0
 14 39  1  0
 15 40  1  0
 21 41  1  0
 21 42  1  0
 21 43  1  0
 25 44  1  0
 25 45  1  0
 25 46  1  0
M  END
>  <UniqueID>  (9) 
8

>  <SMILES>  (9) 
C=CCn1c(=NCCCn2ccnc2)[nH]c2c1c(=O)n(C)c(=O)n2C

>  <Energy>  (9) 
125.45966163957593

>  <Genealogy>  (9) 
C=CCn1c(=NCCCn2ccnc2)[nH]c2c1c(=O)n(C)c(=O)n2C (3D coordinates assigned)
C=CCn1c(=NCCCn2ccnc2)[nH]c2c1c(=O)n(C)c(=O)n2C (optimized conformer: 125.45966163957593 kcal/mol)

>  <smiles>  (9) 
C=CCn1c(=NCCCn2ccnc2)[nH]c2c1c(=O)n(C)c(=O)n2C

>  <score_type>  (9) 
oracle

>  <origin>  (9) 
adg

>  <m_score__min__energy>  (9) 
-6.1299999999999999

>  <m_primary>  (9) 
energy

$$$$
9:0
     RDKit          3D

 52 54  0  0  0  0  0  0  0  0999 V2000
   58.5040   31.6650   50.0510 C   0  0  0  0  0  0  0  0  0  0  0  0
   59.1040   32.5720   49.1340 O   0  0  0  0  0  0  0  0  0  0  0  0
   58.9130   32.5470   47.7420 C   0  0  0  0  0  0  0  0  0  0  0  0
   58.1510   31.5350   47.1220 C   0  0  0  0  0  0  0  0  0  0  0  0
   57.9970   31.5200   45.7350 C   0  0  0  0  0  0  0  0  0  0  0  0
   58.5810   32.5200   44.9530 C   0  0  0  0  0  0  0  0  0  0  0  0
   59.3490   33.5200   45.5500 C   0  0  0  0  0  0  0  0  0  0  0  0
   59.5020   33.5600   46.9490 C   0  0  0  0  0  0  0  0  0  0  0  0
   60.3170   34.6740   47.5820 C   0  0  0  0  0  0  0  0  0  0  0  0
   61.6700   34.2580   48.0200 N   0  0  0  0  0  0  0  0  0  0  0  0
   62.3070   33.2540   47.1420 C   0  0  0  0  0  0  0  0  0  0  0  0
   63.5380   32.6520   47.8260 C   0  0  0  0  0  0  0  0  0  0  0  0
   63.1580   31.8900   49.0450 N   0  0  0  0  0  0  0  0  0  0  0  0
   64.3320   31.7580   49.9470 C   0  0  0  0  0  0  0  0  0  0  0  0
   65.1810   33.0570   50.0240 C   0  0  0  0  0  0  0  0  0  0  0  0
   66.6720   32.7110   50.1380 C   0  0  0  0  0  0  0  0  0  0  0  0
   64.7630   33.9340   51.2150 C   0  0  0  0  0  0  0  0  0  0  0  0
   61.9800   32.4740   49.7540 C   0  0  0  0  0  0  0  0  0  0  0  0
   61.7970   33.9750   49.4690 C   0  0  0  0  0  0  0  0  0  0  0  0
   58.3840   32.5020   43.5680 O   0  0  0  0  0  0  0  0  0  0  0  0
   57.3870   31.6670   42.9750 C   0  0  0  0  0  0  0  0  0  0  0  0
   57.3340   30.3130   43.6930 C   0  0  0  0  0  0  0  0  0  0  0  0
   57.2670   30.5050   45.1080 O   0  0  0  0  0  0  0  0  0  0  0  0
   58.7182   31.9888   51.0802 H   0  0  0  0  0  0  0  0  0  0  0  0
   57.4158   31.6479   49.8909 H   0  0  0  0  0  0  0  0  0  0  0  0
   58.9140   30.6569   49.8909 H   0  0  0  0  0  0  0  0  0  0  0  0
   57.6761   30.7542   47.7343 H   0  0  0  0  0  0  0  0  0  0  0  0
   59.8377   34.2814   44.9243 H   0  0  0  0  0  0  0  0  0  0  0  0
   60.4258   35.4840   46.8458 H   0  0  0  0  0  0  0  0  0  0  0  0
   59.7743   34.9914   48.4846 H   0  0  0  0  0  0  0  0  0  0  0  0
   61.5853   32.4530   46.9240 H   0  0  0  0  0  0  0  0  0  0  0  0
   62.6209   33.7438   46.2084 H   0  0  0  0  0  0  0  0  0  0  0  0
   64.0437   31.9742   47.1225 H   0  0  0  0  0  0  0  0  0  0  0  0
   64.2072   33.4729   48.1233 H   0  0  0  0  0  0  0  0  0  0  0  0
   62.8790   30.9350   48.7180 H   0  0  0  0  0  0  0  0  0  0  0  0
   63.9731   31.5123   50.9573 H   0  0  0  0  0  0  0  0  0  0  0  0
   64.9759   30.9651   49.5387 H   0  0  0  0  0  0  0  0  0  0  0  0
   65.0039   33.6250   49.0988 H   0  0  0  0  0  0  0  0  0  0  0  0
   66.9531   32.6458   51.1995 H   0  0  0  0  0  0  0  0  0  0  0  0
   66.8627   31.7447   49.6481 H   0  0  0  0  0  0  0  0  0  0  0  0
   67.2687   33.4945   49.6481 H   0  0  0  0  0  0  0  0  0  0  0  0
   65.0090   33.4178   52.1547 H   0  0  0  0  0  0  0  0  0  0  0  0
   65.3012   34.8924   51.1714 H   0  0  0  0  0  0  0  0  0  0  0  0
   63.6796   34.1195   51.1714 H   0  0  0  0  0  0  0  0  0  0  0  0
   61.0743   31.9414   49.4285 H   0  0  0  0  0  0  0  0  0  0  0  0
   62.1537   32.3606   50.8343 H   0  0  0  0  0  0  0  0  0  0  0  0
   60.8872   34.3242   49.9792 H   0  0  0  0  0  0  0  0  0  0  0  0
   62.6899   34.5003   49.8388 H   0  0  0  0  0  0  0  0  0  0  0  0
   56.4065   32.1592   43.0549 H   0  0  0  0  0  0  0  0  0  0  0  0
   57.6398   31.5024   41.9172 H   0  0  0  0  0  0  0  0  0  0  0  0
   56.4438   29.7597   43.3592 H   0  0  0  0  0  0  0  0  0  0  0  0
   58.2437   29.7436   43.4515 H   0  0  0  0  0  0  0  0  0  0  0  0
  1  2  1  0
  2  3  1  0
  3  4  2  0
  4  5  1  0
  5  6  2  0
  6  7  1  0
  7  8  2  0
  8  9  1  0
  9 10  1  0
 10 11  1  0
 11 12  1  0
 12 13  1  0
 13 14  1  0
 14 15  1  0
 15 16  1  0
 15 17  1  0
 13 18  1  0
 18 19  1  0
  6 20  1  0
 20 21  1  0
 21 22  1  0
 22 23  1  0
  8  3  1  0
 19 10  1  0
 23  5  1  0
  1 24  1  0
  1 25  1  0
  1 26  1  0
  4 27  1  0
  7 28  1  0
  9 29  1  0
  9 30  1  0
 11 31  1  0
 11 32  1  0
 12 33  1  0
 12 34  1  0
 13 35  1  0
 14 36  1  0
 14 37  1  0
 15 38  1  0
 16 39  1  0
 16 40  1  0
 16 41  1  0
 17 42  1  0
 17 43  1  0
 17 44  1  0
 18 45  1  0
 18 46  1  0
 19 47  1  0
 19 48  1  0
 21 49  1  0
 21 50  1  0
 22 51  1  0
 22 52  1  0
M  CHG  1  13   1
M  END
>  <UniqueID>  (10) 
9

>  <SMILES>  (10) 
COc1cc2c(cc1CN1CC[NH+](CC(C)C)CC1)OCCO2

>  <Energy>  (10) 
65.89358057617545

>  <Genealogy>  (10) 
COc1cc2c(cc1CN1CC[NH+](CC(C)C)CC1)OCCO2 (protonated)
COc1cc2c(cc1CN1CC[NH+](CC(C)C)CC1)OCCO2 (3D coordinates assigned)
COc1cc2c(cc1CN1CC[NH+](CC(C)C)CC1)OCCO2 (nonaromatic ring conformer: 65.89358057617545 kcal/mol)

>  <smiles>  (10) 
COc1cc2c(cc1CN1CCN(CC(C)C)CC1)OCCO2

>  <score_type>  (10) 
oracle

>  <origin>  (10) 
adg

>  <m_score__min__energy>  (10) 
-4.7599999999999998

>  <m_primary>  (10) 
energy

$$$$
10:0
     RDKit          3D

 65 68  0  0  0  0  0  0  0  0999 V2000
   66.2010   31.6360   50.5540 C   0  0  0  0  0  0  0  0  0  0  0  0
   64.7750   31.9650   50.1140 C   0  0  0  0  0  0  0  0  0  0  0  0
   64.7740   32.9950   49.0640 N   0  0  0  0  0  0  0  0  0  0  0  0
   63.5820   32.8790   48.2600 C   0  0  0  0  0  0  0  0  0  0  0  0
   63.2390   33.8850   47.3510 C   0  0  0  0  0  0  0  0  0  0  0  0
   62.0670   33.7980   46.6000 C   0  0  0  0  0  0  0  0  0  0  0  0
   61.1820   32.7040   46.7480 C   0  0  0  0  0  0  0  0  0  0  0  0
   61.5580   31.6530   47.6410 C   0  0  0  0  0  0  0  0  0  0  0  0
   62.7350   31.7720   48.4050 C   0  0  0  0  0  0  0  0  0  0  0  0
   60.7330   30.5170   47.7580 C   0  0  0  0  0  0  0  0  0  0  0  0
   61.0550   29.4300   48.6350 N   0  0  0  0  0  0  0  0  0  0  0  0
   60.4150   29.2840   49.9410 C   0  0  0  0  0  0  0  0  0  0  0  0
   60.0800   30.6590   50.5210 C   0  0  0  0  0  0  0  0  0  0  0  0
   58.6720   30.9990   50.2050 N   0  0  0  0  0  0  0  0  0  0  0  0
   57.7320   30.6930   51.3050 C   0  0  0  0  0  0  0  0  0  0  0  0
   57.1130   31.9720   51.8660 C   0  0  0  0  0  0  0  0  0  0  0  0
   58.5160   32.3790   49.6890 C   0  0  0  0  0  0  0  0  0  0  0  0
   59.7120   33.2910   50.0000 C   0  0  0  0  0  0  0  0  0  0  0  0
   59.6140   30.4410   46.9430 C   0  0  0  0  0  0  0  0  0  0  0  0
   58.5670   29.1370   46.7910 S   0  0  0  0  0  0  0  0  0  0  0  0
   57.6580   29.8220   45.5570 C   0  0  0  0  0  0  0  0  0  0  0  0
   58.1820   31.0740   45.2130 C   0  0  0  0  0  0  0  0  0  0  0  0
   59.2720   31.4530   46.0540 C   0  0  0  0  0  0  0  0  0  0  0  0
   59.9830   32.6380   46.0500 N   0  0  0  0  0  0  0  0  0  0  0  0
   59.4220   33.8550   45.4350 C   0  0  0  0  0  0  0  0  0  0  0  0
   57.6430   31.8200   44.0090 C   0  0  0  0  0  0  0  0  0  0  0  0
   56.8940   30.8910   43.0380 C   0  0  0  0  0  0  0  0  0  0  0  0
   55.8890   30.0100   43.7910 C   0  0  0  0  0  0  0  0  0  0  0  0
   56.6130   29.0820   44.7760 C   0  0  0  0  0  0  0  0  0  0  0  0
   66.2522   31.6242   51.6527 H   0  0  0  0  0  0  0  0  0  0  0  0
   66.4867   30.6483   50.1630 H   0  0  0  0  0  0  0  0  0  0  0  0
   66.8905   32.3986   50.1630 H   0  0  0  0  0  0  0  0  0  0  0  0
   64.2989   31.0531   49.7244 H   0  0  0  0  0  0  0  0  0  0  0  0
   64.2188   32.3479   50.9824 H   0  0  0  0  0  0  0  0  0  0  0  0
   65.6180   32.8860   48.4550 H   0  0  0  0  0  0  0  0  0  0  0  0
   64.8160   33.9450   49.5030 H   0  0  0  0  0  0  0  0  0  0  0  0
   63.9010   34.7547   47.2270 H   0  0  0  0  0  0  0  0  0  0  0  0
   61.8264   34.5940   45.8799 H   0  0  0  0  0  0  0  0  0  0  0  0
   62.9936   30.9835   49.1271 H   0  0  0  0  0  0  0  0  0  0  0  0
   61.8870   28.8360   48.4110 H   0  0  0  0  0  0  0  0  0  0  0  0
   59.4887   28.7014   49.8288 H   0  0  0  0  0  0  0  0  0  0  0  0
   61.1046   28.7648   50.6229 H   0  0  0  0  0  0  0  0  0  0  0  0
   60.2165   30.6398   51.6123 H   0  0  0  0  0  0  0  0  0  0  0  0
   60.7473   31.4149   50.0813 H   0  0  0  0  0  0  0  0  0  0  0  0
   56.9310   30.0427   50.9236 H   0  0  0  0  0  0  0  0  0  0  0  0
   58.2862   30.1887   52.1103 H   0  0  0  0  0  0  0  0  0  0  0  0
   57.1303   31.9362   52.9653 H   0  0  0  0  0  0  0  0  0  0  0  0
   57.6899   32.8417   51.5183 H   0  0  0  0  0  0  0  0  0  0  0  0
   56.0730   32.0591   51.5183 H   0  0  0  0  0  0  0  0  0  0  0  0
   58.3908   32.3299   48.5972 H   0  0  0  0  0  0  0  0  0  0  0  0
   57.6396   32.8140   50.1916 H   0  0  0  0  0  0  0  0  0  0  0  0
   59.8305   33.3814   51.0899 H   0  0  0  0  0  0  0  0  0  0  0  0
   60.6256   32.8582   49.5664 H   0  0  0  0  0  0  0  0  0  0  0  0
   59.5364   34.2866   49.5664 H   0  0  0  0  0  0  0  0  0  0  0  0
   59.1014   34.5505   46.2246 H   0  0  0  0  0  0  0  0  0  0  0  0
   60.1887   34.3372   44.8108 H   0  0  0  0  0  0  0  0  0  0  0  0
   58.5574   33.5852   44.8108 H   0  0  0  0  0  0  0  0  0  0  0  0
   56.9511   32.6012   44.3568 H   0  0  0  0  0  0  0  0  0  0  0  0
   58.4979   32.2540   43.4698 H   0  0  0  0  0  0  0  0  0  0  0  0
   56.3549   31.5016   42.2987 H   0  0  0  0  0  0  0  0  0  0  0  0
   57.6265   30.2406   42.5375 H   0  0  0  0  0  0  0  0  0  0  0  0
   55.1908   30.6529   44.3471 H   0  0  0  0  0  0  0  0  0  0  0  0
   55.3422   29.3944   43.0616 H   0  0  0  0  0  0  0  0  0  0  0  0
   55.8772   28.6578   45.4750 H   0  0  0  0  0  0  0  0  0  0  0  0
   57.1090   28.2860   44.2012 H   0  0  0  0  0  0  0  0  0  0  0  0
  1  2  1  0
  2  3  1  0
  3  4  1  0
  4  5  2  0
  5  6  1  0
  6  7  2  0
  7  8  1  0
  8  9  2  0
  8 10  1  0
 10 11  1  0
 11 12  1  0
 12 13  1  0
 13 14  1  0
 14 15  1  0
 15 16  1  0
 14 17  1  0
 17 18  1  0
 10 19  2  0
 19 20  1  0
 20 21  1  0
 21 22  2  0
 22 23  1  0
 23 24  2  0
 24 25  1  0
 22 26  1  0
 26 27  1  0
 27 28  1  0
 28 29  1  0
  9  4  1  0
 23 19  1  0
 24  7  1  0
 29 21  1  0
  1 30  1  0
  1 31  1  0
  1 32  1  0
  2 33  1  0
  2 34  1  0
  3 35  1  0
  3 36  1  0
  5 37  1  0
  6 38  1  0
  9 39  1  0
 11 40  1  0
 12 41  1  0
 12 42  1  0
 13 43  1  0
 13 44  1  0
 15 45  1  0
 15 46  1  0
 16 47  1  0
 16 48  1  0
 16 49  1  0
 17 50  1  0
 17 51  1  0
 18 52  1  0
 18 53  1  0
 18 54  1  0
 25 55  1  0
 25 56  1  0
 25 57  1  0
 26 58  1  0
 26 59  1  0
 27 60  1  0
 27 61  1  0
 28 62  1  0
 28 63  1  0
 29 64  1  0
 29 65  1  0
M  CHG  2   3   1  24   1
M  END
>  <UniqueID>  (11) 
10

>  <SMILES>  (11) 
CC[NH2+]c1ccc2c(c1)c(NCCN(CC)CC)c1sc3c(c1[n+]2C)CCCC3

>  <Energy>  (11) 
118.06006333084795

>  <Genealogy>  (11) 
CC[NH2+]c1ccc2c(c1)c(NCCN(CC)CC)c1sc3c(c1[n+]2C)CCCC3 (protonated)
CC[NH2+]c1ccc2c(c1)c(NCCN(CC)CC)c1sc3c(c1[n+]2C)CCCC3 (3D coordinates assigned)
CC[NH2+]c1ccc2c(c1)c(NCCN(CC)CC)c1sc3c(c1[n+]2C)CCCC3 (nonaromatic ring conformer: 118.06006333084795 kcal/mol)

>  <smiles>  (11) 
CCNc1ccc2c(c1)c(NCCN(CC)CC)c1sc3c(c1[n+]2C)CCCC3

>  <score_type>  (11) 
oracle

>  <origin>  (11) 
adg

>  <m_score__min__energy>  (11) 
-5.2699999999999996

>  <m_primary>  (11) 
energy

$$$$
11:0
     RDKit          3D

 46 48  0  0  0  0  0  0  0  0999 V2000
   57.9690   31.9730   42.3240 C   0  0  0  0  0  0  0  0  0  0  0  0
   57.0040   31.0760   43.0930 C   0  0  0  0  0  0  0  0  0  0  0  0
   57.6540   30.5370   44.3080 N   0  0  0  0  0  0  0  0  0  0  0  0
   57.9630   31.3610   45.3670 C   0  0  0  0  0  0  0  0  0  0  0  0
   57.5700   33.1230   45.3540 S   0  0  0  0  0  0  0  0  0  0  0  0
   59.3210   33.6320   45.3740 C   0  0  0  0  0  0  0  0  0  0  0  0
   59.4710   34.9390   46.1380 C   0  0  0  0  0  0  0  0  0  0  0  0
   60.3740   34.7490   47.2250 O   0  0  0  0  0  0  0  0  0  0  0  0
   61.3150   33.7100   47.3060 C   0  0  0  0  0  0  0  0  0  0  0  0
   62.6270   33.8500   46.8130 C   0  0  0  0  0  0  0  0  0  0  0  0
   63.5340   32.7930   46.9120 C   0  0  0  0  0  0  0  0  0  0  0  0
   63.1430   31.5890   47.5000 C   0  0  0  0  0  0  0  0  0  0  0  0
   61.8450   31.4380   47.9910 C   0  0  0  0  0  0  0  0  0  0  0  0
   60.9210   32.4980   47.8980 C   0  0  0  0  0  0  0  0  0  0  0  0
   59.6080   32.3870   48.3790 O   0  0  0  0  0  0  0  0  0  0  0  0
   59.2040   32.7190   49.7040 C   0  0  0  0  0  0  0  0  0  0  0  0
   58.5920   30.8620   46.4660 N   0  0  0  0  0  0  0  0  0  0  0  0
   58.9360   29.5510   46.5540 C   0  0  0  0  0  0  0  0  0  0  0  0
   59.5780   29.0590   47.7020 C   0  0  0  0  0  0  0  0  0  0  0  0
   59.9340   27.7110   47.7840 C   0  0  0  0  0  0  0  0  0  0  0  0
   59.6540   26.8460   46.7230 C   0  0  0  0  0  0  0  0  0  0  0  0
   59.0150   27.3260   45.5770 C   0  0  0  0  0  0  0  0  0  0  0  0
   58.6500   28.6830   45.4850 C   0  0  0  0  0  0  0  0  0  0  0  0
   58.0080   29.2090   44.3520 C   0  0  0  0  0  0  0  0  0  0  0  0
   57.7620   28.4520   43.3710 O   0  0  0  0  0  0  0  0  0  0  0  0
   58.5839   32.5445   43.0349 H   0  0  0  0  0  0  0  0  0  0  0  0
   58.6210   31.3528   41.6913 H   0  0  0  0  0  0  0  0  0  0  0  0
   57.3980   32.6685   41.6913 H   0  0  0  0  0  0  0  0  0  0  0  0
   56.1199   31.6618   43.3850 H   0  0  0  0  0  0  0  0  0  0  0  0
   56.7065   30.2370   42.4468 H   0  0  0  0  0  0  0  0  0  0  0  0
   59.9221   32.8519   45.8640 H   0  0  0  0  0  0  0  0  0  0  0  0
   59.6688   33.7746   44.3402 H   0  0  0  0  0  0  0  0  0  0  0  0
   59.8645   35.7149   45.4649 H   0  0  0  0  0  0  0  0  0  0  0  0
   58.4906   35.2543   46.5245 H   0  0  0  0  0  0  0  0  0  0  0  0
   62.9386   34.7968   46.3477 H   0  0  0  0  0  0  0  0  0  0  0  0
   64.5576   32.9093   46.5263 H   0  0  0  0  0  0  0  0  0  0  0  0
   63.8591   30.7575   47.5766 H   0  0  0  0  0  0  0  0  0  0  0  0
   61.5419   30.4868   48.4529 H   0  0  0  0  0  0  0  0  0  0  0  0
   59.8453   32.1920   50.4258 H   0  0  0  0  0  0  0  0  0  0  0  0
   59.2976   33.8046   49.8547 H   0  0  0  0  0  0  0  0  0  0  0  0
   58.1571   32.4168   49.8547 H   0  0  0  0  0  0  0  0  0  0  0  0
   58.8140   31.5100   47.2570 H   0  0  0  0  0  0  0  0  0  0  0  0
   59.8011   29.7371   48.5389 H   0  0  0  0  0  0  0  0  0  0  0  0
   60.4357   27.3296   48.6855 H   0  0  0  0  0  0  0  0  0  0  0  0
   59.9372   25.7852   46.7901 H   0  0  0  0  0  0  0  0  0  0  0  0
   58.7963   26.6418   44.7439 H   0  0  0  0  0  0  0  0  0  0  0  0
  1  2  1  0
  2  3  1  0
  3  4  1  0
  4  5  1  0
  5  6  1  0
  6  7  1  0
  7  8  1  0
  8  9  1  0
  9 10  2  0
 10 11  1  0
 11 12  2  0
 12 13  1  0
 13 14  2  0
 14 15  1  0
 15 16  1  0
  4 17  2  0
 17 18  1  0
 18 19  2  0
 19 20  1  0
 20 21  2  0
 21 22  1  0
 22 23  2  0
 23 24  1  0
 24 25  2  0
 24  3  1  0
 14  9  1  0
 23 18  1  0
  1 26  1  0
  1 27  1  0
  1 28  1  0
  2 29  1  0
  2 30  1  0
  6 31  1  0
  6 32  1  0
  7 33  1  0
  7 34  1  0
 10 35  1  0
 11 36  1  0
 12 37  1  0
 13 38  1  0
 16 39  1  0
 16 40  1  0
 16 41  1  0
 17 42  1  0
 19 43  1  0
 20 44  1  0
 21 45  1  0
 22 46  1  0
M  CHG  1  17   1
M  END
>  <UniqueID>  (12) 
11

>  <SMILES>  (12) 
CCn1c(SCCOc2ccccc2OC)[nH+]c2ccccc2c1=O

>  <Energy>  (12) 
46.80430220763984

>  <Genealogy>  (12) 
CCn1c(SCCOc2ccccc2OC)[nH+]c2ccccc2c1=O (protonated)
CCn1c(SCCOc2ccccc2OC)[nH+]c2ccccc2c1=O (3D coordinates assigned)
CCn1c(SCCOc2ccccc2OC)[nH+]c2ccccc2c1=O (optimized conformer: 46.80430220763984 kcal/mol)

>  <smiles>  (12) 
CCn1c(SCCOc2ccccc2OC)nc2ccccc2c1=O

>  <score_type>  (12) 
oracle

>  <origin>  (12) 
adg

>  <m_score__min__energy>  (12) 
-5.0599999999999996

>  <m_primary>  (12) 
energy

$$$$
12:0
     RDKit          3D

 33 35  0  0  0  0  0  0  0  0999 V2000
   55.5040   29.7150   43.4280 C   0  0  0  0  0  0  0  0  0  0  0  0
   56.4330   30.2640   44.4100 N   0  0  0  0  0  0  0  0  0  0  0  0
   56.7540   31.5420   44.4820 N   0  0  0  0  0  0  0  0  0  0  0  0
   57.6720   31.6300   45.4650 C   0  0  0  0  0  0  0  0  0  0  0  0
   58.2930   32.8880   45.8890 C   0  0  0  0  0  0  0  0  0  0  0  0
   58.7580   33.8940   45.0510 C   0  0  0  0  0  0  0  0  0  0  0  0
   59.2970   34.9830   45.7450 C   0  0  0  0  0  0  0  0  0  0  0  0
   59.2570   34.8400   47.1270 C   0  0  0  0  0  0  0  0  0  0  0  0
   58.5510   33.3560   47.4840 S   0  0  0  0  0  0  0  0  0  0  0  0
   57.9580   30.4330   46.0230 N   0  0  0  0  0  0  0  0  0  0  0  0
   57.1530   29.5970   45.3360 C   0  0  0  0  0  0  0  0  0  0  0  0
   57.0960   28.1050   45.5840 C   0  0  0  0  0  0  0  0  0  0  0  0
   58.3730   27.4020   45.3170 N   0  0  0  0  0  0  0  0  0  0  0  0
   59.2330   27.2730   46.5010 C   0  0  0  0  0  0  0  0  0  0  0  0
   60.3420   28.3020   46.3810 C   0  0  0  0  0  0  0  0  0  0  0  0
   60.4510   28.5940   44.8970 C   0  0  0  0  0  0  0  0  0  0  0  0
   59.1840   28.0280   44.2610 C   0  0  0  0  0  0  0  0  0  0  0  0
   54.6696   29.2219   43.9482 H   0  0  0  0  0  0  0  0  0  0  0  0
   55.1141   30.5278   42.7977 H   0  0  0  0  0  0  0  0  0  0  0  0
   56.0279   28.9814   42.7977 H   0  0  0  0  0  0  0  0  0  0  0  0
   58.7076   33.8399   43.9535 H   0  0  0  0  0  0  0  0  0  0  0  0
   59.7134   35.8692   45.2438 H   0  0  0  0  0  0  0  0  0  0  0  0
   59.6242   35.5721   47.8613 H   0  0  0  0  0  0  0  0  0  0  0  0
   56.8230   27.9392   46.6366 H   0  0  0  0  0  0  0  0  0  0  0  0
   56.3531   27.6936   44.8848 H   0  0  0  0  0  0  0  0  0  0  0  0
   58.6460   27.4596   47.4124 H   0  0  0  0  0  0  0  0  0  0  0  0
   59.6541   26.2586   46.5623 H   0  0  0  0  0  0  0  0  0  0  0  0
   60.0829   29.2155   46.9363 H   0  0  0  0  0  0  0  0  0  0  0  0
   61.2910   27.9359   46.7998 H   0  0  0  0  0  0  0  0  0  0  0  0
   60.5131   29.6786   44.7247 H   0  0  0  0  0  0  0  0  0  0  0  0
   61.3552   28.1419   44.4634 H   0  0  0  0  0  0  0  0  0  0  0  0
   58.6128   28.8391   43.7858 H   0  0  0  0  0  0  0  0  0  0  0  0
   59.4463   27.2834   43.4950 H   0  0  0  0  0  0  0  0  0  0  0  0
  1  2  1  0
  2  3  1  0
  3  4  2  0
  4  5  1  0
  5  6  2  0
  6  7  1  0
  7  8  2  0
  8  9  1  0
  4 10  1  0
 10 11  2  0
 11 12  1  0
 12 13  1  0
 13 14  1  0
 14 15  1  0
 15 16  1  0
 16 17  1  0
 11  2  1  0
 17 13  1  0
  9  5  1  0
  1 18  1  0
  1 19  1  0
  1 20  1  0
  6 21  1  0
  7 22  1  0
  8 23  1  0
 12 24  1  0
 12 25  1  0
 14 26  1  0
 14 27  1  0
 15 28  1  0
 15 29  1  0
 16 30  1  0
 16 31  1  0
 17 32  1  0
 17 33  1  0
M  END
>  <UniqueID>  (13) 
12

>  <SMILES>  (13) 
Cn1nc(-c2cccs2)nc1CN1CCCC1

>  <Energy>  (13) 
95.5741824141019

>  <Genealogy>  (13) 
Cn1nc(-c2cccs2)nc1CN1CCCC1 (3D coordinates assigned)
Cn1nc(-c2cccs2)nc1CN1CCCC1 (nonaromatic ring conformer: 95.5741824141019 kcal/mol)

>  <smiles>  (13) 
Cn1nc(-c2cccs2)nc1CN1CCCC1

>  <score_type>  (13) 
oracle

>  <origin>  (13) 
adg

>  <m_score__min__energy>  (13) 
-6.46

>  <m_primary>  (13) 
energy

$$$$
13:0
     RDKit          3D

 39 41  0  0  0  0  0  0  0  0999 V2000
   64.8430   32.0400   49.9350 C   0  0  0  0  0  0  0  0  0  0  0  0
   64.3810   33.1350   48.9700 C   0  0  0  0  0  0  0  0  0  0  0  0
   63.9540   32.5910   47.6680 N   0  0  0  0  0  0  0  0  0  0  0  0
   62.9850   33.4610   46.9620 C   0  0  0  0  0  0  0  0  0  0  0  0
   61.5850   33.4830   47.6170 C   0  0  0  0  0  0  0  0  0  0  0  0
   60.6570   32.4960   46.9980 N   0  0  0  0  0  0  0  0  0  0  0  0
   60.9160   31.1670   47.2370 C   0  0  0  0  0  0  0  0  0  0  0  0
   61.9120   30.8360   47.9460 O   0  0  0  0  0  0  0  0  0  0  0  0
   60.1010   30.1540   46.7070 C   0  0  0  0  0  0  0  0  0  0  0  0
   60.3830   28.7980   46.9830 C   0  0  0  0  0  0  0  0  0  0  0  0
   59.5810   27.7840   46.4680 C   0  0  0  0  0  0  0  0  0  0  0  0
   58.4880   28.1030   45.6750 C   0  0  0  0  0  0  0  0  0  0  0  0
   58.1900   29.4350   45.3890 C   0  0  0  0  0  0  0  0  0  0  0  0
   58.9940   30.4930   45.8960 C   0  0  0  0  0  0  0  0  0  0  0  0
   58.7330   31.8640   45.6270 C   0  0  0  0  0  0  0  0  0  0  0  0
   57.6550   32.2730   44.8000 C   0  0  0  0  0  0  0  0  0  0  0  0
   57.4050   33.6180   44.5520 C   0  0  0  0  0  0  0  0  0  0  0  0
   58.2110   34.5900   45.1150 C   0  0  0  0  0  0  0  0  0  0  0  0
   59.2810   34.2280   45.9250 C   0  0  0  0  0  0  0  0  0  0  0  0
   59.5810   32.8650   46.2010 C   0  0  0  0  0  0  0  0  0  0  0  0
   64.6995   32.3800   50.9712 H   0  0  0  0  0  0  0  0  0  0  0  0
   64.2532   31.1274   49.7636 H   0  0  0  0  0  0  0  0  0  0  0  0
   65.9082   31.8257   49.7636 H   0  0  0  0  0  0  0  0  0  0  0  0
   63.5348   33.6719   49.4235 H   0  0  0  0  0  0  0  0  0  0  0  0
   65.2337   33.8064   48.7904 H   0  0  0  0  0  0  0  0  0  0  0  0
   63.5970   31.6200   47.7950 H   0  0  0  0  0  0  0  0  0  0  0  0
   64.8120   32.5110   47.0730 H   0  0  0  0  0  0  0  0  0  0  0  0
   63.3811   34.4872   46.9524 H   0  0  0  0  0  0  0  0  0  0  0  0
   62.8616   33.0519   45.9484 H   0  0  0  0  0  0  0  0  0  0  0  0
   61.6907   33.2472   48.6862 H   0  0  0  0  0  0  0  0  0  0  0  0
   61.1588   34.4860   47.4677 H   0  0  0  0  0  0  0  0  0  0  0  0
   61.2472   28.5401   47.6128 H   0  0  0  0  0  0  0  0  0  0  0  0
   59.8131   26.7317   46.6891 H   0  0  0  0  0  0  0  0  0  0  0  0
   57.8533   27.3011   45.2698 H   0  0  0  0  0  0  0  0  0  0  0  0
   57.3185   29.6713   44.7608 H   0  0  0  0  0  0  0  0  0  0  0  0
   57.0043   31.5110   44.3462 H   0  0  0  0  0  0  0  0  0  0  0  0
   56.5637   33.9095   43.9061 H   0  0  0  0  0  0  0  0  0  0  0  0
   58.0049   35.6530   44.9214 H   0  0  0  0  0  0  0  0  0  0  0  0
   59.9117   35.0152   46.3637 H   0  0  0  0  0  0  0  0  0  0  0  0
  1  2  1  0
  2  3  1  0
  3  4  1  0
  4  5  1  0
  5  6  1  0
  6  7  1  0
  7  8  2  0
  7  9  1  0
  9 10  2  0
 10 11  1  0
 11 12  2  0
 12 13  1  0
 13 14  2  0
 14 15  1  0
 15 16  2  0
 16 17  1  0
 17 18  2  0
 18 19  1  0
 19 20  2  0
 20  6  1  0
 14  9  1  0
 20 15  1  0
  1 21  1  0
  1 22  1  0
  1 23  1  0
  2 24  1  0
  2 25  1  0
  3 26  1  0
  3 27  1  0
  4 28  1  0
  4 29  1  0
  5 30  1  0
  5 31  1  0
 10 32  1  0
 11 33  1  0
 12 34  1  0
 13 35  1  0
 16 36  1  0
 17 37  1  0
 18 38  1  0
 19 39  1  0
M  CHG  1   3   1
M  END
>  <UniqueID>  (14) 
13

>  <SMILES>  (14) 
CC[NH2+]CCn1c(=O)c2ccccc2c2ccccc21

>  <Energy>  (14) 
64.80040411250644

>  <Genealogy>  (14) 
CC[NH2+]CCn1c(=O)c2ccccc2c2ccccc21 (protonated)
CC[NH2+]CCn1c(=O)c2ccccc2c2ccccc21 (3D coordinates assigned)
CC[NH2+]CCn1c(=O)c2ccccc2c2ccccc21 (optimized conformer: 64.80040411250644 kcal/mol)

>  <smiles>  (14) 
CCNCCn1c(=O)c2ccccc2c2ccccc21

>  <score_type>  (14) 
oracle

>  <origin>  (14) 
adg

>  <m_score__min__energy>  (14) 
-5.6699999999999999

>  <m_primary>  (14) 
energy

$$$$
14:0
     RDKit          3D

 30 31  0  0  0  0  0  0  0  0999 V2000
   56.1300   25.8670   45.9730 C   0  0  0  0  0  0  0  0  0  0  0  0
   56.8520   27.1690   45.6110 C   0  0  0  0  0  0  0  0  0  0  0  0
   57.7810   27.6360   46.7340 C   0  0  0  0  0  0  0  0  0  0  0  0
   55.8980   28.2190   45.2470 N   0  0  0  0  0  0  0  0  0  0  0  0
   56.2220   29.5080   44.7130 C   0  0  0  0  0  0  0  0  0  0  0  0
   55.3190   30.3550   44.4740 O   0  0  0  0  0  0  0  0  0  0  0  0
   57.6520   29.8560   44.4520 C   0  0  0  0  0  0  0  0  0  0  0  0
   57.8860   31.2750   44.7510 N   0  0  0  0  0  0  0  0  0  0  0  0
   57.7890   32.2700   43.8290 C   0  0  0  0  0  0  0  0  0  0  0  0
   57.4570   32.0810   42.6280 O   0  0  0  0  0  0  0  0  0  0  0  0
   58.1730   33.7880   44.4610 S   0  0  0  0  0  0  0  0  0  0  0  0
   58.4890   33.1460   45.9820 C   0  0  0  0  0  0  0  0  0  0  0  0
   58.9060   33.8200   47.1270 C   0  0  0  0  0  0  0  0  0  0  0  0
   59.1290   33.0720   48.2920 C   0  0  0  0  0  0  0  0  0  0  0  0
   58.9370   31.6770   48.2900 C   0  0  0  0  0  0  0  0  0  0  0  0
   58.5180   31.0170   47.1230 C   0  0  0  0  0  0  0  0  0  0  0  0
   58.2890   31.7690   45.9600 C   0  0  0  0  0  0  0  0  0  0  0  0
   56.0760   25.7697   47.0674 H   0  0  0  0  0  0  0  0  0  0  0  0
   55.1123   25.8838   45.5558 H   0  0  0  0  0  0  0  0  0  0  0  0
   56.6833   25.0127   45.5558 H   0  0  0  0  0  0  0  0  0  0  0  0
   57.4798   26.9592   44.7324 H   0  0  0  0  0  0  0  0  0  0  0  0
   57.3236   27.4061   47.7076 H   0  0  0  0  0  0  0  0  0  0  0  0
   58.7469   27.1163   46.6508 H   0  0  0  0  0  0  0  0  0  0  0  0
   57.9401   28.7212   46.6508 H   0  0  0  0  0  0  0  0  0  0  0  0
   58.2999   29.2375   45.0905 H   0  0  0  0  0  0  0  0  0  0  0  0
   57.8822   29.6672   43.3931 H   0  0  0  0  0  0  0  0  0  0  0  0
   59.0564   34.9096   47.1179 H   0  0  0  0  0  0  0  0  0  0  0  0
   59.4557   33.5778   49.2125 H   0  0  0  0  0  0  0  0  0  0  0  0
   59.1165   31.0999   49.2091 H   0  0  0  0  0  0  0  0  0  0  0  0
   58.3715   29.9268   47.1205 H   0  0  0  0  0  0  0  0  0  0  0  0
  1  2  1  0
  2  3  1  0
  2  4  1  0
  4  5  1  0
  5  6  2  0
  5  7  1  0
  7  8  1  0
  8  9  1  0
  9 10  2  0
  9 11  1  0
 11 12  1  0
 12 13  2  0
 13 14  1  0
 14 15  2  0
 15 16  1  0
 16 17  2  0
 17  8  1  0
 17 12  1  0
  1 18  1  0
  1 19  1  0
  1 20  1  0
  2 21  1  0
  3 22  1  0
  3 23  1  0
  3 24  1  0
  7 25  1  0
  7 26  1  0
 13 27  1  0
 14 28  1  0
 15 29  1  0
 16 30  1  0
M  CHG  1   4  -1
M  END
>  <UniqueID>  (15) 
14

>  <SMILES>  (15) 
CC(C)[N-]C(=O)Cn1c(=O)sc2ccccc21

>  <Energy>  (15) 
60.14185612197119

>  <Genealogy>  (15) 
CC(C)[N-]C(=O)Cn1c(=O)sc2ccccc21 (protonated)
CC(C)[N-]C(=O)Cn1c(=O)sc2ccccc21 (3D coordinates assigned)
CC(C)[N-]C(=O)Cn1c(=O)sc2ccccc21 (optimized conformer: 60.14185612197119 kcal/mol)

>  <smiles>  (15) 
CC(C)NC(=O)Cn1c(=O)sc2ccccc21

>  <score_type>  (15) 
oracle

>  <origin>  (15) 
adg

>  <m_score__min__energy>  (15) 
-8.4199999999999999

>  <m_primary>  (15) 
energy

$$$$
15:0
     RDKit          3D

 43 45  0  0  0  0  0  0  0  0999 V2000
   55.6450   24.2990   44.8320 C   0  0  0  0  0  0  0  0  0  0  0  0
   54.6480   25.1380   45.6230 C   0  0  0  0  0  0  0  0  0  0  0  0
   55.2280   26.3830   46.0100 O   0  0  0  0  0  0  0  0  0  0  0  0
   56.5820   26.5970   46.3190 C   0  0  0  0  0  0  0  0  0  0  0  0
   57.2980   25.7610   47.2010 C   0  0  0  0  0  0  0  0  0  0  0  0
   58.6420   26.0130   47.4790 C   0  0  0  0  0  0  0  0  0  0  0  0
   59.2870   27.0990   46.8870 C   0  0  0  0  0  0  0  0  0  0  0  0
   58.5890   27.9390   46.0160 C   0  0  0  0  0  0  0  0  0  0  0  0
   57.2310   27.6930   45.7260 C   0  0  0  0  0  0  0  0  0  0  0  0
   56.4860   28.5120   44.8580 O   0  0  0  0  0  0  0  0  0  0  0  0
   56.9110   28.9780   43.5760 C   0  0  0  0  0  0  0  0  0  0  0  0
   56.6480   30.4520   43.4190 C   0  0  0  0  0  0  0  0  0  0  0  0
   56.6090   30.9580   42.2660 O   0  0  0  0  0  0  0  0  0  0  0  0
   56.3950   31.2990   44.5480 N   0  0  0  0  0  0  0  0  0  0  0  0
   57.3650   32.0650   45.2760 C   0  0  0  0  0  0  0  0  0  0  0  0
   57.1910   33.4620   45.3760 C   0  0  0  0  0  0  0  0  0  0  0  0
   58.1290   34.2570   46.0570 C   0  0  0  0  0  0  0  0  0  0  0  0
   59.2470   33.6410   46.6190 C   0  0  0  0  0  0  0  0  0  0  0  0
   60.2320   34.2870   47.2950 N   0  0  0  0  0  0  0  0  0  0  0  0
   61.1940   33.4290   47.7100 C   0  0  0  0  0  0  0  0  0  0  0  0
   62.6440   33.9350   48.6290 S   0  0  0  0  0  0  0  0  0  0  0  0
   63.7960   33.1530   47.4580 C   0  0  0  0  0  0  0  0  0  0  0  0
   60.8660   31.8340   47.2500 S   0  0  0  0  0  0  0  0  0  0  0  0
   59.4280   32.2730   46.4970 C   0  0  0  0  0  0  0  0  0  0  0  0
   58.5160   31.4620   45.8280 C   0  0  0  0  0  0  0  0  0  0  0  0
   56.2966   23.7507   45.5283 H   0  0  0  0  0  0  0  0  0  0  0  0
   55.1006   23.5832   44.1985 H   0  0  0  0  0  0  0  0  0  0  0  0
   56.2572   24.9576   44.1985 H   0  0  0  0  0  0  0  0  0  0  0  0
   53.7634   25.3310   44.9983 H   0  0  0  0  0  0  0  0  0  0  0  0
   54.3630   24.5847   46.5300 H   0  0  0  0  0  0  0  0  0  0  0  0
   56.7936   24.9048   47.6728 H   0  0  0  0  0  0  0  0  0  0  0  0
   59.1936   25.3544   48.1659 H   0  0  0  0  0  0  0  0  0  0  0  0
   60.3471   27.2943   47.1064 H   0  0  0  0  0  0  0  0  0  0  0  0
   59.1009   28.7962   45.5543 H   0  0  0  0  0  0  0  0  0  0  0  0
   57.9896   28.7921   43.4659 H   0  0  0  0  0  0  0  0  0  0  0  0
   56.3440   28.4383   42.8032 H   0  0  0  0  0  0  0  0  0  0  0  0
   56.3108   33.9343   44.9155 H   0  0  0  0  0  0  0  0  0  0  0  0
   57.9841   35.3439   46.1450 H   0  0  0  0  0  0  0  0  0  0  0  0
   60.2500   35.3160   47.4730 H   0  0  0  0  0  0  0  0  0  0  0  0
   64.5805   32.6205   48.0157 H   0  0  0  0  0  0  0  0  0  0  0  0
   63.2476   32.4397   46.8251 H   0  0  0  0  0  0  0  0  0  0  0  0
   64.2565   33.9260   46.8251 H   0  0  0  0  0  0  0  0  0  0  0  0
   58.6875   30.3797   45.7319 H   0  0  0  0  0  0  0  0  0  0  0  0
  1  2  1  0
  2  3  1  0
  3  4  1  0
  4  5  2  0
  5  6  1  0
  6  7  2  0
  7  8  1  0
  8  9  2  0
  9 10  1  0
 10 11  1  0
 11 12  1  0
 12 13  2  0
 12 14  1  0
 14 15  1  0
 15 16  2  0
 16 17  1  0
 17 18  2  0
 18 19  1  0
 19 20  2  0
 20 21  1  0
 21 22  1  0
 20 23  1  0
 23 24  1  0
 24 25  2  0
  9  4  1  0
 25 15  1  0
 24 18  1  0
  1 26  1  0
  1 27  1  0
  1 28  1  0
  2 29  1  0
  2 30  1  0
  5 31  1  0
  6 32  1  0
  7 33  1  0
  8 34  1  0
 11 35  1  0
 11 36  1  0
 16 37  1  0
 17 38  1  0
 19 39  1  0
 22 40  1  0
 22 41  1  0
 22 42  1  0
 25 43  1  0
M  CHG  2  14  -1  19   1
M  END
>  <UniqueID>  (16) 
15

>  <SMILES>  (16) 
CCOc1ccccc1OCC(=O)[N-]c1ccc2[nH+]c(SC)sc2c1

>  <Energy>  (16) 
78.84970556743319

>  <Genealogy>  (16) 
CCOc1ccccc1OCC(=O)[N-]c1ccc2[nH+]c(SC)sc2c1 (protonated)
CCOc1ccccc1OCC(=O)[N-]c1ccc2[nH+]c(SC)sc2c1 (3D coordinates assigned)
CCOc1ccccc1OCC(=O)[N-]c1ccc2[nH+]c(SC)sc2c1 (optimized conformer: 78.84970556743319 kcal/mol)

>  <smiles>  (16) 
CCOc1ccccc1OCC(=O)Nc1ccc2nc(SC)sc2c1

>  <score_type>  (16) 
oracle

>  <origin>  (16) 
adg

>  <m_score__min__energy>  (16) 
-8.5299999999999994

>  <m_primary>  (16) 
energy

$$$$
16:0
     RDKit          3D

 52 55  0  0  0  0  0  0  0  0999 V2000
   56.0750   24.3830   44.9450 C   0  0  0  0  0  0  0  0  0  0  0  0
   55.7740   25.4510   45.9910 C   0  0  0  0  0  0  0  0  0  0  0  0
   56.6620   26.6090   45.8150 N   0  0  0  0  0  0  0  0  0  0  0  0
   58.0760   26.2160   45.8780 C   0  0  0  0  0  0  0  0  0  0  0  0
   58.8750   27.2260   46.7110 C   0  0  0  0  0  0  0  0  0  0  0  0
   58.0320   28.3580   47.1340 N   0  0  0  0  0  0  0  0  0  0  0  0
   58.5480   29.6060   46.5970 C   0  0  0  0  0  0  0  0  0  0  0  0
   59.5560   30.3360   47.2830 C   0  0  0  0  0  0  0  0  0  0  0  0
   59.9710   31.5840   46.7800 C   0  0  0  0  0  0  0  0  0  0  0  0
   59.1930   32.2090   45.8280 N   0  0  0  0  0  0  0  0  0  0  0  0
   59.0450   33.6780   45.8180 C   0  0  0  0  0  0  0  0  0  0  0  0
   58.3790   31.4560   45.0120 C   0  0  0  0  0  0  0  0  0  0  0  0
   57.8290   31.9980   43.8250 C   0  0  0  0  0  0  0  0  0  0  0  0
   57.0150   31.2280   42.9980 C   0  0  0  0  0  0  0  0  0  0  0  0
   56.7310   29.9090   43.3290 C   0  0  0  0  0  0  0  0  0  0  0  0
   57.2490   29.3530   44.4990 C   0  0  0  0  0  0  0  0  0  0  0  0
   58.0690   30.1160   45.3630 C   0  0  0  0  0  0  0  0  0  0  0  0
   61.2400   32.1900   47.3320 C   0  0  0  0  0  0  0  0  0  0  0  0
   61.8980   33.2510   46.6730 C   0  0  0  0  0  0  0  0  0  0  0  0
   63.0220   33.8410   47.2430 C   0  0  0  0  0  0  0  0  0  0  0  0
   63.5350   33.3390   48.4310 C   0  0  0  0  0  0  0  0  0  0  0  0
   62.9580   32.2050   48.9930 C   0  0  0  0  0  0  0  0  0  0  0  0
   61.8540   31.6240   48.4280 N   0  0  0  0  0  0  0  0  0  0  0  0
   61.5170   30.2630   48.8610 C   0  0  0  0  0  0  0  0  0  0  0  0
   60.0480   29.9290   48.6570 C   0  0  0  0  0  0  0  0  0  0  0  0
   56.3404   23.4415   45.4481 H   0  0  0  0  0  0  0  0  0  0  0  0
   55.1864   24.2249   44.3162 H   0  0  0  0  0  0  0  0  0  0  0  0
   56.9154   24.7122   44.3162 H   0  0  0  0  0  0  0  0  0  0  0  0
   54.7288   25.7770   45.8850 H   0  0  0  0  0  0  0  0  0  0  0  0
   55.9389   25.0252   46.9917 H   0  0  0  0  0  0  0  0  0  0  0  0
   56.4870   27.0040   44.8610 H   0  0  0  0  0  0  0  0  0  0  0  0
   58.1554   25.2212   46.3406 H   0  0  0  0  0  0  0  0  0  0  0  0
   58.4855   26.1920   44.8573 H   0  0  0  0  0  0  0  0  0  0  0  0
   59.2704   26.7204   47.6043 H   0  0  0  0  0  0  0  0  0  0  0  0
   59.6944   27.6168   46.0899 H   0  0  0  0  0  0  0  0  0  0  0  0
   57.9690   28.4000   48.1760 H   0  0  0  0  0  0  0  0  0  0  0  0
   57.0440   28.2090   46.8330 H   0  0  0  0  0  0  0  0  0  0  0  0
   59.0075   34.0498   46.8526 H   0  0  0  0  0  0  0  0  0  0  0  0
   59.9022   34.1294   45.2970 H   0  0  0  0  0  0  0  0  0  0  0  0
   58.1150   33.9493   45.2970 H   0  0  0  0  0  0  0  0  0  0  0  0
   58.0476   33.0411   43.5525 H   0  0  0  0  0  0  0  0  0  0  0  0
   56.5957   31.6655   42.0800 H   0  0  0  0  0  0  0  0  0  0  0  0
   56.0962   29.3016   42.6671 H   0  0  0  0  0  0  0  0  0  0  0  0
   57.0169   28.3082   44.7528 H   0  0  0  0  0  0  0  0  0  0  0  0
   61.5207   33.6128   45.7051 H   0  0  0  0  0  0  0  0  0  0  0  0
   63.5019   34.7016   46.7541 H   0  0  0  0  0  0  0  0  0  0  0  0
   64.3872   33.8318   48.9219 H   0  0  0  0  0  0  0  0  0  0  0  0
   63.3944   31.7689   49.9037 H   0  0  0  0  0  0  0  0  0  0  0  0
   62.1235   29.5497   48.2836 H   0  0  0  0  0  0  0  0  0  0  0  0
   61.7263   30.1960   49.9388 H   0  0  0  0  0  0  0  0  0  0  0  0
   59.9112   28.8440   48.7756 H   0  0  0  0  0  0  0  0  0  0  0  0
   59.4666   30.4888   49.4043 H   0  0  0  0  0  0  0  0  0  0  0  0
  1  2  1  0
  2  3  1  0
  3  4  1  0
  4  5  1  0
  5  6  1  0
  6  7  1  0
  7  8  2  0
  8  9  1  0
  9 10  2  0
 10 11  1  0
 10 12  1  0
 12 13  2  0
 13 14  1  0
 14 15  2  0
 15 16  1  0
 16 17  2  0
  9 18  1  0
 18 19  2  0
 19 20  1  0
 20 21  2  0
 21 22  1  0
 22 23  2  0
 23 24  1  0
 24 25  1  0
 17  7  1  0
 23 18  1  0
 25  8  1  0
 17 12  1  0
  1 26  1  0
  1 27  1  0
  1 28  1  0
  2 29  1  0
  2 30  1  0
  3 31  1  0
  4 32  1  0
  4 33  1  0
  5 34  1  0
  5 35  1  0
  6 36  1  0
  6 37  1  0
 11 38  1  0
 11 39  1  0
 11 40  1  0
 13 41  1  0
 14 42  1  0
 15 43  1  0
 16 44  1  0
 19 45  1  0
 20 46  1  0
 21 47  1  0
 22 48  1  0
 24 49  1  0
 24 50  1  0
 25 51  1  0
 25 52  1  0
M  CHG  3   6   1  10   1  23   1
M  END
>  <UniqueID>  (17) 
16

>  <SMILES>  (17) 
CCNCC[NH2+]c1c2c([n+](C)c3ccccc13)-c1cccc[n+]1CC2

>  <Energy>  (17) 
90.7979526415455

>  <Genealogy>  (17) 
CCNCC[NH2+]c1c2c([n+](C)c3ccccc13)-c1cccc[n+]1CC2 (protonated)
CCNCC[NH2+]c1c2c([n+](C)c3ccccc13)-c1cccc[n+]1CC2 (3D coordinates assigned)
CCNCC[NH2+]c1c2c([n+](C)c3ccccc13)-c1cccc[n+]1CC2 (nonaromatic ring conformer: 90.7979526415455 kcal/mol)

>  <smiles>  (17) 
CCNCCNc1c2c([n+](C)c3ccccc13)-c1cccc[n+]1CC2

>  <score_type>  (17) 
oracle

>  <origin>  (17) 
adg

>  <m_score__min__energy>  (17) 
-3.6099999999999999

>  <m_primary>  (17) 
energy

$$$$
17:0
     RDKit          3D

 56 58  0  0  0  0  0  0  0  0999 V2000
   61.0980   30.4010   46.7690 C   0  0  0  0  0  0  0  0  0  0  0  0
   60.1360   30.5240   47.9470 C   0  0  0  0  0  0  0  0  0  0  0  0
   59.0570   31.4700   47.6330 N   0  0  0  0  0  0  0  0  0  0  0  0
   58.8940   32.4840   48.6860 C   0  0  0  0  0  0  0  0  0  0  0  0
   59.4700   33.8320   48.2400 C   0  0  0  0  0  0  0  0  0  0  0  0
   60.9770   33.7800   48.0430 C   0  0  0  0  0  0  0  0  0  0  0  0
   61.4850   33.8760   46.7280 C   0  0  0  0  0  0  0  0  0  0  0  0
   60.5780   34.0090   45.6600 O   0  0  0  0  0  0  0  0  0  0  0  0
   59.5050   34.9460   45.5690 C   0  0  0  0  0  0  0  0  0  0  0  0
   58.1540   34.2380   45.3420 C   0  0  0  0  0  0  0  0  0  0  0  0
   58.2050   32.7750   45.5440 N   0  0  0  0  0  0  0  0  0  0  0  0
   57.7180   31.9430   44.4520 C   0  0  0  0  0  0  0  0  0  0  0  0
   57.8200   32.3950   43.1090 C   0  0  0  0  0  0  0  0  0  0  0  0
   57.2800   31.6550   42.0560 C   0  0  0  0  0  0  0  0  0  0  0  0
   56.6520   30.4440   42.3010 C   0  0  0  0  0  0  0  0  0  0  0  0
   56.6280   29.9260   43.5910 C   0  0  0  0  0  0  0  0  0  0  0  0
   57.1970   30.6170   44.6700 C   0  0  0  0  0  0  0  0  0  0  0  0
   57.2340   29.8830   45.8770 O   0  0  0  0  0  0  0  0  0  0  0  0
   57.8860   28.6490   46.1500 C   0  0  0  0  0  0  0  0  0  0  0  0
   62.8680   33.8260   46.4990 C   0  0  0  0  0  0  0  0  0  0  0  0
   63.7590   33.7070   47.5610 C   0  0  0  0  0  0  0  0  0  0  0  0
   63.2880   33.6040   48.8740 C   0  0  0  0  0  0  0  0  0  0  0  0
   64.2010   33.4670   49.9370 C   0  0  0  0  0  0  0  0  0  0  0  0
   65.5420   33.4570   49.7150 F   0  0  0  0  0  0  0  0  0  0  0  0
   63.7380   33.3250   51.2490 C   0  0  0  0  0  0  0  0  0  0  0  0
   62.3710   33.3230   51.5080 C   0  0  0  0  0  0  0  0  0  0  0  0
   61.4520   33.4750   50.4680 C   0  0  0  0  0  0  0  0  0  0  0  0
   61.8890   33.6220   49.1310 C   0  0  0  0  0  0  0  0  0  0  0  0
   62.1234   30.2699   47.1451 H   0  0  0  0  0  0  0  0  0  0  0  0
   60.8182   29.5313   46.1563 H   0  0  0  0  0  0  0  0  0  0  0  0
   61.0460   31.3131   46.1563 H   0  0  0  0  0  0  0  0  0  0  0  0
   59.7008   29.5373   48.1636 H   0  0  0  0  0  0  0  0  0  0  0  0
   60.6903   30.8941   48.8221 H   0  0  0  0  0  0  0  0  0  0  0  0
   58.1670   30.9280   47.5680 H   0  0  0  0  0  0  0  0  0  0  0  0
   57.8232   32.6051   48.9069 H   0  0  0  0  0  0  0  0  0  0  0  0
   59.4356   32.1496   49.5831 H   0  0  0  0  0  0  0  0  0  0  0  0
   58.9988   34.1205   47.2888 H   0  0  0  0  0  0  0  0  0  0  0  0
   59.2597   34.5659   49.0319 H   0  0  0  0  0  0  0  0  0  0  0  0
   59.4537   35.5225   46.5044 H   0  0  0  0  0  0  0  0  0  0  0  0
   59.6963   35.6075   44.7112 H   0  0  0  0  0  0  0  0  0  0  0  0
   57.4195   34.6595   46.0441 H   0  0  0  0  0  0  0  0  0  0  0  0
   57.8771   34.4064   44.2908 H   0  0  0  0  0  0  0  0  0  0  0  0
   57.6460   32.5980   46.4040 H   0  0  0  0  0  0  0  0  0  0  0  0
   59.1990   32.5160   45.7300 H   0  0  0  0  0  0  0  0  0  0  0  0
   58.3332   33.3442   42.8954 H   0  0  0  0  0  0  0  0  0  0  0  0
   57.3532   32.0349   41.0263 H   0  0  0  0  0  0  0  0  0  0  0  0
   56.1738   29.8941   41.4770 H   0  0  0  0  0  0  0  0  0  0  0  0
   56.1512   28.9508   43.7693 H   0  0  0  0  0  0  0  0  0  0  0  0
   57.9611   28.5069   47.2382 H   0  0  0  0  0  0  0  0  0  0  0  0
   57.3065   27.8232   45.7115 H   0  0  0  0  0  0  0  0  0  0  0  0
   58.8947   28.6624   45.7115 H   0  0  0  0  0  0  0  0  0  0  0  0
   63.2519   33.8814   45.4697 H   0  0  0  0  0  0  0  0  0  0  0  0
   64.8416   33.6938   47.3666 H   0  0  0  0  0  0  0  0  0  0  0  0
   64.4546   33.2149   52.0762 H   0  0  0  0  0  0  0  0  0  0  0  0
   62.0114   33.2007   52.5404 H   0  0  0  0  0  0  0  0  0  0  0  0
   60.3749   33.4805   50.6912 H   0  0  0  0  0  0  0  0  0  0  0  0
  1  2  1  0
  2  3  1  0
  3  4  1  0
  4  5  1  0
  5  6  1  0
  6  7  2  0
  7  8  1  0
  8  9  1  0
  9 10  1  0
 10 11  1  0
 11 12  1  0
 12 13  2  0
 13 14  1  0
 14 15  2  0
 15 16  1  0
 16 17  2  0
 17 18  1  0
 18 19  1  0
  7 20  1  0
 20 21  2  0
 21 22  1  0
 22 23  2  0
 23 24  1  0
 23 25  1  0
 25 26  2  0
 26 27  1  0
 27 28  2  0
 28  6  1  0
 17 12  1  0
 28 22  1  0
  1 29  1  0
  1 30  1  0
  1 31  1  0
  2 32  1  0
  2 33  1  0
  3 34  1  0
  4 35  1  0
  4 36  1  0
  5 37  1  0
  5 38  1  0
  9 39  1  0
  9 40  1  0
 10 41  1  0
 10 42  1  0
 11 43  1  0
 11 44  1  0
 13 45  1  0
 14 46  1  0
 15 47  1  0
 16 48  1  0
 19 49  1  0
 19 50  1  0
 19 51  1  0
 20 52  1  0
 21 53  1  0
 25 54  1  0
 26 55  1  0
 27 56  1  0
M  CHG  1  11   1
M  END
>  <UniqueID>  (18) 
17

>  <SMILES>  (18) 
CCNCCc1c(OCC[NH2+]c2ccccc2OC)ccc2c(F)cccc12

>  <Energy>  (18) 
77.01548051946622

>  <Genealogy>  (18) 
CCNCCc1c(OCC[NH2+]c2ccccc2OC)ccc2c(F)cccc12 (protonated)
CCNCCc1c(OCC[NH2+]c2ccccc2OC)ccc2c(F)cccc12 (3D coordinates assigned)
CCNCCc1c(OCC[NH2+]c2ccccc2OC)ccc2c(F)cccc12 (optimized conformer: 77.01548051946622 kcal/mol)

>  <smiles>  (18) 
CCNCCc1c(OCCNc2ccccc2OC)ccc2c(F)cccc12

>  <score_type>  (18) 
oracle

>  <origin>  (18) 
adg

>  <m_score__min__energy>  (18) 
-5.04

>  <m_primary>  (18) 
energy

$$$$
18:0
     RDKit          3D

 68 71  0  0  0  0  0  0  0  0999 V2000
   63.5350   30.7260   51.3750 C   0  0  0  0  0  0  0  0  0  0  0  0
   62.0550   31.0980   51.3610 C   0  0  0  0  0  0  0  0  0  0  0  0
   61.8430   32.4060   50.7230 N   0  0  0  0  0  0  0  0  0  0  0  0
   61.1200   33.4540   51.4630 C   0  0  0  0  0  0  0  0  0  0  0  0
   59.6530   33.5170   51.0270 C   0  0  0  0  0  0  0  0  0  0  0  0
   58.8090   33.1880   52.1140 O   0  0  0  0  0  0  0  0  0  0  0  0
   57.6870   32.4570   51.6640 C   0  0  0  0  0  0  0  0  0  0  0  0
   57.8180   31.0080   52.1220 C   0  0  0  0  0  0  0  0  0  0  0  0
   57.6830   30.1050   50.9720 N   0  0  0  0  0  0  0  0  0  0  0  0
   58.9770   29.5220   50.5880 C   0  0  0  0  0  0  0  0  0  0  0  0
   59.5560   30.2250   49.3540 C   0  0  0  0  0  0  0  0  0  0  0  0
   58.5710   31.1130   48.7330 N   0  0  0  0  0  0  0  0  0  0  0  0
   58.5880   31.4060   47.3240 C   0  0  0  0  0  0  0  0  0  0  0  0
   58.9110   32.6990   46.8770 C   0  0  0  0  0  0  0  0  0  0  0  0
   59.3420   33.6920   47.7820 C   0  0  0  0  0  0  0  0  0  0  0  0
   59.6870   34.9640   47.3330 C   0  0  0  0  0  0  0  0  0  0  0  0
   59.6280   35.2630   45.9770 C   0  0  0  0  0  0  0  0  0  0  0  0
   59.1990   34.3000   45.0630 C   0  0  0  0  0  0  0  0  0  0  0  0
   58.8010   33.0080   45.4950 C   0  0  0  0  0  0  0  0  0  0  0  0
   58.3270   32.0590   44.6070 N   0  0  0  0  0  0  0  0  0  0  0  0
   57.9330   32.4550   43.2370 C   0  0  0  0  0  0  0  0  0  0  0  0
   58.2140   30.7400   45.0050 C   0  0  0  0  0  0  0  0  0  0  0  0
   58.0140   29.6930   44.0680 C   0  0  0  0  0  0  0  0  0  0  0  0
   57.8860   28.3680   44.4860 C   0  0  0  0  0  0  0  0  0  0  0  0
   57.9810   28.0470   45.8360 C   0  0  0  0  0  0  0  0  0  0  0  0
   58.2140   29.0480   46.7750 C   0  0  0  0  0  0  0  0  0  0  0  0
   58.3250   30.3980   46.3810 C   0  0  0  0  0  0  0  0  0  0  0  0
   62.3510   32.6590   49.3920 C   0  0  0  0  0  0  0  0  0  0  0  0
   62.8850   33.9190   49.0590 C   0  0  0  0  0  0  0  0  0  0  0  0
   63.3850   34.1610   47.7750 C   0  0  0  0  0  0  0  0  0  0  0  0
   63.3600   33.1520   46.8110 C   0  0  0  0  0  0  0  0  0  0  0  0
   62.8340   31.8970   47.1280 C   0  0  0  0  0  0  0  0  0  0  0  0
   62.3330   31.6480   48.4090 C   0  0  0  0  0  0  0  0  0  0  0  0
   63.8814   30.6389   52.4154 H   0  0  0  0  0  0  0  0  0  0  0  0
   63.6763   29.7644   50.8598 H   0  0  0  0  0  0  0  0  0  0  0  0
   64.1141   31.5065   50.8598 H   0  0  0  0  0  0  0  0  0  0  0  0
   61.4974   30.3316   50.8028 H   0  0  0  0  0  0  0  0  0  0  0  0
   61.6996   31.1550   52.4004 H   0  0  0  0  0  0  0  0  0  0  0  0
   61.1667   33.2324   52.5394 H   0  0  0  0  0  0  0  0  0  0  0  0
   61.5922   34.4244   51.2500 H   0  0  0  0  0  0  0  0  0  0  0  0
   59.4198   34.5345   50.6800 H   0  0  0  0  0  0  0  0  0  0  0  0
   59.4880   32.7971   50.2119 H   0  0  0  0  0  0  0  0  0  0  0  0
   56.7696   32.8946   52.0846 H   0  0  0  0  0  0  0  0  0  0  0  0
   57.6364   32.4951   50.5658 H   0  0  0  0  0  0  0  0  0  0  0  0
   58.8037   30.8605   52.5875 H   0  0  0  0  0  0  0  0  0  0  0  0
   57.0248   30.7861   52.8511 H   0  0  0  0  0  0  0  0  0  0  0  0
   57.0560   29.3170   51.2610 H   0  0  0  0  0  0  0  0  0  0  0  0
   59.6817   29.6288   51.4258 H   0  0  0  0  0  0  0  0  0  0  0  0
   58.8230   28.4604   50.3447 H   0  0  0  0  0  0  0  0  0  0  0  0
   60.4311   30.8182   49.6578 H   0  0  0  0  0  0  0  0  0  0  0  0
   59.8406   29.4568   48.6199 H   0  0  0  0  0  0  0  0  0  0  0  0
   57.7950   31.4980   49.3190 H   0  0  0  0  0  0  0  0  0  0  0  0
   59.4062   33.4585   48.8550 H   0  0  0  0  0  0  0  0  0  0  0  0
   60.0065   35.7328   48.0520 H   0  0  0  0  0  0  0  0  0  0  0  0
   59.9206   36.2625   45.6230 H   0  0  0  0  0  0  0  0  0  0  0  0
   59.1688   34.5459   43.9913 H   0  0  0  0  0  0  0  0  0  0  0  0
   57.1580   33.2339   43.2891 H   0  0  0  0  0  0  0  0  0  0  0  0
   58.8107   32.8462   42.7017 H   0  0  0  0  0  0  0  0  0  0  0  0
   57.5373   31.5793   42.7017 H   0  0  0  0  0  0  0  0  0  0  0  0
   57.9590   29.9299   42.9952 H   0  0  0  0  0  0  0  0  0  0  0  0
   57.7093   27.5743   43.7451 H   0  0  0  0  0  0  0  0  0  0  0  0
   57.8720   27.0020   46.1618 H   0  0  0  0  0  0  0  0  0  0  0  0
   58.3128   28.7828   47.8380 H   0  0  0  0  0  0  0  0  0  0  0  0
   62.9091   34.7186   49.8140 H   0  0  0  0  0  0  0  0  0  0  0  0
   63.7989   35.1489   47.5246 H   0  0  0  0  0  0  0  0  0  0  0  0
   63.7542   33.3447   45.8023 H   0  0  0  0  0  0  0  0  0  0  0  0
   62.8141   31.1026   46.3673 H   0  0  0  0  0  0  0  0  0  0  0  0
   61.9220   30.6570   48.6519 H   0  0  0  0  0  0  0  0  0  0  0  0
  1  2  1  0
  2  3  1  0
  3  4  1  0
  4  5  1  0
  5  6  1  0
  6  7  1  0
  7  8  1  0
  8  9  1  0
  9 10  1  0
 10 11  1  0
 11 12  1  0
 12 13  1  0
 13 14  1  0
 14 15  2  0
 15 16  1  0
 16 17  2  0
 17 18  1  0
 18 19  2  0
 19 20  1  0
 20 21  1  0
 20 22  2  0
 22 23  1  0
 23 24  2  0
 24 25  1  0
 25 26  2  0
 26 27  1  0
  3 28  1  0
 28 29  2  0
 29 30  1  0
 30 31  2  0
 31 32  1  0
 32 33  2  0
 27 13  2  0
 33 28  1  0
 19 14  1  0
 27 22  1  0
  1 34  1  0
  1 35  1  0
  1 36  1  0
  2 37  1  0
  2 38  1  0
  4 39  1  0
  4 40  1  0
  5 41  1  0
  5 42  1  0
  7 43  1  0
  7 44  1  0
  8 45  1  0
  8 46  1  0
  9 47  1  0
 10 48  1  0
 10 49  1  0
 11 50  1  0
 11 51  1  0
 12 52  1  0
 15 53  1  0
 16 54  1  0
 17 55  1  0
 18 56  1  0
 21 57  1  0
 21 58  1  0
 21 59  1  0
 23 60  1  0
 24 61  1  0
 25 62  1  0
 26 63  1  0
 29 64  1  0
 30 65  1  0
 31 66  1  0
 32 67  1  0
 33 68  1  0
M  CHG  1  20   1
M  END
>  <UniqueID>  (19) 
18

>  <SMILES>  (19) 
CCN(CCOCCNCCNc1c2ccccc2[n+](C)c2ccccc12)c1ccccc1

>  <Energy>  (19) 
92.5432548119718

>  <Genealogy>  (19) 
CCN(CCOCCNCCNc1c2ccccc2[n+](C)c2ccccc12)c1ccccc1 (3D coordinates assigned)
CCN(CCOCCNCCNc1c2ccccc2[n+](C)c2ccccc12)c1ccccc1 (optimized conformer: 92.5432548119718 kcal/mol)

>  <smiles>  (19) 
CCN(CCOCCNCCNc1c2ccccc2[n+](C)c2ccccc12)c1ccccc1

>  <score_type>  (19) 
oracle

>  <origin>  (19) 
adg

>  <m_score__min__energy>  (19) 
-6.3399999999999999

>  <m_primary>  (19) 
energy

$$$$
19:0
     RDKit          3D

 44 46  0  0  0  0  0  0  0  0999 V2000
   57.1250   26.7170   46.3780 C   0  0  0  0  0  0  0  0  0  0  0  0
   58.2310   25.9430   47.1020 C   0  0  0  0  0  0  0  0  0  0  0  0
   59.4540   26.7450   47.2720 N   0  0  0  0  0  0  0  0  0  0  0  0
   60.2710   26.8150   46.0490 C   0  0  0  0  0  0  0  0  0  0  0  0
   60.7430   28.2490   45.7760 C   0  0  0  0  0  0  0  0  0  0  0  0
   60.3140   29.1640   46.8360 N   0  0  0  0  0  0  0  0  0  0  0  0
   60.0770   30.5640   46.6010 C   0  0  0  0  0  0  0  0  0  0  0  0
   61.0470   31.5210   46.9450 C   0  0  0  0  0  0  0  0  0  0  0  0
   62.2860   31.1320   47.4960 C   0  0  0  0  0  0  0  0  0  0  0  0
   63.2580   32.0820   47.7990 C   0  0  0  0  0  0  0  0  0  0  0  0
   63.0150   33.4300   47.5540 C   0  0  0  0  0  0  0  0  0  0  0  0
   61.7870   33.8380   47.0340 C   0  0  0  0  0  0  0  0  0  0  0  0
   60.7620   32.9000   46.7550 C   0  0  0  0  0  0  0  0  0  0  0  0
   59.5150   33.2970   46.3050 N   0  0  0  0  0  0  0  0  0  0  0  0
   59.0910   34.7030   46.4760 C   0  0  0  0  0  0  0  0  0  0  0  0
   58.6440   32.3570   45.7770 C   0  0  0  0  0  0  0  0  0  0  0  0
   57.4880   32.6880   45.0140 C   0  0  0  0  0  0  0  0  0  0  0  0
   57.2410   33.8700   44.6600 O   0  0  0  0  0  0  0  0  0  0  0  0
   56.6430   31.7090   44.6010 N   0  0  0  0  0  0  0  0  0  0  0  0
   56.8940   30.4030   44.8520 C   0  0  0  0  0  0  0  0  0  0  0  0
   55.9220   29.3570   44.4190 C   0  0  0  0  0  0  0  0  0  0  0  0
   58.0170   30.0500   45.5200 N   0  0  0  0  0  0  0  0  0  0  0  0
   58.9000   30.9790   45.9710 C   0  0  0  0  0  0  0  0  0  0  0  0
   56.4587   27.1833   47.1186 H   0  0  0  0  0  0  0  0  0  0  0  0
   57.5760   27.4976   45.7477 H   0  0  0  0  0  0  0  0  0  0  0  0
   56.5461   26.0259   45.7477 H   0  0  0  0  0  0  0  0  0  0  0  0
   57.8626   25.6447   48.0946 H   0  0  0  0  0  0  0  0  0  0  0  0
   58.4857   25.0663   46.4883 H   0  0  0  0  0  0  0  0  0  0  0  0
   60.0330   26.3500   48.0500 H   0  0  0  0  0  0  0  0  0  0  0  0
   61.1502   26.1647   46.1676 H   0  0  0  0  0  0  0  0  0  0  0  0
   59.6546   26.4845   45.2000 H   0  0  0  0  0  0  0  0  0  0  0  0
   61.8414   28.2591   45.7174 H   0  0  0  0  0  0  0  0  0  0  0  0
   60.2982   28.5851   44.8277 H   0  0  0  0  0  0  0  0  0  0  0  0
   60.1060   28.7710   47.7810 H   0  0  0  0  0  0  0  0  0  0  0  0
   62.4863   30.0676   47.6882 H   0  0  0  0  0  0  0  0  0  0  0  0
   64.2186   31.7666   48.2323 H   0  0  0  0  0  0  0  0  0  0  0  0
   63.7937   34.1760   47.7711 H   0  0  0  0  0  0  0  0  0  0  0  0
   61.6110   34.9058   46.8371 H   0  0  0  0  0  0  0  0  0  0  0  0
   59.0205   34.9368   47.5485 H   0  0  0  0  0  0  0  0  0  0  0  0
   59.8284   35.3684   46.0033 H   0  0  0  0  0  0  0  0  0  0  0  0
   58.1086   34.8498   46.0033 H   0  0  0  0  0  0  0  0  0  0  0  0
   55.4783   28.8795   45.3051 H   0  0  0  0  0  0  0  0  0  0  0  0
   55.1276   29.8216   43.8164 H   0  0  0  0  0  0  0  0  0  0  0  0
   56.4435   28.5988   43.8164 H   0  0  0  0  0  0  0  0  0  0  0  0
  1  2  1  0
  2  3  1  0
  3  4  1  0
  4  5  1  0
  5  6  1  0
  6  7  1  0
  7  8  2  0
  8  9  1  0
  9 10  2  0
 10 11  1  0
 11 12  2  0
 12 13  1  0
 13 14  2  0
 14 15  1  0
 14 16  1  0
 16 17  1  0
 17 18  2  0
 17 19  1  0
 19 20  2  0
 20 21  1  0
 20 22  1  0
 22 23  1  0
 23  7  1  0
 13  8  1  0
 23 16  2  0
  1 24  1  0
  1 25  1  0
  1 26  1  0
  2 27  1  0
  2 28  1  0
  3 29  1  0
  4 30  1  0
  4 31  1  0
  5 32  1  0
  5 33  1  0
  6 34  1  0
  9 35  1  0
 10 36  1  0
 11 37  1  0
 12 38  1  0
 15 39  1  0
 15 40  1  0
 15 41  1  0
 21 42  1  0
 21 43  1  0
 21 44  1  0
M  CHG  2  14   1  22  -1
M  END
>  <UniqueID>  (20) 
19

>  <SMILES>  (20) 
CCNCCNc1c2ccccc2[n+](C)c2c(=O)nc(C)[n-]c12

>  <Energy>  (20) 
68.98571553249249

>  <Genealogy>  (20) 
CCNCCNc1c2ccccc2[n+](C)c2c(=O)nc(C)[n-]c12 (protonated)
CCNCCNc1c2ccccc2[n+](C)c2c(=O)nc(C)[n-]c12 (3D coordinates assigned)
CCNCCNc1c2ccccc2[n+](C)c2c(=O)nc(C)[n-]c12 (optimized conformer: 68.98571553249249 kcal/mol)

>  <smiles>  (20) 
CCNCCNc1c2ccccc2[n+](C)c2c(=O)nc(C)[nH]c12

>  <score_type>  (20) 
oracle

>  <origin>  (20) 
adg

>  <m_score__min__energy>  (20) 
-6.8799999999999999

>  <m_primary>  (20) 
energy

$$$$
20:0
     RDKit          3D

 83 85  0  0  0  0  0  0  0  0999 V2000
   57.4670   31.4590   43.6970 C   0  0  0  0  0  0  0  0  0  0  0  0
   57.9960   30.8090   44.7390 C   0  0  0  0  0  0  0  0  0  0  0  0
   59.0760   29.7500   44.5670 C   0  0  0  0  0  0  0  0  0  0  0  0
   59.4260   28.9700   45.8150 N   0  0  0  0  0  0  0  0  0  0  0  0
   58.1380   28.3690   46.3230 C   0  0  0  0  0  0  0  0  0  0  0  0
   57.3950   27.3830   45.4070 C   0  0  0  0  0  0  0  0  0  0  0  0
   60.4530   27.9400   45.4020 C   0  0  0  0  0  0  0  0  0  0  0  0
   60.6870   26.7530   46.3540 C   0  0  0  0  0  0  0  0  0  0  0  0
   59.9920   30.0100   46.7570 C   0  0  0  0  0  0  0  0  0  0  0  0
   59.3060   30.2030   48.1340 C   0  0  0  0  0  0  0  0  0  0  0  0
   60.2840   30.0980   49.3320 C   0  0  0  0  0  0  0  0  0  0  0  0
   59.6920   30.2850   50.6770 N   0  0  0  0  0  0  0  0  0  0  0  0
   60.5950   29.9590   51.7890 C   0  0  0  0  0  0  0  0  0  0  0  0
   58.3320   29.7290   50.8460 C   0  0  0  0  0  0  0  0  0  0  0  0
   57.3860   30.8270   51.3270 C   0  0  0  0  0  0  0  0  0  0  0  0
   58.0450   31.6390   52.3570 N   0  0  0  0  0  0  0  0  0  0  0  0
   57.4940   32.9990   52.3810 C   0  0  0  0  0  0  0  0  0  0  0  0
   58.6030   34.0290   52.6390 C   0  0  0  0  0  0  0  0  0  0  0  0
   59.6070   34.1840   51.4710 C   0  0  0  0  0  0  0  0  0  0  0  0
   59.8910   32.9210   50.7580 N   0  0  0  0  0  0  0  0  0  0  0  0
   60.7570   33.1080   49.5990 C   0  0  0  0  0  0  0  0  0  0  0  0
   62.1620   32.9010   49.7180 C   0  0  0  0  0  0  0  0  0  0  0  0
   62.7550   32.4720   50.9350 C   0  0  0  0  0  0  0  0  0  0  0  0
   64.1190   32.2100   51.0210 C   0  0  0  0  0  0  0  0  0  0  0  0
   64.9250   32.3490   49.9030 C   0  0  0  0  0  0  0  0  0  0  0  0
   64.3820   32.7930   48.7020 C   0  0  0  0  0  0  0  0  0  0  0  0
   63.0040   33.1140   48.5920 C   0  0  0  0  0  0  0  0  0  0  0  0
   62.4820   33.6080   47.4170 N   0  0  0  0  0  0  0  0  0  0  0  0
   63.3860   34.1540   46.3790 C   0  0  0  0  0  0  0  0  0  0  0  0
   61.1180   33.6260   47.2180 C   0  0  0  0  0  0  0  0  0  0  0  0
   60.5730   33.8330   45.9240 C   0  0  0  0  0  0  0  0  0  0  0  0
   59.2020   33.9370   45.7260 C   0  0  0  0  0  0  0  0  0  0  0  0
   58.3370   33.8390   46.8030 C   0  0  0  0  0  0  0  0  0  0  0  0
   58.8330   33.5890   48.0790 C   0  0  0  0  0  0  0  0  0  0  0  0
   60.2250   33.4290   48.3130 C   0  0  0  0  0  0  0  0  0  0  0  0
   56.6880   32.2183   43.8603 H   0  0  0  0  0  0  0  0  0  0  0  0
   57.8108   31.2344   42.6765 H   0  0  0  0  0  0  0  0  0  0  0  0
   57.6396   31.0469   45.7521 H   0  0  0  0  0  0  0  0  0  0  0  0
   58.7315   29.0348   43.8055 H   0  0  0  0  0  0  0  0  0  0  0  0
   59.9897   30.2929   44.2833 H   0  0  0  0  0  0  0  0  0  0  0  0
   58.3707   27.8369   47.2572 H   0  0  0  0  0  0  0  0  0  0  0  0
   57.4536   29.2246   46.4209 H   0  0  0  0  0  0  0  0  0  0  0  0
   56.8459   26.6543   46.0214 H   0  0  0  0  0  0  0  0  0  0  0  0
   56.6864   27.9351   44.7721 H   0  0  0  0  0  0  0  0  0  0  0  0
   58.1210   26.8541   44.7721 H   0  0  0  0  0  0  0  0  0  0  0  0
   60.1361   27.5281   44.4325 H   0  0  0  0  0  0  0  0  0  0  0  0
   61.4088   28.4843   45.3901 H   0  0  0  0  0  0  0  0  0  0  0  0
   60.6187   27.0995   47.3958 H   0  0  0  0  0  0  0  0  0  0  0  0
   59.9236   25.9820   46.1732 H   0  0  0  0  0  0  0  0  0  0  0  0
   61.6859   26.3294   46.1732 H   0  0  0  0  0  0  0  0  0  0  0  0
   61.0404   29.7387   46.9502 H   0  0  0  0  0  0  0  0  0  0  0  0
   59.8308   30.9654   46.2363 H   0  0  0  0  0  0  0  0  0  0  0  0
   58.8375   31.1980   48.1532 H   0  0  0  0  0  0  0  0  0  0  0  0
   58.5700   29.3931   48.2452 H   0  0  0  0  0  0  0  0  0  0  0  0
   60.7438   29.0991   49.3035 H   0  0  0  0  0  0  0  0  0  0  0  0
   60.9954   30.9274   49.2052 H   0  0  0  0  0  0  0  0  0  0  0  0
   60.0820   30.1442   52.7443 H   0  0  0  0  0  0  0  0  0  0  0  0
   60.8846   28.8996   51.7277 H   0  0  0  0  0  0  0  0  0  0  0  0
   61.4945   30.5891   51.7277 H   0  0  0  0  0  0  0  0  0  0  0  0
   57.9755   29.3345   49.8831 H   0  0  0  0  0  0  0  0  0  0  0  0
   58.3585   28.9182   51.5889 H   0  0  0  0  0  0  0  0  0  0  0  0
   57.1106   31.4691   50.4774 H   0  0  0  0  0  0  0  0  0  0  0  0
   56.4828   30.3656   51.7528 H   0  0  0  0  0  0  0  0  0  0  0  0
   59.0630   31.7090   52.1180 H   0  0  0  0  0  0  0  0  0  0  0  0
   57.0200   33.2138   51.4119 H   0  0  0  0  0  0  0  0  0  0  0  0
   56.7531   33.0663   53.1913 H   0  0  0  0  0  0  0  0  0  0  0  0
   58.1313   35.0060   52.8208 H   0  0  0  0  0  0  0  0  0  0  0  0
   59.1772   33.6663   53.5043 H   0  0  0  0  0  0  0  0  0  0  0  0
   59.1921   34.9037   50.7500 H   0  0  0  0  0  0  0  0  0  0  0  0
   60.5568   34.5263   51.9078 H   0  0  0  0  0  0  0  0  0  0  0  0
   59.0020   32.4260   50.5530 H   0  0  0  0  0  0  0  0  0  0  0  0
   60.3500   32.2530   51.4190 H   0  0  0  0  0  0  0  0  0  0  0  0
   62.1240   32.3443   51.8269 H   0  0  0  0  0  0  0  0  0  0  0  0
   64.5578   31.8920   51.9782 H   0  0  0  0  0  0  0  0  0  0  0  0
   65.9964   32.1078   49.9652 H   0  0  0  0  0  0  0  0  0  0  0  0
   65.0326   32.8973   47.8212 H   0  0  0  0  0  0  0  0  0  0  0  0
   64.2321   34.6650   46.8616 H   0  0  0  0  0  0  0  0  0  0  0  0
   63.7630   33.3325   45.7522 H   0  0  0  0  0  0  0  0  0  0  0  0
   62.8344   34.8701   45.7522 H   0  0  0  0  0  0  0  0  0  0  0  0
   61.2498   33.9127   45.0605 H   0  0  0  0  0  0  0  0  0  0  0  0
   58.8033   34.0972   44.7134 H   0  0  0  0  0  0  0  0  0  0  0  0
   57.2544   33.9591   46.6494 H   0  0  0  0  0  0  0  0  0  0  0  0
   58.1327   33.5137   48.9239 H   0  0  0  0  0  0  0  0  0  0  0  0
  1  2  2  0
  2  3  1  0
  3  4  1  0
  4  5  1  0
  5  6  1  0
  4  7  1  0
  7  8  1  0
  4  9  1  0
  9 10  1  0
 10 11  1  0
 11 12  1  0
 12 13  1  0
 12 14  1  0
 14 15  1  0
 15 16  1  0
 16 17  1  0
 17 18  1  0
 18 19  1  0
 19 20  1  0
 20 21  1  0
 21 22  2  0
 22 23  1  0
 23 24  2  0
 24 25  1  0
 25 26  2  0
 26 27  1  0
 27 28  2  0
 28 29  1  0
 28 30  1  0
 30 31  2  0
 31 32  1  0
 32 33  2  0
 33 34  1  0
 34 35  2  0
 35 21  1  0
 27 22  1  0
 35 30  1  0
  1 36  1  0
  1 37  1  0
  2 38  1  0
  3 39  1  0
  3 40  1  0
  5 41  1  0
  5 42  1  0
  6 43  1  0
  6 44  1  0
  6 45  1  0
  7 46  1  0
  7 47  1  0
  8 48  1  0
  8 49  1  0
  8 50  1  0
  9 51  1  0
  9 52  1  0
 10 53  1  0
 10 54  1  0
 11 55  1  0
 11 56  1  0
 13 57  1  0
 13 58  1  0
 13 59  1  0
 14 60  1  0
 14 61  1  0
 15 62  1  0
 15 63  1  0
 16 64  1  0
 17 65  1  0
 17 66  1  0
 18 67  1  0
 18 68  1  0
 19 69  1  0
 19 70  1  0
 20 71  1  0
 20 72  1  0
 23 73  1  0
 24 74  1  0
 25 75  1  0
 26 76  1  0
 29 77  1  0
 29 78  1  0
 29 79  1  0
 31 80  1  0
 32 81  1  0
 33 82  1  0
 34 83  1  0
M  CHG  3   4   1  20   1  28   1
M  END
>  <UniqueID>  (21) 
20

>  <SMILES>  (21) 
C=CC[N+](CC)(CC)CCCN(C)CCNCCC[NH2+]c1c2ccccc2[n+](C)c2ccccc12

>  <Energy>  (21) 
139.5115377551917

>  <Genealogy>  (21) 
C=CC[N+](CC)(CC)CCCN(C)CCNCCC[NH2+]c1c2ccccc2[n+](C)c2ccccc12 (protonated)
C=CC[N+](CC)(CC)CCCN(C)CCNCCC[NH2+]c1c2ccccc2[n+](C)c2ccccc12 (3D coordinates assigned)
C=CC[N+](CC)(CC)CCCN(C)CCNCCC[NH2+]c1c2ccccc2[n+](C)c2ccccc12 (optimized conformer: 139.5115377551917 kcal/mol)

>  <smiles>  (21) 
C=CC[N+](CC)(CC)CCCN(C)CCNCCCNc1c2ccccc2[n+](C)c2ccccc12

>  <score_type>  (21) 
oracle

>  <origin>  (21) 
adg

>  <m_score__min__energy>  (21) 
-2.96

>  <m_primary>  (21) 
energy

$$$$
21:0
     RDKit          3D

 64 68  0  0  0  0  0  0  0  0999 V2000
   56.5450   24.8000   46.7420 C   0  0  0  0  0  0  0  0  0  0  0  0
   57.7590   25.3530   47.4860 C   0  0  0  0  0  0  0  0  0  0  0  0
   58.3700   26.4740   46.7310 N   0  0  0  0  0  0  0  0  0  0  0  0
   59.8410   26.4930   46.9000 C   0  0  0  0  0  0  0  0  0  0  0  0
   60.4850   27.5440   45.9940 C   0  0  0  0  0  0  0  0  0  0  0  0
   57.9890   26.4340   45.2940 C   0  0  0  0  0  0  0  0  0  0  0  0
   57.4710   27.8030   44.8470 C   0  0  0  0  0  0  0  0  0  0  0  0
   57.5030   28.7720   45.9410 N   0  0  0  0  0  0  0  0  0  0  0  0
   57.9980   30.0950   45.7010 C   0  0  0  0  0  0  0  0  0  0  0  0
   58.7600   30.7430   46.6610 C   0  0  0  0  0  0  0  0  0  0  0  0
   59.2510   32.0280   46.4570 C   0  0  0  0  0  0  0  0  0  0  0  0
   58.9520   32.7450   45.3300 N   0  0  0  0  0  0  0  0  0  0  0  0
   59.2900   34.1770   45.2700 C   0  0  0  0  0  0  0  0  0  0  0  0
   58.2890   32.1000   44.2930 C   0  0  0  0  0  0  0  0  0  0  0  0
   58.1180   32.7080   43.0270 C   0  0  0  0  0  0  0  0  0  0  0  0
   57.3970   32.0730   42.0150 C   0  0  0  0  0  0  0  0  0  0  0  0
   56.8420   30.8150   42.2290 C   0  0  0  0  0  0  0  0  0  0  0  0
   57.0300   30.1640   43.4470 C   0  0  0  0  0  0  0  0  0  0  0  0
   57.7700   30.7710   44.4800 C   0  0  0  0  0  0  0  0  0  0  0  0
   60.0980   32.3710   47.6310 C   0  0  0  0  0  0  0  0  0  0  0  0
   60.9600   33.4280   47.9590 C   0  0  0  0  0  0  0  0  0  0  0  0
   61.6780   33.3530   49.1760 C   0  0  0  0  0  0  0  0  0  0  0  0
   61.5710   32.2160   50.0160 C   0  0  0  0  0  0  0  0  0  0  0  0
   60.7530   31.1370   49.6280 C   0  0  0  0  0  0  0  0  0  0  0  0
   60.6110   29.9050   50.3050 C   0  0  0  0  0  0  0  0  0  0  0  0
   61.3190   29.6480   51.5280 N   0  0  0  0  0  0  0  0  0  0  0  0
   62.7510   29.3560   51.4680 C   0  0  0  0  0  0  0  0  0  0  0  0
   60.7590   30.1350   52.7870 C   0  0  0  0  0  0  0  0  0  0  0  0
   59.8010   28.9290   49.7590 N   0  0  0  0  0  0  0  0  0  0  0  0
   59.1520   29.1090   48.5980 N   0  0  0  0  0  0  0  0  0  0  0  0
   59.2630   30.2930   47.9530 C   0  0  0  0  0  0  0  0  0  0  0  0
   60.0370   31.2800   48.4580 C   0  0  0  0  0  0  0  0  0  0  0  0
   55.7939   24.4578   47.4692 H   0  0  0  0  0  0  0  0  0  0  0  0
   56.1111   25.5893   46.1105 H   0  0  0  0  0  0  0  0  0  0  0  0
   56.8557   23.9546   46.1105 H   0  0  0  0  0  0  0  0  0  0  0  0
   57.4425   25.7141   48.4756 H   0  0  0  0  0  0  0  0  0  0  0  0
   58.5040   24.5508   47.5931 H   0  0  0  0  0  0  0  0  0  0  0  0
   60.0794   26.7272   47.9480 H   0  0  0  0  0  0  0  0  0  0  0  0
   60.2374   25.5043   46.6254 H   0  0  0  0  0  0  0  0  0  0  0  0
   60.9603   28.3196   46.6125 H   0  0  0  0  0  0  0  0  0  0  0  0
   61.2447   27.0648   45.3590 H   0  0  0  0  0  0  0  0  0  0  0  0
   59.7131   28.0033   45.3590 H   0  0  0  0  0  0  0  0  0  0  0  0
   58.8692   26.1641   44.6920 H   0  0  0  0  0  0  0  0  0  0  0  0
   57.1947   25.6860   45.1536 H   0  0  0  0  0  0  0  0  0  0  0  0
   58.1009   28.1721   44.0242 H   0  0  0  0  0  0  0  0  0  0  0  0
   56.4273   27.6867   44.5198 H   0  0  0  0  0  0  0  0  0  0  0  0
   57.5220   28.4170   46.9230 H   0  0  0  0  0  0  0  0  0  0  0  0
   59.3839   34.5747   46.2913 H   0  0  0  0  0  0  0  0  0  0  0  0
   60.2434   34.3067   44.7369 H   0  0  0  0  0  0  0  0  0  0  0  0
   58.4952   34.7193   44.7369 H   0  0  0  0  0  0  0  0  0  0  0  0
   58.5605   33.6971   42.8374 H   0  0  0  0  0  0  0  0  0  0  0  0
   57.2666   32.5698   41.0423 H   0  0  0  0  0  0  0  0  0  0  0  0
   56.2532   30.3330   41.4346 H   0  0  0  0  0  0  0  0  0  0  0  0
   56.5957   29.1655   43.6030 H   0  0  0  0  0  0  0  0  0  0  0  0
   61.0747   34.2921   47.2880 H   0  0  0  0  0  0  0  0  0  0  0  0
   62.3282   34.1885   49.4745 H   0  0  0  0  0  0  0  0  0  0  0  0
   62.1240   32.1766   50.9660 H   0  0  0  0  0  0  0  0  0  0  0  0
   63.1517   29.2743   52.4892 H   0  0  0  0  0  0  0  0  0  0  0  0
   62.9097   28.4070   50.9348 H   0  0  0  0  0  0  0  0  0  0  0  0
   63.2686   30.1671   50.9348 H   0  0  0  0  0  0  0  0  0  0  0  0
   61.2927   29.6709   53.6295 H   0  0  0  0  0  0  0  0  0  0  0  0
   60.8708   31.2280   52.8396 H   0  0  0  0  0  0  0  0  0  0  0  0
   59.6920   29.8726   52.8396 H   0  0  0  0  0  0  0  0  0  0  0  0
   59.7130   28.0080   50.2410 H   0  0  0  0  0  0  0  0  0  0  0  0
  1  2  1  0
  2  3  1  0
  3  4  1  0
  4  5  1  0
  3  6  1  0
  6  7  1  0
  7  8  1  0
  8  9  1  0
  9 10  2  0
 10 11  1  0
 11 12  2  0
 12 13  1  0
 12 14  1  0
 14 15  2  0
 15 16  1  0
 16 17  2  0
 17 18  1  0
 18 19  2  0
 11 20  1  0
 20 21  1  0
 21 22  2  0
 22 23  1  0
 23 24  2  0
 24 25  1  0
 25 26  1  0
 26 27  1  0
 26 28  1  0
 25 29  2  0
 29 30  1  0
 30 31  2  0
 31 32  1  0
 19  9  1  0
 32 20  2  0
 31 10  1  0
 19 14  1  0
 32 24  1  0
  1 33  1  0
  1 34  1  0
  1 35  1  0
  2 36  1  0
  2 37  1  0
  4 38  1  0
  4 39  1  0
  5 40  1  0
  5 41  1  0
  5 42  1  0
  6 43  1  0
  6 44  1  0
  7 45  1  0
  7 46  1  0
  8 47  1  0
 13 48  1  0
 13 49  1  0
 13 50  1  0
 15 51  1  0
 16 52  1  0
 17 53  1  0
 18 54  1  0
 21 55  1  0
 22 56  1  0
 23 57  1  0
 27 58  1  0
 27 59  1  0
 27 60  1  0
 28 61  1  0
 28 62  1  0
 28 63  1  0
 29 64  1  0
M  CHG  2  12   1  29   1
M  END
>  <UniqueID>  (22) 
21

>  <SMILES>  (22) 
CCN(CC)CCNc1c2c([n+](C)c3ccccc13)-c1cccc3c(N(C)C)[nH+]nc-2c13

>  <Energy>  (22) 
136.3864731032527

>  <Genealogy>  (22) 
CCN(CC)CCNc1c2c([n+](C)c3ccccc13)-c1cccc3c(N(C)C)[nH+]nc-2c13 (protonated)
CCN(CC)CCNc1c2c([n+](C)c3ccccc13)-c1cccc3c(N(C)C)[nH+]nc-2c13 (3D coordinates assigned)
CCN(CC)CCNc1c2c([n+](C)c3ccccc13)-c1cccc3c(N(C)C)[nH+]nc-2c13 (optimized conformer: 136.3864731032527 kcal/mol)

>  <smiles>  (22) 
CCN(CC)CCNc1c2c([n+](C)c3ccccc13)-c1cccc3c(N(C)C)nnc-2c13

>  <score_type>  (22) 
oracle

>  <origin>  (22) 
adg

>  <m_score__min__energy>  (22) 
-5.21

>  <m_primary>  (22) 
energy

$$$$
22:0
     RDKit          3D

 85 89  0  0  0  0  0  0  0  0999 V2000
   62.2163   31.3259   48.0627 H   0  0  0  0  0  0  0  0  0  0  0  0
   61.3940   30.6820   48.4080 C   0  0  0  0  0  0  0  0  0  0  0  0
   61.1230   30.6520   49.6780 N   0  0  0  0  0  0  0  0  0  0  0  0
   61.3590   29.5400   50.4570 O   0  0  0  0  0  0  0  0  0  0  0  0
   62.0140   29.6570   51.7080 C   0  0  0  0  0  0  0  0  0  0  0  0
   62.6273   30.5701   51.7173 H   0  0  0  0  0  0  0  0  0  0  0  0
   62.6600   28.7811   51.8681 H   0  0  0  0  0  0  0  0  0  0  0  0
   60.9740   29.7320   52.8180 C   0  0  0  0  0  0  0  0  0  0  0  0
   60.5549   30.7481   52.8620 H   0  0  0  0  0  0  0  0  0  0  0  0
   61.4441   29.4919   53.7831 H   0  0  0  0  0  0  0  0  0  0  0  0
   59.9420   28.8060   52.5480 O   0  0  0  0  0  0  0  0  0  0  0  0
   58.8480   29.0000   53.4230 C   0  0  0  0  0  0  0  0  0  0  0  0
   59.0678   29.8413   54.0967 H   0  0  0  0  0  0  0  0  0  0  0  0
   58.6899   28.0801   54.0051 H   0  0  0  0  0  0  0  0  0  0  0  0
   57.5680   29.3110   52.6240 C   0  0  0  0  0  0  0  0  0  0  0  0
   56.7186   29.3102   53.3230 H   0  0  0  0  0  0  0  0  0  0  0  0
   57.4891   28.5356   51.8478 H   0  0  0  0  0  0  0  0  0  0  0  0
   57.5830   30.6140   51.9160 N   0  0  0  0  0  0  0  0  0  0  0  0
   56.2930   31.3420   51.9810 C   0  0  0  0  0  0  0  0  0  0  0  0
   56.0627   31.7659   50.9924 H   0  0  0  0  0  0  0  0  0  0  0  0
   56.3695   32.1509   52.7225 H   0  0  0  0  0  0  0  0  0  0  0  0
   55.1800   30.3850   52.3930 C   0  0  0  0  0  0  0  0  0  0  0  0
   55.1248   30.3376   53.4906 H   0  0  0  0  0  0  0  0  0  0  0  0
   54.2205   30.7445   51.9928 H   0  0  0  0  0  0  0  0  0  0  0  0
   55.3916   29.3825   51.9928 H   0  0  0  0  0  0  0  0  0  0  0  0
   58.1470   30.5190   50.5500 C   0  0  0  0  0  0  0  0  0  0  0  0
   59.1752   30.1330   50.6124 H   0  0  0  0  0  0  0  0  0  0  0  0
   57.5136   29.8419   49.9581 H   0  0  0  0  0  0  0  0  0  0  0  0
   58.1680   31.8830   49.8650 C   0  0  0  0  0  0  0  0  0  0  0  0
   58.1802   32.6760   50.6273 H   0  0  0  0  0  0  0  0  0  0  0  0
   59.0675   31.9641   49.2371 H   0  0  0  0  0  0  0  0  0  0  0  0
   57.2714   31.9918   49.2371 H   0  0  0  0  0  0  0  0  0  0  0  0
   60.6490   29.8910   47.4040 C   0  0  0  0  0  0  0  0  0  0  0  0
   59.5630   29.1090   47.8220 C   0  0  0  0  0  0  0  0  0  0  0  0
   59.2925   29.0767   48.8877 H   0  0  0  0  0  0  0  0  0  0  0  0
   58.8210   28.3700   46.8960 C   0  0  0  0  0  0  0  0  0  0  0  0
   57.9633   27.7704   47.2349 H   0  0  0  0  0  0  0  0  0  0  0  0
   59.1670   28.3900   45.5310 C   0  0  0  0  0  0  0  0  0  0  0  0
   58.4360   27.6980   44.5520 O   0  0  0  0  0  0  0  0  0  0  0  0
   57.3920   28.2540   43.7540 C   0  0  0  0  0  0  0  0  0  0  0  0
   57.6190   28.0835   42.6913 H   0  0  0  0  0  0  0  0  0  0  0  0
   56.4424   27.7678   44.0221 H   0  0  0  0  0  0  0  0  0  0  0  0
   57.2690   29.7230   44.0010 C   0  0  0  0  0  0  0  0  0  0  0  0
   56.4330   30.2860   44.8980 N   0  0  0  0  0  0  0  0  0  0  0  0
   56.6630   31.5900   44.8650 N   0  0  0  0  0  0  0  0  0  0  0  0
   57.6090   31.8680   43.9830 N   0  0  0  0  0  0  0  0  0  0  0  0
   58.1510   33.2020   43.7390 C   0  0  0  0  0  0  0  0  0  0  0  0
   59.2144   33.1140   43.4719 H   0  0  0  0  0  0  0  0  0  0  0  0
   57.5824   33.6646   42.9188 H   0  0  0  0  0  0  0  0  0  0  0  0
   58.0190   34.0910   44.9850 C   0  0  0  0  0  0  0  0  0  0  0  0
   58.2690   35.1239   44.7009 H   0  0  0  0  0  0  0  0  0  0  0  0
   56.9832   33.9880   45.3408 H   0  0  0  0  0  0  0  0  0  0  0  0
   58.9340   33.6750   46.1520 C   0  0  0  0  0  0  0  0  0  0  0  0
   58.4024   33.8720   47.0947 H   0  0  0  0  0  0  0  0  0  0  0  0
   59.1653   32.6092   46.0088 H   0  0  0  0  0  0  0  0  0  0  0  0
   60.2800   34.4190   46.1920 C   0  0  0  0  0  0  0  0  0  0  0  0
   60.8916   34.0979   45.3359 H   0  0  0  0  0  0  0  0  0  0  0  0
   60.0789   35.4995   46.1458 H   0  0  0  0  0  0  0  0  0  0  0  0
   61.0150   34.1380   47.4380 N   0  0  0  0  0  0  0  0  0  0  0  0
   60.3460   34.1560   48.7150 C   0  0  0  0  0  0  0  0  0  0  0  0
   59.1320   34.4890   48.7910 O   0  0  0  0  0  0  0  0  0  0  0  0
   61.0860   33.7860   49.9420 C   0  0  0  0  0  0  0  0  0  0  0  0
   60.4350   33.7680   51.1890 C   0  0  0  0  0  0  0  0  0  0  0  0
   59.3682   34.0289   51.2510 H   0  0  0  0  0  0  0  0  0  0  0  0
   61.1310   33.4220   52.3480 C   0  0  0  0  0  0  0  0  0  0  0  0
   60.6098   33.4103   53.3166 H   0  0  0  0  0  0  0  0  0  0  0  0
   62.4840   33.0910   52.2840 C   0  0  0  0  0  0  0  0  0  0  0  0
   63.0260   32.8196   53.2019 H   0  0  0  0  0  0  0  0  0  0  0  0
   63.1560   33.1030   51.0530 C   0  0  0  0  0  0  0  0  0  0  0  0
   64.5170   32.7750   50.9900 C   0  0  0  0  0  0  0  0  0  0  0  0
   65.0593   32.5057   51.9084 H   0  0  0  0  0  0  0  0  0  0  0  0
   65.1860   32.7890   49.7660 C   0  0  0  0  0  0  0  0  0  0  0  0
   66.2552   32.5338   49.7238 H   0  0  0  0  0  0  0  0  0  0  0  0
   64.5060   33.1250   48.5950 C   0  0  0  0  0  0  0  0  0  0  0  0
   65.0425   33.1303   47.6347 H   0  0  0  0  0  0  0  0  0  0  0  0
   63.1400   33.4570   48.6330 C   0  0  0  0  0  0  0  0  0  0  0  0
   62.4560   33.4500   49.8680 C   0  0  0  0  0  0  0  0  0  0  0  0
   62.4180   33.8090   47.3900 C   0  0  0  0  0  0  0  0  0  0  0  0
   63.0330   33.8260   46.2880 O   0  0  0  0  0  0  0  0  0  0  0  0
   58.0220   30.7190   43.4210 C   0  0  0  0  0  0  0  0  0  0  0  0
   58.8019   30.5990   42.6546 H   0  0  0  0  0  0  0  0  0  0  0  0
   60.2800   29.1340   45.1230 C   0  0  0  0  0  0  0  0  0  0  0  0
   60.5746   29.1365   44.0632 H   0  0  0  0  0  0  0  0  0  0  0  0
   61.0210   29.8740   46.0490 C   0  0  0  0  0  0  0  0  0  0  0  0
   61.8995   30.4457   45.7154 H   0  0  0  0  0  0  0  0  0  0  0  0
  1  2  1  0
  2  3  2  0
  3  4  1  0
  4  5  1  0
  5  6  1  0
  5  7  1  0
  5  8  1  0
  8  9  1  0
  8 10  1  0
  8 11  1  0
 11 12  1  0
 12 13  1  0
 12 14  1  0
 12 15  1  0
 15 16  1  0
 15 17  1  0
 15 18  1  0
 18 19  1  0
 19 20  1  0
 19 21  1  0
 19 22  1  0
 22 23  1  0
 22 24  1  0
 22 25  1  0
 18 26  1  0
 26 27  1  0
 26 28  1  0
 26 29  1  0
 29 30  1  0
 29 31  1  0
 29 32  1  0
  2 33  1  0
 33 34  2  0
 34 35  1  0
 34 36  1  0
 36 37  1  0
 36 38  2  0
 38 39  1  0
 39 40  1  0
 40 41  1  0
 40 42  1  0
 40 43  1  0
 43 44  1  0
 44 45  2  0
 45 46  1  0
 46 47  1  0
 47 48  1  0
 47 49  1  0
 47 50  1  0
 50 51  1  0
 50 52  1  0
 50 53  1  0
 53 54  1  0
 53 55  1  0
 53 56  1  0
 56 57  1  0
 56 58  1  0
 56 59  1  0
 59 60  1  0
 60 61  2  0
 60 62  1  0
 62 63  2  0
 63 64  1  0
 63 65  1  0
 65 66  1  0
 65 67  2  0
 67 68  1  0
 67 69  1  0
 69 70  2  0
 70 71  1  0
 70 72  1  0
 72 73  1  0
 72 74  2  0
 74 75  1  0
 74 76  1  0
 76 77  2  0
 76 78  1  0
 78 79  2  0
 46 80  1  0
 80 81  1  0
 38 82  1  0
 82 83  1  0
 82 84  2  0
 84 85  1  0
 84 33  1  0
 80 43  2  0
 78 59  1  0
 77 62  1  0
 77 69  1  0
M  END
>  <UniqueID>  (23) 
22

>  <SMILES>  (23) 
CCN(CC)CCOCCO/N=C\c1ccc(OCc2cn(CCCCN3C(=O)c4cccc5cccc(c45)C3=O)nn2)cc1

>  <Energy>  (23) 
126.05449972125768

>  <Genealogy>  (23) 
CCN(CC)CCOCCO/N=C\c1ccc(OCc2cn(CCCCN3C(=O)c4cccc5cccc(c45)C3=O)nn2)cc1 (cis-trans isomerization)
CCN(CC)CCOCCO/N=C\c1ccc(OCc2cn(CCCCN3C(=O)c4cccc5cccc(c45)C3=O)nn2)cc1 (3D coordinates assigned)
CCN(CC)CCOCCO/N=C\c1ccc(OCc2cn(CCCCN3C(=O)c4cccc5cccc(c45)C3=O)nn2)cc1 (nonaromatic ring conformer: 126.05449972125768 kcal/mol)

>  <smiles>  (23) 
CCN(CC)CCOCCON=Cc1ccc(OCc2cn(CCCCN3C(=O)c4cccc5cccc(c45)C3=O)nn2)cc1

>  <score_type>  (23) 
oracle

>  <origin>  (23) 
adg

>  <m_score__min__energy>  (23) 
-10.609999999999999

>  <m_primary>  (23) 
energy

$$$$
23:0
     RDKit          3D

 79 82  0  0  0  0  0  0  0  0999 V2000
   63.4060   33.4710   50.6650 C   0  0  0  0  0  0  0  0  0  0  0  0
   63.1850   32.0840   50.0510 C   0  0  0  0  0  0  0  0  0  0  0  0
   62.4020   32.1460   48.7880 N   0  0  0  0  0  0  0  0  0  0  0  0
   63.1680   31.8570   47.5390 C   0  0  0  0  0  0  0  0  0  0  0  0
   63.7510   33.0810   46.8090 C   0  0  0  0  0  0  0  0  0  0  0  0
   61.5730   33.3760   48.6970 C   0  0  0  0  0  0  0  0  0  0  0  0
   60.3230   33.2470   47.8120 C   0  0  0  0  0  0  0  0  0  0  0  0
   59.6160   31.9980   48.1010 N   0  0  0  0  0  0  0  0  0  0  0  0
   59.3110   31.0790   47.0430 C   0  0  0  0  0  0  0  0  0  0  0  0
   58.7680   31.5750   45.8450 C   0  0  0  0  0  0  0  0  0  0  0  0
   58.5040   32.9560   45.6900 C   0  0  0  0  0  0  0  0  0  0  0  0
   58.0270   33.4590   44.4830 C   0  0  0  0  0  0  0  0  0  0  0  0
   57.8150   32.6050   43.4090 C   0  0  0  0  0  0  0  0  0  0  0  0
   58.0500   31.2380   43.5440 C   0  0  0  0  0  0  0  0  0  0  0  0
   58.4940   30.6870   44.7760 C   0  0  0  0  0  0  0  0  0  0  0  0
   58.6790   29.3290   44.9400 N   0  0  0  0  0  0  0  0  0  0  0  0
   58.1240   28.3850   43.9440 C   0  0  0  0  0  0  0  0  0  0  0  0
   59.3520   28.8480   46.0480 C   0  0  0  0  0  0  0  0  0  0  0  0
   59.7980   27.5060   46.1060 C   0  0  0  0  0  0  0  0  0  0  0  0
   60.4060   26.9980   47.2450 C   0  0  0  0  0  0  0  0  0  0  0  0
   60.5890   27.8020   48.3590 C   0  0  0  0  0  0  0  0  0  0  0  0
   60.2050   29.1540   48.3410 C   0  0  0  0  0  0  0  0  0  0  0  0
   60.3820   29.9540   49.4840 O   0  0  0  0  0  0  0  0  0  0  0  0
   60.6720   29.4630   50.7930 C   0  0  0  0  0  0  0  0  0  0  0  0
   60.3810   30.5490   51.8510 C   0  0  0  0  0  0  0  0  0  0  0  0
   58.9430   30.7660   52.2520 N   0  0  0  0  0  0  0  0  0  0  0  0
   58.2590   29.4610   52.0130 C   0  0  0  0  0  0  0  0  0  0  0  0
   58.2630   31.7480   51.3370 C   0  0  0  0  0  0  0  0  0  0  0  0
   59.0180   33.0460   50.9800 C   0  0  0  0  0  0  0  0  0  0  0  0
   59.0820   34.1270   52.0750 C   0  0  0  0  0  0  0  0  0  0  0  0
   58.5010   33.6820   53.4280 C   0  0  0  0  0  0  0  0  0  0  0  0
   59.2480   32.5110   54.1230 C   0  0  0  0  0  0  0  0  0  0  0  0
   58.8030   31.0860   53.7130 C   0  0  0  0  0  0  0  0  0  0  0  0
   59.6260   29.7030   47.1580 C   0  0  0  0  0  0  0  0  0  0  0  0
   63.3935   33.3925   51.7621 H   0  0  0  0  0  0  0  0  0  0  0  0
   64.3785   33.8666   50.3367 H   0  0  0  0  0  0  0  0  0  0  0  0
   62.6046   34.1492   50.3367 H   0  0  0  0  0  0  0  0  0  0  0  0
   64.1645   31.6307   49.8385 H   0  0  0  0  0  0  0  0  0  0  0  0
   62.6133   31.4827   50.7731 H   0  0  0  0  0  0  0  0  0  0  0  0
   61.6890   31.3790   48.8570 H   0  0  0  0  0  0  0  0  0  0  0  0
   64.0038   31.1921   47.8025 H   0  0  0  0  0  0  0  0  0  0  0  0
   62.4431   31.4120   46.8416 H   0  0  0  0  0  0  0  0  0  0  0  0
   64.1013   33.8164   47.5483 H   0  0  0  0  0  0  0  0  0  0  0  0
   64.5950   32.7643   46.1786 H   0  0  0  0  0  0  0  0  0  0  0  0
   62.9733   33.5367   46.1786 H   0  0  0  0  0  0  0  0  0  0  0  0
   61.2469   33.6448   49.7126 H   0  0  0  0  0  0  0  0  0  0  0  0
   62.2070   34.1426   48.2275 H   0  0  0  0  0  0  0  0  0  0  0  0
   59.6519   34.0963   48.0076 H   0  0  0  0  0  0  0  0  0  0  0  0
   60.6334   33.2438   46.7567 H   0  0  0  0  0  0  0  0  0  0  0  0
   59.1410   31.8580   49.0210 H   0  0  0  0  0  0  0  0  0  0  0  0
   58.6777   33.6405   46.5333 H   0  0  0  0  0  0  0  0  0  0  0  0
   57.8178   34.5340   44.3799 H   0  0  0  0  0  0  0  0  0  0  0  0
   57.4606   33.0085   42.4490 H   0  0  0  0  0  0  0  0  0  0  0  0
   57.8890   30.5741   42.6818 H   0  0  0  0  0  0  0  0  0  0  0  0
   57.6329   27.5496   44.4645 H   0  0  0  0  0  0  0  0  0  0  0  0
   57.3891   28.9071   43.3137 H   0  0  0  0  0  0  0  0  0  0  0  0
   58.9376   27.9967   43.3137 H   0  0  0  0  0  0  0  0  0  0  0  0
   59.6600   26.8533   45.2314 H   0  0  0  0  0  0  0  0  0  0  0  0
   60.7446   25.9516   47.2640 H   0  0  0  0  0  0  0  0  0  0  0  0
   61.0400   27.3771   49.2679 H   0  0  0  0  0  0  0  0  0  0  0  0
   60.0462   28.5816   50.9965 H   0  0  0  0  0  0  0  0  0  0  0  0
   61.7364   29.1904   50.8445 H   0  0  0  0  0  0  0  0  0  0  0  0
   60.9392   30.2808   52.7601 H   0  0  0  0  0  0  0  0  0  0  0  0
   60.6831   31.4926   51.3731 H   0  0  0  0  0  0  0  0  0  0  0  0
   58.0139   28.9934   52.9780 H   0  0  0  0  0  0  0  0  0  0  0  0
   57.3340   29.6309   51.4424 H   0  0  0  0  0  0  0  0  0  0  0  0
   58.9250   28.7970   51.4424 H   0  0  0  0  0  0  0  0  0  0  0  0
   58.0498   31.2233   50.3940 H   0  0  0  0  0  0  0  0  0  0  0  0
   57.3830   32.0879   51.9028 H   0  0  0  0  0  0  0  0  0  0  0  0
   60.0511   32.7712   50.7209 H   0  0  0  0  0  0  0  0  0  0  0  0
   58.4456   33.4988   50.1570 H   0  0  0  0  0  0  0  0  0  0  0  0
   60.1356   34.4049   52.2256 H   0  0  0  0  0  0  0  0  0  0  0  0
   58.4673   34.9700   51.7264 H   0  0  0  0  0  0  0  0  0  0  0  0
   58.5212   34.5474   54.1067 H   0  0  0  0  0  0  0  0  0  0  0  0
   57.4881   33.3100   53.2144 H   0  0  0  0  0  0  0  0  0  0  0  0
   60.3187   32.6094   53.8909 H   0  0  0  0  0  0  0  0  0  0  0  0
   59.0104   32.6003   55.1933 H   0  0  0  0  0  0  0  0  0  0  0  0
   59.4103   30.3642   54.2788 H   0  0  0  0  0  0  0  0  0  0  0  0
   57.7275   31.0269   53.9360 H   0  0  0  0  0  0  0  0  0  0  0  0
  1  2  1  0
  2  3  1  0
  3  4  1  0
  4  5  1  0
  3  6  1  0
  6  7  1  0
  7  8  1  0
  8  9  1  0
  9 10  2  0
 10 11  1  0
 11 12  2  0
 12 13  1  0
 13 14  2  0
 14 15  1  0
 15 16  2  0
 16 17  1  0
 16 18  1  0
 18 19  2  0
 19 20  1  0
 20 21  2  0
 21 22  1  0
 22 23  1  0
 23 24  1  0
 24 25  1  0
 25 26  1  0
 26 27  1  0
 26 28  1  0
 28 29  1  0
 29 30  1  0
 30 31  1  0
 31 32  1  0
 32 33  1  0
 22 34  2  0
 34  9  1  0
 15 10  1  0
 34 18  1  0
 33 26  1  0
  1 35  1  0
  1 36  1  0
  1 37  1  0
  2 38  1  0
  2 39  1  0
  3 40  1  0
  4 41  1  0
  4 42  1  0
  5 43  1  0
  5 44  1  0
  5 45  1  0
  6 46  1  0
  6 47  1  0
  7 48  1  0
  7 49  1  0
  8 50  1  0
 11 51  1  0
 12 52  1  0
 13 53  1  0
 14 54  1  0
 17 55  1  0
 17 56  1  0
 17 57  1  0
 19 58  1  0
 20 59  1  0
 21 60  1  0
 24 61  1  0
 24 62  1  0
 25 63  1  0
 25 64  1  0
 27 65  1  0
 27 66  1  0
 27 67  1  0
 28 68  1  0
 28 69  1  0
 29 70  1  0
 29 71  1  0
 30 72  1  0
 30 73  1  0
 31 74  1  0
 31 75  1  0
 32 76  1  0
 32 77  1  0
 33 78  1  0
 33 79  1  0
M  CHG  3   3   1  16   1  26   1
M  END
>  <UniqueID>  (24) 
23

>  <SMILES>  (24) 
CC[NH+](CC)CCNc1c2ccccc2[n+](C)c2cccc(OCC[N+]3(C)CCCCCC3)c12

>  <Energy>  (24) 
143.65632179397858

>  <Genealogy>  (24) 
CC[NH+](CC)CCNc1c2ccccc2[n+](C)c2cccc(OCC[N+]3(C)CCCCCC3)c12 (protonated)
CC[NH+](CC)CCNc1c2ccccc2[n+](C)c2cccc(OCC[N+]3(C)CCCCCC3)c12 (3D coordinates assigned)
CC[NH+](CC)CCNc1c2ccccc2[n+](C)c2cccc(OCC[N+]3(C)CCCCCC3)c12 (nonaromatic ring conformer: 143.65632179397858 kcal/mol)

>  <smiles>  (24) 
CCN(CC)CCNc1c2ccccc2[n+](C)c2cccc(OCC[N+]3(C)CCCCCC3)c12

>  <score_type>  (24) 
oracle

>  <origin>  (24) 
adg

>  <m_score__min__energy>  (24) 
-1.5700000000000001

>  <m_primary>  (24) 
energy

$$$$
24:0
     RDKit          3D

 55 57  0  0  0  0  0  0  0  0999 V2000
   59.6420   35.0870   45.6100 C   0  0  0  0  0  0  0  0  0  0  0  0
   59.2890   34.0210   44.5650 C   0  0  0  0  0  0  0  0  0  0  0  0
   58.2450   33.0730   45.0410 N   0  0  0  0  0  0  0  0  0  0  0  0
   57.3720   33.7030   46.0670 C   0  0  0  0  0  0  0  0  0  0  0  0
   57.6280   33.1600   47.4790 C   0  0  0  0  0  0  0  0  0  0  0  0
   57.4900   32.4700   43.9030 C   0  0  0  0  0  0  0  0  0  0  0  0
   57.0510   30.9960   44.0830 C   0  0  0  0  0  0  0  0  0  0  0  0
   57.3750   30.4910   45.4230 N   0  0  0  0  0  0  0  0  0  0  0  0
   58.3760   29.4160   45.3720 C   0  0  0  0  0  0  0  0  0  0  0  0
   58.7630   28.9250   46.7760 C   0  0  0  0  0  0  0  0  0  0  0  0
   59.9590   29.6040   47.2890 N   0  0  0  0  0  0  0  0  0  0  0  0
   59.9350   30.6990   48.2340 C   0  0  0  0  0  0  0  0  0  0  0  0
   58.9940   30.7020   49.2610 C   0  0  0  0  0  0  0  0  0  0  0  0
   58.9440   31.7410   50.1890 C   0  0  0  0  0  0  0  0  0  0  0  0
   57.9560   31.6910   51.1870 C   0  0  0  0  0  0  0  0  0  0  0  0
   57.8540   32.7150   52.1150 C   0  0  0  0  0  0  0  0  0  0  0  0
   58.7270   33.7870   52.0420 C   0  0  0  0  0  0  0  0  0  0  0  0
   59.7040   33.8190   51.0460 C   0  0  0  0  0  0  0  0  0  0  0  0
   59.8390   32.7970   50.1260 N   0  0  0  0  0  0  0  0  0  0  0  0
   60.8260   32.8040   49.1460 C   0  0  0  0  0  0  0  0  0  0  0  0
   61.8190   33.8210   49.0660 C   0  0  0  0  0  0  0  0  0  0  0  0
   62.7750   33.8270   48.0520 C   0  0  0  0  0  0  0  0  0  0  0  0
   62.7840   32.8260   47.0930 C   0  0  0  0  0  0  0  0  0  0  0  0
   61.8520   31.7990   47.1510 C   0  0  0  0  0  0  0  0  0  0  0  0
   60.8740   31.7550   48.1710 C   0  0  0  0  0  0  0  0  0  0  0  0
   59.5043   34.6711   46.6190 H   0  0  0  0  0  0  0  0  0  0  0  0
   60.6900   35.3948   45.4802 H   0  0  0  0  0  0  0  0  0  0  0  0
   58.9848   35.9595   45.4802 H   0  0  0  0  0  0  0  0  0  0  0  0
   58.9203   34.5247   43.6593 H   0  0  0  0  0  0  0  0  0  0  0  0
   60.2001   33.4382   44.3643 H   0  0  0  0  0  0  0  0  0  0  0  0
   58.7410   32.2730   45.5030 H   0  0  0  0  0  0  0  0  0  0  0  0
   57.5572   34.7873   46.0684 H   0  0  0  0  0  0  0  0  0  0  0  0
   56.3298   33.4677   45.8052 H   0  0  0  0  0  0  0  0  0  0  0  0
   57.2822   33.8935   48.2222 H   0  0  0  0  0  0  0  0  0  0  0  0
   57.0803   32.2156   47.6136 H   0  0  0  0  0  0  0  0  0  0  0  0
   58.7051   32.9816   47.6136 H   0  0  0  0  0  0  0  0  0  0  0  0
   56.5843   33.0735   43.7429 H   0  0  0  0  0  0  0  0  0  0  0  0
   58.1875   32.4693   43.0524 H   0  0  0  0  0  0  0  0  0  0  0  0
   55.9640   30.9268   43.9295 H   0  0  0  0  0  0  0  0  0  0  0  0
   57.5936   30.3850   43.3466 H   0  0  0  0  0  0  0  0  0  0  0  0
   56.4990   30.0780   45.8230 H   0  0  0  0  0  0  0  0  0  0  0  0
   57.9619   28.5715   44.8017 H   0  0  0  0  0  0  0  0  0  0  0  0
   59.2803   29.8154   44.8896 H   0  0  0  0  0  0  0  0  0  0  0  0
   57.9248   29.1165   47.4621 H   0  0  0  0  0  0  0  0  0  0  0  0
   58.9867   27.8501   46.7089 H   0  0  0  0  0  0  0  0  0  0  0  0
   60.8730   29.1970   46.9960 H   0  0  0  0  0  0  0  0  0  0  0  0
   58.2783   29.8705   49.3411 H   0  0  0  0  0  0  0  0  0  0  0  0
   57.2628   30.8381   51.2316 H   0  0  0  0  0  0  0  0  0  0  0  0
   57.0867   32.6765   52.9022 H   0  0  0  0  0  0  0  0  0  0  0  0
   58.6508   34.6109   52.7668 H   0  0  0  0  0  0  0  0  0  0  0  0
   60.3850   34.6811   50.9919 H   0  0  0  0  0  0  0  0  0  0  0  0
   61.8320   34.6202   49.8217 H   0  0  0  0  0  0  0  0  0  0  0  0
   63.5260   34.6298   48.0124 H   0  0  0  0  0  0  0  0  0  0  0  0
   63.5305   32.8456   46.2853 H   0  0  0  0  0  0  0  0  0  0  0  0
   61.8748   31.0052   46.3898 H   0  0  0  0  0  0  0  0  0  0  0  0
  1  2  1  0
  2  3  1  0
  3  4  1  0
  4  5  1  0
  3  6  1  0
  6  7  1  0
  7  8  1  0
  8  9  1  0
  9 10  1  0
 10 11  1  0
 11 12  1  0
 12 13  2  0
 13 14  1  0
 14 15  2  0
 15 16  1  0
 16 17  2  0
 17 18  1  0
 18 19  2  0
 19 20  1  0
 20 21  2  0
 21 22  1  0
 22 23  2  0
 23 24  1  0
 24 25  2  0
 25 12  1  0
 19 14  1  0
 25 20  1  0
  1 26  1  0
  1 27  1  0
  1 28  1  0
  2 29  1  0
  2 30  1  0
  3 31  1  0
  4 32  1  0
  4 33  1  0
  5 34  1  0
  5 35  1  0
  5 36  1  0
  6 37  1  0
  6 38  1  0
  7 39  1  0
  7 40  1  0
  8 41  1  0
  9 42  1  0
  9 43  1  0
 10 44  1  0
 10 45  1  0
 11 46  1  0
 13 47  1  0
 15 48  1  0
 16 49  1  0
 17 50  1  0
 18 51  1  0
 21 52  1  0
 22 53  1  0
 23 54  1  0
 24 55  1  0
M  CHG  2   3   1  19   1
M  END
>  <UniqueID>  (25) 
24

>  <SMILES>  (25) 
CC[NH+](CC)CCNCCNc1cc2cccc[n+]2c2ccccc12

>  <Energy>  (25) 
73.68716530673612

>  <Genealogy>  (25) 
CC[NH+](CC)CCNCCNc1cc2cccc[n+]2c2ccccc12 (protonated)
CC[NH+](CC)CCNCCNc1cc2cccc[n+]2c2ccccc12 (3D coordinates assigned)
CC[NH+](CC)CCNCCNc1cc2cccc[n+]2c2ccccc12 (optimized conformer: 73.68716530673612 kcal/mol)

>  <smiles>  (25) 
CCN(CC)CCNCCNc1cc2cccc[n+]2c2ccccc12

>  <score_type>  (25) 
oracle

>  <origin>  (25) 
adg

>  <m_score__min__energy>  (25) 
-4.25

>  <m_primary>  (25) 
energy

$$$$
25:0
     RDKit          3D

 48 49  0  0  0  0  0  0  0  0999 V2000
   56.8268   34.0837   46.0756 H   0  0  0  0  0  0  0  0  0  0  0  0
   57.4860   33.2070   45.9930 C   0  0  0  0  0  0  0  0  0  0  0  0
   56.9850   32.0940   45.5530 N   0  0  0  0  0  0  0  0  0  0  0  0
   57.6770   31.2560   44.7090 O   0  0  0  0  0  0  0  0  0  0  0  0
   57.1510   30.9240   43.4350 C   0  0  0  0  0  0  0  0  0  0  0  0
   57.9669   30.5897   42.7774 H   0  0  0  0  0  0  0  0  0  0  0  0
   56.6657   31.8088   42.9971 H   0  0  0  0  0  0  0  0  0  0  0  0
   56.1210   29.7980   43.5840 C   0  0  0  0  0  0  0  0  0  0  0  0
   56.4079   28.9663   42.9238 H   0  0  0  0  0  0  0  0  0  0  0  0
   55.1357   30.2045   43.3122 H   0  0  0  0  0  0  0  0  0  0  0  0
   56.0370   29.2980   44.9670 N   0  0  0  0  0  0  0  0  0  0  0  0
   56.1730   30.0920   45.6370 H   0  0  0  0  0  0  0  0  0  0  0  0
   57.0270   28.2490   45.2530 C   0  0  0  0  0  0  0  0  0  0  0  0
   56.5097   27.3555   45.6326 H   0  0  0  0  0  0  0  0  0  0  0  0
   57.7364   28.6221   46.0064 H   0  0  0  0  0  0  0  0  0  0  0  0
   57.7940   27.8860   43.9860 C   0  0  0  0  0  0  0  0  0  0  0  0
   58.7573   27.4301   44.2585 H   0  0  0  0  0  0  0  0  0  0  0  0
   57.2048   27.1712   43.3928 H   0  0  0  0  0  0  0  0  0  0  0  0
   57.9732   28.7948   43.3928 H   0  0  0  0  0  0  0  0  0  0  0  0
   58.8990   33.3490   46.3870 C   0  0  0  0  0  0  0  0  0  0  0  0
   59.8040   34.3690   46.1080 C   0  0  0  0  0  0  0  0  0  0  0  0
   59.5660   35.5980   45.2890 C   0  0  0  0  0  0  0  0  0  0  0  0
   59.3997   36.4567   45.9561 H   0  0  0  0  0  0  0  0  0  0  0  0
   60.4434   35.7913   44.6543 H   0  0  0  0  0  0  0  0  0  0  0  0
   58.6799   35.4498   44.6543 H   0  0  0  0  0  0  0  0  0  0  0  0
   60.9730   34.1220   46.7350 N   0  0  0  0  0  0  0  0  0  0  0  0
   60.8370   32.9970   47.4190 N   0  0  0  0  0  0  0  0  0  0  0  0
   61.9190   32.3960   48.1920 C   0  0  0  0  0  0  0  0  0  0  0  0
   61.7106   32.5117   49.2659 H   0  0  0  0  0  0  0  0  0  0  0  0
   61.9949   31.3265   47.9464 H   0  0  0  0  0  0  0  0  0  0  0  0
   62.8671   32.8968   47.9464 H   0  0  0  0  0  0  0  0  0  0  0  0
   59.5820   32.5250   47.2540 C   0  0  0  0  0  0  0  0  0  0  0  0
   59.0630   31.3600   47.8320 O   0  0  0  0  0  0  0  0  0  0  0  0
   59.3790   30.0610   47.4140 C   0  0  0  0  0  0  0  0  0  0  0  0
   60.1040   29.8140   46.2350 C   0  0  0  0  0  0  0  0  0  0  0  0
   60.4324   30.6565   45.6086 H   0  0  0  0  0  0  0  0  0  0  0  0
   60.4100   28.5050   45.8540 C   0  0  0  0  0  0  0  0  0  0  0  0
   60.9675   28.3208   44.9238 H   0  0  0  0  0  0  0  0  0  0  0  0
   60.0070   27.4210   46.6570 C   0  0  0  0  0  0  0  0  0  0  0  0
   60.2880   26.0890   46.3190 O   0  0  0  0  0  0  0  0  0  0  0  0
   59.3020   25.1230   45.9660 C   0  0  0  0  0  0  0  0  0  0  0  0
   58.8647   24.6946   46.8799 H   0  0  0  0  0  0  0  0  0  0  0  0
   58.5115   25.6059   45.3728 H   0  0  0  0  0  0  0  0  0  0  0  0
   59.7686   24.3227   45.3728 H   0  0  0  0  0  0  0  0  0  0  0  0
   59.3020   27.6730   47.8400 C   0  0  0  0  0  0  0  0  0  0  0  0
   58.9865   26.8334   48.4768 H   0  0  0  0  0  0  0  0  0  0  0  0
   58.9960   28.9830   48.2180 C   0  0  0  0  0  0  0  0  0  0  0  0
   58.4499   29.1675   49.1548 H   0  0  0  0  0  0  0  0  0  0  0  0
  1  2  1  0
  2  3  2  0
  3  4  1  0
  4  5  1  0
  5  6  1  0
  5  7  1  0
  5  8  1  0
  8  9  1  0
  8 10  1  0
  8 11  1  0
 11 12  1  0
 11 13  1  0
 13 14  1  0
 13 15  1  0
 13 16  1  0
 16 17  1  0
 16 18  1  0
 16 19  1  0
  2 20  1  0
 20 21  1  0
 21 22  1  0
 22 23  1  0
 22 24  1  0
 22 25  1  0
 21 26  2  0
 26 27  1  0
 27 28  1  0
 28 29  1  0
 28 30  1  0
 28 31  1  0
 27 32  1  0
 32 33  1  0
 33 34  1  0
 34 35  2  0
 35 36  1  0
 35 37  1  0
 37 38  1  0
 37 39  2  0
 39 40  1  0
 40 41  1  0
 41 42  1  0
 41 43  1  0
 41 44  1  0
 39 45  1  0
 45 46  1  0
 45 47  2  0
 47 48  1  0
 32 20  2  0
 47 34  1  0
M  END
>  <UniqueID>  (26) 
25

>  <SMILES>  (26) 
CCNCCO/N=C\c1c(C)nn(C)c1Oc1ccc(OC)cc1

>  <Energy>  (26) 
80.833439307619

>  <Genealogy>  (26) 
CCNCCO/N=C\c1c(C)nn(C)c1Oc1ccc(OC)cc1 (cis-trans isomerization)
CCNCCO/N=C\c1c(C)nn(C)c1Oc1ccc(OC)cc1 (3D coordinates assigned)
CCNCCO/N=C\c1c(C)nn(C)c1Oc1ccc(OC)cc1 (optimized conformer: 80.833439307619 kcal/mol)

>  <smiles>  (26) 
CCNCCON=Cc1c(C)nn(C)c1Oc1ccc(OC)cc1

>  <score_type>  (26) 
oracle

>  <origin>  (26) 
adg

>  <m_score__min__energy>  (26) 
-6.2800000000000002

>  <m_primary>  (26) 
energy

$$$$
26:0
     RDKit          3D

 62 64  0  0  0  0  0  0  0  0999 V2000
   57.0360   26.9630   46.0120 C   0  0  0  0  0  0  0  0  0  0  0  0
   58.3870   27.5100   45.5330 C   0  0  0  0  0  0  0  0  0  0  0  0
   58.2860   28.8820   44.9710 N   0  0  0  0  0  0  0  0  0  0  0  0
   59.6330   29.4310   44.6270 C   0  0  0  0  0  0  0  0  0  0  0  0
   60.7660   28.6000   45.2350 C   0  0  0  0  0  0  0  0  0  0  0  0
   57.4000   28.8550   43.7780 C   0  0  0  0  0  0  0  0  0  0  0  0
   56.5040   30.0990   43.6870 C   0  0  0  0  0  0  0  0  0  0  0  0
   56.6700   30.8630   44.8630 O   0  0  0  0  0  0  0  0  0  0  0  0
   57.4080   32.0420   44.5970 C   0  0  0  0  0  0  0  0  0  0  0  0
   57.0340   33.1720   45.5770 C   0  0  0  0  0  0  0  0  0  0  0  0
   57.6830   33.0340   46.8920 N   0  0  0  0  0  0  0  0  0  0  0  0
   58.7420   34.0290   47.1300 C   0  0  0  0  0  0  0  0  0  0  0  0
   59.9650   33.7120   46.2680 C   0  0  0  0  0  0  0  0  0  0  0  0
   60.3180   32.2980   46.3680 N   0  0  0  0  0  0  0  0  0  0  0  0
   60.9280   31.7760   47.5550 C   0  0  0  0  0  0  0  0  0  0  0  0
   62.1630   32.2600   48.0340 C   0  0  0  0  0  0  0  0  0  0  0  0
   62.8030   33.3460   47.4020 C   0  0  0  0  0  0  0  0  0  0  0  0
   63.9980   33.8550   47.9050 C   0  0  0  0  0  0  0  0  0  0  0  0
   64.5650   33.3070   49.0510 C   0  0  0  0  0  0  0  0  0  0  0  0
   63.9510   32.2330   49.6970 C   0  0  0  0  0  0  0  0  0  0  0  0
   62.7520   31.6680   49.1970 C   0  0  0  0  0  0  0  0  0  0  0  0
   62.1440   30.5840   49.8160 N   0  0  0  0  0  0  0  0  0  0  0  0
   62.8130   29.8620   50.9160 C   0  0  0  0  0  0  0  0  0  0  0  0
   60.8970   30.1880   49.3890 C   0  0  0  0  0  0  0  0  0  0  0  0
   60.0820   29.1940   49.9740 C   0  0  0  0  0  0  0  0  0  0  0  0
   58.8870   28.9890   49.2900 C   0  0  0  0  0  0  0  0  0  0  0  0
   58.8220   30.0380   47.9760 S   0  0  0  0  0  0  0  0  0  0  0  0
   60.3080   30.7630   48.2750 C   0  0  0  0  0  0  0  0  0  0  0  0
   57.0132   26.9538   47.1117 H   0  0  0  0  0  0  0  0  0  0  0  0
   56.2260   27.6040   45.6339 H   0  0  0  0  0  0  0  0  0  0  0  0
   56.9001   25.9390   45.6339 H   0  0  0  0  0  0  0  0  0  0  0  0
   59.0807   27.5300   46.3865 H   0  0  0  0  0  0  0  0  0  0  0  0
   58.7463   26.8489   44.7306 H   0  0  0  0  0  0  0  0  0  0  0  0
   57.8170   29.4770   45.6950 H   0  0  0  0  0  0  0  0  0  0  0  0
   59.7449   29.4364   43.5327 H   0  0  0  0  0  0  0  0  0  0  0  0
   59.6998   30.4483   45.0401 H   0  0  0  0  0  0  0  0  0  0  0  0
   60.7052   28.6446   46.3324 H   0  0  0  0  0  0  0  0  0  0  0  0
   60.6722   27.5550   44.9047 H   0  0  0  0  0  0  0  0  0  0  0  0
   61.7346   29.0034   44.9047 H   0  0  0  0  0  0  0  0  0  0  0  0
   58.0253   28.8030   42.8745 H   0  0  0  0  0  0  0  0  0  0  0  0
   56.7454   27.9754   43.8658 H   0  0  0  0  0  0  0  0  0  0  0  0
   56.7921   30.6995   42.8116 H   0  0  0  0  0  0  0  0  0  0  0  0
   55.4517   29.7963   43.5819 H   0  0  0  0  0  0  0  0  0  0  0  0
   58.4813   31.8226   44.6963 H   0  0  0  0  0  0  0  0  0  0  0  0
   57.1711   32.3762   43.5761 H   0  0  0  0  0  0  0  0  0  0  0  0
   57.3375   34.1329   45.1358 H   0  0  0  0  0  0  0  0  0  0  0  0
   55.9474   33.1189   45.7400 H   0  0  0  0  0  0  0  0  0  0  0  0
   56.9680   33.0860   47.6550 H   0  0  0  0  0  0  0  0  0  0  0  0
   58.3652   35.0299   46.8727 H   0  0  0  0  0  0  0  0  0  0  0  0
   59.0319   33.9992   48.1907 H   0  0  0  0  0  0  0  0  0  0  0  0
   59.7393   33.9540   45.2190 H   0  0  0  0  0  0  0  0  0  0  0  0
   60.8138   34.3133   46.6257 H   0  0  0  0  0  0  0  0  0  0  0  0
   60.4630   31.7710   45.4760 H   0  0  0  0  0  0  0  0  0  0  0  0
   62.3545   33.7952   46.5037 H   0  0  0  0  0  0  0  0  0  0  0  0
   64.4950   34.6930   47.3944 H   0  0  0  0  0  0  0  0  0  0  0  0
   65.5021   33.7223   49.4501 H   0  0  0  0  0  0  0  0  0  0  0  0
   64.4054   31.8186   50.6090 H   0  0  0  0  0  0  0  0  0  0  0  0
   62.4539   30.2496   51.8808 H   0  0  0  0  0  0  0  0  0  0  0  0
   62.5830   28.7888   50.8435 H   0  0  0  0  0  0  0  0  0  0  0  0
   63.9006   30.0096   50.8435 H   0  0  0  0  0  0  0  0  0  0  0  0
   60.3635   28.6372   50.8800 H   0  0  0  0  0  0  0  0  0  0  0  0
   58.1108   28.2593   49.5642 H   0  0  0  0  0  0  0  0  0  0  0  0
  1  2  1  0
  2  3  1  0
  3  4  1  0
  4  5  1  0
  3  6  1  0
  6  7  1  0
  7  8  1  0
  8  9  1  0
  9 10  1  0
 10 11  1  0
 11 12  1  0
 12 13  1  0
 13 14  1  0
 14 15  1  0
 15 16  2  0
 16 17  1  0
 17 18  2  0
 18 19  1  0
 19 20  2  0
 20 21  1  0
 21 22  2  0
 22 23  1  0
 22 24  1  0
 24 25  1  0
 25 26  2  0
 26 27  1  0
 27 28  1  0
 28 15  1  0
 21 16  1  0
 28 24  2  0
  1 29  1  0
  1 30  1  0
  1 31  1  0
  2 32  1  0
  2 33  1  0
  3 34  1  0
  4 35  1  0
  4 36  1  0
  5 37  1  0
  5 38  1  0
  5 39  1  0
  6 40  1  0
  6 41  1  0
  7 42  1  0
  7 43  1  0
  9 44  1  0
  9 45  1  0
 10 46  1  0
 10 47  1  0
 11 48  1  0
 12 49  1  0
 12 50  1  0
 13 51  1  0
 13 52  1  0
 14 53  1  0
 17 54  1  0
 18 55  1  0
 19 56  1  0
 20 57  1  0
 23 58  1  0
 23 59  1  0
 23 60  1  0
 25 61  1  0
 26 62  1  0
M  CHG  2   3   1  22   1
M  END
>  <UniqueID>  (27) 
26

>  <SMILES>  (27) 
CC[NH+](CC)CCOCCNCCNc1c2ccccc2[n+](C)c2ccsc12

>  <Energy>  (27) 
113.09946152258641

>  <Genealogy>  (27) 
CC[NH+](CC)CCOCCNCCNc1c2ccccc2[n+](C)c2ccsc12 (protonated)
CC[NH+](CC)CCOCCNCCNc1c2ccccc2[n+](C)c2ccsc12 (3D coordinates assigned)
CC[NH+](CC)CCOCCNCCNc1c2ccccc2[n+](C)c2ccsc12 (optimized conformer: 113.09946152258641 kcal/mol)

>  <smiles>  (27) 
CCN(CC)CCOCCNCCNc1c2ccccc2[n+](C)c2ccsc12

>  <score_type>  (27) 
oracle

>  <origin>  (27) 
adg

>  <m_score__min__energy>  (27) 
-4.3799999999999999

>  <m_primary>  (27) 
energy

$$$$
27:0
     RDKit          3D

 44 46  0  0  0  0  0  0  0  0999 V2000
   62.1410   33.7940   51.0330 C   0  0  0  0  0  0  0  0  0  0  0  0
   62.5390   33.3000   49.6660 C   0  0  0  0  0  0  0  0  0  0  0  0
   63.0290   34.2190   48.7210 C   0  0  0  0  0  0  0  0  0  0  0  0
   63.4110   33.7950   47.4480 C   0  0  0  0  0  0  0  0  0  0  0  0
   63.3050   32.4500   47.0980 C   0  0  0  0  0  0  0  0  0  0  0  0
   62.8190   31.5230   48.0220 C   0  0  0  0  0  0  0  0  0  0  0  0
   62.4340   31.9300   49.3120 C   0  0  0  0  0  0  0  0  0  0  0  0
   61.9500   30.8840   50.2940 C   0  0  0  0  0  0  0  0  0  0  0  0
   61.3070   29.7560   49.6040 N   0  0  0  0  0  0  0  0  0  0  0  0
   59.9340   29.4920   50.0720 C   0  0  0  0  0  0  0  0  0  0  0  0
   58.8780   29.7220   48.9750 C   0  0  0  0  0  0  0  0  0  0  0  0
   59.5270   30.0430   47.7030 N   0  0  0  0  0  0  0  0  0  0  0  0
   58.8910   30.8250   46.6740 C   0  0  0  0  0  0  0  0  0  0  0  0
   58.1150   30.1850   45.6900 C   0  0  0  0  0  0  0  0  0  0  0  0
   57.4970   30.9170   44.6750 C   0  0  0  0  0  0  0  0  0  0  0  0
   56.4420   30.0190   43.3610 Br  0  0  0  0  0  0  0  0  0  0  0  0
   57.6540   32.3010   44.6160 C   0  0  0  0  0  0  0  0  0  0  0  0
   58.4190   32.9650   45.5820 C   0  0  0  0  0  0  0  0  0  0  0  0
   58.5690   34.3560   45.5350 C   0  0  0  0  0  0  0  0  0  0  0  0
   59.3090   35.0090   46.5180 C   0  0  0  0  0  0  0  0  0  0  0  0
   59.8890   34.2670   47.5460 C   0  0  0  0  0  0  0  0  0  0  0  0
   59.7430   32.9140   47.5890 N   0  0  0  0  0  0  0  0  0  0  0  0
   59.0400   32.2350   46.6280 C   0  0  0  0  0  0  0  0  0  0  0  0
   62.6344   33.1816   51.8022 H   0  0  0  0  0  0  0  0  0  0  0  0
   62.4485   34.8440   51.1473 H   0  0  0  0  0  0  0  0  0  0  0  0
   61.0497   33.7170   51.1473 H   0  0  0  0  0  0  0  0  0  0  0  0
   63.1119   35.2828   48.9883 H   0  0  0  0  0  0  0  0  0  0  0  0
   63.7965   34.5233   46.7193 H   0  0  0  0  0  0  0  0  0  0  0  0
   63.6045   32.1186   46.0928 H   0  0  0  0  0  0  0  0  0  0  0  0
   62.7364   30.4635   47.7381 H   0  0  0  0  0  0  0  0  0  0  0  0
   62.8092   30.5087   50.8693 H   0  0  0  0  0  0  0  0  0  0  0  0
   61.2084   31.3508   50.9589 H   0  0  0  0  0  0  0  0  0  0  0  0
   61.8920   28.8990   49.7420 H   0  0  0  0  0  0  0  0  0  0  0  0
   59.8714   28.4462   50.4071 H   0  0  0  0  0  0  0  0  0  0  0  0
   59.7211   30.1949   50.8909 H   0  0  0  0  0  0  0  0  0  0  0  0
   58.2754   28.8096   48.8546 H   0  0  0  0  0  0  0  0  0  0  0  0
   58.2338   30.5635   49.2699 H   0  0  0  0  0  0  0  0  0  0  0  0
   60.5000   29.6960   47.5550 H   0  0  0  0  0  0  0  0  0  0  0  0
   57.9937   29.0922   45.7212 H   0  0  0  0  0  0  0  0  0  0  0  0
   57.1751   32.8731   43.8077 H   0  0  0  0  0  0  0  0  0  0  0  0
   58.1029   34.9328   44.7226 H   0  0  0  0  0  0  0  0  0  0  0  0
   59.4347   36.1012   46.4835 H   0  0  0  0  0  0  0  0  0  0  0  0
   60.4690   34.7785   48.3283 H   0  0  0  0  0  0  0  0  0  0  0  0
   60.1780   32.4180   48.3960 H   0  0  0  0  0  0  0  0  0  0  0  0
  1  2  1  0
  2  3  2  0
  3  4  1  0
  4  5  2  0
  5  6  1  0
  6  7  2  0
  7  8  1  0
  8  9  1  0
  9 10  1  0
 10 11  1  0
 11 12  1  0
 12 13  1  0
 13 14  2  0
 14 15  1  0
 15 16  1  0
 15 17  2  0
 17 18  1  0
 18 19  2  0
 19 20  1  0
 20 21  2  0
 21 22  1  0
 22 23  2  0
  7  2  1  0
 23 13  1  0
 23 18  1  0
  1 24  1  0
  1 25  1  0
  1 26  1  0
  3 27  1  0
  4 28  1  0
  5 29  1  0
  6 30  1  0
  8 31  1  0
  8 32  1  0
  9 33  1  0
 10 34  1  0
 10 35  1  0
 11 36  1  0
 11 37  1  0
 12 38  1  0
 14 39  1  0
 17 40  1  0
 19 41  1  0
 20 42  1  0
 21 43  1  0
 22 44  1  0
M  CHG  1  22   1
M  END
>  <UniqueID>  (28) 
27

>  <SMILES>  (28) 
Cc1ccccc1CNCCNc1cc(Br)cc2ccc[nH+]c12

>  <Energy>  (28) 
50.747895750799195

>  <Genealogy>  (28) 
Cc1ccccc1CNCCNc1cc(Br)cc2ccc[nH+]c12 (protonated)
Cc1ccccc1CNCCNc1cc(Br)cc2ccc[nH+]c12 (3D coordinates assigned)
Cc1ccccc1CNCCNc1cc(Br)cc2ccc[nH+]c12 (optimized conformer: 50.747895750799195 kcal/mol)

>  <smiles>  (28) 
Cc1ccccc1CNCCNc1cc(Br)cc2cccnc12

>  <score_type>  (28) 
oracle

>  <origin>  (28) 
adg

>  <m_score__min__energy>  (28) 
-6.3799999999999999

>  <m_primary>  (28) 
energy

$$$$
