0:0
     RDKit          3D

 40 40  0  0  0  0  0  0  0  0999 V2000
   59.2780   34.7000   47.1510 C   0  0  0  0  0  0  0  0  0  0  0  0
   59.4960   34.8630   45.6490 C   0  0  0  0  0  0  0  0  0  0  0  0
   58.8690   33.7270   44.8240 C   0  0  0  0  0  0  0  0  0  0  0  0
   57.3760   33.4910   45.1340 C   0  0  0  0  0  0  0  0  0  0  0  0
   56.9490   32.0350   44.8700 C   0  0  0  0  0  0  0  0  0  0  0  0
   57.7120   31.4020   43.6860 C   0  0  0  0  0  0  0  0  0  0  0  0
   57.0210   30.1590   43.0920 C   0  0  0  0  0  0  0  0  0  0  0  0
   55.7810   29.7000   43.8690 C   0  0  0  0  0  0  0  0  0  0  0  0
   56.1380   29.2470   45.2140 N   0  0  0  0  0  0  0  0  0  0  0  0
   57.2120   28.3240   45.4630 C   0  0  0  0  0  0  0  0  0  0  0  0
   58.5500   28.7500   45.3590 C   0  0  0  0  0  0  0  0  0  0  0  0
   59.5990   27.8700   45.6260 C   0  0  0  0  0  0  0  0  0  0  0  0
   59.3290   26.5550   46.0030 C   0  0  0  0  0  0  0  0  0  0  0  0
   58.0080   26.1140   46.1080 C   0  0  0  0  0  0  0  0  0  0  0  0
   56.9410   26.9860   45.8360 C   0  0  0  0  0  0  0  0  0  0  0  0
   55.6010   26.4850   45.9000 N   0  0  0  0  0  0  0  0  0  0  0  0
   60.0429   35.2719   47.6967 H   0  0  0  0  0  0  0  0  0  0  0  0
   58.2792   35.0746   47.4193 H   0  0  0  0  0  0  0  0  0  0  0  0
   59.3548   33.6360   47.4193 H   0  0  0  0  0  0  0  0  0  0  0  0
   59.0475   35.8158   45.3311 H   0  0  0  0  0  0  0  0  0  0  0  0
   60.5810   34.8397   45.4696 H   0  0  0  0  0  0  0  0  0  0  0  0
   58.9676   33.9764   43.7572 H   0  0  0  0  0  0  0  0  0  0  0  0
   59.4037   32.8028   45.0883 H   0  0  0  0  0  0  0  0  0  0  0  0
   57.1925   33.7274   46.1925 H   0  0  0  0  0  0  0  0  0  0  0  0
   56.7869   34.1408   44.4702 H   0  0  0  0  0  0  0  0  0  0  0  0
   57.1445   31.4402   45.7744 H   0  0  0  0  0  0  0  0  0  0  0  0
   55.8792   32.0409   44.6142 H   0  0  0  0  0  0  0  0  0  0  0  0
   57.8083   32.1574   42.8922 H   0  0  0  0  0  0  0  0  0  0  0  0
   58.6867   31.0712   44.0740 H   0  0  0  0  0  0  0  0  0  0  0  0
   56.7157   30.3930   42.0614 H   0  0  0  0  0  0  0  0  0  0  0  0
   57.7496   29.3365   43.1432 H   0  0  0  0  0  0  0  0  0  0  0  0
   55.0758   30.5405   43.9487 H   0  0  0  0  0  0  0  0  0  0  0  0
   55.3221   28.8592   43.3282 H   0  0  0  0  0  0  0  0  0  0  0  0
   55.6720   29.7040   46.0300 H   0  0  0  0  0  0  0  0  0  0  0  0
   58.7703   29.7867   45.0644 H   0  0  0  0  0  0  0  0  0  0  0  0
   60.6402   28.2139   45.5390 H   0  0  0  0  0  0  0  0  0  0  0  0
   60.1575   25.8641   46.2180 H   0  0  0  0  0  0  0  0  0  0  0  0
   57.8015   25.0755   46.4061 H   0  0  0  0  0  0  0  0  0  0  0  0
   55.1340   26.3390   46.8240 H   0  0  0  0  0  0  0  0  0  0  0  0
   55.0760   26.1910   45.0480 H   0  0  0  0  0  0  0  0  0  0  0  0
  1  2  1  0
  2  3  1  0
  3  4  1  0
  4  5  1  0
  5  6  1  0
  6  7  1  0
  7  8  1  0
  8  9  1  0
  9 10  1  0
 10 11  2  0
 11 12  1  0
 12 13  2  0
 13 14  1  0
 14 15  2  0
 15 16  1  0
 15 10  1  0
  1 17  1  0
  1 18  1  0
  1 19  1  0
  2 20  1  0
  2 21  1  0
  3 22  1  0
  3 23  1  0
  4 24  1  0
  4 25  1  0
  5 26  1  0
  5 27  1  0
  6 28  1  0
  6 29  1  0
  7 30  1  0
  7 31  1  0
  8 32  1  0
  8 33  1  0
  9 34  1  0
 11 35  1  0
 12 36  1  0
 13 37  1  0
 14 38  1  0
 16 39  1  0
 16 40  1  0
M  END
>  <UniqueID>  (1) 
1

>  <SMILES>  (1) 
CCCCCCCCNc1ccccc1N

>  <Energy>  (1) 
31.008963988668974

>  <Genealogy>  (1) 
CCCCCCCCNc1ccccc1N (3D coordinates assigned)
CCCCCCCCNc1ccccc1N (optimized conformer: 31.008963988668974 kcal/mol)

>  <smiles>  (1) 
CCCCCCCCNc1ccccc1N

>  <score_type>  (1) 
oracle

>  <origin>  (1) 
adg

>  <m_score__min__energy>  (1) 
-6.9100000000000001

>  <m_primary>  (1) 
energy

$$$$
1:0
     RDKit          3D

 57 59  0  0  0  0  0  0  0  0999 V2000
   58.8210   31.9610   50.0520 C   0  0  0  0  0  0  0  0  0  0  0  0
   59.6580   31.3840   48.9860 N   0  0  0  0  0  0  0  0  0  0  0  0
   59.1350   30.1010   48.4620 C   0  0  0  0  0  0  0  0  0  0  0  0
   60.2030   29.0130   48.2040 C   0  0  0  0  0  0  0  0  0  0  0  0
   59.6390   27.6450   48.2380 N   0  0  0  0  0  0  0  0  0  0  0  0
   60.5260   26.7220   48.9640 C   0  0  0  0  0  0  0  0  0  0  0  0
   59.2540   27.1140   46.9080 C   0  0  0  0  0  0  0  0  0  0  0  0
   58.6670   28.1510   45.9840 C   0  0  0  0  0  0  0  0  0  0  0  0
   57.2790   28.2840   45.8420 C   0  0  0  0  0  0  0  0  0  0  0  0
   56.7780   29.2680   44.9900 C   0  0  0  0  0  0  0  0  0  0  0  0
   55.5330   29.4090   44.8580 O   0  0  0  0  0  0  0  0  0  0  0  0
   57.6610   30.0960   44.2900 C   0  0  0  0  0  0  0  0  0  0  0  0
   57.1410   31.0860   43.4400 O   0  0  0  0  0  0  0  0  0  0  0  0
   57.7560   32.3450   43.1690 C   0  0  0  0  0  0  0  0  0  0  0  0
   58.0340   33.0980   44.4430 C   0  0  0  0  0  0  0  0  0  0  0  0
   57.3600   32.7620   45.6300 C   0  0  0  0  0  0  0  0  0  0  0  0
   57.6460   33.4420   46.8190 C   0  0  0  0  0  0  0  0  0  0  0  0
   58.6100   34.4530   46.8340 C   0  0  0  0  0  0  0  0  0  0  0  0
   59.2910   34.7870   45.6600 C   0  0  0  0  0  0  0  0  0  0  0  0
   59.0100   34.1100   44.4690 C   0  0  0  0  0  0  0  0  0  0  0  0
   59.0410   29.8930   44.4720 C   0  0  0  0  0  0  0  0  0  0  0  0
   59.4820   28.9480   45.2960 O   0  0  0  0  0  0  0  0  0  0  0  0
   61.0830   31.3190   49.3690 C   0  0  0  0  0  0  0  0  0  0  0  0
   61.9110   32.1680   48.4410 C   0  0  0  0  0  0  0  0  0  0  0  0
   63.2200   32.5420   48.7890 C   0  0  0  0  0  0  0  0  0  0  0  0
   63.9680   33.3620   47.9380 C   0  0  0  0  0  0  0  0  0  0  0  0
   63.4140   33.8180   46.7390 C   0  0  0  0  0  0  0  0  0  0  0  0
   62.1110   33.4550   46.3890 C   0  0  0  0  0  0  0  0  0  0  0  0
   61.3600   32.6350   47.2360 C   0  0  0  0  0  0  0  0  0  0  0  0
   59.2306   31.6787   51.0331 H   0  0  0  0  0  0  0  0  0  0  0  0
   58.8135   33.0571   49.9595 H   0  0  0  0  0  0  0  0  0  0  0  0
   57.7939   31.5781   49.9595 H   0  0  0  0  0  0  0  0  0  0  0  0
   58.4135   29.7040   49.1913 H   0  0  0  0  0  0  0  0  0  0  0  0
   58.6882   30.3295   47.4831 H   0  0  0  0  0  0  0  0  0  0  0  0
   60.6502   29.1856   47.2139 H   0  0  0  0  0  0  0  0  0  0  0  0
   60.9533   29.0849   49.0051 H   0  0  0  0  0  0  0  0  0  0  0  0
   60.3925   26.8609   50.0470 H   0  0  0  0  0  0  0  0  0  0  0  0
   60.2767   25.6853   48.6938 H   0  0  0  0  0  0  0  0  0  0  0  0
   61.5718   26.9299   48.6938 H   0  0  0  0  0  0  0  0  0  0  0  0
   60.1506   26.6921   46.4305 H   0  0  0  0  0  0  0  0  0  0  0  0
   58.4725   26.3590   47.0790 H   0  0  0  0  0  0  0  0  0  0  0  0
   56.5953   27.6224   46.3941 H   0  0  0  0  0  0  0  0  0  0  0  0
   58.7042   32.1747   42.6381 H   0  0  0  0  0  0  0  0  0  0  0  0
   57.0696   32.9435   42.5521 H   0  0  0  0  0  0  0  0  0  0  0  0
   56.6052   31.9618   45.6241 H   0  0  0  0  0  0  0  0  0  0  0  0
   57.1108   33.1800   47.7436 H   0  0  0  0  0  0  0  0  0  0  0  0
   58.8331   34.9863   47.7699 H   0  0  0  0  0  0  0  0  0  0  0  0
   60.0493   35.5838   45.6729 H   0  0  0  0  0  0  0  0  0  0  0  0
   59.5544   34.3701   43.5492 H   0  0  0  0  0  0  0  0  0  0  0  0
   59.7612   30.5216   43.9278 H   0  0  0  0  0  0  0  0  0  0  0  0
   61.1994   31.6871   50.3990 H   0  0  0  0  0  0  0  0  0  0  0  0
   61.4252   30.2757   49.3017 H   0  0  0  0  0  0  0  0  0  0  0  0
   63.6580   32.1886   49.7341 H   0  0  0  0  0  0  0  0  0  0  0  0
   64.9939   33.6484   48.2130 H   0  0  0  0  0  0  0  0  0  0  0  0
   64.0037   34.4627   46.0707 H   0  0  0  0  0  0  0  0  0  0  0  0
   61.6754   33.8151   45.4453 H   0  0  0  0  0  0  0  0  0  0  0  0
   60.3334   32.3542   46.9579 H   0  0  0  0  0  0  0  0  0  0  0  0
  1  2  1  0
  2  3  1  0
  3  4  1  0
  4  5  1  0
  5  6  1  0
  5  7  1  0
  7  8  1  0
  8  9  2  0
  9 10  1  0
 10 11  2  0
 10 12  1  0
 12 13  1  0
 13 14  1  0
 14 15  1  0
 15 16  2  0
 16 17  1  0
 17 18  2  0
 18 19  1  0
 19 20  2  0
 12 21  2  0
 21 22  1  0
  2 23  1  0
 23 24  1  0
 24 25  2  0
 25 26  1  0
 26 27  2  0
 27 28  1  0
 28 29  2  0
 22  8  1  0
 29 24  1  0
 20 15  1  0
  1 30  1  0
  1 31  1  0
  1 32  1  0
  3 33  1  0
  3 34  1  0
  4 35  1  0
  4 36  1  0
  6 37  1  0
  6 38  1  0
  6 39  1  0
  7 40  1  0
  7 41  1  0
  9 42  1  0
 14 43  1  0
 14 44  1  0
 16 45  1  0
 17 46  1  0
 18 47  1  0
 19 48  1  0
 20 49  1  0
 21 50  1  0
 23 51  1  0
 23 52  1  0
 25 53  1  0
 26 54  1  0
 27 55  1  0
 28 56  1  0
 29 57  1  0
M  END
>  <UniqueID>  (2) 
2

>  <SMILES>  (2) 
CN(CCN(C)Cc1cc(=O)c(OCc2ccccc2)co1)Cc1ccccc1

>  <Energy>  (2) 
67.19762522927459

>  <Genealogy>  (2) 
CN(CCN(C)Cc1cc(=O)c(OCc2ccccc2)co1)Cc1ccccc1 (3D coordinates assigned)
CN(CCN(C)Cc1cc(=O)c(OCc2ccccc2)co1)Cc1ccccc1 (optimized conformer: 67.19762522927459 kcal/mol)

>  <smiles>  (2) 
CN(CCN(C)Cc1cc(=O)c(OCc2ccccc2)co1)Cc1ccccc1

>  <score_type>  (2) 
oracle

>  <origin>  (2) 
adg

>  <m_score__min__energy>  (2) 
-8.0700000000000003

>  <m_primary>  (2) 
energy

$$$$
2:0
     RDKit          3D

 55 57  0  0  0  0  0  0  0  0999 V2000
   57.7670   28.9820   45.9990 C   0  0  0  0  0  0  0  0  0  0  0  0
   57.0250   30.1350   45.6200 O   0  0  0  0  0  0  0  0  0  0  0  0
   57.1160   30.7680   44.3670 C   0  0  0  0  0  0  0  0  0  0  0  0
   56.5570   30.1940   43.2080 C   0  0  0  0  0  0  0  0  0  0  0  0
   56.6980   30.8210   41.9680 C   0  0  0  0  0  0  0  0  0  0  0  0
   57.3900   32.0260   41.8670 C   0  0  0  0  0  0  0  0  0  0  0  0
   57.9410   32.6130   43.0070 C   0  0  0  0  0  0  0  0  0  0  0  0
   57.8050   31.9990   44.2660 C   0  0  0  0  0  0  0  0  0  0  0  0
   58.4100   32.6380   45.4590 C   0  0  0  0  0  0  0  0  0  0  0  0
   59.2260   31.8990   46.3320 C   0  0  0  0  0  0  0  0  0  0  0  0
   59.8230   32.5150   47.4360 C   0  0  0  0  0  0  0  0  0  0  0  0
   59.6160   33.8810   47.6860 C   0  0  0  0  0  0  0  0  0  0  0  0
   60.3020   34.5590   48.8530 C   0  0  0  0  0  0  0  0  0  0  0  0
   61.0170   33.5980   49.7320 N   0  0  1  0  0  0  0  0  0  0  0  0
   62.3920   34.0170   50.1210 C   0  0  0  0  0  0  0  0  0  0  0  0
   63.5050   33.7120   49.0920 C   0  0  0  0  0  0  0  0  0  0  0  0
   62.9570   33.0840   47.8700 N   0  0  0  0  0  0  0  0  0  0  0  0
   63.3580   33.8380   46.6700 C   0  0  0  0  0  0  0  0  0  0  0  0
   63.4010   31.6850   47.7450 C   0  0  0  0  0  0  0  0  0  0  0  0
   60.2190   33.2470   50.8920 C   0  0  0  0  0  0  0  0  0  0  0  0
   60.3000   33.9250   51.9540 O   0  0  0  0  0  0  0  0  0  0  0  0
   59.3440   32.0600   50.8690 C   0  0  0  0  0  0  0  0  0  0  0  0
   58.2670   31.8300   51.7030 C   0  0  0  0  0  0  0  0  0  0  0  0
   57.7550   30.6090   51.3220 C   0  0  0  0  0  0  0  0  0  0  0  0
   58.5490   30.1680   50.2830 C   0  0  0  0  0  0  0  0  0  0  0  0
   59.4870   31.0550   50.0370 O   0  0  0  0  0  0  0  0  0  0  0  0
   58.7600   34.6070   46.8440 C   0  0  0  0  0  0  0  0  0  0  0  0
   58.1670   33.9940   45.7380 C   0  0  0  0  0  0  0  0  0  0  0  0
   57.8087   28.9172   47.0963 H   0  0  0  0  0  0  0  0  0  0  0  0
   57.2777   28.0826   45.5969 H   0  0  0  0  0  0  0  0  0  0  0  0
   58.7883   29.0547   45.5969 H   0  0  0  0  0  0  0  0  0  0  0  0
   56.0054   29.2450   43.2803 H   0  0  0  0  0  0  0  0  0  0  0  0
   56.2615   30.3622   41.0686 H   0  0  0  0  0  0  0  0  0  0  0  0
   57.5021   32.5151   40.8881 H   0  0  0  0  0  0  0  0  0  0  0  0
   58.4866   33.5643   42.9207 H   0  0  0  0  0  0  0  0  0  0  0  0
   59.3963   30.8284   46.1456 H   0  0  0  0  0  0  0  0  0  0  0  0
   60.4589   31.9257   48.1130 H   0  0  0  0  0  0  0  0  0  0  0  0
   61.0287   35.2856   48.4607 H   0  0  0  0  0  0  0  0  0  0  0  0
   59.5246   35.0489   49.4577 H   0  0  0  0  0  0  0  0  0  0  0  0
   61.1250   32.7170   49.1750 H   0  0  0  0  0  0  0  0  0  0  0  0
   62.3782   35.1037   50.2911 H   0  0  0  0  0  0  0  0  0  0  0  0
   62.6422   33.4272   51.0152 H   0  0  0  0  0  0  0  0  0  0  0  0
   64.0049   34.6525   48.8170 H   0  0  0  0  0  0  0  0  0  0  0  0
   64.2163   33.0098   49.5513 H   0  0  0  0  0  0  0  0  0  0  0  0
   63.8546   34.7717   46.9726 H   0  0  0  0  0  0  0  0  0  0  0  0
   64.0524   33.2310   46.0706 H   0  0  0  0  0  0  0  0  0  0  0  0
   62.4665   34.0744   46.0706 H   0  0  0  0  0  0  0  0  0  0  0  0
   63.5381   31.2529   48.7472 H   0  0  0  0  0  0  0  0  0  0  0  0
   62.6421   31.1070   47.1972 H   0  0  0  0  0  0  0  0  0  0  0  0
   64.3543   31.6504   47.1972 H   0  0  0  0  0  0  0  0  0  0  0  0
   57.8955   32.4854   52.5045 H   0  0  0  0  0  0  0  0  0  0  0  0
   56.8884   30.0904   51.7579 H   0  0  0  0  0  0  0  0  0  0  0  0
   58.4169   29.2188   49.7431 H   0  0  0  0  0  0  0  0  0  0  0  0
   58.5545   35.6665   47.0565 H   0  0  0  0  0  0  0  0  0  0  0  0
   57.5050   34.5766   45.0805 H   0  0  0  0  0  0  0  0  0  0  0  0
  1  2  1  0
  2  3  1  0
  3  4  2  0
  4  5  1  0
  5  6  2  0
  6  7  1  0
  7  8  2  0
  8  9  1  0
  9 10  2  0
 10 11  1  0
 11 12  2  0
 12 13  1  0
 13 14  1  0
 14 15  1  0
 15 16  1  0
 16 17  1  0
 17 18  1  0
 17 19  1  0
 14 20  1  0
 20 21  2  0
 20 22  1  0
 22 23  2  0
 23 24  1  0
 24 25  2  0
 25 26  1  0
 12 27  1  0
 27 28  2  0
  8  3  1  0
 28  9  1  0
 26 22  1  0
  1 29  1  0
  1 30  1  0
  1 31  1  0
  4 32  1  0
  5 33  1  0
  6 34  1  0
  7 35  1  0
 10 36  1  0
 11 37  1  0
 13 38  1  0
 13 39  1  0
 14 40  1  6
 15 41  1  0
 15 42  1  0
 16 43  1  0
 16 44  1  0
 18 45  1  0
 18 46  1  0
 18 47  1  0
 19 48  1  0
 19 49  1  0
 19 50  1  0
 23 51  1  0
 24 52  1  0
 25 53  1  0
 27 54  1  0
 28 55  1  0
M  CHG  1  14   1
M  END
>  <UniqueID>  (3) 
3

>  <SMILES>  (3) 
COc1ccccc1-c1ccc(C[N@@H+](CCN(C)C)C(=O)c2ccco2)cc1

>  <Energy>  (3) 
94.76134906319616

>  <Genealogy>  (3) 
COc1ccccc1-c1ccc(C[NH+](CCN(C)C)C(=O)c2ccco2)cc1 (protonated)
COc1ccccc1-c1ccc(C[N@@H+](CCN(C)C)C(=O)c2ccco2)cc1 (chirality)
COc1ccccc1-c1ccc(C[N@@H+](CCN(C)C)C(=O)c2ccco2)cc1 (3D coordinates assigned)
COc1ccccc1-c1ccc(C[N@@H+](CCN(C)C)C(=O)c2ccco2)cc1 (optimized conformer: 94.76134906319616 kcal/mol)

>  <smiles>  (3) 
COc1ccccc1-c1ccc(CN(CCN(C)C)C(=O)c2ccco2)cc1

>  <score_type>  (3) 
oracle

>  <origin>  (3) 
adg

>  <m_score__min__energy>  (3) 
-5.8499999999999996

>  <m_primary>  (3) 
energy

$$$$
3:0
     RDKit          3D

 50 53  0  0  0  0  0  0  0  0999 V2000
   58.1640   34.2710   45.1710 C   0  0  0  0  0  0  0  0  0  0  0  0
   58.3330   32.9560   45.8890 C   0  0  0  0  0  0  0  0  0  0  0  0
   58.7200   32.9640   47.2380 C   0  0  0  0  0  0  0  0  0  0  0  0
   58.9090   31.7680   47.9320 C   0  0  0  0  0  0  0  0  0  0  0  0
   58.7220   30.5350   47.2910 C   0  0  0  0  0  0  0  0  0  0  0  0
   58.9260   29.2580   48.0100 C   0  0  0  0  0  0  0  0  0  0  0  0
   58.5060   29.1390   49.1920 O   0  0  0  0  0  0  0  0  0  0  0  0
   59.5390   28.1310   47.3790 N   0  0  0  0  0  0  0  0  0  0  0  0
   60.0160   27.7200   46.0410 C   0  0  0  0  0  0  0  0  0  0  0  0
   60.2550   26.2830   46.3940 C   0  0  0  0  0  0  0  0  0  0  0  0
   59.3390   25.2890   45.7000 C   0  0  0  0  0  0  0  0  0  0  0  0
   59.6380   23.9130   45.6320 C   0  0  0  0  0  0  0  0  0  0  0  0
   58.7680   23.0280   44.9870 C   0  0  0  0  0  0  0  0  0  0  0  0
   57.5900   23.5040   44.4020 C   0  0  0  0  0  0  0  0  0  0  0  0
   56.6910   22.5910   43.7450 C   0  0  0  0  0  0  0  0  0  0  0  0
   55.9670   21.8600   43.2160 N   0  0  0  0  0  0  0  0  0  0  0  0
   57.2850   24.8690   44.4620 C   0  0  0  0  0  0  0  0  0  0  0  0
   58.1540   25.7550   45.1060 C   0  0  0  0  0  0  0  0  0  0  0  0
   59.7980   26.7260   47.7520 C   0  0  0  0  0  0  0  0  0  0  0  0
   58.2980   30.5220   45.9530 C   0  0  0  0  0  0  0  0  0  0  0  0
   58.0850   31.7180   45.2520 C   0  0  0  0  0  0  0  0  0  0  0  0
   57.6150   31.6430   43.8570 C   0  0  0  0  0  0  0  0  0  0  0  0
   57.9520   32.4990   42.8300 C   0  0  0  0  0  0  0  0  0  0  0  0
   57.3460   32.0630   41.7100 N   0  0  0  0  0  0  0  0  0  0  0  0
   57.3850   32.7200   40.4110 C   0  0  0  0  0  0  0  0  0  0  0  0
   56.6360   30.9760   41.9660 N   0  0  0  0  0  0  0  0  0  0  0  0
   56.7870   30.6940   43.2760 C   0  0  0  0  0  0  0  0  0  0  0  0
   56.2310   29.4640   43.9200 C   0  0  0  0  0  0  0  0  0  0  0  0
   58.0600   35.0806   45.9083 H   0  0  0  0  0  0  0  0  0  0  0  0
   59.0452   34.4604   44.5404 H   0  0  0  0  0  0  0  0  0  0  0  0
   57.2636   34.2314   44.5404 H   0  0  0  0  0  0  0  0  0  0  0  0
   58.8760   33.9230   47.7537 H   0  0  0  0  0  0  0  0  0  0  0  0
   59.2071   31.7928   48.9905 H   0  0  0  0  0  0  0  0  0  0  0  0
   59.2509   27.8442   45.2605 H   0  0  0  0  0  0  0  0  0  0  0  0
   60.8624   28.2797   45.6164 H   0  0  0  0  0  0  0  0  0  0  0  0
   61.1996   25.7519   46.2052 H   0  0  0  0  0  0  0  0  0  0  0  0
   60.5629   23.5323   46.0899 H   0  0  0  0  0  0  0  0  0  0  0  0
   59.0105   21.9561   44.9397 H   0  0  0  0  0  0  0  0  0  0  0  0
   56.3596   25.2453   44.0015 H   0  0  0  0  0  0  0  0  0  0  0  0
   57.9078   26.8263   45.1480 H   0  0  0  0  0  0  0  0  0  0  0  0
   58.8910   26.2014   48.0869 H   0  0  0  0  0  0  0  0  0  0  0  0
   60.4836   26.5492   48.5938 H   0  0  0  0  0  0  0  0  0  0  0  0
   58.1303   29.5599   45.4469 H   0  0  0  0  0  0  0  0  0  0  0  0
   58.6018   33.3828   42.9116 H   0  0  0  0  0  0  0  0  0  0  0  0
   57.4496   33.8089   40.5527 H   0  0  0  0  0  0  0  0  0  0  0  0
   58.2640   32.3705   39.8496 H   0  0  0  0  0  0  0  0  0  0  0  0
   56.4708   32.4769   39.8496 H   0  0  0  0  0  0  0  0  0  0  0  0
   56.2786   29.5694   45.0139 H   0  0  0  0  0  0  0  0  0  0  0  0
   55.1843   29.3289   43.6099 H   0  0  0  0  0  0  0  0  0  0  0  0
   56.8211   28.5890   43.6099 H   0  0  0  0  0  0  0  0  0  0  0  0
  1  2  1  0
  2  3  2  0
  3  4  1  0
  4  5  2  0
  5  6  1  0
  6  7  2  0
  6  8  1  0
  8  9  1  0
  9 10  1  0
 10 11  1  0
 11 12  2  0
 12 13  1  0
 13 14  2  0
 14 15  1  0
 15 16  3  0
 14 17  1  0
 17 18  2  0
 10 19  1  0
  5 20  1  0
 20 21  2  0
 21 22  1  0
 22 23  2  0
 23 24  1  0
 24 25  1  0
 24 26  1  0
 26 27  2  0
 27 28  1  0
 21  2  1  0
 27 22  1  0
 19  8  1  0
 18 11  1  0
  1 29  1  0
  1 30  1  0
  1 31  1  0
  3 32  1  0
  4 33  1  0
  9 34  1  0
  9 35  1  0
 10 36  1  0
 12 37  1  0
 13 38  1  0
 17 39  1  0
 18 40  1  0
 19 41  1  0
 19 42  1  0
 20 43  1  0
 23 44  1  0
 25 45  1  0
 25 46  1  0
 25 47  1  0
 28 48  1  0
 28 49  1  0
 28 50  1  0
M  END
>  <UniqueID>  (4) 
4

>  <SMILES>  (4) 
Cc1ccc(C(=O)N2CC(c3ccc(C#N)cc3)C2)cc1-c1cn(C)nc1C

>  <Energy>  (4) 
137.64856218107857

>  <Genealogy>  (4) 
Cc1ccc(C(=O)N2CC(c3ccc(C#N)cc3)C2)cc1-c1cn(C)nc1C (3D coordinates assigned)
Cc1ccc(C(=O)N2CC(c3ccc(C#N)cc3)C2)cc1-c1cn(C)nc1C (nonaromatic ring conformer: 137.64856218107857 kcal/mol)

>  <smiles>  (4) 
Cc1ccc(C(=O)N2CC(c3ccc(C#N)cc3)C2)cc1-c1cn(C)nc1C

>  <score_type>  (4) 
oracle

>  <origin>  (4) 
adg

>  <m_score__min__energy>  (4) 
-9.0500000000000007

>  <m_primary>  (4) 
energy

$$$$
4:0
     RDKit          3D

 47 48  0  0  0  0  0  0  0  0999 V2000
   62.0390   31.6360   47.5290 C   0  0  0  0  0  0  0  0  0  0  0  0
   62.4720   33.0540   47.4750 N   0  0  0  0  0  0  0  0  0  0  0  0
   63.7660   33.1180   46.7550 C   0  0  0  0  0  0  0  0  0  0  0  0
   62.6500   33.5370   48.8660 C   0  0  0  0  0  0  0  0  0  0  0  0
   61.4120   33.8310   46.7620 C   0  0  0  0  0  0  0  0  0  0  0  0
   60.1810   34.2050   47.6190 C   0  0  0  0  0  0  0  0  0  0  0  0
   59.3040   35.2320   46.8880 C   0  0  0  0  0  0  0  0  0  0  0  0
   59.2910   34.9930   45.3720 C   0  0  0  0  0  0  0  0  0  0  0  0
   58.1320   34.2620   44.9700 O   0  0  0  0  0  0  0  0  0  0  0  0
   58.0320   32.8630   44.8910 C   0  0  0  0  0  0  0  0  0  0  0  0
   58.2540   32.1200   46.0540 C   0  0  0  0  0  0  0  0  0  0  0  0
   58.1650   30.7250   46.0370 C   0  0  0  0  0  0  0  0  0  0  0  0
   57.8530   30.0450   44.8480 C   0  0  0  0  0  0  0  0  0  0  0  0
   57.7560   28.5630   44.8270 C   0  0  0  0  0  0  0  0  0  0  0  0
   57.9900   27.8470   43.6380 C   0  0  0  0  0  0  0  0  0  0  0  0
   57.8960   26.4520   43.6210 C   0  0  0  0  0  0  0  0  0  0  0  0
   57.5700   25.7570   44.7870 C   0  0  0  0  0  0  0  0  0  0  0  0
   57.3350   26.4560   45.9740 C   0  0  0  0  0  0  0  0  0  0  0  0
   57.4270   27.8500   45.9960 C   0  0  0  0  0  0  0  0  0  0  0  0
   57.6370   30.7920   43.6760 C   0  0  0  0  0  0  0  0  0  0  0  0
   57.7270   32.1870   43.6950 C   0  0  0  0  0  0  0  0  0  0  0  0
   61.9430   31.3217   48.5787 H   0  0  0  0  0  0  0  0  0  0  0  0
   61.0675   31.5298   47.0241 H   0  0  0  0  0  0  0  0  0  0  0  0
   62.7855   31.0052   47.0241 H   0  0  0  0  0  0  0  0  0  0  0  0
   64.5893   33.1587   47.4834 H   0  0  0  0  0  0  0  0  0  0  0  0
   63.8789   32.2243   46.1236 H   0  0  0  0  0  0  0  0  0  0  0  0
   63.7902   34.0184   46.1236 H   0  0  0  0  0  0  0  0  0  0  0  0
   62.3577   32.7438   49.5698 H   0  0  0  0  0  0  0  0  0  0  0  0
   63.7049   33.8021   49.0299 H   0  0  0  0  0  0  0  0  0  0  0  0
   62.0194   34.4233   49.0299 H   0  0  0  0  0  0  0  0  0  0  0  0
   61.8643   34.7627   46.3913 H   0  0  0  0  0  0  0  0  0  0  0  0
   61.0388   33.1749   45.9618 H   0  0  0  0  0  0  0  0  0  0  0  0
   59.5889   33.2990   47.8156 H   0  0  0  0  0  0  0  0  0  0  0  0
   60.5287   34.6457   48.5650 H   0  0  0  0  0  0  0  0  0  0  0  0
   58.2749   35.1571   47.2692 H   0  0  0  0  0  0  0  0  0  0  0  0
   59.7220   36.2325   47.0732 H   0  0  0  0  0  0  0  0  0  0  0  0
   59.2981   35.9646   44.8564 H   0  0  0  0  0  0  0  0  0  0  0  0
   60.1813   34.4040   45.1066 H   0  0  0  0  0  0  0  0  0  0  0  0
   58.5013   32.6383   46.9922 H   0  0  0  0  0  0  0  0  0  0  0  0
   58.3406   30.1555   46.9616 H   0  0  0  0  0  0  0  0  0  0  0  0
   58.2485   28.3885   42.7161 H   0  0  0  0  0  0  0  0  0  0  0  0
   58.0793   25.9010   42.6868 H   0  0  0  0  0  0  0  0  0  0  0  0
   57.4981   24.6595   44.7714 H   0  0  0  0  0  0  0  0  0  0  0  0
   57.0772   25.9080   46.8923 H   0  0  0  0  0  0  0  0  0  0  0  0
   57.2410   28.3946   46.9334 H   0  0  0  0  0  0  0  0  0  0  0  0
   57.3951   30.2741   42.7362 H   0  0  0  0  0  0  0  0  0  0  0  0
   57.5586   32.7590   42.7706 H   0  0  0  0  0  0  0  0  0  0  0  0
  1  2  1  0
  2  3  1  0
  2  4  1  0
  2  5  1  0
  5  6  1  0
  6  7  1  0
  7  8  1  0
  8  9  1  0
  9 10  1  0
 10 11  2  0
 11 12  1  0
 12 13  2  0
 13 14  1  0
 14 15  2  0
 15 16  1  0
 16 17  2  0
 17 18  1  0
 18 19  2  0
 13 20  1  0
 20 21  2  0
 21 10  1  0
 19 14  1  0
  1 22  1  0
  1 23  1  0
  1 24  1  0
  3 25  1  0
  3 26  1  0
  3 27  1  0
  4 28  1  0
  4 29  1  0
  4 30  1  0
  5 31  1  0
  5 32  1  0
  6 33  1  0
  6 34  1  0
  7 35  1  0
  7 36  1  0
  8 37  1  0
  8 38  1  0
 11 39  1  0
 12 40  1  0
 15 41  1  0
 16 42  1  0
 17 43  1  0
 18 44  1  0
 19 45  1  0
 20 46  1  0
 21 47  1  0
M  CHG  1   2   1
M  END
>  <UniqueID>  (5) 
5

>  <SMILES>  (5) 
C[N+](C)(C)CCCCOc1ccc(-c2ccccc2)cc1

>  <Energy>  (5) 
53.435314439980296

>  <Genealogy>  (5) 
C[N+](C)(C)CCCCOc1ccc(-c2ccccc2)cc1 (3D coordinates assigned)
C[N+](C)(C)CCCCOc1ccc(-c2ccccc2)cc1 (optimized conformer: 53.435314439980296 kcal/mol)

>  <smiles>  (5) 
C[N+](C)(C)CCCCOc1ccc(-c2ccccc2)cc1

>  <score_type>  (5) 
oracle

>  <origin>  (5) 
adg

>  <m_score__min__energy>  (5) 
-5.0099999999999998

>  <m_primary>  (5) 
energy

$$$$
5:0
     RDKit          3D

 46 48  0  0  0  0  0  0  0  0999 V2000
   57.8480   34.1170   44.8700 C   0  0  0  0  0  0  0  0  0  0  0  0
   58.5450   34.5170   45.7690 C   0  0  0  0  0  0  0  0  0  0  0  0
   59.3940   35.0050   46.8640 C   0  0  0  0  0  0  0  0  0  0  0  0
   59.6550   33.9320   47.8460 N   0  0  0  0  0  0  0  0  0  0  0  0
   60.9440   33.2480   47.5720 C   0  0  0  0  0  0  0  0  0  0  0  0
   60.7560   31.9510   46.7640 C   0  0  0  0  0  0  0  0  0  0  0  0
   59.8620   30.9770   47.4510 N   0  0  0  0  0  0  0  0  0  0  0  0
   60.6180   29.9250   48.1080 C   0  0  0  0  0  0  0  0  0  0  0  0
   61.5140   30.2070   48.8930 O   0  0  0  0  0  0  0  0  0  0  0  0
   60.2640   28.4740   47.8960 C   0  0  0  0  0  0  0  0  0  0  0  0
   60.0840   28.1390   46.4090 C   0  0  0  0  0  0  0  0  0  0  0  0
   58.6570   28.0360   46.0510 N   0  0  0  0  0  0  0  0  0  0  0  0
   57.8640   26.9560   46.5910 C   0  0  0  0  0  0  0  0  0  0  0  0
   58.3160   26.2160   47.5060 O   0  0  0  0  0  0  0  0  0  0  0  0
   56.5140   26.6560   46.0130 C   0  0  0  0  0  0  0  0  0  0  0  0
   55.8950   27.8390   45.5180 O   0  0  0  0  0  0  0  0  0  0  0  0
   56.6250   28.8750   44.9320 C   0  0  0  0  0  0  0  0  0  0  0  0
   55.9600   29.8130   44.1350 C   0  0  0  0  0  0  0  0  0  0  0  0
   56.6690   30.8530   43.5340 C   0  0  0  0  0  0  0  0  0  0  0  0
   58.0450   30.9660   43.7370 C   0  0  0  0  0  0  0  0  0  0  0  0
   58.7160   30.0450   44.5460 C   0  0  0  0  0  0  0  0  0  0  0  0
   58.0130   28.9840   45.1600 C   0  0  0  0  0  0  0  0  0  0  0  0
   58.9440   31.6080   48.4280 C   0  0  0  0  0  0  0  0  0  0  0  0
   58.5040   32.9970   47.9500 C   0  0  0  0  0  0  0  0  0  0  0  0
   57.2122   33.7521   44.0499 H   0  0  0  0  0  0  0  0  0  0  0  0
   60.3510   35.3547   46.4495 H   0  0  0  0  0  0  0  0  0  0  0  0
   58.8725   35.8288   47.3733 H   0  0  0  0  0  0  0  0  0  0  0  0
   61.5921   33.9296   47.0015 H   0  0  0  0  0  0  0  0  0  0  0  0
   61.3955   32.9803   48.5387 H   0  0  0  0  0  0  0  0  0  0  0  0
   60.3181   32.2040   45.7871 H   0  0  0  0  0  0  0  0  0  0  0  0
   61.7435   31.4791   46.6537 H   0  0  0  0  0  0  0  0  0  0  0  0
   59.2700   30.5360   46.7080 H   0  0  0  0  0  0  0  0  0  0  0  0
   61.0700   27.8479   48.3063 H   0  0  0  0  0  0  0  0  0  0  0  0
   59.3098   28.2782   48.4070 H   0  0  0  0  0  0  0  0  0  0  0  0
   60.5486   28.9319   45.8044 H   0  0  0  0  0  0  0  0  0  0  0  0
   60.5620   27.1681   46.2119 H   0  0  0  0  0  0  0  0  0  0  0  0
   56.6279   25.9376   45.1878 H   0  0  0  0  0  0  0  0  0  0  0  0
   55.8794   26.2349   46.8067 H   0  0  0  0  0  0  0  0  0  0  0  0
   54.8739   29.7300   43.9817 H   0  0  0  0  0  0  0  0  0  0  0  0
   56.1441   31.5833   42.9007 H   0  0  0  0  0  0  0  0  0  0  0  0
   58.6039   31.7835   43.2582 H   0  0  0  0  0  0  0  0  0  0  0  0
   59.7995   30.1467   44.7060 H   0  0  0  0  0  0  0  0  0  0  0  0
   58.0554   30.9712   48.5500 H   0  0  0  0  0  0  0  0  0  0  0  0
   59.4732   31.7182   49.3860 H   0  0  0  0  0  0  0  0  0  0  0  0
   58.0321   32.9009   46.9610 H   0  0  0  0  0  0  0  0  0  0  0  0
   57.7958   33.4050   48.6863 H   0  0  0  0  0  0  0  0  0  0  0  0
  1  2  3  0
  2  3  1  0
  3  4  1  0
  4  5  1  0
  5  6  1  0
  6  7  1  0
  7  8  1  0
  8  9  2  0
  8 10  1  0
 10 11  1  0
 11 12  1  0
 12 13  1  0
 13 14  2  0
 13 15  1  0
 15 16  1  0
 16 17  1  0
 17 18  2  0
 18 19  1  0
 19 20  2  0
 20 21  1  0
 21 22  2  0
  7 23  1  0
 23 24  1  0
 24  4  1  0
 22 12  1  0
 22 17  1  0
  1 25  1  0
  3 26  1  0
  3 27  1  0
  5 28  1  0
  5 29  1  0
  6 30  1  0
  6 31  1  0
  7 32  1  0
 10 33  1  0
 10 34  1  0
 11 35  1  0
 11 36  1  0
 15 37  1  0
 15 38  1  0
 18 39  1  0
 19 40  1  0
 20 41  1  0
 21 42  1  0
 23 43  1  0
 23 44  1  0
 24 45  1  0
 24 46  1  0
M  CHG  1   7   1
M  END
>  <UniqueID>  (6) 
6

>  <SMILES>  (6) 
C#CCN1CC[NH+](C(=O)CCN2C(=O)COc3ccccc32)CC1

>  <Energy>  (6) 
59.07984386762983

>  <Genealogy>  (6) 
C#CCN1CC[NH+](C(=O)CCN2C(=O)COc3ccccc32)CC1 (protonated)
C#CCN1CC[NH+](C(=O)CCN2C(=O)COc3ccccc32)CC1 (3D coordinates assigned)
C#CCN1CC[NH+](C(=O)CCN2C(=O)COc3ccccc32)CC1 (nonaromatic ring conformer: 59.07984386762983 kcal/mol)

>  <smiles>  (6) 
C#CCN1CCN(C(=O)CCN2C(=O)COc3ccccc32)CC1

>  <score_type>  (6) 
oracle

>  <origin>  (6) 
adg

>  <m_score__min__energy>  (6) 
-6.3899999999999997

>  <m_primary>  (6) 
energy

$$$$
6:0
     RDKit          3D

 53 54  0  0  0  0  0  0  0  0999 V2000
   58.3490   24.3400   46.8540 H   0  0  0  0  0  0  0  0  0  0  0  0
   58.9150   24.9460   46.2220 N   0  0  0  0  0  0  0  0  0  0  0  0
   58.7280   26.2190   46.0490 C   0  0  0  0  0  0  0  0  0  0  0  0
   59.8030   26.9840   45.7200 N   0  0  0  0  0  0  0  0  0  0  0  0
   59.7270   28.3320   45.5820 C   0  0  0  0  0  0  0  0  0  0  0  0
   60.6236   28.9058   45.3048 H   0  0  0  0  0  0  0  0  0  0  0  0
   58.5120   28.9950   45.7910 C   0  0  0  0  0  0  0  0  0  0  0  0
   58.4180   30.4700   45.6680 C   0  0  0  0  0  0  0  0  0  0  0  0
   59.4260   31.2740   46.2290 C   0  0  0  0  0  0  0  0  0  0  0  0
   60.2655   30.7992   46.7580 H   0  0  0  0  0  0  0  0  0  0  0  0
   59.3780   32.6670   46.1250 C   0  0  0  0  0  0  0  0  0  0  0  0
   60.4170   33.4130   46.7000 O   0  0  0  0  0  0  0  0  0  0  0  0
   60.2710   34.2440   47.8470 C   0  0  0  0  0  0  0  0  0  0  0  0
   60.3780   33.6352   48.7569 H   0  0  0  0  0  0  0  0  0  0  0  0
   61.0457   35.0248   47.8351 H   0  0  0  0  0  0  0  0  0  0  0  0
   59.2765   34.7140   47.8351 H   0  0  0  0  0  0  0  0  0  0  0  0
   58.3020   33.2680   45.4500 C   0  0  0  0  0  0  0  0  0  0  0  0
   58.2569   34.3632   45.3577 H   0  0  0  0  0  0  0  0  0  0  0  0
   57.2900   32.4820   44.8960 C   0  0  0  0  0  0  0  0  0  0  0  0
   56.4522   32.9638   44.3706 H   0  0  0  0  0  0  0  0  0  0  0  0
   57.3310   31.0790   45.0030 C   0  0  0  0  0  0  0  0  0  0  0  0
   56.3060   30.2700   44.4830 O   0  0  0  0  0  0  0  0  0  0  0  0
   56.3040   29.7080   43.1750 C   0  0  0  0  0  0  0  0  0  0  0  0
   56.3001   28.6104   43.2475 H   0  0  0  0  0  0  0  0  0  0  0  0
   55.4070   30.0429   42.6334 H   0  0  0  0  0  0  0  0  0  0  0  0
   57.2033   30.0365   42.6334 H   0  0  0  0  0  0  0  0  0  0  0  0
   57.3850   28.2350   46.1320 C   0  0  0  0  0  0  0  0  0  0  0  0
   56.4247   28.7396   46.3143 H   0  0  0  0  0  0  0  0  0  0  0  0
   57.4660   26.8370   46.2440 C   0  0  0  0  0  0  0  0  0  0  0  0
   56.2250   26.0800   46.5210 C   0  0  0  0  0  0  0  0  0  0  0  0
   55.1360   26.4610   46.0090 O   0  0  0  0  0  0  0  0  0  0  0  0
   56.2700   24.9160   47.2970 O   0  0  0  0  0  0  0  0  0  0  0  0
   56.3040   23.6020   46.7410 C   0  0  0  0  0  0  0  0  0  0  0  0
   57.1057   23.5466   45.9898 H   0  0  0  0  0  0  0  0  0  0  0  0
   56.4918   22.8774   47.5470 H   0  0  0  0  0  0  0  0  0  0  0  0
   54.9610   23.2700   46.0740 C   0  0  0  0  0  0  0  0  0  0  0  0
   54.8373   22.1770   46.0663 H   0  0  0  0  0  0  0  0  0  0  0  0
   54.1772   23.7754   46.6573 H   0  0  0  0  0  0  0  0  0  0  0  0
   54.8530   23.7630   44.6830 N   0  0  0  0  0  0  0  0  0  0  0  0
   55.9500   23.3300   43.7800 C   0  0  0  0  0  0  0  0  0  0  0  0
   56.5242   22.5447   44.2935 H   0  0  0  0  0  0  0  0  0  0  0  0
   55.4666   22.9847   42.8542 H   0  0  0  0  0  0  0  0  0  0  0  0
   56.9280   24.4400   43.3640 C   0  0  0  0  0  0  0  0  0  0  0  0
   57.3469   24.9155   44.2631 H   0  0  0  0  0  0  0  0  0  0  0  0
   57.7424   24.0058   42.7656 H   0  0  0  0  0  0  0  0  0  0  0  0
   56.3947   25.1933   42.7656 H   0  0  0  0  0  0  0  0  0  0  0  0
   53.4790   23.7280   44.1350 C   0  0  0  0  0  0  0  0  0  0  0  0
   53.3755   24.5133   43.3717 H   0  0  0  0  0  0  0  0  0  0  0  0
   53.3020   22.7367   43.6924 H   0  0  0  0  0  0  0  0  0  0  0  0
   52.4480   23.9620   45.2360 C   0  0  0  0  0  0  0  0  0  0  0  0
   52.9298   23.8526   46.2188 H   0  0  0  0  0  0  0  0  0  0  0  0
   52.0344   24.9769   45.1413 H   0  0  0  0  0  0  0  0  0  0  0  0
   51.6368   23.2251   45.1413 H   0  0  0  0  0  0  0  0  0  0  0  0
  1  2  1  0
  2  3  2  0
  3  4  1  0
  4  5  1  0
  5  6  1  0
  5  7  2  0
  7  8  1  0
  8  9  2  0
  9 10  1  0
  9 11  1  0
 11 12  1  0
 12 13  1  0
 13 14  1  0
 13 15  1  0
 13 16  1  0
 11 17  2  0
 17 18  1  0
 17 19  1  0
 19 20  1  0
 19 21  2  0
 21 22  1  0
 22 23  1  0
 23 24  1  0
 23 25  1  0
 23 26  1  0
  7 27  1  0
 27 28  1  0
 27 29  2  0
 29 30  1  0
 30 31  2  0
 30 32  1  0
 32 33  1  0
 33 34  1  0
 33 35  1  0
 33 36  1  0
 36 37  1  0
 36 38  1  0
 36 39  1  0
 39 40  1  0
 40 41  1  0
 40 42  1  0
 40 43  1  0
 43 44  1  0
 43 45  1  0
 43 46  1  0
 39 47  1  0
 47 48  1  0
 47 49  1  0
 47 50  1  0
 50 51  1  0
 50 52  1  0
 50 53  1  0
 29  3  1  0
 21  8  1  0
M  CHG  1   4  -1
M  END
>  <UniqueID>  (7) 
7

>  <SMILES>  (7) 
[H]/N=c1/[n-]cc(-c2cc(OC)ccc2OC)cc1C(=O)OCCN(CC)CC

>  <Energy>  (7) 
68.61358866182479

>  <Genealogy>  (7) 
CCN(CC)CCOC(=O)c1cc(-c2cc(OC)ccc2OC)c[n-]c1=N (protonated)
[H]/N=c1/[n-]cc(-c2cc(OC)ccc2OC)cc1C(=O)OCCN(CC)CC (cis-trans isomerization)
[H]/N=c1/[n-]cc(-c2cc(OC)ccc2OC)cc1C(=O)OCCN(CC)CC (3D coordinates assigned)
[H]/N=c1/[n-]cc(-c2cc(OC)ccc2OC)cc1C(=O)OCCN(CC)CC (optimized conformer: 68.61358866182479 kcal/mol)

>  <smiles>  (7) 
CCN(CC)CCOC(=O)c1cc(-c2cc(OC)ccc2OC)c[nH]c1=N

>  <score_type>  (7) 
oracle

>  <origin>  (7) 
adg

>  <m_score__min__energy>  (7) 
-8.3000000000000007

>  <m_primary>  (7) 
energy

$$$$
7:0
     RDKit          3D

 38 39  0  0  0  0  0  0  0  0999 V2000
   56.1100   29.7280   43.3980 C   0  0  0  0  0  0  0  0  0  0  0  0
   56.3820   30.0220   44.7640 O   0  0  0  0  0  0  0  0  0  0  0  0
   57.3880   30.8960   45.2030 C   0  0  0  0  0  0  0  0  0  0  0  0
   58.4600   30.3610   45.9220 C   0  0  0  0  0  0  0  0  0  0  0  0
   59.5020   31.1790   46.3910 C   0  0  0  0  0  0  0  0  0  0  0  0
   60.5900   30.5930   47.1250 N   0  0  0  0  0  0  0  0  0  0  0  0
   60.6900   30.6700   48.5830 C   0  0  0  0  0  0  0  0  0  0  0  0
   62.0340   31.2780   49.0090 C   0  0  0  0  0  0  0  0  0  0  0  0
   62.4190   32.3990   48.1220 N   0  0  0  0  0  0  0  0  0  0  0  0
   63.4500   31.9710   47.1640 C   0  0  0  0  0  0  0  0  0  0  0  0
   62.9100   33.5490   48.9000 C   0  0  0  0  0  0  0  0  0  0  0  0
   59.4640   32.5690   46.1370 C   0  0  0  0  0  0  0  0  0  0  0  0
   60.4340   33.4090   46.6160 N   0  0  0  0  0  0  0  0  0  0  0  0
   60.3980   34.7480   46.3830 C   0  0  0  0  0  0  0  0  0  0  0  0
   59.3550   35.3110   45.6490 C   0  0  0  0  0  0  0  0  0  0  0  0
   58.3410   34.4890   45.1610 C   0  0  0  0  0  0  0  0  0  0  0  0
   58.3800   33.1100   45.4040 C   0  0  0  0  0  0  0  0  0  0  0  0
   57.3530   32.2760   44.9410 C   0  0  0  0  0  0  0  0  0  0  0  0
   55.3641   28.9218   43.3379 H   0  0  0  0  0  0  0  0  0  0  0  0
   55.7186   30.6275   42.9002 H   0  0  0  0  0  0  0  0  0  0  0  0
   57.0371   29.4076   42.9002 H   0  0  0  0  0  0  0  0  0  0  0  0
   58.4888   29.2802   46.1245 H   0  0  0  0  0  0  0  0  0  0  0  0
   61.3670   30.1360   46.5990 H   0  0  0  0  0  0  0  0  0  0  0  0
   59.8727   31.2980   48.9673 H   0  0  0  0  0  0  0  0  0  0  0  0
   60.6187   29.6523   48.9943 H   0  0  0  0  0  0  0  0  0  0  0  0
   61.9488   31.6497   50.0408 H   0  0  0  0  0  0  0  0  0  0  0  0
   62.8067   30.4981   48.9405 H   0  0  0  0  0  0  0  0  0  0  0  0
   64.3308   31.6054   47.7122 H   0  0  0  0  0  0  0  0  0  0  0  0
   63.0507   31.1643   46.5317 H   0  0  0  0  0  0  0  0  0  0  0  0
   63.7394   32.8233   46.5317 H   0  0  0  0  0  0  0  0  0  0  0  0
   62.8171   33.3314   49.9743 H   0  0  0  0  0  0  0  0  0  0  0  0
   63.9658   33.7346   48.6534 H   0  0  0  0  0  0  0  0  0  0  0  0
   62.3138   34.4399   48.6534 H   0  0  0  0  0  0  0  0  0  0  0  0
   61.2280   33.0440   47.1880 H   0  0  0  0  0  0  0  0  0  0  0  0
   61.1981   35.3921   46.7767 H   0  0  0  0  0  0  0  0  0  0  0  0
   59.3326   36.3939   45.4569 H   0  0  0  0  0  0  0  0  0  0  0  0
   57.5103   34.9229   44.5852 H   0  0  0  0  0  0  0  0  0  0  0  0
   56.5158   32.7038   44.3699 H   0  0  0  0  0  0  0  0  0  0  0  0
  1  2  1  0
  2  3  1  0
  3  4  2  0
  4  5  1  0
  5  6  1  0
  6  7  1  0
  7  8  1  0
  8  9  1  0
  9 10  1  0
  9 11  1  0
  5 12  2  0
 12 13  1  0
 13 14  2  0
 14 15  1  0
 15 16  2  0
 16 17  1  0
 17 18  2  0
 18  3  1  0
 17 12  1  0
  1 19  1  0
  1 20  1  0
  1 21  1  0
  4 22  1  0
  6 23  1  0
  7 24  1  0
  7 25  1  0
  8 26  1  0
  8 27  1  0
 10 28  1  0
 10 29  1  0
 10 30  1  0
 11 31  1  0
 11 32  1  0
 11 33  1  0
 13 34  1  0
 14 35  1  0
 15 36  1  0
 16 37  1  0
 18 38  1  0
M  CHG  1  13   1
M  END
>  <UniqueID>  (8) 
8

>  <SMILES>  (8) 
COc1cc(NCCN(C)C)c2[nH+]cccc2c1

>  <Energy>  (8) 
41.576045397818866

>  <Genealogy>  (8) 
COc1cc(NCCN(C)C)c2[nH+]cccc2c1 (protonated)
COc1cc(NCCN(C)C)c2[nH+]cccc2c1 (3D coordinates assigned)
COc1cc(NCCN(C)C)c2[nH+]cccc2c1 (optimized conformer: 41.576045397818866 kcal/mol)

>  <smiles>  (8) 
COc1cc(NCCN(C)C)c2ncccc2c1

>  <score_type>  (8) 
oracle

>  <origin>  (8) 
adg

>  <m_score__min__energy>  (8) 
-3.8999999999999999

>  <m_primary>  (8) 
energy

$$$$
8:0
     RDKit          3D

 43 45  0  0  0  0  0  0  0  0999 V2000
   61.0200   30.6110   47.4820 C   0  0  0  0  0  0  0  0  0  0  0  0
   59.5070   30.6470   47.7300 C   0  0  0  0  0  0  0  0  0  0  0  0
   58.8670   31.7970   47.0500 N   0  0  0  0  0  0  0  0  0  0  0  0
   58.9050   32.9990   47.7330 C   0  0  0  0  0  0  0  0  0  0  0  0
   59.3210   33.0590   48.9240 O   0  0  0  0  0  0  0  0  0  0  0  0
   58.5190   34.1890   47.1280 C   0  0  0  0  0  0  0  0  0  0  0  0
   58.1490   34.1940   45.8000 C   0  0  0  0  0  0  0  0  0  0  0  0
   58.1000   33.0010   45.0860 C   0  0  0  0  0  0  0  0  0  0  0  0
   57.7680   33.0530   43.7270 C   0  0  0  0  0  0  0  0  0  0  0  0
   57.6900   31.8930   42.9790 C   0  0  0  0  0  0  0  0  0  0  0  0
   57.8790   30.6630   43.5880 C   0  0  0  0  0  0  0  0  0  0  0  0
   58.1890   30.5570   44.9590 C   0  0  0  0  0  0  0  0  0  0  0  0
   58.0620   29.1790   45.5010 C   0  0  0  0  0  0  0  0  0  0  0  0
   56.8430   28.6260   45.5650 C   0  0  0  0  0  0  0  0  0  0  0  0
   56.6610   27.1930   45.8430 C   0  0  0  0  0  0  0  0  0  0  0  0
   55.4990   26.7320   45.9980 O   0  0  0  0  0  0  0  0  0  0  0  0
   57.8400   26.2650   45.8610 C   0  0  0  0  0  0  0  0  0  0  0  0
   59.1200   26.9800   46.3580 C   0  0  0  0  0  0  0  0  0  0  0  0
   59.0260   27.2420   47.8750 C   0  0  0  0  0  0  0  0  0  0  0  0
   60.3390   26.0700   46.1010 C   0  0  0  0  0  0  0  0  0  0  0  0
   59.3110   28.3130   45.5780 C   0  0  0  0  0  0  0  0  0  0  0  0
   58.3900   31.7580   45.7370 C   0  0  0  0  0  0  0  0  0  0  0  0
   61.5494   30.5984   48.4461 H   0  0  0  0  0  0  0  0  0  0  0  0
   61.2765   29.7065   46.9110 H   0  0  0  0  0  0  0  0  0  0  0  0
   61.3193   31.5023   46.9110 H   0  0  0  0  0  0  0  0  0  0  0  0
   59.0614   29.7156   47.3506 H   0  0  0  0  0  0  0  0  0  0  0  0
   59.3395   30.7522   48.8121 H   0  0  0  0  0  0  0  0  0  0  0  0
   58.5087   35.1242   47.7070 H   0  0  0  0  0  0  0  0  0  0  0  0
   57.8923   35.1420   45.3046 H   0  0  0  0  0  0  0  0  0  0  0  0
   57.5677   34.0241   43.2508 H   0  0  0  0  0  0  0  0  0  0  0  0
   57.4780   31.9465   41.9010 H   0  0  0  0  0  0  0  0  0  0  0  0
   57.7848   29.7466   42.9869 H   0  0  0  0  0  0  0  0  0  0  0  0
   55.9574   29.2587   45.4059 H   0  0  0  0  0  0  0  0  0  0  0  0
   57.6197   25.4208   46.5309 H   0  0  0  0  0  0  0  0  0  0  0  0
   58.0182   25.9149   44.8335 H   0  0  0  0  0  0  0  0  0  0  0  0
   59.3481   26.3441   48.4228 H   0  0  0  0  0  0  0  0  0  0  0  0
   59.6768   28.0877   48.1421 H   0  0  0  0  0  0  0  0  0  0  0  0
   57.9860   27.4811   48.1421 H   0  0  0  0  0  0  0  0  0  0  0  0
   60.7672   25.7504   47.0625 H   0  0  0  0  0  0  0  0  0  0  0  0
   60.0222   25.1857   45.5286 H   0  0  0  0  0  0  0  0  0  0  0  0
   61.0968   26.6251   45.5286 H   0  0  0  0  0  0  0  0  0  0  0  0
   60.1020   28.8930   46.0759 H   0  0  0  0  0  0  0  0  0  0  0  0
   59.5678   28.0386   44.5442 H   0  0  0  0  0  0  0  0  0  0  0  0
  1  2  1  0
  2  3  1  0
  3  4  1  0
  4  5  2  0
  4  6  1  0
  6  7  2  0
  7  8  1  0
  8  9  2  0
  9 10  1  0
 10 11  2  0
 11 12  1  0
 12 13  1  0
 13 14  2  0
 14 15  1  0
 15 16  2  0
 15 17  1  0
 17 18  1  0
 18 19  1  0
 18 20  1  0
 18 21  1  0
 12 22  2  0
 22  3  1  0
 22  8  1  0
 21 13  1  0
  1 23  1  0
  1 24  1  0
  1 25  1  0
  2 26  1  0
  2 27  1  0
  6 28  1  0
  7 29  1  0
  9 30  1  0
 10 31  1  0
 11 32  1  0
 14 33  1  0
 17 34  1  0
 17 35  1  0
 19 36  1  0
 19 37  1  0
 19 38  1  0
 20 39  1  0
 20 40  1  0
 20 41  1  0
 21 42  1  0
 21 43  1  0
M  END
>  <UniqueID>  (9) 
9

>  <SMILES>  (9) 
CCn1c(=O)ccc2cccc(C3=CC(=O)CC(C)(C)C3)c21

>  <Energy>  (9) 
70.29009749801905

>  <Genealogy>  (9) 
CCn1c(=O)ccc2cccc(C3=CC(=O)CC(C)(C)C3)c21 (3D coordinates assigned)
CCn1c(=O)ccc2cccc(C3=CC(=O)CC(C)(C)C3)c21 (nonaromatic ring conformer: 70.29009749801905 kcal/mol)

>  <smiles>  (9) 
CCn1c(=O)ccc2cccc(C3=CC(=O)CC(C)(C)C3)c21

>  <score_type>  (9) 
oracle

>  <origin>  (9) 
adg

>  <m_score__min__energy>  (9) 
-8.1699999999999999

>  <m_primary>  (9) 
energy

$$$$
9:0
     RDKit          3D

 50 53  0  0  0  0  0  0  0  0999 V2000
   63.3320   30.2120   51.0290 C   0  0  0  0  0  0  0  0  0  0  0  0
   63.2440   31.4370   50.1550 C   0  0  0  0  0  0  0  0  0  0  0  0
   64.3360   32.3210   50.1170 C   0  0  0  0  0  0  0  0  0  0  0  0
   64.2950   33.4680   49.3260 C   0  0  0  0  0  0  0  0  0  0  0  0
   63.1620   33.7530   48.5660 C   0  0  0  0  0  0  0  0  0  0  0  0
   62.0640   32.8830   48.5750 C   0  0  0  0  0  0  0  0  0  0  0  0
   60.9010   33.2310   47.8100 N   0  0  0  0  0  0  0  0  0  0  0  0
   60.8710   32.9540   46.3720 C   0  0  0  0  0  0  0  0  0  0  0  0
   59.9680   33.9750   45.6720 C   0  0  0  0  0  0  0  0  0  0  0  0
   58.6130   34.0720   46.2770 N   0  0  0  0  0  0  0  0  0  0  0  0
   57.5250   33.6880   45.3510 C   0  0  0  0  0  0  0  0  0  0  0  0
   57.3700   32.1980   45.2230 C   0  0  0  0  0  0  0  0  0  0  0  0
   56.2790   31.5910   44.7180 N   0  0  0  0  0  0  0  0  0  0  0  0
   56.5090   30.2900   44.7970 N   0  0  0  0  0  0  0  0  0  0  0  0
   57.7330   30.1530   45.3470 C   0  0  0  0  0  0  0  0  0  0  0  0
   58.3840   28.8580   45.6250 C   0  0  0  0  0  0  0  0  0  0  0  0
   59.7820   28.7860   45.7580 C   0  0  0  0  0  0  0  0  0  0  0  0
   60.4030   27.5630   46.0320 C   0  0  0  0  0  0  0  0  0  0  0  0
   59.6350   26.4040   46.1770 C   0  0  0  0  0  0  0  0  0  0  0  0
   58.2440   26.4650   46.0430 C   0  0  0  0  0  0  0  0  0  0  0  0
   57.6190   27.6860   45.7690 C   0  0  0  0  0  0  0  0  0  0  0  0
   58.2660   31.3220   45.6090 O   0  0  0  0  0  0  0  0  0  0  0  0
   58.4570   33.4560   47.6150 C   0  0  0  0  0  0  0  0  0  0  0  0
   59.6890   33.6910   48.4940 C   0  0  0  0  0  0  0  0  0  0  0  0
   62.1050   31.6970   49.3480 C   0  0  0  0  0  0  0  0  0  0  0  0
   60.9230   30.7540   49.3530 C   0  0  0  0  0  0  0  0  0  0  0  0
   63.3103   30.5138   52.0866 H   0  0  0  0  0  0  0  0  0  0  0  0
   62.4791   29.5498   50.8191 H   0  0  0  0  0  0  0  0  0  0  0  0
   64.2708   29.6785   50.8191 H   0  0  0  0  0  0  0  0  0  0  0  0
   65.2321   32.1055   50.7175 H   0  0  0  0  0  0  0  0  0  0  0  0
   65.1583   34.1493   49.3016 H   0  0  0  0  0  0  0  0  0  0  0  0
   63.1297   34.6672   47.9550 H   0  0  0  0  0  0  0  0  0  0  0  0
   61.8899   33.0256   45.9638 H   0  0  0  0  0  0  0  0  0  0  0  0
   60.4775   31.9408   46.2027 H   0  0  0  0  0  0  0  0  0  0  0  0
   60.4479   34.9631   45.7294 H   0  0  0  0  0  0  0  0  0  0  0  0
   59.8382   33.6378   44.6330 H   0  0  0  0  0  0  0  0  0  0  0  0
   56.5800   34.1092   45.7246 H   0  0  0  0  0  0  0  0  0  0  0  0
   57.7812   34.0818   44.3564 H   0  0  0  0  0  0  0  0  0  0  0  0
   60.3901   29.6958   45.6460 H   0  0  0  0  0  0  0  0  0  0  0  0
   61.4972   27.5131   46.1335 H   0  0  0  0  0  0  0  0  0  0  0  0
   60.1247   25.4438   46.3965 H   0  0  0  0  0  0  0  0  0  0  0  0
   57.6409   25.5517   46.1532 H   0  0  0  0  0  0  0  0  0  0  0  0
   56.5248   27.7301   45.6657 H   0  0  0  0  0  0  0  0  0  0  0  0
   57.5776   33.8948   48.1091 H   0  0  0  0  0  0  0  0  0  0  0  0
   58.3334   32.3712   47.4808 H   0  0  0  0  0  0  0  0  0  0  0  0
   59.7805   34.7658   48.7097 H   0  0  0  0  0  0  0  0  0  0  0  0
   59.5719   33.1258   49.4304 H   0  0  0  0  0  0  0  0  0  0  0  0
   60.6391   30.5275   50.3913 H   0  0  0  0  0  0  0  0  0  0  0  0
   60.0749   31.2263   48.8357 H   0  0  0  0  0  0  0  0  0  0  0  0
   61.1952   29.8222   48.8357 H   0  0  0  0  0  0  0  0  0  0  0  0
  1  2  1  0
  2  3  2  0
  3  4  1  0
  4  5  2  0
  5  6  1  0
  6  7  1  0
  7  8  1  0
  8  9  1  0
  9 10  1  0
 10 11  1  0
 11 12  1  0
 12 13  2  0
 13 14  1  0
 14 15  2  0
 15 16  1  0
 16 17  2  0
 17 18  1  0
 18 19  2  0
 19 20  1  0
 20 21  2  0
 15 22  1  0
 10 23  1  0
 23 24  1  0
  6 25  2  0
 25 26  1  0
 25  2  1  0
 24  7  1  0
 22 12  1  0
 21 16  1  0
  1 27  1  0
  1 28  1  0
  1 29  1  0
  3 30  1  0
  4 31  1  0
  5 32  1  0
  8 33  1  0
  8 34  1  0
  9 35  1  0
  9 36  1  0
 11 37  1  0
 11 38  1  0
 17 39  1  0
 18 40  1  0
 19 41  1  0
 20 42  1  0
 21 43  1  0
 23 44  1  0
 23 45  1  0
 24 46  1  0
 24 47  1  0
 26 48  1  0
 26 49  1  0
 26 50  1  0
M  END
>  <UniqueID>  (10) 
10

>  <SMILES>  (10) 
Cc1cccc(N2CCN(Cc3nnc(-c4ccccc4)o3)CC2)c1C

>  <Energy>  (10) 
101.84945073923917

>  <Genealogy>  (10) 
Cc1cccc(N2CCN(Cc3nnc(-c4ccccc4)o3)CC2)c1C (3D coordinates assigned)
Cc1cccc(N2CCN(Cc3nnc(-c4ccccc4)o3)CC2)c1C (nonaromatic ring conformer: 101.84945073923917 kcal/mol)

>  <smiles>  (10) 
Cc1cccc(N2CCN(Cc3nnc(-c4ccccc4)o3)CC2)c1C

>  <score_type>  (10) 
oracle

>  <origin>  (10) 
adg

>  <m_score__min__energy>  (10) 
-8.4399999999999995

>  <m_primary>  (10) 
energy

$$$$
10:0
     RDKit          3D

 62 66  0  0  0  0  0  0  0  0999 V2000
   56.6100   30.0520   42.9630 C   0  0  0  0  0  0  0  0  0  0  0  0
   55.4780   29.7320   43.9270 C   0  0  0  0  0  0  0  0  0  0  0  0
   56.0330   29.4240   45.2370 N   0  0  0  0  0  0  0  0  0  0  0  0
   56.6870   28.1920   45.5530 C   0  0  0  0  0  0  0  0  0  0  0  0
   56.0110   27.1710   45.8570 O   0  0  0  0  0  0  0  0  0  0  0  0
   58.1850   28.1140   45.5270 C   0  0  0  0  0  0  0  0  0  0  0  0
   58.7800   29.1920   46.3410 N   0  0  0  0  0  0  0  0  0  0  0  0
   59.3310   28.7420   47.6410 C   0  0  0  0  0  0  0  0  0  0  0  0
   59.5970   29.9000   48.5690 C   0  0  0  0  0  0  0  0  0  0  0  0
   60.8310   30.5680   48.5400 C   0  0  0  0  0  0  0  0  0  0  0  0
   61.0620   31.6630   49.3780 C   0  0  0  0  0  0  0  0  0  0  0  0
   60.0640   32.1040   50.2570 C   0  0  0  0  0  0  0  0  0  0  0  0
   60.2860   33.2010   51.1030 C   0  0  0  0  0  0  0  0  0  0  0  0
   59.2800   33.6320   51.9730 C   0  0  0  0  0  0  0  0  0  0  0  0
   58.0460   32.9760   52.0010 C   0  0  0  0  0  0  0  0  0  0  0  0
   57.8080   31.8860   51.1600 C   0  0  0  0  0  0  0  0  0  0  0  0
   58.8120   31.4390   50.2850 C   0  0  0  0  0  0  0  0  0  0  0  0
   58.5880   30.3420   49.4390 C   0  0  0  0  0  0  0  0  0  0  0  0
   59.5010   30.2870   45.6290 C   0  0  0  0  0  0  0  0  0  0  0  0
   59.0380   31.7850   45.8230 C   0  0  2  0  0  0  0  0  0  0  0  0
   58.5080   32.2910   44.4420 C   0  0  0  0  0  0  0  0  0  0  0  0
   58.0700   33.7690   44.5160 C   0  0  1  0  0  0  0  0  0  0  0  0
   56.9470   33.9190   45.5620 C   0  0  0  0  0  0  0  0  0  0  0  0
   57.4680   33.4560   46.9380 C   0  0  2  0  0  0  0  0  0  0  0  0
   58.6750   34.3230   47.3510 C   0  0  0  0  0  0  0  0  0  0  0  0
   59.7950   34.1820   46.2980 C   0  0  2  0  0  0  0  0  0  0  0  0
   59.2740   34.6410   44.9220 C   0  0  0  0  0  0  0  0  0  0  0  0
   60.2370   32.7050   46.2160 C   0  0  0  0  0  0  0  0  0  0  0  0
   57.8930   31.9720   46.8570 C   0  0  0  0  0  0  0  0  0  0  0  0
   57.5155   30.3080   43.5328 H   0  0  0  0  0  0  0  0  0  0  0  0
   56.8110   29.1755   42.3295 H   0  0  0  0  0  0  0  0  0  0  0  0
   56.3223   30.9040   42.3295 H   0  0  0  0  0  0  0  0  0  0  0  0
   54.8074   30.6002   44.0071 H   0  0  0  0  0  0  0  0  0  0  0  0
   54.9111   28.8660   43.5546 H   0  0  0  0  0  0  0  0  0  0  0  0
   58.5025   27.1408   45.9297 H   0  0  0  0  0  0  0  0  0  0  0  0
   58.5261   28.2278   44.4874 H   0  0  0  0  0  0  0  0  0  0  0  0
   58.6088   28.0628   48.1176 H   0  0  0  0  0  0  0  0  0  0  0  0
   60.2867   28.2324   47.4486 H   0  0  0  0  0  0  0  0  0  0  0  0
   61.6209   30.2281   47.8540 H   0  0  0  0  0  0  0  0  0  0  0  0
   62.0320   32.1808   49.3471 H   0  0  0  0  0  0  0  0  0  0  0  0
   61.2539   33.7232   51.0817 H   0  0  0  0  0  0  0  0  0  0  0  0
   59.4601   34.4899   52.6375 H   0  0  0  0  0  0  0  0  0  0  0  0
   57.2588   33.3195   52.6882 H   0  0  0  0  0  0  0  0  0  0  0  0
   56.8331   31.3771   51.1831 H   0  0  0  0  0  0  0  0  0  0  0  0
   57.6168   29.8259   49.4577 H   0  0  0  0  0  0  0  0  0  0  0  0
   60.5531   30.2348   45.9459 H   0  0  0  0  0  0  0  0  0  0  0  0
   59.2860   30.0879   44.5688 H   0  0  0  0  0  0  0  0  0  0  0  0
   59.3076   32.1914   43.6932 H   0  0  0  0  0  0  0  0  0  0  0  0
   57.6344   31.6839   44.1621 H   0  0  0  0  0  0  0  0  0  0  0  0
   57.6994   34.0931   43.5324 H   0  0  0  0  0  0  0  0  0  0  0  0
   56.6384   34.9732   45.6215 H   0  0  0  0  0  0  0  0  0  0  0  0
   56.0844   33.3031   45.2679 H   0  0  0  0  0  0  0  0  0  0  0  0
   56.6705   33.5643   47.6879 H   0  0  0  0  0  0  0  0  0  0  0  0
   58.3644   35.3762   47.4169 H   0  0  0  0  0  0  0  0  0  0  0  0
   59.0484   33.9885   48.3301 H   0  0  0  0  0  0  0  0  0  0  0  0
   60.6518   34.8076   46.5888 H   0  0  0  0  0  0  0  0  0  0  0  0
   58.9619   35.6942   44.9800 H   0  0  0  0  0  0  0  0  0  0  0  0
   60.0727   34.5380   44.1727 H   0  0  0  0  0  0  0  0  0  0  0  0
   61.0288   32.6077   45.4587 H   0  0  0  0  0  0  0  0  0  0  0  0
   60.6091   32.3944   47.2035 H   0  0  0  0  0  0  0  0  0  0  0  0
   58.2423   31.6418   47.8464 H   0  0  0  0  0  0  0  0  0  0  0  0
   57.0272   31.3727   46.5387 H   0  0  0  0  0  0  0  0  0  0  0  0
  1  2  1  0
  2  3  1  0
  3  4  1  0
  4  5  2  0
  4  6  1  0
  6  7  1  0
  7  8  1  0
  8  9  1  0
  9 10  2  0
 10 11  1  0
 11 12  2  0
 12 13  1  0
 13 14  2  0
 14 15  1  0
 15 16  2  0
 16 17  1  0
 17 18  2  0
  7 19  1  0
 20 19  1  6
 20 21  1  0
 21 22  1  0
 22 23  1  0
 23 24  1  0
 24 25  1  0
 25 26  1  0
 26 27  1  0
 26 28  1  0
 24 29  1  0
 18  9  1  0
 28 20  1  0
 17 12  1  0
 29 20  1  0
 27 22  1  0
  1 30  1  0
  1 31  1  0
  1 32  1  0
  2 33  1  0
  2 34  1  0
  6 35  1  0
  6 36  1  0
  8 37  1  0
  8 38  1  0
 10 39  1  0
 11 40  1  0
 13 41  1  0
 14 42  1  0
 15 43  1  0
 16 44  1  0
 18 45  1  0
 19 46  1  0
 19 47  1  0
 21 48  1  0
 21 49  1  0
 22 50  1  6
 23 51  1  0
 23 52  1  0
 24 53  1  1
 25 54  1  0
 25 55  1  0
 26 56  1  1
 27 57  1  0
 27 58  1  0
 28 59  1  0
 28 60  1  0
 29 61  1  0
 29 62  1  0
M  CHG  1   3  -1
M  END
>  <UniqueID>  (11) 
11

>  <SMILES>  (11) 
CC[N-]C(=O)CN(Cc1ccc2ccccc2c1)CC12CC3CC(CC(C3)C1)C2

>  <Energy>  (11) 
77.38908952524369

>  <Genealogy>  (11) 
CC[N-]C(=O)CN(Cc1ccc2ccccc2c1)CC12CC3CC(CC(C3)C1)C2 (protonated)
CC[N-]C(=O)CN(Cc1ccc2ccccc2c1)CC12CC3CC(CC(C3)C1)C2 (3D coordinates assigned)
CC[N-]C(=O)CN(Cc1ccc2ccccc2c1)CC12CC3CC(CC(C3)C1)C2 (nonaromatic ring conformer: 77.38908952524369 kcal/mol)

>  <smiles>  (11) 
CCNC(=O)CN(Cc1ccc2ccccc2c1)CC12CC3CC(CC(C3)C1)C2

>  <score_type>  (11) 
oracle

>  <origin>  (11) 
adg

>  <m_score__min__energy>  (11) 
-11.49

>  <m_primary>  (11) 
energy

$$$$
11:0
     RDKit          3D

 35 36  0  0  0  0  0  0  0  0999 V2000
   58.3120   26.1310   44.5570 C   0  0  0  0  0  0  0  0  0  0  0  0
   58.3630   25.3660   45.8160 N   0  0  0  0  0  0  0  0  0  0  0  0
   57.0460   25.3240   46.4850 C   0  0  0  0  0  0  0  0  0  0  0  0
   56.3530   26.6430   46.3540 C   0  0  0  0  0  0  0  0  0  0  0  0
   55.1460   26.6800   45.9910 O   0  0  0  0  0  0  0  0  0  0  0  0
   57.0960   27.8510   46.5580 N   0  0  0  0  0  0  0  0  0  0  0  0
   57.2350   28.9360   45.6280 C   0  0  0  0  0  0  0  0  0  0  0  0
   58.0540   30.0180   45.9770 C   0  0  0  0  0  0  0  0  0  0  0  0
   58.2010   31.1040   45.1080 C   0  0  0  0  0  0  0  0  0  0  0  0
   57.5180   31.1230   43.8890 C   0  0  0  0  0  0  0  0  0  0  0  0
   56.6770   30.0600   43.5430 C   0  0  0  0  0  0  0  0  0  0  0  0
   55.9980   30.0910   42.3710 F   0  0  0  0  0  0  0  0  0  0  0  0
   56.5290   28.9720   44.4110 C   0  0  0  0  0  0  0  0  0  0  0  0
   58.9390   24.0170   45.6190 C   0  0  0  0  0  0  0  0  0  0  0  0
   58.1230   23.1420   44.6970 C   0  0  0  0  0  0  0  0  0  0  0  0
   58.3670   21.7650   44.6000 C   0  0  0  0  0  0  0  0  0  0  0  0
   57.6250   21.0090   43.7470 N   0  0  0  0  0  0  0  0  0  0  0  0
   56.6480   21.5690   42.9850 C   0  0  0  0  0  0  0  0  0  0  0  0
   56.3990   22.9390   43.0820 C   0  0  0  0  0  0  0  0  0  0  0  0
   57.1420   23.6940   43.9330 N   0  0  0  0  0  0  0  0  0  0  0  0
   58.2404   27.2051   44.7832 H   0  0  0  0  0  0  0  0  0  0  0  0
   59.2249   25.9391   43.9741 H   0  0  0  0  0  0  0  0  0  0  0  0
   57.4326   25.8196   43.9741 H   0  0  0  0  0  0  0  0  0  0  0  0
   56.4279   24.5419   46.0199 H   0  0  0  0  0  0  0  0  0  0  0  0
   57.1945   25.1031   47.5523 H   0  0  0  0  0  0  0  0  0  0  0  0
   58.5847   30.0133   46.9405 H   0  0  0  0  0  0  0  0  0  0  0  0
   58.8550   31.9442   45.3844 H   0  0  0  0  0  0  0  0  0  0  0  0
   57.6416   31.9732   43.2020 H   0  0  0  0  0  0  0  0  0  0  0  0
   55.8588   28.1425   44.1412 H   0  0  0  0  0  0  0  0  0  0  0  0
   59.9468   24.1277   45.1923 H   0  0  0  0  0  0  0  0  0  0  0  0
   58.9540   23.5249   46.6027 H   0  0  0  0  0  0  0  0  0  0  0  0
   59.1543   21.2985   45.2104 H   0  0  0  0  0  0  0  0  0  0  0  0
   57.8060   19.9830   43.6780 H   0  0  0  0  0  0  0  0  0  0  0  0
   56.0577   20.9464   42.2966 H   0  0  0  0  0  0  0  0  0  0  0  0
   55.6081   23.4034   42.4747 H   0  0  0  0  0  0  0  0  0  0  0  0
  1  2  1  0
  2  3  1  0
  3  4  1  0
  4  5  2  0
  4  6  1  0
  6  7  1  0
  7  8  2  0
  8  9  1  0
  9 10  2  0
 10 11  1  0
 11 12  1  0
 11 13  2  0
  2 14  1  0
 14 15  1  0
 15 16  2  0
 16 17  1  0
 17 18  2  0
 18 19  1  0
 19 20  2  0
 13  7  1  0
 20 15  1  0
  1 21  1  0
  1 22  1  0
  1 23  1  0
  3 24  1  0
  3 25  1  0
  8 26  1  0
  9 27  1  0
 10 28  1  0
 13 29  1  0
 14 30  1  0
 14 31  1  0
 16 32  1  0
 17 33  1  0
 18 34  1  0
 19 35  1  0
M  CHG  2   6  -1  17   1
M  END
>  <UniqueID>  (12) 
12

>  <SMILES>  (12) 
CN(CC(=O)[N-]c1cccc(F)c1)Cc1c[nH+]ccn1

>  <Energy>  (12) 
41.44411347403842

>  <Genealogy>  (12) 
CN(CC(=O)[N-]c1cccc(F)c1)Cc1c[nH+]ccn1 (protonated)
CN(CC(=O)[N-]c1cccc(F)c1)Cc1c[nH+]ccn1 (3D coordinates assigned)
CN(CC(=O)[N-]c1cccc(F)c1)Cc1c[nH+]ccn1 (optimized conformer: 41.44411347403842 kcal/mol)

>  <smiles>  (12) 
CN(CC(=O)Nc1cccc(F)c1)Cc1cnccn1

>  <score_type>  (12) 
oracle

>  <origin>  (12) 
adg

>  <m_score__min__energy>  (12) 
-7.4900000000000002

>  <m_primary>  (12) 
energy

$$$$
12:0
     RDKit          3D

 51 53  0  0  0  0  0  0  0  0999 V2000
   58.0500   32.3040   41.9070 C   0  0  0  0  0  0  0  0  0  0  0  0
   57.6160   31.6250   43.1990 C   0  0  0  0  0  0  0  0  0  0  0  0
   57.8920   32.4920   44.3410 N   0  0  0  0  0  0  0  0  0  0  0  0
   58.8790   33.4050   44.4240 C   0  0  0  0  0  0  0  0  0  0  0  0
   58.7560   34.0540   45.6370 C   0  0  0  0  0  0  0  0  0  0  0  0
   59.6390   35.1350   46.1810 C   0  0  0  0  0  0  0  0  0  0  0  0
   60.6670   34.5580   47.0720 N   0  0  0  0  0  0  0  0  0  0  0  0
   61.5040   33.5850   46.3320 C   0  0  0  0  0  0  0  0  0  0  0  0
   62.9460   33.4930   46.8680 C   0  0  0  0  0  0  0  0  0  0  0  0
   63.1880   34.2020   48.2160 C   0  0  0  0  0  0  0  0  0  0  0  0
   62.3780   33.6280   49.3050 N   0  0  0  0  0  0  0  0  0  0  0  0
   62.9090   32.5260   50.0750 C   0  0  0  0  0  0  0  0  0  0  0  0
   63.5060   32.7510   51.1630 O   0  0  0  0  0  0  0  0  0  0  0  0
   62.7500   31.0940   49.6320 C   0  0  0  0  0  0  0  0  0  0  0  0
   61.4610   30.8960   48.8780 C   0  0  0  0  0  0  0  0  0  0  0  0
   60.2260   30.9800   49.5430 C   0  0  0  0  0  0  0  0  0  0  0  0
   59.0310   30.8100   48.8360 C   0  0  0  0  0  0  0  0  0  0  0  0
   59.0590   30.5630   47.4620 C   0  0  0  0  0  0  0  0  0  0  0  0
   60.2820   30.4910   46.7890 C   0  0  0  0  0  0  0  0  0  0  0  0
   61.4790   30.6620   47.4920 C   0  0  0  0  0  0  0  0  0  0  0  0
   61.0100   34.1200   49.5650 C   0  0  0  0  0  0  0  0  0  0  0  0
   60.0740   34.0450   48.3370 C   0  0  0  0  0  0  0  0  0  0  0  0
   57.6550   33.4890   46.2540 C   0  0  0  0  0  0  0  0  0  0  0  0
   57.1500   32.5480   45.4350 N   0  0  0  0  0  0  0  0  0  0  0  0
   58.6284   33.2089   42.1447 H   0  0  0  0  0  0  0  0  0  0  0  0
   58.6743   31.6131   41.3215 H   0  0  0  0  0  0  0  0  0  0  0  0
   57.1608   32.5805   41.3215 H   0  0  0  0  0  0  0  0  0  0  0  0
   56.5372   31.4149   43.1545 H   0  0  0  0  0  0  0  0  0  0  0  0
   58.1766   30.6860   43.3172 H   0  0  0  0  0  0  0  0  0  0  0  0
   59.6470   33.5993   43.6608 H   0  0  0  0  0  0  0  0  0  0  0  0
   60.1325   35.6547   45.3465 H   0  0  0  0  0  0  0  0  0  0  0  0
   59.0244   35.8435   46.7557 H   0  0  0  0  0  0  0  0  0  0  0  0
   61.0378   32.5918   46.4107 H   0  0  0  0  0  0  0  0  0  0  0  0
   61.5643   33.9319   45.2899 H   0  0  0  0  0  0  0  0  0  0  0  0
   63.1963   32.4291   46.9925 H   0  0  0  0  0  0  0  0  0  0  0  0
   63.5805   34.0084   46.1319 H   0  0  0  0  0  0  0  0  0  0  0  0
   64.2519   34.1073   48.4791 H   0  0  0  0  0  0  0  0  0  0  0  0
   62.8945   35.2556   48.0987 H   0  0  0  0  0  0  0  0  0  0  0  0
   63.5928   30.8251   48.9783 H   0  0  0  0  0  0  0  0  0  0  0  0
   62.7321   30.4532   50.5259 H   0  0  0  0  0  0  0  0  0  0  0  0
   60.1988   31.1803   50.6243 H   0  0  0  0  0  0  0  0  0  0  0  0
   58.0676   30.8710   49.3634 H   0  0  0  0  0  0  0  0  0  0  0  0
   58.1182   30.4250   46.9090 H   0  0  0  0  0  0  0  0  0  0  0  0
   60.3031   30.2998   45.7060 H   0  0  0  0  0  0  0  0  0  0  0  0
   62.4393   30.6131   46.9577 H   0  0  0  0  0  0  0  0  0  0  0  0
   60.5717   33.5147   50.3722 H   0  0  0  0  0  0  0  0  0  0  0  0
   61.0985   35.1827   49.8348 H   0  0  0  0  0  0  0  0  0  0  0  0
   59.7948   32.9923   48.1825 H   0  0  0  0  0  0  0  0  0  0  0  0
   59.2133   34.6920   48.5619 H   0  0  0  0  0  0  0  0  0  0  0  0
   57.2600   33.7617   47.2437 H   0  0  0  0  0  0  0  0  0  0  0  0
   56.3070   31.9590   45.6190 H   0  0  0  0  0  0  0  0  0  0  0  0
  1  2  1  0
  2  3  1  0
  3  4  1  0
  4  5  2  0
  5  6  1  0
  6  7  1  0
  7  8  1  0
  8  9  1  0
  9 10  1  0
 10 11  1  0
 11 12  1  0
 12 13  2  0
 12 14  1  0
 14 15  1  0
 15 16  2  0
 16 17  1  0
 17 18  2  0
 18 19  1  0
 19 20  2  0
 11 21  1  0
 21 22  1  0
  5 23  1  0
 23 24  2  0
 24  3  1  0
 22  7  1  0
 20 15  1  0
  1 25  1  0
  1 26  1  0
  1 27  1  0
  2 28  1  0
  2 29  1  0
  4 30  1  0
  6 31  1  0
  6 32  1  0
  8 33  1  0
  8 34  1  0
  9 35  1  0
  9 36  1  0
 10 37  1  0
 10 38  1  0
 14 39  1  0
 14 40  1  0
 16 41  1  0
 17 42  1  0
 18 43  1  0
 19 44  1  0
 20 45  1  0
 21 46  1  0
 21 47  1  0
 22 48  1  0
 22 49  1  0
 23 50  1  0
 24 51  1  0
M  CHG  1  24   1
M  END
>  <UniqueID>  (13) 
13

>  <SMILES>  (13) 
CCn1cc(CN2CCCN(C(=O)Cc3ccccc3)CC2)c[nH+]1

>  <Energy>  (13) 
89.76876041888677

>  <Genealogy>  (13) 
CCn1cc(CN2CCCN(C(=O)Cc3ccccc3)CC2)c[nH+]1 (protonated)
CCn1cc(CN2CCCN(C(=O)Cc3ccccc3)CC2)c[nH+]1 (3D coordinates assigned)
CCn1cc(CN2CCCN(C(=O)Cc3ccccc3)CC2)c[nH+]1 (nonaromatic ring conformer: 89.76876041888677 kcal/mol)

>  <smiles>  (13) 
CCn1cc(CN2CCCN(C(=O)Cc3ccccc3)CC2)cn1

>  <score_type>  (13) 
oracle

>  <origin>  (13) 
adg

>  <m_score__min__energy>  (13) 
-4.8399999999999999

>  <m_primary>  (13) 
energy

$$$$
13:0
     RDKit          3D

 49 51  0  0  0  0  0  0  0  0999 V2000
   55.6120   30.0640   43.7350 C   0  0  0  0  0  0  0  0  0  0  0  0
   55.8080   29.3140   44.9130 O   0  0  0  0  0  0  0  0  0  0  0  0
   57.0070   28.5730   44.8050 C   0  0  0  0  0  0  0  0  0  0  0  0
   58.1820   29.5210   44.4910 C   0  0  0  0  0  0  0  0  0  0  0  0
   58.6180   30.3850   45.6190 N   0  0  0  0  0  0  0  0  0  0  0  0
   58.7260   29.6520   46.8950 C   0  0  0  0  0  0  0  0  0  0  0  0
   59.4830   30.4870   47.9520 C   0  0  0  0  0  0  0  0  0  0  0  0
   59.5230   31.9340   47.6310 N   0  0  0  0  0  0  0  0  0  0  0  0
   60.7020   32.2950   46.7990 C   0  0  0  0  0  0  0  0  0  0  0  0
   61.8170   32.7860   47.6770 C   0  0  0  0  0  0  0  0  0  0  0  0
   63.1720   32.6850   47.4140 C   0  0  0  0  0  0  0  0  0  0  0  0
   63.8670   33.2830   48.4010 N   0  0  0  0  0  0  0  0  0  0  0  0
   62.9980   33.7590   49.2780 N   0  0  0  0  0  0  0  0  0  0  0  0
   63.3910   34.4730   50.4880 C   0  0  0  0  0  0  0  0  0  0  0  0
   61.7410   33.4630   48.8830 C   0  0  0  0  0  0  0  0  0  0  0  0
   60.4900   33.8590   49.6110 C   0  0  0  0  0  0  0  0  0  0  0  0
   58.2060   32.3730   47.0960 C   0  0  1  0  0  0  0  0  0  0  0  0
   58.0940   33.9000   46.9420 C   0  0  0  0  0  0  0  0  0  0  0  0
   57.9780   34.2250   45.2110 S   0  0  0  0  0  0  0  0  0  0  0  0
   59.1330   35.0520   44.7240 O   0  0  0  0  0  0  0  0  0  0  0  0
   56.6720   34.8860   44.8670 O   0  0  0  0  0  0  0  0  0  0  0  0
   58.0490   32.5810   44.5740 C   0  0  0  0  0  0  0  0  0  0  0  0
   57.8310   31.6360   45.7710 C   0  0  1  0  0  0  0  0  0  0  0  0
   55.3420   31.0972   43.9988 H   0  0  0  0  0  0  0  0  0  0  0  0
   56.5395   30.0670   43.1437 H   0  0  0  0  0  0  0  0  0  0  0  0
   54.8016   29.6128   43.1437 H   0  0  0  0  0  0  0  0  0  0  0  0
   57.2014   28.0529   45.7546 H   0  0  0  0  0  0  0  0  0  0  0  0
   56.9071   27.8379   43.9928 H   0  0  0  0  0  0  0  0  0  0  0  0
   59.0407   28.9073   44.1810 H   0  0  0  0  0  0  0  0  0  0  0  0
   57.8223   30.2027   43.7062 H   0  0  0  0  0  0  0  0  0  0  0  0
   57.7155   29.4298   47.2686 H   0  0  0  0  0  0  0  0  0  0  0  0
   59.2852   28.7215   46.7179 H   0  0  0  0  0  0  0  0  0  0  0  0
   58.9836   30.3577   48.9235 H   0  0  0  0  0  0  0  0  0  0  0  0
   60.5221   30.1267   47.9717 H   0  0  0  0  0  0  0  0  0  0  0  0
   61.0400   31.4089   46.2417 H   0  0  0  0  0  0  0  0  0  0  0  0
   60.4181   33.0914   46.0953 H   0  0  0  0  0  0  0  0  0  0  0  0
   63.6133   32.1926   46.5349 H   0  0  0  0  0  0  0  0  0  0  0  0
   63.0750   33.8989   51.3715 H   0  0  0  0  0  0  0  0  0  0  0  0
   64.4840   34.5961   50.5024 H   0  0  0  0  0  0  0  0  0  0  0  0
   62.9103   35.4623   50.5024 H   0  0  0  0  0  0  0  0  0  0  0  0
   60.6640   33.8039   50.6958 H   0  0  0  0  0  0  0  0  0  0  0  0
   60.2155   34.8880   49.3355 H   0  0  0  0  0  0  0  0  0  0  0  0
   59.6734   33.1754   49.3355 H   0  0  0  0  0  0  0  0  0  0  0  0
   57.4666   32.0819   47.8566 H   0  0  0  0  0  0  0  0  0  0  0  0
   57.1955   34.2687   47.4585 H   0  0  0  0  0  0  0  0  0  0  0  0
   58.9639   34.4081   47.3836 H   0  0  0  0  0  0  0  0  0  0  0  0
   57.2596   32.4305   43.8228 H   0  0  0  0  0  0  0  0  0  0  0  0
   59.0150   32.3861   44.0852 H   0  0  0  0  0  0  0  0  0  0  0  0
   56.7688   31.3524   45.8071 H   0  0  0  0  0  0  0  0  0  0  0  0
  1  2  1  0
  2  3  1  0
  3  4  1  0
  4  5  1  0
  5  6  1  0
  6  7  1  0
  7  8  1  0
  8  9  1  0
  9 10  1  0
 10 11  1  0
 11 12  2  0
 12 13  1  0
 13 14  1  0
 13 15  1  0
 15 16  1  0
  8 17  1  0
 17 18  1  0
 18 19  1  0
 19 20  2  0
 19 21  2  0
 19 22  1  0
 22 23  1  0
 23  5  1  0
 15 10  2  0
 23 17  1  0
  1 24  1  0
  1 25  1  0
  1 26  1  0
  3 27  1  0
  3 28  1  0
  4 29  1  0
  4 30  1  0
  6 31  1  0
  6 32  1  0
  7 33  1  0
  7 34  1  0
  9 35  1  0
  9 36  1  0
 11 37  1  0
 14 38  1  0
 14 39  1  0
 14 40  1  0
 16 41  1  0
 16 42  1  0
 16 43  1  0
 17 44  1  1
 18 45  1  0
 18 46  1  0
 22 47  1  0
 22 48  1  0
 23 49  1  1
M  END
>  <UniqueID>  (14) 
14

>  <SMILES>  (14) 
COCCN1CCN(Cc2cnn(C)c2C)[C@H]2CS(=O)(=O)C[C@H]21

>  <Energy>  (14) 
96.645131481996

>  <Genealogy>  (14) 
COCCN1CCN(Cc2cnn(C)c2C)[C@H]2CS(=O)(=O)C[C@H]21 (chirality)
COCCN1CCN(Cc2cnn(C)c2C)[C@H]2CS(=O)(=O)C[C@H]21 (3D coordinates assigned)
COCCN1CCN(Cc2cnn(C)c2C)[C@H]2CS(=O)(=O)C[C@H]21 (nonaromatic ring conformer: 96.645131481996 kcal/mol)

>  <smiles>  (14) 
COCCN1CCN(Cc2cnn(C)c2C)C2CS(=O)(=O)CC21

>  <score_type>  (14) 
oracle

>  <origin>  (14) 
adg

>  <m_score__min__energy>  (14) 
-7.5700000000000003

>  <m_primary>  (14) 
energy

$$$$
14:0
     RDKit          3D

 31 32  0  0  0  0  0  0  0  0999 V2000
   59.9880   34.1970   49.5550 C   0  0  0  0  0  0  0  0  0  0  0  0
   59.4570   34.7430   48.3530 O   0  0  0  0  0  0  0  0  0  0  0  0
   59.0610   33.9790   47.2450 C   0  0  0  0  0  0  0  0  0  0  0  0
   58.8400   34.5460   45.9750 C   0  0  0  0  0  0  0  0  0  0  0  0
   58.4460   33.7410   44.9030 C   0  0  0  0  0  0  0  0  0  0  0  0
   58.2630   32.3610   45.0800 C   0  0  0  0  0  0  0  0  0  0  0  0
   57.8570   31.4980   43.9150 C   0  0  0  0  0  0  0  0  0  0  0  0
   58.4720   30.1680   44.0230 N   0  0  0  0  0  0  0  0  0  0  0  0
   57.5110   29.0790   43.7620 C   0  0  2  0  0  0  0  0  0  0  0  0
   56.4190   29.5610   42.7920 C   0  0  0  0  0  0  0  0  0  0  0  0
   55.1390   29.7370   43.6290 C   0  0  0  0  0  0  0  0  0  0  0  0
   55.3970   29.0990   44.8660 O   0  0  0  0  0  0  0  0  0  0  0  0
   56.7190   28.7310   44.9700 C   0  0  0  0  0  0  0  0  0  0  0  0
   57.1820   28.1430   45.9810 O   0  0  0  0  0  0  0  0  0  0  0  0
   58.4860   31.7960   46.3460 C   0  0  0  0  0  0  0  0  0  0  0  0
   58.8810   32.6010   47.4170 C   0  0  0  0  0  0  0  0  0  0  0  0
   59.5141   34.6843   50.4198 H   0  0  0  0  0  0  0  0  0  0  0  0
   59.7863   33.1161   49.5872 H   0  0  0  0  0  0  0  0  0  0  0  0
   61.0741   34.3685   49.5872 H   0  0  0  0  0  0  0  0  0  0  0  0
   58.9781   35.6271   45.8263 H   0  0  0  0  0  0  0  0  0  0  0  0
   58.2782   34.1920   43.9138 H   0  0  0  0  0  0  0  0  0  0  0  0
   56.7622   31.3914   43.9073 H   0  0  0  0  0  0  0  0  0  0  0  0
   58.1974   31.9736   42.9834 H   0  0  0  0  0  0  0  0  0  0  0  0
   59.2700   30.1100   43.3460 H   0  0  0  0  0  0  0  0  0  0  0  0
   58.1188   28.2397   43.3930 H   0  0  0  0  0  0  0  0  0  0  0  0
   56.7105   30.5192   42.3371 H   0  0  0  0  0  0  0  0  0  0  0  0
   56.2650   28.8400   41.9757 H   0  0  0  0  0  0  0  0  0  0  0  0
   54.9274   30.8050   43.7855 H   0  0  0  0  0  0  0  0  0  0  0  0
   54.2625   29.3038   43.1248 H   0  0  0  0  0  0  0  0  0  0  0  0
   58.3490   30.7148   46.4950 H   0  0  0  0  0  0  0  0  0  0  0  0
   59.0523   32.1482   48.4048 H   0  0  0  0  0  0  0  0  0  0  0  0
  1  2  1  0
  2  3  1  0
  3  4  2  0
  4  5  1  0
  5  6  2  0
  6  7  1  0
  7  8  1  0
  8  9  1  0
  9 10  1  0
 10 11  1  0
 11 12  1  0
 12 13  1  0
 13 14  2  0
  6 15  1  0
 15 16  2  0
 16  3  1  0
 13  9  1  0
  1 17  1  0
  1 18  1  0
  1 19  1  0
  4 20  1  0
  5 21  1  0
  7 22  1  0
  7 23  1  0
  8 24  1  0
  9 25  1  6
 10 26  1  0
 10 27  1  0
 11 28  1  0
 11 29  1  0
 15 30  1  0
 16 31  1  0
M  END
>  <UniqueID>  (15) 
15

>  <SMILES>  (15) 
COc1ccc(CN[C@@H]2CCOC2=O)cc1

>  <Energy>  (15) 
38.382406051064784

>  <Genealogy>  (15) 
COc1ccc(CN[C@@H]2CCOC2=O)cc1 (chirality)
COc1ccc(CN[C@@H]2CCOC2=O)cc1 (3D coordinates assigned)
COc1ccc(CN[C@@H]2CCOC2=O)cc1 (nonaromatic ring conformer: 38.382406051064784 kcal/mol)

>  <smiles>  (15) 
COc1ccc(CNC2CCOC2=O)cc1

>  <score_type>  (15) 
oracle

>  <origin>  (15) 
adg

>  <m_score__min__energy>  (15) 
-6.0700000000000003

>  <m_primary>  (15) 
energy

$$$$
15:0
     RDKit          3D

 52 56  0  0  0  0  0  0  0  0999 V2000
   58.1420   27.3360   43.3540 C   0  0  0  0  0  0  0  0  0  0  0  0
   58.9790   27.1700   44.4940 O   0  0  0  0  0  0  0  0  0  0  0  0
   59.0670   28.0870   45.5520 C   0  0  0  0  0  0  0  0  0  0  0  0
   58.4120   27.8850   46.7820 C   0  0  0  0  0  0  0  0  0  0  0  0
   58.5290   28.8290   47.8050 C   0  0  0  0  0  0  0  0  0  0  0  0
   59.2960   29.9860   47.6210 C   0  0  0  0  0  0  0  0  0  0  0  0
   59.4080   30.9640   48.6700 N   0  0  0  0  0  0  0  0  0  0  0  0
   59.8430   30.7600   49.9320 C   0  0  0  0  0  0  0  0  0  0  0  0
   60.1280   29.1520   50.6820 S   0  0  0  0  0  0  0  0  0  0  0  0
   59.3700   29.5800   52.2890 C   0  0  0  0  0  0  0  0  0  0  0  0
   58.0380   30.2270   52.1050 C   0  0  0  0  0  0  0  0  0  0  0  0
   57.8510   31.4950   51.6970 N   0  0  0  0  0  0  0  0  0  0  0  0
   56.5470   31.6990   51.6200 N   0  0  0  0  0  0  0  0  0  0  0  0
   55.9770   30.5320   51.9880 C   0  0  0  0  0  0  0  0  0  0  0  0
   54.5210   30.2920   52.0290 C   0  0  0  0  0  0  0  0  0  0  0  0
   54.0030   29.2290   52.7890 C   0  0  0  0  0  0  0  0  0  0  0  0
   52.6260   28.9930   52.8230 C   0  0  0  0  0  0  0  0  0  0  0  0
   51.7560   29.8120   52.1000 C   0  0  0  0  0  0  0  0  0  0  0  0
   52.2620   30.8710   51.3410 C   0  0  0  0  0  0  0  0  0  0  0  0
   53.6390   31.1120   51.3050 C   0  0  0  0  0  0  0  0  0  0  0  0
   56.8860   29.6270   52.2860 O   0  0  0  0  0  0  0  0  0  0  0  0
   60.1250   31.9200   50.5520 N   0  0  0  0  0  0  0  0  0  0  0  0
   59.8600   32.8920   49.6940 N   0  0  0  0  0  0  0  0  0  0  0  0
   59.4290   32.3130   48.5570 C   0  0  0  0  0  0  0  0  0  0  0  0
   59.0290   33.0870   47.3590 C   0  0  0  0  0  0  0  0  0  0  0  0
   57.7750   32.8910   46.7550 C   0  0  0  0  0  0  0  0  0  0  0  0
   57.4100   33.6360   45.6300 C   0  0  0  0  0  0  0  0  0  0  0  0
   58.2850   34.5910   45.1070 C   0  0  0  0  0  0  0  0  0  0  0  0
   59.5250   34.8060   45.7140 C   0  0  0  0  0  0  0  0  0  0  0  0
   59.8950   34.0640   46.8380 C   0  0  0  0  0  0  0  0  0  0  0  0
   59.9510   30.1850   46.3960 C   0  0  0  0  0  0  0  0  0  0  0  0
   59.8350   29.2420   45.3710 C   0  0  0  0  0  0  0  0  0  0  0  0
   57.1121   27.5403   43.6819 H   0  0  0  0  0  0  0  0  0  0  0  0
   58.5084   28.1790   42.7497 H   0  0  0  0  0  0  0  0  0  0  0  0
   58.1590   26.4170   42.7497 H   0  0  0  0  0  0  0  0  0  0  0  0
   57.8059   26.9804   46.9379 H   0  0  0  0  0  0  0  0  0  0  0  0
   58.0145   28.6621   48.7628 H   0  0  0  0  0  0  0  0  0  0  0  0
   59.2436   28.6618   52.8814 H   0  0  0  0  0  0  0  0  0  0  0  0
   60.0320   30.2894   52.8072 H   0  0  0  0  0  0  0  0  0  0  0  0
   58.5830   32.2030   51.4660 H   0  0  0  0  0  0  0  0  0  0  0  0
   54.6842   28.5803   53.3592 H   0  0  0  0  0  0  0  0  0  0  0  0
   52.2265   28.1603   53.4205 H   0  0  0  0  0  0  0  0  0  0  0  0
   50.6726   29.6237   52.1279 H   0  0  0  0  0  0  0  0  0  0  0  0
   51.5763   31.5155   50.7714 H   0  0  0  0  0  0  0  0  0  0  0  0
   54.0334   31.9470   50.7074 H   0  0  0  0  0  0  0  0  0  0  0  0
   57.0778   32.1480   47.1695 H   0  0  0  0  0  0  0  0  0  0  0  0
   56.4316   33.4699   45.1555 H   0  0  0  0  0  0  0  0  0  0  0  0
   57.9983   35.1729   44.2186 H   0  0  0  0  0  0  0  0  0  0  0  0
   60.2118   35.5619   45.3055 H   0  0  0  0  0  0  0  0  0  0  0  0
   60.8683   34.2450   47.3176 H   0  0  0  0  0  0  0  0  0  0  0  0
   60.5593   31.0884   46.2416 H   0  0  0  0  0  0  0  0  0  0  0  0
   60.3517   29.4094   44.4144 H   0  0  0  0  0  0  0  0  0  0  0  0
  1  2  1  0
  2  3  1  0
  3  4  2  0
  4  5  1  0
  5  6  2  0
  6  7  1  0
  7  8  1  0
  8  9  1  0
  9 10  1  0
 10 11  1  0
 11 12  2  0
 12 13  1  0
 13 14  2  0
 14 15  1  0
 15 16  2  0
 16 17  1  0
 17 18  2  0
 18 19  1  0
 19 20  2  0
 14 21  1  0
  8 22  2  0
 22 23  1  0
 23 24  2  0
 24 25  1  0
 25 26  2  0
 26 27  1  0
 27 28  2  0
 28 29  1  0
 29 30  2  0
  6 31  1  0
 31 32  2  0
 32  3  1  0
 24  7  1  0
 30 25  1  0
 21 11  1  0
 20 15  1  0
  1 33  1  0
  1 34  1  0
  1 35  1  0
  4 36  1  0
  5 37  1  0
 10 38  1  0
 10 39  1  0
 12 40  1  0
 16 41  1  0
 17 42  1  0
 18 43  1  0
 19 44  1  0
 20 45  1  0
 26 46  1  0
 27 47  1  0
 28 48  1  0
 29 49  1  0
 30 50  1  0
 31 51  1  0
 32 52  1  0
M  CHG  1  12   1
M  END
>  <UniqueID>  (16) 
16

>  <SMILES>  (16) 
COc1ccc(-n2c(SCc3[nH+]nc(-c4ccccc4)o3)nnc2-c2ccccc2)cc1

>  <Energy>  (16) 
132.3611708415275

>  <Genealogy>  (16) 
COc1ccc(-n2c(SCc3[nH+]nc(-c4ccccc4)o3)nnc2-c2ccccc2)cc1 (protonated)
COc1ccc(-n2c(SCc3[nH+]nc(-c4ccccc4)o3)nnc2-c2ccccc2)cc1 (3D coordinates assigned)
COc1ccc(-n2c(SCc3[nH+]nc(-c4ccccc4)o3)nnc2-c2ccccc2)cc1 (optimized conformer: 132.3611708415275 kcal/mol)

>  <smiles>  (16) 
COc1ccc(-n2c(SCc3nnc(-c4ccccc4)o3)nnc2-c2ccccc2)cc1

>  <score_type>  (16) 
oracle

>  <origin>  (16) 
adg

>  <m_score__min__energy>  (16) 
-7.96

>  <m_primary>  (16) 
energy

$$$$
16:0
     RDKit          3D

 40 42  0  0  0  0  0  0  0  0999 V2000
   59.3200   35.3180   47.1660 C   0  0  0  0  0  0  0  0  0  0  0  0
   60.4870   34.7690   46.3480 C   0  0  0  0  0  0  0  0  0  0  0  0
   60.5710   33.2510   46.4490 C   0  0  0  0  0  0  0  0  0  0  0  0
   61.7330   32.6290   46.9810 C   0  0  0  0  0  0  0  0  0  0  0  0
   62.9230   33.4080   47.4020 C   0  0  0  0  0  0  0  0  0  0  0  0
   63.5840   34.0310   46.5270 O   0  0  0  0  0  0  0  0  0  0  0  0
   63.3710   33.4370   48.8170 C   0  0  0  0  0  0  0  0  0  0  0  0
   62.6670   34.1800   49.7870 C   0  0  0  0  0  0  0  0  0  0  0  0
   63.1060   34.2050   51.1150 C   0  0  0  0  0  0  0  0  0  0  0  0
   64.2500   33.4970   51.4900 C   0  0  0  0  0  0  0  0  0  0  0  0
   64.9600   32.7650   50.5370 C   0  0  0  0  0  0  0  0  0  0  0  0
   64.5280   32.7360   49.2080 C   0  0  0  0  0  0  0  0  0  0  0  0
   61.7810   31.2720   47.1120 N   0  0  0  0  0  0  0  0  0  0  0  0
   60.7540   30.4720   46.7390 C   0  0  0  0  0  0  0  0  0  0  0  0
   59.5940   31.0180   46.1890 C   0  0  0  0  0  0  0  0  0  0  0  0
   58.5430   30.1760   45.7940 C   0  0  0  0  0  0  0  0  0  0  0  0
   57.3770   30.7040   45.2380 C   0  0  0  0  0  0  0  0  0  0  0  0
   56.3570   29.8170   44.8620 O   0  0  0  0  0  0  0  0  0  0  0  0
   55.8280   29.7100   43.5430 C   0  0  0  0  0  0  0  0  0  0  0  0
   57.2650   32.0940   45.0730 C   0  0  0  0  0  0  0  0  0  0  0  0
   58.3050   32.9410   45.4620 C   0  0  0  0  0  0  0  0  0  0  0  0
   59.4900   32.4210   46.0310 C   0  0  0  0  0  0  0  0  0  0  0  0
   59.5425   35.2133   48.2382 H   0  0  0  0  0  0  0  0  0  0  0  0
   59.1708   36.3807   46.9245 H   0  0  0  0  0  0  0  0  0  0  0  0
   58.4062   34.7553   46.9245 H   0  0  0  0  0  0  0  0  0  0  0  0
   60.3488   35.0505   45.2936 H   0  0  0  0  0  0  0  0  0  0  0  0
   61.4197   35.1947   46.7465 H   0  0  0  0  0  0  0  0  0  0  0  0
   61.7675   34.7432   49.4977 H   0  0  0  0  0  0  0  0  0  0  0  0
   62.5486   34.7840   51.8661 H   0  0  0  0  0  0  0  0  0  0  0  0
   64.5912   33.5163   52.5356 H   0  0  0  0  0  0  0  0  0  0  0  0
   65.8621   32.2093   50.8327 H   0  0  0  0  0  0  0  0  0  0  0  0
   65.0962   32.1612   48.4618 H   0  0  0  0  0  0  0  0  0  0  0  0
   62.6380   30.8180   47.5020 H   0  0  0  0  0  0  0  0  0  0  0  0
   60.8351   29.3829   46.8707 H   0  0  0  0  0  0  0  0  0  0  0  0
   58.6394   29.0880   45.9241 H   0  0  0  0  0  0  0  0  0  0  0  0
   54.7511   29.4922   43.5964 H   0  0  0  0  0  0  0  0  0  0  0  0
   55.9842   30.6579   43.0073 H   0  0  0  0  0  0  0  0  0  0  0  0
   56.3404   28.8973   43.0073 H   0  0  0  0  0  0  0  0  0  0  0  0
   56.3505   32.5192   44.6337 H   0  0  0  0  0  0  0  0  0  0  0  0
   58.2007   34.0273   45.3238 H   0  0  0  0  0  0  0  0  0  0  0  0
  1  2  1  0
  2  3  1  0
  3  4  2  0
  4  5  1  0
  5  6  2  0
  5  7  1  0
  7  8  2  0
  8  9  1  0
  9 10  2  0
 10 11  1  0
 11 12  2  0
  4 13  1  0
 13 14  2  0
 14 15  1  0
 15 16  2  0
 16 17  1  0
 17 18  1  0
 18 19  1  0
 17 20  2  0
 20 21  1  0
 21 22  2  0
 22  3  1  0
 12  7  1  0
 22 15  1  0
  1 23  1  0
  1 24  1  0
  1 25  1  0
  2 26  1  0
  2 27  1  0
  8 28  1  0
  9 29  1  0
 10 30  1  0
 11 31  1  0
 12 32  1  0
 13 33  1  0
 14 34  1  0
 16 35  1  0
 19 36  1  0
 19 37  1  0
 19 38  1  0
 20 39  1  0
 21 40  1  0
M  CHG  1  13   1
M  END
>  <UniqueID>  (17) 
17

>  <SMILES>  (17) 
CCc1c(C(=O)c2ccccc2)[nH+]cc2cc(OC)ccc12

>  <Energy>  (17) 
54.649109090646135

>  <Genealogy>  (17) 
CCc1c(C(=O)c2ccccc2)[nH+]cc2cc(OC)ccc12 (protonated)
CCc1c(C(=O)c2ccccc2)[nH+]cc2cc(OC)ccc12 (3D coordinates assigned)
CCc1c(C(=O)c2ccccc2)[nH+]cc2cc(OC)ccc12 (optimized conformer: 54.649109090646135 kcal/mol)

>  <smiles>  (17) 
CCc1c(C(=O)c2ccccc2)ncc2cc(OC)ccc12

>  <score_type>  (17) 
oracle

>  <origin>  (17) 
adg

>  <m_score__min__energy>  (17) 
-5.9400000000000004

>  <m_primary>  (17) 
energy

$$$$
17:0
     RDKit          3D

 61 64  0  0  0  0  0  0  0  0999 V2000
   65.3160   32.3400   50.1270 C   0  0  0  0  0  0  0  0  0  0  0  0
   64.9500   33.1510   49.0150 O   0  0  0  0  0  0  0  0  0  0  0  0
   63.6330   33.3360   48.5690 C   0  0  0  0  0  0  0  0  0  0  0  0
   62.5720   33.6260   49.4480 C   0  0  0  0  0  0  0  0  0  0  0  0
   61.2770   33.8040   48.9550 C   0  0  0  0  0  0  0  0  0  0  0  0
   61.0180   33.7010   47.5780 C   0  0  0  0  0  0  0  0  0  0  0  0
   59.6780   33.8630   47.0750 N   0  0  0  0  0  0  0  0  0  0  0  0
   59.2840   35.0610   46.3310 C   0  0  0  0  0  0  0  0  0  0  0  0
   58.8080   34.6500   44.9370 C   0  0  0  0  0  0  0  0  0  0  0  0
   57.8310   33.5320   44.9670 N   0  0  0  0  0  0  0  0  0  0  0  0
   58.0080   32.5390   43.8870 C   0  0  0  0  0  0  0  0  0  0  0  0
   58.0270   31.0720   44.3830 C   0  0  0  0  0  0  0  0  0  0  0  0
   56.6730   30.3670   44.2240 C   0  0  0  0  0  0  0  0  0  0  0  0
   56.4870   29.3560   45.2820 N   0  0  0  0  0  0  0  0  0  0  0  0
   57.7340   29.0380   45.9920 C   0  0  0  0  0  0  0  0  0  0  0  0
   58.0870   27.5920   45.8230 C   0  0  0  0  0  0  0  0  0  0  0  0
   58.9980   26.8820   46.5730 C   0  0  0  0  0  0  0  0  0  0  0  0
   58.9360   25.6280   46.1910 O   0  0  0  0  0  0  0  0  0  0  0  0
   58.0180   25.5420   45.2480 C   0  0  0  0  0  0  0  0  0  0  0  0
   57.6500   24.2680   44.5870 C   0  0  0  0  0  0  0  0  0  0  0  0
   58.3390   23.0890   44.9210 C   0  0  0  0  0  0  0  0  0  0  0  0
   58.0040   21.8740   44.3160 C   0  0  0  0  0  0  0  0  0  0  0  0
   56.9770   21.8220   43.3700 C   0  0  0  0  0  0  0  0  0  0  0  0
   56.6540   20.6430   42.7840 F   0  0  0  0  0  0  0  0  0  0  0  0
   56.2840   22.9860   43.0290 C   0  0  0  0  0  0  0  0  0  0  0  0
   56.6160   24.2040   43.6320 C   0  0  0  0  0  0  0  0  0  0  0  0
   57.4610   26.7450   44.9870 N   0  0  0  0  0  0  0  0  0  0  0  0
   57.4900   32.9680   46.2950 C   0  0  0  0  0  0  0  0  0  0  0  0
   58.7160   32.7620   47.2030 C   0  0  0  0  0  0  0  0  0  0  0  0
   62.0770   33.4010   46.7060 C   0  0  0  0  0  0  0  0  0  0  0  0
   63.3720   33.2230   47.2000 C   0  0  0  0  0  0  0  0  0  0  0  0
   65.0771   32.8693   51.0612 H   0  0  0  0  0  0  0  0  0  0  0  0
   64.7581   31.3927   50.0893 H   0  0  0  0  0  0  0  0  0  0  0  0
   66.3954   32.1316   50.0893 H   0  0  0  0  0  0  0  0  0  0  0  0
   62.7636   33.7128   50.5277 H   0  0  0  0  0  0  0  0  0  0  0  0
   60.4540   34.0265   49.6501 H   0  0  0  0  0  0  0  0  0  0  0  0
   58.4685   35.5732   46.8626 H   0  0  0  0  0  0  0  0  0  0  0  0
   60.1432   35.7423   46.2434 H   0  0  0  0  0  0  0  0  0  0  0  0
   58.3329   35.5187   44.4579 H   0  0  0  0  0  0  0  0  0  0  0  0
   59.6886   34.3043   44.3758 H   0  0  0  0  0  0  0  0  0  0  0  0
   57.1796   32.6527   43.1723 H   0  0  0  0  0  0  0  0  0  0  0  0
   58.9890   32.7350   43.4295 H   0  0  0  0  0  0  0  0  0  0  0  0
   58.7811   30.5167   43.8059 H   0  0  0  0  0  0  0  0  0  0  0  0
   58.2636   31.0911   45.4571 H   0  0  0  0  0  0  0  0  0  0  0  0
   55.8671   31.1127   44.2907 H   0  0  0  0  0  0  0  0  0  0  0  0
   56.6470   29.8653   43.2454 H   0  0  0  0  0  0  0  0  0  0  0  0
   55.8220   29.7470   45.9900 H   0  0  0  0  0  0  0  0  0  0  0  0
   58.5477   29.6578   45.5874 H   0  0  0  0  0  0  0  0  0  0  0  0
   57.5929   29.2442   47.0632 H   0  0  0  0  0  0  0  0  0  0  0  0
   59.6583   27.2919   47.3515 H   0  0  0  0  0  0  0  0  0  0  0  0
   59.1487   23.1228   45.6648 H   0  0  0  0  0  0  0  0  0  0  0  0
   58.5497   20.9576   44.5851 H   0  0  0  0  0  0  0  0  0  0  0  0
   55.4753   22.9448   42.2845 H   0  0  0  0  0  0  0  0  0  0  0  0
   56.0666   25.1170   43.3589 H   0  0  0  0  0  0  0  0  0  0  0  0
   56.6980   26.9820   44.3170 H   0  0  0  0  0  0  0  0  0  0  0  0
   56.7947   33.6559   46.7982 H   0  0  0  0  0  0  0  0  0  0  0  0
   57.0424   31.9780   46.1230 H   0  0  0  0  0  0  0  0  0  0  0  0
   58.3792   32.7027   48.2485 H   0  0  0  0  0  0  0  0  0  0  0  0
   59.2169   31.8319   46.8966 H   0  0  0  0  0  0  0  0  0  0  0  0
   61.8859   33.3055   45.6269 H   0  0  0  0  0  0  0  0  0  0  0  0
   64.1933   32.9919   46.5057 H   0  0  0  0  0  0  0  0  0  0  0  0
  1  2  1  0
  2  3  1  0
  3  4  2  0
  4  5  1  0
  5  6  2  0
  6  7  1  0
  7  8  1  0
  8  9  1  0
  9 10  1  0
 10 11  1  0
 11 12  1  0
 12 13  1  0
 13 14  1  0
 14 15  1  0
 15 16  1  0
 16 17  2  0
 17 18  1  0
 18 19  1  0
 19 20  1  0
 20 21  2  0
 21 22  1  0
 22 23  2  0
 23 24  1  0
 23 25  1  0
 25 26  2  0
 19 27  2  0
 10 28  1  0
 28 29  1  0
  6 30  1  0
 30 31  2  0
 31  3  1  0
 29  7  1  0
 27 16  1  0
 26 20  1  0
  1 32  1  0
  1 33  1  0
  1 34  1  0
  4 35  1  0
  5 36  1  0
  8 37  1  0
  8 38  1  0
  9 39  1  0
  9 40  1  0
 11 41  1  0
 11 42  1  0
 12 43  1  0
 12 44  1  0
 13 45  1  0
 13 46  1  0
 14 47  1  0
 15 48  1  0
 15 49  1  0
 17 50  1  0
 21 51  1  0
 22 52  1  0
 25 53  1  0
 26 54  1  0
 27 55  1  0
 28 56  1  0
 28 57  1  0
 29 58  1  0
 29 59  1  0
 30 60  1  0
 31 61  1  0
M  CHG  1  27   1
M  END
>  <UniqueID>  (18) 
18

>  <SMILES>  (18) 
COc1ccc(N2CCN(CCCNCc3coc(-c4ccc(F)cc4)[nH+]3)CC2)cc1

>  <Energy>  (18) 
108.92847776082986

>  <Genealogy>  (18) 
COc1ccc(N2CCN(CCCNCc3coc(-c4ccc(F)cc4)[nH+]3)CC2)cc1 (protonated)
COc1ccc(N2CCN(CCCNCc3coc(-c4ccc(F)cc4)[nH+]3)CC2)cc1 (3D coordinates assigned)
COc1ccc(N2CCN(CCCNCc3coc(-c4ccc(F)cc4)[nH+]3)CC2)cc1 (nonaromatic ring conformer: 108.92847776082986 kcal/mol)

>  <smiles>  (18) 
COc1ccc(N2CCN(CCCNCc3coc(-c4ccc(F)cc4)n3)CC2)cc1

>  <score_type>  (18) 
oracle

>  <origin>  (18) 
adg

>  <m_score__min__energy>  (18) 
-7.9900000000000002

>  <m_primary>  (18) 
energy

$$$$
18:0
     RDKit          3D

 39 43  0  0  0  0  0  0  0  0999 V2000
   55.1520   29.3030   44.5630 O   0  0  0  0  0  0  0  0  0  0  0  0
   56.2680   29.8830   44.6340 C   0  0  0  0  0  0  0  0  0  0  0  0
   56.3350   31.2420   44.5790 N   0  0  0  0  0  0  0  0  0  0  0  0
   57.5290   31.9030   44.6560 C   0  0  0  0  0  0  0  0  0  0  0  0
   57.5580   33.3990   44.5910 C   0  0  0  0  0  0  0  0  0  0  0  0
   57.9160   33.9500   45.8590 O   0  0  0  0  0  0  0  0  0  0  0  0
   59.1000   33.6670   46.5610 C   0  0  0  0  0  0  0  0  0  0  0  0
   59.0140   32.8730   47.7090 C   0  0  0  0  0  0  0  0  0  0  0  0
   60.1600   32.5560   48.4420 C   0  0  0  0  0  0  0  0  0  0  0  0
   61.4190   33.0320   48.0390 C   0  0  0  0  0  0  0  0  0  0  0  0
   62.6340   32.6970   48.8140 C   0  0  0  0  0  0  0  0  0  0  0  0
   62.6790   31.6780   49.7150 N   0  0  0  0  0  0  0  0  0  0  0  0
   63.9400   31.7380   50.1660 C   0  0  0  0  0  0  0  0  0  0  0  0
   64.5460   30.9210   51.1170 C   0  0  0  0  0  0  0  0  0  0  0  0
   65.8940   31.1760   51.4330 C   0  0  0  0  0  0  0  0  0  0  0  0
   66.5900   32.2300   50.7980 C   0  0  0  0  0  0  0  0  0  0  0  0
   65.9420   33.0350   49.8420 C   0  0  0  0  0  0  0  0  0  0  0  0
   64.6090   32.7520   49.5550 C   0  0  0  0  0  0  0  0  0  0  0  0
   63.8040   33.3810   48.6880 N   0  0  0  0  0  0  0  0  0  0  0  0
   61.5050   33.8340   46.8890 C   0  0  0  0  0  0  0  0  0  0  0  0
   60.3570   34.1510   46.1560 C   0  0  0  0  0  0  0  0  0  0  0  0
   58.6930   31.2050   44.7820 N   0  0  0  0  0  0  0  0  0  0  0  0
   58.6620   29.8500   44.8400 C   0  0  0  0  0  0  0  0  0  0  0  0
   59.7820   29.0460   44.9720 C   0  0  0  0  0  0  0  0  0  0  0  0
   59.2320   27.4520   44.9990 S   0  0  0  0  0  0  0  0  0  0  0  0
   57.5830   27.7750   44.8440 C   0  0  0  0  0  0  0  0  0  0  0  0
   57.4510   29.1570   44.7690 C   0  0  0  0  0  0  0  0  0  0  0  0
   58.2959   33.7140   43.8385 H   0  0  0  0  0  0  0  0  0  0  0  0
   56.5564   33.7617   44.3166 H   0  0  0  0  0  0  0  0  0  0  0  0
   58.0348   32.4946   48.0378 H   0  0  0  0  0  0  0  0  0  0  0  0
   60.0761   31.9288   49.3418 H   0  0  0  0  0  0  0  0  0  0  0  0
   63.9912   30.1055   51.6040 H   0  0  0  0  0  0  0  0  0  0  0  0
   66.4086   30.5516   52.1782 H   0  0  0  0  0  0  0  0  0  0  0  0
   67.6429   32.4220   51.0521 H   0  0  0  0  0  0  0  0  0  0  0  0
   66.4701   33.8587   49.3393 H   0  0  0  0  0  0  0  0  0  0  0  0
   62.4835   34.2159   46.5623 H   0  0  0  0  0  0  0  0  0  0  0  0
   60.4374   34.7818   45.2585 H   0  0  0  0  0  0  0  0  0  0  0  0
   60.8269   29.3818   45.0450 H   0  0  0  0  0  0  0  0  0  0  0  0
   56.7697   27.0352   44.8091 H   0  0  0  0  0  0  0  0  0  0  0  0
  1  2  2  0
  2  3  1  0
  3  4  2  0
  4  5  1  0
  5  6  1  0
  6  7  1  0
  7  8  2  0
  8  9  1  0
  9 10  2  0
 10 11  1  0
 11 12  2  0
 12 13  1  0
 13 14  2  0
 14 15  1  0
 15 16  2  0
 16 17  1  0
 17 18  2  0
 18 19  1  0
 10 20  1  0
 20 21  2  0
  4 22  1  0
 22 23  1  0
 23 24  2  0
 24 25  1  0
 25 26  1  0
 26 27  2  0
 27  2  1  0
 21  7  1  0
 27 23  1  0
 19 11  1  0
 18 13  1  0
  5 28  1  0
  5 29  1  0
  8 30  1  0
  9 31  1  0
 14 32  1  0
 15 33  1  0
 16 34  1  0
 17 35  1  0
 20 36  1  0
 21 37  1  0
 24 38  1  0
 26 39  1  0
M  CHG  2  19  -1  22  -1
M  END
>  <UniqueID>  (19) 
19

>  <SMILES>  (19) 
O=c1nc(COc2ccc(-c3nc4ccccc4[n-]3)cc2)[n-]c2cscc12

>  <Energy>  (19) 
112.10524327490816

>  <Genealogy>  (19) 
O=c1nc(COc2ccc(-c3nc4ccccc4[n-]3)cc2)[n-]c2cscc12 (protonated)
O=c1nc(COc2ccc(-c3nc4ccccc4[n-]3)cc2)[n-]c2cscc12 (3D coordinates assigned)
O=c1nc(COc2ccc(-c3nc4ccccc4[n-]3)cc2)[n-]c2cscc12 (optimized conformer: 112.10524327490816 kcal/mol)

>  <smiles>  (19) 
O=c1nc(COc2ccc(-c3nc4ccccc4[nH]3)cc2)[nH]c2cscc12

>  <score_type>  (19) 
oracle

>  <origin>  (19) 
adg

>  <m_score__min__energy>  (19) 
-10.73

>  <m_primary>  (19) 
energy

$$$$
19:0
     RDKit          3D

 44 45  0  0  0  0  0  0  0  0999 V2000
   55.4720   25.1580   45.7000 C   0  0  0  0  0  0  0  0  0  0  0  0
   55.5200   26.5610   45.9370 O   0  0  0  0  0  0  0  0  0  0  0  0
   56.6620   27.3570   45.7620 C   0  0  0  0  0  0  0  0  0  0  0  0
   57.9120   26.7940   46.0430 C   0  0  0  0  0  0  0  0  0  0  0  0
   59.0780   27.5450   45.8850 C   0  0  0  0  0  0  0  0  0  0  0  0
   59.0070   28.8680   45.4440 C   0  0  0  0  0  0  0  0  0  0  0  0
   57.7690   29.4530   45.1560 C   0  0  0  0  0  0  0  0  0  0  0  0
   57.7500   30.7860   44.7170 O   0  0  0  0  0  0  0  0  0  0  0  0
   57.0590   31.2410   43.5560 C   0  0  0  0  0  0  0  0  0  0  0  0
   57.8970   32.3030   42.8500 C   0  0  0  0  0  0  0  0  0  0  0  0
   58.4770   33.1740   43.8010 O   0  0  0  0  0  0  0  0  0  0  0  0
   57.4770   33.8770   44.5090 C   0  0  0  0  0  0  0  0  0  0  0  0
   57.6770   33.6960   46.0220 C   0  0  0  0  0  0  0  0  0  0  0  0
   58.8420   32.8210   46.3410 N   0  0  0  0  0  0  0  0  0  0  0  0
   60.1130   33.5770   46.3080 C   0  0  0  0  0  0  0  0  0  0  0  0
   60.2110   34.5870   47.4770 C   0  0  0  0  0  0  0  0  0  0  0  0
   59.2820   34.3270   48.5140 O   0  0  0  0  0  0  0  0  0  0  0  0
   59.2730   32.9500   48.8220 C   0  0  0  0  0  0  0  0  0  0  0  0
   58.6890   32.1330   47.6510 C   0  0  0  0  0  0  0  0  0  0  0  0
   56.5920   28.6930   45.3170 C   0  0  0  0  0  0  0  0  0  0  0  0
   55.4537   24.6241   46.6616 H   0  0  0  0  0  0  0  0  0  0  0  0
   54.5650   24.9136   45.1277 H   0  0  0  0  0  0  0  0  0  0  0  0
   56.3602   24.8522   45.1277 H   0  0  0  0  0  0  0  0  0  0  0  0
   57.9761   25.7524   46.3908 H   0  0  0  0  0  0  0  0  0  0  0  0
   60.0557   27.0932   46.1086 H   0  0  0  0  0  0  0  0  0  0  0  0
   59.9300   29.4539   45.3223 H   0  0  0  0  0  0  0  0  0  0  0  0
   56.8898   30.3943   42.8744 H   0  0  0  0  0  0  0  0  0  0  0  0
   56.0912   31.6731   43.8506 H   0  0  0  0  0  0  0  0  0  0  0  0
   58.6940   31.8128   42.2716 H   0  0  0  0  0  0  0  0  0  0  0  0
   57.2499   32.8840   42.1764 H   0  0  0  0  0  0  0  0  0  0  0  0
   57.5376   34.9465   44.2591 H   0  0  0  0  0  0  0  0  0  0  0  0
   56.4899   33.4826   44.2260 H   0  0  0  0  0  0  0  0  0  0  0  0
   57.8420   34.6837   46.4772 H   0  0  0  0  0  0  0  0  0  0  0  0
   56.7745   33.2125   46.4241 H   0  0  0  0  0  0  0  0  0  0  0  0
   58.9230   32.0820   45.6020 H   0  0  0  0  0  0  0  0  0  0  0  0
   60.9511   32.8680   46.3787 H   0  0  0  0  0  0  0  0  0  0  0  0
   60.1512   34.1411   45.3644 H   0  0  0  0  0  0  0  0  0  0  0  0
   61.2267   34.5396   47.8966 H   0  0  0  0  0  0  0  0  0  0  0  0
   59.9798   35.5828   47.0709 H   0  0  0  0  0  0  0  0  0  0  0  0
   60.3031   32.6168   49.0164 H   0  0  0  0  0  0  0  0  0  0  0  0
   58.6460   32.7908   49.7116 H   0  0  0  0  0  0  0  0  0  0  0  0
   59.2088   31.1647   47.6032 H   0  0  0  0  0  0  0  0  0  0  0  0
   57.6123   32.0067   47.8372 H   0  0  0  0  0  0  0  0  0  0  0  0
   55.6142   29.1449   45.0942 H   0  0  0  0  0  0  0  0  0  0  0  0
  1  2  1  0
  2  3  1  0
  3  4  2  0
  4  5  1  0
  5  6  2  0
  6  7  1  0
  7  8  1  0
  8  9  1  0
  9 10  1  0
 10 11  1  0
 11 12  1  0
 12 13  1  0
 13 14  1  0
 14 15  1  0
 15 16  1  0
 16 17  1  0
 17 18  1  0
 18 19  1  0
  7 20  2  0
 20  3  1  0
 19 14  1  0
  1 21  1  0
  1 22  1  0
  1 23  1  0
  4 24  1  0
  5 25  1  0
  6 26  1  0
  9 27  1  0
  9 28  1  0
 10 29  1  0
 10 30  1  0
 12 31  1  0
 12 32  1  0
 13 33  1  0
 13 34  1  0
 14 35  1  0
 15 36  1  0
 15 37  1  0
 16 38  1  0
 16 39  1  0
 18 40  1  0
 18 41  1  0
 19 42  1  0
 19 43  1  0
 20 44  1  0
M  CHG  1  14   1
M  END
>  <UniqueID>  (20) 
20

>  <SMILES>  (20) 
COc1cccc(OCCOCC[NH+]2CCOCC2)c1

>  <Energy>  (20) 
54.06538810697477

>  <Genealogy>  (20) 
COc1cccc(OCCOCC[NH+]2CCOCC2)c1 (protonated)
COc1cccc(OCCOCC[NH+]2CCOCC2)c1 (3D coordinates assigned)
COc1cccc(OCCOCC[NH+]2CCOCC2)c1 (nonaromatic ring conformer: 54.06538810697477 kcal/mol)

>  <smiles>  (20) 
COc1cccc(OCCOCCN2CCOCC2)c1

>  <score_type>  (20) 
oracle

>  <origin>  (20) 
adg

>  <m_score__min__energy>  (20) 
-3.77

>  <m_primary>  (20) 
energy

$$$$
20:0
     RDKit          3D

 54 56  0  0  0  0  0  0  0  0999 V2000
   56.6630   26.4220   45.8830 C   0  0  0  0  0  0  0  0  0  0  0  0
   55.9360   27.6170   45.6190 O   0  0  0  0  0  0  0  0  0  0  0  0
   56.4830   28.7850   45.0640 C   0  0  0  0  0  0  0  0  0  0  0  0
   55.8110   29.4850   44.0410 C   0  0  0  0  0  0  0  0  0  0  0  0
   56.3590   30.6420   43.4880 C   0  0  0  0  0  0  0  0  0  0  0  0
   57.5900   31.1250   43.9400 C   0  0  0  0  0  0  0  0  0  0  0  0
   58.1460   32.4170   43.3890 C   0  0  0  0  0  0  0  0  0  0  0  0
   57.9920   33.5260   44.3590 N   0  0  0  0  0  0  0  0  0  0  0  0
   57.0540   33.1680   45.4560 C   0  0  0  0  0  0  0  0  0  0  0  0
   57.4080   33.8410   46.7890 C   0  0  0  0  0  0  0  0  0  0  0  0
   58.7780   33.4970   47.2260 N   0  0  0  0  0  0  0  0  0  0  0  0
   58.8630   32.4890   48.3090 C   0  0  0  0  0  0  0  0  0  0  0  0
   59.3710   33.0290   49.6610 C   0  0  0  0  0  0  0  0  0  0  0  0
   60.7360   32.6720   49.8650 O   0  0  0  0  0  0  0  0  0  0  0  0
   61.7240   32.7250   48.8720 C   0  0  0  0  0  0  0  0  0  0  0  0
   62.3160   33.9620   48.5880 C   0  0  0  0  0  0  0  0  0  0  0  0
   63.3280   34.0600   47.6280 C   0  0  0  0  0  0  0  0  0  0  0  0
   63.7500   32.9210   46.9360 C   0  0  0  0  0  0  0  0  0  0  0  0
   63.1610   31.6820   47.2070 C   0  0  0  0  0  0  0  0  0  0  0  0
   62.1500   31.5810   48.1690 C   0  0  0  0  0  0  0  0  0  0  0  0
   59.7510   33.2890   46.1290 C   0  0  0  0  0  0  0  0  0  0  0  0
   59.3120   34.0030   44.8400 C   0  0  0  0  0  0  0  0  0  0  0  0
   58.2650   30.4390   44.9600 C   0  0  0  0  0  0  0  0  0  0  0  0
   57.7300   29.2770   45.5300 C   0  0  0  0  0  0  0  0  0  0  0  0
   58.4860   28.6720   46.5500 O   0  0  0  0  0  0  0  0  0  0  0  0
   59.7260   29.1370   47.0710 C   0  0  0  0  0  0  0  0  0  0  0  0
   56.7503   26.2785   46.9701 H   0  0  0  0  0  0  0  0  0  0  0  0
   56.1329   25.5652   45.4415 H   0  0  0  0  0  0  0  0  0  0  0  0
   57.6676   26.4988   45.4415 H   0  0  0  0  0  0  0  0  0  0  0  0
   54.8425   29.1139   43.6746 H   0  0  0  0  0  0  0  0  0  0  0  0
   55.8198   31.1769   42.6923 H   0  0  0  0  0  0  0  0  0  0  0  0
   59.2147   32.2812   43.1666 H   0  0  0  0  0  0  0  0  0  0  0  0
   57.5882   32.6739   42.4764 H   0  0  0  0  0  0  0  0  0  0  0  0
   56.0394   33.4778   45.1651 H   0  0  0  0  0  0  0  0  0  0  0  0
   57.1230   32.0806   45.6071 H   0  0  0  0  0  0  0  0  0  0  0  0
   57.3352   34.9319   46.6684 H   0  0  0  0  0  0  0  0  0  0  0  0
   56.7030   33.4821   47.5533 H   0  0  0  0  0  0  0  0  0  0  0  0
   57.8582   32.0693   48.4646 H   0  0  0  0  0  0  0  0  0  0  0  0
   59.6005   31.7429   47.9784 H   0  0  0  0  0  0  0  0  0  0  0  0
   59.2792   34.1251   49.6696 H   0  0  0  0  0  0  0  0  0  0  0  0
   58.7659   32.5892   50.4675 H   0  0  0  0  0  0  0  0  0  0  0  0
   61.9825   34.8629   49.1239 H   0  0  0  0  0  0  0  0  0  0  0  0
   63.7926   35.0345   47.4171 H   0  0  0  0  0  0  0  0  0  0  0  0
   64.5444   32.9993   46.1792 H   0  0  0  0  0  0  0  0  0  0  0  0
   63.4930   30.7854   46.6630 H   0  0  0  0  0  0  0  0  0  0  0  0
   61.6864   30.6054   48.3770 H   0  0  0  0  0  0  0  0  0  0  0  0
   60.7295   33.6837   46.4401 H   0  0  0  0  0  0  0  0  0  0  0  0
   59.8103   32.2103   45.9217 H   0  0  0  0  0  0  0  0  0  0  0  0
   59.2483   35.0833   45.0371 H   0  0  0  0  0  0  0  0  0  0  0  0
   60.0562   33.7824   44.0606 H   0  0  0  0  0  0  0  0  0  0  0  0
   59.2323   30.8205   45.3189 H   0  0  0  0  0  0  0  0  0  0  0  0
   59.6900   29.1235   48.1703 H   0  0  0  0  0  0  0  0  0  0  0  0
   60.5386   28.4825   46.7227 H   0  0  0  0  0  0  0  0  0  0  0  0
   59.9079   30.1644   46.7227 H   0  0  0  0  0  0  0  0  0  0  0  0
  1  2  1  0
  2  3  1  0
  3  4  2  0
  4  5  1  0
  5  6  2  0
  6  7  1  0
  7  8  1  0
  8  9  1  0
  9 10  1  0
 10 11  1  0
 11 12  1  0
 12 13  1  0
 13 14  1  0
 14 15  1  0
 15 16  2  0
 16 17  1  0
 17 18  2  0
 18 19  1  0
 19 20  2  0
 11 21  1  0
 21 22  1  0
  6 23  1  0
 23 24  2  0
 24 25  1  0
 25 26  1  0
 24  3  1  0
 22  8  1  0
 20 15  1  0
  1 27  1  0
  1 28  1  0
  1 29  1  0
  4 30  1  0
  5 31  1  0
  7 32  1  0
  7 33  1  0
  9 34  1  0
  9 35  1  0
 10 36  1  0
 10 37  1  0
 12 38  1  0
 12 39  1  0
 13 40  1  0
 13 41  1  0
 16 42  1  0
 17 43  1  0
 18 44  1  0
 19 45  1  0
 20 46  1  0
 21 47  1  0
 21 48  1  0
 22 49  1  0
 22 50  1  0
 23 51  1  0
 26 52  1  0
 26 53  1  0
 26 54  1  0
M  END
>  <UniqueID>  (21) 
21

>  <SMILES>  (21) 
COc1ccc(CN2CCN(CCOc3ccccc3)CC2)cc1OC

>  <Energy>  (21) 
68.87982658245826

>  <Genealogy>  (21) 
COc1ccc(CN2CCN(CCOc3ccccc3)CC2)cc1OC (3D coordinates assigned)
COc1ccc(CN2CCN(CCOc3ccccc3)CC2)cc1OC (nonaromatic ring conformer: 68.87982658245826 kcal/mol)

>  <smiles>  (21) 
COc1ccc(CN2CCN(CCOc3ccccc3)CC2)cc1OC

>  <score_type>  (21) 
oracle

>  <origin>  (21) 
adg

>  <m_score__min__energy>  (21) 
-8.2400000000000002

>  <m_primary>  (21) 
energy

$$$$
21:0
     RDKit          3D

 51 54  0  0  0  0  0  0  0  0999 V2000
   56.8500   31.3345   42.7852 H   0  0  0  0  0  0  0  0  0  0  0  0
   57.4200   31.6280   43.6790 C   0  0  0  0  0  0  0  0  0  0  0  0
   57.7670   32.9190   43.7970 C   0  0  0  0  0  0  0  0  0  0  0  0
   57.6482   33.5599   42.9109 H   0  0  0  0  0  0  0  0  0  0  0  0
   58.2960   33.5450   45.0250 C   0  0  0  0  0  0  0  0  0  0  0  0
   57.7810   33.2110   46.2900 C   0  0  0  0  0  0  0  0  0  0  0  0
   56.9853   32.4564   46.3761 H   0  0  0  0  0  0  0  0  0  0  0  0
   58.2770   33.8350   47.4390 C   0  0  0  0  0  0  0  0  0  0  0  0
   57.8852   33.5565   48.4284 H   0  0  0  0  0  0  0  0  0  0  0  0
   59.2700   34.8120   47.3310 C   0  0  0  0  0  0  0  0  0  0  0  0
   59.6648   35.2972   48.2358 H   0  0  0  0  0  0  0  0  0  0  0  0
   59.7620   35.1730   46.0730 C   0  0  0  0  0  0  0  0  0  0  0  0
   60.5360   35.9501   45.9885 H   0  0  0  0  0  0  0  0  0  0  0  0
   59.2720   34.5480   44.9220 C   0  0  0  0  0  0  0  0  0  0  0  0
   59.6527   34.8434   43.9332 H   0  0  0  0  0  0  0  0  0  0  0  0
   57.7450   30.5730   44.6570 C   0  0  0  0  0  0  0  0  0  0  0  0
   56.8270   29.7360   45.1780 N   0  0  0  0  0  0  0  0  0  0  0  0
   57.4800   28.9220   45.9930 N   0  0  0  0  0  0  0  0  0  0  0  0
   58.7740   29.2900   45.9300 C   0  0  0  0  0  0  0  0  0  0  0  0
   59.8740   28.6460   46.7140 C   0  0  0  0  0  0  0  0  0  0  0  0
   60.7835   29.2585   46.6270 H   0  0  0  0  0  0  0  0  0  0  0  0
   60.0473   27.6376   46.3101 H   0  0  0  0  0  0  0  0  0  0  0  0
   59.5080   28.5240   48.1430 N   0  0  0  0  0  0  0  0  0  0  0  0
   58.5500   29.5630   48.5900 C   0  0  0  0  0  0  0  0  0  0  0  0
   58.2107   29.3193   49.6076 H   0  0  0  0  0  0  0  0  0  0  0  0
   57.7076   29.5760   47.8827 H   0  0  0  0  0  0  0  0  0  0  0  0
   59.1840   30.9630   48.6000 C   0  0  0  0  0  0  0  0  0  0  0  0
   58.6104   31.6151   49.2751 H   0  0  0  0  0  0  0  0  0  0  0  0
   59.1683   31.3675   47.5772 H   0  0  0  0  0  0  0  0  0  0  0  0
   60.5740   30.8950   49.0610 N   0  0  0  0  0  0  0  0  0  0  0  0
   61.5280   31.8760   48.6190 C   0  0  0  0  0  0  0  0  0  0  0  0
   62.4340   31.5380   47.6010 C   0  0  0  0  0  0  0  0  0  0  0  0
   62.4220   30.5240   47.1749 H   0  0  0  0  0  0  0  0  0  0  0  0
   63.3500   32.4780   47.1250 C   0  0  0  0  0  0  0  0  0  0  0  0
   64.0545   32.2043   46.3258 H   0  0  0  0  0  0  0  0  0  0  0  0
   63.3710   33.7650   47.6640 C   0  0  0  0  0  0  0  0  0  0  0  0
   64.0869   34.5079   47.2825 H   0  0  0  0  0  0  0  0  0  0  0  0
   62.4860   34.1120   48.6860 C   0  0  0  0  0  0  0  0  0  0  0  0
   62.5057   35.1297   49.1031 H   0  0  0  0  0  0  0  0  0  0  0  0
   61.5700   33.1710   49.1860 C   0  0  0  0  0  0  0  0  0  0  0  0
   60.6370   33.5720   50.2960 C   0  0  0  0  0  0  0  0  0  0  0  0
   61.1126   33.3676   51.2666 H   0  0  0  0  0  0  0  0  0  0  0  0
   60.4128   34.6460   50.2165 H   0  0  0  0  0  0  0  0  0  0  0  0
   59.7035   32.9956   50.2165 H   0  0  0  0  0  0  0  0  0  0  0  0
   61.0180   29.7170   49.8080 C   0  0  0  0  0  0  0  0  0  0  0  0
   60.4964   29.6846   50.7759 H   0  0  0  0  0  0  0  0  0  0  0  0
   62.1048   29.7843   49.9642 H   0  0  0  0  0  0  0  0  0  0  0  0
   60.7070   28.4280   49.0210 C   0  0  0  0  0  0  0  0  0  0  0  0
   60.5420   27.6144   49.7427 H   0  0  0  0  0  0  0  0  0  0  0  0
   61.5681   28.2443   48.3617 H   0  0  0  0  0  0  0  0  0  0  0  0
   58.9440   30.2990   45.1130 O   0  0  0  0  0  0  0  0  0  0  0  0
  1  2  1  0
  2  3  2  0
  3  4  1  0
  3  5  1  0
  5  6  2  0
  6  7  1  0
  6  8  1  0
  8  9  1  0
  8 10  2  0
 10 11  1  0
 10 12  1  0
 12 13  1  0
 12 14  2  0
 14 15  1  0
  2 16  1  0
 16 17  2  0
 17 18  1  0
 18 19  2  0
 19 20  1  0
 20 21  1  0
 20 22  1  0
 20 23  1  0
 23 24  1  0
 24 25  1  0
 24 26  1  0
 24 27  1  0
 27 28  1  0
 27 29  1  0
 27 30  1  0
 30 31  1  0
 31 32  2  0
 32 33  1  0
 32 34  1  0
 34 35  1  0
 34 36  2  0
 36 37  1  0
 36 38  1  0
 38 39  1  0
 38 40  2  0
 40 41  1  0
 41 42  1  0
 41 43  1  0
 41 44  1  0
 30 45  1  0
 45 46  1  0
 45 47  1  0
 45 48  1  0
 48 49  1  0
 48 50  1  0
 19 51  1  0
 14  5  1  0
 51 16  1  0
 48 23  1  0
 40 31  1  0
M  END
>  <UniqueID>  (22) 
22

>  <SMILES>  (22) 
Cc1ccccc1N1CCN(Cc2nnc(/C=C\c3ccccc3)o2)CC1

>  <Energy>  (22) 
107.94192982465493

>  <Genealogy>  (22) 
Cc1ccccc1N1CCN(Cc2nnc(/C=C\c3ccccc3)o2)CC1 (cis-trans isomerization)
Cc1ccccc1N1CCN(Cc2nnc(/C=C\c3ccccc3)o2)CC1 (3D coordinates assigned)
Cc1ccccc1N1CCN(Cc2nnc(/C=C\c3ccccc3)o2)CC1 (nonaromatic ring conformer: 107.94192982465493 kcal/mol)

>  <smiles>  (22) 
Cc1ccccc1N1CCN(Cc2nnc(C=Cc3ccccc3)o2)CC1

>  <score_type>  (22) 
oracle

>  <origin>  (22) 
adg

>  <m_score__min__energy>  (22) 
-8.1899999999999995

>  <m_primary>  (22) 
energy

$$$$
22:0
     RDKit          3D

 47 49  0  0  0  0  0  0  0  0999 V2000
   55.1080   29.7160   43.6650 C   0  0  0  0  0  0  0  0  0  0  0  0
   55.5900   29.0980   44.8540 O   0  0  0  0  0  0  0  0  0  0  0  0
   56.9310   29.1090   45.2700 C   0  0  0  0  0  0  0  0  0  0  0  0
   57.6080   27.9300   45.6380 C   0  0  0  0  0  0  0  0  0  0  0  0
   58.9430   27.9820   46.0460 C   0  0  0  0  0  0  0  0  0  0  0  0
   59.6140   29.2030   46.0860 C   0  0  0  0  0  0  0  0  0  0  0  0
   58.9550   30.3800   45.7230 C   0  0  0  0  0  0  0  0  0  0  0  0
   57.6060   30.3420   45.3150 C   0  0  0  0  0  0  0  0  0  0  0  0
   56.8990   31.4970   44.9370 O   0  0  0  0  0  0  0  0  0  0  0  0
   57.4510   32.6290   44.2640 C   0  0  0  0  0  0  0  0  0  0  0  0
   57.6480   33.7960   45.2520 C   0  0  0  0  0  0  0  0  0  0  0  0
   58.8640   33.6770   46.0860 N   0  0  0  0  0  0  0  0  0  0  0  0
   59.9160   34.6470   45.7420 C   0  0  0  0  0  0  0  0  0  0  0  0
   61.2250   34.2060   46.3930 C   0  0  0  0  0  0  0  0  0  0  0  0
   61.0290   33.9110   47.8220 N   0  0  0  0  0  0  0  0  0  0  0  0
   62.1810   33.6530   48.6520 C   0  0  0  0  0  0  0  0  0  0  0  0
   62.3020   34.2550   49.9190 C   0  0  0  0  0  0  0  0  0  0  0  0
   63.4230   34.0070   50.7180 C   0  0  0  0  0  0  0  0  0  0  0  0
   64.4330   33.1580   50.2620 C   0  0  0  0  0  0  0  0  0  0  0  0
   64.3260   32.5550   49.0060 C   0  0  0  0  0  0  0  0  0  0  0  0
   63.2080   32.8010   48.2040 C   0  0  0  0  0  0  0  0  0  0  0  0
   59.7080   34.1220   48.4320 C   0  0  0  0  0  0  0  0  0  0  0  0
   58.5780   33.5760   47.5370 C   0  0  0  0  0  0  0  0  0  0  0  0
   54.4514   30.5579   43.9296 H   0  0  0  0  0  0  0  0  0  0  0  0
   55.9584   30.0861   43.0735 H   0  0  0  0  0  0  0  0  0  0  0  0
   54.5419   28.9814   43.0735 H   0  0  0  0  0  0  0  0  0  0  0  0
   57.0831   26.9639   45.6040 H   0  0  0  0  0  0  0  0  0  0  0  0
   59.4652   27.0583   46.3360 H   0  0  0  0  0  0  0  0  0  0  0  0
   60.6662   29.2399   46.4045 H   0  0  0  0  0  0  0  0  0  0  0  0
   59.4907   31.3402   45.7556 H   0  0  0  0  0  0  0  0  0  0  0  0
   58.4232   32.3539   43.8290 H   0  0  0  0  0  0  0  0  0  0  0  0
   56.7586   32.9457   43.4701 H   0  0  0  0  0  0  0  0  0  0  0  0
   57.7136   34.7305   44.6754 H   0  0  0  0  0  0  0  0  0  0  0  0
   56.7881   33.7822   45.9378 H   0  0  0  0  0  0  0  0  0  0  0  0
   60.0409   34.6849   44.6498 H   0  0  0  0  0  0  0  0  0  0  0  0
   59.6360   35.6465   46.1062 H   0  0  0  0  0  0  0  0  0  0  0  0
   61.5924   33.3017   45.8859 H   0  0  0  0  0  0  0  0  0  0  0  0
   61.9558   35.0229   46.3003 H   0  0  0  0  0  0  0  0  0  0  0  0
   61.5093   34.9251   50.2831 H   0  0  0  0  0  0  0  0  0  0  0  0
   63.5088   34.4815   51.7067 H   0  0  0  0  0  0  0  0  0  0  0  0
   65.3136   32.9636   50.8918 H   0  0  0  0  0  0  0  0  0  0  0  0
   65.1225   31.8860   48.6481 H   0  0  0  0  0  0  0  0  0  0  0  0
   63.1301   32.3252   47.2153 H   0  0  0  0  0  0  0  0  0  0  0  0
   59.6761   33.6056   49.4027 H   0  0  0  0  0  0  0  0  0  0  0  0
   59.5554   35.2040   48.5585 H   0  0  0  0  0  0  0  0  0  0  0  0
   58.4189   32.5165   47.7865 H   0  0  0  0  0  0  0  0  0  0  0  0
   57.6879   34.1921   47.7323 H   0  0  0  0  0  0  0  0  0  0  0  0
  1  2  1  0
  2  3  1  0
  3  4  2  0
  4  5  1  0
  5  6  2  0
  6  7  1  0
  7  8  2  0
  8  9  1  0
  9 10  1  0
 10 11  1  0
 11 12  1  0
 12 13  1  0
 13 14  1  0
 14 15  1  0
 15 16  1  0
 16 17  2  0
 17 18  1  0
 18 19  2  0
 19 20  1  0
 20 21  2  0
 15 22  1  0
 22 23  1  0
  8  3  1  0
 23 12  1  0
 21 16  1  0
  1 24  1  0
  1 25  1  0
  1 26  1  0
  4 27  1  0
  5 28  1  0
  6 29  1  0
  7 30  1  0
 10 31  1  0
 10 32  1  0
 11 33  1  0
 11 34  1  0
 13 35  1  0
 13 36  1  0
 14 37  1  0
 14 38  1  0
 17 39  1  0
 18 40  1  0
 19 41  1  0
 20 42  1  0
 21 43  1  0
 22 44  1  0
 22 45  1  0
 23 46  1  0
 23 47  1  0
M  END
>  <UniqueID>  (23) 
23

>  <SMILES>  (23) 
COc1ccccc1OCCN1CCN(c2ccccc2)CC1

>  <Energy>  (23) 
59.5558033932941

>  <Genealogy>  (23) 
COc1ccccc1OCCN1CCN(c2ccccc2)CC1 (3D coordinates assigned)
COc1ccccc1OCCN1CCN(c2ccccc2)CC1 (nonaromatic ring conformer: 59.5558033932941 kcal/mol)

>  <smiles>  (23) 
COc1ccccc1OCCN1CCN(c2ccccc2)CC1

>  <score_type>  (23) 
oracle

>  <origin>  (23) 
adg

>  <m_score__min__energy>  (23) 
-8.3100000000000005

>  <m_primary>  (23) 
energy

$$$$
23:0
     RDKit          3D

 58 61  0  0  0  0  0  0  0  0999 V2000
   59.3760   33.6680   51.5770 C   0  0  0  0  0  0  0  0  0  0  0  0
   59.8710   32.5770   50.6370 C   0  0  0  0  0  0  0  0  0  0  0  0
   61.2730   32.8320   50.2590 N   0  0  0  0  0  0  0  0  0  0  0  0
   61.4090   33.9730   49.3400 C   0  0  0  0  0  0  0  0  0  0  0  0
   60.4940   33.8180   48.1490 C   0  0  0  0  0  0  0  0  0  0  0  0
   59.3690   34.6580   48.0590 C   0  0  0  0  0  0  0  0  0  0  0  0
   58.5180   34.5920   46.9520 C   0  0  0  0  0  0  0  0  0  0  0  0
   58.7810   33.6900   45.9210 C   0  0  0  0  0  0  0  0  0  0  0  0
   59.8850   32.8410   46.0000 C   0  0  0  0  0  0  0  0  0  0  0  0
   60.7360   32.8790   47.1160 C   0  0  0  0  0  0  0  0  0  0  0  0
   62.1000   31.7030   47.1740 S   0  0  0  0  0  0  0  0  0  0  0  0
   61.0320   30.3370   47.6440 C   0  0  0  0  0  0  0  0  0  0  0  0
   60.7540   30.0900   48.9610 N   0  0  0  0  0  0  0  0  0  0  0  0
   59.9540   29.0380   49.3340 C   0  0  0  0  0  0  0  0  0  0  0  0
   59.4090   28.2080   48.3990 N   0  0  0  0  0  0  0  0  0  0  0  0
   59.6780   28.4660   47.0960 C   0  0  0  0  0  0  0  0  0  0  0  0
   60.4690   29.4880   46.6960 C   0  0  0  0  0  0  0  0  0  0  0  0
   60.5700   29.5090   45.3580 N   0  0  0  0  0  0  0  0  0  0  0  0
   59.8170   28.4390   44.9770 C   0  0  0  0  0  0  0  0  0  0  0  0
   59.2580   27.7850   46.0260 N   0  0  0  0  0  0  0  0  0  0  0  0
   58.4150   26.6330   45.9920 C   0  0  0  0  0  0  0  0  0  0  0  0
   57.0270   26.7830   45.9830 C   0  0  0  0  0  0  0  0  0  0  0  0
   56.1820   25.6560   45.9550 C   0  0  0  0  0  0  0  0  0  0  0  0
   54.7860   25.7950   45.9530 O   0  0  0  0  0  0  0  0  0  0  0  0
   53.8670   24.7940   45.5210 C   0  0  0  0  0  0  0  0  0  0  0  0
   56.7570   24.3630   45.9500 C   0  0  0  0  0  0  0  0  0  0  0  0
   55.9870   23.1870   45.9270 O   0  0  0  0  0  0  0  0  0  0  0  0
   55.9800   22.2320   44.8640 C   0  0  0  0  0  0  0  0  0  0  0  0
   58.1550   24.2160   45.9780 C   0  0  0  0  0  0  0  0  0  0  0  0
   58.6870   22.9180   45.9800 O   0  0  0  0  0  0  0  0  0  0  0  0
   59.3010   22.2940   44.8570 C   0  0  0  0  0  0  0  0  0  0  0  0
   58.9800   25.3540   45.9840 C   0  0  0  0  0  0  0  0  0  0  0  0
   59.5213   33.3477   52.6193 H   0  0  0  0  0  0  0  0  0  0  0  0
   59.9425   34.5933   51.3954 H   0  0  0  0  0  0  0  0  0  0  0  0
   58.3067   33.8511   51.3954 H   0  0  0  0  0  0  0  0  0  0  0  0
   59.8019   31.6024   51.1423 H   0  0  0  0  0  0  0  0  0  0  0  0
   59.2485   32.5732   49.7301 H   0  0  0  0  0  0  0  0  0  0  0  0
   61.8060   33.0690   51.1280 H   0  0  0  0  0  0  0  0  0  0  0  0
   61.1504   34.8988   49.8747 H   0  0  0  0  0  0  0  0  0  0  0  0
   62.4482   34.0136   48.9817 H   0  0  0  0  0  0  0  0  0  0  0  0
   59.1571   35.3734   48.8673 H   0  0  0  0  0  0  0  0  0  0  0  0
   57.6400   35.2521   46.8939 H   0  0  0  0  0  0  0  0  0  0  0  0
   58.1172   33.6481   45.0449 H   0  0  0  0  0  0  0  0  0  0  0  0
   60.0905   32.1359   45.1811 H   0  0  0  0  0  0  0  0  0  0  0  0
   61.1550   30.7110   49.6980 H   0  0  0  0  0  0  0  0  0  0  0  0
   59.7501   28.8625   50.4006 H   0  0  0  0  0  0  0  0  0  0  0  0
   59.6771   28.1371   43.9285 H   0  0  0  0  0  0  0  0  0  0  0  0
   56.5885   27.7917   45.9979 H   0  0  0  0  0  0  0  0  0  0  0  0
   53.4182   24.3051   46.3983 H   0  0  0  0  0  0  0  0  0  0  0  0
   53.0753   25.2597   44.9157 H   0  0  0  0  0  0  0  0  0  0  0  0
   54.3985   24.0449   44.9157 H   0  0  0  0  0  0  0  0  0  0  0  0
   55.9725   21.2155   45.2844 H   0  0  0  0  0  0  0  0  0  0  0  0
   55.0829   22.3793   44.2447 H   0  0  0  0  0  0  0  0  0  0  0  0
   56.8792   22.3661   44.2447 H   0  0  0  0  0  0  0  0  0  0  0  0
   60.0328   21.5503   45.2054 H   0  0  0  0  0  0  0  0  0  0  0  0
   58.5321   21.7949   44.2490 H   0  0  0  0  0  0  0  0  0  0  0  0
   59.8125   23.0548   44.2490 H   0  0  0  0  0  0  0  0  0  0  0  0
   60.0739   25.2380   45.9824 H   0  0  0  0  0  0  0  0  0  0  0  0
  1  2  1  0
  2  3  1  0
  3  4  1  0
  4  5  1  0
  5  6  2  0
  6  7  1  0
  7  8  2  0
  8  9  1  0
  9 10  2  0
 10 11  1  0
 11 12  1  0
 12 13  2  0
 13 14  1  0
 14 15  2  0
 15 16  1  0
 16 17  2  0
 17 18  1  0
 18 19  2  0
 19 20  1  0
 20 21  1  0
 21 22  2  0
 22 23  1  0
 23 24  1  0
 24 25  1  0
 23 26  2  0
 26 27  1  0
 27 28  1  0
 26 29  1  0
 29 30  1  0
 30 31  1  0
 29 32  2  0
 10  5  1  0
 17 12  1  0
 32 21  1  0
 20 16  1  0
  1 33  1  0
  1 34  1  0
  1 35  1  0
  2 36  1  0
  2 37  1  0
  3 38  1  0
  4 39  1  0
  4 40  1  0
  6 41  1  0
  7 42  1  0
  8 43  1  0
  9 44  1  0
 13 45  1  0
 14 46  1  0
 19 47  1  0
 22 48  1  0
 25 49  1  0
 25 50  1  0
 25 51  1  0
 28 52  1  0
 28 53  1  0
 28 54  1  0
 31 55  1  0
 31 56  1  0
 31 57  1  0
 32 58  1  0
M  CHG  1  13   1
M  END
>  <UniqueID>  (24) 
24

>  <SMILES>  (24) 
CCNCc1ccccc1Sc1[nH+]cnc2c1ncn2-c1cc(OC)c(OC)c(OC)c1

>  <Energy>  (24) 
107.4986448036482

>  <Genealogy>  (24) 
CCNCc1ccccc1Sc1[nH+]cnc2c1ncn2-c1cc(OC)c(OC)c(OC)c1 (protonated)
CCNCc1ccccc1Sc1[nH+]cnc2c1ncn2-c1cc(OC)c(OC)c(OC)c1 (3D coordinates assigned)
CCNCc1ccccc1Sc1[nH+]cnc2c1ncn2-c1cc(OC)c(OC)c(OC)c1 (optimized conformer: 107.4986448036482 kcal/mol)

>  <smiles>  (24) 
CCNCc1ccccc1Sc1ncnc2c1ncn2-c1cc(OC)c(OC)c(OC)c1

>  <score_type>  (24) 
oracle

>  <origin>  (24) 
adg

>  <m_score__min__energy>  (24) 
-6.6100000000000003

>  <m_primary>  (24) 
energy

$$$$
24:0
     RDKit          3D

 48 52  0  0  0  0  0  0  0  0999 V2000
   60.0160   35.2570   46.7530 C   0  0  0  0  0  0  0  0  0  0  0  0
   59.2490   34.1750   46.0640 C   0  0  0  0  0  0  0  0  0  0  0  0
   58.5620   34.4460   44.8590 C   0  0  0  0  0  0  0  0  0  0  0  0
   57.8470   33.4220   44.2220 C   0  0  0  0  0  0  0  0  0  0  0  0
   57.8410   32.1600   44.8100 C   0  0  0  0  0  0  0  0  0  0  0  0
   58.5190   31.9340   45.9800 C   0  0  0  0  0  0  0  0  0  0  0  0
   59.2130   32.9190   46.6030 N   0  0  0  0  0  0  0  0  0  0  0  0
   58.3780   30.5300   46.4230 C   0  0  0  0  0  0  0  0  0  0  0  0
   57.5340   29.9440   45.3780 N   0  0  0  0  0  0  0  0  0  0  0  0
   57.1000   28.5740   45.3470 C   0  0  0  0  0  0  0  0  0  0  0  0
   55.8700   28.3230   45.2420 O   0  0  0  0  0  0  0  0  0  0  0  0
   58.0570   27.4980   45.4330 N   0  0  0  0  0  0  0  0  0  0  0  0
   57.7230   26.0600   45.4110 C   0  0  2  0  0  0  0  0  0  0  0  0
   58.8880   25.2150   45.9980 C   0  0  0  0  0  0  0  0  0  0  0  0
   58.5100   23.7160   45.9880 C   0  0  1  0  0  0  0  0  0  0  0  0
   57.2530   23.4970   46.8580 C   0  0  0  0  0  0  0  0  0  0  0  0
   56.0810   24.3200   46.2850 C   0  0  2  0  0  0  0  0  0  0  0  0
   55.7880   23.8660   44.8400 C   0  0  0  0  0  0  0  0  0  0  0  0
   57.0410   24.0870   43.9670 C   0  0  2  0  0  0  0  0  0  0  0  0
   58.2180   23.2670   44.5390 C   0  0  0  0  0  0  0  0  0  0  0  0
   57.4110   25.5880   43.9640 C   0  0  0  0  0  0  0  0  0  0  0  0
   56.4580   25.8160   46.2860 C   0  0  0  0  0  0  0  0  0  0  0  0
   57.1720   30.9220   44.3460 C   0  0  0  0  0  0  0  0  0  0  0  0
   59.9277   35.1324   47.8423 H   0  0  0  0  0  0  0  0  0  0  0  0
   61.0751   35.1981   46.4619 H   0  0  0  0  0  0  0  0  0  0  0  0
   59.6097   36.2369   46.4619 H   0  0  0  0  0  0  0  0  0  0  0  0
   58.5882   35.4556   44.4230 H   0  0  0  0  0  0  0  0  0  0  0  0
   57.3055   33.6105   43.2832 H   0  0  0  0  0  0  0  0  0  0  0  0
   59.3562   30.0290   46.4698 H   0  0  0  0  0  0  0  0  0  0  0  0
   57.9526   30.4322   47.4327 H   0  0  0  0  0  0  0  0  0  0  0  0
   59.0650   27.7600   45.5180 H   0  0  0  0  0  0  0  0  0  0  0  0
   59.7914   25.3671   45.3891 H   0  0  0  0  0  0  0  0  0  0  0  0
   59.0789   25.5327   47.0337 H   0  0  0  0  0  0  0  0  0  0  0  0
   59.3446   23.1249   46.3931 H   0  0  0  0  0  0  0  0  0  0  0  0
   56.9870   22.4296   46.8558 H   0  0  0  0  0  0  0  0  0  0  0  0
   57.4594   23.8215   47.8886 H   0  0  0  0  0  0  0  0  0  0  0  0
   55.1861   24.1641   46.9054 H   0  0  0  0  0  0  0  0  0  0  0  0
   55.5233   22.7983   44.8377 H   0  0  0  0  0  0  0  0  0  0  0  0
   54.9505   24.4525   44.4342 H   0  0  0  0  0  0  0  0  0  0  0  0
   56.8323   23.7601   42.9377 H   0  0  0  0  0  0  0  0  0  0  0  0
   57.9563   22.1986   44.5330 H   0  0  0  0  0  0  0  0  0  0  0  0
   59.1119   23.4319   43.9195 H   0  0  0  0  0  0  0  0  0  0  0  0
   58.2969   25.7438   43.3308 H   0  0  0  0  0  0  0  0  0  0  0  0
   56.5641   26.1684   43.5690 H   0  0  0  0  0  0  0  0  0  0  0  0
   55.6192   26.4010   45.8808 H   0  0  0  0  0  0  0  0  0  0  0  0
   56.6739   26.1279   47.3185 H   0  0  0  0  0  0  0  0  0  0  0  0
   57.5500   30.6143   43.3599 H   0  0  0  0  0  0  0  0  0  0  0  0
   56.0853   31.0376   44.2208 H   0  0  0  0  0  0  0  0  0  0  0  0
  1  2  1  0
  2  3  1  0
  3  4  2  0
  4  5  1  0
  5  6  2  0
  6  7  1  0
  6  8  1  0
  8  9  1  0
  9 10  1  0
 10 11  2  0
 10 12  1  0
 13 12  1  6
 13 14  1  0
 14 15  1  0
 15 16  1  0
 16 17  1  0
 17 18  1  0
 18 19  1  0
 19 20  1  0
 19 21  1  0
 17 22  1  0
  9 23  1  0
  7  2  2  0
 21 13  1  0
 23  5  1  0
 22 13  1  0
 20 15  1  0
  1 24  1  0
  1 25  1  0
  1 26  1  0
  3 27  1  0
  4 28  1  0
  8 29  1  0
  8 30  1  0
 12 31  1  0
 14 32  1  0
 14 33  1  0
 15 34  1  1
 16 35  1  0
 16 36  1  0
 17 37  1  1
 18 38  1  0
 18 39  1  0
 19 40  1  6
 20 41  1  0
 20 42  1  0
 21 43  1  0
 21 44  1  0
 22 45  1  0
 22 46  1  0
 23 47  1  0
 23 48  1  0
M  END
>  <UniqueID>  (25) 
25

>  <SMILES>  (25) 
Cc1ccc2c(n1)CN(C(=O)NC13CC4CC(CC(C4)C1)C3)C2

>  <Energy>  (25) 
59.38795987243042

>  <Genealogy>  (25) 
Cc1ccc2c(n1)CN(C(=O)NC13CC4CC(CC(C4)C1)C3)C2 (3D coordinates assigned)
Cc1ccc2c(n1)CN(C(=O)NC13CC4CC(CC(C4)C1)C3)C2 (nonaromatic ring conformer: 59.38795987243042 kcal/mol)

>  <smiles>  (25) 
Cc1ccc2c(n1)CN(C(=O)NC13CC4CC(CC(C4)C1)C3)C2

>  <score_type>  (25) 
oracle

>  <origin>  (25) 
adg

>  <m_score__min__energy>  (25) 
-7.8399999999999999

>  <m_primary>  (25) 
energy

$$$$
25:0
     RDKit          3D

 32 32  0  0  0  0  0  0  0  0999 V2000
   56.5400   23.7120   43.3590 C   0  0  0  0  0  0  0  0  0  0  0  0
   57.3150   23.8190   44.6680 C   0  0  0  0  0  0  0  0  0  0  0  0
   56.5410   24.4960   45.6560 O   0  0  0  0  0  0  0  0  0  0  0  0
   56.3020   25.8750   45.6360 C   0  0  0  0  0  0  0  0  0  0  0  0
   55.1890   26.3430   46.0000 O   0  0  0  0  0  0  0  0  0  0  0  0
   57.3950   26.8010   45.2170 C   0  0  0  0  0  0  0  0  0  0  0  0
   57.1910   28.1120   45.8330 N   0  0  0  0  0  0  0  0  0  0  0  0
   56.6830   29.2560   44.6290 S   0  0  0  0  0  0  0  0  0  0  0  0
   57.0270   28.7390   43.2580 O   0  0  0  0  0  0  0  0  0  0  0  0
   55.1940   29.4360   44.7120 O   0  0  0  0  0  0  0  0  0  0  0  0
   57.4620   30.8100   44.9100 C   0  0  0  0  0  0  0  0  0  0  0  0
   57.3950   31.8060   43.9290 C   0  0  0  0  0  0  0  0  0  0  0  0
   57.9960   33.0510   44.1450 C   0  0  0  0  0  0  0  0  0  0  0  0
   58.6560   33.3160   45.3550 C   0  0  0  0  0  0  0  0  0  0  0  0
   59.3320   34.6370   45.5730 C   0  0  0  0  0  0  0  0  0  0  0  0
   58.7330   32.3110   46.3320 C   0  0  0  0  0  0  0  0  0  0  0  0
   58.1320   31.0680   46.1140 C   0  0  0  0  0  0  0  0  0  0  0  0
   55.4718   23.5645   43.5763 H   0  0  0  0  0  0  0  0  0  0  0  0
   56.6717   24.6369   42.7782 H   0  0  0  0  0  0  0  0  0  0  0  0
   56.9174   22.8574   42.7782 H   0  0  0  0  0  0  0  0  0  0  0  0
   57.5570   22.8083   45.0284 H   0  0  0  0  0  0  0  0  0  0  0  0
   58.2378   24.3900   44.4880 H   0  0  0  0  0  0  0  0  0  0  0  0
   58.3643   26.3923   45.5386 H   0  0  0  0  0  0  0  0  0  0  0  0
   57.3846   26.9064   44.1221 H   0  0  0  0  0  0  0  0  0  0  0  0
   56.4060   28.0300   46.5210 H   0  0  0  0  0  0  0  0  0  0  0  0
   56.8675   31.6092   42.9840 H   0  0  0  0  0  0  0  0  0  0  0  0
   57.9511   33.8244   43.3641 H   0  0  0  0  0  0  0  0  0  0  0  0
   59.4286   34.8258   46.6524 H   0  0  0  0  0  0  0  0  0  0  0  0
   60.3311   34.6179   45.1133 H   0  0  0  0  0  0  0  0  0  0  0  0
   58.7321   35.4362   45.1133 H   0  0  0  0  0  0  0  0  0  0  0  0
   59.2687   32.5025   47.2734 H   0  0  0  0  0  0  0  0  0  0  0  0
   58.1849   30.2898   46.8896 H   0  0  0  0  0  0  0  0  0  0  0  0
  1  2  1  0
  2  3  1  0
  3  4  1  0
  4  5  2  0
  4  6  1  0
  6  7  1  0
  7  8  1  0
  8  9  2  0
  8 10  2  0
  8 11  1  0
 11 12  2  0
 12 13  1  0
 13 14  2  0
 14 15  1  0
 14 16  1  0
 16 17  2  0
 17 11  1  0
  1 18  1  0
  1 19  1  0
  1 20  1  0
  2 21  1  0
  2 22  1  0
  6 23  1  0
  6 24  1  0
  7 25  1  0
 12 26  1  0
 13 27  1  0
 15 28  1  0
 15 29  1  0
 15 30  1  0
 16 31  1  0
 17 32  1  0
M  END
>  <UniqueID>  (26) 
26

>  <SMILES>  (26) 
CCOC(=O)CNS(=O)(=O)c1ccc(C)cc1

>  <Energy>  (26) 
21.23785048434642

>  <Genealogy>  (26) 
CCOC(=O)CNS(=O)(=O)c1ccc(C)cc1 (3D coordinates assigned)
CCOC(=O)CNS(=O)(=O)c1ccc(C)cc1 (optimized conformer: 21.23785048434642 kcal/mol)

>  <smiles>  (26) 
CCOC(=O)CNS(=O)(=O)c1ccc(C)cc1

>  <score_type>  (26) 
oracle

>  <origin>  (26) 
adg

>  <m_score__min__energy>  (26) 
-6.7999999999999998

>  <m_primary>  (26) 
energy

$$$$
26:0
     RDKit          3D

 46 47  0  0  0  0  0  0  0  0999 V2000
   61.3390   31.0010   47.6080 H   0  0  0  0  0  0  0  0  0  0  0  0
   61.0690   30.2010   47.0490 O   0  0  0  0  0  0  0  0  0  0  0  0
   59.7470   29.9880   46.7330 N   0  0  0  0  0  0  0  0  0  0  0  0
   59.0300   30.5190   47.2750 H   0  0  0  0  0  0  0  0  0  0  0  0
   59.3810   29.1910   45.7650 C   0  0  0  0  0  0  0  0  0  0  0  0
   58.2150   29.5570   44.9160 C   0  0  0  0  0  0  0  0  0  0  0  0
   57.3900   30.6550   45.2360 C   0  0  0  0  0  0  0  0  0  0  0  0
   57.6990   31.4730   46.3300 O   0  0  0  0  0  0  0  0  0  0  0  0
   58.3590   32.7050   46.2340 C   0  0  0  0  0  0  0  0  0  0  0  0
   58.0730   33.5320   45.1410 C   0  0  0  0  0  0  0  0  0  0  0  0
   57.3453   33.2043   44.3840 H   0  0  0  0  0  0  0  0  0  0  0  0
   58.7050   34.7700   45.0050 C   0  0  0  0  0  0  0  0  0  0  0  0
   58.4678   35.4172   44.1478 H   0  0  0  0  0  0  0  0  0  0  0  0
   59.6370   35.1860   45.9560 C   0  0  0  0  0  0  0  0  0  0  0  0
   60.1260   36.1659   45.8530 H   0  0  0  0  0  0  0  0  0  0  0  0
   59.9510   34.3600   47.0400 C   0  0  0  0  0  0  0  0  0  0  0  0
   60.6896   34.6911   47.7849 H   0  0  0  0  0  0  0  0  0  0  0  0
   59.3250   33.1050   47.1820 C   0  0  0  0  0  0  0  0  0  0  0  0
   59.6570   32.2290   48.2260 O   0  0  0  0  0  0  0  0  0  0  0  0
   58.9460   32.1180   49.4550 C   0  0  0  0  0  0  0  0  0  0  0  0
   57.9192   32.4889   49.3202 H   0  0  0  0  0  0  0  0  0  0  0  0
   59.4512   32.7156   50.2281 H   0  0  0  0  0  0  0  0  0  0  0  0
   58.9070   30.6610   49.8830 C   0  0  0  0  0  0  0  0  0  0  0  0
   58.9054   30.6014   50.9814 H   0  0  0  0  0  0  0  0  0  0  0  0
   57.9959   30.1873   49.4888 H   0  0  0  0  0  0  0  0  0  0  0  0
   59.7915   30.1392   49.4888 H   0  0  0  0  0  0  0  0  0  0  0  0
   56.3090   30.9410   44.4550 N   0  0  0  0  0  0  0  0  0  0  0  0
   55.9800   30.1910   43.3730 C   0  0  0  0  0  0  0  0  0  0  0  0
   55.0968   30.4511   42.7711 H   0  0  0  0  0  0  0  0  0  0  0  0
   56.7610   29.0920   43.0250 C   0  0  0  0  0  0  0  0  0  0  0  0
   56.5000   28.4805   42.1486 H   0  0  0  0  0  0  0  0  0  0  0  0
   57.8770   28.7740   43.7980 C   0  0  0  0  0  0  0  0  0  0  0  0
   58.4969   27.9052   43.5316 H   0  0  0  0  0  0  0  0  0  0  0  0
   60.1450   28.0160   45.4170 N   0  0  0  0  0  0  0  0  0  0  0  0
   60.1560   27.7390   44.4090 H   0  0  0  0  0  0  0  0  0  0  0  0
   60.7510   27.0680   46.3620 C   0  0  0  0  0  0  0  0  0  0  0  0
   61.6015   26.5729   45.8704 H   0  0  0  0  0  0  0  0  0  0  0  0
   61.0742   27.6348   47.2476 H   0  0  0  0  0  0  0  0  0  0  0  0
   59.7590   25.9980   46.8260 C   0  0  0  0  0  0  0  0  0  0  0  0
   60.3015   25.0545   46.9860 H   0  0  0  0  0  0  0  0  0  0  0  0
   59.2903   26.3466   47.7581 H   0  0  0  0  0  0  0  0  0  0  0  0
   58.4390   25.7200   45.5950 S   0  0  0  0  0  0  0  0  0  0  0  0
   57.1570   26.5920   46.5470 C   0  0  0  0  0  0  0  0  0  0  0  0
   57.3473   26.4625   47.6226 H   0  0  0  0  0  0  0  0  0  0  0  0
   57.1794   27.6630   46.2970 H   0  0  0  0  0  0  0  0  0  0  0  0
   56.1692   26.1777   46.2970 H   0  0  0  0  0  0  0  0  0  0  0  0
  1  2  1  0
  2  3  1  0
  3  4  1  0
  3  5  2  0
  5  6  1  0
  6  7  2  0
  7  8  1  0
  8  9  1  0
  9 10  2  0
 10 11  1  0
 10 12  1  0
 12 13  1  0
 12 14  2  0
 14 15  1  0
 14 16  1  0
 16 17  1  0
 16 18  2  0
 18 19  1  0
 19 20  1  0
 20 21  1  0
 20 22  1  0
 20 23  1  0
 23 24  1  0
 23 25  1  0
 23 26  1  0
  7 27  1  0
 27 28  2  0
 28 29  1  0
 28 30  1  0
 30 31  1  0
 30 32  2  0
 32 33  1  0
  5 34  1  0
 34 35  1  0
 34 36  1  0
 36 37  1  0
 36 38  1  0
 36 39  1  0
 39 40  1  0
 39 41  1  0
 39 42  1  0
 42 43  1  0
 43 44  1  0
 43 45  1  0
 43 46  1  0
 32  6  1  0
 18  9  1  0
M  CHG  1   3   1
M  END
>  <UniqueID>  (27) 
27

>  <SMILES>  (27) 
CCOc1ccccc1Oc1ncccc1/C(NCCSC)=[NH+]/O

>  <Energy>  (27) 
48.865679727032614

>  <Genealogy>  (27) 
CCOc1ccccc1Oc1ncccc1C(NCCSC)=[NH+]O (protonated)
CCOc1ccccc1Oc1ncccc1/C(NCCSC)=[NH+]/O (cis-trans isomerization)
CCOc1ccccc1Oc1ncccc1/C(NCCSC)=[NH+]/O (3D coordinates assigned)
CCOc1ccccc1Oc1ncccc1/C(NCCSC)=[NH+]/O (optimized conformer: 48.865679727032614 kcal/mol)

>  <smiles>  (27) 
CCOc1ccccc1Oc1ncccc1C(=NO)NCCSC

>  <score_type>  (27) 
oracle

>  <origin>  (27) 
adg

>  <m_score__min__energy>  (27) 
-5.3799999999999999

>  <m_primary>  (27) 
energy

$$$$
27:0
     RDKit          3D

 80 83  0  0  0  0  0  0  0  0999 V2000
   63.7170   32.1500   51.1200 C   0  0  0  0  0  0  0  0  0  0  0  0
   62.6390   31.6940   50.2200 N   0  0  1  0  0  0  0  0  0  0  0  0
   63.0710   31.6180   48.7970 C   0  0  0  0  0  0  0  0  0  0  0  0
   63.1020   32.9540   48.0110 C   0  0  0  0  0  0  0  0  0  0  0  0
   61.7420   33.5460   47.7370 C   0  0  0  0  0  0  0  0  0  0  0  0
   60.8570   33.8260   48.7930 C   0  0  0  0  0  0  0  0  0  0  0  0
   59.6060   34.3950   48.5330 C   0  0  0  0  0  0  0  0  0  0  0  0
   59.2160   34.6600   47.2170 C   0  0  0  0  0  0  0  0  0  0  0  0
   60.0760   34.3540   46.1590 C   0  0  0  0  0  0  0  0  0  0  0  0
   61.3300   33.7940   46.4140 C   0  0  0  0  0  0  0  0  0  0  0  0
   62.0140   30.4550   50.7450 C   0  0  0  0  0  0  0  0  0  0  0  0
   60.5510   30.6420   51.1050 C   0  0  0  0  0  0  0  0  0  0  0  0
   60.2130   31.1360   52.3790 C   0  0  0  0  0  0  0  0  0  0  0  0
   58.8760   31.2890   52.7520 C   0  0  0  0  0  0  0  0  0  0  0  0
   57.8590   30.9470   51.8630 C   0  0  0  0  0  0  0  0  0  0  0  0
   58.1740   30.4660   50.5910 C   0  0  0  0  0  0  0  0  0  0  0  0
   59.5120   30.3120   50.1980 C   0  0  0  0  0  0  0  0  0  0  0  0
   59.8080   29.8560   48.8670 N   0  0  0  0  0  0  0  0  0  0  0  0
   58.8040   29.9750   47.8130 C   0  0  0  0  0  0  0  0  0  0  0  0
   58.2380   28.5900   47.4930 C   0  0  0  0  0  0  0  0  0  0  0  0
   59.3240   27.6160   47.2780 N   0  0  0  0  0  0  0  0  0  0  0  0
   59.1260   26.4660   46.4180 C   0  0  0  0  0  0  0  0  0  0  0  0
   59.6840   25.3760   46.7160 O   0  0  0  0  0  0  0  0  0  0  0  0
   58.3020   26.5490   45.1470 C   0  0  2  0  0  0  0  0  0  0  0  0
   58.8700   27.5550   44.1220 C   0  0  0  0  0  0  0  0  0  0  0  0
   58.4000   28.9570   44.4120 C   0  0  0  0  0  0  0  0  0  0  0  0
   59.3160   29.9330   44.8420 C   0  0  0  0  0  0  0  0  0  0  0  0
   58.8890   31.2410   45.0900 C   0  0  0  0  0  0  0  0  0  0  0  0
   57.5440   31.5870   44.9140 C   0  0  0  0  0  0  0  0  0  0  0  0
   57.0110   33.2300   45.2280 Cl  0  0  0  0  0  0  0  0  0  0  0  0
   56.6270   30.6200   44.4870 C   0  0  0  0  0  0  0  0  0  0  0  0
   57.0530   29.3130   44.2330 C   0  0  0  0  0  0  0  0  0  0  0  0
   56.8800   26.7790   45.4380 N   0  0  0  0  0  0  0  0  0  0  0  0
   55.8140   25.8860   45.8020 C   0  0  0  0  0  0  0  0  0  0  0  0
   54.7960   26.3880   46.3550 O   0  0  0  0  0  0  0  0  0  0  0  0
   55.8680   24.3860   45.6180 C   0  0  0  0  0  0  0  0  0  0  0  0
   56.5140   23.6570   46.8110 C   0  0  0  0  0  0  0  0  0  0  0  0
   56.8910   24.5790   47.8820 N   0  0  0  0  0  0  0  0  0  0  0  0
   60.3980   27.5520   48.2880 C   0  0  0  0  0  0  0  0  0  0  0  0
   60.9280   28.9470   48.6200 C   0  0  0  0  0  0  0  0  0  0  0  0
   63.4025   32.0170   52.1656 H   0  0  0  0  0  0  0  0  0  0  0  0
   64.6257   31.5592   50.9324 H   0  0  0  0  0  0  0  0  0  0  0  0
   63.9259   33.2136   50.9324 H   0  0  0  0  0  0  0  0  0  0  0  0
   61.9180   32.4500   50.2520 H   0  0  0  0  0  0  0  0  0  0  0  0
   64.0865   31.1956   48.7782 H   0  0  0  0  0  0  0  0  0  0  0  0
   62.3105   31.0023   48.2945 H   0  0  0  0  0  0  0  0  0  0  0  0
   63.6837   33.6831   48.5941 H   0  0  0  0  0  0  0  0  0  0  0  0
   63.5516   32.7324   47.0318 H   0  0  0  0  0  0  0  0  0  0  0  0
   61.1497   33.5966   49.8282 H   0  0  0  0  0  0  0  0  0  0  0  0
   58.9279   34.6344   49.3654 H   0  0  0  0  0  0  0  0  0  0  0  0
   58.2326   35.1092   47.0144 H   0  0  0  0  0  0  0  0  0  0  0  0
   59.7648   34.5545   45.1232 H   0  0  0  0  0  0  0  0  0  0  0  0
   61.9989   33.5456   45.5768 H   0  0  0  0  0  0  0  0  0  0  0  0
   62.0898   29.6706   49.9776 H   0  0  0  0  0  0  0  0  0  0  0  0
   62.5491   30.1780   51.6653 H   0  0  0  0  0  0  0  0  0  0  0  0
   61.0101   31.4042   53.0880 H   0  0  0  0  0  0  0  0  0  0  0  0
   58.6253   31.6801   53.7491 H   0  0  0  0  0  0  0  0  0  0  0  0
   56.8066   31.0562   52.1639 H   0  0  0  0  0  0  0  0  0  0  0  0
   57.3665   30.2055   49.8910 H   0  0  0  0  0  0  0  0  0  0  0  0
   57.9915   30.6342   48.1526 H   0  0  0  0  0  0  0  0  0  0  0  0
   59.2668   30.4008   46.9105 H   0  0  0  0  0  0  0  0  0  0  0  0
   57.6129   28.2532   48.3332 H   0  0  0  0  0  0  0  0  0  0  0  0
   57.6392   28.6584   46.5728 H   0  0  0  0  0  0  0  0  0  0  0  0
   58.3760   25.5651   44.6608 H   0  0  0  0  0  0  0  0  0  0  0  0
   59.9688   27.5293   44.1659 H   0  0  0  0  0  0  0  0  0  0  0  0
   58.5134   27.2695   43.1213 H   0  0  0  0  0  0  0  0  0  0  0  0
   60.3737   29.6663   44.9840 H   0  0  0  0  0  0  0  0  0  0  0  0
   59.6116   32.0000   45.4242 H   0  0  0  0  0  0  0  0  0  0  0  0
   55.5691   30.8888   44.3510 H   0  0  0  0  0  0  0  0  0  0  0  0
   56.3290   28.5588   43.8909 H   0  0  0  0  0  0  0  0  0  0  0  0
   54.8416   24.0110   45.4919 H   0  0  0  0  0  0  0  0  0  0  0  0
   56.4898   24.1849   44.7332 H   0  0  0  0  0  0  0  0  0  0  0  0
   55.7964   22.9249   47.2098 H   0  0  0  0  0  0  0  0  0  0  0  0
   57.4293   23.1644   46.4510 H   0  0  0  0  0  0  0  0  0  0  0  0
   57.8990   24.8330   47.7820 H   0  0  0  0  0  0  0  0  0  0  0  0
   56.3250   25.4530   47.7920 H   0  0  0  0  0  0  0  0  0  0  0  0
   60.0015   27.0912   49.2047 H   0  0  0  0  0  0  0  0  0  0  0  0
   61.2253   26.9530   47.8795 H   0  0  0  0  0  0  0  0  0  0  0  0
   61.5601   28.8934   49.5187 H   0  0  0  0  0  0  0  0  0  0  0  0
   61.5206   29.3220   47.7725 H   0  0  0  0  0  0  0  0  0  0  0  0
  1  2  1  0
  2  3  1  0
  3  4  1  0
  4  5  1  0
  5  6  2  0
  6  7  1  0
  7  8  2  0
  8  9  1  0
  9 10  2  0
  2 11  1  0
 11 12  1  0
 12 13  2  0
 13 14  1  0
 14 15  2  0
 15 16  1  0
 16 17  2  0
 17 18  1  0
 18 19  1  0
 19 20  1  0
 20 21  1  0
 21 22  1  0
 22 23  2  0
 22 24  1  0
 24 25  1  0
 25 26  1  0
 26 27  2  0
 27 28  1  0
 28 29  2  0
 29 30  1  0
 29 31  1  0
 31 32  2  0
 24 33  1  0
 33 34  1  0
 34 35  2  0
 34 36  1  0
 36 37  1  0
 37 38  1  0
 21 39  1  0
 39 40  1  0
 10  5  1  0
 17 12  1  0
 40 18  1  0
 32 26  1  0
  1 41  1  0
  1 42  1  0
  1 43  1  0
  2 44  1  6
  3 45  1  0
  3 46  1  0
  4 47  1  0
  4 48  1  0
  6 49  1  0
  7 50  1  0
  8 51  1  0
  9 52  1  0
 10 53  1  0
 11 54  1  0
 11 55  1  0
 13 56  1  0
 14 57  1  0
 15 58  1  0
 16 59  1  0
 19 60  1  0
 19 61  1  0
 20 62  1  0
 20 63  1  0
 24 64  1  6
 25 65  1  0
 25 66  1  0
 27 67  1  0
 28 68  1  0
 31 69  1  0
 32 70  1  0
 36 71  1  0
 36 72  1  0
 37 73  1  0
 37 74  1  0
 38 75  1  0
 38 76  1  0
 39 77  1  0
 39 78  1  0
 40 79  1  0
 40 80  1  0
M  CHG  2   2   1  33  -1
M  END
>  <UniqueID>  (28) 
28

>  <SMILES>  (28) 
C[N@@H+](CCc1ccccc1)Cc1ccccc1N1CCN(C(=O)[C@H](Cc2ccc(Cl)cc2)[N-]C(=O)CCN)CC1

>  <Energy>  (28) 
94.7711191046298

>  <Genealogy>  (28) 
C[NH+](CCc1ccccc1)Cc1ccccc1N1CCN(C(=O)C(Cc2ccc(Cl)cc2)[N-]C(=O)CCN)CC1 (protonated)
C[N@@H+](CCc1ccccc1)Cc1ccccc1N1CCN(C(=O)[C@H](Cc2ccc(Cl)cc2)[N-]C(=O)CCN)CC1 (chirality)
C[N@@H+](CCc1ccccc1)Cc1ccccc1N1CCN(C(=O)[C@H](Cc2ccc(Cl)cc2)[N-]C(=O)CCN)CC1 (3D coordinates assigned)
C[N@@H+](CCc1ccccc1)Cc1ccccc1N1CCN(C(=O)[C@H](Cc2ccc(Cl)cc2)[N-]C(=O)CCN)CC1 (nonaromatic ring conformer: 94.7711191046298 kcal/mol)

>  <smiles>  (28) 
CN(CCc1ccccc1)Cc1ccccc1N1CCN(C(=O)C(Cc2ccc(Cl)cc2)NC(=O)CCN)CC1

>  <score_type>  (28) 
oracle

>  <origin>  (28) 
adg

>  <m_score__min__energy>  (28) 
-9.8000000000000007

>  <m_primary>  (28) 
energy

$$$$
28:0
     RDKit          3D

 50 54  0  0  0  0  0  0  0  0999 V2000
   58.5380   31.7320   50.2250 C   0  0  0  0  0  0  0  0  0  0  0  0
   59.2890   31.0890   49.1030 C   0  0  0  0  0  0  0  0  0  0  0  0
   58.6150   30.3490   48.1220 C   0  0  0  0  0  0  0  0  0  0  0  0
   59.3410   29.7630   47.0760 C   0  0  0  0  0  0  0  0  0  0  0  0
   58.6480   28.9840   46.0240 C   0  0  0  0  0  0  0  0  0  0  0  0
   58.6630   27.5860   46.1130 C   0  0  0  0  0  0  0  0  0  0  0  0
   58.0620   26.8160   45.1200 C   0  0  0  0  0  0  0  0  0  0  0  0
   57.4540   27.4120   44.0600 N   0  0  0  0  0  0  0  0  0  0  0  0
   57.3990   28.7690   43.9390 C   0  0  0  0  0  0  0  0  0  0  0  0
   56.7470   29.3510   42.8390 C   0  0  0  0  0  0  0  0  0  0  0  0
   56.6670   30.7390   42.7210 C   0  0  0  0  0  0  0  0  0  0  0  0
   57.2280   31.5590   43.7000 C   0  0  0  0  0  0  0  0  0  0  0  0
   57.8820   30.9980   44.7990 C   0  0  0  0  0  0  0  0  0  0  0  0
   57.9920   29.5980   44.9280 C   0  0  0  0  0  0  0  0  0  0  0  0
   60.7270   29.9570   47.0110 C   0  0  0  0  0  0  0  0  0  0  0  0
   61.3640   30.7210   47.9920 C   0  0  0  0  0  0  0  0  0  0  0  0
   62.7500   30.9060   47.9190 O   0  0  0  0  0  0  0  0  0  0  0  0
   63.3730   31.9090   47.1220 C   0  0  0  0  0  0  0  0  0  0  0  0
   63.8140   33.0850   48.0170 C   0  0  2  0  0  0  0  0  0  0  0  0
   63.1170   33.0900   49.3760 C   0  0  0  0  0  0  0  0  0  0  0  0
   62.8350   34.2080   48.3820 C   0  0  2  0  0  0  0  0  0  0  0  0
   61.4810   34.1950   47.7240 C   0  0  0  0  0  0  0  0  0  0  0  0
   60.3320   34.3410   48.5090 C   0  0  0  0  0  0  0  0  0  0  0  0
   59.0760   34.3120   47.9010 C   0  0  0  0  0  0  0  0  0  0  0  0
   58.9770   34.1240   46.5200 C   0  0  0  0  0  0  0  0  0  0  0  0
   57.4070   34.0830   45.7410 Cl  0  0  0  0  0  0  0  0  0  0  0  0
   60.1440   33.9610   45.7690 C   0  0  0  0  0  0  0  0  0  0  0  0
   61.3580   33.9940   46.3820 N   0  0  0  0  0  0  0  0  0  0  0  0
   60.6350   31.2660   49.0050 N   0  0  0  0  0  0  0  0  0  0  0  0
   58.9449   31.3836   51.1857 H   0  0  0  0  0  0  0  0  0  0  0  0
   58.6425   32.8249   50.1573 H   0  0  0  0  0  0  0  0  0  0  0  0
   57.4742   31.4604   50.1573 H   0  0  0  0  0  0  0  0  0  0  0  0
   57.5228   30.2288   48.1726 H   0  0  0  0  0  0  0  0  0  0  0  0
   59.1503   27.0955   46.9686 H   0  0  0  0  0  0  0  0  0  0  0  0
   58.0794   25.7186   45.1939 H   0  0  0  0  0  0  0  0  0  0  0  0
   57.0160   26.8010   43.3340 H   0  0  0  0  0  0  0  0  0  0  0  0
   56.2974   28.7093   42.0670 H   0  0  0  0  0  0  0  0  0  0  0  0
   56.1603   31.1876   41.8538 H   0  0  0  0  0  0  0  0  0  0  0  0
   57.1549   32.6525   43.6060 H   0  0  0  0  0  0  0  0  0  0  0  0
   58.3145   31.6529   45.5697 H   0  0  0  0  0  0  0  0  0  0  0  0
   61.3103   29.5104   46.1923 H   0  0  0  0  0  0  0  0  0  0  0  0
   64.2533   31.4820   46.6193 H   0  0  0  0  0  0  0  0  0  0  0  0
   62.6578   32.2724   46.3694 H   0  0  0  0  0  0  0  0  0  0  0  0
   64.8364   33.1051   47.6116 H   0  0  0  0  0  0  0  0  0  0  0  0
   62.3401   32.3433   49.5972 H   0  0  0  0  0  0  0  0  0  0  0  0
   63.4561   33.0492   50.4216 H   0  0  0  0  0  0  0  0  0  0  0  0
   62.8915   35.3064   48.3984 H   0  0  0  0  0  0  0  0  0  0  0  0
   60.4179   34.4776   49.5971 H   0  0  0  0  0  0  0  0  0  0  0  0
   58.1667   34.4368   48.5073 H   0  0  0  0  0  0  0  0  0  0  0  0
   60.0810   33.8059   44.6818 H   0  0  0  0  0  0  0  0  0  0  0  0
  1  2  1  0
  2  3  2  0
  3  4  1  0
  4  5  1  0
  5  6  2  0
  6  7  1  0
  7  8  2  0
  8  9  1  0
  9 10  2  0
 10 11  1  0
 11 12  2  0
 12 13  1  0
 13 14  2  0
  4 15  2  0
 15 16  1  0
 16 17  1  0
 17 18  1  0
 18 19  1  0
 19 20  1  0
 20 21  1  0
 21 22  1  0
 22 23  2  0
 23 24  1  0
 24 25  2  0
 25 26  1  0
 25 27  1  0
 27 28  2  0
 16 29  2  0
 29  2  1  0
 14  5  1  0
 21 19  1  0
 28 22  1  0
 14  9  1  0
  1 30  1  0
  1 31  1  0
  1 32  1  0
  3 33  1  0
  6 34  1  0
  7 35  1  0
  8 36  1  0
 10 37  1  0
 11 38  1  0
 12 39  1  0
 13 40  1  0
 15 41  1  0
 18 42  1  0
 18 43  1  0
 19 44  1  1
 20 45  1  0
 20 46  1  0
 21 47  1  1
 23 48  1  0
 24 49  1  0
 27 50  1  0
M  CHG  1   8   1
M  END
>  <UniqueID>  (29) 
29

>  <SMILES>  (29) 
Cc1cc(-c2cc[nH+]c3ccccc23)cc(OC[C@@H]2C[C@@H]2c2ccc(Cl)cn2)n1

>  <Energy>  (29) 
333.2547805192812

>  <Genealogy>  (29) 
Cc1cc(-c2cc[nH+]c3ccccc23)cc(OCC2CC2c2ccc(Cl)cn2)n1 (protonated)
Cc1cc(-c2cc[nH+]c3ccccc23)cc(OC[C@@H]2C[C@@H]2c2ccc(Cl)cn2)n1 (chirality)
Cc1cc(-c2cc[nH+]c3ccccc23)cc(OC[C@@H]2C[C@@H]2c2ccc(Cl)cn2)n1 (3D coordinates assigned)
Cc1cc(-c2cc[nH+]c3ccccc23)cc(OC[C@@H]2C[C@@H]2c2ccc(Cl)cn2)n1 (nonaromatic ring conformer: 333.2547805192812 kcal/mol)

>  <smiles>  (29) 
Cc1cc(-c2ccnc3ccccc23)cc(OCC2CC2c2ccc(Cl)cn2)n1

>  <score_type>  (29) 
oracle

>  <origin>  (29) 
adg

>  <m_score__min__energy>  (29) 
-7.5800000000000001

>  <m_primary>  (29) 
energy

$$$$
29:0
     RDKit          3D

 49 50  0  0  0  0  0  0  0  0999 V2000
   63.4240   31.9340   47.1810 C   0  0  0  0  0  0  0  0  0  0  0  0
   63.4140   33.4220   46.8650 C   0  0  0  0  0  0  0  0  0  0  0  0
   62.6480   34.1010   47.8400 O   0  0  0  0  0  0  0  0  0  0  0  0
   63.1390   33.7790   49.1270 C   0  0  0  0  0  0  0  0  0  0  0  0
   62.1170   34.1750   50.1850 C   0  0  0  0  0  0  0  0  0  0  0  0
   60.9470   33.3930   50.0280 O   0  0  0  0  0  0  0  0  0  0  0  0
   59.8520   34.1970   49.6360 C   0  0  0  0  0  0  0  0  0  0  0  0
   59.3090   33.7500   48.2740 C   0  0  0  0  0  0  0  0  0  0  0  0
   60.3190   33.0220   47.4720 N   0  0  0  0  0  0  0  0  0  0  0  0
   59.7180   31.9690   46.6770 C   0  0  0  0  0  0  0  0  0  0  0  0
   60.0780   30.6320   46.9080 C   0  0  0  0  0  0  0  0  0  0  0  0
   59.4790   29.5950   46.1940 C   0  0  0  0  0  0  0  0  0  0  0  0
   58.5250   29.8740   45.2090 C   0  0  0  0  0  0  0  0  0  0  0  0
   57.9350   28.8230   44.4840 C   0  0  0  0  0  0  0  0  0  0  0  0
   57.0020   29.0980   43.4820 C   0  0  0  0  0  0  0  0  0  0  0  0
   56.6570   30.4210   43.1860 C   0  0  0  0  0  0  0  0  0  0  0  0
   57.2310   31.4770   43.9010 C   0  0  0  0  0  0  0  0  0  0  0  0
   58.1620   31.2190   44.9310 C   0  0  0  0  0  0  0  0  0  0  0  0
   58.7520   32.2710   45.6760 C   0  0  0  0  0  0  0  0  0  0  0  0
   58.3880   33.6420   45.4200 N   0  0  0  0  0  0  0  0  0  0  0  0
   57.0030   34.0850   45.5980 C   0  0  0  0  0  0  0  0  0  0  0  0
   59.3550   34.5530   44.7990 C   0  0  0  0  0  0  0  0  0  0  0  0
   63.4250   31.7908   48.2716 H   0  0  0  0  0  0  0  0  0  0  0  0
   62.5290   31.4616   46.7499 H   0  0  0  0  0  0  0  0  0  0  0  0
   64.3253   31.4737   46.7499 H   0  0  0  0  0  0  0  0  0  0  0  0
   64.4445   33.8066   46.8739 H   0  0  0  0  0  0  0  0  0  0  0  0
   62.9730   33.5848   45.8705 H   0  0  0  0  0  0  0  0  0  0  0  0
   63.3248   32.6964   49.1863 H   0  0  0  0  0  0  0  0  0  0  0  0
   64.0760   34.3270   49.3051 H   0  0  0  0  0  0  0  0  0  0  0  0
   62.5405   34.0042   51.1858 H   0  0  0  0  0  0  0  0  0  0  0  0
   61.8644   35.2394   50.0701 H   0  0  0  0  0  0  0  0  0  0  0  0
   59.0540   34.1113   50.3882 H   0  0  0  0  0  0  0  0  0  0  0  0
   60.1914   35.2402   49.5553 H   0  0  0  0  0  0  0  0  0  0  0  0
   58.4455   33.0887   48.4383 H   0  0  0  0  0  0  0  0  0  0  0  0
   59.0257   34.6535   47.7142 H   0  0  0  0  0  0  0  0  0  0  0  0
   60.7910   33.7040   46.8390 H   0  0  0  0  0  0  0  0  0  0  0  0
   61.0710   32.6350   48.0870 H   0  0  0  0  0  0  0  0  0  0  0  0
   60.8434   30.3992   47.6629 H   0  0  0  0  0  0  0  0  0  0  0  0
   59.7578   28.5522   46.4061 H   0  0  0  0  0  0  0  0  0  0  0  0
   58.2093   27.7813   44.7069 H   0  0  0  0  0  0  0  0  0  0  0  0
   56.5370   28.2720   42.9239 H   0  0  0  0  0  0  0  0  0  0  0  0
   55.9308   30.6317   42.3871 H   0  0  0  0  0  0  0  0  0  0  0  0
   56.9558   32.5143   43.6597 H   0  0  0  0  0  0  0  0  0  0  0  0
   56.7764   34.1575   46.6720 H   0  0  0  0  0  0  0  0  0  0  0  0
   56.8700   35.0705   45.1278 H   0  0  0  0  0  0  0  0  0  0  0  0
   56.3227   33.3596   45.1278 H   0  0  0  0  0  0  0  0  0  0  0  0
   59.9164   35.0819   45.5833 H   0  0  0  0  0  0  0  0  0  0  0  0
   60.0528   33.9765   44.1740 H   0  0  0  0  0  0  0  0  0  0  0  0
   58.8211   35.2839   44.1740 H   0  0  0  0  0  0  0  0  0  0  0  0
  1  2  1  0
  2  3  1  0
  3  4  1  0
  4  5  1  0
  5  6  1  0
  6  7  1  0
  7  8  1  0
  8  9  1  0
  9 10  1  0
 10 11  2  0
 11 12  1  0
 12 13  2  0
 13 14  1  0
 14 15  2  0
 15 16  1  0
 16 17  2  0
 17 18  1  0
 18 19  2  0
 19 20  1  0
 20 21  1  0
 20 22  1  0
 19 10  1  0
 18 13  1  0
  1 23  1  0
  1 24  1  0
  1 25  1  0
  2 26  1  0
  2 27  1  0
  4 28  1  0
  4 29  1  0
  5 30  1  0
  5 31  1  0
  7 32  1  0
  7 33  1  0
  8 34  1  0
  8 35  1  0
  9 36  1  0
  9 37  1  0
 11 38  1  0
 12 39  1  0
 14 40  1  0
 15 41  1  0
 16 42  1  0
 17 43  1  0
 21 44  1  0
 21 45  1  0
 21 46  1  0
 22 47  1  0
 22 48  1  0
 22 49  1  0
M  CHG  1   9   1
M  END
>  <UniqueID>  (30) 
30

>  <SMILES>  (30) 
CCOCCOCC[NH2+]c1ccc2ccccc2c1N(C)C

>  <Energy>  (30) 
54.514383915655635

>  <Genealogy>  (30) 
CCOCCOCC[NH2+]c1ccc2ccccc2c1N(C)C (protonated)
CCOCCOCC[NH2+]c1ccc2ccccc2c1N(C)C (3D coordinates assigned)
CCOCCOCC[NH2+]c1ccc2ccccc2c1N(C)C (optimized conformer: 54.514383915655635 kcal/mol)

>  <smiles>  (30) 
CCOCCOCCNc1ccc2ccccc2c1N(C)C

>  <score_type>  (30) 
oracle

>  <origin>  (30) 
adg

>  <m_score__min__energy>  (30) 
-3.8700000000000001

>  <m_primary>  (30) 
energy

$$$$
30:0
     RDKit          3D

 24 25  0  0  0  0  0  0  0  0999 V2000
   54.9520   26.3230   46.7460 H   0  0  0  0  0  0  0  0  0  0  0  0
   54.3490   26.1420   45.9790 O   0  0  0  0  0  0  0  0  0  0  0  0
   54.5860   24.8160   45.5880 C   0  0  0  0  0  0  0  0  0  0  0  0
   54.8640   24.7972   44.5239 H   0  0  0  0  0  0  0  0  0  0  0  0
   53.6705   24.2289   45.7529 H   0  0  0  0  0  0  0  0  0  0  0  0
   55.7200   24.2040   46.4150 C   0  0  0  0  0  0  0  0  0  0  0  0
   56.4425   23.7268   45.7365 H   0  0  0  0  0  0  0  0  0  0  0  0
   55.2893   23.4627   47.1042 H   0  0  0  0  0  0  0  0  0  0  0  0
   56.4080   25.2270   47.2030 N   0  0  0  0  0  0  0  0  0  0  0  0
   57.2040   26.1230   46.7050 C   0  0  0  0  0  0  0  0  0  0  0  0
   56.7770   27.2810   46.1440 N   0  0  0  0  0  0  0  0  0  0  0  0
   57.8260   28.0260   45.7060 C   0  0  0  0  0  0  0  0  0  0  0  0
   57.7190   29.2840   45.0790 C   0  0  0  0  0  0  0  0  0  0  0  0
   56.4420   29.9120   44.8430 N   0  0  0  0  0  0  0  0  0  0  0  0
   55.3940   29.2330   44.8560 O   0  0  0  0  0  0  0  0  0  0  0  0
   56.3470   31.2620   44.5950 O   0  0  0  0  0  0  0  0  0  0  0  0
   58.9170   29.9230   44.6810 C   0  0  0  0  0  0  0  0  0  0  0  0
   58.8693   30.9046   44.1869 H   0  0  0  0  0  0  0  0  0  0  0  0
   60.1690   29.3210   44.9080 C   0  0  0  0  0  0  0  0  0  0  0  0
   61.0880   29.8365   44.5924 H   0  0  0  0  0  0  0  0  0  0  0  0
   60.2530   28.0700   45.5330 C   0  0  0  0  0  0  0  0  0  0  0  0
   61.2274   27.5923   45.7126 H   0  0  0  0  0  0  0  0  0  0  0  0
   59.0710   27.4490   45.9200 C   0  0  0  0  0  0  0  0  0  0  0  0
   58.8840   25.9640   46.6810 S   0  0  0  0  0  0  0  0  0  0  0  0
  1  2  1  0
  2  3  1  0
  3  4  1  0
  3  5  1  0
  3  6  1  0
  6  7  1  0
  6  8  1  0
  6  9  1  0
  9 10  2  0
 10 11  1  0
 11 12  1  0
 12 13  2  0
 13 14  1  0
 14 15  2  0
 14 16  1  0
 13 17  1  0
 17 18  1  0
 17 19  2  0
 19 20  1  0
 19 21  1  0
 21 22  1  0
 21 23  2  0
 23 24  1  0
 24 10  1  0
 23 12  1  0
M  CHG  3  11  -1  14   1  16  -1
M  END
>  <UniqueID>  (31) 
31

>  <SMILES>  (31) 
O=[N+]([O-])c1cccc2s/c(=N/CCO)[n-]c12

>  <Energy>  (31) 
58.367308359766106

>  <Genealogy>  (31) 
O=[N+]([O-])c1cccc2sc(=NCCO)[n-]c12 (protonated)
O=[N+]([O-])c1cccc2s/c(=N/CCO)[n-]c12 (cis-trans isomerization)
O=[N+]([O-])c1cccc2s/c(=N/CCO)[n-]c12 (3D coordinates assigned)
O=[N+]([O-])c1cccc2s/c(=N/CCO)[n-]c12 (optimized conformer: 58.367308359766106 kcal/mol)

>  <smiles>  (31) 
O=[N+]([O-])c1cccc2sc(=NCCO)[nH]c12

>  <score_type>  (31) 
oracle

>  <origin>  (31) 
adg

>  <m_score__min__energy>  (31) 
-9

>  <m_primary>  (31) 
energy

$$$$
31:0
     RDKit          3D

 71 71  0  0  0  0  0  0  0  0999 V2000
   57.7960   31.9970   43.4040 C   0  0  0  0  0  0  0  0  0  0  0  0
   57.0680   32.0680   44.7470 C   0  0  0  0  0  0  0  0  0  0  0  0
   57.5200   33.2630   45.6050 C   0  0  0  0  0  0  0  0  0  0  0  0
   58.5140   34.1780   44.8700 C   0  0  0  0  0  0  0  0  0  0  0  0
   59.3820   34.9970   45.8400 C   0  0  0  0  0  0  0  0  0  0  0  0
   60.3300   34.1080   46.6660 C   0  0  0  0  0  0  0  0  0  0  0  0
   59.9570   34.0690   48.1550 C   0  0  0  0  0  0  0  0  0  0  0  0
   61.1830   34.1700   49.0760 C   0  0  0  0  0  0  0  0  0  0  0  0
   62.4730   33.8520   48.3090 C   0  0  0  0  0  0  0  0  0  0  0  0
   63.0030   32.4530   48.6650 C   0  0  0  0  0  0  0  0  0  0  0  0
   62.1200   31.3150   48.1130 C   0  0  0  0  0  0  0  0  0  0  0  0
   61.3300   30.5350   49.1820 C   0  0  0  0  0  0  0  0  0  0  0  0
   60.0180   29.9240   48.6460 C   0  0  0  0  0  0  0  0  0  0  0  0
   59.3860   30.7870   47.5430 C   0  0  0  0  0  0  0  0  0  0  0  0
   58.6970   29.9200   46.4710 C   0  0  0  0  0  0  0  0  0  0  0  0
   59.5860   29.6710   45.2370 C   0  0  0  0  0  0  0  0  0  0  0  0
   59.3070   28.3430   44.5100 C   0  0  0  0  0  0  0  0  0  0  0  0
   58.5270   27.3750   45.3670 C   0  0  0  0  0  0  0  0  0  0  0  0
   59.1850   26.6120   46.3410 C   0  0  0  0  0  0  0  0  0  0  0  0
   58.4620   25.7550   47.1720 C   0  0  0  0  0  0  0  0  0  0  0  0
   57.0640   25.6510   47.0460 C   0  0  0  0  0  0  0  0  0  0  0  0
   56.3020   24.8130   47.8750 O   0  0  0  0  0  0  0  0  0  0  0  0
   56.3340   23.3890   47.8310 C   0  0  0  0  0  0  0  0  0  0  0  0
   56.3970   26.4110   46.0710 C   0  0  0  0  0  0  0  0  0  0  0  0
   55.0010   26.2870   45.9670 O   0  0  0  0  0  0  0  0  0  0  0  0
   54.3220   25.0870   45.6110 C   0  0  0  0  0  0  0  0  0  0  0  0
   57.1330   27.2710   45.2340 C   0  0  0  0  0  0  0  0  0  0  0  0
   58.8770   31.8916   43.5780 H   0  0  0  0  0  0  0  0  0  0  0  0
   57.4301   31.1303   42.8340 H   0  0  0  0  0  0  0  0  0  0  0  0
   57.6045   32.9181   42.8340 H   0  0  0  0  0  0  0  0  0  0  0  0
   55.9883   32.1591   44.5576 H   0  0  0  0  0  0  0  0  0  0  0  0
   57.3073   31.1499   45.3036 H   0  0  0  0  0  0  0  0  0  0  0  0
   56.6341   33.8543   45.8797 H   0  0  0  0  0  0  0  0  0  0  0  0
   58.0313   32.8610   46.4921 H   0  0  0  0  0  0  0  0  0  0  0  0
   59.1722   33.5558   44.2458 H   0  0  0  0  0  0  0  0  0  0  0  0
   57.9323   34.8852   44.2605 H   0  0  0  0  0  0  0  0  0  0  0  0
   59.9833   35.7121   45.2595 H   0  0  0  0  0  0  0  0  0  0  0  0
   58.7093   35.5143   46.5400 H   0  0  0  0  0  0  0  0  0  0  0  0
   60.2901   33.0840   46.2661 H   0  0  0  0  0  0  0  0  0  0  0  0
   61.3403   34.5359   46.5872 H   0  0  0  0  0  0  0  0  0  0  0  0
   59.2838   34.9116   48.3714 H   0  0  0  0  0  0  0  0  0  0  0  0
   59.4728   33.1010   48.3511 H   0  0  0  0  0  0  0  0  0  0  0  0
   61.2467   35.1912   49.4797 H   0  0  0  0  0  0  0  0  0  0  0  0
   61.0705   33.4402   49.8914 H   0  0  0  0  0  0  0  0  0  0  0  0
   62.2675   33.8935   47.2292 H   0  0  0  0  0  0  0  0  0  0  0  0
   63.2354   34.5941   48.5883 H   0  0  0  0  0  0  0  0  0  0  0  0
   64.0151   32.3451   48.2479 H   0  0  0  0  0  0  0  0  0  0  0  0
   62.9996   32.3694   49.7618 H   0  0  0  0  0  0  0  0  0  0  0  0
   61.3996   31.7526   47.4063 H   0  0  0  0  0  0  0  0  0  0  0  0
   62.8033   30.5922   47.6434 H   0  0  0  0  0  0  0  0  0  0  0  0
   61.9652   29.7208   49.5608 H   0  0  0  0  0  0  0  0  0  0  0  0
   61.0577   31.2499   49.9724 H   0  0  0  0  0  0  0  0  0  0  0  0
   60.2331   28.9262   48.2360 H   0  0  0  0  0  0  0  0  0  0  0  0
   59.3049   29.8673   49.4816 H   0  0  0  0  0  0  0  0  0  0  0  0
   58.6390   31.4553   47.9962 H   0  0  0  0  0  0  0  0  0  0  0  0
   60.1857   31.3651   47.0570 H   0  0  0  0  0  0  0  0  0  0  0  0
   58.4380   28.9490   46.9184 H   0  0  0  0  0  0  0  0  0  0  0  0
   57.8047   30.4652   46.1297 H   0  0  0  0  0  0  0  0  0  0  0  0
   59.4244   30.4937   44.5249 H   0  0  0  0  0  0  0  0  0  0  0  0
   60.6222   29.6174   45.6022 H   0  0  0  0  0  0  0  0  0  0  0  0
   58.7291   28.5533   43.5979 H   0  0  0  0  0  0  0  0  0  0  0  0
   60.2755   27.8785   44.2729 H   0  0  0  0  0  0  0  0  0  0  0  0
   60.2768   26.6889   46.4511 H   0  0  0  0  0  0  0  0  0  0  0  0
   58.9882   25.1568   47.9305 H   0  0  0  0  0  0  0  0  0  0  0  0
   56.3430   22.9906   48.8563 H   0  0  0  0  0  0  0  0  0  0  0  0
   55.4440   23.0184   47.3014 H   0  0  0  0  0  0  0  0  0  0  0  0
   57.2398   23.0588   47.3014 H   0  0  0  0  0  0  0  0  0  0  0  0
   54.0195   24.5524   46.5235 H   0  0  0  0  0  0  0  0  0  0  0  0
   53.4293   25.3331   45.0173 H   0  0  0  0  0  0  0  0  0  0  0  0
   54.9927   24.4485   45.0173 H   0  0  0  0  0  0  0  0  0  0  0  0
   56.6119   27.8663   44.4697 H   0  0  0  0  0  0  0  0  0  0  0  0
  1  2  1  0
  2  3  1  0
  3  4  1  0
  4  5  1  0
  5  6  1  0
  6  7  1  0
  7  8  1  0
  8  9  1  0
  9 10  1  0
 10 11  1  0
 11 12  1  0
 12 13  1  0
 13 14  1  0
 14 15  1  0
 15 16  1  0
 16 17  1  0
 17 18  1  0
 18 19  2  0
 19 20  1  0
 20 21  2  0
 21 22  1  0
 22 23  1  0
 21 24  1  0
 24 25  1  0
 25 26  1  0
 24 27  2  0
 27 18  1  0
  1 28  1  0
  1 29  1  0
  1 30  1  0
  2 31  1  0
  2 32  1  0
  3 33  1  0
  3 34  1  0
  4 35  1  0
  4 36  1  0
  5 37  1  0
  5 38  1  0
  6 39  1  0
  6 40  1  0
  7 41  1  0
  7 42  1  0
  8 43  1  0
  8 44  1  0
  9 45  1  0
  9 46  1  0
 10 47  1  0
 10 48  1  0
 11 49  1  0
 11 50  1  0
 12 51  1  0
 12 52  1  0
 13 53  1  0
 13 54  1  0
 14 55  1  0
 14 56  1  0
 15 57  1  0
 15 58  1  0
 16 59  1  0
 16 60  1  0
 17 61  1  0
 17 62  1  0
 19 63  1  0
 20 64  1  0
 23 65  1  0
 23 66  1  0
 23 67  1  0
 26 68  1  0
 26 69  1  0
 26 70  1  0
 27 71  1  0
M  END
>  <UniqueID>  (32) 
32

>  <SMILES>  (32) 
CCCCCCCCCCCCCCCCCc1ccc(OC)c(OC)c1

>  <Energy>  (32) 
39.94492628807767

>  <Genealogy>  (32) 
CCCCCCCCCCCCCCCCCc1ccc(OC)c(OC)c1 (3D coordinates assigned)
CCCCCCCCCCCCCCCCCc1ccc(OC)c(OC)c1 (optimized conformer: 39.94492628807767 kcal/mol)

>  <smiles>  (32) 
CCCCCCCCCCCCCCCCCc1ccc(OC)c(OC)c1

>  <score_type>  (32) 
oracle

>  <origin>  (32) 
adg

>  <m_score__min__energy>  (32) 
-7.0499999999999998

>  <m_primary>  (32) 
energy

$$$$
32:0
     RDKit          3D

 29 30  0  0  0  0  0  0  0  0999 V2000
   56.5972   28.2438   42.9571 H   0  0  0  0  0  0  0  0  0  0  0  0
   57.0420   28.9760   43.6470 C   0  0  0  0  0  0  0  0  0  0  0  0
   56.6250   30.2490   43.5510 C   0  0  0  0  0  0  0  0  0  0  0  0
   55.7003   30.4396   42.9865 H   0  0  0  0  0  0  0  0  0  0  0  0
   57.3150   31.4150   44.1470 C   0  0  0  0  0  0  0  0  0  0  0  0
   57.4710   31.5080   45.5420 C   0  0  0  0  0  0  0  0  0  0  0  0
   57.0557   30.7231   46.1911 H   0  0  0  0  0  0  0  0  0  0  0  0
   58.1490   32.5890   46.1090 C   0  0  0  0  0  0  0  0  0  0  0  0
   58.2527   32.6607   47.2017 H   0  0  0  0  0  0  0  0  0  0  0  0
   58.6960   33.5800   45.2890 C   0  0  0  0  0  0  0  0  0  0  0  0
   59.5480   34.9370   46.0030 Cl  0  0  0  0  0  0  0  0  0  0  0  0
   58.5690   33.4850   43.9000 C   0  0  0  0  0  0  0  0  0  0  0  0
   59.0046   34.2633   43.2562 H   0  0  0  0  0  0  0  0  0  0  0  0
   57.8900   32.4040   43.3240 C   0  0  0  0  0  0  0  0  0  0  0  0
   57.7490   32.3370   41.5710 Cl  0  0  0  0  0  0  0  0  0  0  0  0
   58.0540   28.4800   44.6090 C   0  0  0  0  0  0  0  0  0  0  0  0
   59.3510   28.8820   44.5030 N   0  0  0  0  0  0  0  0  0  0  0  0
   60.3090   28.4820   45.3790 C   0  0  0  0  0  0  0  0  0  0  0  0
   61.3479   28.8198   45.2504 H   0  0  0  0  0  0  0  0  0  0  0  0
   59.9750   27.6440   46.4400 C   0  0  0  0  0  0  0  0  0  0  0  0
   60.7466   27.3142   47.1513 H   0  0  0  0  0  0  0  0  0  0  0  0
   58.6530   27.2270   46.5920 C   0  0  0  0  0  0  0  0  0  0  0  0
   58.3782   26.5688   47.4294 H   0  0  0  0  0  0  0  0  0  0  0  0
   57.6700   27.6460   45.6770 C   0  0  0  0  0  0  0  0  0  0  0  0
   56.3270   27.2500   45.7930 O   0  0  0  0  0  0  0  0  0  0  0  0
   55.8970   25.9110   46.0130 C   0  0  0  0  0  0  0  0  0  0  0  0
   55.8352   25.7187   47.0943 H   0  0  0  0  0  0  0  0  0  0  0  0
   54.9066   25.7644   45.5574 H   0  0  0  0  0  0  0  0  0  0  0  0
   56.6169   25.2152   45.5574 H   0  0  0  0  0  0  0  0  0  0  0  0
  1  2  1  0
  2  3  2  0
  3  4  1  0
  3  5  1  0
  5  6  2  0
  6  7  1  0
  6  8  1  0
  8  9  1  0
  8 10  2  0
 10 11  1  0
 10 12  1  0
 12 13  1  0
 12 14  2  0
 14 15  1  0
  2 16  1  0
 16 17  2  0
 17 18  1  0
 18 19  1  0
 18 20  2  0
 20 21  1  0
 20 22  1  0
 22 23  1  0
 22 24  2  0
 24 25  1  0
 25 26  1  0
 26 27  1  0
 26 28  1  0
 26 29  1  0
 14  5  1  0
 24 16  1  0
M  END
>  <UniqueID>  (33) 
33

>  <SMILES>  (33) 
COc1cccnc1/C=C\c1ccc(Cl)cc1Cl

>  <Energy>  (33) 
39.15278026034269

>  <Genealogy>  (33) 
COc1cccnc1/C=C\c1ccc(Cl)cc1Cl (cis-trans isomerization)
COc1cccnc1/C=C\c1ccc(Cl)cc1Cl (3D coordinates assigned)
COc1cccnc1/C=C\c1ccc(Cl)cc1Cl (optimized conformer: 39.15278026034269 kcal/mol)

>  <smiles>  (33) 
COc1cccnc1C=Cc1ccc(Cl)cc1Cl

>  <score_type>  (33) 
oracle

>  <origin>  (33) 
adg

>  <m_score__min__energy>  (33) 
-7.25

>  <m_primary>  (33) 
energy

$$$$
33:0
     RDKit          3D

 37 38  0  0  0  0  0  0  0  0999 V2000
   55.8780   29.9060   43.9740 C   0  0  0  0  0  0  0  0  0  0  0  0
   56.5690   29.9200   45.2660 N   0  0  0  0  0  0  0  0  0  0  0  0
   57.6040   28.8780   45.3340 C   0  0  0  0  0  0  0  0  0  0  0  0
   58.4760   29.0630   46.5790 C   0  0  0  0  0  0  0  0  0  0  0  0
   59.7400   29.8090   46.2330 C   0  0  0  0  0  0  0  0  0  0  0  0
   59.9460   31.1250   46.4530 C   0  0  0  0  0  0  0  0  0  0  0  0
   58.9990   32.1540   45.9650 C   0  0  0  0  0  0  0  0  0  0  0  0
   58.5370   32.1050   44.6390 C   0  0  0  0  0  0  0  0  0  0  0  0
   57.6640   33.0870   44.1630 C   0  0  0  0  0  0  0  0  0  0  0  0
   57.2540   34.1290   45.0010 C   0  0  0  0  0  0  0  0  0  0  0  0
   57.7240   34.1920   46.3160 C   0  0  0  0  0  0  0  0  0  0  0  0
   58.5990   33.2130   46.7960 C   0  0  0  0  0  0  0  0  0  0  0  0
   61.1540   31.5780   47.1950 C   0  0  0  0  0  0  0  0  0  0  0  0
   61.5720   30.8890   48.3500 C   0  0  0  0  0  0  0  0  0  0  0  0
   62.6980   31.3150   49.0620 C   0  0  0  0  0  0  0  0  0  0  0  0
   63.4150   32.4340   48.6340 C   0  0  0  0  0  0  0  0  0  0  0  0
   63.0070   33.1320   47.4960 C   0  0  0  0  0  0  0  0  0  0  0  0
   61.8820   32.7110   46.7790 C   0  0  0  0  0  0  0  0  0  0  0  0
   54.7908   29.8840   44.1399 H   0  0  0  0  0  0  0  0  0  0  0  0
   56.1440   30.8097   43.4061 H   0  0  0  0  0  0  0  0  0  0  0  0
   56.1804   29.0138   43.4061 H   0  0  0  0  0  0  0  0  0  0  0  0
   55.8520   29.7090   45.9990 H   0  0  0  0  0  0  0  0  0  0  0  0
   57.1206   27.8908   45.3750 H   0  0  0  0  0  0  0  0  0  0  0  0
   58.2416   28.9535   44.4408 H   0  0  0  0  0  0  0  0  0  0  0  0
   57.9139   29.6336   47.3330 H   0  0  0  0  0  0  0  0  0  0  0  0
   58.7448   28.0726   46.9752 H   0  0  0  0  0  0  0  0  0  0  0  0
   60.5559   29.2378   45.7661 H   0  0  0  0  0  0  0  0  0  0  0  0
   58.8632   31.2918   43.9740 H   0  0  0  0  0  0  0  0  0  0  0  0
   57.2984   33.0403   43.1266 H   0  0  0  0  0  0  0  0  0  0  0  0
   56.5626   34.8979   44.6258 H   0  0  0  0  0  0  0  0  0  0  0  0
   57.4048   35.0134   46.9743 H   0  0  0  0  0  0  0  0  0  0  0  0
   58.9753   33.2724   47.8279 H   0  0  0  0  0  0  0  0  0  0  0  0
   61.0087   30.0093   48.6947 H   0  0  0  0  0  0  0  0  0  0  0  0
   63.0191   30.7676   49.9605 H   0  0  0  0  0  0  0  0  0  0  0  0
   64.3019   32.7658   49.1938 H   0  0  0  0  0  0  0  0  0  0  0  0
   63.5715   34.0152   47.1623 H   0  0  0  0  0  0  0  0  0  0  0  0
   61.5636   33.2675   45.8852 H   0  0  0  0  0  0  0  0  0  0  0  0
  1  2  1  0
  2  3  1  0
  3  4  1  0
  4  5  1  0
  5  6  2  3
  6  7  1  0
  7  8  2  0
  8  9  1  0
  9 10  2  0
 10 11  1  0
 11 12  2  0
  6 13  1  0
 13 14  2  0
 14 15  1  0
 15 16  2  0
 16 17  1  0
 17 18  2  0
 12  7  1  0
 18 13  1  0
  1 19  1  0
  1 20  1  0
  1 21  1  0
  2 22  1  0
  3 23  1  0
  3 24  1  0
  4 25  1  0
  4 26  1  0
  5 27  1  0
  8 28  1  0
  9 29  1  0
 10 30  1  0
 11 31  1  0
 12 32  1  0
 14 33  1  0
 15 34  1  0
 16 35  1  0
 17 36  1  0
 18 37  1  0
M  END
>  <UniqueID>  (34) 
34

>  <SMILES>  (34) 
CNCCC=C(c1ccccc1)c1ccccc1

>  <Energy>  (34) 
45.50411040644145

>  <Genealogy>  (34) 
CNCCC=C(c1ccccc1)c1ccccc1 (3D coordinates assigned)
CNCCC=C(c1ccccc1)c1ccccc1 (optimized conformer: 45.50411040644145 kcal/mol)

>  <smiles>  (34) 
CNCCC=C(c1ccccc1)c1ccccc1

>  <score_type>  (34) 
oracle

>  <origin>  (34) 
adg

>  <m_score__min__energy>  (34) 
-6.9800000000000004

>  <m_primary>  (34) 
energy

$$$$
34:0
     RDKit          3D

 45 47  0  0  0  0  0  0  0  0999 V2000
   62.3240   34.1570   48.6430 C   0  0  0  0  0  0  0  0  0  0  0  0
   60.9650   34.5830   48.6330 O   0  0  0  0  0  0  0  0  0  0  0  0
   60.0140   34.1710   47.6880 C   0  0  0  0  0  0  0  0  0  0  0  0
   60.1890   34.3660   46.3050 C   0  0  0  0  0  0  0  0  0  0  0  0
   59.2180   33.9260   45.4010 C   0  0  0  0  0  0  0  0  0  0  0  0
   58.0570   33.2870   45.8640 C   0  0  0  0  0  0  0  0  0  0  0  0
   57.0200   32.7720   44.8920 C   0  0  0  0  0  0  0  0  0  0  0  0
   56.8590   31.3130   44.9940 N   0  0  0  0  0  0  0  0  0  0  0  0
   57.7630   30.5920   44.0820 C   0  0  0  0  0  0  0  0  0  0  0  0
   57.8930   29.1500   44.5020 C   0  0  0  0  0  0  0  0  0  0  0  0
   57.7700   28.1280   43.5470 C   0  0  0  0  0  0  0  0  0  0  0  0
   57.8010   26.7880   43.9390 C   0  0  0  0  0  0  0  0  0  0  0  0
   57.9420   26.4550   45.2880 C   0  0  0  0  0  0  0  0  0  0  0  0
   58.0480   27.4630   46.2490 C   0  0  0  0  0  0  0  0  0  0  0  0
   58.0150   28.8160   45.8660 C   0  0  0  0  0  0  0  0  0  0  0  0
   58.1400   29.8370   46.8190 O   0  0  0  0  0  0  0  0  0  0  0  0
   59.3220   30.1700   47.4940 C   0  0  0  0  0  0  0  0  0  0  0  0
   59.4070   30.1400   48.8970 C   0  0  0  0  0  0  0  0  0  0  0  0
   60.5930   30.5180   49.5370 C   0  0  0  0  0  0  0  0  0  0  0  0
   61.6950   30.9290   48.7830 C   0  0  0  0  0  0  0  0  0  0  0  0
   61.6130   30.9660   47.3890 C   0  0  0  0  0  0  0  0  0  0  0  0
   60.4290   30.5930   46.7470 C   0  0  0  0  0  0  0  0  0  0  0  0
   57.8850   33.0940   47.2440 C   0  0  0  0  0  0  0  0  0  0  0  0
   58.8550   33.5340   48.1460 C   0  0  0  0  0  0  0  0  0  0  0  0
   62.6669   34.0495   49.6826 H   0  0  0  0  0  0  0  0  0  0  0  0
   62.4087   33.1892   48.1270 H   0  0  0  0  0  0  0  0  0  0  0  0
   62.9460   34.9033   48.1270 H   0  0  0  0  0  0  0  0  0  0  0  0
   61.0949   34.8674   45.9336 H   0  0  0  0  0  0  0  0  0  0  0  0
   59.3643   34.0811   44.3219 H   0  0  0  0  0  0  0  0  0  0  0  0
   56.0555   33.2537   45.1106 H   0  0  0  0  0  0  0  0  0  0  0  0
   57.3561   33.0105   43.8721 H   0  0  0  0  0  0  0  0  0  0  0  0
   57.0210   31.0190   45.9880 H   0  0  0  0  0  0  0  0  0  0  0  0
   57.3582   30.6368   43.0602 H   0  0  0  0  0  0  0  0  0  0  0  0
   58.7558   31.0645   44.1164 H   0  0  0  0  0  0  0  0  0  0  0  0
   57.6486   28.3843   42.4842 H   0  0  0  0  0  0  0  0  0  0  0  0
   57.7142   25.9931   43.1837 H   0  0  0  0  0  0  0  0  0  0  0  0
   57.9696   25.3987   45.5937 H   0  0  0  0  0  0  0  0  0  0  0  0
   58.1578   27.1974   47.3108 H   0  0  0  0  0  0  0  0  0  0  0  0
   58.5399   29.8189   49.4928 H   0  0  0  0  0  0  0  0  0  0  0  0
   60.6575   30.4914   50.6348 H   0  0  0  0  0  0  0  0  0  0  0  0
   62.6273   31.2235   49.2871 H   0  0  0  0  0  0  0  0  0  0  0  0
   62.4813   31.2891   46.7960 H   0  0  0  0  0  0  0  0  0  0  0  0
   60.3660   30.6318   45.6495 H   0  0  0  0  0  0  0  0  0  0  0  0
   56.9797   32.5926   47.6168 H   0  0  0  0  0  0  0  0  0  0  0  0
   58.7074   33.3789   49.2250 H   0  0  0  0  0  0  0  0  0  0  0  0
  1  2  1  0
  2  3  1  0
  3  4  2  0
  4  5  1  0
  5  6  2  0
  6  7  1  0
  7  8  1  0
  8  9  1  0
  9 10  1  0
 10 11  2  0
 11 12  1  0
 12 13  2  0
 13 14  1  0
 14 15  2  0
 15 16  1  0
 16 17  1  0
 17 18  2  0
 18 19  1  0
 19 20  2  0
 20 21  1  0
 21 22  2  0
  6 23  1  0
 23 24  2  0
 24  3  1  0
 15 10  1  0
 22 17  1  0
  1 25  1  0
  1 26  1  0
  1 27  1  0
  4 28  1  0
  5 29  1  0
  7 30  1  0
  7 31  1  0
  8 32  1  0
  9 33  1  0
  9 34  1  0
 11 35  1  0
 12 36  1  0
 13 37  1  0
 14 38  1  0
 18 39  1  0
 19 40  1  0
 20 41  1  0
 21 42  1  0
 22 43  1  0
 23 44  1  0
 24 45  1  0
M  END
>  <UniqueID>  (35) 
35

>  <SMILES>  (35) 
COc1ccc(CNCc2ccccc2Oc2ccccc2)cc1

>  <Energy>  (35) 
49.36274926132418

>  <Genealogy>  (35) 
COc1ccc(CNCc2ccccc2Oc2ccccc2)cc1 (3D coordinates assigned)
COc1ccc(CNCc2ccccc2Oc2ccccc2)cc1 (optimized conformer: 49.36274926132418 kcal/mol)

>  <smiles>  (35) 
COc1ccc(CNCc2ccccc2Oc2ccccc2)cc1

>  <score_type>  (35) 
oracle

>  <origin>  (35) 
adg

>  <m_score__min__energy>  (35) 
-7.4800000000000004

>  <m_primary>  (35) 
energy

$$$$
35:0
     RDKit          3D

 71 75  0  0  0  0  0  0  0  0999 V2000
   56.4660   19.7850   45.3130 C   0  0  0  0  0  0  0  0  0  0  0  0
   56.9880   20.7010   46.2700 O   0  0  0  0  0  0  0  0  0  0  0  0
   57.0120   22.0950   46.1040 C   0  0  0  0  0  0  0  0  0  0  0  0
   56.9350   22.6970   44.8370 C   0  0  0  0  0  0  0  0  0  0  0  0
   57.0180   24.0910   44.7060 C   0  0  0  0  0  0  0  0  0  0  0  0
   57.1420   24.9060   45.8360 C   0  0  0  0  0  0  0  0  0  0  0  0
   57.1340   24.3000   47.1100 C   0  0  0  0  0  0  0  0  0  0  0  0
   57.1150   22.9010   47.2460 C   0  0  0  0  0  0  0  0  0  0  0  0
   57.2010   22.2730   48.4990 O   0  0  0  0  0  0  0  0  0  0  0  0
   56.0830   21.7760   49.2300 C   0  0  0  0  0  0  0  0  0  0  0  0
   57.2230   26.4160   45.6120 C   0  0  1  0  0  0  0  0  0  0  0  0
   57.7790   27.1460   46.8620 C   0  0  0  0  0  0  0  0  0  0  0  0
   58.2370   28.5530   46.5980 C   0  0  0  0  0  0  0  0  0  0  0  0
   58.5190   29.3960   47.6820 C   0  0  0  0  0  0  0  0  0  0  0  0
   59.0510   30.6670   47.4710 C   0  0  0  0  0  0  0  0  0  0  0  0
   59.3330   31.1120   46.1760 C   0  0  0  0  0  0  0  0  0  0  0  0
   59.8780   32.3990   46.0230 O   0  0  0  0  0  0  0  0  0  0  0  0
   59.2640   33.4860   45.3310 C   0  0  0  0  0  0  0  0  0  0  0  0
   58.9110   34.6220   46.3040 C   0  0  0  0  0  0  0  0  0  0  0  0
   59.1610   34.2510   47.7740 C   0  0  0  0  0  0  0  0  0  0  0  0
   60.6210   34.4920   48.2070 C   0  0  0  0  0  0  0  0  0  0  0  0
   61.5080   33.3610   47.8400 N   0  0  0  0  0  0  0  0  0  0  0  0
   61.7260   32.4420   48.9880 C   0  0  0  0  0  0  0  0  0  0  0  0
   63.0020   31.5840   48.8380 C   0  0  0  0  0  0  0  0  0  0  0  0
   63.3740   31.4240   47.4300 N   0  0  0  0  0  0  0  0  0  0  0  0
   63.6920   32.7240   46.8160 C   0  0  0  0  0  0  0  0  0  0  0  0
   62.8010   33.8740   47.3370 C   0  0  0  0  0  0  0  0  0  0  0  0
   59.0640   30.2600   45.0850 C   0  0  0  0  0  0  0  0  0  0  0  0
   58.5180   28.9830   45.2930 C   0  0  0  0  0  0  0  0  0  0  0  0
   58.0920   28.1540   44.1180 C   0  0  0  0  0  0  0  0  0  0  0  0
   58.0860   26.7100   44.4350 N   0  0  0  0  0  0  0  0  0  0  0  0
   57.7720   25.9400   43.1940 C   0  0  0  0  0  0  0  0  0  0  0  0
   56.8330   24.7410   43.3750 C   0  0  0  0  0  0  0  0  0  0  0  0
   55.9865   18.9435   45.8345 H   0  0  0  0  0  0  0  0  0  0  0  0
   55.7238   20.2966   44.6826 H   0  0  0  0  0  0  0  0  0  0  0  0
   57.2845   19.4072   44.6826 H   0  0  0  0  0  0  0  0  0  0  0  0
   56.8087   22.0708   43.9415 H   0  0  0  0  0  0  0  0  0  0  0  0
   57.1428   24.9317   48.0105 H   0  0  0  0  0  0  0  0  0  0  0  0
   56.2814   21.8642   50.3084 H   0  0  0  0  0  0  0  0  0  0  0  0
   55.1875   22.3608   48.9729 H   0  0  0  0  0  0  0  0  0  0  0  0
   55.9172   20.7194   48.9729 H   0  0  0  0  0  0  0  0  0  0  0  0
   56.2034   26.7841   45.4253 H   0  0  0  0  0  0  0  0  0  0  0  0
   56.9866   27.1780   47.6243 H   0  0  0  0  0  0  0  0  0  0  0  0
   58.6634   26.5812   47.1919 H   0  0  0  0  0  0  0  0  0  0  0  0
   58.3188   29.0517   48.7074 H   0  0  0  0  0  0  0  0  0  0  0  0
   59.2504   31.3248   48.3298 H   0  0  0  0  0  0  0  0  0  0  0  0
   59.9593   33.8671   44.5686 H   0  0  0  0  0  0  0  0  0  0  0  0
   58.3382   33.1256   44.8586 H   0  0  0  0  0  0  0  0  0  0  0  0
   59.5242   35.5006   46.0548 H   0  0  0  0  0  0  0  0  0  0  0  0
   57.8360   34.8279   46.1942 H   0  0  0  0  0  0  0  0  0  0  0  0
   58.5004   34.8604   48.4083 H   0  0  0  0  0  0  0  0  0  0  0  0
   58.9536   33.1765   47.8860 H   0  0  0  0  0  0  0  0  0  0  0  0
   60.9898   35.4050   47.7168 H   0  0  0  0  0  0  0  0  0  0  0  0
   60.6364   34.5917   49.3024 H   0  0  0  0  0  0  0  0  0  0  0  0
   61.0490   32.8300   47.0610 H   0  0  0  0  0  0  0  0  0  0  0  0
   61.8123   33.0417   49.9061 H   0  0  0  0  0  0  0  0  0  0  0  0
   60.8686   31.7540   49.0273 H   0  0  0  0  0  0  0  0  0  0  0  0
   63.8284   32.0744   49.3734 H   0  0  0  0  0  0  0  0  0  0  0  0
   62.8018   30.5878   49.2593 H   0  0  0  0  0  0  0  0  0  0  0  0
   62.5740   30.9880   46.9150 H   0  0  0  0  0  0  0  0  0  0  0  0
   64.7420   32.9675   47.0356 H   0  0  0  0  0  0  0  0  0  0  0  0
   63.5085   32.6303   45.7355 H   0  0  0  0  0  0  0  0  0  0  0  0
   63.3244   34.3917   48.1543 H   0  0  0  0  0  0  0  0  0  0  0  0
   62.6022   34.5658   46.5052 H   0  0  0  0  0  0  0  0  0  0  0  0
   59.2838   30.5987   44.0618 H   0  0  0  0  0  0  0  0  0  0  0  0
   57.0777   28.4565   43.8184 H   0  0  0  0  0  0  0  0  0  0  0  0
   58.8125   28.3212   43.3038 H   0  0  0  0  0  0  0  0  0  0  0  0
   57.3039   26.6306   42.4771 H   0  0  0  0  0  0  0  0  0  0  0  0
   58.7296   25.5217   42.8503 H   0  0  0  0  0  0  0  0  0  0  0  0
   55.7924   25.0869   43.2888 H   0  0  0  0  0  0  0  0  0  0  0  0
   57.0681   24.0006   42.5961 H   0  0  0  0  0  0  0  0  0  0  0  0
  1  2  1  0
  2  3  1  0
  3  4  2  0
  4  5  1  0
  5  6  2  0
  6  7  1  0
  7  8  2  0
  8  9  1  0
  9 10  1  0
  6 11  1  0
 11 12  1  0
 12 13  1  0
 13 14  2  0
 14 15  1  0
 15 16  2  0
 16 17  1  0
 17 18  1  0
 18 19  1  0
 19 20  1  0
 20 21  1  0
 21 22  1  0
 22 23  1  0
 23 24  1  0
 24 25  1  0
 25 26  1  0
 26 27  1  0
 16 28  1  0
 28 29  2  0
 29 30  1  0
 30 31  1  0
 31 32  1  0
 32 33  1  0
  8  3  1  0
 31 11  1  0
 33  5  1  0
 29 13  1  0
 27 22  1  0
  1 34  1  0
  1 35  1  0
  1 36  1  0
  4 37  1  0
  7 38  1  0
 10 39  1  0
 10 40  1  0
 10 41  1  0
 11 42  1  6
 12 43  1  0
 12 44  1  0
 14 45  1  0
 15 46  1  0
 18 47  1  0
 18 48  1  0
 19 49  1  0
 19 50  1  0
 20 51  1  0
 20 52  1  0
 21 53  1  0
 21 54  1  0
 22 55  1  0
 23 56  1  0
 23 57  1  0
 24 58  1  0
 24 59  1  0
 25 60  1  0
 26 61  1  0
 26 62  1  0
 27 63  1  0
 27 64  1  0
 28 65  1  0
 30 66  1  0
 30 67  1  0
 32 68  1  0
 32 69  1  0
 33 70  1  0
 33 71  1  0
M  CHG  1  22   1
M  END
>  <UniqueID>  (36) 
36

>  <SMILES>  (36) 
COc1cc2c(cc1OC)[C@H]1Cc3ccc(OCCCC[NH+]4CCNCC4)cc3CN1CC2

>  <Energy>  (36) 
96.608311220839

>  <Genealogy>  (36) 
COc1cc2c(cc1OC)C1Cc3ccc(OCCCC[NH+]4CCNCC4)cc3CN1CC2 (protonated)
COc1cc2c(cc1OC)[C@H]1Cc3ccc(OCCCC[NH+]4CCNCC4)cc3CN1CC2 (chirality)
COc1cc2c(cc1OC)[C@H]1Cc3ccc(OCCCC[NH+]4CCNCC4)cc3CN1CC2 (3D coordinates assigned)
COc1cc2c(cc1OC)[C@H]1Cc3ccc(OCCCC[NH+]4CCNCC4)cc3CN1CC2 (nonaromatic ring conformer: 96.608311220839 kcal/mol)

>  <smiles>  (36) 
COc1cc2c(cc1OC)C1Cc3ccc(OCCCCN4CCNCC4)cc3CN1CC2

>  <score_type>  (36) 
oracle

>  <origin>  (36) 
adg

>  <m_score__min__energy>  (36) 
-7.54

>  <m_primary>  (36) 
energy

$$$$
36:0
     RDKit          3D

 49 51  0  0  0  0  0  0  0  0999 V2000
   57.0030   28.9720   44.0360 C   0  0  0  0  0  0  0  0  0  0  0  0
   56.6430   30.0670   44.8720 O   0  0  0  0  0  0  0  0  0  0  0  0
   57.3390   31.2850   44.9290 C   0  0  0  0  0  0  0  0  0  0  0  0
   57.6090   32.0480   43.7820 C   0  0  0  0  0  0  0  0  0  0  0  0
   58.3080   33.2490   43.8850 C   0  0  0  0  0  0  0  0  0  0  0  0
   58.7460   33.7120   45.1340 C   0  0  0  0  0  0  0  0  0  0  0  0
   59.4560   34.9150   45.2170 C   0  0  0  0  0  0  0  0  0  0  0  0
   59.9060   35.3800   46.4480 C   0  0  0  0  0  0  0  0  0  0  0  0
   59.6480   34.6590   47.6120 C   0  0  0  0  0  0  0  0  0  0  0  0
   58.9210   33.4480   47.5750 C   0  0  0  0  0  0  0  0  0  0  0  0
   58.6320   32.6550   48.8480 C   0  0  0  0  0  0  0  0  0  0  0  0
   59.7810   32.5560   49.8650 C   0  0  0  0  0  0  0  0  0  0  0  0
   60.5810   31.3330   49.6070 N   0  0  0  0  0  0  0  0  0  0  0  0
   59.8370   30.3890   48.7450 C   0  0  0  0  0  0  0  0  0  0  0  0
   61.9590   31.6450   49.1300 C   0  0  0  0  0  0  0  0  0  0  0  0
   62.6140   32.8670   49.8440 C   0  0  0  0  0  0  0  0  0  0  0  0
   62.6520   34.1120   48.9480 C   0  0  0  0  0  0  0  0  0  0  0  0
   63.4320   33.8560   47.6430 C   0  0  0  0  0  0  0  0  0  0  0  0
   63.3190   32.4050   47.1270 C   0  0  0  0  0  0  0  0  0  0  0  0
   62.0170   31.7390   47.5830 C   0  0  0  0  0  0  0  0  0  0  0  0
   58.4760   32.9610   46.3090 C   0  0  0  0  0  0  0  0  0  0  0  0
   57.7720   31.7420   46.1780 C   0  0  0  0  0  0  0  0  0  0  0  0
   57.2859   28.1116   44.6603 H   0  0  0  0  0  0  0  0  0  0  0  0
   56.1474   28.6987   43.4010 H   0  0  0  0  0  0  0  0  0  0  0  0
   57.8538   29.2598   43.4010 H   0  0  0  0  0  0  0  0  0  0  0  0
   57.2672   31.6962   42.7974 H   0  0  0  0  0  0  0  0  0  0  0  0
   58.5177   33.8381   42.9800 H   0  0  0  0  0  0  0  0  0  0  0  0
   59.6590   35.4952   44.3048 H   0  0  0  0  0  0  0  0  0  0  0  0
   60.4693   36.3232   46.5031 H   0  0  0  0  0  0  0  0  0  0  0  0
   60.0166   35.0390   48.5762 H   0  0  0  0  0  0  0  0  0  0  0  0
   57.7781   33.1307   49.3525 H   0  0  0  0  0  0  0  0  0  0  0  0
   58.4458   31.6234   48.5148 H   0  0  0  0  0  0  0  0  0  0  0  0
   60.4276   33.4410   49.7718 H   0  0  0  0  0  0  0  0  0  0  0  0
   59.3618   32.5065   50.8808 H   0  0  0  0  0  0  0  0  0  0  0  0
   59.2784   29.6803   49.3741 H   0  0  0  0  0  0  0  0  0  0  0  0
   59.1342   30.9483   48.1099 H   0  0  0  0  0  0  0  0  0  0  0  0
   60.5450   29.8364   48.1099 H   0  0  0  0  0  0  0  0  0  0  0  0
   62.5865   30.7912   49.4255 H   0  0  0  0  0  0  0  0  0  0  0  0
   62.0346   33.1002   50.7495 H   0  0  0  0  0  0  0  0  0  0  0  0
   63.6516   32.5971   50.0900 H   0  0  0  0  0  0  0  0  0  0  0  0
   61.6209   34.4004   48.6956 H   0  0  0  0  0  0  0  0  0  0  0  0
   63.1637   34.9143   49.4998 H   0  0  0  0  0  0  0  0  0  0  0  0
   63.0425   34.5318   46.8673 H   0  0  0  0  0  0  0  0  0  0  0  0
   64.4945   34.0374   47.8626 H   0  0  0  0  0  0  0  0  0  0  0  0
   63.3478   32.4148   46.0274 H   0  0  0  0  0  0  0  0  0  0  0  0
   64.1605   31.8289   47.5393 H   0  0  0  0  0  0  0  0  0  0  0  0
   61.1633   32.3336   47.2256 H   0  0  0  0  0  0  0  0  0  0  0  0
   61.9764   30.7218   47.1662 H   0  0  0  0  0  0  0  0  0  0  0  0
   57.5608   31.1417   47.0752 H   0  0  0  0  0  0  0  0  0  0  0  0
  1  2  1  0
  2  3  1  0
  3  4  2  0
  4  5  1  0
  5  6  2  0
  6  7  1  0
  7  8  2  0
  8  9  1  0
  9 10  2  0
 10 11  1  0
 11 12  1  0
 12 13  1  0
 13 14  1  0
 13 15  1  0
 15 16  1  0
 16 17  1  0
 17 18  1  0
 18 19  1  0
 19 20  1  0
 10 21  1  0
 21 22  2  0
 22  3  1  0
 21  6  1  0
 20 15  1  0
  1 23  1  0
  1 24  1  0
  1 25  1  0
  4 26  1  0
  5 27  1  0
  7 28  1  0
  8 29  1  0
  9 30  1  0
 11 31  1  0
 11 32  1  0
 12 33  1  0
 12 34  1  0
 14 35  1  0
 14 36  1  0
 14 37  1  0
 15 38  1  0
 16 39  1  0
 16 40  1  0
 17 41  1  0
 17 42  1  0
 18 43  1  0
 18 44  1  0
 19 45  1  0
 19 46  1  0
 20 47  1  0
 20 48  1  0
 22 49  1  0
M  END
>  <UniqueID>  (37) 
37

>  <SMILES>  (37) 
COc1ccc2cccc(CCN(C)C3CCCCC3)c2c1

>  <Energy>  (37) 
66.88230547112857

>  <Genealogy>  (37) 
COc1ccc2cccc(CCN(C)C3CCCCC3)c2c1 (3D coordinates assigned)
COc1ccc2cccc(CCN(C)C3CCCCC3)c2c1 (nonaromatic ring conformer: 66.88230547112857 kcal/mol)

>  <smiles>  (37) 
COc1ccc2cccc(CCN(C)C3CCCCC3)c2c1

>  <score_type>  (37) 
oracle

>  <origin>  (37) 
adg

>  <m_score__min__energy>  (37) 
-8.5899999999999999

>  <m_primary>  (37) 
energy

$$$$
37:0
     RDKit          3D

 39 41  0  0  0  0  0  0  0  0999 V2000
   62.6200   31.1910   50.1080 C   0  0  0  0  0  0  0  0  0  0  0  0
   61.4850   30.3320   50.1050 O   0  0  0  0  0  0  0  0  0  0  0  0
   60.6480   30.1310   48.9970 C   0  0  0  0  0  0  0  0  0  0  0  0
   60.9950   30.7350   47.7840 C   0  0  0  0  0  0  0  0  0  0  0  0
   60.1950   30.5640   46.6510 C   0  0  0  0  0  0  0  0  0  0  0  0
   59.0340   29.7820   46.7200 C   0  0  0  0  0  0  0  0  0  0  0  0
   58.2120   29.6060   45.5540 N   0  0  0  0  0  0  0  0  0  0  0  0
   57.8970   28.4300   44.9630 C   0  0  0  0  0  0  0  0  0  0  0  0
   58.3990   27.0730   45.3870 C   0  0  0  0  0  0  0  0  0  0  0  0
   57.3690   25.9720   45.1080 C   0  0  0  0  0  0  0  0  0  0  0  0
   56.2930   25.9430   46.1500 C   0  0  0  0  0  0  0  0  0  0  0  0
   56.4040   25.1900   47.1530 O   0  0  0  0  0  0  0  0  0  0  0  0
   55.1510   26.7190   45.9930 O   0  0  0  0  0  0  0  0  0  0  0  0
   57.1330   28.6570   43.8340 C   0  0  0  0  0  0  0  0  0  0  0  0
   56.9660   30.0230   43.7390 C   0  0  0  0  0  0  0  0  0  0  0  0
   57.6410   30.5820   44.8100 C   0  0  0  0  0  0  0  0  0  0  0  0
   57.6870   32.0280   45.1170 C   0  0  0  0  0  0  0  0  0  0  0  0
   58.0050   33.0380   44.2270 C   0  0  0  0  0  0  0  0  0  0  0  0
   57.9150   34.2100   44.9460 C   0  0  0  0  0  0  0  0  0  0  0  0
   57.5470   33.8480   46.2250 C   0  0  0  0  0  0  0  0  0  0  0  0
   57.4190   32.5440   46.2950 O   0  0  0  0  0  0  0  0  0  0  0  0
   58.6780   29.1790   47.9330 C   0  0  0  0  0  0  0  0  0  0  0  0
   59.4780   29.3500   49.0660 C   0  0  0  0  0  0  0  0  0  0  0  0
   62.9106   31.4110   51.1459 H   0  0  0  0  0  0  0  0  0  0  0  0
   63.4553   30.6968   49.5902 H   0  0  0  0  0  0  0  0  0  0  0  0
   62.3712   32.1291   49.5902 H   0  0  0  0  0  0  0  0  0  0  0  0
   61.9051   31.3497   47.7214 H   0  0  0  0  0  0  0  0  0  0  0  0
   60.4773   31.0444   45.7026 H   0  0  0  0  0  0  0  0  0  0  0  0
   59.3219   26.8458   44.8332 H   0  0  0  0  0  0  0  0  0  0  0  0
   58.5848   27.1006   46.4708 H   0  0  0  0  0  0  0  0  0  0  0  0
   56.9091   26.1547   44.1256 H   0  0  0  0  0  0  0  0  0  0  0  0
   57.8895   25.0031   45.1255 H   0  0  0  0  0  0  0  0  0  0  0  0
   56.7356   27.8967   43.1455 H   0  0  0  0  0  0  0  0  0  0  0  0
   56.4049   30.5633   42.9623 H   0  0  0  0  0  0  0  0  0  0  0  0
   58.2738   32.9284   43.1660 H   0  0  0  0  0  0  0  0  0  0  0  0
   58.0995   35.2289   44.5748 H   0  0  0  0  0  0  0  0  0  0  0  0
   57.3854   34.5463   47.0594 H   0  0  0  0  0  0  0  0  0  0  0  0
   57.7651   28.5684   47.9941 H   0  0  0  0  0  0  0  0  0  0  0  0
   59.1929   28.8729   50.0152 H   0  0  0  0  0  0  0  0  0  0  0  0
  1  2  1  0
  2  3  1  0
  3  4  2  0
  4  5  1  0
  5  6  2  0
  6  7  1  0
  7  8  1  0
  8  9  1  0
  9 10  1  0
 10 11  1  0
 11 12  2  0
 11 13  1  0
  8 14  2  0
 14 15  1  0
 15 16  2  0
 16 17  1  0
 17 18  2  0
 18 19  1  0
 19 20  2  0
 20 21  1  0
  6 22  1  0
 22 23  2  0
 23  3  1  0
 16  7  1  0
 21 17  1  0
  1 24  1  0
  1 25  1  0
  1 26  1  0
  4 27  1  0
  5 28  1  0
  9 29  1  0
  9 30  1  0
 10 31  1  0
 10 32  1  0
 14 33  1  0
 15 34  1  0
 18 35  1  0
 19 36  1  0
 20 37  1  0
 22 38  1  0
 23 39  1  0
M  CHG  1  13  -1
M  END
>  <UniqueID>  (38) 
38

>  <SMILES>  (38) 
COc1ccc(-n2c(CCC(=O)[O-])ccc2-c2ccco2)cc1

>  <Energy>  (38) 
94.62626742885624

>  <Genealogy>  (38) 
COc1ccc(-n2c(CCC(=O)[O-])ccc2-c2ccco2)cc1 (protonated)
COc1ccc(-n2c(CCC(=O)[O-])ccc2-c2ccco2)cc1 (3D coordinates assigned)
COc1ccc(-n2c(CCC(=O)[O-])ccc2-c2ccco2)cc1 (optimized conformer: 94.62626742885624 kcal/mol)

>  <smiles>  (38) 
COc1ccc(-n2c(CCC(=O)O)ccc2-c2ccco2)cc1

>  <score_type>  (38) 
oracle

>  <origin>  (38) 
adg

>  <m_score__min__energy>  (38) 
-9.4700000000000006

>  <m_primary>  (38) 
energy

$$$$
38:0
     RDKit          3D

 41 44  0  0  0  0  0  0  0  0999 V2000
   59.5460   29.1020   50.0370 C   0  0  0  0  0  0  0  0  0  0  0  0
   60.0040   28.2390   49.3310 C   0  0  0  0  0  0  0  0  0  0  0  0
   60.5560   27.1870   48.4730 C   0  0  0  0  0  0  0  0  0  0  0  0
   59.6010   27.0690   46.9230 S   0  0  0  0  0  0  0  0  0  0  0  0
   59.6400   28.8350   46.5920 C   0  0  0  0  0  0  0  0  0  0  0  0
   60.7070   29.6030   46.9790 N   0  0  0  0  0  0  0  0  0  0  0  0
   60.7250   30.9680   46.7630 C   0  0  0  0  0  0  0  0  0  0  0  0
   61.8580   31.8100   47.2110 C   0  0  0  0  0  0  0  0  0  0  0  0
   62.0530   33.1190   46.7340 C   0  0  0  0  0  0  0  0  0  0  0  0
   63.1370   33.8660   47.2030 C   0  0  0  0  0  0  0  0  0  0  0  0
   64.0100   33.3140   48.1390 C   0  0  0  0  0  0  0  0  0  0  0  0
   63.7810   32.0180   48.6040 C   0  0  0  0  0  0  0  0  0  0  0  0
   62.7220   31.3060   48.1370 N   0  0  0  0  0  0  0  0  0  0  0  0
   59.6580   31.5790   46.1570 N   0  0  0  0  0  0  0  0  0  0  0  0
   58.6230   30.8040   45.7640 C   0  0  0  0  0  0  0  0  0  0  0  0
   58.5850   29.4750   45.9620 C   0  0  0  0  0  0  0  0  0  0  0  0
   57.4000   29.0030   45.5330 N   0  0  0  0  0  0  0  0  0  0  0  0
   56.7370   30.0680   45.0760 N   0  0  0  0  0  0  0  0  0  0  0  0
   57.4680   31.1740   45.2000 N   0  0  0  0  0  0  0  0  0  0  0  0
   57.0120   32.5240   44.8870 C   0  0  0  0  0  0  0  0  0  0  0  0
   57.8990   33.5320   45.5640 C   0  0  0  0  0  0  0  0  0  0  0  0
   58.7570   34.3470   44.8060 C   0  0  0  0  0  0  0  0  0  0  0  0
   59.6170   35.2480   45.4410 C   0  0  0  0  0  0  0  0  0  0  0  0
   59.6320   35.3370   46.8360 C   0  0  0  0  0  0  0  0  0  0  0  0
   58.7880   34.5230   47.5980 C   0  0  0  0  0  0  0  0  0  0  0  0
   57.9280   33.6190   46.9660 C   0  0  0  0  0  0  0  0  0  0  0  0
   59.1280   29.8895   50.6813 H   0  0  0  0  0  0  0  0  0  0  0  0
   61.6038   27.4240   48.2366 H   0  0  0  0  0  0  0  0  0  0  0  0
   60.4979   26.2251   49.0035 H   0  0  0  0  0  0  0  0  0  0  0  0
   61.4910   29.1330   47.4810 H   0  0  0  0  0  0  0  0  0  0  0  0
   61.3584   33.5507   45.9984 H   0  0  0  0  0  0  0  0  0  0  0  0
   63.3012   34.8891   46.8337 H   0  0  0  0  0  0  0  0  0  0  0  0
   64.8697   33.8932   48.5070 H   0  0  0  0  0  0  0  0  0  0  0  0
   64.4577   31.5731   49.3484 H   0  0  0  0  0  0  0  0  0  0  0  0
   57.0485   32.6784   43.7985 H   0  0  0  0  0  0  0  0  0  0  0  0
   55.9797   32.6505   45.2453 H   0  0  0  0  0  0  0  0  0  0  0  0
   58.7519   34.2757   43.7083 H   0  0  0  0  0  0  0  0  0  0  0  0
   60.2824   35.8874   44.8424 H   0  0  0  0  0  0  0  0  0  0  0  0
   60.3078   36.0475   47.3344 H   0  0  0  0  0  0  0  0  0  0  0  0
   58.8005   34.5938   48.6957 H   0  0  0  0  0  0  0  0  0  0  0  0
   57.2720   32.9738   47.5688 H   0  0  0  0  0  0  0  0  0  0  0  0
  1  2  3  0
  2  3  1  0
  3  4  1  0
  4  5  1  0
  5  6  2  0
  6  7  1  0
  7  8  1  0
  8  9  2  0
  9 10  1  0
 10 11  2  0
 11 12  1  0
 12 13  2  0
  7 14  2  0
 14 15  1  0
 15 16  2  0
 16 17  1  0
 17 18  2  0
 18 19  1  0
 19 20  1  0
 20 21  1  0
 21 22  2  0
 22 23  1  0
 23 24  2  0
 24 25  1  0
 25 26  2  0
 16  5  1  0
 26 21  1  0
 13  8  1  0
 19 15  1  0
  1 27  1  0
  3 28  1  0
  3 29  1  0
  6 30  1  0
  9 31  1  0
 10 32  1  0
 11 33  1  0
 12 34  1  0
 20 35  1  0
 20 36  1  0
 22 37  1  0
 23 38  1  0
 24 39  1  0
 25 40  1  0
 26 41  1  0
M  CHG  1   6   1
M  END
>  <UniqueID>  (39) 
39

>  <SMILES>  (39) 
C#CCSc1[nH+]c(-c2ccccn2)nc2c1nnn2Cc1ccccc1

>  <Energy>  (39) 
88.15956503932524

>  <Genealogy>  (39) 
C#CCSc1[nH+]c(-c2ccccn2)nc2c1nnn2Cc1ccccc1 (protonated)
C#CCSc1[nH+]c(-c2ccccn2)nc2c1nnn2Cc1ccccc1 (3D coordinates assigned)
C#CCSc1[nH+]c(-c2ccccn2)nc2c1nnn2Cc1ccccc1 (optimized conformer: 88.15956503932524 kcal/mol)

>  <smiles>  (39) 
C#CCSc1nc(-c2ccccn2)nc2c1nnn2Cc1ccccc1

>  <score_type>  (39) 
oracle

>  <origin>  (39) 
adg

>  <m_score__min__energy>  (39) 
-7.0499999999999998

>  <m_primary>  (39) 
energy

$$$$
39:0
     RDKit          3D

 59 62  0  0  0  0  0  0  0  0999 V2000
   62.6910   29.7280   51.9980 C   0  0  0  0  0  0  0  0  0  0  0  0
   61.8450   30.3900   51.0640 O   0  0  0  0  0  0  0  0  0  0  0  0
   62.2960   31.0470   49.9080 C   0  0  0  0  0  0  0  0  0  0  0  0
   63.3250   32.0100   49.9500 C   0  0  0  0  0  0  0  0  0  0  0  0
   63.7680   32.6220   48.7750 C   0  0  0  0  0  0  0  0  0  0  0  0
   63.1950   32.2850   47.5490 C   0  0  0  0  0  0  0  0  0  0  0  0
   62.1710   31.3380   47.4950 C   0  0  0  0  0  0  0  0  0  0  0  0
   61.7120   30.7210   48.6690 C   0  0  0  0  0  0  0  0  0  0  0  0
   60.6490   29.7580   48.5960 N   0  0  0  0  0  0  0  0  0  0  0  0
   59.4980   30.0070   47.7230 C   0  0  0  0  0  0  0  0  0  0  0  0
   58.5160   28.8300   47.7740 C   0  0  0  0  0  0  0  0  0  0  0  0
   59.1880   27.5300   47.5340 N   0  0  0  0  0  0  0  0  0  0  0  0
   59.3520   27.2560   46.0880 C   0  0  0  0  0  0  0  0  0  0  0  0
   58.0840   26.6010   45.4980 C   0  0  1  0  0  0  0  0  0  0  0  0
   56.9880   26.8150   46.3510 O   0  0  0  0  0  0  0  0  0  0  0  0
   57.7670   27.1550   44.0970 C   0  0  0  0  0  0  0  0  0  0  0  0
   58.0760   28.5820   43.9970 N   0  0  0  0  0  0  0  0  0  0  0  0
   57.3280   29.5900   44.6950 C   0  0  0  0  0  0  0  0  0  0  0  0
   56.2560   29.2810   45.2840 O   0  0  0  0  0  0  0  0  0  0  0  0
   57.8060   30.9900   44.7270 C   0  0  0  0  0  0  0  0  0  0  0  0
   57.8410   31.7710   43.5580 C   0  0  0  0  0  0  0  0  0  0  0  0
   58.2830   33.0930   43.6220 C   0  0  0  0  0  0  0  0  0  0  0  0
   58.6870   33.6340   44.8490 C   0  0  0  0  0  0  0  0  0  0  0  0
   59.1310   34.9610   44.9500 C   0  0  0  0  0  0  0  0  0  0  0  0
   59.5270   35.4710   46.1920 C   0  0  0  0  0  0  0  0  0  0  0  0
   59.4810   34.6630   47.3330 C   0  0  0  0  0  0  0  0  0  0  0  0
   59.0390   33.3410   47.2400 C   0  0  0  0  0  0  0  0  0  0  0  0
   58.6400   32.8210   46.0030 C   0  0  0  0  0  0  0  0  0  0  0  0
   58.2050   31.5370   45.9090 N   0  0  0  0  0  0  0  0  0  0  0  0
   60.4600   27.3400   48.2920 C   0  0  0  0  0  0  0  0  0  0  0  0
   60.7670   28.4710   49.2830 C   0  0  0  0  0  0  0  0  0  0  0  0
   62.3730   29.9768   53.0212 H   0  0  0  0  0  0  0  0  0  0  0  0
   62.6234   28.6405   51.8473 H   0  0  0  0  0  0  0  0  0  0  0  0
   63.7304   30.0551   51.8473 H   0  0  0  0  0  0  0  0  0  0  0  0
   63.7815   32.2809   50.9134 H   0  0  0  0  0  0  0  0  0  0  0  0
   64.5714   33.3722   48.8169 H   0  0  0  0  0  0  0  0  0  0  0  0
   63.5498   32.7652   46.6251 H   0  0  0  0  0  0  0  0  0  0  0  0
   61.7211   31.0737   46.5266 H   0  0  0  0  0  0  0  0  0  0  0  0
   58.9839   30.9211   48.0548 H   0  0  0  0  0  0  0  0  0  0  0  0
   59.8561   30.1250   46.6897 H   0  0  0  0  0  0  0  0  0  0  0  0
   58.0425   28.8063   48.7666 H   0  0  0  0  0  0  0  0  0  0  0  0
   57.7705   28.9771   46.9787 H   0  0  0  0  0  0  0  0  0  0  0  0
   59.5446   28.2031   45.5626 H   0  0  0  0  0  0  0  0  0  0  0  0
   60.1959   26.5625   45.9577 H   0  0  0  0  0  0  0  0  0  0  0  0
   58.2740   25.5214   45.4068 H   0  0  0  0  0  0  0  0  0  0  0  0
   57.0420   27.7560   46.6610 H   0  0  0  0  0  0  0  0  0  0  0  0
   58.3650   26.6077   43.3535 H   0  0  0  0  0  0  0  0  0  0  0  0
   56.6908   27.0232   43.9114 H   0  0  0  0  0  0  0  0  0  0  0  0
   58.8650   28.8650   43.3720 H   0  0  0  0  0  0  0  0  0  0  0  0
   57.5213   31.3415   42.5971 H   0  0  0  0  0  0  0  0  0  0  0  0
   58.3140   33.7087   42.7110 H   0  0  0  0  0  0  0  0  0  0  0  0
   59.1679   35.5994   44.0550 H   0  0  0  0  0  0  0  0  0  0  0  0
   59.8757   36.5113   46.2711 H   0  0  0  0  0  0  0  0  0  0  0  0
   59.7937   35.0696   48.3061 H   0  0  0  0  0  0  0  0  0  0  0  0
   59.0045   32.7084   48.1392 H   0  0  0  0  0  0  0  0  0  0  0  0
   60.3913   26.3965   48.8534 H   0  0  0  0  0  0  0  0  0  0  0  0
   61.2746   27.3326   47.5529 H   0  0  0  0  0  0  0  0  0  0  0  0
   60.0519   28.4327   50.1180 H   0  0  0  0  0  0  0  0  0  0  0  0
   61.7885   28.3529   49.6737 H   0  0  0  0  0  0  0  0  0  0  0  0
  1  2  1  0
  2  3  1  0
  3  4  2  0
  4  5  1  0
  5  6  2  0
  6  7  1  0
  7  8  2  0
  8  9  1  0
  9 10  1  0
 10 11  1  0
 11 12  1  0
 12 13  1  0
 13 14  1  0
 14 15  1  0
 14 16  1  0
 16 17  1  0
 17 18  1  0
 18 19  2  0
 18 20  1  0
 20 21  2  0
 21 22  1  0
 22 23  2  0
 23 24  1  0
 24 25  2  0
 25 26  1  0
 26 27  2  0
 27 28  1  0
 28 29  2  0
 12 30  1  0
 30 31  1  0
  8  3  1  0
 31  9  1  0
 29 20  1  0
 28 23  1  0
  1 32  1  0
  1 33  1  0
  1 34  1  0
  4 35  1  0
  5 36  1  0
  6 37  1  0
  7 38  1  0
 10 39  1  0
 10 40  1  0
 11 41  1  0
 11 42  1  0
 13 43  1  0
 13 44  1  0
 14 45  1  6
 15 46  1  0
 16 47  1  0
 16 48  1  0
 17 49  1  0
 21 50  1  0
 22 51  1  0
 24 52  1  0
 25 53  1  0
 26 54  1  0
 27 55  1  0
 30 56  1  0
 30 57  1  0
 31 58  1  0
 31 59  1  0
M  END
>  <UniqueID>  (40) 
40

>  <SMILES>  (40) 
COc1ccccc1N1CCN(C[C@@H](O)CNC(=O)c2ccc3ccccc3n2)CC1

>  <Energy>  (40) 
74.59218002579145

>  <Genealogy>  (40) 
COc1ccccc1N1CCN(C[C@@H](O)CNC(=O)c2ccc3ccccc3n2)CC1 (chirality)
COc1ccccc1N1CCN(C[C@@H](O)CNC(=O)c2ccc3ccccc3n2)CC1 (3D coordinates assigned)
COc1ccccc1N1CCN(C[C@@H](O)CNC(=O)c2ccc3ccccc3n2)CC1 (nonaromatic ring conformer: 74.59218002579145 kcal/mol)

>  <smiles>  (40) 
COc1ccccc1N1CCN(CC(O)CNC(=O)c2ccc3ccccc3n2)CC1

>  <score_type>  (40) 
oracle

>  <origin>  (40) 
adg

>  <m_score__min__energy>  (40) 
-9.2799999999999994

>  <m_primary>  (40) 
energy

$$$$
40:0
     RDKit          3D

 47 49  0  0  0  0  0  0  0  0999 V2000
   62.8300   33.7740   46.7720 C   0  0  0  0  0  0  0  0  0  0  0  0
   63.3950   32.6620   47.6520 C   0  0  0  0  0  0  0  0  0  0  0  0
   62.2770   31.8730   48.3340 C   0  0  0  0  0  0  0  0  0  0  0  0
   61.6750   30.9360   47.3760 N   0  0  0  0  0  0  0  0  0  0  0  0
   60.7840   29.9700   48.0440 C   0  0  0  0  0  0  0  0  0  0  0  0
   59.3900   30.5730   48.2390 C   0  0  0  0  0  0  0  0  0  0  0  0
   58.8100   31.0740   46.9400 C   0  0  0  0  0  0  0  0  0  0  0  0
   58.3660   30.2940   45.8640 C   0  0  0  0  0  0  0  0  0  0  0  0
   58.2500   28.8230   45.8380 C   0  0  0  0  0  0  0  0  0  0  0  0
   59.3990   28.0380   45.6750 C   0  0  0  0  0  0  0  0  0  0  0  0
   59.3000   26.6450   45.6470 C   0  0  0  0  0  0  0  0  0  0  0  0
   58.0530   26.0260   45.7700 C   0  0  0  0  0  0  0  0  0  0  0  0
   56.8880   26.8040   45.9150 C   0  0  0  0  0  0  0  0  0  0  0  0
   55.6120   26.2330   46.0300 O   0  0  0  0  0  0  0  0  0  0  0  0
   55.2980   24.8890   45.6770 C   0  0  0  0  0  0  0  0  0  0  0  0
   56.9960   28.2000   45.9440 C   0  0  0  0  0  0  0  0  0  0  0  0
   58.1490   31.0640   44.7740 N   0  0  0  0  0  0  0  0  0  0  0  0
   58.4510   32.3200   45.1390 C   0  0  0  0  0  0  0  0  0  0  0  0
   58.4320   33.4520   44.3260 C   0  0  0  0  0  0  0  0  0  0  0  0
   58.8500   34.6720   44.8840 C   0  0  0  0  0  0  0  0  0  0  0  0
   59.2850   34.7320   46.2260 C   0  0  0  0  0  0  0  0  0  0  0  0
   59.6990   35.9150   46.7450 F   0  0  0  0  0  0  0  0  0  0  0  0
   59.3010   33.5730   47.0220 C   0  0  0  0  0  0  0  0  0  0  0  0
   59.7390   33.6350   48.3040 F   0  0  0  0  0  0  0  0  0  0  0  0
   58.8640   32.3720   46.4480 C   0  0  0  0  0  0  0  0  0  0  0  0
   62.4235   34.5741   47.4080 H   0  0  0  0  0  0  0  0  0  0  0  0
   63.6304   34.1814   46.1369 H   0  0  0  0  0  0  0  0  0  0  0  0
   62.0290   33.3678   46.1369 H   0  0  0  0  0  0  0  0  0  0  0  0
   63.9880   31.9772   47.0280 H   0  0  0  0  0  0  0  0  0  0  0  0
   64.0226   33.1198   48.4308 H   0  0  0  0  0  0  0  0  0  0  0  0
   62.6922   31.3107   49.1834 H   0  0  0  0  0  0  0  0  0  0  0  0
   61.5064   32.5708   48.6935 H   0  0  0  0  0  0  0  0  0  0  0  0
   61.1090   31.4960   46.6960 H   0  0  0  0  0  0  0  0  0  0  0  0
   60.7033   29.0640   47.4254 H   0  0  0  0  0  0  0  0  0  0  0  0
   61.2047   29.7199   49.0291 H   0  0  0  0  0  0  0  0  0  0  0  0
   58.7233   29.8022   48.6529 H   0  0  0  0  0  0  0  0  0  0  0  0
   59.4801   31.4277   48.9255 H   0  0  0  0  0  0  0  0  0  0  0  0
   60.3820   28.5201   45.5688 H   0  0  0  0  0  0  0  0  0  0  0  0
   60.2064   26.0332   45.5278 H   0  0  0  0  0  0  0  0  0  0  0  0
   57.9813   24.9285   45.7535 H   0  0  0  0  0  0  0  0  0  0  0  0
   55.1587   24.2928   46.5909 H   0  0  0  0  0  0  0  0  0  0  0  0
   54.3718   24.8725   45.0838 H   0  0  0  0  0  0  0  0  0  0  0  0
   56.1210   24.4639   45.0838 H   0  0  0  0  0  0  0  0  0  0  0  0
   56.0898   28.8144   46.0508 H   0  0  0  0  0  0  0  0  0  0  0  0
   57.8430   30.7430   43.8280 H   0  0  0  0  0  0  0  0  0  0  0  0
   58.0998   33.3921   43.2791 H   0  0  0  0  0  0  0  0  0  0  0  0
   58.8383   35.5858   44.2717 H   0  0  0  0  0  0  0  0  0  0  0  0
  1  2  1  0
  2  3  1  0
  3  4  1  0
  4  5  1  0
  5  6  1  0
  6  7  1  0
  7  8  2  0
  8  9  1  0
  9 10  2  0
 10 11  1  0
 11 12  2  0
 12 13  1  0
 13 14  1  0
 14 15  1  0
 13 16  2  0
  8 17  1  0
 17 18  1  0
 18 19  2  0
 19 20  1  0
 20 21  2  0
 21 22  1  0
 21 23  1  0
 23 24  1  0
 23 25  2  0
 25  7  1  0
 16  9  1  0
 25 18  1  0
  1 26  1  0
  1 27  1  0
  1 28  1  0
  2 29  1  0
  2 30  1  0
  3 31  1  0
  3 32  1  0
  4 33  1  0
  5 34  1  0
  5 35  1  0
  6 36  1  0
  6 37  1  0
 10 38  1  0
 11 39  1  0
 12 40  1  0
 15 41  1  0
 15 42  1  0
 15 43  1  0
 16 44  1  0
 17 45  1  0
 19 46  1  0
 20 47  1  0
M  END
>  <UniqueID>  (41) 
41

>  <SMILES>  (41) 
CCCNCCc1c(-c2cccc(OC)c2)[nH]c2ccc(F)c(F)c12

>  <Energy>  (41) 
77.27156165255133

>  <Genealogy>  (41) 
CCCNCCc1c(-c2cccc(OC)c2)[nH]c2ccc(F)c(F)c12 (3D coordinates assigned)
CCCNCCc1c(-c2cccc(OC)c2)[nH]c2ccc(F)c(F)c12 (optimized conformer: 77.27156165255133 kcal/mol)

>  <smiles>  (41) 
CCCNCCc1c(-c2cccc(OC)c2)[nH]c2ccc(F)c(F)c12

>  <score_type>  (41) 
oracle

>  <origin>  (41) 
adg

>  <m_score__min__energy>  (41) 
-7.54

>  <m_primary>  (41) 
energy

$$$$
41:0
     RDKit          3D

 41 43  0  0  0  0  0  0  0  0999 V2000
   58.5870   24.7390   45.8780 C   0  0  0  0  0  0  0  0  0  0  0  0
   59.1350   26.0520   46.2020 C   0  0  0  0  0  0  0  0  0  0  0  0
   59.5940   27.1340   46.4580 C   0  0  0  0  0  0  0  0  0  0  0  0
   60.1570   28.4480   46.7920 C   0  0  0  0  0  0  0  0  0  0  0  0
   59.2900   29.5270   46.2830 N   0  0  0  0  0  0  0  0  0  0  0  0
   58.2120   29.1330   45.5340 C   0  0  0  0  0  0  0  0  0  0  0  0
   57.2790   30.0490   45.0310 C   0  0  0  0  0  0  0  0  0  0  0  0
   56.1130   29.5550   44.2490 C   0  0  0  0  0  0  0  0  0  0  0  0
   55.1500   28.9890   44.8290 O   0  0  0  0  0  0  0  0  0  0  0  0
   56.0540   29.7170   42.8690 O   0  0  0  0  0  0  0  0  0  0  0  0
   57.4730   31.4130   45.2930 C   0  0  0  0  0  0  0  0  0  0  0  0
   56.6420   32.2640   44.8640 O   0  0  0  0  0  0  0  0  0  0  0  0
   58.5930   31.8340   46.0300 C   0  0  0  0  0  0  0  0  0  0  0  0
   58.7990   33.2050   46.2710 C   0  0  0  0  0  0  0  0  0  0  0  0
   59.9030   33.6420   46.9880 C   0  0  0  0  0  0  0  0  0  0  0  0
   60.0880   34.9690   47.1850 F   0  0  0  0  0  0  0  0  0  0  0  0
   60.8300   32.7230   47.4760 C   0  0  0  0  0  0  0  0  0  0  0  0
   61.9680   33.1830   48.2160 N   0  0  0  0  0  0  0  0  0  0  0  0
   61.7370   33.7570   49.5510 C   0  0  0  0  0  0  0  0  0  0  0  0
   63.0270   34.2960   50.1770 C   0  0  0  0  0  0  0  0  0  0  0  0
   64.1200   33.4430   49.9240 O   0  0  0  0  0  0  0  0  0  0  0  0
   64.4110   33.4640   48.5430 C   0  0  0  0  0  0  0  0  0  0  0  0
   63.2990   32.7890   47.7440 C   0  0  0  0  0  0  0  0  0  0  0  0
   60.6570   31.3540   47.2410 C   0  0  0  0  0  0  0  0  0  0  0  0
   61.6330   30.5320   47.7000 F   0  0  0  0  0  0  0  0  0  0  0  0
   59.5210   30.8730   46.5230 C   0  0  0  0  0  0  0  0  0  0  0  0
   58.3606   24.1966   46.8078 H   0  0  0  0  0  0  0  0  0  0  0  0
   57.6648   24.8613   45.2910 H   0  0  0  0  0  0  0  0  0  0  0  0
   59.3225   24.1694   45.2910 H   0  0  0  0  0  0  0  0  0  0  0  0
   60.2425   28.5378   47.8850 H   0  0  0  0  0  0  0  0  0  0  0  0
   61.1487   28.5388   46.3248 H   0  0  0  0  0  0  0  0  0  0  0  0
   58.0749   28.0626   45.3208 H   0  0  0  0  0  0  0  0  0  0  0  0
   58.0758   33.9390   45.8861 H   0  0  0  0  0  0  0  0  0  0  0  0
   61.0142   34.5814   49.4625 H   0  0  0  0  0  0  0  0  0  0  0  0
   61.3527   32.9577   50.2017 H   0  0  0  0  0  0  0  0  0  0  0  0
   63.2424   35.2881   49.7534 H   0  0  0  0  0  0  0  0  0  0  0  0
   62.8825   34.3578   51.2657 H   0  0  0  0  0  0  0  0  0  0  0  0
   64.5106   34.5081   48.2113 H   0  0  0  0  0  0  0  0  0  0  0  0
   65.3498   32.9167   48.3723 H   0  0  0  0  0  0  0  0  0  0  0  0
   63.3992   33.0727   46.6860 H   0  0  0  0  0  0  0  0  0  0  0  0
   63.3982   31.7013   47.8748 H   0  0  0  0  0  0  0  0  0  0  0  0
  1  2  1  0
  2  3  3  0
  3  4  1  0
  4  5  1  0
  5  6  1  0
  6  7  2  0
  7  8  1  0
  8  9  2  0
  8 10  1  0
  7 11  1  0
 11 12  2  0
 11 13  1  0
 13 14  2  0
 14 15  1  0
 15 16  1  0
 15 17  2  0
 17 18  1  0
 18 19  1  0
 19 20  1  0
 20 21  1  0
 21 22  1  0
 22 23  1  0
 17 24  1  0
 24 25  1  0
 24 26  2  0
 26  5  1  0
 26 13  1  0
 23 18  1  0
  1 27  1  0
  1 28  1  0
  1 29  1  0
  4 30  1  0
  4 31  1  0
  6 32  1  0
 14 33  1  0
 19 34  1  0
 19 35  1  0
 20 36  1  0
 20 37  1  0
 22 38  1  0
 22 39  1  0
 23 40  1  0
 23 41  1  0
M  CHG  1  10  -1
M  END
>  <UniqueID>  (42) 
42

>  <SMILES>  (42) 
CC#CCn1cc(C(=O)[O-])c(=O)c2cc(F)c(N3CCOCC3)c(F)c21

>  <Energy>  (42) 
61.70706287551182

>  <Genealogy>  (42) 
CC#CCn1cc(C(=O)[O-])c(=O)c2cc(F)c(N3CCOCC3)c(F)c21 (protonated)
CC#CCn1cc(C(=O)[O-])c(=O)c2cc(F)c(N3CCOCC3)c(F)c21 (3D coordinates assigned)
CC#CCn1cc(C(=O)[O-])c(=O)c2cc(F)c(N3CCOCC3)c(F)c21 (nonaromatic ring conformer: 61.70706287551182 kcal/mol)

>  <smiles>  (42) 
CC#CCn1cc(C(=O)O)c(=O)c2cc(F)c(N3CCOCC3)c(F)c21

>  <score_type>  (42) 
oracle

>  <origin>  (42) 
adg

>  <m_score__min__energy>  (42) 
-8.9100000000000001

>  <m_primary>  (42) 
energy

$$$$
42:0
     RDKit          3D

 51 53  0  0  0  0  0  0  0  0999 V2000
   57.0270   21.2730   42.7060 C   0  0  0  0  0  0  0  0  0  0  0  0
   56.5140   22.5670   43.3570 C   0  0  0  0  0  0  0  0  0  0  0  0
   56.8420   22.6780   44.7970 N   0  0  0  0  0  0  0  0  0  0  0  0
   57.9790   21.8180   45.1900 C   0  0  0  0  0  0  0  0  0  0  0  0
   59.3100   22.5140   44.9230 C   0  0  0  0  0  0  0  0  0  0  0  0
   55.6550   22.5260   45.6730 C   0  0  0  0  0  0  0  0  0  0  0  0
   54.7750   23.7720   45.5600 C   0  0  0  0  0  0  0  0  0  0  0  0
   55.2210   24.7840   46.4600 O   0  0  0  0  0  0  0  0  0  0  0  0
   56.5440   25.2430   46.5120 C   0  0  0  0  0  0  0  0  0  0  0  0
   57.3050   24.8760   47.4500 O   0  0  0  0  0  0  0  0  0  0  0  0
   57.0480   26.1540   45.4600 C   0  0  0  0  0  0  0  0  0  0  0  0
   57.6080   25.6320   44.2820 C   0  0  0  0  0  0  0  0  0  0  0  0
   58.0820   26.4880   43.2860 C   0  0  0  0  0  0  0  0  0  0  0  0
   58.0030   27.8720   43.4510 C   0  0  0  0  0  0  0  0  0  0  0  0
   57.4470   28.4170   44.6210 C   0  0  0  0  0  0  0  0  0  0  0  0
   57.3630   29.8810   44.7950 C   0  0  0  0  0  0  0  0  0  0  0  0
   56.2700   30.6210   44.5110 N   0  0  0  0  0  0  0  0  0  0  0  0
   56.6230   31.8580   44.8110 N   0  0  0  0  0  0  0  0  0  0  0  0
   57.8700   31.8780   45.2570 N   0  0  0  0  0  0  0  0  0  0  0  0
   58.5930   33.0450   45.6950 C   0  0  0  0  0  0  0  0  0  0  0  0
   58.6140   34.2010   44.8940 C   0  0  0  0  0  0  0  0  0  0  0  0
   59.3110   35.3400   45.3080 C   0  0  0  0  0  0  0  0  0  0  0  0
   59.9900   35.3420   46.5270 C   0  0  0  0  0  0  0  0  0  0  0  0
   59.9720   34.2040   47.3380 C   0  0  0  0  0  0  0  0  0  0  0  0
   60.8890   34.2140   49.0130 Br  0  0  0  0  0  0  0  0  0  0  0  0
   59.2770   33.0610   46.9280 C   0  0  0  0  0  0  0  0  0  0  0  0
   58.3670   30.6520   45.2650 N   0  0  0  0  0  0  0  0  0  0  0  0
   56.9710   27.5500   45.6210 C   0  0  0  0  0  0  0  0  0  0  0  0
   57.3113   20.5558   43.4901 H   0  0  0  0  0  0  0  0  0  0  0  0
   56.2335   20.8374   42.0810 H   0  0  0  0  0  0  0  0  0  0  0  0
   57.9034   21.4995   42.0810 H   0  0  0  0  0  0  0  0  0  0  0  0
   56.9634   23.4224   42.8313 H   0  0  0  0  0  0  0  0  0  0  0  0
   55.4170   22.5551   43.2765 H   0  0  0  0  0  0  0  0  0  0  0  0
   57.9022   21.5885   46.2630 H   0  0  0  0  0  0  0  0  0  0  0  0
   57.9414   20.8941   44.5942 H   0  0  0  0  0  0  0  0  0  0  0  0
   59.7908   22.7654   45.8799 H   0  0  0  0  0  0  0  0  0  0  0  0
   59.9657   21.8433   44.3483 H   0  0  0  0  0  0  0  0  0  0  0  0
   59.1333   23.4351   44.3483 H   0  0  0  0  0  0  0  0  0  0  0  0
   55.0801   21.6415   45.3612 H   0  0  0  0  0  0  0  0  0  0  0  0
   55.9824   22.4017   46.7158 H   0  0  0  0  0  0  0  0  0  0  0  0
   54.8233   24.1567   44.5306 H   0  0  0  0  0  0  0  0  0  0  0  0
   53.7404   23.5002   45.8162 H   0  0  0  0  0  0  0  0  0  0  0  0
   57.6734   24.5427   44.1436 H   0  0  0  0  0  0  0  0  0  0  0  0
   58.5196   26.0701   42.3674 H   0  0  0  0  0  0  0  0  0  0  0  0
   58.3779   28.5394   42.6611 H   0  0  0  0  0  0  0  0  0  0  0  0
   55.9850   32.6810   44.7290 H   0  0  0  0  0  0  0  0  0  0  0  0
   58.0775   34.2089   43.9337 H   0  0  0  0  0  0  0  0  0  0  0  0
   59.3242   36.2368   44.6712 H   0  0  0  0  0  0  0  0  0  0  0  0
   60.5392   36.2389   46.8495 H   0  0  0  0  0  0  0  0  0  0  0  0
   59.2641   32.1691   47.5717 H   0  0  0  0  0  0  0  0  0  0  0  0
   56.5334   27.9679   46.5396 H   0  0  0  0  0  0  0  0  0  0  0  0
  1  2  1  0
  2  3  1  0
  3  4  1  0
  4  5  1  0
  3  6  1  0
  6  7  1  0
  7  8  1  0
  8  9  1  0
  9 10  2  0
  9 11  1  0
 11 12  2  0
 12 13  1  0
 13 14  2  0
 14 15  1  0
 15 16  1  0
 16 17  1  0
 17 18  2  0
 18 19  1  0
 19 20  1  0
 20 21  2  0
 21 22  1  0
 22 23  2  0
 23 24  1  0
 24 25  1  0
 24 26  2  0
 19 27  1  0
 15 28  2  0
 28 11  1  0
 27 16  2  0
 26 20  1  0
  1 29  1  0
  1 30  1  0
  1 31  1  0
  2 32  1  0
  2 33  1  0
  4 34  1  0
  4 35  1  0
  5 36  1  0
  5 37  1  0
  5 38  1  0
  6 39  1  0
  6 40  1  0
  7 41  1  0
  7 42  1  0
 12 43  1  0
 13 44  1  0
 14 45  1  0
 18 46  1  0
 21 47  1  0
 22 48  1  0
 23 49  1  0
 26 50  1  0
 28 51  1  0
M  CHG  1  18   1
M  END
>  <UniqueID>  (43) 
43

>  <SMILES>  (43) 
CCN(CC)CCOC(=O)c1cccc(-c2n[nH+]n(-c3cccc(Br)c3)n2)c1

>  <Energy>  (43) 
93.4283558909887

>  <Genealogy>  (43) 
CCN(CC)CCOC(=O)c1cccc(-c2n[nH+]n(-c3cccc(Br)c3)n2)c1 (protonated)
CCN(CC)CCOC(=O)c1cccc(-c2n[nH+]n(-c3cccc(Br)c3)n2)c1 (3D coordinates assigned)
CCN(CC)CCOC(=O)c1cccc(-c2n[nH+]n(-c3cccc(Br)c3)n2)c1 (optimized conformer: 93.4283558909887 kcal/mol)

>  <smiles>  (43) 
CCN(CC)CCOC(=O)c1cccc(-c2nnn(-c3cccc(Br)c3)n2)c1

>  <score_type>  (43) 
oracle

>  <origin>  (43) 
adg

>  <m_score__min__energy>  (43) 
-7.7199999999999998

>  <m_primary>  (43) 
energy

$$$$
43:0
     RDKit          3D

 50 53  0  0  0  0  0  0  0  0999 V2000
   59.8640   29.8650   48.1650 C   0  0  0  0  0  0  0  0  0  0  0  0
   59.4970   30.4650   46.9270 O   0  0  0  0  0  0  0  0  0  0  0  0
   59.1610   31.8190   46.7620 C   0  0  0  0  0  0  0  0  0  0  0  0
   59.3250   32.7480   47.8100 C   0  0  0  0  0  0  0  0  0  0  0  0
   58.9890   34.0910   47.6280 C   0  0  0  0  0  0  0  0  0  0  0  0
   58.4860   34.5260   46.4040 C   0  0  0  0  0  0  0  0  0  0  0  0
   58.3160   33.6210   45.3560 C   0  0  0  0  0  0  0  0  0  0  0  0
   58.6460   32.2600   45.5180 C   0  0  0  0  0  0  0  0  0  0  0  0
   58.4500   31.2990   44.3470 C   0  0  2  0  0  0  0  0  0  0  0  0
   57.6160   31.9990   43.2400 C   0  0  0  0  0  0  0  0  0  0  0  0
   57.0180   30.9790   42.2790 C   0  0  0  0  0  0  0  0  0  0  0  0
   56.0270   30.0880   43.0250 C   0  0  0  0  0  0  0  0  0  0  0  0
   56.5140   29.7570   44.4120 C   0  0  0  0  0  0  0  0  0  0  0  0
   55.7270   29.2560   45.2040 O   0  0  0  0  0  0  0  0  0  0  0  0
   57.8970   29.9750   44.8100 N   0  0  1  0  0  0  0  0  0  0  0  0
   58.7410   28.8430   44.3480 C   0  0  0  0  0  0  0  0  0  0  0  0
   58.2040   27.5040   44.8070 C   0  0  0  0  0  0  0  0  0  0  0  0
   58.0980   27.2140   46.1760 C   0  0  0  0  0  0  0  0  0  0  0  0
   57.6320   25.9690   46.6030 C   0  0  0  0  0  0  0  0  0  0  0  0
   57.2690   24.9920   45.6640 C   0  0  0  0  0  0  0  0  0  0  0  0
   56.8010   23.7360   46.0830 C   0  0  0  0  0  0  0  0  0  0  0  0
   56.4460   22.7700   45.1370 C   0  0  0  0  0  0  0  0  0  0  0  0
   56.5550   23.0470   43.7720 C   0  0  0  0  0  0  0  0  0  0  0  0
   57.0200   24.2940   43.3430 C   0  0  0  0  0  0  0  0  0  0  0  0
   57.3790   25.2740   44.2810 C   0  0  0  0  0  0  0  0  0  0  0  0
   57.8480   26.5280   43.8630 C   0  0  0  0  0  0  0  0  0  0  0  0
   59.4880   30.4797   48.9961 H   0  0  0  0  0  0  0  0  0  0  0  0
   59.4276   28.8572   48.2277 H   0  0  0  0  0  0  0  0  0  0  0  0
   60.9599   29.7945   48.2277 H   0  0  0  0  0  0  0  0  0  0  0  0
   59.7212   32.4117   48.7795 H   0  0  0  0  0  0  0  0  0  0  0  0
   59.1217   34.8068   48.4526 H   0  0  0  0  0  0  0  0  0  0  0  0
   58.2224   35.5847   46.2636 H   0  0  0  0  0  0  0  0  0  0  0  0
   57.9199   33.9734   44.3922 H   0  0  0  0  0  0  0  0  0  0  0  0
   59.4207   31.0464   43.8954 H   0  0  0  0  0  0  0  0  0  0  0  0
   56.8021   32.5705   43.7101 H   0  0  0  0  0  0  0  0  0  0  0  0
   58.2792   32.6683   42.6723 H   0  0  0  0  0  0  0  0  0  0  0  0
   56.4964   31.5049   41.4657 H   0  0  0  0  0  0  0  0  0  0  0  0
   57.8231   30.3573   41.8604 H   0  0  0  0  0  0  0  0  0  0  0  0
   55.0628   30.6120   43.1008 H   0  0  0  0  0  0  0  0  0  0  0  0
   55.9201   29.1477   42.4643 H   0  0  0  0  0  0  0  0  0  0  0  0
   57.9290   29.9470   45.8580 H   0  0  0  0  0  0  0  0  0  0  0  0
   58.7755   28.8527   43.2486 H   0  0  0  0  0  0  0  0  0  0  0  0
   59.7439   28.9709   44.7815 H   0  0  0  0  0  0  0  0  0  0  0  0
   58.3843   27.9735   46.9185 H   0  0  0  0  0  0  0  0  0  0  0  0
   57.5493   25.7537   47.6785 H   0  0  0  0  0  0  0  0  0  0  0  0
   56.7137   23.5122   47.1564 H   0  0  0  0  0  0  0  0  0  0  0  0
   56.0792   21.7875   45.4688 H   0  0  0  0  0  0  0  0  0  0  0  0
   56.2743   22.2822   43.0329 H   0  0  0  0  0  0  0  0  0  0  0  0
   57.1046   24.5074   42.2672 H   0  0  0  0  0  0  0  0  0  0  0  0
   57.9374   26.7480   42.7889 H   0  0  0  0  0  0  0  0  0  0  0  0
  1  2  1  0
  2  3  1  0
  3  4  2  0
  4  5  1  0
  5  6  2  0
  6  7  1  0
  7  8  2  0
  8  9  1  0
  9 10  1  0
 10 11  1  0
 11 12  1  0
 12 13  1  0
 13 14  2  0
 13 15  1  0
 15 16  1  0
 16 17  1  0
 17 18  2  0
 18 19  1  0
 19 20  2  0
 20 21  1  0
 21 22  2  0
 22 23  1  0
 23 24  2  0
 24 25  1  0
 25 26  2  0
  8  3  1  0
 15  9  1  0
 26 17  1  0
 25 20  1  0
  1 27  1  0
  1 28  1  0
  1 29  1  0
  4 30  1  0
  5 31  1  0
  6 32  1  0
  7 33  1  0
  9 34  1  6
 10 35  1  0
 10 36  1  0
 11 37  1  0
 11 38  1  0
 12 39  1  0
 12 40  1  0
 15 41  1  1
 16 42  1  0
 16 43  1  0
 18 44  1  0
 19 45  1  0
 21 46  1  0
 22 47  1  0
 23 48  1  0
 24 49  1  0
 26 50  1  0
M  CHG  1  15   1
M  END
>  <UniqueID>  (44) 
44

>  <SMILES>  (44) 
COc1ccccc1[C@@H]1CCCC(=O)[N@H+]1Cc1ccc2ccccc2c1

>  <Energy>  (44) 
67.14170624987422

>  <Genealogy>  (44) 
COc1ccccc1C1CCCC(=O)[NH+]1Cc1ccc2ccccc2c1 (protonated)
COc1ccccc1[C@@H]1CCCC(=O)[N@H+]1Cc1ccc2ccccc2c1 (chirality)
COc1ccccc1[C@@H]1CCCC(=O)[N@H+]1Cc1ccc2ccccc2c1 (3D coordinates assigned)
COc1ccccc1[C@@H]1CCCC(=O)[N@H+]1Cc1ccc2ccccc2c1 (nonaromatic ring conformer: 67.14170624987422 kcal/mol)

>  <smiles>  (44) 
COc1ccccc1C1CCCC(=O)N1Cc1ccc2ccccc2c1

>  <score_type>  (44) 
oracle

>  <origin>  (44) 
adg

>  <m_score__min__energy>  (44) 
-7.2000000000000002

>  <m_primary>  (44) 
energy

$$$$
44:0
     RDKit          3D

 36 37  0  0  0  0  0  0  0  0999 V2000
   61.6160   30.8150   47.3980 C   0  0  0  0  0  0  0  0  0  0  0  0
   60.4600   30.0290   46.8560 C   0  0  0  0  0  0  0  0  0  0  0  0
   60.4780   29.5700   45.5300 C   0  0  0  0  0  0  0  0  0  0  0  0
   59.4090   28.8250   45.0270 C   0  0  0  0  0  0  0  0  0  0  0  0
   58.3050   28.5290   45.8440 C   0  0  0  0  0  0  0  0  0  0  0  0
   57.1140   27.7960   45.2870 C   0  0  0  0  0  0  0  0  0  0  0  0
   56.0430   28.7410   44.9240 N   0  0  0  0  0  0  0  0  0  0  0  0
   56.2160   29.3070   43.5750 C   0  0  0  0  0  0  0  0  0  0  0  0
   56.8790   30.6590   43.6280 C   0  0  0  0  0  0  0  0  0  0  0  0
   57.3730   31.2550   42.4570 C   0  0  0  0  0  0  0  0  0  0  0  0
   58.0420   32.4780   42.5200 C   0  0  0  0  0  0  0  0  0  0  0  0
   58.2090   33.1270   43.7450 C   0  0  0  0  0  0  0  0  0  0  0  0
   57.6810   32.5690   44.9230 C   0  0  0  0  0  0  0  0  0  0  0  0
   57.9070   33.2470   46.2500 C   0  0  0  0  0  0  0  0  0  0  0  0
   58.4660   34.5000   46.0650 F   0  0  0  0  0  0  0  0  0  0  0  0
   58.7670   32.4800   47.0130 F   0  0  0  0  0  0  0  0  0  0  0  0
   56.7150   33.4030   46.9350 F   0  0  0  0  0  0  0  0  0  0  0  0
   57.0280   31.3250   44.8560 C   0  0  0  0  0  0  0  0  0  0  0  0
   58.3070   28.9540   47.1820 C   0  0  0  0  0  0  0  0  0  0  0  0
   59.3800   29.6950   47.6850 C   0  0  0  0  0  0  0  0  0  0  0  0
   61.5887   30.7964   48.4975 H   0  0  0  0  0  0  0  0  0  0  0  0
   62.5587   30.3699   47.0471 H   0  0  0  0  0  0  0  0  0  0  0  0
   61.5487   31.8553   47.0471 H   0  0  0  0  0  0  0  0  0  0  0  0
   61.3383   29.7981   44.8835 H   0  0  0  0  0  0  0  0  0  0  0  0
   59.4316   28.4685   43.9866 H   0  0  0  0  0  0  0  0  0  0  0  0
   57.4210   27.2368   44.3909 H   0  0  0  0  0  0  0  0  0  0  0  0
   56.7322   27.1072   46.0549 H   0  0  0  0  0  0  0  0  0  0  0  0
   55.1430   28.2060   44.9190 H   0  0  0  0  0  0  0  0  0  0  0  0
   56.8398   28.6255   42.9780 H   0  0  0  0  0  0  0  0  0  0  0  0
   55.2221   29.4260   43.1190 H   0  0  0  0  0  0  0  0  0  0  0  0
   57.2323   30.7564   41.4866 H   0  0  0  0  0  0  0  0  0  0  0  0
   58.4395   32.9328   41.6007 H   0  0  0  0  0  0  0  0  0  0  0  0
   58.7566   34.0800   43.7889 H   0  0  0  0  0  0  0  0  0  0  0  0
   56.6299   30.8690   45.7745 H   0  0  0  0  0  0  0  0  0  0  0  0
   57.4602   28.7027   47.8375 H   0  0  0  0  0  0  0  0  0  0  0  0
   59.3770   30.0177   48.7366 H   0  0  0  0  0  0  0  0  0  0  0  0
  1  2  1  0
  2  3  2  0
  3  4  1  0
  4  5  2  0
  5  6  1  0
  6  7  1  0
  7  8  1  0
  8  9  1  0
  9 10  2  0
 10 11  1  0
 11 12  2  0
 12 13  1  0
 13 14  1  0
 14 15  1  0
 14 16  1  0
 14 17  1  0
 13 18  2  0
  5 19  1  0
 19 20  2  0
 20  2  1  0
 18  9  1  0
  1 21  1  0
  1 22  1  0
  1 23  1  0
  3 24  1  0
  4 25  1  0
  6 26  1  0
  6 27  1  0
  7 28  1  0
  8 29  1  0
  8 30  1  0
 10 31  1  0
 11 32  1  0
 12 33  1  0
 18 34  1  0
 19 35  1  0
 20 36  1  0
M  END
>  <UniqueID>  (45) 
45

>  <SMILES>  (45) 
Cc1ccc(CNCc2cccc(C(F)(F)F)c2)cc1

>  <Energy>  (45) 
31.7962983723811

>  <Genealogy>  (45) 
Cc1ccc(CNCc2cccc(C(F)(F)F)c2)cc1 (3D coordinates assigned)
Cc1ccc(CNCc2cccc(C(F)(F)F)c2)cc1 (optimized conformer: 31.7962983723811 kcal/mol)

>  <smiles>  (45) 
Cc1ccc(CNCc2cccc(C(F)(F)F)c2)cc1

>  <score_type>  (45) 
oracle

>  <origin>  (45) 
adg

>  <m_score__min__energy>  (45) 
-6.5899999999999999

>  <m_primary>  (45) 
energy

$$$$
