0:0
     RDKit          3D

 43 46  0  0  0  0  0  0  0  0999 V2000
   58.8330   29.0970   47.5920 C   0  0  0  0  0  0  0  0  0  0  0  0
   57.9670   29.8360   46.7360 O   0  0  0  0  0  0  0  0  0  0  0  0
   58.2150   31.1470   46.2970 C   0  0  0  0  0  0  0  0  0  0  0  0
   59.2530   31.9370   46.8530 C   0  0  0  0  0  0  0  0  0  0  0  0
   59.4380   33.2240   46.3500 C   0  0  0  0  0  0  0  0  0  0  0  0
   58.6300   33.7330   45.3720 C   0  0  0  0  0  0  0  0  0  0  0  0
   59.0580   35.0260   45.1590 C   0  0  0  0  0  0  0  0  0  0  0  0
   60.0910   35.2590   46.0000 N   0  0  0  0  0  0  0  0  0  0  0  0
   60.3290   34.1680   46.7220 N   0  0  0  0  0  0  0  0  0  0  0  0
   61.3780   34.0580   47.6980 C   0  0  0  0  0  0  0  0  0  0  0  0
   61.0860   34.1620   49.0690 C   0  0  0  0  0  0  0  0  0  0  0  0
   62.1050   34.0380   50.0170 C   0  0  0  0  0  0  0  0  0  0  0  0
   63.4200   33.8050   49.6070 C   0  0  0  0  0  0  0  0  0  0  0  0
   64.4070   33.6840   50.5290 F   0  0  0  0  0  0  0  0  0  0  0  0
   63.7180   33.6910   48.2470 C   0  0  0  0  0  0  0  0  0  0  0  0
   62.7020   33.8120   47.2930 C   0  0  0  0  0  0  0  0  0  0  0  0
   63.0120   33.7180   45.9750 F   0  0  0  0  0  0  0  0  0  0  0  0
   57.6000   32.9970   44.8010 C   0  0  0  0  0  0  0  0  0  0  0  0
   57.3920   31.6750   45.2680 C   0  0  0  0  0  0  0  0  0  0  0  0
   56.3790   30.8570   44.7460 O   0  0  0  0  0  0  0  0  0  0  0  0
   56.5810   29.8580   43.7500 C   0  0  0  0  0  0  0  0  0  0  0  0
   57.0510   28.5980   44.4060 C   0  0  0  0  0  0  0  0  0  0  0  0
   58.3250   28.0830   44.1300 C   0  0  0  0  0  0  0  0  0  0  0  0
   58.7510   26.9240   44.7820 C   0  0  0  0  0  0  0  0  0  0  0  0
   57.9120   26.2970   45.7050 C   0  0  0  0  0  0  0  0  0  0  0  0
   56.6530   26.8450   45.9650 C   0  0  0  0  0  0  0  0  0  0  0  0
   56.2560   27.9750   45.3200 N   0  0  0  0  0  0  0  0  0  0  0  0
   58.5818   29.3113   48.6413 H   0  0  0  0  0  0  0  0  0  0  0  0
   58.7100   28.0213   47.3979 H   0  0  0  0  0  0  0  0  0  0  0  0
   59.8760   29.3877   47.3979 H   0  0  0  0  0  0  0  0  0  0  0  0
   59.8933   31.5459   47.6574 H   0  0  0  0  0  0  0  0  0  0  0  0
   58.6357   35.7392   44.4358 H   0  0  0  0  0  0  0  0  0  0  0  0
   60.6360   36.1480   46.0620 H   0  0  0  0  0  0  0  0  0  0  0  0
   60.0515   34.3417   49.3968 H   0  0  0  0  0  0  0  0  0  0  0  0
   61.8713   34.1240   51.0884 H   0  0  0  0  0  0  0  0  0  0  0  0
   64.7536   33.5057   47.9256 H   0  0  0  0  0  0  0  0  0  0  0  0
   56.9658   33.4263   44.0114 H   0  0  0  0  0  0  0  0  0  0  0  0
   55.6347   29.6675   43.2226 H   0  0  0  0  0  0  0  0  0  0  0  0
   57.3359   30.2029   43.0281 H   0  0  0  0  0  0  0  0  0  0  0  0
   58.9829   28.5870   43.4067 H   0  0  0  0  0  0  0  0  0  0  0  0
   59.7458   26.5058   44.5688 H   0  0  0  0  0  0  0  0  0  0  0  0
   58.2381   25.3823   46.2216 H   0  0  0  0  0  0  0  0  0  0  0  0
   55.9827   26.3624   46.6915 H   0  0  0  0  0  0  0  0  0  0  0  0
  1  2  1  0
  2  3  1  0
  3  4  2  0
  4  5  1  0
  5  6  2  0
  6  7  1  0
  7  8  2  0
  8  9  1  0
  9 10  1  0
 10 11  2  0
 11 12  1  0
 12 13  2  0
 13 14  1  0
 13 15  1  0
 15 16  2  0
 16 17  1  0
  6 18  1  0
 18 19  2  0
 19 20  1  0
 20 21  1  0
 21 22  1  0
 22 23  2  0
 23 24  1  0
 24 25  2  0
 25 26  1  0
 26 27  2  0
 19  3  1  0
 27 22  1  0
  9  5  1  0
 16 10  1  0
  1 28  1  0
  1 29  1  0
  1 30  1  0
  4 31  1  0
  7 32  1  0
  8 33  1  0
 11 34  1  0
 12 35  1  0
 15 36  1  0
 18 37  1  0
 21 38  1  0
 21 39  1  0
 23 40  1  0
 24 41  1  0
 25 42  1  0
 26 43  1  0
M  CHG  1   8   1
M  END
>  <UniqueID>  (1) 
1

>  <SMILES>  (1) 
COc1cc2c(c[nH+]n2-c2ccc(F)cc2F)cc1OCc1ccccn1

>  <Energy>  (1) 
91.57877582366379

>  <Genealogy>  (1) 
COc1cc2c(c[nH+]n2-c2ccc(F)cc2F)cc1OCc1ccccn1 (protonated)
COc1cc2c(c[nH+]n2-c2ccc(F)cc2F)cc1OCc1ccccn1 (3D coordinates assigned)
COc1cc2c(c[nH+]n2-c2ccc(F)cc2F)cc1OCc1ccccn1 (optimized conformer: 91.57877582366379 kcal/mol)

>  <smiles>  (1) 
COc1cc2c(cnn2-c2ccc(F)cc2F)cc1OCc1ccccn1

>  <score_type>  (1) 
oracle

>  <origin>  (1) 
adg

>  <m_score__min__energy>  (1) 
-6.5899999999999999

>  <m_primary>  (1) 
energy

$$$$
1:0
     RDKit          3D

 53 56  0  0  0  0  0  0  0  0999 V2000
   57.3960   25.4270   44.7230 C   0  0  0  0  0  0  0  0  0  0  0  0
   57.3470   26.9660   45.6240 S   0  0  0  0  0  0  0  0  0  0  0  0
   55.9330   27.4800   45.6230 O   0  0  0  0  0  0  0  0  0  0  0  0
   57.7630   26.7050   47.0440 O   0  0  0  0  0  0  0  0  0  0  0  0
   58.4060   28.1700   44.9240 N   0  0  0  0  0  0  0  0  0  0  0  0
   59.3770   28.6520   45.9360 C   0  0  0  0  0  0  0  0  0  0  0  0
   59.8870   30.0570   45.6160 C   0  0  0  0  0  0  0  0  0  0  0  0
   58.7480   30.9740   45.6010 N   0  0  0  0  0  0  0  0  0  0  0  0
   58.9040   32.3280   46.0440 C   0  0  0  0  0  0  0  0  0  0  0  0
   59.9300   33.0810   46.5980 C   0  0  0  0  0  0  0  0  0  0  0  0
   61.2690   32.8230   47.0450 N   0  0  0  0  0  0  0  0  0  0  0  0
   61.5010   31.7380   48.0070 C   0  0  0  0  0  0  0  0  0  0  0  0
   62.9950   31.5400   48.2760 C   0  0  0  0  0  0  0  0  0  0  0  0
   63.6460   32.8460   48.4470 N   0  0  0  0  0  0  0  0  0  0  0  0
   64.4120   33.1380   49.6320 C   0  0  0  0  0  0  0  0  0  0  0  0
   65.7390   32.6870   49.7530 C   0  0  0  0  0  0  0  0  0  0  0  0
   66.4750   32.9600   50.9080 C   0  0  0  0  0  0  0  0  0  0  0  0
   65.8960   33.6810   51.9560 C   0  0  0  0  0  0  0  0  0  0  0  0
   64.5770   34.1280   51.8490 C   0  0  0  0  0  0  0  0  0  0  0  0
   63.8350   33.8560   50.6940 C   0  0  0  0  0  0  0  0  0  0  0  0
   63.4570   33.8920   47.4290 C   0  0  0  0  0  0  0  0  0  0  0  0
   62.4040   33.4850   46.3880 C   0  0  0  0  0  0  0  0  0  0  0  0
   59.1180   34.2000   46.5670 C   0  0  0  0  0  0  0  0  0  0  0  0
   59.2570   35.4100   46.8850 O   0  0  0  0  0  0  0  0  0  0  0  0
   58.0800   33.4370   46.0740 C   0  0  0  0  0  0  0  0  0  0  0  0
   56.8840   33.6690   45.7540 O   0  0  0  0  0  0  0  0  0  0  0  0
   57.4670   30.5290   45.0510 C   0  0  0  0  0  0  0  0  0  0  0  0
   57.6300   29.2360   44.2300 C   0  0  0  0  0  0  0  0  0  0  0  0
   57.4227   24.5872   45.4329 H   0  0  0  0  0  0  0  0  0  0  0  0
   56.5000   25.3439   44.0903 H   0  0  0  0  0  0  0  0  0  0  0  0
   58.2954   25.4010   44.0903 H   0  0  0  0  0  0  0  0  0  0  0  0
   58.9540   27.6650   44.1870 H   0  0  0  0  0  0  0  0  0  0  0  0
   58.8859   28.6680   46.9202 H   0  0  0  0  0  0  0  0  0  0  0  0
   60.2389   27.9685   45.9327 H   0  0  0  0  0  0  0  0  0  0  0  0
   60.6077   30.3737   46.3843 H   0  0  0  0  0  0  0  0  0  0  0  0
   60.3864   30.0616   44.6359 H   0  0  0  0  0  0  0  0  0  0  0  0
   60.9966   31.9845   48.9530 H   0  0  0  0  0  0  0  0  0  0  0  0
   61.0994   30.8064   47.5817 H   0  0  0  0  0  0  0  0  0  0  0  0
   63.1256   30.9440   49.1912 H   0  0  0  0  0  0  0  0  0  0  0  0
   63.4515   31.0148   47.4241 H   0  0  0  0  0  0  0  0  0  0  0  0
   66.1995   32.1161   48.9332 H   0  0  0  0  0  0  0  0  0  0  0  0
   67.5132   32.6066   50.9932 H   0  0  0  0  0  0  0  0  0  0  0  0
   66.4784   33.8962   52.8640 H   0  0  0  0  0  0  0  0  0  0  0  0
   64.1207   34.6948   52.6740 H   0  0  0  0  0  0  0  0  0  0  0  0
   62.7950   34.2058   50.6168 H   0  0  0  0  0  0  0  0  0  0  0  0
   63.1294   34.8176   47.9249 H   0  0  0  0  0  0  0  0  0  0  0  0
   64.4145   34.0424   46.9088 H   0  0  0  0  0  0  0  0  0  0  0  0
   62.0463   34.3830   45.8630 H   0  0  0  0  0  0  0  0  0  0  0  0
   62.8601   32.7867   45.6708 H   0  0  0  0  0  0  0  0  0  0  0  0
   56.7671   30.3421   45.8787 H   0  0  0  0  0  0  0  0  0  0  0  0
   57.0819   31.3164   44.3863 H   0  0  0  0  0  0  0  0  0  0  0  0
   56.6284   28.8422   44.0028 H   0  0  0  0  0  0  0  0  0  0  0  0
   58.1959   29.5032   43.3254 H   0  0  0  0  0  0  0  0  0  0  0  0
  1  2  1  0
  2  3  2  0
  2  4  2  0
  2  5  1  0
  5  6  1  0
  6  7  1  0
  7  8  1  0
  8  9  1  0
  9 10  2  0
 10 11  1  0
 11 12  1  0
 12 13  1  0
 13 14  1  0
 14 15  1  0
 15 16  2  0
 16 17  1  0
 17 18  2  0
 18 19  1  0
 19 20  2  0
 14 21  1  0
 21 22  1  0
 10 23  1  0
 23 24  2  0
 23 25  1  0
 25 26  2  0
  8 27  1  0
 27 28  1  0
 28  5  1  0
 25  9  1  0
 22 11  1  0
 20 15  1  0
  1 29  1  0
  1 30  1  0
  1 31  1  0
  5 32  1  0
  6 33  1  0
  6 34  1  0
  7 35  1  0
  7 36  1  0
 12 37  1  0
 12 38  1  0
 13 39  1  0
 13 40  1  0
 16 41  1  0
 17 42  1  0
 18 43  1  0
 19 44  1  0
 20 45  1  0
 21 46  1  0
 21 47  1  0
 22 48  1  0
 22 49  1  0
 27 50  1  0
 27 51  1  0
 28 52  1  0
 28 53  1  0
M  CHG  1   5   1
M  END
>  <UniqueID>  (2) 
2

>  <SMILES>  (2) 
CS(=O)(=O)[NH+]1CCN(c2c(N3CCN(c4ccccc4)CC3)c(=O)c2=O)CC1

>  <Energy>  (2) 
53.761991388521814

>  <Genealogy>  (2) 
CS(=O)(=O)[NH+]1CCN(c2c(N3CCN(c4ccccc4)CC3)c(=O)c2=O)CC1 (protonated)
CS(=O)(=O)[NH+]1CCN(c2c(N3CCN(c4ccccc4)CC3)c(=O)c2=O)CC1 (3D coordinates assigned)
CS(=O)(=O)[NH+]1CCN(c2c(N3CCN(c4ccccc4)CC3)c(=O)c2=O)CC1 (nonaromatic ring conformer: 53.761991388521814 kcal/mol)

>  <smiles>  (2) 
CS(=O)(=O)N1CCN(c2c(N3CCN(c4ccccc4)CC3)c(=O)c2=O)CC1

>  <score_type>  (2) 
oracle

>  <origin>  (2) 
adg

>  <m_score__min__energy>  (2) 
-6.9199999999999999

>  <m_primary>  (2) 
energy

$$$$
2:0
     RDKit          3D

 45 46  0  0  0  0  0  0  0  0999 V2000
   58.6420   29.6060   46.5820 C   0  0  0  0  0  0  0  0  0  0  0  0
   57.5260   29.1190   45.6630 C   0  0  0  0  0  0  0  0  0  0  0  0
   56.9180   30.2640   44.9450 N   0  0  0  0  0  0  0  0  0  0  0  0
   55.8070   29.8170   44.0730 C   0  0  0  0  0  0  0  0  0  0  0  0
   56.2800   29.7120   42.6260 C   0  0  0  0  0  0  0  0  0  0  0  0
   57.9370   31.0140   44.1740 C   0  0  0  0  0  0  0  0  0  0  0  0
   57.6620   32.5220   44.2690 C   0  0  0  0  0  0  0  0  0  0  0  0
   57.0940   32.8690   45.5790 N   0  0  0  0  0  0  0  0  0  0  0  0
   58.1360   33.3440   46.4570 C   0  0  0  0  0  0  0  0  0  0  0  0
   59.1940   34.1150   45.9500 C   0  0  0  0  0  0  0  0  0  0  0  0
   60.2200   34.5450   46.7930 C   0  0  0  0  0  0  0  0  0  0  0  0
   60.2070   34.2040   48.1470 C   0  0  0  0  0  0  0  0  0  0  0  0
   59.1640   33.4220   48.6760 C   0  0  0  0  0  0  0  0  0  0  0  0
   59.1530   33.0520   50.1130 C   0  0  0  0  0  0  0  0  0  0  0  0
   58.4270   31.9310   50.5580 C   0  0  0  0  0  0  0  0  0  0  0  0
   58.4170   31.5850   51.9130 C   0  0  0  0  0  0  0  0  0  0  0  0
   59.1300   32.3510   52.8380 C   0  0  0  0  0  0  0  0  0  0  0  0
   59.8540   33.4660   52.4090 C   0  0  0  0  0  0  0  0  0  0  0  0
   59.8670   33.8160   51.0560 C   0  0  0  0  0  0  0  0  0  0  0  0
   58.1330   32.9920   47.8190 C   0  0  0  0  0  0  0  0  0  0  0  0
   58.3376   29.4732   47.6307 H   0  0  0  0  0  0  0  0  0  0  0  0
   59.5558   29.0248   46.3890 H   0  0  0  0  0  0  0  0  0  0  0  0
   58.8373   30.6712   46.3890 H   0  0  0  0  0  0  0  0  0  0  0  0
   57.9411   28.4103   44.9313 H   0  0  0  0  0  0  0  0  0  0  0  0
   56.7528   28.6237   46.2686 H   0  0  0  0  0  0  0  0  0  0  0  0
   55.4534   28.8320   44.4117 H   0  0  0  0  0  0  0  0  0  0  0  0
   54.9893   30.5506   44.1302 H   0  0  0  0  0  0  0  0  0  0  0  0
   57.3537   29.4737   42.6076 H   0  0  0  0  0  0  0  0  0  0  0  0
   55.7190   28.9165   42.1137 H   0  0  0  0  0  0  0  0  0  0  0  0
   56.1083   30.6701   42.1137 H   0  0  0  0  0  0  0  0  0  0  0  0
   58.9350   30.7991   44.5837 H   0  0  0  0  0  0  0  0  0  0  0  0
   57.8923   30.7043   43.1194 H   0  0  0  0  0  0  0  0  0  0  0  0
   58.6055   33.0698   44.1288 H   0  0  0  0  0  0  0  0  0  0  0  0
   56.9385   32.7976   43.4876 H   0  0  0  0  0  0  0  0  0  0  0  0
   56.3640   33.6110   45.4640 H   0  0  0  0  0  0  0  0  0  0  0  0
   56.6350   32.0270   46.0010 H   0  0  0  0  0  0  0  0  0  0  0  0
   59.2145   34.3816   44.8830 H   0  0  0  0  0  0  0  0  0  0  0  0
   61.0418   35.1547   46.3893 H   0  0  0  0  0  0  0  0  0  0  0  0
   61.0182   34.5493   48.8048 H   0  0  0  0  0  0  0  0  0  0  0  0
   57.8636   31.3230   49.8349 H   0  0  0  0  0  0  0  0  0  0  0  0
   57.8463   30.7075   52.2511 H   0  0  0  0  0  0  0  0  0  0  0  0
   59.1214   32.0766   53.9032 H   0  0  0  0  0  0  0  0  0  0  0  0
   60.4150   34.0697   53.1376 H   0  0  0  0  0  0  0  0  0  0  0  0
   60.4394   34.6951   50.7252 H   0  0  0  0  0  0  0  0  0  0  0  0
   57.3158   32.3738   48.2190 H   0  0  0  0  0  0  0  0  0  0  0  0
  1  2  1  0
  2  3  1  0
  3  4  1  0
  4  5  1  0
  3  6  1  0
  6  7  1  0
  7  8  1  0
  8  9  1  0
  9 10  2  0
 10 11  1  0
 11 12  2  0
 12 13  1  0
 13 14  1  0
 14 15  2  0
 15 16  1  0
 16 17  2  0
 17 18  1  0
 18 19  2  0
 13 20  2  0
 20  9  1  0
 19 14  1  0
  1 21  1  0
  1 22  1  0
  1 23  1  0
  2 24  1  0
  2 25  1  0
  4 26  1  0
  4 27  1  0
  5 28  1  0
  5 29  1  0
  5 30  1  0
  6 31  1  0
  6 32  1  0
  7 33  1  0
  7 34  1  0
  8 35  1  0
  8 36  1  0
 10 37  1  0
 11 38  1  0
 12 39  1  0
 15 40  1  0
 16 41  1  0
 17 42  1  0
 18 43  1  0
 19 44  1  0
 20 45  1  0
M  CHG  1   8   1
M  END
>  <UniqueID>  (3) 
3

>  <SMILES>  (3) 
CCN(CC)CC[NH2+]c1cccc(-c2ccccc2)c1

>  <Energy>  (3) 
47.565190526417425

>  <Genealogy>  (3) 
CCN(CC)CC[NH2+]c1cccc(-c2ccccc2)c1 (protonated)
CCN(CC)CC[NH2+]c1cccc(-c2ccccc2)c1 (3D coordinates assigned)
CCN(CC)CC[NH2+]c1cccc(-c2ccccc2)c1 (optimized conformer: 47.565190526417425 kcal/mol)

>  <smiles>  (3) 
CCN(CC)CCNc1cccc(-c2ccccc2)c1

>  <score_type>  (3) 
oracle

>  <origin>  (3) 
adg

>  <m_score__min__energy>  (3) 
-5.2199999999999998

>  <m_primary>  (3) 
energy

$$$$
3:0
     RDKit          3D

 24 25  0  0  0  0  0  0  0  0999 V2000
   56.6160   28.4410   45.2240 C   0  0  0  0  0  0  0  0  0  0  0  0
   55.8230   29.3600   44.3020 C   0  0  0  0  0  0  0  0  0  0  0  0
   56.5840   30.6170   44.0300 C   0  0  0  0  0  0  0  0  0  0  0  0
   57.0850   31.4090   45.0010 N   0  0  0  0  0  0  0  0  0  0  0  0
   57.7910   32.4620   44.5000 C   0  0  0  0  0  0  0  0  0  0  0  0
   58.4330   33.4610   45.3950 C   0  0  0  0  0  0  0  0  0  0  0  0
   58.4200   33.2590   46.7900 C   0  0  0  0  0  0  0  0  0  0  0  0
   59.0170   34.1870   47.6490 C   0  0  0  0  0  0  0  0  0  0  0  0
   59.6300   35.3290   47.1300 C   0  0  0  0  0  0  0  0  0  0  0  0
   59.6460   35.5460   45.7500 C   0  0  0  0  0  0  0  0  0  0  0  0
   59.0510   34.6200   44.8860 C   0  0  0  0  0  0  0  0  0  0  0  0
   57.8640   32.4930   43.1030 C   0  0  0  0  0  0  0  0  0  0  0  0
   57.0190   31.1680   42.5050 S   0  0  0  0  0  0  0  0  0  0  0  0
   56.3969   28.6949   46.2716 H   0  0  0  0  0  0  0  0  0  0  0  0
   56.3317   27.3957   45.0329 H   0  0  0  0  0  0  0  0  0  0  0  0
   57.6917   28.5692   45.0329 H   0  0  0  0  0  0  0  0  0  0  0  0
   55.6315   28.8406   43.3515 H   0  0  0  0  0  0  0  0  0  0  0  0
   54.8731   29.6198   44.7920 H   0  0  0  0  0  0  0  0  0  0  0  0
   57.9359   32.3634   47.2066 H   0  0  0  0  0  0  0  0  0  0  0  0
   59.0036   34.0169   48.7357 H   0  0  0  0  0  0  0  0  0  0  0  0
   60.1000   36.0574   47.8072 H   0  0  0  0  0  0  0  0  0  0  0  0
   60.1274   36.4468   45.3417 H   0  0  0  0  0  0  0  0  0  0  0  0
   59.0660   34.7985   43.8007 H   0  0  0  0  0  0  0  0  0  0  0  0
   58.3839   33.2524   42.5005 H   0  0  0  0  0  0  0  0  0  0  0  0
  1  2  1  0
  2  3  1  0
  3  4  2  0
  4  5  1  0
  5  6  1  0
  6  7  2  0
  7  8  1  0
  8  9  2  0
  9 10  1  0
 10 11  2  0
  5 12  2  0
 12 13  1  0
 13  3  1  0
 11  6  1  0
  1 14  1  0
  1 15  1  0
  1 16  1  0
  2 17  1  0
  2 18  1  0
  7 19  1  0
  8 20  1  0
  9 21  1  0
 10 22  1  0
 11 23  1  0
 12 24  1  0
M  END
>  <UniqueID>  (4) 
4

>  <SMILES>  (4) 
CCc1nc(-c2ccccc2)cs1

>  <Energy>  (4) 
51.90950268637504

>  <Genealogy>  (4) 
CCc1nc(-c2ccccc2)cs1 (3D coordinates assigned)
CCc1nc(-c2ccccc2)cs1 (optimized conformer: 51.90950268637504 kcal/mol)

>  <smiles>  (4) 
CCc1nc(-c2ccccc2)cs1

>  <score_type>  (4) 
oracle

>  <origin>  (4) 
adg

>  <m_score__min__energy>  (4) 
-5.96

>  <m_primary>  (4) 
energy

$$$$
4:0
     RDKit          3D

 47 49  0  0  0  0  0  0  0  0999 V2000
   57.1100   26.7760   45.6430 C   0  0  0  0  0  0  0  0  0  0  0  0
   57.9460   26.3120   44.5240 N   0  0  0  0  0  0  0  0  0  0  0  0
   57.3930   25.0860   43.9290 C   0  0  0  0  0  0  0  0  0  0  0  0
   58.1970   27.3720   43.5210 C   0  0  0  0  0  0  0  0  0  0  0  0
   57.8060   28.7600   43.9840 C   0  0  0  0  0  0  0  0  0  0  0  0
   58.6450   29.4840   44.8460 C   0  0  0  0  0  0  0  0  0  0  0  0
   58.2790   30.7600   45.2840 C   0  0  0  0  0  0  0  0  0  0  0  0
   57.0650   31.3350   44.8620 C   0  0  0  0  0  0  0  0  0  0  0  0
   56.6430   32.6060   45.2820 O   0  0  0  0  0  0  0  0  0  0  0  0
   57.4060   33.8080   45.1700 C   0  0  0  0  0  0  0  0  0  0  0  0
   58.6290   33.7490   46.0470 C   0  0  0  0  0  0  0  0  0  0  0  0
   58.4970   33.5050   47.4220 C   0  0  0  0  0  0  0  0  0  0  0  0
   59.6270   33.4480   48.2410 C   0  0  0  0  0  0  0  0  0  0  0  0
   60.9110   33.6460   47.7020 C   0  0  0  0  0  0  0  0  0  0  0  0
   62.1130   33.5820   48.5730 C   0  0  0  0  0  0  0  0  0  0  0  0
   62.0860   34.1260   49.8710 C   0  0  0  0  0  0  0  0  0  0  0  0
   63.2180   34.0630   50.6890 C   0  0  0  0  0  0  0  0  0  0  0  0
   64.3880   33.4580   50.2220 C   0  0  0  0  0  0  0  0  0  0  0  0
   64.4270   32.9150   48.9360 C   0  0  0  0  0  0  0  0  0  0  0  0
   63.2980   32.9750   48.1140 C   0  0  0  0  0  0  0  0  0  0  0  0
   61.0380   33.9070   46.3260 C   0  0  0  0  0  0  0  0  0  0  0  0
   59.9060   33.9620   45.5070 C   0  0  0  0  0  0  0  0  0  0  0  0
   56.2400   30.6190   43.9880 C   0  0  0  0  0  0  0  0  0  0  0  0
   56.6040   29.3430   43.5500 C   0  0  0  0  0  0  0  0  0  0  0  0
   57.5911   26.5090   46.5955 H   0  0  0  0  0  0  0  0  0  0  0  0
   56.9929   27.8682   45.5849 H   0  0  0  0  0  0  0  0  0  0  0  0
   56.1212   26.2976   45.5849 H   0  0  0  0  0  0  0  0  0  0  0  0
   57.0826   24.3979   44.7291 H   0  0  0  0  0  0  0  0  0  0  0  0
   56.5227   25.3409   43.3064 H   0  0  0  0  0  0  0  0  0  0  0  0
   58.1601   24.6023   43.3064 H   0  0  0  0  0  0  0  0  0  0  0  0
   59.2709   27.3761   43.2827 H   0  0  0  0  0  0  0  0  0  0  0  0
   57.5713   27.1390   42.6468 H   0  0  0  0  0  0  0  0  0  0  0  0
   59.5967   29.0442   45.1789 H   0  0  0  0  0  0  0  0  0  0  0  0
   58.9425   31.3175   45.9615 H   0  0  0  0  0  0  0  0  0  0  0  0
   57.7186   33.9405   44.1237 H   0  0  0  0  0  0  0  0  0  0  0  0
   56.7810   34.6536   45.4930 H   0  0  0  0  0  0  0  0  0  0  0  0
   57.4978   33.3577   47.8578 H   0  0  0  0  0  0  0  0  0  0  0  0
   59.5118   33.2466   49.3163 H   0  0  0  0  0  0  0  0  0  0  0  0
   61.1682   34.6038   50.2442 H   0  0  0  0  0  0  0  0  0  0  0  0
   63.1877   34.4904   51.7021 H   0  0  0  0  0  0  0  0  0  0  0  0
   65.2777   33.4095   50.8670 H   0  0  0  0  0  0  0  0  0  0  0  0
   65.3483   32.4390   48.5690 H   0  0  0  0  0  0  0  0  0  0  0  0
   63.3354   32.5453   47.1021 H   0  0  0  0  0  0  0  0  0  0  0  0
   62.0352   34.0691   45.8908 H   0  0  0  0  0  0  0  0  0  0  0  0
   60.0175   34.1735   44.4333 H   0  0  0  0  0  0  0  0  0  0  0  0
   55.2957   31.0648   43.6423 H   0  0  0  0  0  0  0  0  0  0  0  0
   55.9459   28.7923   42.8618 H   0  0  0  0  0  0  0  0  0  0  0  0
  1  2  1  0
  2  3  1  0
  2  4  1  0
  4  5  1  0
  5  6  2  0
  6  7  1  0
  7  8  2  0
  8  9  1  0
  9 10  1  0
 10 11  1  0
 11 12  2  0
 12 13  1  0
 13 14  2  0
 14 15  1  0
 15 16  2  0
 16 17  1  0
 17 18  2  0
 18 19  1  0
 19 20  2  0
 14 21  1  0
 21 22  2  0
  8 23  1  0
 23 24  2  0
 24  5  1  0
 22 11  1  0
 20 15  1  0
  1 25  1  0
  1 26  1  0
  1 27  1  0
  3 28  1  0
  3 29  1  0
  3 30  1  0
  4 31  1  0
  4 32  1  0
  6 33  1  0
  7 34  1  0
 10 35  1  0
 10 36  1  0
 12 37  1  0
 13 38  1  0
 16 39  1  0
 17 40  1  0
 18 41  1  0
 19 42  1  0
 20 43  1  0
 21 44  1  0
 22 45  1  0
 23 46  1  0
 24 47  1  0
M  END
>  <UniqueID>  (5) 
5

>  <SMILES>  (5) 
CN(C)Cc1ccc(OCc2ccc(-c3ccccc3)cc2)cc1

>  <Energy>  (5) 
56.01361904209005

>  <Genealogy>  (5) 
CN(C)Cc1ccc(OCc2ccc(-c3ccccc3)cc2)cc1 (3D coordinates assigned)
CN(C)Cc1ccc(OCc2ccc(-c3ccccc3)cc2)cc1 (optimized conformer: 56.01361904209005 kcal/mol)

>  <smiles>  (5) 
CN(C)Cc1ccc(OCc2ccc(-c3ccccc3)cc2)cc1

>  <score_type>  (5) 
oracle

>  <origin>  (5) 
adg

>  <m_score__min__energy>  (5) 
-7.7400000000000002

>  <m_primary>  (5) 
energy

$$$$
5:0
     RDKit          3D

 49 52  0  0  0  0  0  0  0  0999 V2000
   63.5460   24.1740   55.4570 C   0  0  0  0  0  0  0  0  0  0  0  0
   62.7210   25.3260   55.3070 O   0  0  0  0  0  0  0  0  0  0  0  0
   62.2940   25.8390   54.0720 C   0  0  0  0  0  0  0  0  0  0  0  0
   63.0690   26.8290   53.4610 C   0  0  0  0  0  0  0  0  0  0  0  0
   62.6870   27.3740   52.2320 C   0  0  0  0  0  0  0  0  0  0  0  0
   61.5160   26.9340   51.5900 C   0  0  0  0  0  0  0  0  0  0  0  0
   61.1240   27.4940   50.3200 N   0  0  0  0  0  0  0  0  0  0  0  0
   60.8960   26.8100   49.1800 C   0  0  0  0  0  0  0  0  0  0  0  0
   60.5410   27.7070   48.1880 C   0  0  0  0  0  0  0  0  0  0  0  0
   60.0740   27.3600   46.8300 C   0  0  0  0  0  0  0  0  0  0  0  0
   60.9130   27.3220   45.8900 O   0  0  0  0  0  0  0  0  0  0  0  0
   58.6410   27.1050   46.5380 C   0  0  0  0  0  0  0  0  0  0  0  0
   58.0530   25.8880   46.9250 C   0  0  0  0  0  0  0  0  0  0  0  0
   56.7050   25.6400   46.6600 C   0  0  0  0  0  0  0  0  0  0  0  0
   55.9250   26.6030   46.0160 C   0  0  0  0  0  0  0  0  0  0  0  0
   54.5840   26.3390   45.7560 O   0  0  0  0  0  0  0  0  0  0  0  0
   56.4860   27.8280   45.6330 C   0  0  0  0  0  0  0  0  0  0  0  0
   55.6660   28.7690   44.9910 O   0  0  0  0  0  0  0  0  0  0  0  0
   56.1190   29.7030   44.0180 C   0  0  0  0  0  0  0  0  0  0  0  0
   57.8450   28.0770   45.9040 C   0  0  0  0  0  0  0  0  0  0  0  0
   60.5670   28.9530   48.8070 C   0  0  0  0  0  0  0  0  0  0  0  0
   60.3080   30.2730   48.2030 C   0  0  0  0  0  0  0  0  0  0  0  0
   59.0610   30.8570   47.9830 C   0  0  0  0  0  0  0  0  0  0  0  0
   59.1320   32.0960   47.3360 C   0  0  0  0  0  0  0  0  0  0  0  0
   60.4350   32.4740   47.0360 C   0  0  0  0  0  0  0  0  0  0  0  0
   60.8200   33.6770   46.3660 N   0  0  0  0  0  0  0  0  0  0  0  0
   59.9800   34.3410   45.7250 O   0  0  0  0  0  0  0  0  0  0  0  0
   62.1230   34.1150   46.4270 O   0  0  0  0  0  0  0  0  0  0  0  0
   61.4970   31.2820   47.5630 S   0  0  0  0  0  0  0  0  0  0  0  0
   60.9210   28.7840   50.0960 N   0  0  0  0  0  0  0  0  0  0  0  0
   60.7390   25.9360   52.2040 C   0  0  0  0  0  0  0  0  0  0  0  0
   61.1220   25.3940   53.4350 C   0  0  0  0  0  0  0  0  0  0  0  0
   63.6947   23.9663   56.5269 H   0  0  0  0  0  0  0  0  0  0  0  0
   63.0599   23.3102   54.9799 H   0  0  0  0  0  0  0  0  0  0  0  0
   64.5203   24.3561   54.9799 H   0  0  0  0  0  0  0  0  0  0  0  0
   63.9878   27.1823   53.9519 H   0  0  0  0  0  0  0  0  0  0  0  0
   63.3069   28.1527   51.7636 H   0  0  0  0  0  0  0  0  0  0  0  0
   60.9786   25.7198   49.0590 H   0  0  0  0  0  0  0  0  0  0  0  0
   58.6584   25.1271   47.4394 H   0  0  0  0  0  0  0  0  0  0  0  0
   56.2552   24.6819   46.9597 H   0  0  0  0  0  0  0  0  0  0  0  0
   56.5452   30.5818   44.5239 H   0  0  0  0  0  0  0  0  0  0  0  0
   56.8891   29.2327   43.3889 H   0  0  0  0  0  0  0  0  0  0  0  0
   55.2729   30.0166   43.3889 H   0  0  0  0  0  0  0  0  0  0  0  0
   58.2893   29.0415   45.6171 H   0  0  0  0  0  0  0  0  0  0  0  0
   58.1134   30.3892   48.2884 H   0  0  0  0  0  0  0  0  0  0  0  0
   58.2499   32.7058   47.0910 H   0  0  0  0  0  0  0  0  0  0  0  0
   61.0130   29.5410   50.8100 H   0  0  0  0  0  0  0  0  0  0  0  0
   59.8223   25.5786   51.7121 H   0  0  0  0  0  0  0  0  0  0  0  0
   60.5038   24.6162   53.9070 H   0  0  0  0  0  0  0  0  0  0  0  0
  1  2  1  0
  2  3  1  0
  3  4  2  0
  4  5  1  0
  5  6  2  0
  6  7  1  0
  7  8  1  0
  8  9  2  0
  9 10  1  0
 10 11  2  0
 10 12  1  0
 12 13  2  0
 13 14  1  0
 14 15  2  0
 15 16  1  0
 15 17  1  0
 17 18  1  0
 18 19  1  0
 17 20  2  0
  9 21  1  0
 21 22  1  0
 22 23  2  0
 23 24  1  0
 24 25  2  0
 25 26  1  0
 26 27  2  0
 26 28  1  0
 25 29  1  0
 21 30  2  0
  6 31  1  0
 31 32  2  0
 32  3  1  0
 30  7  1  0
 20 12  1  0
 29 22  1  0
  1 33  1  0
  1 34  1  0
  1 35  1  0
  4 36  1  0
  5 37  1  0
  8 38  1  0
 13 39  1  0
 14 40  1  0
 19 41  1  0
 19 42  1  0
 19 43  1  0
 20 44  1  0
 23 45  1  0
 24 46  1  0
 30 47  1  0
 31 48  1  0
 32 49  1  0
M  CHG  4  16  -1  26   1  28  -1  30   1
M  END
>  <UniqueID>  (6) 
6

>  <SMILES>  (6) 
COc1ccc(-n2cc(C(=O)c3ccc([O-])c(OC)c3)c(-c3ccc([N+](=O)[O-])s3)[nH+]2)cc1

>  <Energy>  (6) 
120.70312551200443

>  <Genealogy>  (6) 
COc1ccc(-n2cc(C(=O)c3ccc([O-])c(OC)c3)c(-c3ccc([N+](=O)[O-])s3)[nH+]2)cc1 (protonated)
COc1ccc(-n2cc(C(=O)c3ccc([O-])c(OC)c3)c(-c3ccc([N+](=O)[O-])s3)[nH+]2)cc1 (3D coordinates assigned)
COc1ccc(-n2cc(C(=O)c3ccc([O-])c(OC)c3)c(-c3ccc([N+](=O)[O-])s3)[nH+]2)cc1 (optimized conformer: 120.70312551200443 kcal/mol)

>  <smiles>  (6) 
COc1ccc(-n2cc(C(=O)c3ccc(O)c(OC)c3)c(-c3ccc([N+](=O)[O-])s3)n2)cc1

>  <score_type>  (6) 
oracle

>  <origin>  (6) 
adg

>  <m_score__min__energy>  (6) 
-9.9700000000000006

>  <m_primary>  (6) 
energy

$$$$
6:0
     RDKit          3D

 33 35  0  0  0  0  0  0  0  0999 V2000
   56.0305   25.1148   46.7605 H   0  0  0  0  0  0  0  0  0  0  0  0
   56.6140   25.8970   46.2530 C   0  0  0  0  0  0  0  0  0  0  0  0
   56.0250   27.0670   45.8940 N   0  0  0  0  0  0  0  0  0  0  0  0
   56.7260   28.0520   45.2660 C   0  0  0  0  0  0  0  0  0  0  0  0
   56.1080   29.2930   44.8840 N   0  0  0  0  0  0  0  0  0  0  0  0
   56.6960   30.3570   44.4180 C   0  0  0  0  0  0  0  0  0  0  0  0
   57.2870   31.2180   45.2880 N   0  0  0  0  0  0  0  0  0  0  0  0
   57.9160   32.3490   44.8650 C   0  0  0  0  0  0  0  0  0  0  0  0
   58.5500   33.2460   45.8650 C   0  0  0  0  0  0  0  0  0  0  0  0
   58.6180   32.8530   47.2140 C   0  0  0  0  0  0  0  0  0  0  0  0
   58.2057   31.8801   47.5197 H   0  0  0  0  0  0  0  0  0  0  0  0
   59.2050   33.6880   48.1700 C   0  0  0  0  0  0  0  0  0  0  0  0
   59.2573   33.3682   49.2212 H   0  0  0  0  0  0  0  0  0  0  0  0
   59.7250   34.9280   47.7910 C   0  0  0  0  0  0  0  0  0  0  0  0
   60.1912   35.5819   48.5427 H   0  0  0  0  0  0  0  0  0  0  0  0
   59.6530   35.3370   46.4590 C   0  0  0  0  0  0  0  0  0  0  0  0
   60.0577   36.3162   46.1634 H   0  0  0  0  0  0  0  0  0  0  0  0
   59.0680   34.5060   45.4990 C   0  0  0  0  0  0  0  0  0  0  0  0
   59.0113   34.8368   44.4515 H   0  0  0  0  0  0  0  0  0  0  0  0
   57.9640   32.6240   43.4880 C   0  0  0  0  0  0  0  0  0  0  0  0
   58.4783   33.5213   43.1134 H   0  0  0  0  0  0  0  0  0  0  0  0
   57.3460   31.7360   42.6030 C   0  0  0  0  0  0  0  0  0  0  0  0
   57.3900   31.9810   41.1290 C   0  0  0  0  0  0  0  0  0  0  0  0
   57.5815   33.0476   40.9402 H   0  0  0  0  0  0  0  0  0  0  0  0
   58.1944   31.3791   40.6811 H   0  0  0  0  0  0  0  0  0  0  0  0
   56.4264   31.6966   40.6811 H   0  0  0  0  0  0  0  0  0  0  0  0
   56.7320   30.6240   43.0850 N   0  0  0  0  0  0  0  0  0  0  0  0
   58.0810   27.8470   44.9870 C   0  0  0  0  0  0  0  0  0  0  0  0
   58.6654   28.6289   44.4800 H   0  0  0  0  0  0  0  0  0  0  0  0
   58.6730   26.6750   45.3460 N   0  0  0  0  0  0  0  0  0  0  0  0
   59.6850   26.5250   45.1360 H   0  0  0  0  0  0  0  0  0  0  0  0
   57.9670   25.6960   45.9720 C   0  0  0  0  0  0  0  0  0  0  0  0
   58.4578   24.7531   46.2549 H   0  0  0  0  0  0  0  0  0  0  0  0
  1  2  1  0
  2  3  2  0
  3  4  1  0
  4  5  1  0
  5  6  2  0
  6  7  1  0
  7  8  2  0
  8  9  1  0
  9 10  2  0
 10 11  1  0
 10 12  1  0
 12 13  1  0
 12 14  2  0
 14 15  1  0
 14 16  1  0
 16 17  1  0
 16 18  2  0
 18 19  1  0
  8 20  1  0
 20 21  1  0
 20 22  2  0
 22 23  1  0
 23 24  1  0
 23 25  1  0
 23 26  1  0
 22 27  1  0
  4 28  2  0
 28 29  1  0
 28 30  1  0
 30 31  1  0
 30 32  2  0
 32 33  1  0
 32  2  1  0
 27  6  1  0
 18  9  1  0
M  CHG  2  27  -1  30   1
M  END
>  <UniqueID>  (7) 
7

>  <SMILES>  (7) 
Cc1cc(-c2ccccc2)n/c(=N/c2c[nH+]ccn2)[n-]1

>  <Energy>  (7) 
43.04835208943955

>  <Genealogy>  (7) 
Cc1cc(-c2ccccc2)nc(=Nc2c[nH+]ccn2)[n-]1 (protonated)
Cc1cc(-c2ccccc2)n/c(=N/c2c[nH+]ccn2)[n-]1 (cis-trans isomerization)
Cc1cc(-c2ccccc2)n/c(=N/c2c[nH+]ccn2)[n-]1 (3D coordinates assigned)
Cc1cc(-c2ccccc2)n/c(=N/c2c[nH+]ccn2)[n-]1 (optimized conformer: 43.04835208943955 kcal/mol)

>  <smiles>  (7) 
Cc1cc(-c2ccccc2)nc(=Nc2cnccn2)[nH]1

>  <score_type>  (7) 
oracle

>  <origin>  (7) 
adg

>  <m_score__min__energy>  (7) 
-7.3899999999999997

>  <m_primary>  (7) 
energy

$$$$
7:0
     RDKit          3D

 42 43  0  0  0  0  0  0  0  0999 V2000
   56.6360   26.5940   46.0120 C   0  0  0  0  0  0  0  0  0  0  0  0
   55.9250   27.7630   45.6180 O   0  0  0  0  0  0  0  0  0  0  0  0
   56.5320   28.9660   45.2280 C   0  0  0  0  0  0  0  0  0  0  0  0
   56.0090   29.6490   44.1240 C   0  0  0  0  0  0  0  0  0  0  0  0
   56.5750   30.8540   43.7000 C   0  0  0  0  0  0  0  0  0  0  0  0
   57.6800   31.3930   44.3760 C   0  0  0  0  0  0  0  0  0  0  0  0
   58.2500   32.7260   43.9700 C   0  0  0  0  0  0  0  0  0  0  0  0
   57.9720   33.7500   44.9880 N   0  0  0  0  0  0  0  0  0  0  0  0
   58.8690   34.9160   44.8800 C   0  0  0  0  0  0  0  0  0  0  0  0
   59.8710   34.9150   46.0370 C   0  0  0  0  0  0  0  0  0  0  0  0
   59.7090   33.6860   46.8460 N   0  0  0  0  0  0  0  0  0  0  0  0
   60.8840   32.7940   46.7600 C   0  0  0  0  0  0  0  0  0  0  0  0
   62.1250   33.4010   47.4440 C   0  0  0  0  0  0  0  0  0  0  0  0
   61.7750   34.2130   48.7030 C   0  0  0  0  0  0  0  0  0  0  0  0
   60.4240   33.8000   49.2850 C   0  0  0  0  0  0  0  0  0  0  0  0
   59.2920   33.9610   48.2470 C   0  0  0  0  0  0  0  0  0  0  0  0
   58.2060   30.7130   45.4850 C   0  0  0  0  0  0  0  0  0  0  0  0
   57.6410   29.5070   45.9090 C   0  0  0  0  0  0  0  0  0  0  0  0
   56.6700   26.5382   47.1101 H   0  0  0  0  0  0  0  0  0  0  0  0
   56.1263   25.7036   45.6152 H   0  0  0  0  0  0  0  0  0  0  0  0
   57.6610   26.6371   45.6152 H   0  0  0  0  0  0  0  0  0  0  0  0
   55.1446   29.2334   43.5853 H   0  0  0  0  0  0  0  0  0  0  0  0
   56.1525   31.3823   42.8326 H   0  0  0  0  0  0  0  0  0  0  0  0
   59.3386   32.6289   43.8454 H   0  0  0  0  0  0  0  0  0  0  0  0
   57.7800   33.0349   43.0247 H   0  0  0  0  0  0  0  0  0  0  0  0
   58.1290   33.3040   45.9240 H   0  0  0  0  0  0  0  0  0  0  0  0
   59.4143   34.8688   43.9259 H   0  0  0  0  0  0  0  0  0  0  0  0
   58.2698   35.8375   44.9223 H   0  0  0  0  0  0  0  0  0  0  0  0
   60.8935   34.9533   45.6334 H   0  0  0  0  0  0  0  0  0  0  0  0
   59.6882   35.7931   46.6738 H   0  0  0  0  0  0  0  0  0  0  0  0
   60.6409   31.8392   47.2492 H   0  0  0  0  0  0  0  0  0  0  0  0
   61.1213   32.6485   45.6958 H   0  0  0  0  0  0  0  0  0  0  0  0
   62.8034   32.5838   47.7303 H   0  0  0  0  0  0  0  0  0  0  0  0
   62.5951   34.0894   46.7262 H   0  0  0  0  0  0  0  0  0  0  0  0
   62.5549   34.0488   49.4612 H   0  0  0  0  0  0  0  0  0  0  0  0
   61.7165   35.2746   48.4208 H   0  0  0  0  0  0  0  0  0  0  0  0
   60.4758   32.7467   49.5980 H   0  0  0  0  0  0  0  0  0  0  0  0
   60.2025   34.4512   50.1435 H   0  0  0  0  0  0  0  0  0  0  0  0
   58.4815   33.2650   48.5091 H   0  0  0  0  0  0  0  0  0  0  0  0
   58.9761   35.0140   48.2830 H   0  0  0  0  0  0  0  0  0  0  0  0
   59.0685   31.1318   46.0241 H   0  0  0  0  0  0  0  0  0  0  0  0
   58.0630   28.9786   46.7766 H   0  0  0  0  0  0  0  0  0  0  0  0
  1  2  1  0
  2  3  1  0
  3  4  2  0
  4  5  1  0
  5  6  2  0
  6  7  1  0
  7  8  1  0
  8  9  1  0
  9 10  1  0
 10 11  1  0
 11 12  1  0
 12 13  1  0
 13 14  1  0
 14 15  1  0
 15 16  1  0
  6 17  1  0
 17 18  2  0
 18  3  1  0
 16 11  1  0
  1 19  1  0
  1 20  1  0
  1 21  1  0
  4 22  1  0
  5 23  1  0
  7 24  1  0
  7 25  1  0
  8 26  1  0
  9 27  1  0
  9 28  1  0
 10 29  1  0
 10 30  1  0
 12 31  1  0
 12 32  1  0
 13 33  1  0
 13 34  1  0
 14 35  1  0
 14 36  1  0
 15 37  1  0
 15 38  1  0
 16 39  1  0
 16 40  1  0
 17 41  1  0
 18 42  1  0
M  END
>  <UniqueID>  (8) 
8

>  <SMILES>  (8) 
COc1ccc(CNCCN2CCCCC2)cc1

>  <Energy>  (8) 
45.990253300671675

>  <Genealogy>  (8) 
COc1ccc(CNCCN2CCCCC2)cc1 (3D coordinates assigned)
COc1ccc(CNCCN2CCCCC2)cc1 (nonaromatic ring conformer: 45.990253300671675 kcal/mol)

>  <smiles>  (8) 
COc1ccc(CNCCN2CCCCC2)cc1

>  <score_type>  (8) 
oracle

>  <origin>  (8) 
adg

>  <m_score__min__energy>  (8) 
-6.0999999999999996

>  <m_primary>  (8) 
energy

$$$$
8:0
     RDKit          3D

 41 43  0  0  0  0  0  0  0  0999 V2000
   63.0770   32.9100   47.2040 C   0  0  0  0  0  0  0  0  0  0  0  0
   62.4490   31.7440   47.9600 C   0  0  0  0  0  0  0  0  0  0  0  0
   61.8880   30.7630   47.0280 N   0  0  0  0  0  0  0  0  0  0  0  0
   60.7210   29.9530   47.2900 C   0  0  0  0  0  0  0  0  0  0  0  0
   60.2260   29.7760   48.5930 C   0  0  0  0  0  0  0  0  0  0  0  0
   59.1020   28.9880   48.8140 C   0  0  0  0  0  0  0  0  0  0  0  0
   58.4630   28.3820   47.7360 C   0  0  0  0  0  0  0  0  0  0  0  0
   58.9240   28.5620   46.4600 N   0  0  0  0  0  0  0  0  0  0  0  0
   58.2280   27.8880   45.3500 C   0  0  0  0  0  0  0  0  0  0  0  0
   56.7480   27.7860   45.6200 C   0  0  0  0  0  0  0  0  0  0  0  0
   56.3090   26.8520   46.3420 O   0  0  0  0  0  0  0  0  0  0  0  0
   55.8230   28.7650   45.1270 N   0  0  0  0  0  0  0  0  0  0  0  0
   56.1000   29.7470   44.0830 C   0  0  0  0  0  0  0  0  0  0  0  0
   56.9390   30.8620   44.6210 C   0  0  0  0  0  0  0  0  0  0  0  0
   57.2830   31.9450   43.8760 N   0  0  0  0  0  0  0  0  0  0  0  0
   58.0040   32.6730   44.7420 C   0  0  0  0  0  0  0  0  0  0  0  0
   58.6140   33.9050   44.5190 C   0  0  0  0  0  0  0  0  0  0  0  0
   59.3210   34.4870   45.5900 C   0  0  0  0  0  0  0  0  0  0  0  0
   59.3960   33.8270   46.8380 C   0  0  0  0  0  0  0  0  0  0  0  0
   58.7670   32.5820   47.0250 C   0  0  0  0  0  0  0  0  0  0  0  0
   58.0770   32.0370   45.9440 C   0  0  0  0  0  0  0  0  0  0  0  0
   57.4080   30.8780   45.8970 N   0  0  0  0  0  0  0  0  0  0  0  0
   60.0430   29.3240   46.2250 C   0  0  0  0  0  0  0  0  0  0  0  0
   60.4770   29.4610   45.0470 O   0  0  0  0  0  0  0  0  0  0  0  0
   63.4718   33.6430   47.9229 H   0  0  0  0  0  0  0  0  0  0  0  0
   63.8968   32.5381   46.5719 H   0  0  0  0  0  0  0  0  0  0  0  0
   62.3154   33.3899   46.5719 H   0  0  0  0  0  0  0  0  0  0  0  0
   63.2190   31.2569   48.5763 H   0  0  0  0  0  0  0  0  0  0  0  0
   61.6388   32.1307   48.5956 H   0  0  0  0  0  0  0  0  0  0  0  0
   62.3770   30.6610   46.1100 H   0  0  0  0  0  0  0  0  0  0  0  0
   60.7295   30.2626   49.4413 H   0  0  0  0  0  0  0  0  0  0  0  0
   58.7197   28.8442   49.8354 H   0  0  0  0  0  0  0  0  0  0  0  0
   57.5785   27.7520   47.9115 H   0  0  0  0  0  0  0  0  0  0  0  0
   58.3858   28.4624   44.4253 H   0  0  0  0  0  0  0  0  0  0  0  0
   58.6356   26.8714   45.2477 H   0  0  0  0  0  0  0  0  0  0  0  0
   56.6366   29.2561   43.2577 H   0  0  0  0  0  0  0  0  0  0  0  0
   55.1468   30.1613   43.7228 H   0  0  0  0  0  0  0  0  0  0  0  0
   58.5463   34.4057   43.5419 H   0  0  0  0  0  0  0  0  0  0  0  0
   59.8169   35.4595   45.4544 H   0  0  0  0  0  0  0  0  0  0  0  0
   59.9496   34.2896   47.6683 H   0  0  0  0  0  0  0  0  0  0  0  0
   58.8183   32.0576   47.9906 H   0  0  0  0  0  0  0  0  0  0  0  0
  1  2  1  0
  2  3  1  0
  3  4  1  0
  4  5  2  0
  5  6  1  0
  6  7  2  0
  7  8  1  0
  8  9  1  0
  9 10  1  0
 10 11  2  0
 10 12  1  0
 12 13  1  0
 13 14  1  0
 14 15  2  0
 15 16  1  0
 16 17  2  0
 17 18  1  0
 18 19  2  0
 19 20  1  0
 20 21  2  0
 21 22  1  0
  8 23  1  0
 23 24  2  0
 23  4  1  0
 22 14  1  0
 21 16  1  0
  1 25  1  0
  1 26  1  0
  1 27  1  0
  2 28  1  0
  2 29  1  0
  3 30  1  0
  5 31  1  0
  6 32  1  0
  7 33  1  0
  9 34  1  0
  9 35  1  0
 13 36  1  0
 13 37  1  0
 17 38  1  0
 18 39  1  0
 19 40  1  0
 20 41  1  0
M  CHG  2  12  -1  22  -1
M  END
>  <UniqueID>  (9) 
9

>  <SMILES>  (9) 
CCNc1cccn(CC(=O)[N-]Cc2nc3ccccc3[n-]2)c1=O

>  <Energy>  (9) 
75.23575382236551

>  <Genealogy>  (9) 
CCNc1cccn(CC(=O)[N-]Cc2nc3ccccc3[n-]2)c1=O (protonated)
CCNc1cccn(CC(=O)[N-]Cc2nc3ccccc3[n-]2)c1=O (3D coordinates assigned)
CCNc1cccn(CC(=O)[N-]Cc2nc3ccccc3[n-]2)c1=O (optimized conformer: 75.23575382236551 kcal/mol)

>  <smiles>  (9) 
CCNc1cccn(CC(=O)NCc2nc3ccccc3[nH]2)c1=O

>  <score_type>  (9) 
oracle

>  <origin>  (9) 
adg

>  <m_score__min__energy>  (9) 
-10.68

>  <m_primary>  (9) 
energy

$$$$
9:0
     RDKit          3D

 54 57  0  0  0  0  0  0  0  0999 V2000
   61.2680   33.8550   48.1880 C   0  0  0  0  0  0  0  0  0  0  0  0
   59.8350   33.8040   48.7200 C   0  0  0  0  0  0  0  0  0  0  0  0
   58.8850   34.4560   47.7910 N   0  0  0  0  0  0  0  0  0  0  0  0
   59.6000   35.2660   46.7710 C   0  0  0  0  0  0  0  0  0  0  0  0
   59.7530   34.5160   45.4420 C   0  0  0  0  0  0  0  0  0  0  0  0
   58.4300   34.1970   44.8630 N   0  0  0  0  0  0  0  0  0  0  0  0
   58.4820   33.2040   43.7650 C   0  0  0  0  0  0  0  0  0  0  0  0
   58.0610   31.8060   44.1760 C   0  0  0  0  0  0  0  0  0  0  0  0
   58.7660   31.1180   45.1770 C   0  0  0  0  0  0  0  0  0  0  0  0
   58.3740   29.8340   45.5660 C   0  0  0  0  0  0  0  0  0  0  0  0
   57.2930   29.2000   44.9400 C   0  0  0  0  0  0  0  0  0  0  0  0
   56.8940   27.8920   45.3810 N   0  0  0  0  0  0  0  0  0  0  0  0
   57.4120   26.6650   44.8340 C   0  0  0  0  0  0  0  0  0  0  0  0
   58.2970   26.6920   43.9360 O   0  0  0  0  0  0  0  0  0  0  0  0
   56.9160   25.3530   45.3070 C   0  0  0  0  0  0  0  0  0  0  0  0
   57.7560   24.2330   45.2360 C   0  0  0  0  0  0  0  0  0  0  0  0
   57.2940   22.9890   45.6730 C   0  0  0  0  0  0  0  0  0  0  0  0
   58.0970   21.8410   45.6030 C   0  0  0  0  0  0  0  0  0  0  0  0
   57.5960   20.6130   46.0450 C   0  0  0  0  0  0  0  0  0  0  0  0
   56.2970   20.5260   46.5580 C   0  0  0  0  0  0  0  0  0  0  0  0
   55.4920   21.6670   46.6310 C   0  0  0  0  0  0  0  0  0  0  0  0
   55.9840   22.9010   46.1910 C   0  0  0  0  0  0  0  0  0  0  0  0
   55.2200   23.9860   46.2660 O   0  0  0  0  0  0  0  0  0  0  0  0
   55.6280   25.1850   45.8590 C   0  0  0  0  0  0  0  0  0  0  0  0
   54.8560   26.1700   46.0030 O   0  0  0  0  0  0  0  0  0  0  0  0
   56.5880   29.8840   43.9350 C   0  0  0  0  0  0  0  0  0  0  0  0
   56.9790   31.1690   43.5460 C   0  0  0  0  0  0  0  0  0  0  0  0
   57.3640   33.9590   45.8640 C   0  0  0  0  0  0  0  0  0  0  0  0
   57.9360   33.4730   47.2040 C   0  0  0  0  0  0  0  0  0  0  0  0
   61.9721   33.8801   49.0328 H   0  0  0  0  0  0  0  0  0  0  0  0
   61.4632   32.9632   47.5743 H   0  0  0  0  0  0  0  0  0  0  0  0
   61.3994   34.7584   47.5743 H   0  0  0  0  0  0  0  0  0  0  0  0
   59.5404   32.7524   48.8518 H   0  0  0  0  0  0  0  0  0  0  0  0
   59.8044   34.3438   49.6780 H   0  0  0  0  0  0  0  0  0  0  0  0
   59.0335   36.1919   46.5926 H   0  0  0  0  0  0  0  0  0  0  0  0
   60.6076   35.4823   47.1557 H   0  0  0  0  0  0  0  0  0  0  0  0
   60.3136   35.1455   44.7352 H   0  0  0  0  0  0  0  0  0  0  0  0
   60.2921   33.5754   45.6283 H   0  0  0  0  0  0  0  0  0  0  0  0
   57.8139   33.5436   42.9598 H   0  0  0  0  0  0  0  0  0  0  0  0
   59.5324   33.1385   43.4451 H   0  0  0  0  0  0  0  0  0  0  0  0
   59.6333   31.5933   45.6586 H   0  0  0  0  0  0  0  0  0  0  0  0
   58.9186   29.3173   46.3700 H   0  0  0  0  0  0  0  0  0  0  0  0
   56.2220   27.8420   46.1780 H   0  0  0  0  0  0  0  0  0  0  0  0
   58.7763   24.3333   44.8373 H   0  0  0  0  0  0  0  0  0  0  0  0
   59.1188   21.9069   45.2011 H   0  0  0  0  0  0  0  0  0  0  0  0
   58.2249   19.7123   45.9893 H   0  0  0  0  0  0  0  0  0  0  0  0
   55.9080   19.5573   46.9048 H   0  0  0  0  0  0  0  0  0  0  0  0
   54.4713   21.5946   47.0346 H   0  0  0  0  0  0  0  0  0  0  0  0
   55.7234   29.4057   43.4515 H   0  0  0  0  0  0  0  0  0  0  0  0
   56.4353   31.6848   42.7408 H   0  0  0  0  0  0  0  0  0  0  0  0
   56.8163   34.8983   46.0307 H   0  0  0  0  0  0  0  0  0  0  0  0
   56.6976   33.1759   45.4733 H   0  0  0  0  0  0  0  0  0  0  0  0
   57.1062   33.3153   47.9087 H   0  0  0  0  0  0  0  0  0  0  0  0
   58.4843   32.5371   47.0212 H   0  0  0  0  0  0  0  0  0  0  0  0
  1  2  1  0
  2  3  1  0
  3  4  1  0
  4  5  1  0
  5  6  1  0
  6  7  1  0
  7  8  1  0
  8  9  2  0
  9 10  1  0
 10 11  2  0
 11 12  1  0
 12 13  1  0
 13 14  2  0
 13 15  1  0
 15 16  2  0
 16 17  1  0
 17 18  2  0
 18 19  1  0
 19 20  2  0
 20 21  1  0
 21 22  2  0
 22 23  1  0
 23 24  1  0
 24 25  2  0
 11 26  1  0
 26 27  2  0
  6 28  1  0
 28 29  1  0
 29  3  1  0
 27  8  1  0
 24 15  1  0
 22 17  1  0
  1 30  1  0
  1 31  1  0
  1 32  1  0
  2 33  1  0
  2 34  1  0
  4 35  1  0
  4 36  1  0
  5 37  1  0
  5 38  1  0
  7 39  1  0
  7 40  1  0
  9 41  1  0
 10 42  1  0
 12 43  1  0
 16 44  1  0
 18 45  1  0
 19 46  1  0
 20 47  1  0
 21 48  1  0
 26 49  1  0
 27 50  1  0
 28 51  1  0
 28 52  1  0
 29 53  1  0
 29 54  1  0
M  END
>  <UniqueID>  (10) 
10

>  <SMILES>  (10) 
CCN1CCN(Cc2ccc(NC(=O)c3cc4ccccc4oc3=O)cc2)CC1

>  <Energy>  (10) 
84.06425904342937

>  <Genealogy>  (10) 
CCN1CCN(Cc2ccc(NC(=O)c3cc4ccccc4oc3=O)cc2)CC1 (3D coordinates assigned)
CCN1CCN(Cc2ccc(NC(=O)c3cc4ccccc4oc3=O)cc2)CC1 (nonaromatic ring conformer: 84.06425904342937 kcal/mol)

>  <smiles>  (10) 
CCN1CCN(Cc2ccc(NC(=O)c3cc4ccccc4oc3=O)cc2)CC1

>  <score_type>  (10) 
oracle

>  <origin>  (10) 
adg

>  <m_score__min__energy>  (10) 
-8.9700000000000006

>  <m_primary>  (10) 
energy

$$$$
10:0
     RDKit          3D

 79 83  0  0  0  0  0  0  0  0999 V2000
   59.1640   34.9280   45.4020 C   0  0  0  0  0  0  0  0  0  0  0  0
   59.9030   34.2250   46.5030 C   0  0  0  0  0  0  0  0  0  0  0  0
   61.2430   33.8550   46.3260 C   0  0  0  0  0  0  0  0  0  0  0  0
   61.9530   33.2310   47.3640 C   0  0  0  0  0  0  0  0  0  0  0  0
   63.3710   32.7950   47.1530 C   0  0  0  0  0  0  0  0  0  0  0  0
   61.3050   32.9590   48.5770 C   0  0  0  0  0  0  0  0  0  0  0  0
   59.9650   33.3370   48.7710 C   0  0  0  0  0  0  0  0  0  0  0  0
   59.2820   33.0440   50.0520 C   0  0  0  0  0  0  0  0  0  0  0  0
   59.3070   33.9990   51.0790 C   0  0  0  0  0  0  0  0  0  0  0  0
   58.7360   33.7340   52.2820 N   0  0  0  0  0  0  0  0  0  0  0  0
   58.1240   32.5510   52.5390 C   0  0  0  0  0  0  0  0  0  0  0  0
   57.5680   32.3310   53.7580 N   0  0  0  0  0  0  0  0  0  0  0  0
   56.9350   31.1660   54.0590 C   0  0  0  0  0  0  0  0  0  0  0  0
   56.8290   30.1450   53.1000 C   0  0  0  0  0  0  0  0  0  0  0  0
   56.1350   28.8760   53.4310 C   0  0  0  0  0  0  0  0  0  0  0  0
   56.7860   27.7950   53.4280 O   0  0  0  0  0  0  0  0  0  0  0  0
   54.7390   28.8630   53.7700 N   0  0  0  0  0  0  0  0  0  0  0  0
   53.9630   27.6270   53.8440 C   0  0  0  0  0  0  0  0  0  0  0  0
   52.6300   27.7900   53.1030 C   0  0  0  0  0  0  0  0  0  0  0  0
   51.8510   29.0830   53.4630 C   0  0  0  0  0  0  0  0  0  0  0  0
   52.4590   30.3690   53.0390 N   0  0  0  0  0  0  0  0  0  0  0  0
   52.9170   30.4090   51.6430 C   0  0  0  0  0  0  0  0  0  0  0  0
   52.1740   31.5360   50.9320 C   0  0  0  0  0  0  0  0  0  0  0  0
   51.1360   32.0320   51.9200 C   0  0  0  0  0  0  0  0  0  0  0  0
   51.6350   31.5610   53.2730 C   0  0  0  0  0  0  0  0  0  0  0  0
   57.4140   30.3460   51.8390 C   0  0  0  0  0  0  0  0  0  0  0  0
   58.0610   31.5570   51.5450 C   0  0  0  0  0  0  0  0  0  0  0  0
   58.6270   31.8120   50.2810 C   0  0  0  0  0  0  0  0  0  0  0  0
   58.5170   30.8480   49.2690 O   0  0  0  0  0  0  0  0  0  0  0  0
   59.4720   29.8020   49.0910 C   0  0  0  0  0  0  0  0  0  0  0  0
   59.3620   29.2120   47.6800 C   0  0  0  0  0  0  0  0  0  0  0  0
   59.3720   30.2960   46.5810 C   0  0  1  0  0  0  0  0  0  0  0  0
   59.6300   29.6440   45.1910 C   0  0  0  0  0  0  0  0  0  0  0  0
   58.3150   29.3600   44.4620 C   0  0  0  0  0  0  0  0  0  0  0  0
   57.5040   30.6500   44.2560 C   0  0  0  0  0  0  0  0  0  0  0  0
   57.7920   31.7000   45.3420 C   0  0  0  0  0  0  0  0  0  0  0  0
   58.0950   31.0480   46.6220 N   0  0  0  0  0  0  0  0  0  0  0  0
   59.2760   33.9860   47.7350 C   0  0  0  0  0  0  0  0  0  0  0  0
   58.4322   35.6241   45.8378 H   0  0  0  0  0  0  0  0  0  0  0  0
   59.8781   35.4883   44.7806 H   0  0  0  0  0  0  0  0  0  0  0  0
   58.6400   34.1868   44.7806 H   0  0  0  0  0  0  0  0  0  0  0  0
   61.7423   34.0550   45.3665 H   0  0  0  0  0  0  0  0  0  0  0  0
   63.8576   32.6454   48.1281 H   0  0  0  0  0  0  0  0  0  0  0  0
   63.3842   31.8513   46.5880 H   0  0  0  0  0  0  0  0  0  0  0  0
   63.9122   33.5682   46.5880 H   0  0  0  0  0  0  0  0  0  0  0  0
   61.8494   32.4457   49.3834 H   0  0  0  0  0  0  0  0  0  0  0  0
   59.7933   34.9708   50.9083 H   0  0  0  0  0  0  0  0  0  0  0  0
   56.5029   31.0220   55.0603 H   0  0  0  0  0  0  0  0  0  0  0  0
   54.2680   29.7520   54.0520 H   0  0  0  0  0  0  0  0  0  0  0  0
   54.5371   26.8100   53.3826 H   0  0  0  0  0  0  0  0  0  0  0  0
   53.7594   27.3951   54.8998 H   0  0  0  0  0  0  0  0  0  0  0  0
   52.8361   27.8019   52.0225 H   0  0  0  0  0  0  0  0  0  0  0  0
   51.9952   26.9453   53.4088 H   0  0  0  0  0  0  0  0  0  0  0  0
   50.8575   29.0143   52.9958 H   0  0  0  0  0  0  0  0  0  0  0  0
   51.8412   29.1172   54.5624 H   0  0  0  0  0  0  0  0  0  0  0  0
   54.0001   30.5984   51.6113 H   0  0  0  0  0  0  0  0  0  0  0  0
   52.7146   29.4477   51.1481 H   0  0  0  0  0  0  0  0  0  0  0  0
   52.8692   32.3463   50.6673 H   0  0  0  0  0  0  0  0  0  0  0  0
   51.7105   31.1893   49.9966 H   0  0  0  0  0  0  0  0  0  0  0  0
   51.0677   33.1295   51.8925 H   0  0  0  0  0  0  0  0  0  0  0  0
   50.1296   31.6509   51.6922 H   0  0  0  0  0  0  0  0  0  0  0  0
   52.2379   32.3490   53.7479 H   0  0  0  0  0  0  0  0  0  0  0  0
   50.7928   31.3292   53.9415 H   0  0  0  0  0  0  0  0  0  0  0  0
   57.3651   29.5521   51.0792 H   0  0  0  0  0  0  0  0  0  0  0  0
   60.4844   30.2069   49.2366 H   0  0  0  0  0  0  0  0  0  0  0  0
   59.2729   29.0083   49.8261 H   0  0  0  0  0  0  0  0  0  0  0  0
   60.2124   28.5343   47.5142 H   0  0  0  0  0  0  0  0  0  0  0  0
   58.4011   28.6805   47.6150 H   0  0  0  0  0  0  0  0  0  0  0  0
   60.1892   31.0104   46.7594 H   0  0  0  0  0  0  0  0  0  0  0  0
   60.2383   30.3279   44.5809 H   0  0  0  0  0  0  0  0  0  0  0  0
   60.1565   28.6906   45.3451 H   0  0  0  0  0  0  0  0  0  0  0  0
   58.5374   28.9154   43.4808 H   0  0  0  0  0  0  0  0  0  0  0  0
   57.7191   28.6679   45.0751 H   0  0  0  0  0  0  0  0  0  0  0  0
   57.7605   31.0763   43.2749 H   0  0  0  0  0  0  0  0  0  0  0  0
   56.4369   30.3896   44.3142 H   0  0  0  0  0  0  0  0  0  0  0  0
   58.6532   32.3114   45.0347 H   0  0  0  0  0  0  0  0  0  0  0  0
   56.9018   32.3338   45.4682 H   0  0  0  0  0  0  0  0  0  0  0  0
   58.1830   31.8030   47.3410 H   0  0  0  0  0  0  0  0  0  0  0  0
   58.2363   34.3098   47.8901 H   0  0  0  0  0  0  0  0  0  0  0  0
  1  2  1  0
  2  3  2  0
  3  4  1  0
  4  5  1  0
  4  6  2  0
  6  7  1  0
  7  8  1  0
  8  9  2  0
  9 10  1  0
 10 11  2  0
 11 12  1  0
 12 13  2  0
 13 14  1  0
 14 15  1  0
 15 16  2  0
 15 17  1  0
 17 18  1  0
 18 19  1  0
 19 20  1  0
 20 21  1  0
 21 22  1  0
 22 23  1  0
 23 24  1  0
 24 25  1  0
 14 26  2  0
 26 27  1  0
 27 28  2  0
 28 29  1  0
 29 30  1  0
 30 31  1  0
 31 32  1  0
 32 33  1  0
 33 34  1  0
 34 35  1  0
 35 36  1  0
 36 37  1  0
  7 38  2  0
 38  2  1  0
 28  8  1  0
 37 32  1  0
 27 11  1  0
 25 21  1  0
  1 39  1  0
  1 40  1  0
  1 41  1  0
  3 42  1  0
  5 43  1  0
  5 44  1  0
  5 45  1  0
  6 46  1  0
  9 47  1  0
 13 48  1  0
 17 49  1  0
 18 50  1  0
 18 51  1  0
 19 52  1  0
 19 53  1  0
 20 54  1  0
 20 55  1  0
 22 56  1  0
 22 57  1  0
 23 58  1  0
 23 59  1  0
 24 60  1  0
 24 61  1  0
 25 62  1  0
 25 63  1  0
 26 64  1  0
 30 65  1  0
 30 66  1  0
 31 67  1  0
 31 68  1  0
 32 69  1  1
 33 70  1  0
 33 71  1  0
 34 72  1  0
 34 73  1  0
 35 74  1  0
 35 75  1  0
 36 76  1  0
 36 77  1  0
 37 78  1  0
 38 79  1  0
M  END
>  <UniqueID>  (11) 
11

>  <SMILES>  (11) 
Cc1cc(C)cc(-c2cnc3ncc(C(=O)NCCCN4CCCC4)cc3c2OCC[C@H]2CCCCN2)c1

>  <Energy>  (11) 
102.24059670653136

>  <Genealogy>  (11) 
Cc1cc(C)cc(-c2cnc3ncc(C(=O)NCCCN4CCCC4)cc3c2OCC[C@H]2CCCCN2)c1 (chirality)
Cc1cc(C)cc(-c2cnc3ncc(C(=O)NCCCN4CCCC4)cc3c2OCC[C@H]2CCCCN2)c1 (3D coordinates assigned)
Cc1cc(C)cc(-c2cnc3ncc(C(=O)NCCCN4CCCC4)cc3c2OCC[C@H]2CCCCN2)c1 (nonaromatic ring conformer: 102.24059670653136 kcal/mol)

>  <smiles>  (11) 
Cc1cc(C)cc(-c2cnc3ncc(C(=O)NCCCN4CCCC4)cc3c2OCCC2CCCCN2)c1

>  <score_type>  (11) 
oracle

>  <origin>  (11) 
adg

>  <m_score__min__energy>  (11) 
-9.7200000000000006

>  <m_primary>  (11) 
energy

$$$$
11:0
     RDKit          3D

 40 42  0  0  0  0  0  0  0  0999 V2000
   57.1450   32.3570   41.0320 C   0  0  0  0  0  0  0  0  0  0  0  0
   57.4620   31.9120   42.4240 C   0  0  0  0  0  0  0  0  0  0  0  0
   57.7750   32.8490   43.4130 C   0  0  0  0  0  0  0  0  0  0  0  0
   58.0480   32.3940   44.7100 C   0  0  0  0  0  0  0  0  0  0  0  0
   58.3600   33.3120   45.7750 N   0  0  0  0  0  0  0  0  0  0  0  0
   57.8640   33.1100   47.1410 C   0  0  0  0  0  0  0  0  0  0  0  0
   59.0040   33.3040   48.1590 C   0  0  0  0  0  0  0  0  0  0  0  0
   60.0170   34.3120   47.7500 N   0  0  0  0  0  0  0  0  0  0  0  0
   61.2780   33.6790   47.3220 C   0  0  0  0  0  0  0  0  0  0  0  0
   59.5150   35.2740   46.7440 C   0  0  0  0  0  0  0  0  0  0  0  0
   59.0500   34.5660   45.4600 C   0  0  0  0  0  0  0  0  0  0  0  0
   57.9650   31.0620   44.9750 N   0  0  0  0  0  0  0  0  0  0  0  0
   57.6490   30.1570   44.0080 C   0  0  0  0  0  0  0  0  0  0  0  0
   57.5700   28.7120   44.3290 C   0  0  0  0  0  0  0  0  0  0  0  0
   57.1970   28.2870   45.6180 C   0  0  0  0  0  0  0  0  0  0  0  0
   57.1280   26.9230   45.9020 C   0  0  0  0  0  0  0  0  0  0  0  0
   57.4280   25.9910   44.9120 C   0  0  0  0  0  0  0  0  0  0  0  0
   57.7950   26.4390   43.6420 C   0  0  0  0  0  0  0  0  0  0  0  0
   57.8590   27.7730   43.3760 N   0  0  0  0  0  0  0  0  0  0  0  0
   57.4000   30.5930   42.7440 N   0  0  0  0  0  0  0  0  0  0  0  0
   56.5072   33.2524   41.0696 H   0  0  0  0  0  0  0  0  0  0  0  0
   58.0788   32.5941   40.5012 H   0  0  0  0  0  0  0  0  0  0  0  0
   56.6158   31.5519   40.5012 H   0  0  0  0  0  0  0  0  0  0  0  0
   57.8064   33.9231   43.1776 H   0  0  0  0  0  0  0  0  0  0  0  0
   57.0652   33.8373   47.3481 H   0  0  0  0  0  0  0  0  0  0  0  0
   57.4742   32.0854   47.2318 H   0  0  0  0  0  0  0  0  0  0  0  0
   58.5633   33.6250   49.1144 H   0  0  0  0  0  0  0  0  0  0  0  0
   59.5284   32.3401   48.2360 H   0  0  0  0  0  0  0  0  0  0  0  0
   61.8606   33.3865   48.2080 H   0  0  0  0  0  0  0  0  0  0  0  0
   61.0541   32.7864   46.7193 H   0  0  0  0  0  0  0  0  0  0  0  0
   61.8600   34.3918   46.7193 H   0  0  0  0  0  0  0  0  0  0  0  0
   58.6666   35.8275   47.1728 H   0  0  0  0  0  0  0  0  0  0  0  0
   60.3381   35.9546   46.4807 H   0  0  0  0  0  0  0  0  0  0  0  0
   58.3626   35.2277   44.9126 H   0  0  0  0  0  0  0  0  0  0  0  0
   59.9331   34.3366   44.8456 H   0  0  0  0  0  0  0  0  0  0  0  0
   56.9611   29.0266   46.3973 H   0  0  0  0  0  0  0  0  0  0  0  0
   56.8368   26.5840   46.9071 H   0  0  0  0  0  0  0  0  0  0  0  0
   57.3764   24.9137   45.1283 H   0  0  0  0  0  0  0  0  0  0  0  0
   58.0336   25.7112   42.8525 H   0  0  0  0  0  0  0  0  0  0  0  0
   58.1380   28.0650   42.4130 H   0  0  0  0  0  0  0  0  0  0  0  0
  1  2  1  0
  2  3  2  0
  3  4  1  0
  4  5  1  0
  5  6  1  0
  6  7  1  0
  7  8  1  0
  8  9  1  0
  8 10  1  0
 10 11  1  0
  4 12  2  0
 12 13  1  0
 13 14  1  0
 14 15  2  0
 15 16  1  0
 16 17  2  0
 17 18  1  0
 18 19  2  0
 13 20  2  0
 20  2  1  0
 11  5  1  0
 19 14  1  0
  1 21  1  0
  1 22  1  0
  1 23  1  0
  3 24  1  0
  6 25  1  0
  6 26  1  0
  7 27  1  0
  7 28  1  0
  9 29  1  0
  9 30  1  0
  9 31  1  0
 10 32  1  0
 10 33  1  0
 11 34  1  0
 11 35  1  0
 15 36  1  0
 16 37  1  0
 17 38  1  0
 18 39  1  0
 19 40  1  0
M  CHG  1  19   1
M  END
>  <UniqueID>  (12) 
12

>  <SMILES>  (12) 
Cc1cc(N2CCN(C)CC2)nc(-c2cccc[nH+]2)n1

>  <Energy>  (12) 
52.13100207530754

>  <Genealogy>  (12) 
Cc1cc(N2CCN(C)CC2)nc(-c2cccc[nH+]2)n1 (protonated)
Cc1cc(N2CCN(C)CC2)nc(-c2cccc[nH+]2)n1 (3D coordinates assigned)
Cc1cc(N2CCN(C)CC2)nc(-c2cccc[nH+]2)n1 (nonaromatic ring conformer: 52.13100207530754 kcal/mol)

>  <smiles>  (12) 
Cc1cc(N2CCN(C)CC2)nc(-c2ccccn2)n1

>  <score_type>  (12) 
oracle

>  <origin>  (12) 
adg

>  <m_score__min__energy>  (12) 
-5.5300000000000002

>  <m_primary>  (12) 
energy

$$$$
12:0
     RDKit          3D

 48 51  0  0  0  0  0  0  0  0999 V2000
   55.7060   30.0700   43.5740 C   0  0  0  0  0  0  0  0  0  0  0  0
   57.0030   30.0020   44.3050 C   0  0  0  0  0  0  0  0  0  0  0  0
   58.0130   29.1750   43.9550 N   0  0  0  0  0  0  0  0  0  0  0  0
   58.9730   29.5160   44.8370 C   0  0  0  0  0  0  0  0  0  0  0  0
   60.3150   28.8560   44.8920 C   0  0  0  0  0  0  0  0  0  0  0  0
   58.5560   30.4920   45.6680 N   0  0  0  0  0  0  0  0  0  0  0  0
   59.3200   31.1650   46.7200 C   0  0  0  0  0  0  0  0  0  0  0  0
   59.2010   32.6980   46.5870 C   0  0  2  0  0  0  0  0  0  0  0  0
   60.5800   33.3790   46.3280 C   0  0  0  0  0  0  0  0  0  0  0  0
   61.5220   33.4530   47.4800 N   0  0  0  0  0  0  0  0  0  0  0  0
   62.1340   32.1560   47.8360 C   0  0  0  0  0  0  0  0  0  0  0  0
   63.1820   32.3570   48.8840 C   0  0  0  0  0  0  0  0  0  0  0  0
   64.4440   32.7600   48.6200 N   0  0  0  0  0  0  0  0  0  0  0  0
   64.9930   32.7390   49.8550 C   0  0  0  0  0  0  0  0  0  0  0  0
   66.4120   33.0910   50.1380 C   0  0  0  0  0  0  0  0  0  0  0  0
   64.1350   32.3440   50.7650 O   0  0  0  0  0  0  0  0  0  0  0  0
   63.0010   32.0990   50.1900 N   0  0  0  0  0  0  0  0  0  0  0  0
   61.0510   34.1940   48.6720 C   0  0  0  0  0  0  0  0  0  0  0  0
   60.1080   33.3710   49.4910 C   0  0  0  0  0  0  0  0  0  0  0  0
   60.3480   32.9640   50.7550 N   0  0  0  0  0  0  0  0  0  0  0  0
   59.2090   32.3300   51.1100 C   0  0  0  0  0  0  0  0  0  0  0  0
   58.3040   32.3750   50.0700 C   0  0  0  0  0  0  0  0  0  0  0  0
   58.8770   33.0480   49.0610 N   0  0  0  0  0  0  0  0  0  0  0  0
   58.3350   33.3160   47.7300 C   0  0  0  0  0  0  0  0  0  0  0  0
   57.3220   30.8170   45.3290 N   0  0  0  0  0  0  0  0  0  0  0  0
   54.8789   30.1134   44.2979 H   0  0  0  0  0  0  0  0  0  0  0  0
   55.6879   30.9703   42.9423 H   0  0  0  0  0  0  0  0  0  0  0  0
   55.5939   29.1765   42.9423 H   0  0  0  0  0  0  0  0  0  0  0  0
   60.6096   28.7111   45.9419 H   0  0  0  0  0  0  0  0  0  0  0  0
   60.2645   27.8799   44.3873 H   0  0  0  0  0  0  0  0  0  0  0  0
   61.0573   29.4918   44.3873 H   0  0  0  0  0  0  0  0  0  0  0  0
   58.9312   30.8567   47.7017 H   0  0  0  0  0  0  0  0  0  0  0  0
   60.3788   30.8833   46.6225 H   0  0  0  0  0  0  0  0  0  0  0  0
   58.6312   32.9234   45.6735 H   0  0  0  0  0  0  0  0  0  0  0  0
   61.0812   32.8196   45.5243 H   0  0  0  0  0  0  0  0  0  0  0  0
   60.3421   34.4250   46.0843 H   0  0  0  0  0  0  0  0  0  0  0  0
   61.3569   31.4801   48.2224 H   0  0  0  0  0  0  0  0  0  0  0  0
   62.5977   31.7169   46.9404 H   0  0  0  0  0  0  0  0  0  0  0  0
   66.5701   33.1302   51.2259 H   0  0  0  0  0  0  0  0  0  0  0  0
   67.0733   32.3297   49.6986 H   0  0  0  0  0  0  0  0  0  0  0  0
   66.6408   34.0731   49.6986 H   0  0  0  0  0  0  0  0  0  0  0  0
   62.1350   31.7580   50.6640 H   0  0  0  0  0  0  0  0  0  0  0  0
   61.9192   34.4648   49.2908 H   0  0  0  0  0  0  0  0  0  0  0  0
   60.5177   35.0936   48.3310 H   0  0  0  0  0  0  0  0  0  0  0  0
   59.0300   31.8496   52.0832 H   0  0  0  0  0  0  0  0  0  0  0  0
   57.2946   31.9379   50.0684 H   0  0  0  0  0  0  0  0  0  0  0  0
   57.3217   32.8919   47.6714 H   0  0  0  0  0  0  0  0  0  0  0  0
   58.3303   34.4068   47.5884 H   0  0  0  0  0  0  0  0  0  0  0  0
  1  2  1  0
  2  3  1  0
  3  4  2  0
  4  5  1  0
  4  6  1  0
  6  7  1  0
  7  8  1  0
  8  9  1  0
  9 10  1  0
 10 11  1  0
 11 12  1  0
 12 13  1  0
 13 14  2  0
 14 15  1  0
 14 16  1  0
 16 17  1  0
 10 18  1  0
 18 19  1  0
 19 20  2  0
 20 21  1  0
 21 22  2  0
 22 23  1  0
 23 24  1  0
  6 25  1  0
 25  2  2  0
 24  8  1  0
 17 12  2  0
 23 19  1  0
  1 26  1  0
  1 27  1  0
  1 28  1  0
  5 29  1  0
  5 30  1  0
  5 31  1  0
  7 32  1  0
  7 33  1  0
  8 34  1  6
  9 35  1  0
  9 36  1  0
 11 37  1  0
 11 38  1  0
 15 39  1  0
 15 40  1  0
 15 41  1  0
 17 42  1  0
 18 43  1  0
 18 44  1  0
 21 45  1  0
 22 46  1  0
 24 47  1  0
 24 48  1  0
M  CHG  1  17   1
M  END
>  <UniqueID>  (13) 
13

>  <SMILES>  (13) 
Cc1nc(C)n(C[C@@H]2CN(Cc3nc(C)o[nH+]3)Cc3nccn3C2)n1

>  <Energy>  (13) 
156.50739948699538

>  <Genealogy>  (13) 
Cc1nc(C)n(CC2CN(Cc3nc(C)o[nH+]3)Cc3nccn3C2)n1 (protonated)
Cc1nc(C)n(C[C@@H]2CN(Cc3nc(C)o[nH+]3)Cc3nccn3C2)n1 (chirality)
Cc1nc(C)n(C[C@@H]2CN(Cc3nc(C)o[nH+]3)Cc3nccn3C2)n1 (3D coordinates assigned)
Cc1nc(C)n(C[C@@H]2CN(Cc3nc(C)o[nH+]3)Cc3nccn3C2)n1 (nonaromatic ring conformer: 156.50739948699538 kcal/mol)

>  <smiles>  (13) 
Cc1nc(C)n(CC2CN(Cc3noc(C)n3)Cc3nccn3C2)n1

>  <score_type>  (13) 
oracle

>  <origin>  (13) 
adg

>  <m_score__min__energy>  (13) 
-4.8700000000000001

>  <m_primary>  (13) 
energy

$$$$
13:0
     RDKit          3D

 69 72  0  0  0  0  0  0  0  0999 V2000
   55.1520   23.4070   47.3680 H   0  0  0  0  0  0  0  0  0  0  0  0
   55.2950   24.3360   46.9900 O   0  0  0  0  0  0  0  0  0  0  0  0
   56.5480   24.7550   46.5470 C   0  0  0  0  0  0  0  0  0  0  0  0
   56.7260   26.0530   46.0450 C   0  0  0  0  0  0  0  0  0  0  0  0
   55.8628   26.7294   45.9591 H   0  0  0  0  0  0  0  0  0  0  0  0
   58.0020   26.4940   45.6510 C   0  0  0  0  0  0  0  0  0  0  0  0
   58.2040   27.9130   45.1720 C   0  0  0  0  0  0  0  0  0  0  0  0
   59.2705   28.1653   45.2660 H   0  0  0  0  0  0  0  0  0  0  0  0
   57.5697   28.5616   45.7941 H   0  0  0  0  0  0  0  0  0  0  0  0
   57.7780   28.1250   43.7070 C   0  0  0  0  0  0  0  0  0  0  0  0
   56.9482   27.4374   43.4864 H   0  0  0  0  0  0  0  0  0  0  0  0
   58.6674   27.9329   43.0889 H   0  0  0  0  0  0  0  0  0  0  0  0
   57.3170   29.5560   43.3840 C   0  0  0  0  0  0  0  0  0  0  0  0
   56.7727   29.5373   42.4283 H   0  0  0  0  0  0  0  0  0  0  0  0
   58.2210   30.1813   43.3426 H   0  0  0  0  0  0  0  0  0  0  0  0
   56.4200   30.1550   44.4270 C   0  0  0  0  0  0  0  0  0  0  0  0
   55.4470   29.4990   44.8890 O   0  0  0  0  0  0  0  0  0  0  0  0
   56.7280   31.4540   44.9380 N   0  0  0  0  0  0  0  0  0  0  0  0
   57.3110   32.3880   44.2520 C   0  0  0  0  0  0  0  0  0  0  0  0
   57.8036   32.1450   43.2989 H   0  0  0  0  0  0  0  0  0  0  0  0
   57.3130   33.7960   44.7580 C   0  0  0  0  0  0  0  0  0  0  0  0
   57.5788   34.4756   43.9349 H   0  0  0  0  0  0  0  0  0  0  0  0
   56.3104   34.0367   45.1412 H   0  0  0  0  0  0  0  0  0  0  0  0
   58.3100   33.9560   45.8730 C   0  0  0  0  0  0  0  0  0  0  0  0
   59.4490   34.7580   45.6950 C   0  0  0  0  0  0  0  0  0  0  0  0
   59.5984   35.2897   44.7437 H   0  0  0  0  0  0  0  0  0  0  0  0
   60.3930   34.8860   46.7150 C   0  0  0  0  0  0  0  0  0  0  0  0
   61.2739   35.5286   46.5699 H   0  0  0  0  0  0  0  0  0  0  0  0
   60.2210   34.1970   47.9250 C   0  0  0  0  0  0  0  0  0  0  0  0
   61.1520   34.3330   48.9650 C   0  0  0  0  0  0  0  0  0  0  0  0
   62.0556   34.9415   48.8126 H   0  0  0  0  0  0  0  0  0  0  0  0
   60.9400   33.7000   50.1960 C   0  0  0  0  0  0  0  0  0  0  0  0
   61.8390   33.9600   51.2380 O   0  0  0  0  0  0  0  0  0  0  0  0
   63.1280   33.3560   51.3540 C   0  0  0  0  0  0  0  0  0  0  0  0
   63.7328   33.9275   52.0734 H   0  0  0  0  0  0  0  0  0  0  0  0
   63.0068   32.3196   51.7020 H   0  0  0  0  0  0  0  0  0  0  0  0
   63.8340   33.3450   49.9990 C   0  0  0  0  0  0  0  0  0  0  0  0
   63.3357   34.0744   49.3435 H   0  0  0  0  0  0  0  0  0  0  0  0
   64.8883   33.5956   50.1877 H   0  0  0  0  0  0  0  0  0  0  0  0
   63.8210   31.9720   49.2950 C   0  0  0  0  0  0  0  0  0  0  0  0
   64.8626   31.6486   49.1521 H   0  0  0  0  0  0  0  0  0  0  0  0
   63.2463   31.2928   49.9418 H   0  0  0  0  0  0  0  0  0  0  0  0
   63.1200   31.9680   47.9170 C   0  0  0  0  0  0  0  0  0  0  0  0
   62.8343   33.0002   47.6660 H   0  0  0  0  0  0  0  0  0  0  0  0
   63.8296   31.5497   47.1880 H   0  0  0  0  0  0  0  0  0  0  0  0
   61.8780   31.1030   47.8880 C   0  0  0  0  0  0  0  0  0  0  0  0
   61.0710   31.0620   46.7350 C   0  0  0  0  0  0  0  0  0  0  0  0
   61.3423   31.6645   45.8556 H   0  0  0  0  0  0  0  0  0  0  0  0
   59.9260   30.2590   46.7020 C   0  0  0  0  0  0  0  0  0  0  0  0
   59.3077   30.2216   45.7930 H   0  0  0  0  0  0  0  0  0  0  0  0
   59.5660   29.5040   47.8220 C   0  0  0  0  0  0  0  0  0  0  0  0
   58.6686   28.8685   47.7920 H   0  0  0  0  0  0  0  0  0  0  0  0
   60.3470   29.5570   48.9800 C   0  0  0  0  0  0  0  0  0  0  0  0
   60.0623   28.9635   49.8613 H   0  0  0  0  0  0  0  0  0  0  0  0
   61.4900   30.3630   49.0210 C   0  0  0  0  0  0  0  0  0  0  0  0
   62.0880   30.4187   49.9426 H   0  0  0  0  0  0  0  0  0  0  0  0
   59.8220   32.8590   50.3610 C   0  0  0  0  0  0  0  0  0  0  0  0
   59.6722   32.3276   51.3124 H   0  0  0  0  0  0  0  0  0  0  0  0
   58.9030   32.6970   49.3220 C   0  0  0  0  0  0  0  0  0  0  0  0
   58.0345   32.0355   49.4569 H   0  0  0  0  0  0  0  0  0  0  0  0
   59.0830   33.3740   48.1080 C   0  0  0  0  0  0  0  0  0  0  0  0
   58.1400   33.2530   47.0770 C   0  0  0  0  0  0  0  0  0  0  0  0
   57.2623   32.6039   47.2120 H   0  0  0  0  0  0  0  0  0  0  0  0
   59.0910   25.6100   45.7420 C   0  0  0  0  0  0  0  0  0  0  0  0
   60.0946   25.9461   45.4425 H   0  0  0  0  0  0  0  0  0  0  0  0
   58.9060   24.3060   46.2110 C   0  0  0  0  0  0  0  0  0  0  0  0
   59.7599   23.6144   46.2607 H   0  0  0  0  0  0  0  0  0  0  0  0
   57.6380   23.8790   46.6170 C   0  0  0  0  0  0  0  0  0  0  0  0
   57.4680   22.5870   47.1020 O   0  0  0  0  0  0  0  0  0  0  0  0
  1  2  1  0
  2  3  1  0
  3  4  2  0
  4  5  1  0
  4  6  1  0
  6  7  1  0
  7  8  1  0
  7  9  1  0
  7 10  1  0
 10 11  1  0
 10 12  1  0
 10 13  1  0
 13 14  1  0
 13 15  1  0
 13 16  1  0
 16 17  2  0
 16 18  1  0
 18 19  2  0
 19 20  1  0
 19 21  1  0
 21 22  1  0
 21 23  1  0
 21 24  1  0
 24 25  2  0
 25 26  1  0
 25 27  1  0
 27 28  1  0
 27 29  2  0
 29 30  1  0
 30 31  1  0
 30 32  2  0
 32 33  1  0
 33 34  1  0
 34 35  1  0
 34 36  1  0
 34 37  1  0
 37 38  1  0
 37 39  1  0
 37 40  1  0
 40 41  1  0
 40 42  1  0
 40 43  1  0
 43 44  1  0
 43 45  1  0
 43 46  1  0
 46 47  2  0
 47 48  1  0
 47 49  1  0
 49 50  1  0
 49 51  2  0
 51 52  1  0
 51 53  1  0
 53 54  1  0
 53 55  2  0
 55 56  1  0
 32 57  1  0
 57 58  1  0
 57 59  2  0
 59 60  1  0
 59 61  1  0
 61 62  2  0
 62 63  1  0
  6 64  2  0
 64 65  1  0
 64 66  1  0
 66 67  1  0
 66 68  2  0
 68 69  1  0
 68  3  1  0
 62 24  1  0
 61 29  1  0
 55 46  1  0
M  CHG  1  69  -1
M  END
>  <UniqueID>  (14) 
14

>  <SMILES>  (14) 
O=C(CCCc1ccc([O-])c(O)c1)/N=C/Cc1ccc2cc(OCCCCc3ccccc3)ccc2c1

>  <Energy>  (14) 
58.77040723496972

>  <Genealogy>  (14) 
O=C(CCCc1ccc([O-])c(O)c1)N=CCc1ccc2cc(OCCCCc3ccccc3)ccc2c1 (protonated)
O=C(CCCc1ccc([O-])c(O)c1)/N=C/Cc1ccc2cc(OCCCCc3ccccc3)ccc2c1 (cis-trans isomerization)
O=C(CCCc1ccc([O-])c(O)c1)/N=C/Cc1ccc2cc(OCCCCc3ccccc3)ccc2c1 (3D coordinates assigned)
O=C(CCCc1ccc([O-])c(O)c1)/N=C/Cc1ccc2cc(OCCCCc3ccccc3)ccc2c1 (optimized conformer: 58.77040723496972 kcal/mol)

>  <smiles>  (14) 
O=C(CCCc1ccc(O)c(O)c1)N=CCc1ccc2cc(OCCCCc3ccccc3)ccc2c1

>  <score_type>  (14) 
oracle

>  <origin>  (14) 
adg

>  <m_score__min__energy>  (14) 
-12.93

>  <m_primary>  (14) 
energy

$$$$
14:0
     RDKit          3D

 43 47  0  0  0  0  0  0  0  0999 V2000
   54.6740   24.7840   45.5820 C   0  0  0  0  0  0  0  0  0  0  0  0
   55.1330   26.0630   46.0070 O   0  0  0  0  0  0  0  0  0  0  0  0
   56.4460   26.5300   45.8430 C   0  0  0  0  0  0  0  0  0  0  0  0
   57.5660   25.6880   45.9750 C   0  0  0  0  0  0  0  0  0  0  0  0
   58.8530   26.2020   45.8070 C   0  0  0  0  0  0  0  0  0  0  0  0
   59.0380   27.5530   45.5060 C   0  0  0  0  0  0  0  0  0  0  0  0
   57.9300   28.4100   45.3710 C   0  0  0  0  0  0  0  0  0  0  0  0
   58.1210   29.8470   45.0520 C   0  0  0  0  0  0  0  0  0  0  0  0
   58.4160   30.7630   46.0770 C   0  0  0  0  0  0  0  0  0  0  0  0
   58.6230   32.1170   45.7650 C   0  0  0  0  0  0  0  0  0  0  0  0
   58.4240   32.5450   44.4320 C   0  0  0  0  0  0  0  0  0  0  0  0
   58.1280   31.6060   43.4430 C   0  0  0  0  0  0  0  0  0  0  0  0
   57.9980   30.2910   43.7650 N   0  0  0  0  0  0  0  0  0  0  0  0
   58.4960   33.8730   44.1230 N   0  0  0  0  0  0  0  0  0  0  0  0
   58.7490   34.8120   45.0750 C   0  0  0  0  0  0  0  0  0  0  0  0
   58.9670   34.3860   46.3830 C   0  0  0  0  0  0  0  0  0  0  0  0
   59.2580   35.1920   47.4230 N   0  0  0  0  0  0  0  0  0  0  0  0
   59.4370   34.3320   48.4480 C   0  0  0  0  0  0  0  0  0  0  0  0
   59.2650   33.0310   48.0090 C   0  0  0  0  0  0  0  0  0  0  0  0
   59.6440   31.8450   48.7970 C   0  0  0  0  0  0  0  0  0  0  0  0
   60.7900   31.1130   48.4610 C   0  0  0  0  0  0  0  0  0  0  0  0
   61.1220   29.9770   49.2040 C   0  0  0  0  0  0  0  0  0  0  0  0
   60.3270   29.5800   50.2340 N   0  0  0  0  0  0  0  0  0  0  0  0
   59.1980   30.2590   50.5670 C   0  0  0  0  0  0  0  0  0  0  0  0
   58.8290   31.3990   49.8480 C   0  0  0  0  0  0  0  0  0  0  0  0
   58.9410   33.0740   46.6950 N   0  0  0  0  0  0  0  0  0  0  0  0
   56.6370   27.8830   45.5410 C   0  0  0  0  0  0  0  0  0  0  0  0
   54.4512   24.1632   46.4624 H   0  0  0  0  0  0  0  0  0  0  0  0
   53.7627   24.9037   44.9776 H   0  0  0  0  0  0  0  0  0  0  0  0
   55.4534   24.2969   44.9776 H   0  0  0  0  0  0  0  0  0  0  0  0
   57.4270   24.6227   46.2110 H   0  0  0  0  0  0  0  0  0  0  0  0
   59.7251   25.5400   45.9122 H   0  0  0  0  0  0  0  0  0  0  0  0
   60.0555   27.9495   45.3737 H   0  0  0  0  0  0  0  0  0  0  0  0
   58.4845   30.4205   47.1201 H   0  0  0  0  0  0  0  0  0  0  0  0
   57.9994   31.9304   42.3998 H   0  0  0  0  0  0  0  0  0  0  0  0
   57.8000   29.6150   42.9930 H   0  0  0  0  0  0  0  0  0  0  0  0
   58.7806   35.8810   44.8178 H   0  0  0  0  0  0  0  0  0  0  0  0
   59.6833   34.6225   49.4800 H   0  0  0  0  0  0  0  0  0  0  0  0
   61.4234   31.4297   47.6193 H   0  0  0  0  0  0  0  0  0  0  0  0
   62.0271   29.4032   48.9557 H   0  0  0  0  0  0  0  0  0  0  0  0
   58.5740   29.9109   51.4033 H   0  0  0  0  0  0  0  0  0  0  0  0
   57.9073   31.9420   50.1040 H   0  0  0  0  0  0  0  0  0  0  0  0
   55.7638   28.5436   45.4351 H   0  0  0  0  0  0  0  0  0  0  0  0
  1  2  1  0
  2  3  1  0
  3  4  2  0
  4  5  1  0
  5  6  2  0
  6  7  1  0
  7  8  1  0
  8  9  2  0
  9 10  1  0
 10 11  2  0
 11 12  1  0
 12 13  2  0
 11 14  1  0
 14 15  2  0
 15 16  1  0
 16 17  2  0
 17 18  1  0
 18 19  2  0
 19 20  1  0
 20 21  2  0
 21 22  1  0
 22 23  2  0
 23 24  1  0
 24 25  2  0
 19 26  1  0
  7 27  2  0
 27  3  1  0
 13  8  1  0
 26 16  1  0
 26 10  1  0
 25 20  1  0
  1 28  1  0
  1 29  1  0
  1 30  1  0
  4 31  1  0
  5 32  1  0
  6 33  1  0
  9 34  1  0
 12 35  1  0
 13 36  1  0
 15 37  1  0
 18 38  1  0
 21 39  1  0
 22 40  1  0
 24 41  1  0
 25 42  1  0
 27 43  1  0
M  CHG  1  13   1
M  END
>  <UniqueID>  (15) 
15

>  <SMILES>  (15) 
COc1cccc(-c2cc3c(c[nH+]2)ncc2ncc(-c4ccncc4)n23)c1

>  <Energy>  (15) 
104.61312497772869

>  <Genealogy>  (15) 
COc1cccc(-c2cc3c(c[nH+]2)ncc2ncc(-c4ccncc4)n23)c1 (protonated)
COc1cccc(-c2cc3c(c[nH+]2)ncc2ncc(-c4ccncc4)n23)c1 (3D coordinates assigned)
COc1cccc(-c2cc3c(c[nH+]2)ncc2ncc(-c4ccncc4)n23)c1 (optimized conformer: 104.61312497772869 kcal/mol)

>  <smiles>  (15) 
COc1cccc(-c2cc3c(cn2)ncc2ncc(-c4ccncc4)n23)c1

>  <score_type>  (15) 
oracle

>  <origin>  (15) 
adg

>  <m_score__min__energy>  (15) 
-6.9699999999999998

>  <m_primary>  (15) 
energy

$$$$
15:0
     RDKit          3D

 50 50  0  0  0  0  0  0  0  0999 V2000
   59.1830   34.7400   44.9010 C   0  0  0  0  0  0  0  0  0  0  0  0
   59.6750   35.0470   46.3130 C   0  0  0  0  0  0  0  0  0  0  0  0
   58.9140   34.2230   47.3570 C   0  0  0  0  0  0  0  0  0  0  0  0
   58.1370   33.0770   46.6940 C   0  0  0  0  0  0  0  0  0  0  0  0
   58.6570   31.6840   47.0960 C   0  0  0  0  0  0  0  0  0  0  0  0
   60.1460   31.6300   47.4840 C   0  0  0  0  0  0  0  0  0  0  0  0
   60.6970   30.1970   47.5520 C   0  0  0  0  0  0  0  0  0  0  0  0
   59.8780   29.2550   46.6540 C   0  0  0  0  0  0  0  0  0  0  0  0
   59.8490   27.8080   47.1740 C   0  0  0  0  0  0  0  0  0  0  0  0
   59.6240   26.7420   46.0770 C   0  0  0  0  0  0  0  0  0  0  0  0
   58.8640   27.2630   44.8420 C   0  0  0  0  0  0  0  0  0  0  0  0
   57.4050   27.6630   45.1140 C   0  0  0  0  0  0  0  0  0  0  0  0
   57.1330   29.0950   44.7580 C   0  0  0  0  0  0  0  0  0  0  0  0
   57.9880   29.9610   44.1130 C   0  0  0  0  0  0  0  0  0  0  0  0
   57.3080   31.1100   43.9680 N   0  0  0  0  0  0  0  0  0  0  0  0
   57.7580   32.3060   43.2660 C   0  0  0  0  0  0  0  0  0  0  0  0
   57.7170   32.0790   41.7590 C   0  0  0  0  0  0  0  0  0  0  0  0
   56.0990   30.9530   44.4810 N   0  0  0  0  0  0  0  0  0  0  0  0
   55.9660   29.7310   44.9780 N   0  0  0  0  0  0  0  0  0  0  0  0
   58.2509   34.1584   44.9558 H   0  0  0  0  0  0  0  0  0  0  0  0
   58.9963   35.6822   44.3648 H   0  0  0  0  0  0  0  0  0  0  0  0
   59.9472   34.1582   44.3648 H   0  0  0  0  0  0  0  0  0  0  0  0
   60.7467   34.8082   46.3793 H   0  0  0  0  0  0  0  0  0  0  0  0
   59.5016   36.1138   46.5177 H   0  0  0  0  0  0  0  0  0  0  0  0
   59.6321   33.8019   48.0760 H   0  0  0  0  0  0  0  0  0  0  0  0
   58.1973   34.8820   47.8689 H   0  0  0  0  0  0  0  0  0  0  0  0
   57.0798   33.1545   46.9879 H   0  0  0  0  0  0  0  0  0  0  0  0
   58.2699   33.1760   45.6066 H   0  0  0  0  0  0  0  0  0  0  0  0
   58.0676   31.3356   47.9569 H   0  0  0  0  0  0  0  0  0  0  0  0
   58.5491   31.0478   46.2052 H   0  0  0  0  0  0  0  0  0  0  0  0
   60.7238   32.1926   46.7360 H   0  0  0  0  0  0  0  0  0  0  0  0
   60.2403   32.0669   48.4891 H   0  0  0  0  0  0  0  0  0  0  0  0
   61.7441   30.1967   47.2151 H   0  0  0  0  0  0  0  0  0  0  0  0
   60.6294   29.8417   48.5908 H   0  0  0  0  0  0  0  0  0  0  0  0
   58.8452   29.6299   46.6016 H   0  0  0  0  0  0  0  0  0  0  0  0
   60.3589   29.2408   45.6648 H   0  0  0  0  0  0  0  0  0  0  0  0
   60.8108   27.5991   47.6652 H   0  0  0  0  0  0  0  0  0  0  0  0
   58.9935   27.7376   47.8618 H   0  0  0  0  0  0  0  0  0  0  0  0
   60.6062   26.3720   45.7478 H   0  0  0  0  0  0  0  0  0  0  0  0
   59.0015   25.9527   46.5237 H   0  0  0  0  0  0  0  0  0  0  0  0
   59.3964   28.1456   44.4579 H   0  0  0  0  0  0  0  0  0  0  0  0
   58.8318   26.4329   44.1210 H   0  0  0  0  0  0  0  0  0  0  0  0
   56.7438   27.0180   44.5167 H   0  0  0  0  0  0  0  0  0  0  0  0
   57.2173   27.5418   46.1911 H   0  0  0  0  0  0  0  0  0  0  0  0
   59.0170   29.7539   43.7840 H   0  0  0  0  0  0  0  0  0  0  0  0
   57.0996   33.1484   43.5246 H   0  0  0  0  0  0  0  0  0  0  0  0
   58.7918   32.5311   43.5670 H   0  0  0  0  0  0  0  0  0  0  0  0
   57.5249   31.0156   41.5535 H   0  0  0  0  0  0  0  0  0  0  0  0
   56.9144   32.6885   41.3181 H   0  0  0  0  0  0  0  0  0  0  0  0
   58.6821   32.3692   41.3181 H   0  0  0  0  0  0  0  0  0  0  0  0
  1  2  1  0
  2  3  1  0
  3  4  1  0
  4  5  1  0
  5  6  1  0
  6  7  1  0
  7  8  1  0
  8  9  1  0
  9 10  1  0
 10 11  1  0
 11 12  1  0
 12 13  1  0
 13 14  2  0
 14 15  1  0
 15 16  1  0
 16 17  1  0
 15 18  1  0
 18 19  2  0
 19 13  1  0
  1 20  1  0
  1 21  1  0
  1 22  1  0
  2 23  1  0
  2 24  1  0
  3 25  1  0
  3 26  1  0
  4 27  1  0
  4 28  1  0
  5 29  1  0
  5 30  1  0
  6 31  1  0
  6 32  1  0
  7 33  1  0
  7 34  1  0
  8 35  1  0
  8 36  1  0
  9 37  1  0
  9 38  1  0
 10 39  1  0
 10 40  1  0
 11 41  1  0
 11 42  1  0
 12 43  1  0
 12 44  1  0
 14 45  1  0
 16 46  1  0
 16 47  1  0
 17 48  1  0
 17 49  1  0
 17 50  1  0
M  END
>  <UniqueID>  (16) 
16

>  <SMILES>  (16) 
CCCCCCCCCCCCc1cn(CC)nn1

>  <Energy>  (16) 
57.176754677434346

>  <Genealogy>  (16) 
CCCCCCCCCCCCc1cn(CC)nn1 (3D coordinates assigned)
CCCCCCCCCCCCc1cn(CC)nn1 (optimized conformer: 57.176754677434346 kcal/mol)

>  <smiles>  (16) 
CCCCCCCCCCCCc1cn(CC)nn1

>  <score_type>  (16) 
oracle

>  <origin>  (16) 
adg

>  <m_score__min__energy>  (16) 
-7

>  <m_primary>  (16) 
energy

$$$$
16:0
     RDKit          3D

 41 42  0  0  1  0  0  0  0  0999 V2000
   56.4190   25.8540   46.2550 C   0  0  0  0  0  0  0  0  0  0  0  0
   56.6970   27.2580   45.8300 C   0  0  0  0  0  0  0  0  0  0  0  0
   55.9050   28.1150   45.2480 O   0  0  0  0  0  0  0  0  0  0  0  0
   56.5180   29.2620   45.0310 C   0  0  0  0  0  0  0  0  0  0  0  0
   56.1350   30.4360   44.4680 N   0  0  0  0  0  0  0  0  0  0  0  0
   56.9860   31.4810   44.3680 C   0  0  0  0  0  0  0  0  0  0  0  0
   58.2280   31.3470   44.8330 N   0  0  0  0  0  0  0  0  0  0  0  0
   58.6870   30.2240   45.4020 C   0  0  0  0  0  0  0  0  0  0  0  0
   59.8640   30.0500   45.8620 N   0  0  0  0  0  0  0  0  0  0  0  0
   60.4320   31.0260   46.7610 C   0  0  0  0  0  0  0  0  0  0  0  0
   59.3280   31.3590   47.7600 C   0  0  0  0  0  0  0  0  0  0  0  0
   59.1400   32.8290   47.9550 C   0  0  0  0  0  0  0  0  0  0  0  0
   58.0900   33.4230   47.0600 C   0  0  0  0  0  0  0  0  0  0  0  0
   58.7890   33.9710   45.8930 N   0  0  0  0  0  0  0  0  0  0  0  0
   59.7370   34.9980   46.2800 C   0  0  0  0  0  0  0  0  0  0  0  0
   57.8530   34.5260   44.9340 C   0  0  0  0  0  0  0  0  0  0  0  0
   57.8050   29.1560   45.5010 C   0  0  0  0  0  0  0  0  0  0  0  0
   57.9170   27.8770   46.0110 C   0  0  0  0  0  0  0  0  0  0  0  0
   59.1540   27.3270   46.6300 C   0  0  0  0  0  0  0  0  0  0  0  0
   56.4081   25.7988   47.3536 H   0  0  0  0  0  0  0  0  0  0  0  0
   55.4410   25.5388   45.8623 H   0  0  0  0  0  0  0  0  0  0  0  0
   57.2031   25.1899   45.8623 H   0  0  0  0  0  0  0  0  0  0  0  0
   56.6592   32.4265   43.9105 H   0  0  0  0  0  0  0  0  0  0  0  0
   58.8660   32.1630   44.7460 H   0  0  0  0  0  0  0  0  0  0  0  0
   61.3057   30.6059   47.2808 H   0  0  0  0  0  0  0  0  0  0  0  0
   60.7763   31.9215   46.2230 H   0  0  0  0  0  0  0  0  0  0  0  0
   58.3833   30.9304   47.3941 H   0  0  0  0  0  0  0  0  0  0  0  0
   59.6235   30.9337   48.7305 H   0  0  0  0  0  0  0  0  0  0  0  0
   58.8476   33.0069   49.0004 H   0  0  0  0  0  0  0  0  0  0  0  0
   60.0940   33.3137   47.7002 H   0  0  0  0  0  0  0  0  0  0  0  0
   57.3777   32.6464   46.7446 H   0  0  0  0  0  0  0  0  0  0  0  0
   57.5219   34.2060   47.5836 H   0  0  0  0  0  0  0  0  0  0  0  0
   59.7890   35.0543   47.3773 H   0  0  0  0  0  0  0  0  0  0  0  0
   60.7305   34.7501   45.8781 H   0  0  0  0  0  0  0  0  0  0  0  0
   59.4106   35.9685   45.8781 H   0  0  0  0  0  0  0  0  0  0  0  0
   57.0266   35.0160   45.4696 H   0  0  0  0  0  0  0  0  0  0  0  0
   58.3694   35.2640   44.3025 H   0  0  0  0  0  0  0  0  0  0  0  0
   57.4532   33.7189   44.3025 H   0  0  0  0  0  0  0  0  0  0  0  0
   59.0646   27.3667   47.7256 H   0  0  0  0  0  0  0  0  0  0  0  0
   59.2908   26.2832   46.3109 H   0  0  0  0  0  0  0  0  0  0  0  0
   60.0206   27.9246   46.3109 H   0  0  0  0  0  0  0  0  0  0  0  0
  1  2  1  0
  2  3  1  0
  3  4  1  0
  4  5  1  0
  5  6  2  0
  6  7  1  0
  7  8  1  0
  8  9  2  0
  9 10  1  0
 10 11  1  0
 11 12  1  0
 12 13  1  0
 13 14  1  0
 14 15  1  0
 14 16  1  0
  8 17  1  0
 17 18  1  0
 18 19  1  0
 18  2  2  0
 17  4  2  0
  1 20  1  0
  1 21  1  0
  1 22  1  0
  6 23  1  0
  7 24  1  0
 10 25  1  0
 10 26  1  0
 11 27  1  0
 11 28  1  0
 12 29  1  0
 12 30  1  0
 13 31  1  0
 13 32  1  0
 15 33  1  0
 15 34  1  0
 15 35  1  0
 16 36  1  0
 16 37  1  0
 16 38  1  0
 19 39  1  0
 19 40  1  0
 19 41  1  0
M  END
>  <smiles>  (17) 
Cc1oc2nc[nH]c(=NCCCCN(C)C)c2c1C

>  <score_type>  (17) 
oracle

>  <origin>  (17) 
adg

>  <m_score__min__energy>  (17) 
-5.71

>  <m_primary>  (17) 
energy

$$$$
17:0
     RDKit          3D

 32 33  0  0  0  0  0  0  0  0999 V2000
   60.6360   28.9290   44.8970 C   0  0  0  0  0  0  0  0  0  0  0  0
   59.3270   28.1540   44.7840 C   0  0  0  0  0  0  0  0  0  0  0  0
   58.1620   28.9450   45.3820 C   0  0  0  0  0  0  0  0  0  0  0  0
   58.0380   30.2810   44.7130 C   0  0  0  0  0  0  0  0  0  0  0  0
   57.8740   30.4600   43.3800 N   0  0  0  0  0  0  0  0  0  0  0  0
   57.8800   31.7620   43.1160 N   0  0  0  0  0  0  0  0  0  0  0  0
   57.7780   32.3370   41.7780 C   0  0  0  0  0  0  0  0  0  0  0  0
   58.0710   32.4260   44.2730 C   0  0  0  0  0  0  0  0  0  0  0  0
   58.1880   33.7980   44.4880 C   0  0  0  0  0  0  0  0  0  0  0  0
   58.4140   34.2380   45.8040 C   0  0  0  0  0  0  0  0  0  0  0  0
   58.5270   33.3060   46.8750 C   0  0  0  0  0  0  0  0  0  0  0  0
   58.7580   33.7090   48.1990 O   0  0  0  0  0  0  0  0  0  0  0  0
   59.9920   34.2350   48.6750 C   0  0  0  0  0  0  0  0  0  0  0  0
   58.4080   31.9260   46.6140 C   0  0  0  0  0  0  0  0  0  0  0  0
   58.1760   31.5260   45.2990 C   0  0  0  0  0  0  0  0  0  0  0  0
   60.8845   29.0761   45.9584 H   0  0  0  0  0  0  0  0  0  0  0  0
   61.4413   28.3620   44.4070 H   0  0  0  0  0  0  0  0  0  0  0  0
   60.5261   29.9077   44.4070 H   0  0  0  0  0  0  0  0  0  0  0  0
   59.1183   27.9553   43.7224 H   0  0  0  0  0  0  0  0  0  0  0  0
   59.4309   27.2118   45.3420 H   0  0  0  0  0  0  0  0  0  0  0  0
   57.2291   28.3801   45.2386 H   0  0  0  0  0  0  0  0  0  0  0  0
   58.3497   29.0997   46.4548 H   0  0  0  0  0  0  0  0  0  0  0  0
   57.7790   29.7060   42.6640 H   0  0  0  0  0  0  0  0  0  0  0  0
   57.5864   33.4173   41.8568 H   0  0  0  0  0  0  0  0  0  0  0  0
   58.7197   32.1703   41.2345 H   0  0  0  0  0  0  0  0  0  0  0  0
   56.9511   31.8566   41.2345 H   0  0  0  0  0  0  0  0  0  0  0  0
   58.1063   34.5127   43.6559 H   0  0  0  0  0  0  0  0  0  0  0  0
   58.5046   35.3149   46.0089 H   0  0  0  0  0  0  0  0  0  0  0  0
   59.9908   34.2345   49.7750 H   0  0  0  0  0  0  0  0  0  0  0  0
   60.8216   33.6123   48.3089 H   0  0  0  0  0  0  0  0  0  0  0  0
   60.1172   35.2647   48.3089 H   0  0  0  0  0  0  0  0  0  0  0  0
   58.4956   31.1868   47.4238 H   0  0  0  0  0  0  0  0  0  0  0  0
  1  2  1  0
  2  3  1  0
  3  4  1  0
  4  5  2  0
  5  6  1  0
  6  7  1  0
  6  8  1  0
  8  9  2  0
  9 10  1  0
 10 11  2  0
 11 12  1  0
 12 13  1  0
 11 14  1  0
 14 15  2  0
 15  4  1  0
 15  8  1  0
  1 16  1  0
  1 17  1  0
  1 18  1  0
  2 19  1  0
  2 20  1  0
  3 21  1  0
  3 22  1  0
  5 23  1  0
  7 24  1  0
  7 25  1  0
  7 26  1  0
  9 27  1  0
 10 28  1  0
 13 29  1  0
 13 30  1  0
 13 31  1  0
 14 32  1  0
M  CHG  1   5   1
M  END
>  <UniqueID>  (18) 
17

>  <SMILES>  (18) 
CCCc1[nH+]n(C)c2ccc(OC)cc12

>  <Energy>  (18) 
63.474840391927685

>  <Genealogy>  (18) 
CCCc1[nH+]n(C)c2ccc(OC)cc12 (protonated)
CCCc1[nH+]n(C)c2ccc(OC)cc12 (3D coordinates assigned)
CCCc1[nH+]n(C)c2ccc(OC)cc12 (optimized conformer: 63.474840391927685 kcal/mol)

>  <smiles>  (18) 
CCCc1nn(C)c2ccc(OC)cc12

>  <score_type>  (18) 
oracle

>  <origin>  (18) 
adg

>  <m_score__min__energy>  (18) 
-4.2999999999999998

>  <m_primary>  (18) 
energy

$$$$
18:0
     RDKit          3D

 35 36  0  0  0  0  0  0  0  0999 V2000
   56.2660   29.9420   42.8410 C   0  0  0  0  0  0  0  0  0  0  0  0
   55.4560   30.1160   44.1170 C   0  0  0  0  0  0  0  0  0  0  0  0
   55.6120   28.9380   44.9620 N   0  0  0  0  0  0  0  0  0  0  0  0
   56.8520   28.2570   45.1890 C   0  0  0  0  0  0  0  0  0  0  0  0
   57.8860   28.6710   44.5990 O   0  0  0  0  0  0  0  0  0  0  0  0
   56.9420   27.0710   46.0680 C   0  0  0  0  0  0  0  0  0  0  0  0
   56.1290   26.0110   45.8060 N   0  0  0  0  0  0  0  0  0  0  0  0
   56.2070   24.8540   46.5090 C   0  0  0  0  0  0  0  0  0  0  0  0
   57.1560   24.7310   47.5180 C   0  0  0  0  0  0  0  0  0  0  0  0
   57.9700   25.7810   47.7970 N   0  0  0  0  0  0  0  0  0  0  0  0
   57.8950   26.9560   47.1130 C   0  0  0  0  0  0  0  0  0  0  0  0
   58.7720   28.0700   47.5420 C   0  0  0  0  0  0  0  0  0  0  0  0
   59.7830   27.8420   48.2610 O   0  0  0  0  0  0  0  0  0  0  0  0
   58.5040   29.4090   47.0970 N   0  0  0  0  0  0  0  0  0  0  0  0
   59.3920   30.5280   47.4020 C   0  0  0  0  0  0  0  0  0  0  0  0
   58.9130   31.7730   46.7150 C   0  0  0  0  0  0  0  0  0  0  0  0
   59.5920   32.9870   46.8900 C   0  0  0  0  0  0  0  0  0  0  0  0
   59.1110   34.1370   46.2590 C   0  0  0  0  0  0  0  0  0  0  0  0
   57.9640   34.0670   45.4670 C   0  0  0  0  0  0  0  0  0  0  0  0
   57.3110   32.8400   45.3200 C   0  0  0  0  0  0  0  0  0  0  0  0
   57.7930   31.7320   45.9420 N   0  0  0  0  0  0  0  0  0  0  0  0
   57.3116   29.7174   43.0982 H   0  0  0  0  0  0  0  0  0  0  0  0
   55.8474   29.1133   42.2511 H   0  0  0  0  0  0  0  0  0  0  0  0
   56.2246   30.8695   42.2511 H   0  0  0  0  0  0  0  0  0  0  0  0
   55.8130   31.0044   44.6585 H   0  0  0  0  0  0  0  0  0  0  0  0
   54.3939   30.2423   43.8602 H   0  0  0  0  0  0  0  0  0  0  0  0
   55.5258   24.0204   46.2832 H   0  0  0  0  0  0  0  0  0  0  0  0
   57.2462   23.7923   48.0844 H   0  0  0  0  0  0  0  0  0  0  0  0
   57.6320   29.6050   46.5540 H   0  0  0  0  0  0  0  0  0  0  0  0
   59.4052   30.6953   48.4891 H   0  0  0  0  0  0  0  0  0  0  0  0
   60.4050   30.2892   47.0459 H   0  0  0  0  0  0  0  0  0  0  0  0
   60.4942   33.0336   47.5176 H   0  0  0  0  0  0  0  0  0  0  0  0
   59.6353   35.0956   46.3862 H   0  0  0  0  0  0  0  0  0  0  0  0
   57.5786   34.9665   44.9646 H   0  0  0  0  0  0  0  0  0  0  0  0
   56.4052   32.7710   44.6997 H   0  0  0  0  0  0  0  0  0  0  0  0
  1  2  1  0
  2  3  1  0
  3  4  1  0
  4  5  2  0
  4  6  1  0
  6  7  2  0
  7  8  1  0
  8  9  2  0
  9 10  1  0
 10 11  2  0
 11 12  1  0
 12 13  2  0
 12 14  1  0
 14 15  1  0
 15 16  1  0
 16 17  2  0
 17 18  1  0
 18 19  2  0
 19 20  1  0
 20 21  2  0
 11  6  1  0
 21 16  1  0
  1 22  1  0
  1 23  1  0
  1 24  1  0
  2 25  1  0
  2 26  1  0
  8 27  1  0
  9 28  1  0
 14 29  1  0
 15 30  1  0
 15 31  1  0
 17 32  1  0
 18 33  1  0
 19 34  1  0
 20 35  1  0
M  CHG  1   3  -1
M  END
>  <UniqueID>  (19) 
18

>  <SMILES>  (19) 
CC[N-]C(=O)c1nccnc1C(=O)NCc1ccccn1

>  <Energy>  (19) 
38.794128728003315

>  <Genealogy>  (19) 
CC[N-]C(=O)c1nccnc1C(=O)NCc1ccccn1 (protonated)
CC[N-]C(=O)c1nccnc1C(=O)NCc1ccccn1 (3D coordinates assigned)
CC[N-]C(=O)c1nccnc1C(=O)NCc1ccccn1 (optimized conformer: 38.794128728003315 kcal/mol)

>  <smiles>  (19) 
CCNC(=O)c1nccnc1C(=O)NCc1ccccn1

>  <score_type>  (19) 
oracle

>  <origin>  (19) 
adg

>  <m_score__min__energy>  (19) 
-7.7699999999999996

>  <m_primary>  (19) 
energy

$$$$
19:0
     RDKit          3D

 39 41  0  0  0  0  0  0  0  0999 V2000
   55.6340   29.8840   43.7150 C   0  0  0  0  0  0  0  0  0  0  0  0
   56.9320   29.8610   44.4680 C   0  0  0  0  0  0  0  0  0  0  0  0
   57.3020   28.7790   45.2900 C   0  0  0  0  0  0  0  0  0  0  0  0
   58.5000   28.9700   45.9640 C   0  0  0  0  0  0  0  0  0  0  0  0
   59.1040   30.4810   45.5400 S   0  0  0  0  0  0  0  0  0  0  0  0
   57.8740   30.9000   44.4650 C   0  0  0  0  0  0  0  0  0  0  0  0
   57.7860   32.2220   43.7380 C   0  0  0  0  0  0  0  0  0  0  0  0
   57.6090   33.3900   44.6310 N   0  0  0  0  0  0  0  0  0  0  0  0
   58.6620   34.4230   44.5600 C   0  0  0  0  0  0  0  0  0  0  0  0
   59.8080   34.1970   45.5760 C   0  0  0  0  0  0  0  0  0  0  0  0
   59.3750   33.4930   46.8110 N   0  0  0  0  0  0  0  0  0  0  0  0
   60.1850   33.9120   47.9390 C   0  0  0  0  0  0  0  0  0  0  0  0
   59.6560   34.5800   48.8720 O   0  0  0  0  0  0  0  0  0  0  0  0
   61.6370   33.6220   48.0210 C   0  0  0  0  0  0  0  0  0  0  0  0
   62.4210   32.8870   47.1290 C   0  0  0  0  0  0  0  0  0  0  0  0
   63.7640   32.7880   47.5170 C   0  0  0  0  0  0  0  0  0  0  0  0
   64.0520   33.4410   48.7070 C   0  0  0  0  0  0  0  0  0  0  0  0
   62.6310   34.1330   49.2810 S   0  0  0  0  0  0  0  0  0  0  0  0
   57.9430   33.7030   47.1020 C   0  0  0  0  0  0  0  0  0  0  0  0
   57.0770   33.1000   45.9820 C   0  0  0  0  0  0  0  0  0  0  0  0
   54.7966   29.8988   44.4281 H   0  0  0  0  0  0  0  0  0  0  0  0
   55.5929   30.7830   43.0825 H   0  0  0  0  0  0  0  0  0  0  0  0
   55.5611   28.9870   43.0825 H   0  0  0  0  0  0  0  0  0  0  0  0
   56.6967   27.8658   45.3888 H   0  0  0  0  0  0  0  0  0  0  0  0
   58.9724   28.2568   46.6555 H   0  0  0  0  0  0  0  0  0  0  0  0
   58.7134   32.3632   43.1635 H   0  0  0  0  0  0  0  0  0  0  0  0
   56.8936   32.1737   43.0967 H   0  0  0  0  0  0  0  0  0  0  0  0
   59.0881   34.4187   43.5459 H   0  0  0  0  0  0  0  0  0  0  0  0
   58.1918   35.3863   44.8068 H   0  0  0  0  0  0  0  0  0  0  0  0
   60.5912   33.5970   45.0896 H   0  0  0  0  0  0  0  0  0  0  0  0
   60.1714   35.1898   45.8800 H   0  0  0  0  0  0  0  0  0  0  0  0
   59.5100   32.4700   46.6560 H   0  0  0  0  0  0  0  0  0  0  0  0
   62.0230   32.4301   46.2109 H   0  0  0  0  0  0  0  0  0  0  0  0
   64.5198   32.2431   46.9323 H   0  0  0  0  0  0  0  0  0  0  0  0
   65.0384   33.4964   49.1908 H   0  0  0  0  0  0  0  0  0  0  0  0
   57.6916   33.2175   48.0565 H   0  0  0  0  0  0  0  0  0  0  0  0
   57.7452   34.7832   47.1654 H   0  0  0  0  0  0  0  0  0  0  0  0
   57.0356   32.0092   46.1175 H   0  0  0  0  0  0  0  0  0  0  0  0
   56.0784   33.5561   46.0514 H   0  0  0  0  0  0  0  0  0  0  0  0
  1  2  1  0
  2  3  1  0
  3  4  2  0
  4  5  1  0
  5  6  1  0
  6  7  1  0
  7  8  1  0
  8  9  1  0
  9 10  1  0
 10 11  1  0
 11 12  1  0
 12 13  2  0
 12 14  1  0
 14 15  2  0
 15 16  1  0
 16 17  2  0
 17 18  1  0
 11 19  1  0
 19 20  1  0
  6  2  2  0
 20  8  1  0
 18 14  1  0
  1 21  1  0
  1 22  1  0
  1 23  1  0
  3 24  1  0
  4 25  1  0
  7 26  1  0
  7 27  1  0
  9 28  1  0
  9 29  1  0
 10 30  1  0
 10 31  1  0
 11 32  1  0
 15 33  1  0
 16 34  1  0
 17 35  1  0
 19 36  1  0
 19 37  1  0
 20 38  1  0
 20 39  1  0
M  CHG  1  11   1
M  END
>  <UniqueID>  (20) 
19

>  <SMILES>  (20) 
Cc1ccsc1CN1CC[NH+](C(=O)c2cccs2)CC1

>  <Energy>  (20) 
108.34520666281102

>  <Genealogy>  (20) 
Cc1ccsc1CN1CC[NH+](C(=O)c2cccs2)CC1 (protonated)
Cc1ccsc1CN1CC[NH+](C(=O)c2cccs2)CC1 (3D coordinates assigned)
Cc1ccsc1CN1CC[NH+](C(=O)c2cccs2)CC1 (nonaromatic ring conformer: 108.34520666281102 kcal/mol)

>  <smiles>  (20) 
Cc1ccsc1CN1CCN(C(=O)c2cccs2)CC1

>  <score_type>  (20) 
oracle

>  <origin>  (20) 
adg

>  <m_score__min__energy>  (20) 
-5.7000000000000002

>  <m_primary>  (20) 
energy

$$$$
20:0
     RDKit          3D

 43 46  0  0  0  0  0  0  0  0999 V2000
   56.6250   30.5030   42.6390 C   0  0  0  0  0  0  0  0  0  0  0  0
   56.3520   30.2340   44.0860 C   0  0  0  0  0  0  0  0  0  0  0  0
   55.1550   30.2070   44.4800 O   0  0  0  0  0  0  0  0  0  0  0  0
   57.4070   29.9610   45.0230 N   0  0  0  0  0  0  0  0  0  0  0  0
   58.0650   30.9310   45.6490 N   0  0  0  0  0  0  0  0  0  0  0  0
   58.9740   30.3630   46.4730 C   0  0  0  0  0  0  0  0  0  0  0  0
   59.8860   31.1180   47.2910 N   0  0  0  0  0  0  0  0  0  0  0  0
   61.1130   30.5040   47.8120 C   0  0  0  0  0  0  0  0  0  0  0  0
   62.3280   31.3740   47.4830 C   0  0  0  0  0  0  0  0  0  0  0  0
   62.1530   33.1430   47.9510 S   0  0  0  0  0  0  0  0  0  0  0  0
   60.4850   33.0880   48.6940 C   0  0  0  0  0  0  0  0  0  0  0  0
   59.4730   32.4550   47.7380 C   0  0  0  0  0  0  0  0  0  0  0  0
   58.9080   28.9870   46.3380 C   0  0  0  0  0  0  0  0  0  0  0  0
   59.6760   27.9460   46.8550 C   0  0  0  0  0  0  0  0  0  0  0  0
   59.3850   26.6390   46.4300 C   0  0  0  0  0  0  0  0  0  0  0  0
   58.3630   26.3950   45.4760 C   0  0  0  0  0  0  0  0  0  0  0  0
   58.0800   25.0110   45.0160 C   0  0  0  0  0  0  0  0  0  0  0  0
   57.1660   24.7740   43.9710 C   0  0  0  0  0  0  0  0  0  0  0  0
   56.9030   23.4700   43.5420 C   0  0  0  0  0  0  0  0  0  0  0  0
   57.5460   22.3890   44.1480 C   0  0  0  0  0  0  0  0  0  0  0  0
   57.2900   21.1250   43.7300 F   0  0  0  0  0  0  0  0  0  0  0  0
   58.4550   22.6100   45.1860 C   0  0  0  0  0  0  0  0  0  0  0  0
   58.7220   23.9130   45.6190 C   0  0  0  0  0  0  0  0  0  0  0  0
   57.6270   27.4830   44.9500 C   0  0  0  0  0  0  0  0  0  0  0  0
   57.9130   28.7700   45.4200 C   0  0  0  0  0  0  0  0  0  0  0  0
   57.4060   31.2725   42.5501 H   0  0  0  0  0  0  0  0  0  0  0  0
   56.9652   29.5773   42.1518 H   0  0  0  0  0  0  0  0  0  0  0  0
   55.7044   30.8568   42.1518 H   0  0  0  0  0  0  0  0  0  0  0  0
   61.0291   30.3970   48.9036 H   0  0  0  0  0  0  0  0  0  0  0  0
   61.2441   29.5174   47.3436 H   0  0  0  0  0  0  0  0  0  0  0  0
   63.1984   30.9629   48.0154 H   0  0  0  0  0  0  0  0  0  0  0  0
   62.4404   31.3510   46.3890 H   0  0  0  0  0  0  0  0  0  0  0  0
   60.5240   32.4945   49.6193 H   0  0  0  0  0  0  0  0  0  0  0  0
   60.1649   34.1187   48.9068 H   0  0  0  0  0  0  0  0  0  0  0  0
   58.5045   32.3719   48.2530 H   0  0  0  0  0  0  0  0  0  0  0  0
   59.4026   33.0992   46.8491 H   0  0  0  0  0  0  0  0  0  0  0  0
   60.4853   28.1414   47.5739 H   0  0  0  0  0  0  0  0  0  0  0  0
   59.9565   25.7941   46.8418 H   0  0  0  0  0  0  0  0  0  0  0  0
   56.6556   25.6209   43.4891 H   0  0  0  0  0  0  0  0  0  0  0  0
   56.1876   23.2950   42.7249 H   0  0  0  0  0  0  0  0  0  0  0  0
   58.9613   21.7581   45.6633 H   0  0  0  0  0  0  0  0  0  0  0  0
   59.4387   24.0808   46.4364 H   0  0  0  0  0  0  0  0  0  0  0  0
   56.8486   27.3212   44.1898 H   0  0  0  0  0  0  0  0  0  0  0  0
  1  2  1  0
  2  3  2  0
  2  4  1  0
  4  5  1  0
  5  6  2  0
  6  7  1  0
  7  8  1  0
  8  9  1  0
  9 10  1  0
 10 11  1  0
 11 12  1  0
  6 13  1  0
 13 14  2  0
 14 15  1  0
 15 16  2  0
 16 17  1  0
 17 18  2  0
 18 19  1  0
 19 20  2  0
 20 21  1  0
 20 22  1  0
 22 23  2  0
 16 24  1  0
 24 25  2  0
 25  4  1  0
 12  7  1  0
 25 13  1  0
 23 17  1  0
  1 26  1  0
  1 27  1  0
  1 28  1  0
  8 29  1  0
  8 30  1  0
  9 31  1  0
  9 32  1  0
 11 33  1  0
 11 34  1  0
 12 35  1  0
 12 36  1  0
 14 37  1  0
 15 38  1  0
 18 39  1  0
 19 40  1  0
 22 41  1  0
 23 42  1  0
 24 43  1  0
M  END
>  <UniqueID>  (21) 
20

>  <SMILES>  (21) 
CC(=O)n1nc(N2CCSCC2)c2ccc(-c3ccc(F)cc3)cc21

>  <Energy>  (21) 
97.73953198522123

>  <Genealogy>  (21) 
CC(=O)n1nc(N2CCSCC2)c2ccc(-c3ccc(F)cc3)cc21 (3D coordinates assigned)
CC(=O)n1nc(N2CCSCC2)c2ccc(-c3ccc(F)cc3)cc21 (nonaromatic ring conformer: 97.73953198522123 kcal/mol)

>  <smiles>  (21) 
CC(=O)n1nc(N2CCSCC2)c2ccc(-c3ccc(F)cc3)cc21

>  <score_type>  (21) 
oracle

>  <origin>  (21) 
adg

>  <m_score__min__energy>  (21) 
-7.79

>  <m_primary>  (21) 
energy

$$$$
21:0
     RDKit          3D

 37 39  0  0  0  0  0  0  0  0999 V2000
   56.6710   20.7170   42.9960 C   0  0  0  0  0  0  0  0  0  0  0  0
   56.0200   21.8840   43.4880 O   0  0  0  0  0  0  0  0  0  0  0  0
   56.6570   22.8950   44.2220 C   0  0  0  0  0  0  0  0  0  0  0  0
   58.0280   22.7760   44.4770 C   0  0  0  0  0  0  0  0  0  0  0  0
   58.6840   23.7350   45.1830 N   0  0  0  0  0  0  0  0  0  0  0  0
   58.0450   24.8370   45.6570 C   0  0  0  0  0  0  0  0  0  0  0  0
   56.6720   24.9980   45.4390 C   0  0  0  0  0  0  0  0  0  0  0  0
   55.9730   24.0210   44.7160 C   0  0  0  0  0  0  0  0  0  0  0  0
   56.0120   26.1650   46.0400 C   0  0  0  0  0  0  0  0  0  0  0  0
   54.7620   26.3100   45.9890 O   0  0  0  0  0  0  0  0  0  0  0  0
   56.8120   27.1270   46.7280 N   0  0  0  0  0  0  0  0  0  0  0  0
   58.2700   27.1330   46.5860 C   0  0  2  0  0  0  0  0  0  0  0  0
   58.6860   28.0150   45.4010 C   0  0  0  0  0  0  0  0  0  0  0  0
   59.2200   29.3950   45.8120 C   0  0  0  0  0  0  0  0  0  0  0  0
   58.1780   30.3730   45.8220 O   0  0  0  0  0  0  0  0  0  0  0  0
   58.3360   31.7690   45.7660 C   0  0  0  0  0  0  0  0  0  0  0  0
   59.3410   32.4620   46.4720 C   0  0  0  0  0  0  0  0  0  0  0  0
   59.4400   33.8540   46.3680 C   0  0  0  0  0  0  0  0  0  0  0  0
   58.5410   34.5660   45.5710 C   0  0  0  0  0  0  0  0  0  0  0  0
   57.5370   33.8860   44.8770 C   0  0  0  0  0  0  0  0  0  0  0  0
   57.4350   32.4960   44.9770 C   0  0  0  0  0  0  0  0  0  0  0  0
   58.7610   25.8020   46.3780 O   0  0  0  0  0  0  0  0  0  0  0  0
   57.0132   20.1036   43.8425 H   0  0  0  0  0  0  0  0  0  0  0  0
   55.9670   20.1354   42.3827 H   0  0  0  0  0  0  0  0  0  0  0  0
   57.5357   21.0105   42.3827 H   0  0  0  0  0  0  0  0  0  0  0  0
   58.5788   21.9002   44.1035 H   0  0  0  0  0  0  0  0  0  0  0  0
   54.8938   24.1344   44.5356 H   0  0  0  0  0  0  0  0  0  0  0  0
   58.7017   27.5374   47.5134 H   0  0  0  0  0  0  0  0  0  0  0  0
   59.4737   27.4917   44.8391 H   0  0  0  0  0  0  0  0  0  0  0  0
   57.7824   28.1880   44.7981 H   0  0  0  0  0  0  0  0  0  0  0  0
   59.6555   29.3251   46.8197 H   0  0  0  0  0  0  0  0  0  0  0  0
   59.9803   29.7052   45.0801 H   0  0  0  0  0  0  0  0  0  0  0  0
   60.0485   31.9072   47.1057 H   0  0  0  0  0  0  0  0  0  0  0  0
   60.2291   34.3895   46.9162 H   0  0  0  0  0  0  0  0  0  0  0  0
   58.6232   35.6599   45.4898 H   0  0  0  0  0  0  0  0  0  0  0  0
   56.8261   34.4455   44.2512 H   0  0  0  0  0  0  0  0  0  0  0  0
   56.6397   31.9675   44.4310 H   0  0  0  0  0  0  0  0  0  0  0  0
  1  2  1  0
  2  3  1  0
  3  4  2  0
  4  5  1  0
  5  6  2  0
  6  7  1  0
  7  8  2  0
  7  9  1  0
  9 10  2  0
  9 11  1  0
 11 12  1  0
 12 13  1  0
 13 14  1  0
 14 15  1  0
 15 16  1  0
 16 17  2  0
 17 18  1  0
 18 19  2  0
 19 20  1  0
 20 21  2  0
 12 22  1  0
  8  3  1  0
 21 16  1  0
 22  6  1  0
  1 23  1  0
  1 24  1  0
  1 25  1  0
  4 26  1  0
  8 27  1  0
 12 28  1  1
 13 29  1  0
 13 30  1  0
 14 31  1  0
 14 32  1  0
 17 33  1  0
 18 34  1  0
 19 35  1  0
 20 36  1  0
 21 37  1  0
M  CHG  1  11  -1
M  END
>  <UniqueID>  (22) 
21

>  <SMILES>  (22) 
COc1cnc2c(c1)C(=O)[N-][C@H](CCOc1ccccc1)O2

>  <Energy>  (22) 
41.24522779293404

>  <Genealogy>  (22) 
COc1cnc2c(c1)C(=O)[N-]C(CCOc1ccccc1)O2 (protonated)
COc1cnc2c(c1)C(=O)[N-][C@H](CCOc1ccccc1)O2 (chirality)
COc1cnc2c(c1)C(=O)[N-][C@H](CCOc1ccccc1)O2 (3D coordinates assigned)
COc1cnc2c(c1)C(=O)[N-][C@H](CCOc1ccccc1)O2 (nonaromatic ring conformer: 41.24522779293404 kcal/mol)

>  <smiles>  (22) 
COc1cnc2c(c1)C(=O)NC(CCOc1ccccc1)O2

>  <score_type>  (22) 
oracle

>  <origin>  (22) 
adg

>  <m_score__min__energy>  (22) 
-9.2799999999999994

>  <m_primary>  (22) 
energy

$$$$
22:0
     RDKit          3D

 43 45  0  0  0  0  0  0  0  0999 V2000
   60.6350   33.8300   51.3250 C   0  0  0  0  0  0  0  0  0  0  0  0
   61.3240   33.7080   50.0340 N   0  0  0  0  0  0  0  0  0  0  0  0
   62.4690   34.5820   49.7560 C   0  0  0  0  0  0  0  0  0  0  0  0
   60.8860   32.7340   49.0520 C   0  0  0  0  0  0  0  0  0  0  0  0
   59.8020   31.8730   49.3220 C   0  0  0  0  0  0  0  0  0  0  0  0
   59.3720   30.9450   48.3720 C   0  0  0  0  0  0  0  0  0  0  0  0
   60.0000   30.8680   47.1220 C   0  0  0  0  0  0  0  0  0  0  0  0
   59.5490   29.8770   46.1210 C   0  0  0  0  0  0  0  0  0  0  0  0
   60.2620   28.6700   46.0550 C   0  0  0  0  0  0  0  0  0  0  0  0
   59.8150   27.6170   45.2620 C   0  0  0  0  0  0  0  0  0  0  0  0
   58.6370   27.7420   44.5340 C   0  0  0  0  0  0  0  0  0  0  0  0
   57.9090   28.9400   44.5600 C   0  0  0  0  0  0  0  0  0  0  0  0
   56.7500   29.0360   43.8510 N   0  0  0  0  0  0  0  0  0  0  0  0
   56.0330   30.1850   43.8370 C   0  0  0  0  0  0  0  0  0  0  0  0
   56.4870   31.2780   44.4960 N   0  0  0  0  0  0  0  0  0  0  0  0
   57.6380   31.2560   45.2170 C   0  0  0  0  0  0  0  0  0  0  0  0
   58.1140   32.4950   45.7620 N   0  0  0  0  0  0  0  0  0  0  0  0
   58.8650   33.3940   44.8860 C   0  0  0  0  0  0  0  0  0  0  0  0
   57.3940   33.0840   46.8910 C   0  0  0  0  0  0  0  0  0  0  0  0
   58.3780   30.0450   45.3190 C   0  0  0  0  0  0  0  0  0  0  0  0
   61.1000   31.6930   46.8550 C   0  0  0  0  0  0  0  0  0  0  0  0
   61.5330   32.6220   47.8030 C   0  0  0  0  0  0  0  0  0  0  0  0
   61.3608   33.7015   52.1415 H   0  0  0  0  0  0  0  0  0  0  0  0
   60.1706   34.8243   51.4003 H   0  0  0  0  0  0  0  0  0  0  0  0
   59.8574   33.0556   51.4003 H   0  0  0  0  0  0  0  0  0  0  0  0
   62.9114   34.9197   50.7048 H   0  0  0  0  0  0  0  0  0  0  0  0
   63.2220   34.0269   49.1774 H   0  0  0  0  0  0  0  0  0  0  0  0
   62.1321   35.4548   49.1774 H   0  0  0  0  0  0  0  0  0  0  0  0
   59.2891   31.9335   50.2932 H   0  0  0  0  0  0  0  0  0  0  0  0
   58.5353   30.2703   48.6062 H   0  0  0  0  0  0  0  0  0  0  0  0
   61.1874   28.5544   46.6383 H   0  0  0  0  0  0  0  0  0  0  0  0
   60.3951   26.6838   45.2111 H   0  0  0  0  0  0  0  0  0  0  0  0
   58.2737   26.8951   43.9334 H   0  0  0  0  0  0  0  0  0  0  0  0
   56.3910   28.2190   43.3060 H   0  0  0  0  0  0  0  0  0  0  0  0
   55.0801   30.2307   43.2894 H   0  0  0  0  0  0  0  0  0  0  0  0
   59.4514   34.0960   45.4970 H   0  0  0  0  0  0  0  0  0  0  0  0
   59.5434   32.8052   44.2511 H   0  0  0  0  0  0  0  0  0  0  0  0
   58.1649   33.9568   44.2511 H   0  0  0  0  0  0  0  0  0  0  0  0
   57.8330   32.7248   47.8335 H   0  0  0  0  0  0  0  0  0  0  0  0
   57.4725   34.1802   46.8442 H   0  0  0  0  0  0  0  0  0  0  0  0
   56.3351   32.7899   46.8442 H   0  0  0  0  0  0  0  0  0  0  0  0
   61.6259   31.6084   45.8926 H   0  0  0  0  0  0  0  0  0  0  0  0
   62.3885   33.2743   47.5736 H   0  0  0  0  0  0  0  0  0  0  0  0
  1  2  1  0
  2  3  1  0
  2  4  1  0
  4  5  2  0
  5  6  1  0
  6  7  2  0
  7  8  1  0
  8  9  2  0
  9 10  1  0
 10 11  2  0
 11 12  1  0
 12 13  2  0
 13 14  1  0
 14 15  2  0
 15 16  1  0
 16 17  1  0
 17 18  1  0
 17 19  1  0
 16 20  2  0
  7 21  1  0
 21 22  2  0
 22  4  1  0
 20  8  1  0
 20 12  1  0
  1 23  1  0
  1 24  1  0
  1 25  1  0
  3 26  1  0
  3 27  1  0
  3 28  1  0
  5 29  1  0
  6 30  1  0
  9 31  1  0
 10 32  1  0
 11 33  1  0
 13 34  1  0
 14 35  1  0
 18 36  1  0
 18 37  1  0
 18 38  1  0
 19 39  1  0
 19 40  1  0
 19 41  1  0
 21 42  1  0
 22 43  1  0
M  CHG  1  13   1
M  END
>  <UniqueID>  (23) 
22

>  <SMILES>  (23) 
CN(C)c1ccc(-c2cccc3[nH+]cnc(N(C)C)c23)cc1

>  <Energy>  (23) 
64.38418007465565

>  <Genealogy>  (23) 
CN(C)c1ccc(-c2cccc3[nH+]cnc(N(C)C)c23)cc1 (protonated)
CN(C)c1ccc(-c2cccc3[nH+]cnc(N(C)C)c23)cc1 (3D coordinates assigned)
CN(C)c1ccc(-c2cccc3[nH+]cnc(N(C)C)c23)cc1 (optimized conformer: 64.38418007465565 kcal/mol)

>  <smiles>  (23) 
CN(C)c1ccc(-c2cccc3ncnc(N(C)C)c23)cc1

>  <score_type>  (23) 
oracle

>  <origin>  (23) 
adg

>  <m_score__min__energy>  (23) 
-5.1200000000000001

>  <m_primary>  (23) 
energy

$$$$
23:0
     RDKit          3D

 26 27  0  0  0  0  0  0  0  0999 V2000
   55.2200   29.1030   44.5440 O   0  0  0  0  0  0  0  0  0  0  0  0
   56.2920   29.6820   44.8630 C   0  0  0  0  0  0  0  0  0  0  0  0
   56.3370   31.1130   44.8290 N   0  0  0  0  0  0  0  0  0  0  0  0
   57.6900   32.0540   44.1830 S   0  0  0  0  0  0  0  0  0  0  0  0
   58.2940   32.4590   45.8260 C   0  0  0  0  0  0  0  0  0  0  0  0
   58.2110   31.4920   46.8360 C   0  0  0  0  0  0  0  0  0  0  0  0
   58.6790   31.7760   48.1220 C   0  0  0  0  0  0  0  0  0  0  0  0
   59.2280   33.0290   48.4060 C   0  0  0  0  0  0  0  0  0  0  0  0
   59.3090   33.9990   47.4040 C   0  0  0  0  0  0  0  0  0  0  0  0
   58.8430   33.7240   46.1130 C   0  0  0  0  0  0  0  0  0  0  0  0
   58.9650   34.9730   44.8810 Cl  0  0  0  0  0  0  0  0  0  0  0  0
   57.4680   28.8640   45.2260 C   0  0  0  0  0  0  0  0  0  0  0  0
   57.3880   27.9650   46.3020 C   0  0  0  0  0  0  0  0  0  0  0  0
   58.4940   27.1850   46.6540 C   0  0  0  0  0  0  0  0  0  0  0  0
   59.6930   27.3080   45.9450 C   0  0  0  0  0  0  0  0  0  0  0  0
   61.0790   26.3300   46.3870 Cl  0  0  0  0  0  0  0  0  0  0  0  0
   59.7870   28.2170   44.8870 C   0  0  0  0  0  0  0  0  0  0  0  0
   58.6810   28.9970   44.5310 C   0  0  0  0  0  0  0  0  0  0  0  0
   57.7760   30.5058   46.6163 H   0  0  0  0  0  0  0  0  0  0  0  0
   58.6150   31.0124   48.9112 H   0  0  0  0  0  0  0  0  0  0  0  0
   59.5963   33.2516   49.4183 H   0  0  0  0  0  0  0  0  0  0  0  0
   59.7415   34.9847   47.6308 H   0  0  0  0  0  0  0  0  0  0  0  0
   56.4508   27.8740   46.8706 H   0  0  0  0  0  0  0  0  0  0  0  0
   58.4207   26.4737   47.4898 H   0  0  0  0  0  0  0  0  0  0  0  0
   60.7320   28.3193   44.3334 H   0  0  0  0  0  0  0  0  0  0  0  0
   58.7621   29.7172   43.7035 H   0  0  0  0  0  0  0  0  0  0  0  0
  1  2  2  0
  2  3  1  0
  3  4  1  0
  4  5  1  0
  5  6  2  0
  6  7  1  0
  7  8  2  0
  8  9  1  0
  9 10  2  0
 10 11  1  0
  2 12  1  0
 12 13  2  0
 13 14  1  0
 14 15  2  0
 15 16  1  0
 15 17  1  0
 17 18  2  0
 10  5  1  0
 18 12  1  0
  6 19  1  0
  7 20  1  0
  8 21  1  0
  9 22  1  0
 13 23  1  0
 14 24  1  0
 17 25  1  0
 18 26  1  0
M  CHG  1   3  -1
M  END
>  <UniqueID>  (24) 
23

>  <SMILES>  (24) 
O=C([N-]Sc1ccccc1Cl)c1ccc(Cl)cc1

>  <Energy>  (24) 
28.118713824354703

>  <Genealogy>  (24) 
O=C([N-]Sc1ccccc1Cl)c1ccc(Cl)cc1 (protonated)
O=C([N-]Sc1ccccc1Cl)c1ccc(Cl)cc1 (3D coordinates assigned)
O=C([N-]Sc1ccccc1Cl)c1ccc(Cl)cc1 (optimized conformer: 28.118713824354703 kcal/mol)

>  <smiles>  (24) 
O=C(NSc1ccccc1Cl)c1ccc(Cl)cc1

>  <score_type>  (24) 
oracle

>  <origin>  (24) 
adg

>  <m_score__min__energy>  (24) 
-8.7100000000000009

>  <m_primary>  (24) 
energy

$$$$
24:0
     RDKit          3D

 50 52  0  0  0  0  0  0  0  0999 V2000
   57.7850   32.3450   41.5470 C   0  0  0  0  0  0  0  0  0  0  0  0
   57.7680   31.9110   42.9840 C   0  0  0  0  0  0  0  0  0  0  0  0
   57.7950   32.8670   44.0030 C   0  0  0  0  0  0  0  0  0  0  0  0
   57.8050   32.4340   45.3350 C   0  0  0  0  0  0  0  0  0  0  0  0
   57.8330   33.4090   46.4890 C   0  0  0  0  0  0  0  0  0  0  0  0
   58.8270   34.5480   46.2310 C   0  0  0  0  0  0  0  0  0  0  0  0
   58.1390   32.6950   47.8110 C   0  0  0  0  0  0  0  0  0  0  0  0
   57.8140   31.1010   45.5980 N   0  0  0  0  0  0  0  0  0  0  0  0
   57.8090   30.1700   44.6040 C   0  0  0  0  0  0  0  0  0  0  0  0
   57.8400   28.7650   44.9370 N   0  0  0  0  0  0  0  0  0  0  0  0
   57.7620   27.7510   43.8760 C   0  0  0  0  0  0  0  0  0  0  0  0
   58.2100   26.3850   44.3950 C   0  0  0  0  0  0  0  0  0  0  0  0
   57.4320   26.0270   45.5950 N   0  0  0  0  0  0  0  0  0  0  0  0
   57.6730   24.6430   46.0690 C   0  0  0  0  0  0  0  0  0  0  0  0
   57.4610   23.5860   45.0020 C   0  0  0  0  0  0  0  0  0  0  0  0
   56.4240   23.7240   44.0630 C   0  0  0  0  0  0  0  0  0  0  0  0
   56.2330   22.7560   43.0720 C   0  0  0  0  0  0  0  0  0  0  0  0
   57.0560   21.6270   43.0230 C   0  0  0  0  0  0  0  0  0  0  0  0
   58.0710   21.4650   43.9690 C   0  0  0  0  0  0  0  0  0  0  0  0
   58.2720   22.4370   44.9560 C   0  0  0  0  0  0  0  0  0  0  0  0
   57.4350   27.0460   46.6750 C   0  0  0  0  0  0  0  0  0  0  0  0
   58.1730   28.3450   46.3070 C   0  0  0  0  0  0  0  0  0  0  0  0
   57.7870   30.5840   43.3010 N   0  0  0  0  0  0  0  0  0  0  0  0
   57.8280   33.4430   41.4961 H   0  0  0  0  0  0  0  0  0  0  0  0
   58.6672   31.9199   41.0460 H   0  0  0  0  0  0  0  0  0  0  0  0
   56.8723   31.9902   41.0460 H   0  0  0  0  0  0  0  0  0  0  0  0
   57.8082   33.9405   43.7632 H   0  0  0  0  0  0  0  0  0  0  0  0
   56.8306   33.8541   46.5734 H   0  0  0  0  0  0  0  0  0  0  0  0
   59.1794   34.9518   47.1916 H   0  0  0  0  0  0  0  0  0  0  0  0
   59.6840   34.1640   45.6582 H   0  0  0  0  0  0  0  0  0  0  0  0
   58.3306   35.3451   45.6582 H   0  0  0  0  0  0  0  0  0  0  0  0
   57.8599   33.3461   48.6525 H   0  0  0  0  0  0  0  0  0  0  0  0
   57.5628   31.7595   47.8644 H   0  0  0  0  0  0  0  0  0  0  0  0
   59.2138   32.4671   47.8644 H   0  0  0  0  0  0  0  0  0  0  0  0
   56.7230   27.6790   43.5220 H   0  0  0  0  0  0  0  0  0  0  0  0
   58.4277   28.0506   43.0531 H   0  0  0  0  0  0  0  0  0  0  0  0
   58.0476   25.6267   43.6148 H   0  0  0  0  0  0  0  0  0  0  0  0
   59.2782   26.4274   44.6540 H   0  0  0  0  0  0  0  0  0  0  0  0
   58.7117   24.5739   46.4244 H   0  0  0  0  0  0  0  0  0  0  0  0
   56.9417   24.4451   46.8665 H   0  0  0  0  0  0  0  0  0  0  0  0
   55.7587   24.5988   44.1080 H   0  0  0  0  0  0  0  0  0  0  0  0
   55.4324   22.8834   42.3285 H   0  0  0  0  0  0  0  0  0  0  0  0
   56.9047   20.8680   42.2413 H   0  0  0  0  0  0  0  0  0  0  0  0
   58.7131   20.5724   43.9383 H   0  0  0  0  0  0  0  0  0  0  0  0
   59.0698   22.3016   45.7011 H   0  0  0  0  0  0  0  0  0  0  0  0
   56.3917   27.2973   46.9165 H   0  0  0  0  0  0  0  0  0  0  0  0
   57.9724   26.6050   47.5275 H   0  0  0  0  0  0  0  0  0  0  0  0
   57.8780   29.1386   47.0092 H   0  0  0  0  0  0  0  0  0  0  0  0
   59.2564   28.1640   46.3667 H   0  0  0  0  0  0  0  0  0  0  0  0
   57.7750   29.8830   42.5280 H   0  0  0  0  0  0  0  0  0  0  0  0
  1  2  1  0
  2  3  2  0
  3  4  1  0
  4  5  1  0
  5  6  1  0
  5  7  1  0
  4  8  2  0
  8  9  1  0
  9 10  1  0
 10 11  1  0
 11 12  1  0
 12 13  1  0
 13 14  1  0
 14 15  1  0
 15 16  2  0
 16 17  1  0
 17 18  2  0
 18 19  1  0
 19 20  2  0
 13 21  1  0
 21 22  1  0
  9 23  2  0
 23  2  1  0
 22 10  1  0
 20 15  1  0
  1 24  1  0
  1 25  1  0
  1 26  1  0
  3 27  1  0
  5 28  1  0
  6 29  1  0
  6 30  1  0
  6 31  1  0
  7 32  1  0
  7 33  1  0
  7 34  1  0
 11 35  1  0
 11 36  1  0
 12 37  1  0
 12 38  1  0
 14 39  1  0
 14 40  1  0
 16 41  1  0
 17 42  1  0
 18 43  1  0
 19 44  1  0
 20 45  1  0
 21 46  1  0
 21 47  1  0
 22 48  1  0
 22 49  1  0
 23 50  1  0
M  CHG  1  23   1
M  END
>  <UniqueID>  (25) 
24

>  <SMILES>  (25) 
Cc1cc(C(C)C)nc(N2CCN(Cc3ccccc3)CC2)[nH+]1

>  <Energy>  (25) 
56.603740880984695

>  <Genealogy>  (25) 
Cc1cc(C(C)C)nc(N2CCN(Cc3ccccc3)CC2)[nH+]1 (protonated)
Cc1cc(C(C)C)nc(N2CCN(Cc3ccccc3)CC2)[nH+]1 (3D coordinates assigned)
Cc1cc(C(C)C)nc(N2CCN(Cc3ccccc3)CC2)[nH+]1 (nonaromatic ring conformer: 56.603740880984695 kcal/mol)

>  <smiles>  (25) 
Cc1cc(C(C)C)nc(N2CCN(Cc3ccccc3)CC2)n1

>  <score_type>  (25) 
oracle

>  <origin>  (25) 
adg

>  <m_score__min__energy>  (25) 
-6.9800000000000004

>  <m_primary>  (25) 
energy

$$$$
25:0
     RDKit          3D

 54 57  0  0  0  0  0  0  0  0999 V2000
   58.5170   30.2410   50.5840 C   0  0  0  0  0  0  0  0  0  0  0  0
   59.6470   29.3320   51.0550 C   0  0  0  0  0  0  0  0  0  0  0  0
   60.4070   28.6640   49.8960 C   0  0  0  0  0  0  0  0  0  0  0  0
   60.3490   29.4790   48.6560 N   0  0  0  0  0  0  0  0  0  0  0  0
   61.1160   30.6240   48.6120 C   0  0  0  0  0  0  0  0  0  0  0  0
   61.8230   30.9510   49.6090 O   0  0  0  0  0  0  0  0  0  0  0  0
   61.1340   31.4470   47.4700 C   0  0  0  0  0  0  0  0  0  0  0  0
   62.0140   32.6850   47.3950 C   0  0  2  0  0  0  0  0  0  0  0  0
   63.5230   32.3420   47.4790 C   0  0  0  0  0  0  0  0  0  0  0  0
   64.1330   33.2360   48.5820 C   0  0  2  0  0  0  0  0  0  0  0  0
   64.8670   32.4230   49.6520 C   0  0  0  0  0  0  0  0  0  0  0  0
   62.9550   33.9330   49.1490 C   0  0  0  0  0  0  0  0  0  0  0  0
   63.0220   34.7770   50.0820 O   0  0  0  0  0  0  0  0  0  0  0  0
   61.7420   33.5860   48.5080 N   0  0  0  0  0  0  0  0  0  0  0  0
   60.4370   34.1920   48.7920 C   0  0  0  0  0  0  0  0  0  0  0  0
   59.5580   34.1310   47.5730 C   0  0  0  0  0  0  0  0  0  0  0  0
   59.9320   34.8100   46.4030 C   0  0  0  0  0  0  0  0  0  0  0  0
   59.1390   34.7200   45.2530 C   0  0  0  0  0  0  0  0  0  0  0  0
   57.9760   33.9440   45.2620 C   0  0  0  0  0  0  0  0  0  0  0  0
   57.2100   33.8550   44.1460 F   0  0  0  0  0  0  0  0  0  0  0  0
   57.6040   33.2560   46.4220 C   0  0  0  0  0  0  0  0  0  0  0  0
   58.3920   33.3460   47.5740 C   0  0  0  0  0  0  0  0  0  0  0  0
   60.3370   31.1030   46.3790 C   0  0  0  0  0  0  0  0  0  0  0  0
   59.5620   29.9480   46.4090 C   0  0  0  0  0  0  0  0  0  0  0  0
   58.7800   29.6130   45.2920 C   0  0  0  0  0  0  0  0  0  0  0  0
   58.0170   28.4480   45.2920 C   0  0  0  0  0  0  0  0  0  0  0  0
   58.0330   27.6070   46.4000 C   0  0  0  0  0  0  0  0  0  0  0  0
   58.8040   27.9280   47.5200 C   0  0  0  0  0  0  0  0  0  0  0  0
   59.5810   29.1160   47.5590 C   0  0  0  0  0  0  0  0  0  0  0  0
   57.9957   30.6604   51.4571 H   0  0  0  0  0  0  0  0  0  0  0  0
   58.9330   31.0590   49.9776 H   0  0  0  0  0  0  0  0  0  0  0  0
   57.8071   29.6594   49.9776 H   0  0  0  0  0  0  0  0  0  0  0  0
   60.3588   29.9328   51.6402 H   0  0  0  0  0  0  0  0  0  0  0  0
   59.1938   28.5297   51.6557 H   0  0  0  0  0  0  0  0  0  0  0  0
   61.4596   28.5347   50.1881 H   0  0  0  0  0  0  0  0  0  0  0  0
   59.9317   27.6936   49.6898 H   0  0  0  0  0  0  0  0  0  0  0  0
   61.7812   33.1512   46.4263 H   0  0  0  0  0  0  0  0  0  0  0  0
   63.6547   31.2810   47.7379 H   0  0  0  0  0  0  0  0  0  0  0  0
   64.0186   32.5197   46.5132 H   0  0  0  0  0  0  0  0  0  0  0  0
   64.8963   33.9225   48.1870 H   0  0  0  0  0  0  0  0  0  0  0  0
   64.5571   32.7662   50.6501 H   0  0  0  0  0  0  0  0  0  0  0  0
   64.6189   31.3575   49.5373 H   0  0  0  0  0  0  0  0  0  0  0  0
   65.9522   32.5612   49.5373 H   0  0  0  0  0  0  0  0  0  0  0  0
   59.9543   33.6453   49.6154 H   0  0  0  0  0  0  0  0  0  0  0  0
   60.5847   35.2447   49.0749 H   0  0  0  0  0  0  0  0  0  0  0  0
   60.8509   35.4146   46.3897 H   0  0  0  0  0  0  0  0  0  0  0  0
   59.4313   35.2607   44.3407 H   0  0  0  0  0  0  0  0  0  0  0  0
   56.6904   32.6434   46.4280 H   0  0  0  0  0  0  0  0  0  0  0  0
   58.0985   32.8010   48.4833 H   0  0  0  0  0  0  0  0  0  0  0  0
   60.3208   31.7490   45.4888 H   0  0  0  0  0  0  0  0  0  0  0  0
   58.7700   30.2739   44.4127 H   0  0  0  0  0  0  0  0  0  0  0  0
   57.4020   28.1929   44.4164 H   0  0  0  0  0  0  0  0  0  0  0  0
   57.4350   26.6837   46.3943 H   0  0  0  0  0  0  0  0  0  0  0  0
   58.8093   27.2494   48.3857 H   0  0  0  0  0  0  0  0  0  0  0  0
  1  2  1  0
  2  3  1  0
  3  4  1  0
  4  5  1  0
  5  6  2  0
  5  7  1  0
  7  8  1  0
  8  9  1  0
  9 10  1  0
 10 11  1  0
 10 12  1  0
 12 13  2  0
 12 14  1  0
 14 15  1  0
 15 16  1  0
 16 17  2  0
 17 18  1  0
 18 19  2  0
 19 20  1  0
 19 21  1  0
 21 22  2  0
  7 23  2  0
 23 24  1  0
 24 25  2  0
 25 26  1  0
 26 27  2  0
 27 28  1  0
 28 29  2  0
 29  4  1  0
 14  8  1  0
 22 16  1  0
 29 24  1  0
  1 30  1  0
  1 31  1  0
  1 32  1  0
  2 33  1  0
  2 34  1  0
  3 35  1  0
  3 36  1  0
  8 37  1  6
  9 38  1  0
  9 39  1  0
 10 40  1  6
 11 41  1  0
 11 42  1  0
 11 43  1  0
 15 44  1  0
 15 45  1  0
 17 46  1  0
 18 47  1  0
 21 48  1  0
 22 49  1  0
 23 50  1  0
 25 51  1  0
 26 52  1  0
 27 53  1  0
 28 54  1  0
M  END
>  <UniqueID>  (26) 
25

>  <SMILES>  (26) 
CCCn1c(=O)c([C@@H]2C[C@H](C)C(=O)N2Cc2ccc(F)cc2)cc2ccccc21

>  <Energy>  (26) 
68.03437267105448

>  <Genealogy>  (26) 
CCCn1c(=O)c([C@@H]2C[C@H](C)C(=O)N2Cc2ccc(F)cc2)cc2ccccc21 (chirality)
CCCn1c(=O)c([C@@H]2C[C@H](C)C(=O)N2Cc2ccc(F)cc2)cc2ccccc21 (3D coordinates assigned)
CCCn1c(=O)c([C@@H]2C[C@H](C)C(=O)N2Cc2ccc(F)cc2)cc2ccccc21 (nonaromatic ring conformer: 68.03437267105448 kcal/mol)

>  <smiles>  (26) 
CCCn1c(=O)c(C2CC(C)C(=O)N2Cc2ccc(F)cc2)cc2ccccc21

>  <score_type>  (26) 
oracle

>  <origin>  (26) 
adg

>  <m_score__min__energy>  (26) 
-8.2200000000000006

>  <m_primary>  (26) 
energy

$$$$
26:0
     RDKit          3D

 47 50  0  0  0  0  0  0  0  0999 V2000
   61.7600   34.1410   48.9600 C   0  0  0  0  0  0  0  0  0  0  0  0
   60.2430   34.2400   48.8330 C   0  0  0  0  0  0  0  0  0  0  0  0
   59.5740   32.9640   49.3010 C   0  0  0  0  0  0  0  0  0  0  0  0
   58.9660   32.9830   50.5270 N   0  0  0  0  0  0  0  0  0  0  0  0
   58.3860   31.8610   51.0060 C   0  0  0  0  0  0  0  0  0  0  0  0
   57.7510   31.6840   52.2130 C   0  0  0  0  0  0  0  0  0  0  0  0
   57.3970   30.3390   52.1800 C   0  0  0  0  0  0  0  0  0  0  0  0
   56.7350   29.5910   53.2870 C   0  0  0  0  0  0  0  0  0  0  0  0
   57.8230   29.7600   51.0320 N   0  0  0  0  0  0  0  0  0  0  0  0
   58.4120   30.7140   50.3280 N   0  0  0  0  0  0  0  0  0  0  0  0
   59.0060   30.5880   49.1150 C   0  0  0  0  0  0  0  0  0  0  0  0
   59.0400   29.2600   48.4650 C   0  0  0  0  0  0  0  0  0  0  0  0
   58.1400   28.9790   47.4260 C   0  0  0  0  0  0  0  0  0  0  0  0
   58.1670   27.7370   46.7850 C   0  0  0  0  0  0  0  0  0  0  0  0
   59.0930   26.7670   47.1790 C   0  0  0  0  0  0  0  0  0  0  0  0
   59.1110   25.2010   46.3890 Cl  0  0  0  0  0  0  0  0  0  0  0  0
   60.0070   27.0460   48.2000 C   0  0  0  0  0  0  0  0  0  0  0  0
   59.9950   28.2910   48.8370 C   0  0  0  0  0  0  0  0  0  0  0  0
   61.1710   28.6020   50.1090 Cl  0  0  0  0  0  0  0  0  0  0  0  0
   59.6000   31.7460   48.5330 C   0  0  0  0  0  0  0  0  0  0  0  0
   60.2770   31.6660   47.1650 C   0  0  0  0  0  0  0  0  0  0  0  0
   59.3080   31.4320   46.0130 C   0  0  0  0  0  0  0  0  0  0  0  0
   58.2900   32.3740   45.7120 C   0  0  0  0  0  0  0  0  0  0  0  0
   58.1240   33.9010   46.5710 Cl  0  0  0  0  0  0  0  0  0  0  0  0
   57.3800   32.1220   44.6810 C   0  0  0  0  0  0  0  0  0  0  0  0
   57.4790   30.9610   43.9180 C   0  0  0  0  0  0  0  0  0  0  0  0
   58.5120   30.0570   44.1560 C   0  0  0  0  0  0  0  0  0  0  0  0
   59.4380   30.2910   45.1770 C   0  0  0  0  0  0  0  0  0  0  0  0
   60.7650   29.1410   45.3290 Cl  0  0  0  0  0  0  0  0  0  0  0  0
   62.0385   34.1228   50.0240 H   0  0  0  0  0  0  0  0  0  0  0  0
   62.1092   33.2182   48.4738 H   0  0  0  0  0  0  0  0  0  0  0  0
   62.2262   35.0106   48.4738 H   0  0  0  0  0  0  0  0  0  0  0  0
   59.8848   35.0798   49.4466 H   0  0  0  0  0  0  0  0  0  0  0  0
   59.9899   34.4002   47.7746 H   0  0  0  0  0  0  0  0  0  0  0  0
   58.9480   33.8540   51.1060 H   0  0  0  0  0  0  0  0  0  0  0  0
   57.5683   32.4226   53.0074 H   0  0  0  0  0  0  0  0  0  0  0  0
   57.0825   29.9836   54.2540 H   0  0  0  0  0  0  0  0  0  0  0  0
   55.6445   29.7140   53.2118 H   0  0  0  0  0  0  0  0  0  0  0  0
   56.9896   28.5235   53.2118 H   0  0  0  0  0  0  0  0  0  0  0  0
   57.4094   29.7399   47.1142 H   0  0  0  0  0  0  0  0  0  0  0  0
   57.4594   27.5230   45.9704 H   0  0  0  0  0  0  0  0  0  0  0  0
   60.7387   26.2828   48.5035 H   0  0  0  0  0  0  0  0  0  0  0  0
   60.8081   32.6123   46.9849 H   0  0  0  0  0  0  0  0  0  0  0  0
   60.9562   30.8012   47.1934 H   0  0  0  0  0  0  0  0  0  0  0  0
   56.5794   32.8465   44.4707 H   0  0  0  0  0  0  0  0  0  0  0  0
   56.7416   30.7578   43.1275 H   0  0  0  0  0  0  0  0  0  0  0  0
   58.5997   29.1525   43.5361 H   0  0  0  0  0  0  0  0  0  0  0  0
  1  2  1  0
  2  3  1  0
  3  4  2  0
  4  5  1  0
  5  6  2  0
  6  7  1  0
  7  8  1  0
  7  9  2  0
  9 10  1  0
 10 11  1  0
 11 12  1  0
 12 13  2  0
 13 14  1  0
 14 15  2  0
 15 16  1  0
 15 17  1  0
 17 18  2  0
 18 19  1  0
 11 20  2  0
 20 21  1  0
 21 22  1  0
 22 23  2  0
 23 24  1  0
 23 25  1  0
 25 26  2  0
 26 27  1  0
 27 28  2  0
 28 29  1  0
 20  3  1  0
 28 22  1  0
 10  5  1  0
 18 12  1  0
  1 30  1  0
  1 31  1  0
  1 32  1  0
  2 33  1  0
  2 34  1  0
  4 35  1  0
  6 36  1  0
  8 37  1  0
  8 38  1  0
  8 39  1  0
 13 40  1  0
 14 41  1  0
 17 42  1  0
 21 43  1  0
 21 44  1  0
 25 45  1  0
 26 46  1  0
 27 47  1  0
M  CHG  1   4   1
M  END
>  <UniqueID>  (27) 
26

>  <SMILES>  (27) 
CCc1[nH+]c2cc(C)nn2c(-c2ccc(Cl)cc2Cl)c1Cc1c(Cl)cccc1Cl

>  <Energy>  (27) 
95.66247534037475

>  <Genealogy>  (27) 
CCc1[nH+]c2cc(C)nn2c(-c2ccc(Cl)cc2Cl)c1Cc1c(Cl)cccc1Cl (protonated)
CCc1[nH+]c2cc(C)nn2c(-c2ccc(Cl)cc2Cl)c1Cc1c(Cl)cccc1Cl (3D coordinates assigned)
CCc1[nH+]c2cc(C)nn2c(-c2ccc(Cl)cc2Cl)c1Cc1c(Cl)cccc1Cl (optimized conformer: 95.66247534037475 kcal/mol)

>  <smiles>  (27) 
CCc1nc2cc(C)nn2c(-c2ccc(Cl)cc2Cl)c1Cc1c(Cl)cccc1Cl

>  <score_type>  (27) 
oracle

>  <origin>  (27) 
adg

>  <m_score__min__energy>  (27) 
-7.04

>  <m_primary>  (27) 
energy

$$$$
27:0
     RDKit          3D

 46 50  0  0  0  0  0  0  0  0999 V2000
   58.1470   27.4570   45.3030 C   0  0  0  0  0  0  0  0  0  0  0  0
   58.5590   28.0020   46.5220 C   0  0  0  0  0  0  0  0  0  0  0  0
   58.5790   29.3890   46.7010 C   0  0  0  0  0  0  0  0  0  0  0  0
   58.1870   30.2410   45.6560 C   0  0  0  0  0  0  0  0  0  0  0  0
   58.2020   31.6330   45.8250 C   0  0  0  0  0  0  0  0  0  0  0  0
   57.8160   32.4790   44.7730 C   0  0  0  0  0  0  0  0  0  0  0  0
   57.7990   33.9720   44.9690 C   0  0  0  0  0  0  0  0  0  0  0  0
   59.2210   34.5350   44.9600 C   0  0  0  0  0  0  0  0  0  0  0  0
   59.8550   34.3350   46.2700 N   0  0  0  0  0  0  0  0  0  0  0  0
   59.1410   34.5770   47.4110 C   0  0  0  0  0  0  0  0  0  0  0  0
   59.7300   34.4220   48.6670 C   0  0  0  0  0  0  0  0  0  0  0  0
   61.0670   34.0230   48.7580 C   0  0  0  0  0  0  0  0  0  0  0  0
   61.6880   33.8650   50.0070 C   0  0  0  0  0  0  0  0  0  0  0  0
   63.0300   33.4800   50.0740 C   0  0  0  0  0  0  0  0  0  0  0  0
   63.7500   33.2210   48.8990 C   0  0  0  0  0  0  0  0  0  0  0  0
   63.1450   33.3900   47.6500 C   0  0  0  0  0  0  0  0  0  0  0  0
   61.8010   33.7880   47.5730 C   0  0  0  0  0  0  0  0  0  0  0  0
   61.1680   33.9570   46.3340 C   0  0  0  0  0  0  0  0  0  0  0  0
   65.0780   32.7930   48.9960 O   0  0  0  0  0  0  0  0  0  0  0  0
   65.6220   32.3540   50.2430 C   0  0  0  0  0  0  0  0  0  0  0  0
   65.0960   33.2270   51.3890 C   0  0  0  0  0  0  0  0  0  0  0  0
   63.6740   33.3470   51.3080 O   0  0  0  0  0  0  0  0  0  0  0  0
   57.3890   31.9230   43.5570 C   0  0  0  0  0  0  0  0  0  0  0  0
   57.3710   30.5370   43.3800 C   0  0  0  0  0  0  0  0  0  0  0  0
   57.7690   29.6870   44.4210 C   0  0  0  0  0  0  0  0  0  0  0  0
   57.7530   28.2940   44.2540 C   0  0  0  0  0  0  0  0  0  0  0  0
   58.1325   26.3654   45.1679 H   0  0  0  0  0  0  0  0  0  0  0  0
   58.8684   27.3384   47.3429 H   0  0  0  0  0  0  0  0  0  0  0  0
   58.9026   29.8134   47.6628 H   0  0  0  0  0  0  0  0  0  0  0  0
   58.5177   32.0642   46.7864 H   0  0  0  0  0  0  0  0  0  0  0  0
   57.2217   34.4363   44.1559 H   0  0  0  0  0  0  0  0  0  0  0  0
   57.3364   34.1956   45.9416 H   0  0  0  0  0  0  0  0  0  0  0  0
   59.8111   34.0189   44.1883 H   0  0  0  0  0  0  0  0  0  0  0  0
   59.1787   35.6125   44.7429 H   0  0  0  0  0  0  0  0  0  0  0  0
   58.0912   34.8973   47.3382 H   0  0  0  0  0  0  0  0  0  0  0  0
   59.1460   34.6126   49.5795 H   0  0  0  0  0  0  0  0  0  0  0  0
   61.1194   34.0439   50.9315 H   0  0  0  0  0  0  0  0  0  0  0  0
   63.7207   33.2115   46.7298 H   0  0  0  0  0  0  0  0  0  0  0  0
   61.7318   33.7842   45.4054 H   0  0  0  0  0  0  0  0  0  0  0  0
   65.3288   31.3085   50.4190 H   0  0  0  0  0  0  0  0  0  0  0  0
   66.7183   32.4361   50.2043 H   0  0  0  0  0  0  0  0  0  0  0  0
   65.3672   32.7662   52.3503 H   0  0  0  0  0  0  0  0  0  0  0  0
   65.5448   34.2283   51.3115 H   0  0  0  0  0  0  0  0  0  0  0  0
   57.0664   32.5827   42.7380 H   0  0  0  0  0  0  0  0  0  0  0  0
   57.0432   30.1114   42.4201 H   0  0  0  0  0  0  0  0  0  0  0  0
   57.4300   27.8595   43.2965 H   0  0  0  0  0  0  0  0  0  0  0  0
  1  2  2  0
  2  3  1  0
  3  4  2  0
  4  5  1  0
  5  6  2  0
  6  7  1  0
  7  8  1  0
  8  9  1  0
  9 10  2  0
 10 11  1  0
 11 12  2  0
 12 13  1  0
 13 14  2  0
 14 15  1  0
 15 16  2  0
 16 17  1  0
 17 18  2  0
 15 19  1  0
 19 20  1  0
 20 21  1  0
 21 22  1  0
  6 23  1  0
 23 24  2  0
 24 25  1  0
 25 26  2  0
 26  1  1  0
 25  4  1  0
 18  9  1  0
 17 12  1  0
 22 14  1  0
  1 27  1  0
  2 28  1  0
  3 29  1  0
  5 30  1  0
  7 31  1  0
  7 32  1  0
  8 33  1  0
  8 34  1  0
 10 35  1  0
 11 36  1  0
 13 37  1  0
 16 38  1  0
 18 39  1  0
 20 40  1  0
 20 41  1  0
 21 42  1  0
 21 43  1  0
 23 44  1  0
 24 45  1  0
 26 46  1  0
M  CHG  1   9   1
M  END
>  <UniqueID>  (28) 
27

>  <SMILES>  (28) 
c1ccc2cc(CC[n+]3ccc4cc5c(cc4c3)OCCO5)ccc2c1

>  <Energy>  (28) 
56.39774548365863

>  <Genealogy>  (28) 
c1ccc2cc(CC[n+]3ccc4cc5c(cc4c3)OCCO5)ccc2c1 (3D coordinates assigned)
c1ccc2cc(CC[n+]3ccc4cc5c(cc4c3)OCCO5)ccc2c1 (nonaromatic ring conformer: 56.39774548365863 kcal/mol)

>  <smiles>  (28) 
c1ccc2cc(CC[n+]3ccc4cc5c(cc4c3)OCCO5)ccc2c1

>  <score_type>  (28) 
oracle

>  <origin>  (28) 
adg

>  <m_score__min__energy>  (28) 
-7.1799999999999997

>  <m_primary>  (28) 
energy

$$$$
28:0
     RDKit          3D

 47 48  0  0  0  0  0  0  0  0999 V2000
   56.6460   26.5630   46.0510 C   0  0  0  0  0  0  0  0  0  0  0  0
   55.9000   27.6960   45.6180 O   0  0  0  0  0  0  0  0  0  0  0  0
   56.4730   28.8910   45.1570 C   0  0  0  0  0  0  0  0  0  0  0  0
   55.7700   29.6450   44.2110 C   0  0  0  0  0  0  0  0  0  0  0  0
   56.2970   30.8430   43.7210 C   0  0  0  0  0  0  0  0  0  0  0  0
   57.5370   31.3100   44.1820 C   0  0  0  0  0  0  0  0  0  0  0  0
   58.1220   32.5800   43.6270 C   0  0  0  0  0  0  0  0  0  0  0  0
   58.8510   33.2850   44.6860 N   0  0  0  0  0  0  0  0  0  0  0  0
   57.9520   33.9860   45.6170 C   0  0  0  0  0  0  0  0  0  0  0  0
   58.1010   33.5110   47.0810 C   0  0  0  0  0  0  0  0  0  0  0  0
   59.5280   33.7310   47.6180 C   0  0  0  0  0  0  0  0  0  0  0  0
   60.5720   33.0310   46.8390 N   0  0  0  0  0  0  0  0  0  0  0  0
   61.6950   33.8800   46.3790 C   0  0  0  0  0  0  0  0  0  0  0  0
   63.0460   33.4620   46.9740 C   0  0  0  0  0  0  0  0  0  0  0  0
   62.8460   32.9780   48.3450 N   0  0  0  0  0  0  0  0  0  0  0  0
   64.1360   32.8290   49.0350 C   0  0  0  0  0  0  0  0  0  0  0  0
   62.1180   31.6940   48.3340 C   0  0  0  0  0  0  0  0  0  0  0  0
   60.9390   31.6870   47.3330 C   0  0  0  0  0  0  0  0  0  0  0  0
   58.2530   30.5510   45.1200 C   0  0  0  0  0  0  0  0  0  0  0  0
   57.7240   29.3530   45.6090 C   0  0  0  0  0  0  0  0  0  0  0  0
   56.6647   26.5347   47.1505 H   0  0  0  0  0  0  0  0  0  0  0  0
   56.1747   25.6456   45.6685 H   0  0  0  0  0  0  0  0  0  0  0  0
   57.6749   26.6335   45.6685 H   0  0  0  0  0  0  0  0  0  0  0  0
   54.7931   29.2914   43.8495 H   0  0  0  0  0  0  0  0  0  0  0  0
   55.7376   31.4218   42.9713 H   0  0  0  0  0  0  0  0  0  0  0  0
   58.8121   32.3376   42.8054 H   0  0  0  0  0  0  0  0  0  0  0  0
   57.3130   33.2220   43.2484 H   0  0  0  0  0  0  0  0  0  0  0  0
   59.4370   32.5980   45.2190 H   0  0  0  0  0  0  0  0  0  0  0  0
   58.1746   35.0624   45.5743 H   0  0  0  0  0  0  0  0  0  0  0  0
   56.9207   33.7648   45.3048 H   0  0  0  0  0  0  0  0  0  0  0  0
   57.3946   34.0726   47.7100 H   0  0  0  0  0  0  0  0  0  0  0  0
   57.8900   32.4318   47.1106 H   0  0  0  0  0  0  0  0  0  0  0  0
   59.7441   34.8094   47.5975 H   0  0  0  0  0  0  0  0  0  0  0  0
   59.5552   33.3162   48.6364 H   0  0  0  0  0  0  0  0  0  0  0  0
   61.7590   33.8128   45.2829 H   0  0  0  0  0  0  0  0  0  0  0  0
   61.4906   34.9068   46.7165 H   0  0  0  0  0  0  0  0  0  0  0  0
   63.4842   32.6599   46.3619 H   0  0  0  0  0  0  0  0  0  0  0  0
   63.7259   34.3266   46.9851 H   0  0  0  0  0  0  0  0  0  0  0  0
   63.9742   32.8477   50.1229 H   0  0  0  0  0  0  0  0  0  0  0  0
   64.5963   31.8717   48.7491 H   0  0  0  0  0  0  0  0  0  0  0  0
   64.8024   33.6561   48.7491 H   0  0  0  0  0  0  0  0  0  0  0  0
   62.8198   30.8935   48.0572 H   0  0  0  0  0  0  0  0  0  0  0  0
   61.7015   31.5386   49.3402 H   0  0  0  0  0  0  0  0  0  0  0  0
   61.2192   31.0644   46.4705 H   0  0  0  0  0  0  0  0  0  0  0  0
   60.0639   31.2912   47.8692 H   0  0  0  0  0  0  0  0  0  0  0  0
   59.2349   30.9002   45.4721 H   0  0  0  0  0  0  0  0  0  0  0  0
   58.2879   28.7682   46.3507 H   0  0  0  0  0  0  0  0  0  0  0  0
  1  2  1  0
  2  3  1  0
  3  4  2  0
  4  5  1  0
  5  6  2  0
  6  7  1  0
  7  8  1  0
  8  9  1  0
  9 10  1  0
 10 11  1  0
 11 12  1  0
 12 13  1  0
 13 14  1  0
 14 15  1  0
 15 16  1  0
 15 17  1  0
 17 18  1  0
  6 19  1  0
 19 20  2  0
 20  3  1  0
 18 12  1  0
  1 21  1  0
  1 22  1  0
  1 23  1  0
  4 24  1  0
  5 25  1  0
  7 26  1  0
  7 27  1  0
  8 28  1  0
  9 29  1  0
  9 30  1  0
 10 31  1  0
 10 32  1  0
 11 33  1  0
 11 34  1  0
 13 35  1  0
 13 36  1  0
 14 37  1  0
 14 38  1  0
 16 39  1  0
 16 40  1  0
 16 41  1  0
 17 42  1  0
 17 43  1  0
 18 44  1  0
 18 45  1  0
 19 46  1  0
 20 47  1  0
M  END
>  <UniqueID>  (29) 
28

>  <SMILES>  (29) 
COc1ccc(CNCCCN2CCN(C)CC2)cc1

>  <Energy>  (29) 
58.042170263054835

>  <Genealogy>  (29) 
COc1ccc(CNCCCN2CCN(C)CC2)cc1 (3D coordinates assigned)
COc1ccc(CNCCCN2CCN(C)CC2)cc1 (nonaromatic ring conformer: 58.042170263054835 kcal/mol)

>  <smiles>  (29) 
COc1ccc(CNCCCN2CCN(C)CC2)cc1

>  <score_type>  (29) 
oracle

>  <origin>  (29) 
adg

>  <m_score__min__energy>  (29) 
-6.4299999999999997

>  <m_primary>  (29) 
energy

$$$$
29:0
     RDKit          3D

 62 64  0  0  0  0  0  0  0  0999 V2000
   58.2663   29.9009   44.6041 H   0  0  0  0  0  0  0  0  0  0  0  0
   57.3090   30.3740   44.3400 C   0  0  0  0  0  0  0  0  0  0  0  0
   56.0800   29.5480   44.3190 C   0  0  0  0  0  0  0  0  0  0  0  0
   55.1720   29.7880   43.4780 O   0  0  0  0  0  0  0  0  0  0  0  0
   55.8900   28.4650   45.2370 N   0  0  0  0  0  0  0  0  0  0  0  0
   56.9600   27.8080   45.9780 C   0  0  0  0  0  0  0  0  0  0  0  0
   56.5254   27.0930   46.6921 H   0  0  0  0  0  0  0  0  0  0  0  0
   57.5443   28.5637   46.5234 H   0  0  0  0  0  0  0  0  0  0  0  0
   57.8740   27.0640   45.0060 C   0  0  0  0  0  0  0  0  0  0  0  0
   58.5169   27.7913   44.4886 H   0  0  0  0  0  0  0  0  0  0  0  0
   57.2482   26.5200   44.2832 H   0  0  0  0  0  0  0  0  0  0  0  0
   58.7560   26.0530   45.7460 C   0  0  0  0  0  0  0  0  0  0  0  0
   58.8525   25.1450   45.1326 H   0  0  0  0  0  0  0  0  0  0  0  0
   58.2835   25.8214   46.7120 H   0  0  0  0  0  0  0  0  0  0  0  0
   60.1530   26.6250   46.0150 C   0  0  0  0  0  0  0  0  0  0  0  0
   60.3198   27.4715   45.3326 H   0  0  0  0  0  0  0  0  0  0  0  0
   60.8730   25.8094   45.8524 H   0  0  0  0  0  0  0  0  0  0  0  0
   60.3480   27.1200   47.4640 C   0  0  0  0  0  0  0  0  0  0  0  0
   61.4192   27.3202   47.6140 H   0  0  0  0  0  0  0  0  0  0  0  0
   59.9545   26.3245   48.1139 H   0  0  0  0  0  0  0  0  0  0  0  0
   59.5990   28.3470   47.8170 N   0  0  0  0  0  0  0  0  0  0  0  0
   59.6680   28.7980   49.2240 C   0  0  0  0  0  0  0  0  0  0  0  0
   60.0107   27.9586   49.8469 H   0  0  0  0  0  0  0  0  0  0  0  0
   58.6625   29.1350   49.5161 H   0  0  0  0  0  0  0  0  0  0  0  0
   60.6320   29.9820   49.4180 C   0  0  0  0  0  0  0  0  0  0  0  0
   61.6640   29.6017   49.4366 H   0  0  0  0  0  0  0  0  0  0  0  0
   60.3770   30.4792   50.3655 H   0  0  0  0  0  0  0  0  0  0  0  0
   60.5080   30.9690   48.3360 N   0  0  0  0  0  0  0  0  0  0  0  0
   61.5430   31.9550   48.1460 C   0  0  0  0  0  0  0  0  0  0  0  0
   62.7100   31.6140   47.4380 C   0  0  0  0  0  0  0  0  0  0  0  0
   62.8098   30.6088   47.0025 H   0  0  0  0  0  0  0  0  0  0  0  0
   63.7410   32.5400   47.2840 C   0  0  0  0  0  0  0  0  0  0  0  0
   64.6509   32.2616   46.7322 H   0  0  0  0  0  0  0  0  0  0  0  0
   63.6210   33.8180   47.8280 C   0  0  0  0  0  0  0  0  0  0  0  0
   64.4401   34.5432   47.7135 H   0  0  0  0  0  0  0  0  0  0  0  0
   62.4620   34.1780   48.5180 C   0  0  0  0  0  0  0  0  0  0  0  0
   62.3695   35.1899   48.9392 H   0  0  0  0  0  0  0  0  0  0  0  0
   61.4090   33.2540   48.6790 C   0  0  0  0  0  0  0  0  0  0  0  0
   60.2190   33.6000   49.3380 O   0  0  0  0  0  0  0  0  0  0  0  0
   59.9820   33.4180   50.7310 C   0  0  0  0  0  0  0  0  0  0  0  0
   60.7253   33.9888   51.3070 H   0  0  0  0  0  0  0  0  0  0  0  0
   58.9719   33.7747   50.9807 H   0  0  0  0  0  0  0  0  0  0  0  0
   60.0659   32.3500   50.9807 H   0  0  0  0  0  0  0  0  0  0  0  0
   59.4510   30.7990   47.3360 C   0  0  0  0  0  0  0  0  0  0  0  0
   59.5909   31.5301   46.5261 H   0  0  0  0  0  0  0  0  0  0  0  0
   58.4700   30.9587   47.8073 H   0  0  0  0  0  0  0  0  0  0  0  0
   59.5180   29.3820   46.7620 C   0  0  0  0  0  0  0  0  0  0  0  0
   60.4083   29.3027   46.1208 H   0  0  0  0  0  0  0  0  0  0  0  0
   58.5931   29.2076   46.1926 H   0  0  0  0  0  0  0  0  0  0  0  0
   57.2880   31.6830   44.0460 C   0  0  0  0  0  0  0  0  0  0  0  0
   56.8002   31.9978   43.1117 H   0  0  0  0  0  0  0  0  0  0  0  0
   57.8860   32.7290   44.9110 C   0  0  0  0  0  0  0  0  0  0  0  0
   58.8670   33.6290   44.4440 C   0  0  0  0  0  0  0  0  0  0  0  0
   59.2166   33.5654   43.4030 H   0  0  0  0  0  0  0  0  0  0  0  0
   59.3970   34.6010   45.2970 C   0  0  0  0  0  0  0  0  0  0  0  0
   60.1671   35.2940   44.9273 H   0  0  0  0  0  0  0  0  0  0  0  0
   58.9520   34.6950   46.6170 C   0  0  0  0  0  0  0  0  0  0  0  0
   59.3764   35.4564   47.2879 H   0  0  0  0  0  0  0  0  0  0  0  0
   57.9680   33.8220   47.0850 C   0  0  0  0  0  0  0  0  0  0  0  0
   57.6130   33.9005   48.1232 H   0  0  0  0  0  0  0  0  0  0  0  0
   57.4330   32.8480   46.2360 C   0  0  0  0  0  0  0  0  0  0  0  0
   56.6513   32.1695   46.6083 H   0  0  0  0  0  0  0  0  0  0  0  0
  1  2  1  0
  2  3  1  0
  3  4  2  0
  3  5  1  0
  5  6  1  0
  6  7  1  0
  6  8  1  0
  6  9  1  0
  9 10  1  0
  9 11  1  0
  9 12  1  0
 12 13  1  0
 12 14  1  0
 12 15  1  0
 15 16  1  0
 15 17  1  0
 15 18  1  0
 18 19  1  0
 18 20  1  0
 18 21  1  0
 21 22  1  0
 22 23  1  0
 22 24  1  0
 22 25  1  0
 25 26  1  0
 25 27  1  0
 25 28  1  0
 28 29  1  0
 29 30  2  0
 30 31  1  0
 30 32  1  0
 32 33  1  0
 32 34  2  0
 34 35  1  0
 34 36  1  0
 36 37  1  0
 36 38  2  0
 38 39  1  0
 39 40  1  0
 40 41  1  0
 40 42  1  0
 40 43  1  0
 28 44  1  0
 44 45  1  0
 44 46  1  0
 44 47  1  0
 47 48  1  0
 47 49  1  0
  2 50  2  0
 50 51  1  0
 50 52  1  0
 52 53  2  0
 53 54  1  0
 53 55  1  0
 55 56  1  0
 55 57  2  0
 57 58  1  0
 57 59  1  0
 59 60  1  0
 59 61  2  0
 61 62  1  0
 47 21  1  0
 61 52  1  0
 38 29  1  0
M  CHG  1   5  -1
M  END
>  <UniqueID>  (30) 
29

>  <SMILES>  (30) 
COc1ccccc1N1CCN(CCCCC[N-]C(=O)/C=C/c2ccccc2)CC1

>  <Energy>  (30) 
70.44202639982318

>  <Genealogy>  (30) 
COc1ccccc1N1CCN(CCCCC[N-]C(=O)C=Cc2ccccc2)CC1 (protonated)
COc1ccccc1N1CCN(CCCCC[N-]C(=O)/C=C/c2ccccc2)CC1 (cis-trans isomerization)
COc1ccccc1N1CCN(CCCCC[N-]C(=O)/C=C/c2ccccc2)CC1 (3D coordinates assigned)
COc1ccccc1N1CCN(CCCCC[N-]C(=O)/C=C/c2ccccc2)CC1 (nonaromatic ring conformer: 70.44202639982318 kcal/mol)

>  <smiles>  (30) 
COc1ccccc1N1CCN(CCCCCNC(=O)C=Cc2ccccc2)CC1

>  <score_type>  (30) 
oracle

>  <origin>  (30) 
adg

>  <m_score__min__energy>  (30) 
-11.5

>  <m_primary>  (30) 
energy

$$$$
30:0
     RDKit          3D

 39 41  0  0  0  0  0  0  0  0999 V2000
   59.9812   26.4727   48.3164 H   0  0  0  0  0  0  0  0  0  0  0  0
   59.4290   26.9790   47.5110 C   0  0  0  0  0  0  0  0  0  0  0  0
   60.0470   27.9850   46.7690 C   0  0  0  0  0  0  0  0  0  0  0  0
   61.0843   28.2741   46.9934 H   0  0  0  0  0  0  0  0  0  0  0  0
   59.3520   28.6260   45.7420 C   0  0  0  0  0  0  0  0  0  0  0  0
   59.8420   29.4249   45.1662 H   0  0  0  0  0  0  0  0  0  0  0  0
   58.0300   28.2570   45.4390 C   0  0  0  0  0  0  0  0  0  0  0  0
   57.2840   28.9800   44.3490 C   0  0  0  0  0  0  0  0  0  0  0  0
   56.4457   28.3586   44.0010 H   0  0  0  0  0  0  0  0  0  0  0  0
   57.9604   29.1792   43.5047 H   0  0  0  0  0  0  0  0  0  0  0  0
   56.7730   30.2380   44.8780 N   0  0  0  0  0  0  0  0  0  0  0  0
   57.3920   31.3530   45.1560 C   0  0  0  0  0  0  0  0  0  0  0  0
   57.5930   31.7070   46.4510 N   0  0  0  0  0  0  0  0  0  0  0  0
   58.2510   32.8720   46.3560 C   0  0  0  0  0  0  0  0  0  0  0  0
   58.7260   33.6590   47.4020 C   0  0  0  0  0  0  0  0  0  0  0  0
   58.5586   33.3714   48.4505 H   0  0  0  0  0  0  0  0  0  0  0  0
   59.4270   34.8340   47.0740 C   0  0  0  0  0  0  0  0  0  0  0  0
   59.8105   35.4847   47.8737 H   0  0  0  0  0  0  0  0  0  0  0  0
   59.6400   35.1810   45.7220 C   0  0  0  0  0  0  0  0  0  0  0  0
   60.1938   36.0988   45.4753 H   0  0  0  0  0  0  0  0  0  0  0  0
   59.1500   34.3630   44.6880 C   0  0  0  0  0  0  0  0  0  0  0  0
   59.3163   34.6214   43.6318 H   0  0  0  0  0  0  0  0  0  0  0  0
   58.4430   33.2080   45.0480 C   0  0  0  0  0  0  0  0  0  0  0  0
   57.8940   32.2630   44.2550 N   0  0  0  0  0  0  0  0  0  0  0  0
   58.0100   32.2270   42.7910 C   0  0  0  0  0  0  0  0  0  0  0  0
   59.0288   31.9163   42.5162 H   0  0  0  0  0  0  0  0  0  0  0  0
   57.7989   33.2304   42.3927 H   0  0  0  0  0  0  0  0  0  0  0  0
   57.0070   31.2400   42.1990 C   0  0  0  0  0  0  0  0  0  0  0  0
   56.4795   30.7209   43.0128 H   0  0  0  0  0  0  0  0  0  0  0  0
   56.2795   31.7841   41.5788 H   0  0  0  0  0  0  0  0  0  0  0  0
   57.5394   30.5038   41.5788 H   0  0  0  0  0  0  0  0  0  0  0  0
   57.3940   27.2530   46.2000 C   0  0  0  0  0  0  0  0  0  0  0  0
   56.0610   26.9190   45.9070 O   0  0  0  0  0  0  0  0  0  0  0  0
   55.5880   25.5920   45.6920 C   0  0  0  0  0  0  0  0  0  0  0  0
   55.4138   25.1032   46.6619 H   0  0  0  0  0  0  0  0  0  0  0  0
   54.6466   25.6258   45.1241 H   0  0  0  0  0  0  0  0  0  0  0  0
   56.3386   25.0227   45.1241 H   0  0  0  0  0  0  0  0  0  0  0  0
   58.1090   26.6130   47.2330 C   0  0  0  0  0  0  0  0  0  0  0  0
   57.6252   25.8211   47.8236 H   0  0  0  0  0  0  0  0  0  0  0  0
  1  2  1  0
  2  3  2  0
  3  4  1  0
  3  5  1  0
  5  6  1  0
  5  7  2  0
  7  8  1  0
  8  9  1  0
  8 10  1  0
  8 11  1  0
 11 12  2  0
 12 13  1  0
 13 14  1  0
 14 15  2  0
 15 16  1  0
 15 17  1  0
 17 18  1  0
 17 19  2  0
 19 20  1  0
 19 21  1  0
 21 22  1  0
 21 23  2  0
 23 24  1  0
 24 25  1  0
 25 26  1  0
 25 27  1  0
 25 28  1  0
 28 29  1  0
 28 30  1  0
 28 31  1  0
  7 32  1  0
 32 33  1  0
 33 34  1  0
 34 35  1  0
 34 36  1  0
 34 37  1  0
 32 38  2  0
 38 39  1  0
 38  2  1  0
 24 12  1  0
 23 14  1  0
M  CHG  1  13  -1
M  END
>  <UniqueID>  (31) 
30

>  <SMILES>  (31) 
CCn1/c(=N\Cc2ccccc2OC)[n-]c2ccccc21

>  <Energy>  (31) 
82.61024961318056

>  <Genealogy>  (31) 
CCn1c(=NCc2ccccc2OC)[n-]c2ccccc21 (protonated)
CCn1/c(=N\Cc2ccccc2OC)[n-]c2ccccc21 (cis-trans isomerization)
CCn1/c(=N\Cc2ccccc2OC)[n-]c2ccccc21 (3D coordinates assigned)
CCn1/c(=N\Cc2ccccc2OC)[n-]c2ccccc21 (optimized conformer: 82.61024961318056 kcal/mol)

>  <smiles>  (31) 
CCn1c(=NCc2ccccc2OC)[nH]c2ccccc21

>  <score_type>  (31) 
oracle

>  <origin>  (31) 
adg

>  <m_score__min__energy>  (31) 
-8.8699999999999992

>  <m_primary>  (31) 
energy

$$$$
31:0
     RDKit          3D

 29 30  0  0  0  0  0  0  0  0999 V2000
   59.2660   35.0280   45.0000 C   0  0  0  0  0  0  0  0  0  0  0  0
   59.0140   34.8070   46.4960 C   0  0  1  0  0  0  0  0  0  0  0  0
   57.8890   33.8820   46.6970 N   0  0  0  0  0  0  0  0  0  0  0  0
   57.7700   32.5840   46.0750 C   0  0  0  0  0  0  0  0  0  0  0  0
   56.7690   32.3730   45.1140 C   0  0  0  0  0  0  0  0  0  0  0  0
   56.6380   31.1620   44.5080 N   0  0  0  0  0  0  0  0  0  0  0  0
   57.4610   30.1230   44.8030 C   0  0  0  0  0  0  0  0  0  0  0  0
   58.4760   30.2810   45.7470 C   0  0  0  0  0  0  0  0  0  0  0  0
   59.6410   28.8260   46.1630 Br  0  0  0  0  0  0  0  0  0  0  0  0
   58.6330   31.5150   46.3830 C   0  0  0  0  0  0  0  0  0  0  0  0
   60.2670   34.2800   47.1750 C   0  0  0  0  0  0  0  0  0  0  0  0
   61.3710   33.8400   46.4190 C   0  0  0  0  0  0  0  0  0  0  0  0
   62.5200   33.3630   47.0540 C   0  0  0  0  0  0  0  0  0  0  0  0
   62.5820   33.3180   48.4480 C   0  0  0  0  0  0  0  0  0  0  0  0
   61.4950   33.7510   49.2100 C   0  0  0  0  0  0  0  0  0  0  0  0
   60.3430   34.2310   48.5790 C   0  0  0  0  0  0  0  0  0  0  0  0
   60.0871   35.7481   44.8689 H   0  0  0  0  0  0  0  0  0  0  0  0
   59.5380   34.0720   44.5288 H   0  0  0  0  0  0  0  0  0  0  0  0
   58.3536   35.4225   44.5288 H   0  0  0  0  0  0  0  0  0  0  0  0
   58.7539   35.7737   46.9518 H   0  0  0  0  0  0  0  0  0  0  0  0
   57.1260   34.1640   47.3540 H   0  0  0  0  0  0  0  0  0  0  0  0
   56.0853   33.1929   44.8488 H   0  0  0  0  0  0  0  0  0  0  0  0
   57.3272   29.1555   44.2970 H   0  0  0  0  0  0  0  0  0  0  0  0
   59.4326   31.6517   47.1260 H   0  0  0  0  0  0  0  0  0  0  0  0
   61.3280   33.8723   45.3203 H   0  0  0  0  0  0  0  0  0  0  0  0
   63.3773   33.0223   46.4549 H   0  0  0  0  0  0  0  0  0  0  0  0
   63.4875   32.9413   48.9462 H   0  0  0  0  0  0  0  0  0  0  0  0
   61.5449   33.7145   50.3083 H   0  0  0  0  0  0  0  0  0  0  0  0
   59.4905   34.5726   49.1845 H   0  0  0  0  0  0  0  0  0  0  0  0
  1  2  1  0
  2  3  1  0
  3  4  1  0
  4  5  2  0
  5  6  1  0
  6  7  2  0
  7  8  1  0
  8  9  1  0
  8 10  2  0
  2 11  1  0
 11 12  2  0
 12 13  1  0
 13 14  2  0
 14 15  1  0
 15 16  2  0
 10  4  1  0
 16 11  1  0
  1 17  1  0
  1 18  1  0
  1 19  1  0
  2 20  1  1
  3 21  1  0
  5 22  1  0
  7 23  1  0
 10 24  1  0
 12 25  1  0
 13 26  1  0
 14 27  1  0
 15 28  1  0
 16 29  1  0
M  END
>  <UniqueID>  (32) 
31

>  <SMILES>  (32) 
C[C@@H](Nc1cncc(Br)c1)c1ccccc1

>  <Energy>  (32) 
30.0929838494339

>  <Genealogy>  (32) 
C[C@@H](Nc1cncc(Br)c1)c1ccccc1 (chirality)
C[C@@H](Nc1cncc(Br)c1)c1ccccc1 (3D coordinates assigned)
C[C@@H](Nc1cncc(Br)c1)c1ccccc1 (optimized conformer: 30.0929838494339 kcal/mol)

>  <smiles>  (32) 
CC(Nc1cncc(Br)c1)c1ccccc1

>  <score_type>  (32) 
oracle

>  <origin>  (32) 
adg

>  <m_score__min__energy>  (32) 
-6.4000000000000004

>  <m_primary>  (32) 
energy

$$$$
32:0
     RDKit          3D

 53 56  0  0  0  0  0  0  0  0999 V2000
   60.7710   27.8520   50.6360 C   0  0  0  0  0  0  0  0  0  0  0  0
   60.2900   28.8480   49.7390 O   0  0  0  0  0  0  0  0  0  0  0  0
   59.5470   29.9760   50.1240 C   0  0  0  0  0  0  0  0  0  0  0  0
   58.3490   29.8620   50.8600 C   0  0  0  0  0  0  0  0  0  0  0  0
   57.6360   31.0020   51.2320 C   0  0  0  0  0  0  0  0  0  0  0  0
   58.1040   32.2680   50.8790 C   0  0  0  0  0  0  0  0  0  0  0  0
   59.2880   32.3970   50.1510 C   0  0  0  0  0  0  0  0  0  0  0  0
   60.0160   31.2580   49.7650 C   0  0  0  0  0  0  0  0  0  0  0  0
   61.3120   31.4240   49.0010 C   0  0  0  0  0  0  0  0  0  0  0  0
   61.5390   30.3210   48.0530 N   0  0  0  0  0  0  0  0  0  0  0  0
   60.9500   30.5970   46.7320 C   0  0  0  0  0  0  0  0  0  0  0  0
   59.7800   29.6760   46.4710 C   0  0  0  0  0  0  0  0  0  0  0  0
   59.9140   28.3710   46.8240 N   0  0  0  0  0  0  0  0  0  0  0  0
   58.9040   27.4820   46.6740 C   0  0  0  0  0  0  0  0  0  0  0  0
   59.0850   26.1450   47.0440 C   0  0  0  0  0  0  0  0  0  0  0  0
   58.0420   25.2290   46.8900 C   0  0  0  0  0  0  0  0  0  0  0  0
   56.8140   25.6440   46.3680 C   0  0  0  0  0  0  0  0  0  0  0  0
   56.6240   26.9800   45.9970 C   0  0  0  0  0  0  0  0  0  0  0  0
   57.6700   27.9100   46.1490 C   0  0  0  0  0  0  0  0  0  0  0  0
   57.5320   29.2630   45.7980 C   0  0  0  0  0  0  0  0  0  0  0  0
   56.4370   29.6800   45.3230 O   0  0  0  0  0  0  0  0  0  0  0  0
   58.5830   30.1290   45.9640 N   0  0  0  0  0  0  0  0  0  0  0  0
   58.4120   31.5110   45.5990 C   0  0  0  0  0  0  0  0  0  0  0  0
   57.9690   31.8490   44.3120 C   0  0  0  0  0  0  0  0  0  0  0  0
   57.8170   33.1910   43.9530 C   0  0  0  0  0  0  0  0  0  0  0  0
   58.1100   34.2010   44.8730 C   0  0  0  0  0  0  0  0  0  0  0  0
   58.5480   33.8750   46.1660 C   0  0  0  0  0  0  0  0  0  0  0  0
   58.9030   34.9580   47.1410 C   0  0  0  0  0  0  0  0  0  0  0  0
   58.7180   32.5270   46.5170 C   0  0  0  0  0  0  0  0  0  0  0  0
   60.6108   28.1838   51.6725 H   0  0  0  0  0  0  0  0  0  0  0  0
   60.2281   26.9108   50.4642 H   0  0  0  0  0  0  0  0  0  0  0  0
   61.8457   27.6920   50.4642 H   0  0  0  0  0  0  0  0  0  0  0  0
   57.9743   28.8672   51.1426 H   0  0  0  0  0  0  0  0  0  0  0  0
   56.7024   30.9024   51.8051 H   0  0  0  0  0  0  0  0  0  0  0  0
   57.5398   33.1649   51.1745 H   0  0  0  0  0  0  0  0  0  0  0  0
   59.6542   33.3975   49.8773 H   0  0  0  0  0  0  0  0  0  0  0  0
   61.2759   32.3707   48.4421 H   0  0  0  0  0  0  0  0  0  0  0  0
   62.1374   31.4221   49.7281 H   0  0  0  0  0  0  0  0  0  0  0  0
   61.1000   29.4590   48.4530 H   0  0  0  0  0  0  0  0  0  0  0  0
   62.5670   30.1430   47.9500 H   0  0  0  0  0  0  0  0  0  0  0  0
   60.6032   31.6404   46.7012 H   0  0  0  0  0  0  0  0  0  0  0  0
   61.7146   30.4285   45.9594 H   0  0  0  0  0  0  0  0  0  0  0  0
   60.0498   25.8149   47.4566 H   0  0  0  0  0  0  0  0  0  0  0  0
   58.1876   24.1781   47.1804 H   0  0  0  0  0  0  0  0  0  0  0  0
   55.9952   24.9193   46.2485 H   0  0  0  0  0  0  0  0  0  0  0  0
   55.6563   27.3038   45.5862 H   0  0  0  0  0  0  0  0  0  0  0  0
   57.7408   31.0566   43.5840 H   0  0  0  0  0  0  0  0  0  0  0  0
   57.4659   33.4528   42.9439 H   0  0  0  0  0  0  0  0  0  0  0  0
   57.9969   35.2560   44.5827 H   0  0  0  0  0  0  0  0  0  0  0  0
   58.7798   34.5821   48.1674 H   0  0  0  0  0  0  0  0  0  0  0  0
   59.9482   35.2633   46.9853 H   0  0  0  0  0  0  0  0  0  0  0  0
   58.2413   35.8228   46.9853 H   0  0  0  0  0  0  0  0  0  0  0  0
   59.0932   32.2654   47.5174 H   0  0  0  0  0  0  0  0  0  0  0  0
  1  2  1  0
  2  3  1  0
  3  4  2  0
  4  5  1  0
  5  6  2  0
  6  7  1  0
  7  8  2  0
  8  9  1  0
  9 10  1  0
 10 11  1  0
 11 12  1  0
 12 13  2  0
 13 14  1  0
 14 15  2  0
 15 16  1  0
 16 17  2  0
 17 18  1  0
 18 19  2  0
 19 20  1  0
 20 21  2  0
 20 22  1  0
 22 23  1  0
 23 24  2  0
 24 25  1  0
 25 26  2  0
 26 27  1  0
 27 28  1  0
 27 29  2  0
  8  3  1  0
 22 12  1  0
 29 23  1  0
 19 14  1  0
  1 30  1  0
  1 31  1  0
  1 32  1  0
  4 33  1  0
  5 34  1  0
  6 35  1  0
  7 36  1  0
  9 37  1  0
  9 38  1  0
 10 39  1  0
 10 40  1  0
 11 41  1  0
 11 42  1  0
 15 43  1  0
 16 44  1  0
 17 45  1  0
 18 46  1  0
 24 47  1  0
 25 48  1  0
 26 49  1  0
 28 50  1  0
 28 51  1  0
 28 52  1  0
 29 53  1  0
M  CHG  1  10   1
M  END
>  <UniqueID>  (33) 
32

>  <SMILES>  (33) 
COc1ccccc1C[NH2+]Cc1nc2ccccc2c(=O)n1-c1cccc(C)c1

>  <Energy>  (33) 
69.79576592652785

>  <Genealogy>  (33) 
COc1ccccc1C[NH2+]Cc1nc2ccccc2c(=O)n1-c1cccc(C)c1 (protonated)
COc1ccccc1C[NH2+]Cc1nc2ccccc2c(=O)n1-c1cccc(C)c1 (3D coordinates assigned)
COc1ccccc1C[NH2+]Cc1nc2ccccc2c(=O)n1-c1cccc(C)c1 (optimized conformer: 69.79576592652785 kcal/mol)

>  <smiles>  (33) 
COc1ccccc1CNCc1nc2ccccc2c(=O)n1-c1cccc(C)c1

>  <score_type>  (33) 
oracle

>  <origin>  (33) 
adg

>  <m_score__min__energy>  (33) 
-6.5999999999999996

>  <m_primary>  (33) 
energy

$$$$
33:0
     RDKit          3D

 38 41  0  0  0  0  0  0  0  0999 V2000
   57.1363   27.6888   47.4330 H   0  0  0  0  0  0  0  0  0  0  0  0
   57.3720   27.4750   46.3800 C   0  0  0  0  0  0  0  0  0  0  0  0
   58.1790   28.3280   45.7310 C   0  0  0  0  0  0  0  0  0  0  0  0
   59.1240   27.9507   45.3131 H   0  0  0  0  0  0  0  0  0  0  0  0
   57.8430   29.7560   45.5580 C   0  0  0  0  0  0  0  0  0  0  0  0
   56.7200   30.1420   44.8720 N   0  0  0  0  0  0  0  0  0  0  0  0
   56.3890   31.4300   44.7210 N   0  0  0  0  0  0  0  0  0  0  0  0
   57.1990   32.3750   45.2520 C   0  0  0  0  0  0  0  0  0  0  0  0
   56.9830   33.7010   45.2340 N   0  0  0  0  0  0  0  0  0  0  0  0
   58.0010   34.2370   45.9030 N   0  0  0  0  0  0  0  0  0  0  0  0
   58.8090   33.2270   46.3060 C   0  0  0  0  0  0  0  0  0  0  0  0
   60.0520   33.4360   47.0780 C   0  0  0  0  0  0  0  0  0  0  0  0
   59.9820   33.6570   48.4620 C   0  0  0  0  0  0  0  0  0  0  0  0
   59.0043   33.6602   48.9660 H   0  0  0  0  0  0  0  0  0  0  0  0
   61.1460   33.8730   49.2040 C   0  0  0  0  0  0  0  0  0  0  0  0
   61.0811   34.0328   50.2904 H   0  0  0  0  0  0  0  0  0  0  0  0
   62.4020   33.8870   48.5670 C   0  0  0  0  0  0  0  0  0  0  0  0
   63.5990   34.0980   49.2670 O   0  0  0  0  0  0  0  0  0  0  0  0
   64.5760   33.0900   49.5110 C   0  0  0  0  0  0  0  0  0  0  0  0
   64.7038   32.9581   50.5956 H   0  0  0  0  0  0  0  0  0  0  0  0
   64.2443   32.1417   49.0629 H   0  0  0  0  0  0  0  0  0  0  0  0
   65.5341   33.3919   49.0629 H   0  0  0  0  0  0  0  0  0  0  0  0
   62.4660   33.6890   47.1830 C   0  0  0  0  0  0  0  0  0  0  0  0
   63.4413   33.7042   46.6746 H   0  0  0  0  0  0  0  0  0  0  0  0
   61.3010   33.4720   46.4410 C   0  0  0  0  0  0  0  0  0  0  0  0
   61.3644   33.3288   45.3522 H   0  0  0  0  0  0  0  0  0  0  0  0
   58.3090   32.0410   45.9080 N   0  0  0  0  0  0  0  0  0  0  0  0
   58.6680   30.7500   46.1120 C   0  0  0  0  0  0  0  0  0  0  0  0
   59.5686   30.4907   46.6879 H   0  0  0  0  0  0  0  0  0  0  0  0
   56.7790   26.2650   45.7690 C   0  0  0  0  0  0  0  0  0  0  0  0
   55.5100   25.9210   46.1250 N   0  0  0  0  0  0  0  0  0  0  0  0
   54.8970   24.8190   45.6180 C   0  0  0  0  0  0  0  0  0  0  0  0
   53.8694   24.5672   45.9190 H   0  0  0  0  0  0  0  0  0  0  0  0
   55.5830   24.0110   44.7130 C   0  0  0  0  0  0  0  0  0  0  0  0
   55.0986   23.1195   44.2881 H   0  0  0  0  0  0  0  0  0  0  0  0
   56.8540   24.3330   44.3600 N   0  0  0  0  0  0  0  0  0  0  0  0
   57.4710   25.4350   44.8650 C   0  0  0  0  0  0  0  0  0  0  0  0
   58.5028   25.6764   44.5697 H   0  0  0  0  0  0  0  0  0  0  0  0
  1  2  1  0
  2  3  2  0
  3  4  1  0
  3  5  1  0
  5  6  1  0
  6  7  2  0
  7  8  1  0
  8  9  2  0
  9 10  1  0
 10 11  2  0
 11 12  1  0
 12 13  2  0
 13 14  1  0
 13 15  1  0
 15 16  1  0
 15 17  2  0
 17 18  1  0
 18 19  1  0
 19 20  1  0
 19 21  1  0
 19 22  1  0
 17 23  1  0
 23 24  1  0
 23 25  2  0
 25 26  1  0
 11 27  1  0
 27 28  1  0
 28 29  1  0
  2 30  1  0
 30 31  2  0
 31 32  1  0
 32 33  1  0
 32 34  2  0
 34 35  1  0
 34 36  1  0
 36 37  2  0
 37 38  1  0
 28  5  2  0
 37 30  1  0
 27  8  1  0
 25 12  1  0
M  END
>  <UniqueID>  (34) 
33

>  <SMILES>  (34) 
COc1ccc(-c2nnc3nnc(/C=C/c4cnccn4)cn23)cc1

>  <Energy>  (34) 
94.78317201896238

>  <Genealogy>  (34) 
COc1ccc(-c2nnc3nnc(/C=C/c4cnccn4)cn23)cc1 (cis-trans isomerization)
COc1ccc(-c2nnc3nnc(/C=C/c4cnccn4)cn23)cc1 (3D coordinates assigned)
COc1ccc(-c2nnc3nnc(/C=C/c4cnccn4)cn23)cc1 (optimized conformer: 94.78317201896238 kcal/mol)

>  <smiles>  (34) 
COc1ccc(-c2nnc3nnc(C=Cc4cnccn4)cn23)cc1

>  <score_type>  (34) 
oracle

>  <origin>  (34) 
adg

>  <m_score__min__energy>  (34) 
-8.4499999999999993

>  <m_primary>  (34) 
energy

$$$$
34:0
     RDKit          3D

 35 36  0  0  0  0  0  0  0  0999 V2000
   60.7840   29.5980   45.9300 C   0  0  0  0  0  0  0  0  0  0  0  0
   60.5590   28.2980   45.1640 C   0  0  0  0  0  0  0  0  0  0  0  0
   59.1520   27.7870   45.3750 C   0  0  0  0  0  0  0  0  0  0  0  0
   58.0730   28.6120   45.0240 C   0  0  0  0  0  0  0  0  0  0  0  0
   56.7570   28.2040   45.2600 C   0  0  0  0  0  0  0  0  0  0  0  0
   55.6730   29.0850   44.9260 N   0  0  0  0  0  0  0  0  0  0  0  0
   55.5830   29.7170   43.6100 C   0  0  0  0  0  0  0  0  0  0  0  0
   56.5400   30.8740   43.5350 C   0  0  0  0  0  0  0  0  0  0  0  0
   57.1050   31.2480   42.3030 C   0  0  0  0  0  0  0  0  0  0  0  0
   58.0370   32.2870   42.2430 C   0  0  0  0  0  0  0  0  0  0  0  0
   58.4220   32.9530   43.4110 C   0  0  0  0  0  0  0  0  0  0  0  0
   57.8770   32.5760   44.6410 C   0  0  0  0  0  0  0  0  0  0  0  0
   56.9410   31.5380   44.7060 C   0  0  0  0  0  0  0  0  0  0  0  0
   56.5320   26.9390   45.8240 C   0  0  0  0  0  0  0  0  0  0  0  0
   55.3620   26.5110   46.0020 O   0  0  0  0  0  0  0  0  0  0  0  0
   57.5850   26.1530   46.1650 N   0  0  0  0  0  0  0  0  0  0  0  0
   58.8770   26.5370   45.9770 C   0  0  0  0  0  0  0  0  0  0  0  0
   59.9680   25.5930   46.3910 C   0  0  0  0  0  0  0  0  0  0  0  0
   60.7493   29.3973   47.0110 H   0  0  0  0  0  0  0  0  0  0  0  0
   61.7675   30.0138   45.6657 H   0  0  0  0  0  0  0  0  0  0  0  0
   59.9975   30.3202   45.6657 H   0  0  0  0  0  0  0  0  0  0  0  0
   60.7197   28.4793   44.0910 H   0  0  0  0  0  0  0  0  0  0  0  0
   61.2676   27.5430   45.5352 H   0  0  0  0  0  0  0  0  0  0  0  0
   58.2645   29.5900   44.5583 H   0  0  0  0  0  0  0  0  0  0  0  0
   54.7720   28.9590   45.4420 H   0  0  0  0  0  0  0  0  0  0  0  0
   55.8379   28.9811   42.8331 H   0  0  0  0  0  0  0  0  0  0  0  0
   54.5577   30.0825   43.4516 H   0  0  0  0  0  0  0  0  0  0  0  0
   56.8122   30.7206   41.3831 H   0  0  0  0  0  0  0  0  0  0  0  0
   58.4689   32.5818   41.2752 H   0  0  0  0  0  0  0  0  0  0  0  0
   59.1534   33.7731   43.3613 H   0  0  0  0  0  0  0  0  0  0  0  0
   58.1844   33.0963   45.5601 H   0  0  0  0  0  0  0  0  0  0  0  0
   56.5179   31.2411   45.6770 H   0  0  0  0  0  0  0  0  0  0  0  0
   60.0182   25.5496   47.4890 H   0  0  0  0  0  0  0  0  0  0  0  0
   59.7550   24.5896   45.9937 H   0  0  0  0  0  0  0  0  0  0  0  0
   60.9304   25.9480   45.9937 H   0  0  0  0  0  0  0  0  0  0  0  0
  1  2  1  0
  2  3  1  0
  3  4  1  0
  4  5  2  0
  5  6  1  0
  6  7  1  0
  7  8  1  0
  8  9  2  0
  9 10  1  0
 10 11  2  0
 11 12  1  0
 12 13  2  0
  5 14  1  0
 14 15  2  0
 14 16  1  0
 16 17  1  0
 17 18  1  0
 17  3  2  0
 13  8  1  0
  1 19  1  0
  1 20  1  0
  1 21  1  0
  2 22  1  0
  2 23  1  0
  4 24  1  0
  6 25  1  0
  7 26  1  0
  7 27  1  0
  9 28  1  0
 10 29  1  0
 11 30  1  0
 12 31  1  0
 13 32  1  0
 18 33  1  0
 18 34  1  0
 18 35  1  0
M  CHG  1  16  -1
M  END
>  <UniqueID>  (35) 
34

>  <SMILES>  (35) 
CCc1cc(NCc2ccccc2)c(=O)[n-]c1C

>  <Energy>  (35) 
35.48269625396346

>  <Genealogy>  (35) 
CCc1cc(NCc2ccccc2)c(=O)[n-]c1C (protonated)
CCc1cc(NCc2ccccc2)c(=O)[n-]c1C (3D coordinates assigned)
CCc1cc(NCc2ccccc2)c(=O)[n-]c1C (optimized conformer: 35.48269625396346 kcal/mol)

>  <smiles>  (35) 
CCc1cc(NCc2ccccc2)c(=O)[nH]c1C

>  <score_type>  (35) 
oracle

>  <origin>  (35) 
adg

>  <m_score__min__energy>  (35) 
-9.1099999999999994

>  <m_primary>  (35) 
energy

$$$$
35:0
     RDKit          3D

 46 49  0  0  0  0  0  0  0  0999 V2000
   58.7370   25.4550   46.5210 O   0  0  0  0  0  0  0  0  0  0  0  0
   59.3480   26.5590   46.5170 C   0  0  0  0  0  0  0  0  0  0  0  0
   60.7730   26.6340   46.9680 C   0  0  0  0  0  0  0  0  0  0  0  0
   60.8910   27.2970   48.2080 O   0  0  0  0  0  0  0  0  0  0  0  0
   60.4740   28.6650   48.2280 C   0  0  2  0  0  0  0  0  0  0  0  0
   59.1940   28.8290   49.0720 C   0  0  0  0  0  0  0  0  0  0  0  0
   58.8290   30.3100   49.2310 C   0  0  0  0  0  0  0  0  0  0  0  0
   58.7400   30.9640   47.9110 N   0  0  0  0  0  0  0  0  0  0  0  0
   58.1710   32.3280   47.9880 C   0  0  0  0  0  0  0  0  0  0  0  0
   58.4920   33.1840   46.7920 C   0  0  0  0  0  0  0  0  0  0  0  0
   59.2430   34.3520   46.8010 C   0  0  0  0  0  0  0  0  0  0  0  0
   59.3780   34.9320   45.5350 C   0  0  0  0  0  0  0  0  0  0  0  0
   58.7320   34.2280   44.5270 C   0  0  0  0  0  0  0  0  0  0  0  0
   57.9930   32.8810   45.2130 S   0  0  0  0  0  0  0  0  0  0  0  0
   60.0400   30.9280   47.2120 C   0  0  0  0  0  0  0  0  0  0  0  0
   60.4080   29.4670   46.8780 C   0  0  2  0  0  0  0  0  0  0  0  0
   59.4710   28.9320   45.7450 C   0  0  0  0  0  0  0  0  0  0  0  0
   58.6710   27.7690   46.1450 N   0  0  0  0  0  0  0  0  0  0  0  0
   57.2100   27.8090   46.0240 C   0  0  0  0  0  0  0  0  0  0  0  0
   56.8120   28.7560   44.9380 C   0  0  0  0  0  0  0  0  0  0  0  0
   57.2930   28.7530   43.6450 C   0  0  0  0  0  0  0  0  0  0  0  0
   56.6760   29.8150   43.0190 C   0  0  0  0  0  0  0  0  0  0  0  0
   55.8640   30.4010   43.9690 C   0  0  0  0  0  0  0  0  0  0  0  0
   55.9680   29.7490   45.1040 O   0  0  0  0  0  0  0  0  0  0  0  0
   61.1694   25.6130   47.0699 H   0  0  0  0  0  0  0  0  0  0  0  0
   61.3418   27.2031   46.2180 H   0  0  0  0  0  0  0  0  0  0  0  0
   61.3285   29.1651   48.7072 H   0  0  0  0  0  0  0  0  0  0  0  0
   58.3647   28.3052   48.5740 H   0  0  0  0  0  0  0  0  0  0  0  0
   59.3741   28.4025   50.0698 H   0  0  0  0  0  0  0  0  0  0  0  0
   57.8580   30.3909   49.7415 H   0  0  0  0  0  0  0  0  0  0  0  0
   59.6109   30.8079   49.8232 H   0  0  0  0  0  0  0  0  0  0  0  0
   57.0774   32.2442   48.0721 H   0  0  0  0  0  0  0  0  0  0  0  0
   58.6222   32.8164   48.8643 H   0  0  0  0  0  0  0  0  0  0  0  0
   59.6873   34.7786   47.7124 H   0  0  0  0  0  0  0  0  0  0  0  0
   59.9428   35.8586   45.3549 H   0  0  0  0  0  0  0  0  0  0  0  0
   58.7077   34.5038   43.4624 H   0  0  0  0  0  0  0  0  0  0  0  0
   59.9714   31.5102   46.2812 H   0  0  0  0  0  0  0  0  0  0  0  0
   60.8157   31.3609   47.8608 H   0  0  0  0  0  0  0  0  0  0  0  0
   61.4084   29.3482   46.4362 H   0  0  0  0  0  0  0  0  0  0  0  0
   58.7860   29.7404   45.4495 H   0  0  0  0  0  0  0  0  0  0  0  0
   60.1185   28.6088   44.9166 H   0  0  0  0  0  0  0  0  0  0  0  0
   56.8368   26.8024   45.7843 H   0  0  0  0  0  0  0  0  0  0  0  0
   56.7783   28.1503   46.9764 H   0  0  0  0  0  0  0  0  0  0  0  0
   58.0168   28.0507   43.2058 H   0  0  0  0  0  0  0  0  0  0  0  0
   56.8048   30.1315   41.9734 H   0  0  0  0  0  0  0  0  0  0  0  0
   55.2261   31.2812   43.8007 H   0  0  0  0  0  0  0  0  0  0  0  0
  1  2  2  0
  2  3  1  0
  3  4  1  0
  4  5  1  0
  5  6  1  0
  6  7  1  0
  7  8  1  0
  8  9  1  0
  9 10  1  0
 10 11  2  0
 11 12  1  0
 12 13  2  0
 13 14  1  0
  8 15  1  0
 15 16  1  0
 16 17  1  0
 17 18  1  0
 18 19  1  0
 19 20  1  0
 20 21  2  0
 21 22  1  0
 22 23  2  0
 23 24  1  0
 18  2  1  0
 24 20  1  0
 16  5  1  0
 14 10  1  0
  3 25  1  0
  3 26  1  0
  5 27  1  1
  6 28  1  0
  6 29  1  0
  7 30  1  0
  7 31  1  0
  9 32  1  0
  9 33  1  0
 11 34  1  0
 12 35  1  0
 13 36  1  0
 15 37  1  0
 15 38  1  0
 16 39  1  6
 17 40  1  0
 17 41  1  0
 19 42  1  0
 19 43  1  0
 21 44  1  0
 22 45  1  0
 23 46  1  0
M  END
>  <UniqueID>  (36) 
35

>  <SMILES>  (36) 
O=C1CO[C@@H]2CCN(Cc3cccs3)C[C@@H]2CN1Cc1ccco1

>  <Energy>  (36) 
119.34454842832999

>  <Genealogy>  (36) 
O=C1CO[C@@H]2CCN(Cc3cccs3)C[C@@H]2CN1Cc1ccco1 (chirality)
O=C1CO[C@@H]2CCN(Cc3cccs3)C[C@@H]2CN1Cc1ccco1 (3D coordinates assigned)
O=C1CO[C@@H]2CCN(Cc3cccs3)C[C@@H]2CN1Cc1ccco1 (nonaromatic ring conformer: 119.34454842832999 kcal/mol)

>  <smiles>  (36) 
O=C1COC2CCN(Cc3cccs3)CC2CN1Cc1ccco1

>  <score_type>  (36) 
oracle

>  <origin>  (36) 
adg

>  <m_score__min__energy>  (36) 
-6.5

>  <m_primary>  (36) 
energy

$$$$
36:0
     RDKit          3D

 15 16  0  0  0  0  0  0  0  0999 V2000
   60.6190   28.2090   45.2090 C   0  0  0  0  0  0  0  0  0  0  0  0
   59.2510   28.4330   44.6570 C   0  0  0  0  0  0  0  0  0  0  0  0
   58.5380   27.5100   43.9540 N   0  0  0  0  0  0  0  0  0  0  0  0
   57.4100   28.1090   43.5670 N   0  0  0  0  0  0  0  0  0  0  0  0
   57.4760   29.3620   44.0310 C   0  0  0  0  0  0  0  0  0  0  0  0
   56.4810   30.7070   43.9040 S   0  0  0  0  0  0  0  0  0  0  0  0
   57.6160   31.6400   44.7960 C   0  0  0  0  0  0  0  0  0  0  0  0
   57.3940   33.4840   45.2270 Br  0  0  0  0  0  0  0  0  0  0  0  0
   58.7260   30.8580   45.1460 C   0  0  0  0  0  0  0  0  0  0  0  0
   58.5840   29.5960   44.6920 N   0  0  0  0  0  0  0  0  0  0  0  0
   60.5765   28.2160   46.3082 H   0  0  0  0  0  0  0  0  0  0  0  0
   60.9994   27.2366   44.8629 H   0  0  0  0  0  0  0  0  0  0  0  0
   61.2896   29.0093   44.8629 H   0  0  0  0  0  0  0  0  0  0  0  0
   56.6510   27.6700   42.9990 H   0  0  0  0  0  0  0  0  0  0  0  0
   59.5943   31.2240   45.7135 H   0  0  0  0  0  0  0  0  0  0  0  0
  1  2  1  0
  2  3  2  0
  3  4  1  0
  4  5  2  0
  5  6  1  0
  6  7  1  0
  7  8  1  0
  7  9  2  0
  9 10  1  0
 10  2  1  0
 10  5  1  0
  1 11  1  0
  1 12  1  0
  1 13  1  0
  4 14  1  0
  9 15  1  0
M  CHG  1   4   1
M  END
>  <UniqueID>  (37) 
36

>  <SMILES>  (37) 
Cc1n[nH+]c2sc(Br)cn12

>  <Energy>  (37) 
101.58594820681765

>  <Genealogy>  (37) 
Cc1n[nH+]c2sc(Br)cn12 (protonated)
Cc1n[nH+]c2sc(Br)cn12 (3D coordinates assigned)
Cc1n[nH+]c2sc(Br)cn12 (optimized conformer: 101.58594820681765 kcal/mol)

>  <smiles>  (37) 
Cc1nnc2sc(Br)cn12

>  <score_type>  (37) 
oracle

>  <origin>  (37) 
adg

>  <m_score__min__energy>  (37) 
-3.9399999999999999

>  <m_primary>  (37) 
energy

$$$$
37:0
     RDKit          3D

 45 48  0  0  0  0  0  0  0  0999 V2000
   59.2480   32.7610   50.0920 C   0  0  0  0  0  0  0  0  0  0  0  0
   60.0510   33.2610   49.0280 O   0  0  0  0  0  0  0  0  0  0  0  0
   59.5790   33.5380   47.7350 C   0  0  0  0  0  0  0  0  0  0  0  0
   58.2210   33.8170   47.4830 C   0  0  0  0  0  0  0  0  0  0  0  0
   57.7920   34.1300   46.1910 C   0  0  0  0  0  0  0  0  0  0  0  0
   58.7090   34.1740   45.1400 C   0  0  0  0  0  0  0  0  0  0  0  0
   60.0560   33.8930   45.3750 C   0  0  0  0  0  0  0  0  0  0  0  0
   60.4970   33.5590   46.6660 C   0  0  0  0  0  0  0  0  0  0  0  0
   61.8830   33.2540   46.8810 N   0  0  0  0  0  0  0  0  0  0  0  0
   62.9500   33.9080   46.3790 C   0  0  0  0  0  0  0  0  0  0  0  0
   64.1040   33.2910   46.7120 N   0  0  0  0  0  0  0  0  0  0  0  0
   63.7660   32.2290   47.4250 N   0  0  0  0  0  0  0  0  0  0  0  0
   62.4280   32.2010   47.5220 C   0  0  0  0  0  0  0  0  0  0  0  0
   61.5110   30.8560   48.2780 S   0  0  0  0  0  0  0  0  0  0  0  0
   61.0870   30.0920   46.6770 C   0  0  0  0  0  0  0  0  0  0  0  0
   60.1380   28.9420   46.8680 C   0  0  0  0  0  0  0  0  0  0  0  0
   60.2320   28.2540   47.9200 O   0  0  0  0  0  0  0  0  0  0  0  0
   59.1670   28.5690   45.8750 N   0  0  0  0  0  0  0  0  0  0  0  0
   59.0880   27.2110   45.3310 C   0  0  0  0  0  0  0  0  0  0  0  0
   58.1880   27.3000   44.0750 C   0  0  0  0  0  0  0  0  0  0  0  0
   57.7560   28.7230   44.0620 C   0  0  0  0  0  0  0  0  0  0  0  0
   56.8660   29.3350   43.1770 C   0  0  0  0  0  0  0  0  0  0  0  0
   56.5420   30.6850   43.3800 C   0  0  0  0  0  0  0  0  0  0  0  0
   57.0900   31.3870   44.4680 C   0  0  0  0  0  0  0  0  0  0  0  0
   57.9770   30.7480   45.3490 C   0  0  0  0  0  0  0  0  0  0  0  0
   58.3230   29.4140   45.1000 C   0  0  0  0  0  0  0  0  0  0  0  0
   59.6991   33.0419   51.0551 H   0  0  0  0  0  0  0  0  0  0  0  0
   58.2375   33.1898   50.0215 H   0  0  0  0  0  0  0  0  0  0  0  0
   59.1870   31.6650   50.0215 H   0  0  0  0  0  0  0  0  0  0  0  0
   57.4945   33.7882   48.3085 H   0  0  0  0  0  0  0  0  0  0  0  0
   56.7294   34.3422   46.0017 H   0  0  0  0  0  0  0  0  0  0  0  0
   58.3701   34.4304   44.1254 H   0  0  0  0  0  0  0  0  0  0  0  0
   60.7761   33.9334   44.5444 H   0  0  0  0  0  0  0  0  0  0  0  0
   62.8883   34.8259   45.7759 H   0  0  0  0  0  0  0  0  0  0  0  0
   64.4380   31.5280   47.8080 H   0  0  0  0  0  0  0  0  0  0  0  0
   60.6137   30.8466   46.0316 H   0  0  0  0  0  0  0  0  0  0  0  0
   62.0094   29.7140   46.2119 H   0  0  0  0  0  0  0  0  0  0  0  0
   60.0907   26.8513   45.0568 H   0  0  0  0  0  0  0  0  0  0  0  0
   58.6768   26.5070   46.0694 H   0  0  0  0  0  0  0  0  0  0  0  0
   58.7553   27.0524   43.1657 H   0  0  0  0  0  0  0  0  0  0  0  0
   57.3442   26.5948   44.1000 H   0  0  0  0  0  0  0  0  0  0  0  0
   56.4288   28.7715   42.3396 H   0  0  0  0  0  0  0  0  0  0  0  0
   55.8576   31.1954   42.6863 H   0  0  0  0  0  0  0  0  0  0  0  0
   56.8226   32.4417   44.6297 H   0  0  0  0  0  0  0  0  0  0  0  0
   58.3912   31.2835   46.2160 H   0  0  0  0  0  0  0  0  0  0  0  0
  1  2  1  0
  2  3  1  0
  3  4  2  0
  4  5  1  0
  5  6  2  0
  6  7  1  0
  7  8  2  0
  8  9  1  0
  9 10  1  0
 10 11  2  0
 11 12  1  0
 12 13  2  0
 13 14  1  0
 14 15  1  0
 15 16  1  0
 16 17  2  0
 16 18  1  0
 18 19  1  0
 19 20  1  0
 20 21  1  0
 21 22  2  0
 22 23  1  0
 23 24  2  0
 24 25  1  0
 25 26  2  0
  8  3  1  0
 13  9  1  0
 26 18  1  0
 26 21  1  0
  1 27  1  0
  1 28  1  0
  1 29  1  0
  4 30  1  0
  5 31  1  0
  6 32  1  0
  7 33  1  0
 10 34  1  0
 12 35  1  0
 15 36  1  0
 15 37  1  0
 19 38  1  0
 19 39  1  0
 20 40  1  0
 20 41  1  0
 22 42  1  0
 23 43  1  0
 24 44  1  0
 25 45  1  0
M  CHG  1  12   1
M  END
>  <UniqueID>  (38) 
37

>  <SMILES>  (38) 
COc1ccccc1-n1cn[nH+]c1SCC(=O)N1CCc2ccccc21

>  <Energy>  (38) 
103.20626852843553

>  <Genealogy>  (38) 
COc1ccccc1-n1cn[nH+]c1SCC(=O)N1CCc2ccccc21 (protonated)
COc1ccccc1-n1cn[nH+]c1SCC(=O)N1CCc2ccccc21 (3D coordinates assigned)
COc1ccccc1-n1cn[nH+]c1SCC(=O)N1CCc2ccccc21 (nonaromatic ring conformer: 103.20626852843553 kcal/mol)

>  <smiles>  (38) 
COc1ccccc1-n1cnnc1SCC(=O)N1CCc2ccccc21

>  <score_type>  (38) 
oracle

>  <origin>  (38) 
adg

>  <m_score__min__energy>  (38) 
-7

>  <m_primary>  (38) 
energy

$$$$
38:0
     RDKit          3D

 47 49  0  0  0  0  0  0  0  0999 V2000
   56.6750   26.6620   45.8200 C   0  0  0  0  0  0  0  0  0  0  0  0
   55.9320   27.8520   45.5740 O   0  0  0  0  0  0  0  0  0  0  0  0
   56.4690   29.0280   45.0250 C   0  0  0  0  0  0  0  0  0  0  0  0
   55.9380   29.6230   43.8660 C   0  0  0  0  0  0  0  0  0  0  0  0
   56.4990   30.7930   43.3510 C   0  0  0  0  0  0  0  0  0  0  0  0
   57.6150   31.3780   43.9700 C   0  0  0  0  0  0  0  0  0  0  0  0
   58.1970   32.6430   43.4690 C   0  0  0  0  0  0  0  0  0  0  0  0
   58.2640   33.7950   44.1570 C   0  0  0  0  0  0  0  0  0  0  0  0
   58.1320   33.9100   45.6310 C   0  0  0  0  0  0  0  0  0  0  0  0
   56.9990   34.1550   46.1280 O   0  0  0  0  0  0  0  0  0  0  0  0
   59.2960   33.7630   46.5450 C   0  0  0  0  0  0  0  0  0  0  0  0
   60.6270   33.8870   46.0950 C   0  0  0  0  0  0  0  0  0  0  0  0
   61.6960   33.7460   46.9850 C   0  0  0  0  0  0  0  0  0  0  0  0
   61.4610   33.4870   48.3460 C   0  0  0  0  0  0  0  0  0  0  0  0
   62.5470   33.3130   49.2720 N   0  0  0  0  0  0  0  0  0  0  0  0
   63.8820   32.9560   48.8740 C   0  0  0  0  0  0  0  0  0  0  0  0
   64.2440   33.0980   47.6750 O   0  0  0  0  0  0  0  0  0  0  0  0
   64.8560   32.4570   49.8590 C   0  0  0  0  0  0  0  0  0  0  0  0
   64.6920   31.3720   50.7180 C   0  0  0  0  0  0  0  0  0  0  0  0
   65.8150   31.1260   51.5180 C   0  0  0  0  0  0  0  0  0  0  0  0
   66.8660   32.0060   51.2950 C   0  0  0  0  0  0  0  0  0  0  0  0
   66.3980   33.0900   50.0980 S   0  0  0  0  0  0  0  0  0  0  0  0
   60.1420   33.3430   48.7940 C   0  0  0  0  0  0  0  0  0  0  0  0
   59.0710   33.4910   47.9080 C   0  0  0  0  0  0  0  0  0  0  0  0
   58.1270   30.8060   45.1420 C   0  0  0  0  0  0  0  0  0  0  0  0
   57.5660   29.6240   45.6700 C   0  0  0  0  0  0  0  0  0  0  0  0
   58.0680   29.0150   46.8320 O   0  0  0  0  0  0  0  0  0  0  0  0
   59.2050   29.4730   47.5580 C   0  0  0  0  0  0  0  0  0  0  0  0
   56.7714   26.5076   46.9048 H   0  0  0  0  0  0  0  0  0  0  0  0
   56.1519   25.8040   45.3726 H   0  0  0  0  0  0  0  0  0  0  0  0
   57.6755   26.7554   45.3726 H   0  0  0  0  0  0  0  0  0  0  0  0
   55.0750   29.1632   43.3622 H   0  0  0  0  0  0  0  0  0  0  0  0
   56.0640   31.2594   42.4548 H   0  0  0  0  0  0  0  0  0  0  0  0
   58.6088   32.6398   42.4490 H   0  0  0  0  0  0  0  0  0  0  0  0
   58.4287   34.7208   43.5862 H   0  0  0  0  0  0  0  0  0  0  0  0
   60.8259   34.0967   45.0336 H   0  0  0  0  0  0  0  0  0  0  0  0
   62.7285   33.8385   46.6172 H   0  0  0  0  0  0  0  0  0  0  0  0
   62.3800   33.5670   50.2720 H   0  0  0  0  0  0  0  0  0  0  0  0
   63.7729   30.7693   50.7632 H   0  0  0  0  0  0  0  0  0  0  0  0
   65.8604   30.3108   52.2551 H   0  0  0  0  0  0  0  0  0  0  0  0
   67.8368   31.9956   51.8121 H   0  0  0  0  0  0  0  0  0  0  0  0
   59.9472   33.1116   49.8516 H   0  0  0  0  0  0  0  0  0  0  0  0
   58.0404   33.3938   48.2800 H   0  0  0  0  0  0  0  0  0  0  0  0
   58.9747   31.2831   45.6556 H   0  0  0  0  0  0  0  0  0  0  0  0
   59.0074   29.3934   48.6372 H   0  0  0  0  0  0  0  0  0  0  0  0
   60.0783   28.8565   47.2987 H   0  0  0  0  0  0  0  0  0  0  0  0
   59.4072   30.5227   47.2987 H   0  0  0  0  0  0  0  0  0  0  0  0
  1  2  1  0
  2  3  1  0
  3  4  2  0
  4  5  1  0
  5  6  2  0
  6  7  1  0
  7  8  2  3
  8  9  1  0
  9 10  2  0
  9 11  1  0
 11 12  2  0
 12 13  1  0
 13 14  2  0
 14 15  1  0
 15 16  1  0
 16 17  2  0
 16 18  1  0
 18 19  2  0
 19 20  1  0
 20 21  2  0
 21 22  1  0
 14 23  1  0
 23 24  2  0
  6 25  1  0
 25 26  2  0
 26 27  1  0
 27 28  1  0
 26  3  1  0
 24 11  1  0
 22 18  1  0
  1 29  1  0
  1 30  1  0
  1 31  1  0
  4 32  1  0
  5 33  1  0
  7 34  1  0
  8 35  1  0
 12 36  1  0
 13 37  1  0
 15 38  1  0
 19 39  1  0
 20 40  1  0
 21 41  1  0
 23 42  1  0
 24 43  1  0
 25 44  1  0
 28 45  1  0
 28 46  1  0
 28 47  1  0
M  END
>  <UniqueID>  (39) 
38

>  <SMILES>  (39) 
COc1ccc(C=CC(=O)c2ccc(NC(=O)c3cccs3)cc2)cc1OC

>  <Energy>  (39) 
89.35858792413293

>  <Genealogy>  (39) 
COc1ccc(C=CC(=O)c2ccc(NC(=O)c3cccs3)cc2)cc1OC (3D coordinates assigned)
COc1ccc(C=CC(=O)c2ccc(NC(=O)c3cccs3)cc2)cc1OC (optimized conformer: 89.35858792413293 kcal/mol)

>  <smiles>  (39) 
COc1ccc(C=CC(=O)c2ccc(NC(=O)c3cccs3)cc2)cc1OC

>  <score_type>  (39) 
oracle

>  <origin>  (39) 
adg

>  <m_score__min__energy>  (39) 
-8.4399999999999995

>  <m_primary>  (39) 
energy

$$$$
39:0
     RDKit          3D

 35 37  0  0  0  0  0  0  0  0999 V2000
   59.7500   33.9250   48.5620 C   0  0  0  0  0  0  0  0  0  0  0  0
   58.6770   33.1940   47.9770 O   0  0  0  0  0  0  0  0  0  0  0  0
   58.4840   33.0350   46.5960 C   0  0  0  0  0  0  0  0  0  0  0  0
   59.0460   33.9820   45.7360 C   0  0  0  0  0  0  0  0  0  0  0  0
   58.8990   33.8650   44.3540 C   0  0  0  0  0  0  0  0  0  0  0  0
   58.1720   32.7990   43.8080 C   0  0  0  0  0  0  0  0  0  0  0  0
   58.0570   32.6660   42.4170 C   0  0  0  0  0  0  0  0  0  0  0  0
   57.3590   31.5900   41.8690 C   0  0  0  0  0  0  0  0  0  0  0  0
   56.7510   30.6500   42.7020 C   0  0  0  0  0  0  0  0  0  0  0  0
   56.8190   30.7800   44.0940 C   0  0  0  0  0  0  0  0  0  0  0  0
   56.1350   29.8090   44.8960 N   0  0  0  0  0  0  0  0  0  0  0  0
   56.7780   28.6830   45.5060 C   0  0  0  0  0  0  0  0  0  0  0  0
   56.1610   27.5860   45.6030 O   0  0  0  0  0  0  0  0  0  0  0  0
   58.1660   28.8010   46.0110 C   0  0  0  0  0  0  0  0  0  0  0  0
   59.2530   28.8370   45.1230 C   0  0  0  0  0  0  0  0  0  0  0  0
   60.5530   28.9520   45.6220 C   0  0  0  0  0  0  0  0  0  0  0  0
   60.7670   29.0310   46.9620 N   0  0  0  0  0  0  0  0  0  0  0  0
   59.7350   29.0000   47.8480 C   0  0  0  0  0  0  0  0  0  0  0  0
   58.4200   28.8850   47.3910 C   0  0  0  0  0  0  0  0  0  0  0  0
   57.5650   31.8420   44.6640 C   0  0  0  0  0  0  0  0  0  0  0  0
   57.7520   31.9600   46.0560 C   0  0  0  0  0  0  0  0  0  0  0  0
   59.6742   33.8733   49.6582 H   0  0  0  0  0  0  0  0  0  0  0  0
   60.7080   33.4909   48.2399 H   0  0  0  0  0  0  0  0  0  0  0  0
   59.6966   34.9754   48.2399 H   0  0  0  0  0  0  0  0  0  0  0  0
   59.6104   34.8289   46.1534 H   0  0  0  0  0  0  0  0  0  0  0  0
   59.3560   34.6132   43.6896 H   0  0  0  0  0  0  0  0  0  0  0  0
   58.5191   33.4133   41.7552 H   0  0  0  0  0  0  0  0  0  0  0  0
   57.2876   31.4820   40.7766 H   0  0  0  0  0  0  0  0  0  0  0  0
   56.2129   29.7983   42.2603 H   0  0  0  0  0  0  0  0  0  0  0  0
   59.0817   28.7749   44.0382 H   0  0  0  0  0  0  0  0  0  0  0  0
   61.4061   28.9787   44.9281 H   0  0  0  0  0  0  0  0  0  0  0  0
   61.7440   29.1180   47.3200 H   0  0  0  0  0  0  0  0  0  0  0  0
   59.9367   29.0657   48.9274 H   0  0  0  0  0  0  0  0  0  0  0  0
   57.5864   28.8603   48.1083 H   0  0  0  0  0  0  0  0  0  0  0  0
   57.3211   31.2036   46.7284 H   0  0  0  0  0  0  0  0  0  0  0  0
  1  2  1  0
  2  3  1  0
  3  4  2  0
  4  5  1  0
  5  6  2  0
  6  7  1  0
  7  8  2  0
  8  9  1  0
  9 10  2  0
 10 11  1  0
 11 12  1  0
 12 13  2  0
 12 14  1  0
 14 15  2  0
 15 16  1  0
 16 17  2  0
 17 18  1  0
 18 19  2  0
 10 20  1  0
 20 21  2  0
 21  3  1  0
 20  6  1  0
 19 14  1  0
  1 22  1  0
  1 23  1  0
  1 24  1  0
  4 25  1  0
  5 26  1  0
  7 27  1  0
  8 28  1  0
  9 29  1  0
 15 30  1  0
 16 31  1  0
 17 32  1  0
 18 33  1  0
 19 34  1  0
 21 35  1  0
M  CHG  2  11  -1  17   1
M  END
>  <UniqueID>  (40) 
39

>  <SMILES>  (40) 
COc1ccc2cccc([N-]C(=O)c3cc[nH+]cc3)c2c1

>  <Energy>  (40) 
48.681748614898154

>  <Genealogy>  (40) 
COc1ccc2cccc([N-]C(=O)c3cc[nH+]cc3)c2c1 (protonated)
COc1ccc2cccc([N-]C(=O)c3cc[nH+]cc3)c2c1 (3D coordinates assigned)
COc1ccc2cccc([N-]C(=O)c3cc[nH+]cc3)c2c1 (optimized conformer: 48.681748614898154 kcal/mol)

>  <smiles>  (40) 
COc1ccc2cccc(NC(=O)c3ccncc3)c2c1

>  <score_type>  (40) 
oracle

>  <origin>  (40) 
adg

>  <m_score__min__energy>  (40) 
-7.6500000000000004

>  <m_primary>  (40) 
energy

$$$$
40:0
     RDKit          3D

 45 48  0  0  0  0  0  0  0  0999 V2000
   56.2520   30.1150   42.5350 C   0  0  0  0  0  0  0  0  0  0  0  0
   56.4440   30.9420   43.6790 O   0  0  0  0  0  0  0  0  0  0  0  0
   57.1070   30.5410   44.8500 C   0  0  0  0  0  0  0  0  0  0  0  0
   58.1420   31.3030   45.4260 C   0  0  0  0  0  0  0  0  0  0  0  0
   58.7580   30.9070   46.6350 C   0  0  0  0  0  0  0  0  0  0  0  0
   58.4360   29.6260   47.1480 C   0  0  0  0  0  0  0  0  0  0  0  0
   59.1880   29.0810   48.1870 C   0  0  0  0  0  0  0  0  0  0  0  0
   60.3140   29.7420   48.6610 C   0  0  0  0  0  0  0  0  0  0  0  0
   60.6590   31.0280   48.1880 C   0  0  0  0  0  0  0  0  0  0  0  0
   61.8430   31.6980   48.6050 C   0  0  0  0  0  0  0  0  0  0  0  0
   62.8670   31.0690   49.3540 C   0  0  0  0  0  0  0  0  0  0  0  0
   64.0280   31.7690   49.7340 C   0  0  0  0  0  0  0  0  0  0  0  0
   65.0540   31.1670   50.4820 O   0  0  0  0  0  0  0  0  0  0  0  0
   64.8500   30.3740   51.6470 C   0  0  0  0  0  0  0  0  0  0  0  0
   64.1860   33.1080   49.3620 C   0  0  0  0  0  0  0  0  0  0  0  0
   65.3540   33.7780   49.7620 O   0  0  0  0  0  0  0  0  0  0  0  0
   65.8390   33.8290   51.1000 C   0  0  0  0  0  0  0  0  0  0  0  0
   63.1880   33.7390   48.6040 C   0  0  0  0  0  0  0  0  0  0  0  0
   62.0320   33.0420   48.2210 C   0  0  0  0  0  0  0  0  0  0  0  0
   61.0370   33.6990   47.4980 C   0  0  0  0  0  0  0  0  0  0  0  0
   59.8980   33.0570   47.1100 N   0  0  0  0  0  0  0  0  0  0  0  0
   58.7890   33.9290   46.6830 C   0  0  0  0  0  0  0  0  0  0  0  0
   59.7680   31.6890   47.2860 C   0  0  0  0  0  0  0  0  0  0  0  0
   57.3950   28.8750   46.5810 C   0  0  0  0  0  0  0  0  0  0  0  0
   56.7250   29.3410   45.4510 C   0  0  0  0  0  0  0  0  0  0  0  0
   55.6910   28.5870   44.9070 O   0  0  0  0  0  0  0  0  0  0  0  0
   56.0142   29.0909   42.8586 H   0  0  0  0  0  0  0  0  0  0  0  0
   55.4219   30.5109   41.9315 H   0  0  0  0  0  0  0  0  0  0  0  0
   57.1716   30.1046   41.9315 H   0  0  0  0  0  0  0  0  0  0  0  0
   58.4772   32.2235   44.9257 H   0  0  0  0  0  0  0  0  0  0  0  0
   58.8882   28.1218   48.6343 H   0  0  0  0  0  0  0  0  0  0  0  0
   60.9478   29.2561   49.4174 H   0  0  0  0  0  0  0  0  0  0  0  0
   62.7533   30.0141   49.6443 H   0  0  0  0  0  0  0  0  0  0  0  0
   65.0089   30.9915   52.5433 H   0  0  0  0  0  0  0  0  0  0  0  0
   63.8219   29.9827   51.6488 H   0  0  0  0  0  0  0  0  0  0  0  0
   65.5616   29.5352   51.6488 H   0  0  0  0  0  0  0  0  0  0  0  0
   64.9948   33.7402   51.7996 H   0  0  0  0  0  0  0  0  0  0  0  0
   66.5423   32.9999   51.2669 H   0  0  0  0  0  0  0  0  0  0  0  0
   66.3545   34.7863   51.2669 H   0  0  0  0  0  0  0  0  0  0  0  0
   63.3131   34.7907   48.3070 H   0  0  0  0  0  0  0  0  0  0  0  0
   61.1737   34.7583   47.2348 H   0  0  0  0  0  0  0  0  0  0  0  0
   58.2770   34.3316   47.5694 H   0  0  0  0  0  0  0  0  0  0  0  0
   59.1864   34.7591   46.0805 H   0  0  0  0  0  0  0  0  0  0  0  0
   58.0761   33.3470   46.0805 H   0  0  0  0  0  0  0  0  0  0  0  0
   57.1062   27.9135   47.0306 H   0  0  0  0  0  0  0  0  0  0  0  0
  1  2  1  0
  2  3  1  0
  3  4  2  0
  4  5  1  0
  5  6  2  0
  6  7  1  0
  7  8  2  0
  8  9  1  0
  9 10  2  0
 10 11  1  0
 11 12  2  0
 12 13  1  0
 13 14  1  0
 12 15  1  0
 15 16  1  0
 16 17  1  0
 15 18  2  0
 18 19  1  0
 19 20  2  0
 20 21  1  0
 21 22  1  0
 21 23  2  0
  6 24  1  0
 24 25  2  0
 25 26  1  0
 25  3  1  0
 23  5  1  0
 23  9  1  0
 19 10  1  0
  1 27  1  0
  1 28  1  0
  1 29  1  0
  4 30  1  0
  7 31  1  0
  8 32  1  0
 11 33  1  0
 14 34  1  0
 14 35  1  0
 14 36  1  0
 17 37  1  0
 17 38  1  0
 17 39  1  0
 18 40  1  0
 20 41  1  0
 22 42  1  0
 22 43  1  0
 22 44  1  0
 24 45  1  0
M  CHG  2  21   1  26  -1
M  END
>  <UniqueID>  (41) 
40

>  <SMILES>  (41) 
COc1cc2c(ccc3c4cc(OC)c(OC)cc4c[n+](C)c23)cc1[O-]

>  <Energy>  (41) 
82.77532369698837

>  <Genealogy>  (41) 
COc1cc2c(ccc3c4cc(OC)c(OC)cc4c[n+](C)c23)cc1[O-] (protonated)
COc1cc2c(ccc3c4cc(OC)c(OC)cc4c[n+](C)c23)cc1[O-] (3D coordinates assigned)
COc1cc2c(ccc3c4cc(OC)c(OC)cc4c[n+](C)c23)cc1[O-] (optimized conformer: 82.77532369698837 kcal/mol)

>  <smiles>  (41) 
COc1cc2c(ccc3c4cc(OC)c(OC)cc4c[n+](C)c23)cc1O

>  <score_type>  (41) 
oracle

>  <origin>  (41) 
adg

>  <m_score__min__energy>  (41) 
-7.0700000000000003

>  <m_primary>  (41) 
energy

$$$$
41:0
     RDKit          3D

 37 39  0  0  0  0  0  0  0  0999 V2000
   62.0250   34.1750   49.3450 C   0  0  0  0  0  0  0  0  0  0  0  0
   61.0040   33.9750   48.2610 C   0  0  0  0  0  0  0  0  0  0  0  0
   61.3910   33.8420   46.9160 C   0  0  0  0  0  0  0  0  0  0  0  0
   60.4220   33.6610   45.9200 C   0  0  0  0  0  0  0  0  0  0  0  0
   59.0630   33.6020   46.2590 C   0  0  0  0  0  0  0  0  0  0  0  0
   57.8520   33.3640   44.9940 S   0  0  0  0  0  0  0  0  0  0  0  0
   58.5200   33.2670   43.6480 O   0  0  0  0  0  0  0  0  0  0  0  0
   56.9310   34.5510   44.9870 O   0  0  0  0  0  0  0  0  0  0  0  0
   56.9260   31.9440   45.2570 O   0  0  0  0  0  0  0  0  0  0  0  0
   57.2550   30.6910   44.7250 C   0  0  0  0  0  0  0  0  0  0  0  0
   56.7170   30.2550   43.5000 C   0  0  0  0  0  0  0  0  0  0  0  0
   57.0190   28.9830   43.0120 C   0  0  0  0  0  0  0  0  0  0  0  0
   57.8470   28.1270   43.7410 C   0  0  0  0  0  0  0  0  0  0  0  0
   58.4150   28.5540   44.9480 C   0  0  0  0  0  0  0  0  0  0  0  0
   58.1480   29.8530   45.4330 C   0  0  0  0  0  0  0  0  0  0  0  0
   58.6900   30.2740   46.7850 C   0  0  0  0  0  0  0  0  0  0  0  0
   60.0400   29.6160   47.1140 C   0  0  0  0  0  0  0  0  0  0  0  0
   60.0060   28.1470   46.8200 C   0  0  0  0  0  0  0  0  0  0  0  0
   60.6810   27.3430   47.5220 O   0  0  0  0  0  0  0  0  0  0  0  0
   59.2700   27.6690   45.6900 N   0  0  0  0  0  0  0  0  0  0  0  0
   58.6730   33.7240   47.6030 C   0  0  0  0  0  0  0  0  0  0  0  0
   59.6390   33.9090   48.5970 C   0  0  0  0  0  0  0  0  0  0  0  0
   61.5399   34.0800   50.3277 H   0  0  0  0  0  0  0  0  0  0  0  0
   62.8140   33.4143   49.2505 H   0  0  0  0  0  0  0  0  0  0  0  0
   62.4686   35.1771   49.2505 H   0  0  0  0  0  0  0  0  0  0  0  0
   62.4564   33.8801   46.6450 H   0  0  0  0  0  0  0  0  0  0  0  0
   60.7289   33.5648   44.8681 H   0  0  0  0  0  0  0  0  0  0  0  0
   56.0557   30.9196   42.9247 H   0  0  0  0  0  0  0  0  0  0  0  0
   56.6029   28.6532   42.0486 H   0  0  0  0  0  0  0  0  0  0  0  0
   58.0539   27.1138   43.3661 H   0  0  0  0  0  0  0  0  0  0  0  0
   58.8210   31.3662   46.7870 H   0  0  0  0  0  0  0  0  0  0  0  0
   57.9674   29.9496   47.5483 H   0  0  0  0  0  0  0  0  0  0  0  0
   60.8272   30.0865   46.5066 H   0  0  0  0  0  0  0  0  0  0  0  0
   60.2461   29.7547   48.1856 H   0  0  0  0  0  0  0  0  0  0  0  0
   59.3780   26.6740   45.3910 H   0  0  0  0  0  0  0  0  0  0  0  0
   57.6079   33.6740   47.8735 H   0  0  0  0  0  0  0  0  0  0  0  0
   59.3299   34.0036   49.6484 H   0  0  0  0  0  0  0  0  0  0  0  0
  1  2  1  0
  2  3  2  0
  3  4  1  0
  4  5  2  0
  5  6  1  0
  6  7  2  0
  6  8  2  0
  6  9  1  0
  9 10  1  0
 10 11  2  0
 11 12  1  0
 12 13  2  0
 13 14  1  0
 14 15  2  0
 15 16  1  0
 16 17  1  0
 17 18  1  0
 18 19  2  0
 18 20  1  0
  5 21  1  0
 21 22  2  0
 22  2  1  0
 15 10  1  0
 20 14  1  0
  1 23  1  0
  1 24  1  0
  1 25  1  0
  3 26  1  0
  4 27  1  0
 11 28  1  0
 12 29  1  0
 13 30  1  0
 16 31  1  0
 16 32  1  0
 17 33  1  0
 17 34  1  0
 20 35  1  0
 21 36  1  0
 22 37  1  0
M  END
>  <UniqueID>  (42) 
41

>  <SMILES>  (42) 
Cc1ccc(S(=O)(=O)Oc2cccc3c2CCC(=O)N3)cc1

>  <Energy>  (42) 
41.78311478451147

>  <Genealogy>  (42) 
Cc1ccc(S(=O)(=O)Oc2cccc3c2CCC(=O)N3)cc1 (3D coordinates assigned)
Cc1ccc(S(=O)(=O)Oc2cccc3c2CCC(=O)N3)cc1 (nonaromatic ring conformer: 41.78311478451147 kcal/mol)

>  <smiles>  (42) 
Cc1ccc(S(=O)(=O)Oc2cccc3c2CCC(=O)N3)cc1

>  <score_type>  (42) 
oracle

>  <origin>  (42) 
adg

>  <m_score__min__energy>  (42) 
-7.96

>  <m_primary>  (42) 
energy

$$$$
42:0
     RDKit          3D

 30 31  0  0  0  0  0  0  0  0999 V2000
   58.8850   34.6060   45.2400 C   0  0  0  0  0  0  0  0  0  0  0  0
   59.8790   34.9350   46.3480 C   0  0  0  0  0  0  0  0  0  0  0  0
   60.6770   33.7160   46.7280 C   0  0  0  0  0  0  0  0  0  0  0  0
   60.0680   32.4520   46.7520 C   0  0  0  0  0  0  0  0  0  0  0  0
   60.8040   31.3240   47.1240 C   0  0  0  0  0  0  0  0  0  0  0  0
   62.1450   31.4500   47.4920 C   0  0  0  0  0  0  0  0  0  0  0  0
   62.7590   32.7150   47.5100 C   0  0  0  0  0  0  0  0  0  0  0  0
   64.1440   32.8680   47.8650 N   0  0  0  0  0  0  0  0  0  0  0  0
   64.6160   33.0870   49.2020 C   0  0  0  0  0  0  0  0  0  0  0  0
   63.9120   33.6390   50.1290 N   0  0  0  0  0  0  0  0  0  0  0  0
   64.7060   33.7910   51.3410 C   0  0  0  0  0  0  0  0  0  0  0  0
   66.0900   33.2270   50.9740 C   0  0  0  0  0  0  0  0  0  0  0  0
   65.9460   32.8130   49.5910 N   0  0  0  0  0  0  0  0  0  0  0  0
   62.0220   33.8410   47.1120 C   0  0  0  0  0  0  0  0  0  0  0  0
   57.9303   34.2900   45.6858 H   0  0  0  0  0  0  0  0  0  0  0  0
   58.7215   35.4979   44.6173 H   0  0  0  0  0  0  0  0  0  0  0  0
   59.2859   33.7926   44.6173 H   0  0  0  0  0  0  0  0  0  0  0  0
   60.5647   35.7200   45.9963 H   0  0  0  0  0  0  0  0  0  0  0  0
   59.3218   35.2816   47.2308 H   0  0  0  0  0  0  0  0  0  0  0  0
   59.0079   32.3488   46.4771 H   0  0  0  0  0  0  0  0  0  0  0  0
   60.3254   30.3336   47.1269 H   0  0  0  0  0  0  0  0  0  0  0  0
   62.7234   30.5563   47.7689 H   0  0  0  0  0  0  0  0  0  0  0  0
   64.8560   32.8340   47.1010 H   0  0  0  0  0  0  0  0  0  0  0  0
   62.9300   33.9780   50.0220 H   0  0  0  0  0  0  0  0  0  0  0  0
   64.7818   34.8511   51.6248 H   0  0  0  0  0  0  0  0  0  0  0  0
   64.2584   33.2698   52.2001 H   0  0  0  0  0  0  0  0  0  0  0  0
   66.8657   34.0008   51.0716 H   0  0  0  0  0  0  0  0  0  0  0  0
   66.3986   32.4017   51.6326 H   0  0  0  0  0  0  0  0  0  0  0  0
   66.6890   32.3900   48.9920 H   0  0  0  0  0  0  0  0  0  0  0  0
   62.5023   34.8306   47.1007 H   0  0  0  0  0  0  0  0  0  0  0  0
  1  2  1  0
  2  3  1  0
  3  4  2  0
  4  5  1  0
  5  6  2  0
  6  7  1  0
  7  8  1  0
  8  9  1  0
  9 10  2  0
 10 11  1  0
 11 12  1  0
 12 13  1  0
  7 14  2  0
 14  3  1  0
 13  9  1  0
  1 15  1  0
  1 16  1  0
  1 17  1  0
  2 18  1  0
  2 19  1  0
  4 20  1  0
  5 21  1  0
  6 22  1  0
  8 23  1  0
 10 24  1  0
 11 25  1  0
 11 26  1  0
 12 27  1  0
 12 28  1  0
 13 29  1  0
 14 30  1  0
M  CHG  1  10   1
M  END
>  <UniqueID>  (43) 
42

>  <SMILES>  (43) 
CCc1cccc(NC2=[NH+]CCN2)c1

>  <Energy>  (43) 
40.662038540975445

>  <Genealogy>  (43) 
CCc1cccc(NC2=[NH+]CCN2)c1 (protonated)
CCc1cccc(NC2=[NH+]CCN2)c1 (3D coordinates assigned)
CCc1cccc(NC2=[NH+]CCN2)c1 (nonaromatic ring conformer: 40.662038540975445 kcal/mol)

>  <smiles>  (43) 
CCc1cccc(NC2=NCCN2)c1

>  <score_type>  (43) 
oracle

>  <origin>  (43) 
adg

>  <m_score__min__energy>  (43) 
-4.4299999999999997

>  <m_primary>  (43) 
energy

$$$$
43:0
     RDKit          3D

 45 48  0  0  0  0  0  0  0  0999 V2000
   55.9550   31.2520   42.8780 H   0  0  0  0  0  0  0  0  0  0  0  0
   56.0000   30.2740   43.2430 N   0  0  0  0  0  0  0  0  0  0  0  0
   56.7210   29.9220   44.2630 C   0  0  0  0  0  0  0  0  0  0  0  0
   57.4210   30.8750   45.0200 C   0  0  0  0  0  0  0  0  0  0  0  0
   57.3390   32.2350   44.6690 O   0  0  0  0  0  0  0  0  0  0  0  0
   57.0170   33.3030   45.5630 C   0  0  0  0  0  0  0  0  0  0  0  0
   56.8068   34.2098   44.9769 H   0  0  0  0  0  0  0  0  0  0  0  0
   56.1368   33.0081   46.1532 H   0  0  0  0  0  0  0  0  0  0  0  0
   58.1590   33.5860   46.5170 C   0  0  0  0  0  0  0  0  0  0  0  0
   58.1420   32.9890   47.7920 C   0  0  0  0  0  0  0  0  0  0  0  0
   57.3108   32.3244   48.0702 H   0  0  0  0  0  0  0  0  0  0  0  0
   59.1680   33.2310   48.7070 C   0  0  0  0  0  0  0  0  0  0  0  0
   59.1475   32.7482   49.6952 H   0  0  0  0  0  0  0  0  0  0  0  0
   60.2180   34.0830   48.3710 C   0  0  0  0  0  0  0  0  0  0  0  0
   61.0317   34.2623   49.0892 H   0  0  0  0  0  0  0  0  0  0  0  0
   60.2380   34.7090   47.1240 C   0  0  0  0  0  0  0  0  0  0  0  0
   61.0681   35.3835   46.8670 H   0  0  0  0  0  0  0  0  0  0  0  0
   59.2090   34.4870   46.1930 C   0  0  0  0  0  0  0  0  0  0  0  0
   59.2600   35.2010   44.8670 C   0  0  0  0  0  0  0  0  0  0  0  0
   59.3374   36.2850   45.0370 H   0  0  0  0  0  0  0  0  0  0  0  0
   60.1358   34.8556   44.2980 H   0  0  0  0  0  0  0  0  0  0  0  0
   58.3440   34.9836   44.2980 H   0  0  0  0  0  0  0  0  0  0  0  0
   58.1790   30.4310   46.1100 C   0  0  0  0  0  0  0  0  0  0  0  0
   58.7415   31.1517   46.7217 H   0  0  0  0  0  0  0  0  0  0  0  0
   58.2180   29.0720   46.4170 C   0  0  0  0  0  0  0  0  0  0  0  0
   58.8810   28.6870   47.4200 O   0  0  0  0  0  0  0  0  0  0  0  0
   57.5270   28.1780   45.6430 N   0  0  0  0  0  0  0  0  0  0  0  0
   57.5590   26.7670   45.9410 C   0  0  0  0  0  0  0  0  0  0  0  0
   58.7410   26.0110   45.7240 C   0  0  0  0  0  0  0  0  0  0  0  0
   59.6424   26.5088   45.3371 H   0  0  0  0  0  0  0  0  0  0  0  0
   58.7710   24.6310   45.9990 C   0  0  0  0  0  0  0  0  0  0  0  0
   59.6836   24.0385   45.8375 H   0  0  0  0  0  0  0  0  0  0  0  0
   57.6070   24.0420   46.4820 C   0  0  0  0  0  0  0  0  0  0  0  0
   57.4090   22.7550   46.7990 N   0  0  0  0  0  0  0  0  0  0  0  0
   56.1130   22.7510   47.2070 C   0  0  0  0  0  0  0  0  0  0  0  0
   55.4040   21.5060   47.6210 C   0  0  0  0  0  0  0  0  0  0  0  0
   55.3722   21.4501   48.7191 H   0  0  0  0  0  0  0  0  0  0  0  0
   54.3780   21.5193   47.2246 H   0  0  0  0  0  0  0  0  0  0  0  0
   55.9389   20.6304   47.2246 H   0  0  0  0  0  0  0  0  0  0  0  0
   55.4940   23.9590   47.1410 N   0  0  0  0  0  0  0  0  0  0  0  0
   56.4680   24.7580   46.6840 C   0  0  0  0  0  0  0  0  0  0  0  0
   56.3970   26.1230   46.4240 C   0  0  0  0  0  0  0  0  0  0  0  0
   55.4652   26.6838   46.5892 H   0  0  0  0  0  0  0  0  0  0  0  0
   56.7970   28.6040   44.6040 N   0  0  0  0  0  0  0  0  0  0  0  0
   56.2770   27.9100   44.0180 H   0  0  0  0  0  0  0  0  0  0  0  0
  1  2  1  0
  2  3  2  0
  3  4  1  0
  4  5  1  0
  5  6  1  0
  6  7  1  0
  6  8  1  0
  6  9  1  0
  9 10  2  0
 10 11  1  0
 10 12  1  0
 12 13  1  0
 12 14  2  0
 14 15  1  0
 14 16  1  0
 16 17  1  0
 16 18  2  0
 18 19  1  0
 19 20  1  0
 19 21  1  0
 19 22  1  0
  4 23  2  0
 23 24  1  0
 23 25  1  0
 25 26  2  0
 25 27  1  0
 27 28  1  0
 28 29  2  0
 29 30  1  0
 29 31  1  0
 31 32  1  0
 31 33  2  0
 33 34  1  0
 34 35  1  0
 35 36  1  0
 36 37  1  0
 36 38  1  0
 36 39  1  0
 35 40  2  0
 40 41  1  0
 41 42  2  0
 42 43  1  0
 27 44  1  0
 44 45  1  0
 44  3  1  0
 18  9  1  0
 42 28  1  0
 41 33  1  0
M  CHG  1  34  -1
M  END
>  <UniqueID>  (44) 
43

>  <SMILES>  (44) 
[H]/N=c1/[nH]n(-c2ccc3[n-]c(C)nc3c2)c(=O)cc1OCc1ccccc1C

>  <Energy>  (44) 
93.45876586114413

>  <Genealogy>  (44) 
Cc1nc2cc(-n3[nH]c(=N)c(OCc4ccccc4C)cc3=O)ccc2[n-]1 (protonated)
[H]/N=c1/[nH]n(-c2ccc3[n-]c(C)nc3c2)c(=O)cc1OCc1ccccc1C (cis-trans isomerization)
[H]/N=c1/[nH]n(-c2ccc3[n-]c(C)nc3c2)c(=O)cc1OCc1ccccc1C (3D coordinates assigned)
[H]/N=c1/[nH]n(-c2ccc3[n-]c(C)nc3c2)c(=O)cc1OCc1ccccc1C (optimized conformer: 93.45876586114413 kcal/mol)

>  <smiles>  (44) 
Cc1nc2cc(-n3[nH]c(=N)c(OCc4ccccc4C)cc3=O)ccc2[nH]1

>  <score_type>  (44) 
oracle

>  <origin>  (44) 
adg

>  <m_score__min__energy>  (44) 
-9.6699999999999999

>  <m_primary>  (44) 
energy

$$$$
44:0
     RDKit          3D

 48 50  0  0  0  0  0  0  0  0999 V2000
   61.4240   33.9180   46.3880 C   0  0  0  0  0  0  0  0  0  0  0  0
   59.9240   33.8600   46.2650 C   0  0  0  0  0  0  0  0  0  0  0  0
   59.3150   34.4020   45.1190 C   0  0  0  0  0  0  0  0  0  0  0  0
   57.9270   34.3740   44.9720 C   0  0  0  0  0  0  0  0  0  0  0  0
   57.1320   33.8140   45.9680 C   0  0  0  0  0  0  0  0  0  0  0  0
   57.7170   33.2770   47.1150 C   0  0  0  0  0  0  0  0  0  0  0  0
   59.1170   33.2830   47.2810 C   0  0  0  0  0  0  0  0  0  0  0  0
   59.7210   32.7150   48.4640 N   0  0  0  0  0  0  0  0  0  0  0  0
   59.3990   33.1190   49.8350 C   0  0  0  0  0  0  0  0  0  0  0  0
   58.7110   32.0100   50.5990 C   0  0  0  0  0  0  0  0  0  0  0  0
   57.6150   32.3200   51.4240 C   0  0  0  0  0  0  0  0  0  0  0  0
   56.9750   31.3230   52.1600 C   0  0  0  0  0  0  0  0  0  0  0  0
   57.4290   30.0070   52.0940 C   0  0  0  0  0  0  0  0  0  0  0  0
   58.5240   29.6820   51.2930 C   0  0  0  0  0  0  0  0  0  0  0  0
   59.1770   30.6770   50.5360 C   0  0  0  0  0  0  0  0  0  0  0  0
   60.2800   30.3790   49.7160 O   0  0  0  0  0  0  0  0  0  0  0  0
   60.3180   29.3580   48.7180 C   0  0  0  0  0  0  0  0  0  0  0  0
   59.7870   29.8680   47.4100 C   0  0  0  0  0  0  0  0  0  0  0  0
   60.5270   30.5790   46.6780 O   0  0  0  0  0  0  0  0  0  0  0  0
   58.4450   29.5540   47.0060 N   0  0  0  0  0  0  0  0  0  0  0  0
   57.9040   29.8650   45.7100 C   0  0  0  0  0  0  0  0  0  0  0  0
   56.7760   29.1920   45.2040 C   0  0  0  0  0  0  0  0  0  0  0  0
   56.2590   29.5290   43.9490 C   0  0  0  0  0  0  0  0  0  0  0  0
   56.8510   30.5470   43.1970 C   0  0  0  0  0  0  0  0  0  0  0  0
   57.9560   31.2370   43.7020 C   0  0  0  0  0  0  0  0  0  0  0  0
   58.5230   32.2310   42.9760 F   0  0  0  0  0  0  0  0  0  0  0  0
   58.4760   30.9030   44.9560 C   0  0  0  0  0  0  0  0  0  0  0  0
   61.7045   33.9288   47.4516 H   0  0  0  0  0  0  0  0  0  0  0  0
   61.8662   33.0363   45.9011 H   0  0  0  0  0  0  0  0  0  0  0  0
   61.7968   34.8312   45.9011 H   0  0  0  0  0  0  0  0  0  0  0  0
   59.9377   34.8519   44.3317 H   0  0  0  0  0  0  0  0  0  0  0  0
   57.4613   34.7947   44.0686 H   0  0  0  0  0  0  0  0  0  0  0  0
   56.0385   33.7948   45.8502 H   0  0  0  0  0  0  0  0  0  0  0  0
   57.0785   32.8439   47.8990 H   0  0  0  0  0  0  0  0  0  0  0  0
   60.4200   31.9460   48.3670 H   0  0  0  0  0  0  0  0  0  0  0  0
   60.3304   33.3859   50.3559 H   0  0  0  0  0  0  0  0  0  0  0  0
   58.7136   33.9780   49.7869 H   0  0  0  0  0  0  0  0  0  0  0  0
   57.2591   33.3588   51.4894 H   0  0  0  0  0  0  0  0  0  0  0  0
   56.1115   31.5755   52.7929 H   0  0  0  0  0  0  0  0  0  0  0  0
   56.9225   29.2223   52.6752 H   0  0  0  0  0  0  0  0  0  0  0  0
   58.8807   28.6423   51.2515 H   0  0  0  0  0  0  0  0  0  0  0  0
   61.3581   29.0275   48.5802 H   0  0  0  0  0  0  0  0  0  0  0  0
   59.6890   28.5187   49.0495 H   0  0  0  0  0  0  0  0  0  0  0  0
   57.7920   29.1750   47.7280 H   0  0  0  0  0  0  0  0  0  0  0  0
   56.2994   28.3981   45.7978 H   0  0  0  0  0  0  0  0  0  0  0  0
   55.3846   28.9916   43.5532 H   0  0  0  0  0  0  0  0  0  0  0  0
   56.4470   30.8053   42.2070 H   0  0  0  0  0  0  0  0  0  0  0  0
   59.3388   31.4567   45.3549 H   0  0  0  0  0  0  0  0  0  0  0  0
  1  2  1  0
  2  3  2  0
  3  4  1  0
  4  5  2  0
  5  6  1  0
  6  7  2  0
  7  8  1  0
  8  9  1  0
  9 10  1  0
 10 11  2  0
 11 12  1  0
 12 13  2  0
 13 14  1  0
 14 15  2  0
 15 16  1  0
 16 17  1  0
 17 18  1  0
 18 19  2  0
 18 20  1  0
 20 21  1  0
 21 22  2  0
 22 23  1  0
 23 24  2  0
 24 25  1  0
 25 26  1  0
 25 27  2  0
  7  2  1  0
 15 10  1  0
 27 21  1  0
  1 28  1  0
  1 29  1  0
  1 30  1  0
  3 31  1  0
  4 32  1  0
  5 33  1  0
  6 34  1  0
  8 35  1  0
  9 36  1  0
  9 37  1  0
 11 38  1  0
 12 39  1  0
 13 40  1  0
 14 41  1  0
 17 42  1  0
 17 43  1  0
 20 44  1  0
 22 45  1  0
 23 46  1  0
 24 47  1  0
 27 48  1  0
M  END
>  <UniqueID>  (45) 
44

>  <SMILES>  (45) 
Cc1ccccc1NCc1ccccc1OCC(=O)Nc1cccc(F)c1

>  <Energy>  (45) 
52.72954013430378

>  <Genealogy>  (45) 
Cc1ccccc1NCc1ccccc1OCC(=O)Nc1cccc(F)c1 (3D coordinates assigned)
Cc1ccccc1NCc1ccccc1OCC(=O)Nc1cccc(F)c1 (optimized conformer: 52.72954013430378 kcal/mol)

>  <smiles>  (45) 
Cc1ccccc1NCc1ccccc1OCC(=O)Nc1cccc(F)c1

>  <score_type>  (45) 
oracle

>  <origin>  (45) 
adg

>  <m_score__min__energy>  (45) 
-7.5700000000000003

>  <m_primary>  (45) 
energy

$$$$
45:0
     RDKit          3D

 27 28  0  0  0  0  0  0  0  0999 V2000
   56.0519   23.0758   45.5129 H   0  0  0  0  0  0  0  0  0  0  0  0
   56.2380   24.1560   45.6050 C   0  0  0  0  0  0  0  0  0  0  0  0
   57.4840   24.6560   45.4050 N   0  0  0  0  0  0  0  0  0  0  0  0
   57.7380   25.9890   45.5010 C   0  0  0  0  0  0  0  0  0  0  0  0
   58.7561   26.3728   45.3394 H   0  0  0  0  0  0  0  0  0  0  0  0
   56.6830   26.8760   45.8100 C   0  0  0  0  0  0  0  0  0  0  0  0
   56.8400   28.1660   45.9300 N   0  0  0  0  0  0  0  0  0  0  0  0
   56.3720   29.2270   45.0830 C   0  0  0  0  0  0  0  0  0  0  0  0
   55.1450   29.3700   44.8320 O   0  0  0  0  0  0  0  0  0  0  0  0
   57.3280   30.1500   44.5490 N   0  0  0  0  0  0  0  0  0  0  0  0
   57.8130   31.3280   45.2100 C   0  0  0  0  0  0  0  0  0  0  0  0
   57.6600   32.5650   44.5720 C   0  0  0  0  0  0  0  0  0  0  0  0
   57.1665   32.6158   43.5902 H   0  0  0  0  0  0  0  0  0  0  0  0
   58.1300   33.7360   45.1740 C   0  0  0  0  0  0  0  0  0  0  0  0
   57.9818   34.7054   44.6758 H   0  0  0  0  0  0  0  0  0  0  0  0
   58.7900   33.6800   46.4110 C   0  0  0  0  0  0  0  0  0  0  0  0
   59.2600   34.9390   47.0740 C   0  0  0  0  0  0  0  0  0  0  0  0
   59.2145   34.8172   48.1663 H   0  0  0  0  0  0  0  0  0  0  0  0
   60.2967   35.1479   46.7712 H   0  0  0  0  0  0  0  0  0  0  0  0
   58.6138   35.7761   46.7712 H   0  0  0  0  0  0  0  0  0  0  0  0
   58.9570   32.4390   47.0450 C   0  0  0  0  0  0  0  0  0  0  0  0
   59.4624   32.3882   48.0207 H   0  0  0  0  0  0  0  0  0  0  0  0
   58.4860   31.2670   46.4460 C   0  0  0  0  0  0  0  0  0  0  0  0
   58.7410   30.0770   47.0460 F   0  0  0  0  0  0  0  0  0  0  0  0
   55.4450   26.3560   46.0250 N   0  0  0  0  0  0  0  0  0  0  0  0
   55.1970   25.0240   45.9280 C   0  0  0  0  0  0  0  0  0  0  0  0
   54.1834   24.6341   46.1029 H   0  0  0  0  0  0  0  0  0  0  0  0
  1  2  1  0
  2  3  1  0
  3  4  2  0
  4  5  1  0
  4  6  1  0
  6  7  2  0
  7  8  1  0
  8  9  2  0
  8 10  1  0
 10 11  1  0
 11 12  2  0
 12 13  1  0
 12 14  1  0
 14 15  1  0
 14 16  2  0
 16 17  1  0
 17 18  1  0
 17 19  1  0
 17 20  1  0
 16 21  1  0
 21 22  1  0
 21 23  2  0
 23 24  1  0
  6 25  1  0
 25 26  1  0
 26 27  1  0
 26  2  2  0
 23 11  1  0
M  CHG  2  10  -1  25  -1
M  END
>  <UniqueID>  (46) 
45

>  <SMILES>  (46) 
Cc1ccc([N-]C(=O)/N=c2\cncc[n-]2)c(F)c1

>  <Energy>  (46) 
41.56443725293001

>  <Genealogy>  (46) 
Cc1ccc([N-]C(=O)N=c2cncc[n-]2)c(F)c1 (protonated)
Cc1ccc([N-]C(=O)/N=c2\cncc[n-]2)c(F)c1 (cis-trans isomerization)
Cc1ccc([N-]C(=O)/N=c2\cncc[n-]2)c(F)c1 (3D coordinates assigned)
Cc1ccc([N-]C(=O)/N=c2\cncc[n-]2)c(F)c1 (optimized conformer: 41.56443725293001 kcal/mol)

>  <smiles>  (46) 
Cc1ccc(NC(=O)N=c2cncc[nH]2)c(F)c1

>  <score_type>  (46) 
oracle

>  <origin>  (46) 
adg

>  <m_score__min__energy>  (46) 
-9.0399999999999991

>  <m_primary>  (46) 
energy

$$$$
46:0
     RDKit          3D

 31 33  0  0  0  0  0  0  0  0999 V2000
   55.1430   29.7170   43.7360 C   0  0  0  0  0  0  0  0  0  0  0  0
   55.7980   29.1640   44.8700 O   0  0  0  0  0  0  0  0  0  0  0  0
   57.1600   29.3530   45.1280 C   0  0  0  0  0  0  0  0  0  0  0  0
   57.5780   30.4050   45.8870 N   0  0  0  0  0  0  0  0  0  0  0  0
   58.8900   30.6170   46.1660 C   0  0  0  0  0  0  0  0  0  0  0  0
   59.8590   29.7430   45.6750 C   0  0  0  0  0  0  0  0  0  0  0  0
   59.4640   28.6550   44.8960 C   0  0  0  0  0  0  0  0  0  0  0  0
   58.1060   28.4490   44.6020 C   0  0  0  0  0  0  0  0  0  0  0  0
   57.6950   27.3050   43.8240 N   0  0  0  0  0  0  0  0  0  0  0  0
   57.7930   26.1160   44.6230 C   0  0  0  0  0  0  0  0  0  0  0  0
   58.2090   26.0340   45.9470 C   0  0  0  0  0  0  0  0  0  0  0  0
   58.1090   24.7520   46.3710 N   0  0  0  0  0  0  0  0  0  0  0  0
   57.6430   24.0430   45.3550 N   0  0  0  0  0  0  0  0  0  0  0  0
   57.3920   22.7090   45.3590 C   0  0  0  0  0  0  0  0  0  0  0  0
   56.8950   22.1220   44.1850 C   0  0  0  0  0  0  0  0  0  0  0  0
   56.6760   22.9230   43.0480 C   0  0  0  0  0  0  0  0  0  0  0  0
   56.9510   24.2990   43.0860 C   0  0  0  0  0  0  0  0  0  0  0  0
   57.4390   24.8260   44.2830 C   0  0  0  0  0  0  0  0  0  0  0  0
   54.3419   30.3933   44.0689 H   0  0  0  0  0  0  0  0  0  0  0  0
   55.8695   30.2791   43.1308 H   0  0  0  0  0  0  0  0  0  0  0  0
   54.7107   28.9065   43.1308 H   0  0  0  0  0  0  0  0  0  0  0  0
   59.1886   31.4794   46.7801 H   0  0  0  0  0  0  0  0  0  0  0  0
   60.9230   29.9094   45.8993 H   0  0  0  0  0  0  0  0  0  0  0  0
   60.2198   27.9551   44.5102 H   0  0  0  0  0  0  0  0  0  0  0  0
   56.7180   27.4360   43.4750 H   0  0  0  0  0  0  0  0  0  0  0  0
   58.3110   27.1970   42.9850 H   0  0  0  0  0  0  0  0  0  0  0  0
   58.5640   26.8789   46.5553 H   0  0  0  0  0  0  0  0  0  0  0  0
   57.5735   22.1036   46.2593 H   0  0  0  0  0  0  0  0  0  0  0  0
   56.6782   21.0440   44.1534 H   0  0  0  0  0  0  0  0  0  0  0  0
   56.2873   22.4681   42.1250 H   0  0  0  0  0  0  0  0  0  0  0  0
   56.7881   24.9380   42.2056 H   0  0  0  0  0  0  0  0  0  0  0  0
  1  2  1  0
  2  3  1  0
  3  4  2  0
  4  5  1  0
  5  6  2  0
  6  7  1  0
  7  8  2  0
  8  9  1  0
  9 10  1  0
 10 11  1  0
 11 12  2  0
 12 13  1  0
 13 14  1  0
 14 15  2  0
 15 16  1  0
 16 17  2  0
 17 18  1  0
  8  3  1  0
 18 10  2  0
 18 13  1  0
  1 19  1  0
  1 20  1  0
  1 21  1  0
  5 22  1  0
  6 23  1  0
  7 24  1  0
  9 25  1  0
  9 26  1  0
 11 27  1  0
 14 28  1  0
 15 29  1  0
 16 30  1  0
 17 31  1  0
M  CHG  1   9   1
M  END
>  <UniqueID>  (47) 
46

>  <SMILES>  (47) 
COc1ncccc1[NH2+]c1cnn2ccccc12

>  <Energy>  (47) 
70.44501161461783

>  <Genealogy>  (47) 
COc1ncccc1[NH2+]c1cnn2ccccc12 (protonated)
COc1ncccc1[NH2+]c1cnn2ccccc12 (3D coordinates assigned)
COc1ncccc1[NH2+]c1cnn2ccccc12 (optimized conformer: 70.44501161461783 kcal/mol)

>  <smiles>  (47) 
COc1ncccc1Nc1cnn2ccccc12

>  <score_type>  (47) 
oracle

>  <origin>  (47) 
adg

>  <m_score__min__energy>  (47) 
-5.21

>  <m_primary>  (47) 
energy

$$$$
