0:0
     RDKit          3D

 56 59  0  0  0  0  0  0  0  0999 V2000
   60.4860   30.1510   46.8620 C   0  0  0  0  0  0  0  0  0  0  0  0
   59.3210   31.0230   46.4860 C   0  0  0  0  0  0  0  0  0  0  0  0
   59.1640   32.3370   46.9700 C   0  0  0  0  0  0  0  0  0  0  0  0
   59.9840   33.0010   48.0030 C   0  0  0  0  0  0  0  0  0  0  0  0
   59.4100   33.6160   48.9410 O   0  0  0  0  0  0  0  0  0  0  0  0
   61.4220   32.9820   47.9380 N   0  0  0  0  0  0  0  0  0  0  0  0
   62.1030   33.5190   46.7520 C   0  0  0  0  0  0  0  0  0  0  0  0
   63.5780   33.1140   46.7430 C   0  0  0  0  0  0  0  0  0  0  0  0
   64.1930   33.4550   48.0290 N   0  0  0  0  0  0  0  0  0  0  0  0
   63.5550   32.8070   49.1990 C   0  0  1  0  0  0  0  0  0  0  0  0
   63.4080   33.8540   50.3060 C   0  0  0  0  0  0  0  0  0  0  0  0
   62.1820   32.1600   48.8860 C   0  0  0  0  0  0  0  0  0  0  0  0
   57.8020   33.0460   46.2630 S   0  0  0  0  0  0  0  0  0  0  0  0
   57.4000   31.7010   45.3560 C   0  0  0  0  0  0  0  0  0  0  0  0
   56.3580   31.6010   44.5000 N   0  0  0  0  0  0  0  0  0  0  0  0
   56.1640   30.4330   43.8320 C   0  0  0  0  0  0  0  0  0  0  0  0
   56.9990   29.3760   44.0430 N   0  0  0  0  0  0  0  0  0  0  0  0
   58.0540   29.4470   44.9060 C   0  0  0  0  0  0  0  0  0  0  0  0
   58.8450   28.2710   45.1320 N   0  0  0  0  0  0  0  0  0  0  0  0
   60.2080   28.2670   44.5840 C   0  0  0  0  0  0  0  0  0  0  0  0
   58.4750   27.3970   46.2650 C   0  0  0  0  0  0  0  0  0  0  0  0
   59.5600   26.3180   46.5350 C   0  0  0  0  0  0  0  0  0  0  0  0
   59.1590   24.9420   45.9890 C   0  0  0  0  0  0  0  0  0  0  0  0
   57.8430   24.4390   46.6150 C   0  0  0  0  0  0  0  0  0  0  0  0
   56.8600   25.5720   46.9800 C   0  0  0  0  0  0  0  0  0  0  0  0
   57.0550   26.8030   46.0900 C   0  0  0  0  0  0  0  0  0  0  0  0
   58.2880   30.6630   45.5840 C   0  0  0  0  0  0  0  0  0  0  0  0
   60.5625   30.0937   47.9578 H   0  0  0  0  0  0  0  0  0  0  0  0
   60.3359   29.1415   46.4517 H   0  0  0  0  0  0  0  0  0  0  0  0
   61.4123   30.5796   46.4517 H   0  0  0  0  0  0  0  0  0  0  0  0
   61.6156   33.1262   45.8475 H   0  0  0  0  0  0  0  0  0  0  0  0
   62.0388   34.6169   46.7753 H   0  0  0  0  0  0  0  0  0  0  0  0
   63.6582   32.0298   46.5756 H   0  0  0  0  0  0  0  0  0  0  0  0
   64.0981   33.6523   45.9369 H   0  0  0  0  0  0  0  0  0  0  0  0
   65.2010   33.1720   47.9930 H   0  0  0  0  0  0  0  0  0  0  0  0
   64.2048   31.9777   49.5152 H   0  0  0  0  0  0  0  0  0  0  0  0
   63.4771   33.3621   51.2875 H   0  0  0  0  0  0  0  0  0  0  0  0
   64.2101   34.6010   50.2130 H   0  0  0  0  0  0  0  0  0  0  0  0
   62.4312   34.3513   50.2130 H   0  0  0  0  0  0  0  0  0  0  0  0
   62.3442   31.1634   48.4496 H   0  0  0  0  0  0  0  0  0  0  0  0
   61.6088   32.0801   49.8214 H   0  0  0  0  0  0  0  0  0  0  0  0
   55.3312   30.3404   43.1194 H   0  0  0  0  0  0  0  0  0  0  0  0
   60.9351   28.2649   45.4095 H   0  0  0  0  0  0  0  0  0  0  0  0
   60.3521   27.3684   43.9661 H   0  0  0  0  0  0  0  0  0  0  0  0
   60.3574   29.1647   43.9661 H   0  0  0  0  0  0  0  0  0  0  0  0
   58.4340   28.0209   47.1700 H   0  0  0  0  0  0  0  0  0  0  0  0
   60.4979   26.6306   46.0527 H   0  0  0  0  0  0  0  0  0  0  0  0
   59.6805   26.2263   47.6245 H   0  0  0  0  0  0  0  0  0  0  0  0
   59.0296   25.0153   44.8991 H   0  0  0  0  0  0  0  0  0  0  0  0
   59.9548   24.2272   46.2455 H   0  0  0  0  0  0  0  0  0  0  0  0
   57.3496   23.7687   45.8958 H   0  0  0  0  0  0  0  0  0  0  0  0
   58.1065   23.9261   47.5518 H   0  0  0  0  0  0  0  0  0  0  0  0
   55.8308   25.2036   46.8576 H   0  0  0  0  0  0  0  0  0  0  0  0
   57.0524   25.8692   48.0215 H   0  0  0  0  0  0  0  0  0  0  0  0
   56.9140   26.5123   45.0385 H   0  0  0  0  0  0  0  0  0  0  0  0
   56.3182   27.5659   46.3818 H   0  0  0  0  0  0  0  0  0  0  0  0
  1  2  1  0
  2  3  2  0
  3  4  1  0
  4  5  2  0
  4  6  1  0
  6  7  1  0
  7  8  1  0
  8  9  1  0
  9 10  1  0
 10 11  1  0
 10 12  1  0
  3 13  1  0
 13 14  1  0
 14 15  2  0
 15 16  1  0
 16 17  2  0
 17 18  1  0
 18 19  1  0
 19 20  1  0
 19 21  1  0
 21 22  1  0
 22 23  1  0
 23 24  1  0
 24 25  1  0
 25 26  1  0
 18 27  2  0
 27  2  1  0
 12  6  1  0
 27 14  1  0
 26 21  1  0
  1 28  1  0
  1 29  1  0
  1 30  1  0
  7 31  1  0
  7 32  1  0
  8 33  1  0
  8 34  1  0
  9 35  1  0
 10 36  1  1
 11 37  1  0
 11 38  1  0
 11 39  1  0
 12 40  1  0
 12 41  1  0
 16 42  1  0
 20 43  1  0
 20 44  1  0
 20 45  1  0
 21 46  1  0
 22 47  1  0
 22 48  1  0
 23 49  1  0
 23 50  1  0
 24 51  1  0
 24 52  1  0
 25 53  1  0
 25 54  1  0
 26 55  1  0
 26 56  1  0
M  END
>  <UniqueID>  (1) 
1

>  <SMILES>  (1) 
Cc1c(C(=O)N2CCN[C@@H](C)C2)sc2ncnc(N(C)C3CCCCC3)c12

>  <Energy>  (1) 
108.04309891563061

>  <Genealogy>  (1) 
Cc1c(C(=O)N2CCN[C@@H](C)C2)sc2ncnc(N(C)C3CCCCC3)c12 (chirality)
Cc1c(C(=O)N2CCN[C@@H](C)C2)sc2ncnc(N(C)C3CCCCC3)c12 (3D coordinates assigned)
Cc1c(C(=O)N2CCN[C@@H](C)C2)sc2ncnc(N(C)C3CCCCC3)c12 (nonaromatic ring conformer: 108.04309891563061 kcal/mol)

>  <smiles>  (1) 
Cc1c(C(=O)N2CCNC(C)C2)sc2ncnc(N(C)C3CCCCC3)c12

>  <score_type>  (1) 
oracle

>  <origin>  (1) 
adg

>  <m_score__min__energy>  (1) 
-8.6899999999999995

>  <m_primary>  (1) 
energy

$$$$
1:0
     RDKit          3D

 37 39  0  0  0  0  0  0  0  0999 V2000
   60.1079   35.3835   46.2505 H   0  0  0  0  0  0  0  0  0  0  0  0
   59.5610   34.4400   46.1070 C   0  0  0  0  0  0  0  0  0  0  0  0
   58.0070   34.2840   45.4800 S   0  0  0  0  0  0  0  0  0  0  0  0
   58.0020   32.6130   45.6370 C   0  0  0  0  0  0  0  0  0  0  0  0
   57.0120   31.8600   45.2610 N   0  0  0  0  0  0  0  0  0  0  0  0
   57.1050   30.6270   44.5280 C   0  0  0  0  0  0  0  0  0  0  0  0
   56.4380   30.4300   43.3020 C   0  0  0  0  0  0  0  0  0  0  0  0
   55.8032   31.2276   42.8887 H   0  0  0  0  0  0  0  0  0  0  0  0
   56.5810   29.2240   42.6100 C   0  0  0  0  0  0  0  0  0  0  0  0
   56.0469   29.0694   41.6609 H   0  0  0  0  0  0  0  0  0  0  0  0
   57.4010   28.2140   43.1210 C   0  0  0  0  0  0  0  0  0  0  0  0
   57.5053   27.2626   42.5789 H   0  0  0  0  0  0  0  0  0  0  0  0
   58.0880   28.4140   44.3210 C   0  0  0  0  0  0  0  0  0  0  0  0
   58.7392   27.6221   44.7195 H   0  0  0  0  0  0  0  0  0  0  0  0
   57.9490   29.6190   45.0160 C   0  0  0  0  0  0  0  0  0  0  0  0
   58.5052   29.7775   45.9517 H   0  0  0  0  0  0  0  0  0  0  0  0
   59.1640   32.1490   46.1450 N   0  0  0  0  0  0  0  0  0  0  0  0
   60.0360   33.1600   46.4140 C   0  0  0  0  0  0  0  0  0  0  0  0
   61.3380   32.9050   46.9780 N   0  0  0  0  0  0  0  0  0  0  0  0
   62.3600   33.9590   47.0320 C   0  0  0  0  0  0  0  0  0  0  0  0
   62.1968   34.5771   47.9272 H   0  0  0  0  0  0  0  0  0  0  0  0
   62.2827   34.5789   46.1266 H   0  0  0  0  0  0  0  0  0  0  0  0
   63.7640   33.3380   47.0940 C   0  0  0  0  0  0  0  0  0  0  0  0
   64.4990   34.1473   47.2161 H   0  0  0  0  0  0  0  0  0  0  0  0
   63.9155   32.7793   46.1587 H   0  0  0  0  0  0  0  0  0  0  0  0
   63.9310   32.3730   48.2180 N   0  0  0  0  0  0  0  0  0  0  0  0
   64.5870   31.6240   47.8870 H   0  0  0  0  0  0  0  0  0  0  0  0
   64.5770   33.0200   49.3740 C   0  0  0  0  0  0  0  0  0  0  0  0
   64.1630   32.6053   50.3049 H   0  0  0  0  0  0  0  0  0  0  0  0
   65.6607   32.8342   49.3399 H   0  0  0  0  0  0  0  0  0  0  0  0
   64.3895   34.1034   49.3399 H   0  0  0  0  0  0  0  0  0  0  0  0
   62.6730   31.7030   48.6430 C   0  0  0  0  0  0  0  0  0  0  0  0
   62.2166   32.2911   49.4528 H   0  0  0  0  0  0  0  0  0  0  0  0
   62.9321   30.6873   48.9765 H   0  0  0  0  0  0  0  0  0  0  0  0
   61.6610   31.5730   47.5000 C   0  0  0  0  0  0  0  0  0  0  0  0
   60.7444   31.0940   47.8747 H   0  0  0  0  0  0  0  0  0  0  0  0
   62.0934   30.9594   46.6959 H   0  0  0  0  0  0  0  0  0  0  0  0
  1  2  1  0
  2  3  1  0
  3  4  1  0
  4  5  2  0
  5  6  1  0
  6  7  2  0
  7  8  1  0
  7  9  1  0
  9 10  1  0
  9 11  2  0
 11 12  1  0
 11 13  1  0
 13 14  1  0
 13 15  2  0
 15 16  1  0
  4 17  1  0
 17 18  1  0
 18 19  1  0
 19 20  1  0
 20 21  1  0
 20 22  1  0
 20 23  1  0
 23 24  1  0
 23 25  1  0
 23 26  1  0
 26 27  1  0
 26 28  1  0
 28 29  1  0
 28 30  1  0
 28 31  1  0
 26 32  1  0
 32 33  1  0
 32 34  1  0
 32 35  1  0
 35 36  1  0
 35 37  1  0
 18  2  2  0
 35 19  1  0
 15  6  1  0
M  CHG  2  17  -1  26   1
M  END
>  <UniqueID>  (2) 
2

>  <SMILES>  (2) 
C[NH+]1CCN(c2cs/c(=N/c3ccccc3)[n-]2)CC1

>  <Energy>  (2) 
80.9250201235298

>  <Genealogy>  (2) 
C[NH+]1CCN(c2csc(=Nc3ccccc3)[n-]2)CC1 (protonated)
C[NH+]1CCN(c2cs/c(=N/c3ccccc3)[n-]2)CC1 (cis-trans isomerization)
C[NH+]1CCN(c2cs/c(=N/c3ccccc3)[n-]2)CC1 (3D coordinates assigned)
C[NH+]1CCN(c2cs/c(=N/c3ccccc3)[n-]2)CC1 (nonaromatic ring conformer: 80.9250201235298 kcal/mol)

>  <smiles>  (2) 
CN1CCN(c2csc(=Nc3ccccc3)[nH]2)CC1

>  <score_type>  (2) 
oracle

>  <origin>  (2) 
adg

>  <m_score__min__energy>  (2) 
-6.8899999999999997

>  <m_primary>  (2) 
energy

$$$$
2:0
     RDKit          3D

 51 53  0  0  0  0  0  0  0  0999 V2000
   62.8720   33.8300   46.3610 C   0  0  0  0  0  0  0  0  0  0  0  0
   63.2780   33.5600   47.7740 C   0  0  0  0  0  0  0  0  0  0  0  0
   64.4820   33.0820   48.1390 N   0  0  0  0  0  0  0  0  0  0  0  0
   64.5500   33.0650   49.4600 N   0  0  0  0  0  0  0  0  0  0  0  0
   65.7370   32.6640   50.2110 C   0  0  0  0  0  0  0  0  0  0  0  0
   63.3860   33.5310   49.9690 C   0  0  0  0  0  0  0  0  0  0  0  0
   63.1250   33.8000   51.4210 C   0  0  0  0  0  0  0  0  0  0  0  0
   62.5460   33.8590   48.9140 C   0  0  0  0  0  0  0  0  0  0  0  0
   61.2320   34.5810   48.9740 C   0  0  0  0  0  0  0  0  0  0  0  0
   60.1480   33.6680   48.6160 N   0  0  0  0  0  0  0  0  0  0  0  0
   59.4790   33.7150   47.3440 C   0  0  0  0  0  0  0  0  0  0  0  0
   59.5500   34.8810   46.5580 C   0  0  0  0  0  0  0  0  0  0  0  0
   58.9620   34.9240   45.2940 C   0  0  0  0  0  0  0  0  0  0  0  0
   58.3080   33.8010   44.7910 C   0  0  0  0  0  0  0  0  0  0  0  0
   58.2250   32.6380   45.5550 C   0  0  0  0  0  0  0  0  0  0  0  0
   58.7820   32.5860   46.8480 C   0  0  0  0  0  0  0  0  0  0  0  0
   58.6330   31.3160   47.6640 C   0  0  0  0  0  0  0  0  0  0  0  0
   59.9080   30.9350   48.2890 N   0  0  0  0  0  0  0  0  0  0  0  0
   60.0940   29.4790   48.2720 C   0  0  0  0  0  0  0  0  0  0  0  0
   59.6890   28.9380   46.9300 C   0  0  0  0  0  0  0  0  0  0  0  0
   60.4170   29.2680   45.7780 C   0  0  0  0  0  0  0  0  0  0  0  0
   59.9990   28.7790   44.5380 C   0  0  0  0  0  0  0  0  0  0  0  0
   58.8890   28.0000   44.4510 N   0  0  0  0  0  0  0  0  0  0  0  0
   58.1550   27.6770   45.5510 C   0  0  0  0  0  0  0  0  0  0  0  0
   58.5380   28.1470   46.8090 C   0  0  0  0  0  0  0  0  0  0  0  0
   61.9561   34.4391   46.3527 H   0  0  0  0  0  0  0  0  0  0  0  0
   63.6779   34.3727   45.8452 H   0  0  0  0  0  0  0  0  0  0  0  0
   62.6832   32.8769   45.8452 H   0  0  0  0  0  0  0  0  0  0  0  0
   65.2580   32.8040   47.4950 H   0  0  0  0  0  0  0  0  0  0  0  0
   65.5298   32.7340   51.2890 H   0  0  0  0  0  0  0  0  0  0  0  0
   66.0001   31.6271   49.9547 H   0  0  0  0  0  0  0  0  0  0  0  0
   66.5750   33.3289   49.9547 H   0  0  0  0  0  0  0  0  0  0  0  0
   63.7604   33.1451   52.0352 H   0  0  0  0  0  0  0  0  0  0  0  0
   63.3561   34.8515   51.6464 H   0  0  0  0  0  0  0  0  0  0  0  0
   62.0670   33.6007   51.6464 H   0  0  0  0  0  0  0  0  0  0  0  0
   61.0692   34.9587   49.9942 H   0  0  0  0  0  0  0  0  0  0  0  0
   61.2472   35.4220   48.2651 H   0  0  0  0  0  0  0  0  0  0  0  0
   59.9440   32.8700   49.2600 H   0  0  0  0  0  0  0  0  0  0  0  0
   60.0746   35.7671   46.9448 H   0  0  0  0  0  0  0  0  0  0  0  0
   59.0145   35.8445   44.6941 H   0  0  0  0  0  0  0  0  0  0  0  0
   57.8561   33.8323   43.7886 H   0  0  0  0  0  0  0  0  0  0  0  0
   57.7194   31.7517   45.1441 H   0  0  0  0  0  0  0  0  0  0  0  0
   57.8824   31.4808   48.4510 H   0  0  0  0  0  0  0  0  0  0  0  0
   58.3174   30.5043   46.9920 H   0  0  0  0  0  0  0  0  0  0  0  0
   59.8750   31.2410   49.2910 H   0  0  0  0  0  0  0  0  0  0  0  0
   61.1519   29.2423   48.4587 H   0  0  0  0  0  0  0  0  0  0  0  0
   59.4720   29.0207   49.0550 H   0  0  0  0  0  0  0  0  0  0  0  0
   61.3098   29.9066   45.8500 H   0  0  0  0  0  0  0  0  0  0  0  0
   60.5695   29.0250   43.6303 H   0  0  0  0  0  0  0  0  0  0  0  0
   57.2600   27.0457   45.4489 H   0  0  0  0  0  0  0  0  0  0  0  0
   57.9408   27.8983   47.6986 H   0  0  0  0  0  0  0  0  0  0  0  0
  1  2  1  0
  2  3  2  0
  3  4  1  0
  4  5  1  0
  4  6  1  0
  6  7  1  0
  6  8  2  0
  8  9  1  0
  9 10  1  0
 10 11  1  0
 11 12  2  0
 12 13  1  0
 13 14  2  0
 14 15  1  0
 15 16  2  0
 16 17  1  0
 17 18  1  0
 18 19  1  0
 19 20  1  0
 20 21  2  0
 21 22  1  0
 22 23  2  0
 23 24  1  0
 24 25  2  0
  8  2  1  0
 16 11  1  0
 25 20  1  0
  1 26  1  0
  1 27  1  0
  1 28  1  0
  3 29  1  0
  5 30  1  0
  5 31  1  0
  5 32  1  0
  7 33  1  0
  7 34  1  0
  7 35  1  0
  9 36  1  0
  9 37  1  0
 10 38  1  0
 12 39  1  0
 13 40  1  0
 14 41  1  0
 15 42  1  0
 17 43  1  0
 17 44  1  0
 18 45  1  0
 19 46  1  0
 19 47  1  0
 21 48  1  0
 22 49  1  0
 24 50  1  0
 25 51  1  0
M  CHG  1   3   1
M  END
>  <UniqueID>  (3) 
3

>  <SMILES>  (3) 
Cc1[nH+]n(C)c(C)c1CNc1ccccc1CNCc1ccncc1

>  <Energy>  (3) 
82.20892168477103

>  <Genealogy>  (3) 
Cc1[nH+]n(C)c(C)c1CNc1ccccc1CNCc1ccncc1 (protonated)
Cc1[nH+]n(C)c(C)c1CNc1ccccc1CNCc1ccncc1 (3D coordinates assigned)
Cc1[nH+]n(C)c(C)c1CNc1ccccc1CNCc1ccncc1 (optimized conformer: 82.20892168477103 kcal/mol)

>  <smiles>  (3) 
Cc1nn(C)c(C)c1CNc1ccccc1CNCc1ccncc1

>  <score_type>  (3) 
oracle

>  <origin>  (3) 
adg

>  <m_score__min__energy>  (3) 
-6.04

>  <m_primary>  (3) 
energy

$$$$
3:0
     RDKit          3D

 40 43  0  0  1  0  0  0  0  0999 V2000
   59.3590   23.9530   45.6100 C   0  0  0  0  0  0  0  0  0  0  0  0
   57.9250   23.7860   45.1240 C   0  0  0  0  0  0  0  0  0  0  0  0
   57.5500   22.8580   44.2640 C   0  0  0  0  0  0  0  0  0  0  0  0
   56.2270   22.7590   43.8610 C   0  0  0  0  0  0  0  0  0  0  0  0
   55.4380   24.1740   44.8390 S   0  0  0  0  0  0  0  0  0  0  0  0
   56.9660   24.6730   45.6240 C   0  0  0  0  0  0  0  0  0  0  0  0
   57.1430   25.8050   46.6020 C   0  0  0  0  0  0  0  0  0  0  0  0
   56.5190   26.9580   45.9850 N   0  0  0  0  0  0  0  0  0  0  0  0
   57.3100   27.9240   45.6620 C   0  0  0  0  0  0  0  0  0  0  0  0
   58.6270   27.7180   45.8310 N   0  0  0  0  0  0  0  0  0  0  0  0
   59.5680   28.6330   45.5360 C   0  0  0  0  0  0  0  0  0  0  0  0
   59.1490   29.8170   45.0460 N   0  0  0  0  0  0  0  0  0  0  0  0
   57.8420   30.0880   44.8520 C   0  0  0  0  0  0  0  0  0  0  0  0
   56.9000   29.1290   45.1630 C   0  0  0  0  0  0  0  0  0  0  0  0
   55.6760   29.6080   44.8950 N   0  0  0  0  0  0  0  0  0  0  0  0
   55.8770   30.8390   44.4270 N   0  0  0  0  0  0  0  0  0  0  0  0
   57.1420   31.1470   44.3920 N   0  0  0  0  0  0  0  0  0  0  0  0
   57.7900   32.3710   43.9580 C   0  0  0  0  0  0  0  0  0  0  0  0
   58.3230   33.1580   45.0850 C   0  0  0  0  0  0  0  0  0  0  0  0
   57.9150   32.8400   46.3660 C   0  0  0  0  0  0  0  0  0  0  0  0
   58.3870   33.5490   47.4520 C   0  0  0  0  0  0  0  0  0  0  0  0
   59.2740   34.5900   47.2940 C   0  0  0  0  0  0  0  0  0  0  0  0
   59.6690   34.8940   46.0130 C   0  0  0  0  0  0  0  0  0  0  0  0
   59.2130   34.2040   44.9260 C   0  0  0  0  0  0  0  0  0  0  0  0
   59.3755   23.9549   46.7099 H   0  0  0  0  0  0  0  0  0  0  0  0
   59.9724   23.1202   45.2355 H   0  0  0  0  0  0  0  0  0  0  0  0
   59.7646   24.9045   45.2355 H   0  0  0  0  0  0  0  0  0  0  0  0
   58.2951   22.1554   43.8625 H   0  0  0  0  0  0  0  0  0  0  0  0
   55.7615   22.0492   43.1613 H   0  0  0  0  0  0  0  0  0  0  0  0
   56.6507   25.5675   47.5566 H   0  0  0  0  0  0  0  0  0  0  0  0
   58.2049   25.9880   46.8230 H   0  0  0  0  0  0  0  0  0  0  0  0
   58.9670   26.8100   46.2090 H   0  0  0  0  0  0  0  0  0  0  0  0
   60.6370   28.4234   45.6885 H   0  0  0  0  0  0  0  0  0  0  0  0
   58.6206   32.1110   43.2853 H   0  0  0  0  0  0  0  0  0  0  0  0
   57.0342   32.9867   43.4483 H   0  0  0  0  0  0  0  0  0  0  0  0
   57.2066   32.0131   46.5221 H   0  0  0  0  0  0  0  0  0  0  0  0
   58.0482   33.2773   48.4626 H   0  0  0  0  0  0  0  0  0  0  0  0
   59.6515   35.1559   48.1584 H   0  0  0  0  0  0  0  0  0  0  0  0
   60.3768   35.7216   45.8579 H   0  0  0  0  0  0  0  0  0  0  0  0
   59.5558   34.4821   43.9184 H   0  0  0  0  0  0  0  0  0  0  0  0
  1  2  1  0
  2  3  1  0
  3  4  2  0
  4  5  1  0
  5  6  1  0
  6  7  1  0
  7  8  1  0
  8  9  2  0
  9 10  1  0
 10 11  1  0
 11 12  2  0
 12 13  1  0
 13 14  2  0
 14 15  1  0
 15 16  2  0
 16 17  1  0
 17 18  1  0
 18 19  1  0
 19 20  2  0
 20 21  1  0
 21 22  2  0
 22 23  1  0
 23 24  2  0
  6  2  2  0
 14  9  1  0
 24 19  1  0
 17 13  1  0
  1 25  1  0
  1 26  1  0
  1 27  1  0
  3 28  1  0
  4 29  1  0
  7 30  1  0
  7 31  1  0
 10 32  1  0
 11 33  1  0
 18 34  1  0
 18 35  1  0
 20 36  1  0
 21 37  1  0
 22 38  1  0
 23 39  1  0
 24 40  1  0
M  END
>  <smiles>  (4) 
Cc1ccsc1CN=c1[nH]cnc2c1nnn2Cc1ccccc1

>  <score_type>  (4) 
oracle

>  <origin>  (4) 
adg

>  <m_score__min__energy>  (4) 
-8.3900000000000006

>  <m_primary>  (4) 
energy

$$$$
4:0
     RDKit          3D

 60 63  0  0  0  0  0  0  0  0999 V2000
   58.8290   31.7090   49.2960 C   0  0  0  0  0  0  0  0  0  0  0  0
   59.5140   33.0060   49.7240 C   0  0  0  0  0  0  0  0  0  0  0  0
   59.3400   34.1180   48.6850 C   0  0  0  0  0  0  0  0  0  0  0  0
   60.6450   34.4420   48.0560 N   0  0  0  0  0  0  0  0  0  0  0  0
   60.5520   34.6170   46.5890 C   0  0  0  0  0  0  0  0  0  0  0  0
   59.4060   33.8560   45.9710 C   0  0  0  0  0  0  0  0  0  0  0  0
   58.4110   34.4580   45.2060 C   0  0  0  0  0  0  0  0  0  0  0  0
   57.3360   33.2580   44.7310 S   0  0  0  0  0  0  0  0  0  0  0  0
   58.1750   32.0220   45.5110 C   0  0  0  0  0  0  0  0  0  0  0  0
   57.7900   30.5940   45.5400 C   0  0  0  0  0  0  0  0  0  0  0  0
   56.7200   30.1160   44.7620 C   0  0  0  0  0  0  0  0  0  0  0  0
   56.3650   28.7650   44.7980 C   0  0  0  0  0  0  0  0  0  0  0  0
   57.0630   27.8690   45.6200 C   0  0  0  0  0  0  0  0  0  0  0  0
   56.7040   26.4090   45.6290 C   0  0  0  0  0  0  0  0  0  0  0  0
   55.3490   26.2400   46.1680 N   0  0  0  0  0  0  0  0  0  0  0  0
   54.6760   25.0600   45.6020 C   0  0  0  0  0  0  0  0  0  0  0  0
   55.6590   24.0470   45.0660 C   0  0  0  0  0  0  0  0  0  0  0  0
   56.4950   23.3380   45.9470 C   0  0  0  0  0  0  0  0  0  0  0  0
   57.3880   22.3830   45.4540 C   0  0  0  0  0  0  0  0  0  0  0  0
   57.4530   22.1250   44.0820 C   0  0  0  0  0  0  0  0  0  0  0  0
   56.6220   22.8210   43.2000 C   0  0  0  0  0  0  0  0  0  0  0  0
   55.7250   23.7780   43.6890 C   0  0  0  0  0  0  0  0  0  0  0  0
   58.1410   28.3370   46.3860 C   0  0  0  0  0  0  0  0  0  0  0  0
   58.4980   29.6880   46.3510 C   0  0  0  0  0  0  0  0  0  0  0  0
   59.2720   32.5110   46.1340 N   0  0  0  0  0  0  0  0  0  0  0  0
   61.7320   33.5180   48.4490 C   0  0  0  0  0  0  0  0  0  0  0  0
   62.2990   32.8000   47.2140 C   0  0  0  0  0  0  0  0  0  0  0  0
   63.7410   33.1290   46.8590 C   0  0  0  0  0  0  0  0  0  0  0  0
   63.4010   31.7950   47.5050 C   0  0  0  0  0  0  0  0  0  0  0  0
   58.5290   31.1409   50.1889 H   0  0  0  0  0  0  0  0  0  0  0  0
   57.9383   31.9456   48.6955 H   0  0  0  0  0  0  0  0  0  0  0  0
   59.5266   31.1067   48.6955 H   0  0  0  0  0  0  0  0  0  0  0  0
   59.0783   33.3397   50.6773 H   0  0  0  0  0  0  0  0  0  0  0  0
   60.5902   32.8033   49.8271 H   0  0  0  0  0  0  0  0  0  0  0  0
   58.6360   33.7830   47.9090 H   0  0  0  0  0  0  0  0  0  0  0  0
   58.9495   35.0171   49.1841 H   0  0  0  0  0  0  0  0  0  0  0  0
   60.4181   35.6871   46.3724 H   0  0  0  0  0  0  0  0  0  0  0  0
   61.4806   34.2200   46.1531 H   0  0  0  0  0  0  0  0  0  0  0  0
   58.3413   35.5272   44.9573 H   0  0  0  0  0  0  0  0  0  0  0  0
   56.1585   30.8110   44.1204 H   0  0  0  0  0  0  0  0  0  0  0  0
   55.5325   28.4021   44.1774 H   0  0  0  0  0  0  0  0  0  0  0  0
   56.7415   26.0161   44.6022 H   0  0  0  0  0  0  0  0  0  0  0  0
   57.4195   25.8600   46.2588 H   0  0  0  0  0  0  0  0  0  0  0  0
   54.7860   27.0950   45.9480 H   0  0  0  0  0  0  0  0  0  0  0  0
   54.0713   24.5853   46.3888 H   0  0  0  0  0  0  0  0  0  0  0  0
   54.0479   25.3979   44.7646 H   0  0  0  0  0  0  0  0  0  0  0  0
   56.4457   23.5359   47.0279 H   0  0  0  0  0  0  0  0  0  0  0  0
   58.0413   21.8330   46.1473 H   0  0  0  0  0  0  0  0  0  0  0  0
   58.1583   21.3741   43.6964 H   0  0  0  0  0  0  0  0  0  0  0  0
   56.6728   22.6166   42.1203 H   0  0  0  0  0  0  0  0  0  0  0  0
   55.0695   24.3212   42.9924 H   0  0  0  0  0  0  0  0  0  0  0  0
   58.7082   27.6373   47.0174 H   0  0  0  0  0  0  0  0  0  0  0  0
   59.3394   30.0458   46.9625 H   0  0  0  0  0  0  0  0  0  0  0  0
   62.5354   34.0901   48.9361 H   0  0  0  0  0  0  0  0  0  0  0  0
   61.3276   32.7669   49.1435 H   0  0  0  0  0  0  0  0  0  0  0  0
   61.3492   32.7839   46.6594 H   0  0  0  0  0  0  0  0  0  0  0  0
   64.0534   33.1661   45.8049 H   0  0  0  0  0  0  0  0  0  0  0  0
   64.4312   33.9531   47.0923 H   0  0  0  0  0  0  0  0  0  0  0  0
   63.4679   30.8670   46.9182 H   0  0  0  0  0  0  0  0  0  0  0  0
   63.7440   31.2543   48.3995 H   0  0  0  0  0  0  0  0  0  0  0  0
  1  2  1  0
  2  3  1  0
  3  4  1  0
  4  5  1  0
  5  6  1  0
  6  7  2  0
  7  8  1  0
  8  9  1  0
  9 10  1  0
 10 11  2  0
 11 12  1  0
 12 13  2  0
 13 14  1  0
 14 15  1  0
 15 16  1  0
 16 17  1  0
 17 18  2  0
 18 19  1  0
 19 20  2  0
 20 21  1  0
 21 22  2  0
 13 23  1  0
 23 24  2  0
  9 25  2  0
  4 26  1  0
 26 27  1  0
 27 28  1  0
 28 29  1  0
 25  6  1  0
 29 27  1  0
 24 10  1  0
 22 17  1  0
  1 30  1  0
  1 31  1  0
  1 32  1  0
  2 33  1  0
  2 34  1  0
  3 35  1  0
  3 36  1  0
  5 37  1  0
  5 38  1  0
  7 39  1  0
 11 40  1  0
 12 41  1  0
 14 42  1  0
 14 43  1  0
 15 44  1  0
 16 45  1  0
 16 46  1  0
 18 47  1  0
 19 48  1  0
 20 49  1  0
 21 50  1  0
 22 51  1  0
 23 52  1  0
 24 53  1  0
 26 54  1  0
 26 55  1  0
 27 56  1  0
 28 57  1  0
 28 58  1  0
 29 59  1  0
 29 60  1  0
M  END
>  <UniqueID>  (5) 
4

>  <SMILES>  (5) 
CCCN(Cc1csc(-c2ccc(CNCc3ccccc3)cc2)n1)CC1CC1

>  <Energy>  (5) 
354.57860318926384

>  <Genealogy>  (5) 
CCCN(Cc1csc(-c2ccc(CNCc3ccccc3)cc2)n1)CC1CC1 (3D coordinates assigned)
CCCN(Cc1csc(-c2ccc(CNCc3ccccc3)cc2)n1)CC1CC1 (nonaromatic ring conformer: 354.57860318926384 kcal/mol)

>  <smiles>  (5) 
CCCN(Cc1csc(-c2ccc(CNCc3ccccc3)cc2)n1)CC1CC1

>  <score_type>  (5) 
oracle

>  <origin>  (5) 
adg

>  <m_score__min__energy>  (5) 
-8.9499999999999993

>  <m_primary>  (5) 
energy

$$$$
5:0
     RDKit          3D

 39 41  0  0  0  0  0  0  0  0999 V2000
   55.6680   29.8440   44.5050 O   0  0  0  0  0  0  0  0  0  0  0  0
   56.8170   30.2690   44.2080 C   0  0  0  0  0  0  0  0  0  0  0  0
   57.0820   31.7450   44.2490 C   0  0  0  0  0  0  0  0  0  0  0  0
   57.1260   32.2120   45.5990 O   0  0  0  0  0  0  0  0  0  0  0  0
   58.0460   33.1430   46.1060 C   0  0  0  0  0  0  0  0  0  0  0  0
   58.3820   33.0700   47.4640 C   0  0  0  0  0  0  0  0  0  0  0  0
   59.2910   33.9750   48.0210 C   0  0  0  0  0  0  0  0  0  0  0  0
   59.8740   34.9610   47.2210 C   0  0  0  0  0  0  0  0  0  0  0  0
   59.5510   35.0420   45.8650 C   0  0  0  0  0  0  0  0  0  0  0  0
   58.6430   34.1380   45.3040 C   0  0  0  0  0  0  0  0  0  0  0  0
   57.8590   29.3580   43.8190 N   0  0  0  0  0  0  0  0  0  0  0  0
   57.7390   27.9270   43.8830 C   0  0  0  0  0  0  0  0  0  0  0  0
   57.5620   27.2590   45.1060 C   0  0  0  0  0  0  0  0  0  0  0  0
   57.4730   25.8650   45.1420 C   0  0  0  0  0  0  0  0  0  0  0  0
   57.5680   25.1070   43.9600 C   0  0  0  0  0  0  0  0  0  0  0  0
   57.4690   23.6270   44.0130 C   0  0  0  0  0  0  0  0  0  0  0  0
   57.8490   22.9440   45.0380 N   0  0  0  0  0  0  0  0  0  0  0  0
   57.6270   21.5230   44.8020 C   0  0  0  0  0  0  0  0  0  0  0  0
   57.0030   21.4430   43.4020 C   0  0  0  0  0  0  0  0  0  0  0  0
   56.9460   22.8240   42.9670 N   0  0  0  0  0  0  0  0  0  0  0  0
   57.7720   25.7800   42.7420 C   0  0  0  0  0  0  0  0  0  0  0  0
   57.8640   27.1740   42.7080 C   0  0  0  0  0  0  0  0  0  0  0  0
   58.0469   31.9525   43.7633 H   0  0  0  0  0  0  0  0  0  0  0  0
   56.2697   32.2654   43.7206 H   0  0  0  0  0  0  0  0  0  0  0  0
   57.9270   32.2943   48.0975 H   0  0  0  0  0  0  0  0  0  0  0  0
   59.5470   33.9106   49.0889 H   0  0  0  0  0  0  0  0  0  0  0  0
   60.5878   35.6738   47.6596 H   0  0  0  0  0  0  0  0  0  0  0  0
   60.0116   35.8185   45.2366 H   0  0  0  0  0  0  0  0  0  0  0  0
   58.3938   34.2032   44.2346 H   0  0  0  0  0  0  0  0  0  0  0  0
   58.7140   29.7550   43.3690 H   0  0  0  0  0  0  0  0  0  0  0  0
   57.4931   27.8361   46.0399 H   0  0  0  0  0  0  0  0  0  0  0  0
   57.3270   25.3542   46.1052 H   0  0  0  0  0  0  0  0  0  0  0  0
   58.5792   20.9731   44.8324 H   0  0  0  0  0  0  0  0  0  0  0  0
   56.9783   21.0743   45.5687 H   0  0  0  0  0  0  0  0  0  0  0  0
   57.6326   20.8454   42.7264 H   0  0  0  0  0  0  0  0  0  0  0  0
   56.0159   20.9577   43.4044 H   0  0  0  0  0  0  0  0  0  0  0  0
   56.5230   23.1490   42.0710 H   0  0  0  0  0  0  0  0  0  0  0  0
   57.8598   25.2045   41.8087 H   0  0  0  0  0  0  0  0  0  0  0  0
   58.0362   27.6852   41.7493 H   0  0  0  0  0  0  0  0  0  0  0  0
  1  2  2  0
  2  3  1  0
  3  4  1  0
  4  5  1  0
  5  6  2  0
  6  7  1  0
  7  8  2  0
  8  9  1  0
  9 10  2  0
  2 11  1  0
 11 12  1  0
 12 13  2  0
 13 14  1  0
 14 15  2  0
 15 16  1  0
 16 17  2  0
 17 18  1  0
 18 19  1  0
 19 20  1  0
 15 21  1  0
 21 22  2  0
 10  5  1  0
 22 12  1  0
 20 16  1  0
  3 23  1  0
  3 24  1  0
  6 25  1  0
  7 26  1  0
  8 27  1  0
  9 28  1  0
 10 29  1  0
 11 30  1  0
 13 31  1  0
 14 32  1  0
 18 33  1  0
 18 34  1  0
 19 35  1  0
 19 36  1  0
 20 37  1  0
 21 38  1  0
 22 39  1  0
M  END
>  <UniqueID>  (6) 
5

>  <SMILES>  (6) 
O=C(COc1ccccc1)Nc1ccc(C2=NCCN2)cc1

>  <Energy>  (6) 
56.603902709959

>  <Genealogy>  (6) 
O=C(COc1ccccc1)Nc1ccc(C2=NCCN2)cc1 (3D coordinates assigned)
O=C(COc1ccccc1)Nc1ccc(C2=NCCN2)cc1 (nonaromatic ring conformer: 56.603902709959 kcal/mol)

>  <smiles>  (6) 
O=C(COc1ccccc1)Nc1ccc(C2=NCCN2)cc1

>  <score_type>  (6) 
oracle

>  <origin>  (6) 
adg

>  <m_score__min__energy>  (6) 
-8.0099999999999998

>  <m_primary>  (6) 
energy

$$$$
6:0
     RDKit          3D

 29 31  0  0  0  0  0  0  0  0999 V2000
   64.5549   32.1449   46.4826 H   0  0  0  0  0  0  0  0  0  0  0  0
   63.7510   32.4810   47.1540 C   0  0  0  0  0  0  0  0  0  0  0  0
   62.7270   31.5990   47.5150 C   0  0  0  0  0  0  0  0  0  0  0  0
   62.7268   30.5693   47.1281 H   0  0  0  0  0  0  0  0  0  0  0  0
   61.7040   32.0250   48.3670 C   0  0  0  0  0  0  0  0  0  0  0  0
   60.9049   31.3262   48.6554 H   0  0  0  0  0  0  0  0  0  0  0  0
   61.6920   33.3430   48.8570 C   0  0  0  0  0  0  0  0  0  0  0  0
   60.5950   33.8070   49.7800 C   0  0  0  0  0  0  0  0  0  0  0  0
   60.9584   34.6600   50.3720 H   0  0  0  0  0  0  0  0  0  0  0  0
   60.3146   32.9739   50.4413 H   0  0  0  0  0  0  0  0  0  0  0  0
   59.4160   34.2190   49.0190 N   0  0  0  0  0  0  0  0  0  0  0  0
   59.1010   33.8010   47.8280 C   0  0  0  0  0  0  0  0  0  0  0  0
   59.3020   34.7400   46.4380 S   0  0  0  0  0  0  0  0  0  0  0  0
   58.7010   33.5230   45.4460 C   0  0  0  0  0  0  0  0  0  0  0  0
   58.5370   33.5320   44.0640 C   0  0  0  0  0  0  0  0  0  0  0  0
   58.8140   34.4136   43.4673 H   0  0  0  0  0  0  0  0  0  0  0  0
   58.0070   32.3820   43.4520 C   0  0  0  0  0  0  0  0  0  0  0  0
   57.7620   32.3410   41.5590 Br  0  0  0  0  0  0  0  0  0  0  0  0
   57.6570   31.2600   44.2310 C   0  0  0  0  0  0  0  0  0  0  0  0
   57.2437   30.3648   43.7433 H   0  0  0  0  0  0  0  0  0  0  0  0
   57.8320   31.2760   45.6260 C   0  0  0  0  0  0  0  0  0  0  0  0
   57.5590   30.4024   46.2362 H   0  0  0  0  0  0  0  0  0  0  0  0
   58.3600   32.4250   46.2210 C   0  0  0  0  0  0  0  0  0  0  0  0
   58.5800   32.5760   47.5530 N   0  0  0  0  0  0  0  0  0  0  0  0
   58.3640   31.8380   48.2580 H   0  0  0  0  0  0  0  0  0  0  0  0
   62.7300   34.2180   48.4980 C   0  0  0  0  0  0  0  0  0  0  0  0
   62.7386   35.2462   48.8889 H   0  0  0  0  0  0  0  0  0  0  0  0
   63.7530   33.7890   47.6460 C   0  0  0  0  0  0  0  0  0  0  0  0
   64.5595   34.4815   47.3631 H   0  0  0  0  0  0  0  0  0  0  0  0
  1  2  1  0
  2  3  2  0
  3  4  1  0
  3  5  1  0
  5  6  1  0
  5  7  2  0
  7  8  1  0
  8  9  1  0
  8 10  1  0
  8 11  1  0
 11 12  2  0
 12 13  1  0
 13 14  1  0
 14 15  2  0
 15 16  1  0
 15 17  1  0
 17 18  1  0
 17 19  2  0
 19 20  1  0
 19 21  1  0
 21 22  1  0
 21 23  2  0
 23 24  1  0
 24 25  1  0
  7 26  1  0
 26 27  1  0
 26 28  2  0
 28 29  1  0
 28  2  1  0
 24 12  1  0
 23 14  1  0
M  END
>  <UniqueID>  (7) 
6

>  <SMILES>  (7) 
Brc1ccc2[nH]/c(=N\Cc3ccccc3)sc2c1

>  <Energy>  (7) 
65.80817746590448

>  <Genealogy>  (7) 
Brc1ccc2[nH]/c(=N\Cc3ccccc3)sc2c1 (cis-trans isomerization)
Brc1ccc2[nH]/c(=N\Cc3ccccc3)sc2c1 (3D coordinates assigned)
Brc1ccc2[nH]/c(=N\Cc3ccccc3)sc2c1 (optimized conformer: 65.80817746590448 kcal/mol)

>  <smiles>  (7) 
Brc1ccc2[nH]c(=NCc3ccccc3)sc2c1

>  <score_type>  (7) 
oracle

>  <origin>  (7) 
adg

>  <m_score__min__energy>  (7) 
-6.9699999999999998

>  <m_primary>  (7) 
energy

$$$$
7:0
     RDKit          3D

 39 42  0  0  0  0  0  0  0  0999 V2000
   59.0400   33.3957   48.7028 H   0  0  0  0  0  0  0  0  0  0  0  0
   59.7420   33.3950   47.8560 C   0  0  0  0  0  0  0  0  0  0  0  0
   59.2290   33.4370   46.6180 C   0  0  0  0  0  0  0  0  0  0  0  0
   58.8890   32.3370   45.7330 C   0  0  0  0  0  0  0  0  0  0  0  0
   59.0620   31.0130   45.9610 N   0  0  0  0  0  0  0  0  0  0  0  0
   58.7480   30.1190   44.9800 C   0  0  0  0  0  0  0  0  0  0  0  0
   58.9380   28.6700   45.2300 C   0  0  0  0  0  0  0  0  0  0  0  0
   59.9970   28.2050   46.0340 C   0  0  0  0  0  0  0  0  0  0  0  0
   60.7041   28.9223   46.4761 H   0  0  0  0  0  0  0  0  0  0  0  0
   60.1540   26.8360   46.2730 C   0  0  0  0  0  0  0  0  0  0  0  0
   60.9851   26.4800   46.8995 H   0  0  0  0  0  0  0  0  0  0  0  0
   59.2580   25.9200   45.7180 C   0  0  0  0  0  0  0  0  0  0  0  0
   59.3849   24.8435   45.9055 H   0  0  0  0  0  0  0  0  0  0  0  0
   58.2010   26.3710   44.9250 C   0  0  0  0  0  0  0  0  0  0  0  0
   57.4943   25.6490   44.4898 H   0  0  0  0  0  0  0  0  0  0  0  0
   58.0390   27.7380   44.6830 C   0  0  0  0  0  0  0  0  0  0  0  0
   57.2022   28.0870   44.0602 H   0  0  0  0  0  0  0  0  0  0  0  0
   58.2660   30.5730   43.7810 N   0  0  0  0  0  0  0  0  0  0  0  0
   57.9890   29.9030   43.0280 H   0  0  0  0  0  0  0  0  0  0  0  0
   58.1200   31.9080   43.5620 C   0  0  0  0  0  0  0  0  0  0  0  0
   57.6910   32.3280   42.4530 O   0  0  0  0  0  0  0  0  0  0  0  0
   58.4460   32.7800   44.5510 N   0  0  0  0  0  0  0  0  0  0  0  0
   58.4170   34.2360   44.4970 C   0  0  0  0  0  0  0  0  0  0  0  0
   59.0437   34.6035   43.6711 H   0  0  0  0  0  0  0  0  0  0  0  0
   57.4013   34.6197   44.3208 H   0  0  0  0  0  0  0  0  0  0  0  0
   58.9830   34.7060   45.8570 C   0  0  0  0  0  0  0  0  0  0  0  0
   59.9208   35.2635   45.7165 H   0  0  0  0  0  0  0  0  0  0  0  0
   58.2966   35.3846   46.3846 H   0  0  0  0  0  0  0  0  0  0  0  0
   61.1840   33.3480   48.1580 C   0  0  0  0  0  0  0  0  0  0  0  0
   61.6840   33.8540   49.3700 C   0  0  0  0  0  0  0  0  0  0  0  0
   60.9901   34.2417   50.1304 H   0  0  0  0  0  0  0  0  0  0  0  0
   63.0610   33.8660   49.6120 C   0  0  0  0  0  0  0  0  0  0  0  0
   63.4480   34.2594   50.5635 H   0  0  0  0  0  0  0  0  0  0  0  0
   63.9460   33.3790   48.6470 C   0  0  0  0  0  0  0  0  0  0  0  0
   65.0281   33.3764   48.8448 H   0  0  0  0  0  0  0  0  0  0  0  0
   63.4570   32.8950   47.4300 C   0  0  0  0  0  0  0  0  0  0  0  0
   64.1549   32.5163   46.6687 H   0  0  0  0  0  0  0  0  0  0  0  0
   62.0810   32.8920   47.1800 C   0  0  0  0  0  0  0  0  0  0  0  0
   61.7005   32.5308   46.2132 H   0  0  0  0  0  0  0  0  0  0  0  0
  1  2  1  0
  2  3  2  0
  3  4  1  0
  4  5  2  0
  5  6  1  0
  6  7  1  0
  7  8  2  0
  8  9  1  0
  8 10  1  0
 10 11  1  0
 10 12  2  0
 12 13  1  0
 12 14  1  0
 14 15  1  0
 14 16  2  0
 16 17  1  0
  6 18  2  0
 18 19  1  0
 18 20  1  0
 20 21  2  0
 20 22  1  0
 22 23  1  0
 23 24  1  0
 23 25  1  0
 23 26  1  0
 26 27  1  0
 26 28  1  0
  2 29  1  0
 29 30  2  0
 30 31  1  0
 30 32  1  0
 32 33  1  0
 32 34  2  0
 34 35  1  0
 34 36  1  0
 36 37  1  0
 36 38  2  0
 38 39  1  0
 26  3  1  0
 38 29  1  0
 22  4  1  0
 16  7  1  0
M  CHG  1  18   1
M  END
>  <UniqueID>  (8) 
7

>  <SMILES>  (8) 
O=c1[nH+]c(-c2ccccc2)nc2n1CC/C2=C/c1ccccc1

>  <Energy>  (8) 
67.2746108846461

>  <Genealogy>  (8) 
O=c1[nH+]c(-c2ccccc2)nc2n1CCC2=Cc1ccccc1 (protonated)
O=c1[nH+]c(-c2ccccc2)nc2n1CC/C2=C/c1ccccc1 (cis-trans isomerization)
O=c1[nH+]c(-c2ccccc2)nc2n1CC/C2=C/c1ccccc1 (3D coordinates assigned)
O=c1[nH+]c(-c2ccccc2)nc2n1CC/C2=C/c1ccccc1 (nonaromatic ring conformer: 67.2746108846461 kcal/mol)

>  <smiles>  (8) 
O=c1nc(-c2ccccc2)nc2n1CCC2=Cc1ccccc1

>  <score_type>  (8) 
oracle

>  <origin>  (8) 
adg

>  <m_score__min__energy>  (8) 
-6.9500000000000002

>  <m_primary>  (8) 
energy

$$$$
8:0
     RDKit          3D

 42 44  0  0  0  0  0  0  0  0999 V2000
   65.5220   32.3340   50.2660 C   0  0  0  0  0  0  0  0  0  0  0  0
   65.2650   33.0940   49.0900 O   0  0  0  0  0  0  0  0  0  0  0  0
   63.9850   33.3500   48.5760 C   0  0  0  0  0  0  0  0  0  0  0  0
   63.6710   33.1860   47.2150 C   0  0  0  0  0  0  0  0  0  0  0  0
   62.3800   33.4550   46.7510 C   0  0  0  0  0  0  0  0  0  0  0  0
   61.3760   33.8880   47.6370 C   0  0  0  0  0  0  0  0  0  0  0  0
   60.0400   34.1770   47.1680 N   0  0  0  0  0  0  0  0  0  0  0  0
   59.8070   35.2370   46.1810 C   0  0  0  0  0  0  0  0  0  0  0  0
   58.9620   33.2830   47.4960 C   0  0  0  0  0  0  0  0  0  0  0  0
   58.6720   33.0810   48.7060 O   0  0  0  0  0  0  0  0  0  0  0  0
   58.1940   32.5880   46.4480 C   0  0  0  0  0  0  0  0  0  0  0  0
   57.0870   33.0820   45.7630 C   0  0  0  0  0  0  0  0  0  0  0  0
   56.6530   32.1670   44.8630 N   0  0  0  0  0  0  0  0  0  0  0  0
   57.4570   31.1210   44.9570 N   0  0  0  0  0  0  0  0  0  0  0  0
   57.4130   29.9810   44.2190 C   0  0  0  0  0  0  0  0  0  0  0  0
   56.3740   29.7880   43.1540 C   0  0  0  0  0  0  0  0  0  0  0  0
   58.4160   29.0220   44.4380 C   0  0  0  0  0  0  0  0  0  0  0  0
   59.4010   29.2710   45.4200 C   0  0  0  0  0  0  0  0  0  0  0  0
   60.5080   28.2820   45.6330 C   0  0  0  0  0  0  0  0  0  0  0  0
   59.3890   30.4450   46.1220 N   0  0  0  0  0  0  0  0  0  0  0  0
   58.3940   31.3410   45.8890 C   0  0  0  0  0  0  0  0  0  0  0  0
   61.6980   34.0500   48.9960 C   0  0  0  0  0  0  0  0  0  0  0  0
   62.9890   33.7830   49.4580 C   0  0  0  0  0  0  0  0  0  0  0  0
   65.3138   32.9498   51.1534 H   0  0  0  0  0  0  0  0  0  0  0  0
   64.8746   31.4448   50.2767 H   0  0  0  0  0  0  0  0  0  0  0  0
   66.5762   32.0202   50.2767 H   0  0  0  0  0  0  0  0  0  0  0  0
   64.4451   32.8444   46.5121 H   0  0  0  0  0  0  0  0  0  0  0  0
   62.1468   33.3271   45.6836 H   0  0  0  0  0  0  0  0  0  0  0  0
   59.5990   36.1834   46.7016 H   0  0  0  0  0  0  0  0  0  0  0  0
   60.7009   35.3540   45.5507 H   0  0  0  0  0  0  0  0  0  0  0  0
   58.9465   34.9684   45.5507 H   0  0  0  0  0  0  0  0  0  0  0  0
   56.6319   34.0697   45.9282 H   0  0  0  0  0  0  0  0  0  0  0  0
   55.3963   29.6064   43.6242 H   0  0  0  0  0  0  0  0  0  0  0  0
   56.3179   30.6911   42.5285 H   0  0  0  0  0  0  0  0  0  0  0  0
   56.6460   28.9250   42.5285 H   0  0  0  0  0  0  0  0  0  0  0  0
   58.4343   28.0905   43.8533 H   0  0  0  0  0  0  0  0  0  0  0  0
   60.6688   28.1383   46.7117 H   0  0  0  0  0  0  0  0  0  0  0  0
   60.2352   27.3213   45.1718 H   0  0  0  0  0  0  0  0  0  0  0  0
   61.4320   28.6609   45.1718 H   0  0  0  0  0  0  0  0  0  0  0  0
   60.1460   30.6520   46.8090 H   0  0  0  0  0  0  0  0  0  0  0  0
   60.9261   34.3902   49.7020 H   0  0  0  0  0  0  0  0  0  0  0  0
   63.2245   33.9143   50.5244 H   0  0  0  0  0  0  0  0  0  0  0  0
  1  2  1  0
  2  3  1  0
  3  4  2  0
  4  5  1  0
  5  6  2  0
  6  7  1  0
  7  8  1  0
  7  9  1  0
  9 10  2  0
  9 11  1  0
 11 12  1  0
 12 13  2  0
 13 14  1  0
 14 15  1  0
 15 16  1  0
 15 17  2  0
 17 18  1  0
 18 19  1  0
 18 20  2  0
 20 21  1  0
  6 22  1  0
 22 23  2  0
 23  3  1  0
 21 11  2  0
 21 14  1  0
  1 24  1  0
  1 25  1  0
  1 26  1  0
  4 27  1  0
  5 28  1  0
  8 29  1  0
  8 30  1  0
  8 31  1  0
 12 32  1  0
 16 33  1  0
 16 34  1  0
 16 35  1  0
 17 36  1  0
 19 37  1  0
 19 38  1  0
 19 39  1  0
 20 40  1  0
 22 41  1  0
 23 42  1  0
M  CHG  1  20   1
M  END
>  <UniqueID>  (9) 
8

>  <SMILES>  (9) 
COc1ccc(N(C)C(=O)c2cnn3c(C)cc(C)[nH+]c23)cc1

>  <Energy>  (9) 
87.00649810606826

>  <Genealogy>  (9) 
COc1ccc(N(C)C(=O)c2cnn3c(C)cc(C)[nH+]c23)cc1 (protonated)
COc1ccc(N(C)C(=O)c2cnn3c(C)cc(C)[nH+]c23)cc1 (3D coordinates assigned)
COc1ccc(N(C)C(=O)c2cnn3c(C)cc(C)[nH+]c23)cc1 (optimized conformer: 87.00649810606826 kcal/mol)

>  <smiles>  (9) 
COc1ccc(N(C)C(=O)c2cnn3c(C)cc(C)nc23)cc1

>  <score_type>  (9) 
oracle

>  <origin>  (9) 
adg

>  <m_score__min__energy>  (9) 
-6.0499999999999998

>  <m_primary>  (9) 
energy

$$$$
9:0
     RDKit          3D

 42 43  0  0  0  0  0  0  0  0999 V2000
   58.5260   33.6783   43.2152 H   0  0  0  0  0  0  0  0  0  0  0  0
   57.9900   32.7570   43.4870 C   0  0  0  0  0  0  0  0  0  0  0  0
   57.8930   32.3560   44.8300 C   0  0  0  0  0  0  0  0  0  0  0  0
   58.5030   33.1480   45.9290 C   0  0  0  0  0  0  0  0  0  0  0  0
   59.1140   34.3840   45.6460 C   0  0  0  0  0  0  0  0  0  0  0  0
   59.1323   34.7593   44.6121 H   0  0  0  0  0  0  0  0  0  0  0  0
   59.6980   35.1390   46.6680 C   0  0  0  0  0  0  0  0  0  0  0  0
   60.1662   36.1070   46.4363 H   0  0  0  0  0  0  0  0  0  0  0  0
   59.6880   34.6670   47.9810 C   0  0  0  0  0  0  0  0  0  0  0  0
   60.1458   35.2635   48.7839 H   0  0  0  0  0  0  0  0  0  0  0  0
   59.0960   33.4360   48.2750 C   0  0  0  0  0  0  0  0  0  0  0  0
   59.0911   33.0631   49.3098 H   0  0  0  0  0  0  0  0  0  0  0  0
   58.5100   32.6770   47.2580 C   0  0  0  0  0  0  0  0  0  0  0  0
   58.0513   31.7059   47.4960 H   0  0  0  0  0  0  0  0  0  0  0  0
   57.2380   31.1990   45.1260 N   0  0  0  0  0  0  0  0  0  0  0  0
   56.6680   30.4330   44.1590 C   0  0  0  0  0  0  0  0  0  0  0  0
   56.0570   29.3390   44.4940 N   0  0  0  0  0  0  0  0  0  0  0  0
   56.6670   28.2670   45.2780 C   0  0  0  0  0  0  0  0  0  0  0  0
   55.8875   27.5537   45.5838 H   0  0  0  0  0  0  0  0  0  0  0  0
   57.1494   28.7050   46.1643 H   0  0  0  0  0  0  0  0  0  0  0  0
   57.7290   27.5300   44.4480 C   0  0  0  0  0  0  0  0  0  0  0  0
   57.2170   26.9128   43.6951 H   0  0  0  0  0  0  0  0  0  0  0  0
   58.3247   26.9238   45.1464 H   0  0  0  0  0  0  0  0  0  0  0  0
   58.6620   28.4380   43.7530 N   0  0  0  0  0  0  0  0  0  0  0  0
   58.1700   29.3540   43.6250 H   0  0  0  0  0  0  0  0  0  0  0  0
   58.8870   28.0560   42.8070 H   0  0  0  0  0  0  0  0  0  0  0  0
   59.9040   28.6620   44.5170 C   0  0  0  0  0  0  0  0  0  0  0  0
   60.5287   29.3875   43.9753 H   0  0  0  0  0  0  0  0  0  0  0  0
   60.4186   27.6955   44.6217 H   0  0  0  0  0  0  0  0  0  0  0  0
   59.6200   29.2060   45.9280 C   0  0  0  0  0  0  0  0  0  0  0  0
   59.5930   28.3614   46.6322 H   0  0  0  0  0  0  0  0  0  0  0  0
   58.6569   29.7362   45.8926 H   0  0  0  0  0  0  0  0  0  0  0  0
   60.6790   30.2020   46.3990 C   0  0  0  0  0  0  0  0  0  0  0  0
   60.7003   30.2220   47.4986 H   0  0  0  0  0  0  0  0  0  0  0  0
   61.6648   29.8962   46.0187 H   0  0  0  0  0  0  0  0  0  0  0  0
   60.4342   31.2047   46.0187 H   0  0  0  0  0  0  0  0  0  0  0  0
   56.7510   30.8200   42.8570 N   0  0  0  0  0  0  0  0  0  0  0  0
   57.3930   31.9640   42.5020 C   0  0  0  0  0  0  0  0  0  0  0  0
   57.4900   32.3460   41.0600 C   0  0  0  0  0  0  0  0  0  0  0  0
   57.7600   33.4093   40.9797 H   0  0  0  0  0  0  0  0  0  0  0  0
   58.2612   31.7338   40.5696 H   0  0  0  0  0  0  0  0  0  0  0  0
   56.5202   32.1759   40.5696 H   0  0  0  0  0  0  0  0  0  0  0  0
  1  2  1  0
  2  3  1  0
  3  4  1  0
  4  5  2  0
  5  6  1  0
  5  7  1  0
  7  8  1  0
  7  9  2  0
  9 10  1  0
  9 11  1  0
 11 12  1  0
 11 13  2  0
 13 14  1  0
  3 15  2  0
 15 16  1  0
 16 17  2  0
 17 18  1  0
 18 19  1  0
 18 20  1  0
 18 21  1  0
 21 22  1  0
 21 23  1  0
 21 24  1  0
 24 25  1  0
 24 26  1  0
 24 27  1  0
 27 28  1  0
 27 29  1  0
 27 30  1  0
 30 31  1  0
 30 32  1  0
 30 33  1  0
 33 34  1  0
 33 35  1  0
 33 36  1  0
 16 37  1  0
 37 38  1  0
 38 39  1  0
 39 40  1  0
 39 41  1  0
 39 42  1  0
 38  2  2  0
 13  4  1  0
M  CHG  2  24   1  37  -1
M  END
>  <UniqueID>  (10) 
9

>  <SMILES>  (10) 
CCC[NH2+]CC/N=c1/nc(-c2ccccc2)cc(C)[n-]1

>  <Energy>  (10) 
39.14033079400486

>  <Genealogy>  (10) 
CCC[NH2+]CCN=c1nc(-c2ccccc2)cc(C)[n-]1 (protonated)
CCC[NH2+]CC/N=c1/nc(-c2ccccc2)cc(C)[n-]1 (cis-trans isomerization)
CCC[NH2+]CC/N=c1/nc(-c2ccccc2)cc(C)[n-]1 (3D coordinates assigned)
CCC[NH2+]CC/N=c1/nc(-c2ccccc2)cc(C)[n-]1 (optimized conformer: 39.14033079400486 kcal/mol)

>  <smiles>  (10) 
CCCNCCN=c1nc(-c2ccccc2)cc(C)[nH]1

>  <score_type>  (10) 
oracle

>  <origin>  (10) 
adg

>  <m_score__min__energy>  (10) 
-7.2199999999999998

>  <m_primary>  (10) 
energy

$$$$
10:0
     RDKit          3D

 47 50  0  0  0  0  0  0  0  0999 V2000
   56.1720   29.9340   42.9770 C   0  0  0  0  0  0  0  0  0  0  0  0
   57.2030   30.1320   44.0560 C   0  0  0  0  0  0  0  0  0  0  0  0
   57.3730   31.4110   44.6000 C   0  0  0  0  0  0  0  0  0  0  0  0
   58.3560   31.6350   45.5690 C   0  0  0  0  0  0  0  0  0  0  0  0
   58.5560   32.9500   46.1220 N   0  0  0  0  0  0  0  0  0  0  0  0
   59.0870   34.0330   45.2880 C   0  0  0  0  0  0  0  0  0  0  0  0
   59.6720   35.1560   46.1620 C   0  0  0  0  0  0  0  0  0  0  0  0
   60.3720   34.6190   47.3500 N   0  0  0  0  0  0  0  0  0  0  0  0
   61.6010   33.8950   46.9800 C   0  0  0  0  0  0  0  0  0  0  0  0
   59.4960   33.8080   48.2350 C   0  0  0  0  0  0  0  0  0  0  0  0
   58.2540   33.2320   47.5280 C   0  0  0  0  0  0  0  0  0  0  0  0
   59.1450   30.5950   45.9580 N   0  0  0  0  0  0  0  0  0  0  0  0
   58.9740   29.3700   45.4620 N   0  0  0  0  0  0  0  0  0  0  0  0
   58.0150   29.0830   44.5410 C   0  0  0  0  0  0  0  0  0  0  0  0
   57.8990   27.6850   44.0820 C   0  0  0  0  0  0  0  0  0  0  0  0
   58.0150   27.2140   42.7770 C   0  0  0  0  0  0  0  0  0  0  0  0
   57.7650   25.8430   42.6510 C   0  0  0  0  0  0  0  0  0  0  0  0
   57.4290   25.2180   43.8550 C   0  0  0  0  0  0  0  0  0  0  0  0
   57.0940   23.7840   44.0530 C   0  0  0  0  0  0  0  0  0  0  0  0
   57.4720   23.1180   45.2320 C   0  0  0  0  0  0  0  0  0  0  0  0
   57.1550   21.7710   45.4140 C   0  0  0  0  0  0  0  0  0  0  0  0
   56.4630   21.0910   44.4130 C   0  0  0  0  0  0  0  0  0  0  0  0
   56.1050   21.7390   43.2750 N   0  0  0  0  0  0  0  0  0  0  0  0
   56.3990   23.0510   43.0720 C   0  0  0  0  0  0  0  0  0  0  0  0
   57.4410   26.3980   45.0610 S   0  0  0  0  0  0  0  0  0  0  0  0
   55.1909   29.7456   43.4374 H   0  0  0  0  0  0  0  0  0  0  0  0
   56.1165   30.8379   42.3526 H   0  0  0  0  0  0  0  0  0  0  0  0
   56.4553   29.0738   42.3526 H   0  0  0  0  0  0  0  0  0  0  0  0
   56.7327   32.2403   44.2648 H   0  0  0  0  0  0  0  0  0  0  0  0
   59.8783   33.6327   44.6372 H   0  0  0  0  0  0  0  0  0  0  0  0
   58.2675   34.4470   44.6822 H   0  0  0  0  0  0  0  0  0  0  0  0
   60.3856   35.7395   45.5617 H   0  0  0  0  0  0  0  0  0  0  0  0
   58.8407   35.7864   46.5106 H   0  0  0  0  0  0  0  0  0  0  0  0
   62.1312   33.5827   47.8918 H   0  0  0  0  0  0  0  0  0  0  0  0
   61.3388   33.0071   46.3860 H   0  0  0  0  0  0  0  0  0  0  0  0
   62.2505   34.5548   46.3860 H   0  0  0  0  0  0  0  0  0  0  0  0
   60.0871   32.9703   48.6336 H   0  0  0  0  0  0  0  0  0  0  0  0
   59.1300   34.4808   49.0246 H   0  0  0  0  0  0  0  0  0  0  0  0
   57.9508   32.3004   48.0282 H   0  0  0  0  0  0  0  0  0  0  0  0
   57.4387   33.9687   47.5787 H   0  0  0  0  0  0  0  0  0  0  0  0
   59.9160   30.7500   46.6440 H   0  0  0  0  0  0  0  0  0  0  0  0
   58.2783   27.8587   41.9255 H   0  0  0  0  0  0  0  0  0  0  0  0
   57.8272   25.3066   41.6927 H   0  0  0  0  0  0  0  0  0  0  0  0
   58.0206   23.6615   46.0154 H   0  0  0  0  0  0  0  0  0  0  0  0
   57.4483   21.2512   46.3380 H   0  0  0  0  0  0  0  0  0  0  0  0
   56.2070   20.0294   44.5452 H   0  0  0  0  0  0  0  0  0  0  0  0
   56.0924   23.5422   42.1367 H   0  0  0  0  0  0  0  0  0  0  0  0
  1  2  1  0
  2  3  2  0
  3  4  1  0
  4  5  1  0
  5  6  1  0
  6  7  1  0
  7  8  1  0
  8  9  1  0
  8 10  1  0
 10 11  1  0
  4 12  2  0
 12 13  1  0
 13 14  2  0
 14 15  1  0
 15 16  2  0
 16 17  1  0
 17 18  2  0
 18 19  1  0
 19 20  2  0
 20 21  1  0
 21 22  2  0
 22 23  1  0
 23 24  2  0
 18 25  1  0
 14  2  1  0
 25 15  1  0
 11  5  1  0
 24 19  1  0
  1 26  1  0
  1 27  1  0
  1 28  1  0
  3 29  1  0
  6 30  1  0
  6 31  1  0
  7 32  1  0
  7 33  1  0
  9 34  1  0
  9 35  1  0
  9 36  1  0
 10 37  1  0
 10 38  1  0
 11 39  1  0
 11 40  1  0
 12 41  1  0
 16 42  1  0
 17 43  1  0
 20 44  1  0
 21 45  1  0
 22 46  1  0
 24 47  1  0
M  CHG  1  12   1
M  END
>  <UniqueID>  (11) 
10

>  <SMILES>  (11) 
Cc1cc(N2CCN(C)CC2)[nH+]nc1-c1ccc(-c2cccnc2)s1

>  <Energy>  (11) 
96.05350799470655

>  <Genealogy>  (11) 
Cc1cc(N2CCN(C)CC2)[nH+]nc1-c1ccc(-c2cccnc2)s1 (protonated)
Cc1cc(N2CCN(C)CC2)[nH+]nc1-c1ccc(-c2cccnc2)s1 (3D coordinates assigned)
Cc1cc(N2CCN(C)CC2)[nH+]nc1-c1ccc(-c2cccnc2)s1 (nonaromatic ring conformer: 96.05350799470655 kcal/mol)

>  <smiles>  (11) 
Cc1cc(N2CCN(C)CC2)nnc1-c1ccc(-c2cccnc2)s1

>  <score_type>  (11) 
oracle

>  <origin>  (11) 
adg

>  <m_score__min__energy>  (11) 
-7.2800000000000002

>  <m_primary>  (11) 
energy

$$$$
11:0
     RDKit          3D

 33 34  0  0  0  0  0  0  0  0999 V2000
   58.1390   27.1550   43.4010 C   0  0  0  0  0  0  0  0  0  0  0  0
   57.6830   27.5980   44.7880 C   0  0  0  0  0  0  0  0  0  0  0  0
   57.5990   29.1090   44.8730 C   0  0  0  0  0  0  0  0  0  0  0  0
   58.7350   29.9130   45.1310 C   0  0  0  0  0  0  0  0  0  0  0  0
   60.1100   29.3320   45.2870 C   0  0  0  0  0  0  0  0  0  0  0  0
   58.5950   31.2630   45.2110 N   0  0  0  0  0  0  0  0  0  0  0  0
   57.3860   31.8600   45.0690 C   0  0  0  0  0  0  0  0  0  0  0  0
   57.2520   33.6430   45.1580 S   0  0  0  0  0  0  0  0  0  0  0  0
   59.0430   33.9410   44.9600 C   0  0  0  0  0  0  0  0  0  0  0  0
   59.7410   33.9490   46.2930 C   0  0  0  0  0  0  0  0  0  0  0  0
   59.0130   34.1980   47.4680 C   0  0  0  0  0  0  0  0  0  0  0  0
   59.6650   34.2390   48.7050 C   0  0  0  0  0  0  0  0  0  0  0  0
   61.0460   34.0380   48.7750 C   0  0  0  0  0  0  0  0  0  0  0  0
   61.7780   33.7940   47.6100 C   0  0  0  0  0  0  0  0  0  0  0  0
   61.1300   33.7490   46.3720 C   0  0  0  0  0  0  0  0  0  0  0  0
   56.2800   31.1090   44.8480 N   0  0  0  0  0  0  0  0  0  0  0  0
   56.3550   29.7580   44.7500 C   0  0  0  0  0  0  0  0  0  0  0  0
   55.3000   29.0980   44.5470 O   0  0  0  0  0  0  0  0  0  0  0  0
   58.9248   26.3916   43.4998 H   0  0  0  0  0  0  0  0  0  0  0  0
   57.2846   26.7328   42.8516 H   0  0  0  0  0  0  0  0  0  0  0  0
   58.5363   28.0212   42.8516 H   0  0  0  0  0  0  0  0  0  0  0  0
   56.6910   27.1700   44.9947 H   0  0  0  0  0  0  0  0  0  0  0  0
   58.4159   27.2446   45.5283 H   0  0  0  0  0  0  0  0  0  0  0  0
   60.3466   29.2320   46.3566 H   0  0  0  0  0  0  0  0  0  0  0  0
   60.1460   28.3418   44.8094 H   0  0  0  0  0  0  0  0  0  0  0  0
   60.8452   29.9964   44.8094 H   0  0  0  0  0  0  0  0  0  0  0  0
   59.4727   33.1450   44.3341 H   0  0  0  0  0  0  0  0  0  0  0  0
   59.1836   34.9236   44.4859 H   0  0  0  0  0  0  0  0  0  0  0  0
   57.9265   34.3613   47.4154 H   0  0  0  0  0  0  0  0  0  0  0  0
   59.0901   34.4296   49.6232 H   0  0  0  0  0  0  0  0  0  0  0  0
   61.5575   34.0719   49.7483 H   0  0  0  0  0  0  0  0  0  0  0  0
   62.8653   33.6372   47.6670 H   0  0  0  0  0  0  0  0  0  0  0  0
   61.7091   33.5564   45.4568 H   0  0  0  0  0  0  0  0  0  0  0  0
  1  2  1  0
  2  3  1  0
  3  4  2  0
  4  5  1  0
  4  6  1  0
  6  7  1  0
  7  8  1  0
  8  9  1  0
  9 10  1  0
 10 11  2  0
 11 12  1  0
 12 13  2  0
 13 14  1  0
 14 15  2  0
  7 16  2  0
 16 17  1  0
 17 18  2  0
 17  3  1  0
 15 10  1  0
  1 19  1  0
  1 20  1  0
  1 21  1  0
  2 22  1  0
  2 23  1  0
  5 24  1  0
  5 25  1  0
  5 26  1  0
  9 27  1  0
  9 28  1  0
 11 29  1  0
 12 30  1  0
 13 31  1  0
 14 32  1  0
 15 33  1  0
M  CHG  1   6  -1
M  END
>  <UniqueID>  (12) 
11

>  <SMILES>  (12) 
CCc1c(C)[n-]c(SCc2ccccc2)nc1=O

>  <Energy>  (12) 
27.295381757722055

>  <Genealogy>  (12) 
CCc1c(C)[n-]c(SCc2ccccc2)nc1=O (protonated)
CCc1c(C)[n-]c(SCc2ccccc2)nc1=O (3D coordinates assigned)
CCc1c(C)[n-]c(SCc2ccccc2)nc1=O (optimized conformer: 27.295381757722055 kcal/mol)

>  <smiles>  (12) 
CCc1c(C)[nH]c(SCc2ccccc2)nc1=O

>  <score_type>  (12) 
oracle

>  <origin>  (12) 
adg

>  <m_score__min__energy>  (12) 
-8.7699999999999996

>  <m_primary>  (12) 
energy

$$$$
12:0
     RDKit          3D

 37 38  0  0  0  0  0  0  0  0999 V2000
   58.1440   24.0280   46.3490 C   0  0  0  0  0  0  0  0  0  0  0  0
   57.7230   25.2280   46.9900 O   0  0  0  0  0  0  0  0  0  0  0  0
   57.8060   26.5100   46.4200 C   0  0  0  0  0  0  0  0  0  0  0  0
   59.0260   27.2010   46.3210 C   0  0  0  0  0  0  0  0  0  0  0  0
   59.0830   28.4770   45.7480 C   0  0  0  0  0  0  0  0  0  0  0  0
   60.3700   29.2020   45.6440 C   0  0  0  0  0  0  0  0  0  0  0  0
   61.2430   28.8270   44.8130 O   0  0  0  0  0  0  0  0  0  0  0  0
   60.6190   30.3050   46.4700 O   0  0  0  0  0  0  0  0  0  0  0  0
   59.6000   30.9880   47.1960 C   0  0  0  0  0  0  0  0  0  0  0  0
   59.1880   32.2300   46.4700 C   0  0  0  0  0  0  0  0  0  0  0  0
   59.9100   33.4140   46.4140 C   0  0  0  0  0  0  0  0  0  0  0  0
   59.2650   34.4170   45.6810 C   0  0  0  0  0  0  0  0  0  0  0  0
   58.0370   34.0260   45.1620 C   0  0  0  0  0  0  0  0  0  0  0  0
   57.7520   32.4320   45.6180 S   0  0  0  0  0  0  0  0  0  0  0  0
   57.9020   29.0630   45.2700 C   0  0  0  0  0  0  0  0  0  0  0  0
   56.6680   28.3900   45.3570 C   0  0  0  0  0  0  0  0  0  0  0  0
   55.4900   28.9830   44.8750 O   0  0  0  0  0  0  0  0  0  0  0  0
   55.3900   29.7590   43.6840 C   0  0  0  0  0  0  0  0  0  0  0  0
   56.6230   27.0980   45.9400 C   0  0  0  0  0  0  0  0  0  0  0  0
   55.4430   26.3420   46.0750 O   0  0  0  0  0  0  0  0  0  0  0  0
   55.2220   25.0200   45.5990 C   0  0  0  0  0  0  0  0  0  0  0  0
   58.4069   23.2786   47.1101 H   0  0  0  0  0  0  0  0  0  0  0  0
   57.3276   23.6419   45.7209 H   0  0  0  0  0  0  0  0  0  0  0  0
   59.0226   24.2366   45.7209 H   0  0  0  0  0  0  0  0  0  0  0  0
   59.9473   26.7334   46.6984 H   0  0  0  0  0  0  0  0  0  0  0  0
   58.7281   30.3265   47.3069 H   0  0  0  0  0  0  0  0  0  0  0  0
   59.9911   31.2655   48.1860 H   0  0  0  0  0  0  0  0  0  0  0  0
   60.8891   33.5503   46.8964 H   0  0  0  0  0  0  0  0  0  0  0  0
   59.6903   35.4202   45.5301 H   0  0  0  0  0  0  0  0  0  0  0  0
   57.3655   34.6521   44.5561 H   0  0  0  0  0  0  0  0  0  0  0  0
   57.9402   30.0657   44.8193 H   0  0  0  0  0  0  0  0  0  0  0  0
   55.2535   30.8183   43.9470 H   0  0  0  0  0  0  0  0  0  0  0  0
   56.3104   29.6436   43.0928 H   0  0  0  0  0  0  0  0  0  0  0  0
   54.5289   29.4140   43.0928 H   0  0  0  0  0  0  0  0  0  0  0  0
   55.1078   24.3369   46.4536 H   0  0  0  0  0  0  0  0  0  0  0  0
   54.3078   24.9985   44.9876 H   0  0  0  0  0  0  0  0  0  0  0  0
   56.0795   24.7023   44.9876 H   0  0  0  0  0  0  0  0  0  0  0  0
  1  2  1  0
  2  3  1  0
  3  4  2  0
  4  5  1  0
  5  6  1  0
  6  7  2  0
  6  8  1  0
  8  9  1  0
  9 10  1  0
 10 11  2  0
 11 12  1  0
 12 13  2  0
 13 14  1  0
  5 15  2  0
 15 16  1  0
 16 17  1  0
 17 18  1  0
 16 19  2  0
 19 20  1  0
 20 21  1  0
 19  3  1  0
 14 10  1  0
  1 22  1  0
  1 23  1  0
  1 24  1  0
  4 25  1  0
  9 26  1  0
  9 27  1  0
 11 28  1  0
 12 29  1  0
 13 30  1  0
 15 31  1  0
 18 32  1  0
 18 33  1  0
 18 34  1  0
 21 35  1  0
 21 36  1  0
 21 37  1  0
M  END
>  <UniqueID>  (13) 
12

>  <SMILES>  (13) 
COc1cc(C(=O)OCc2cccs2)cc(OC)c1OC

>  <Energy>  (13) 
62.57775902533168

>  <Genealogy>  (13) 
COc1cc(C(=O)OCc2cccs2)cc(OC)c1OC (3D coordinates assigned)
COc1cc(C(=O)OCc2cccs2)cc(OC)c1OC (optimized conformer: 62.57775902533168 kcal/mol)

>  <smiles>  (13) 
COc1cc(C(=O)OCc2cccs2)cc(OC)c1OC

>  <score_type>  (13) 
oracle

>  <origin>  (13) 
adg

>  <m_score__min__energy>  (13) 
-6.3600000000000003

>  <m_primary>  (13) 
energy

$$$$
13:0
     RDKit          3D

 31 32  0  0  0  0  0  0  0  0999 V2000
   56.2050   23.8170   46.6740 C   0  0  0  0  0  0  0  0  0  0  0  0
   57.1040   25.0590   46.7080 C   0  0  1  0  0  0  0  0  0  0  0  0
   58.5760   24.8440   45.6320 S   0  0  0  0  0  0  0  0  0  0  0  0
   57.9870   23.4210   44.7050 C   0  0  0  0  0  0  0  0  0  0  0  0
   57.0460   23.5810   43.6870 C   0  0  0  0  0  0  0  0  0  0  0  0
   56.6160   22.4600   42.9810 C   0  0  0  0  0  0  0  0  0  0  0  0
   57.1490   21.2120   43.2970 C   0  0  0  0  0  0  0  0  0  0  0  0
   58.0810   21.1100   44.2820 N   0  0  0  0  0  0  0  0  0  0  0  0
   58.4880   22.1850   44.9630 N   0  0  0  0  0  0  0  0  0  0  0  0
   56.3650   26.3320   46.3850 C   0  0  0  0  0  0  0  0  0  0  0  0
   55.1690   26.2970   45.9890 O   0  0  0  0  0  0  0  0  0  0  0  0
   57.0410   27.5850   46.5520 N   0  0  0  0  0  0  0  0  0  0  0  0
   57.1710   28.6270   45.5730 C   0  0  0  0  0  0  0  0  0  0  0  0
   56.0670   29.1190   44.8500 C   0  0  0  0  0  0  0  0  0  0  0  0
   56.2450   30.1140   43.8840 C   0  0  0  0  0  0  0  0  0  0  0  0
   57.5230   30.6180   43.6220 C   0  0  0  0  0  0  0  0  0  0  0  0
   57.7630   31.9750   42.3000 Br  0  0  0  0  0  0  0  0  0  0  0  0
   58.6250   30.1180   44.3220 C   0  0  0  0  0  0  0  0  0  0  0  0
   58.4500   29.1210   45.2870 C   0  0  0  0  0  0  0  0  0  0  0  0
   55.9766   23.5014   47.7027 H   0  0  0  0  0  0  0  0  0  0  0  0
   55.2692   24.0560   46.1475 H   0  0  0  0  0  0  0  0  0  0  0  0
   56.7244   23.0027   46.1475 H   0  0  0  0  0  0  0  0  0  0  0  0
   57.4510   25.1628   47.7467 H   0  0  0  0  0  0  0  0  0  0  0  0
   56.6495   24.5782   43.4456 H   0  0  0  0  0  0  0  0  0  0  0  0
   55.8647   22.5587   42.1836 H   0  0  0  0  0  0  0  0  0  0  0  0
   56.8180   20.3150   42.7532 H   0  0  0  0  0  0  0  0  0  0  0  0
   58.4850   20.1760   44.5150 H   0  0  0  0  0  0  0  0  0  0  0  0
   55.0612   28.7191   45.0460 H   0  0  0  0  0  0  0  0  0  0  0  0
   55.3779   30.5013   43.3288 H   0  0  0  0  0  0  0  0  0  0  0  0
   59.6316   30.5095   44.1134 H   0  0  0  0  0  0  0  0  0  0  0  0
   59.3226   28.7221   45.8250 H   0  0  0  0  0  0  0  0  0  0  0  0
  1  2  1  0
  2  3  1  0
  3  4  1  0
  4  5  2  0
  5  6  1  0
  6  7  2  0
  7  8  1  0
  8  9  2  0
  2 10  1  0
 10 11  2  0
 10 12  1  0
 12 13  1  0
 13 14  2  0
 14 15  1  0
 15 16  2  0
 16 17  1  0
 16 18  1  0
 18 19  2  0
  9  4  1  0
 19 13  1  0
  1 20  1  0
  1 21  1  0
  1 22  1  0
  2 23  1  1
  5 24  1  0
  6 25  1  0
  7 26  1  0
  8 27  1  0
 14 28  1  0
 15 29  1  0
 18 30  1  0
 19 31  1  0
M  CHG  2   8   1  12  -1
M  END
>  <UniqueID>  (14) 
13

>  <SMILES>  (14) 
C[C@@H](Sc1ccc[nH+]n1)C(=O)[N-]c1ccc(Br)cc1

>  <Energy>  (14) 
29.71492125875109

>  <Genealogy>  (14) 
CC(Sc1ccc[nH+]n1)C(=O)[N-]c1ccc(Br)cc1 (protonated)
C[C@@H](Sc1ccc[nH+]n1)C(=O)[N-]c1ccc(Br)cc1 (chirality)
C[C@@H](Sc1ccc[nH+]n1)C(=O)[N-]c1ccc(Br)cc1 (3D coordinates assigned)
C[C@@H](Sc1ccc[nH+]n1)C(=O)[N-]c1ccc(Br)cc1 (optimized conformer: 29.71492125875109 kcal/mol)

>  <smiles>  (14) 
CC(Sc1cccnn1)C(=O)Nc1ccc(Br)cc1

>  <score_type>  (14) 
oracle

>  <origin>  (14) 
adg

>  <m_score__min__energy>  (14) 
-9

>  <m_primary>  (14) 
energy

$$$$
14:0
     RDKit          3D

 48 50  0  0  0  0  0  0  0  0999 V2000
   60.0600   33.8360   50.2350 C   0  0  0  0  0  0  0  0  0  0  0  0
   61.3330   34.1930   49.4570 C   0  0  0  0  0  0  0  0  0  0  0  0
   61.6840   33.1720   48.4380 N   0  0  0  0  0  0  0  0  0  0  0  0
   63.1150   32.7910   48.5170 C   0  0  0  0  0  0  0  0  0  0  0  0
   63.4830   31.7080   47.4940 C   0  0  0  0  0  0  0  0  0  0  0  0
   61.3770   33.6960   47.1210 C   0  0  0  0  0  0  0  0  0  0  0  0
   62.3000   34.1730   46.4010 O   0  0  0  0  0  0  0  0  0  0  0  0
   59.9930   33.6690   46.5920 C   0  0  0  0  0  0  0  0  0  0  0  0
   59.5940   34.6220   45.6380 C   0  0  0  0  0  0  0  0  0  0  0  0
   58.2950   34.6110   45.1260 C   0  0  0  0  0  0  0  0  0  0  0  0
   57.3810   33.6500   45.5570 C   0  0  0  0  0  0  0  0  0  0  0  0
   57.7620   32.6980   46.5040 C   0  0  0  0  0  0  0  0  0  0  0  0
   59.0620   32.7070   47.0420 C   0  0  0  0  0  0  0  0  0  0  0  0
   59.4610   31.7300   48.0150 N   0  0  0  0  0  0  0  0  0  0  0  0
   60.3090   30.6010   47.7720 C   0  0  0  0  0  0  0  0  0  0  0  0
   61.0160   30.1170   48.6970 O   0  0  0  0  0  0  0  0  0  0  0  0
   60.3760   30.0120   46.3990 C   0  0  0  0  0  0  0  0  0  0  0  0
   59.0240   29.5240   45.9800 C   0  0  0  0  0  0  0  0  0  0  0  0
   58.2530   28.5540   46.6110 C   0  0  0  0  0  0  0  0  0  0  0  0
   57.0990   28.4130   45.9830 O   0  0  0  0  0  0  0  0  0  0  0  0
   57.0860   29.2540   44.9760 C   0  0  0  0  0  0  0  0  0  0  0  0
   56.0640   29.4590   44.0520 C   0  0  0  0  0  0  0  0  0  0  0  0
   56.2620   30.4350   43.0570 C   0  0  0  0  0  0  0  0  0  0  0  0
   57.4660   31.1730   43.0090 C   0  0  0  0  0  0  0  0  0  0  0  0
   58.4830   30.9420   43.9540 C   0  0  0  0  0  0  0  0  0  0  0  0
   58.2550   29.9670   44.9260 C   0  0  0  0  0  0  0  0  0  0  0  0
   60.2622   33.8927   51.3148 H   0  0  0  0  0  0  0  0  0  0  0  0
   59.2600   34.5444   49.9741 H   0  0  0  0  0  0  0  0  0  0  0  0
   59.7450   32.8149   49.9741 H   0  0  0  0  0  0  0  0  0  0  0  0
   61.1779   35.1572   48.9508 H   0  0  0  0  0  0  0  0  0  0  0  0
   62.1618   34.2425   50.1785 H   0  0  0  0  0  0  0  0  0  0  0  0
   61.1110   32.3120   48.6110 H   0  0  0  0  0  0  0  0  0  0  0  0
   63.7302   33.6826   48.3260 H   0  0  0  0  0  0  0  0  0  0  0  0
   63.3015   32.3842   49.5218 H   0  0  0  0  0  0  0  0  0  0  0  0
   63.7934   30.7946   48.0226 H   0  0  0  0  0  0  0  0  0  0  0  0
   62.6093   31.4876   46.8631 H   0  0  0  0  0  0  0  0  0  0  0  0
   64.3101   32.0655   46.8631 H   0  0  0  0  0  0  0  0  0  0  0  0
   60.3105   35.3818   45.2926 H   0  0  0  0  0  0  0  0  0  0  0  0
   57.9921   35.3618   44.3813 H   0  0  0  0  0  0  0  0  0  0  0  0
   56.3590   33.6422   45.1503 H   0  0  0  0  0  0  0  0  0  0  0  0
   57.0406   31.9351   46.8321 H   0  0  0  0  0  0  0  0  0  0  0  0
   60.7210   30.7796   45.6906 H   0  0  0  0  0  0  0  0  0  0  0  0
   61.0776   29.1648   46.4054 H   0  0  0  0  0  0  0  0  0  0  0  0
   58.5590   27.9870   47.5025 H   0  0  0  0  0  0  0  0  0  0  0  0
   55.1319   28.8768   44.0983 H   0  0  0  0  0  0  0  0  0  0  0  0
   55.4747   30.6242   42.3124 H   0  0  0  0  0  0  0  0  0  0  0  0
   57.6094   31.9336   42.2274 H   0  0  0  0  0  0  0  0  0  0  0  0
   59.4246   31.5101   43.9274 H   0  0  0  0  0  0  0  0  0  0  0  0
  1  2  1  0
  2  3  1  0
  3  4  1  0
  4  5  1  0
  3  6  1  0
  6  7  2  0
  6  8  1  0
  8  9  2  0
  9 10  1  0
 10 11  2  0
 11 12  1  0
 12 13  2  0
 13 14  1  0
 14 15  1  0
 15 16  2  0
 15 17  1  0
 17 18  1  0
 18 19  2  0
 19 20  1  0
 20 21  1  0
 21 22  2  0
 22 23  1  0
 23 24  2  0
 24 25  1  0
 25 26  2  0
 13  8  1  0
 26 18  1  0
 26 21  1  0
  1 27  1  0
  1 28  1  0
  1 29  1  0
  2 30  1  0
  2 31  1  0
  3 32  1  0
  4 33  1  0
  4 34  1  0
  5 35  1  0
  5 36  1  0
  5 37  1  0
  9 38  1  0
 10 39  1  0
 11 40  1  0
 12 41  1  0
 17 42  1  0
 17 43  1  0
 19 44  1  0
 22 45  1  0
 23 46  1  0
 24 47  1  0
 25 48  1  0
M  CHG  2   3   1  14  -1
M  END
>  <UniqueID>  (15) 
14

>  <SMILES>  (15) 
CC[NH+](CC)C(=O)c1ccccc1[N-]C(=O)Cc1coc2ccccc12

>  <Energy>  (15) 
89.28454914710085

>  <Genealogy>  (15) 
CC[NH+](CC)C(=O)c1ccccc1[N-]C(=O)Cc1coc2ccccc12 (protonated)
CC[NH+](CC)C(=O)c1ccccc1[N-]C(=O)Cc1coc2ccccc12 (3D coordinates assigned)
CC[NH+](CC)C(=O)c1ccccc1[N-]C(=O)Cc1coc2ccccc12 (optimized conformer: 89.28454914710085 kcal/mol)

>  <smiles>  (15) 
CCN(CC)C(=O)c1ccccc1NC(=O)Cc1coc2ccccc12

>  <score_type>  (15) 
oracle

>  <origin>  (15) 
adg

>  <m_score__min__energy>  (15) 
-7.4299999999999997

>  <m_primary>  (15) 
energy

$$$$
15:0
     RDKit          3D

 29 31  0  0  0  0  0  0  0  0999 V2000
   55.4630   29.3710   44.9420 N   0  0  0  0  0  0  0  0  0  0  0  0
   56.6780   29.4710   44.1380 C   0  0  0  0  0  0  0  0  0  0  0  0
   57.3600   30.8000   44.3480 C   0  0  0  0  0  0  0  0  0  0  0  0
   57.5130   31.6840   43.2770 C   0  0  0  0  0  0  0  0  0  0  0  0
   58.1130   32.9260   43.4700 C   0  0  0  0  0  0  0  0  0  0  0  0
   58.5610   33.3100   44.7430 C   0  0  0  0  0  0  0  0  0  0  0  0
   59.1570   34.5650   44.9060 C   0  0  0  0  0  0  0  0  0  0  0  0
   59.6060   34.9760   46.1550 C   0  0  0  0  0  0  0  0  0  0  0  0
   59.4700   34.1440   47.2700 C   0  0  0  0  0  0  0  0  0  0  0  0
   59.9350   34.5880   48.5190 C   0  0  0  0  0  0  0  0  0  0  0  0
   59.8130   33.7780   49.6450 C   0  0  0  0  0  0  0  0  0  0  0  0
   59.2290   32.5200   49.5380 C   0  0  0  0  0  0  0  0  0  0  0  0
   58.7600   32.0590   48.3050 C   0  0  0  0  0  0  0  0  0  0  0  0
   58.8680   32.8600   47.1410 C   0  0  0  0  0  0  0  0  0  0  0  0
   58.4050   32.4360   45.8550 C   0  0  0  0  0  0  0  0  0  0  0  0
   57.7910   31.1790   45.6300 C   0  0  0  0  0  0  0  0  0  0  0  0
   54.7330   29.9940   44.5270 H   0  0  0  0  0  0  0  0  0  0  0  0
   55.6680   29.7220   45.9070 H   0  0  0  0  0  0  0  0  0  0  0  0
   57.3673   28.6638   44.4267 H   0  0  0  0  0  0  0  0  0  0  0  0
   56.4029   29.3832   43.0766 H   0  0  0  0  0  0  0  0  0  0  0  0
   57.1577   31.3976   42.2761 H   0  0  0  0  0  0  0  0  0  0  0  0
   58.2366   33.6109   42.6182 H   0  0  0  0  0  0  0  0  0  0  0  0
   59.2711   35.2317   44.0385 H   0  0  0  0  0  0  0  0  0  0  0  0
   60.0730   35.9656   46.2675 H   0  0  0  0  0  0  0  0  0  0  0  0
   60.3983   35.5817   48.6081 H   0  0  0  0  0  0  0  0  0  0  0  0
   60.1787   34.1331   50.6198 H   0  0  0  0  0  0  0  0  0  0  0  0
   59.1357   31.8836   50.4303 H   0  0  0  0  0  0  0  0  0  0  0  0
   58.3011   31.0616   48.2371 H   0  0  0  0  0  0  0  0  0  0  0  0
   57.6494   30.4879   46.4740 H   0  0  0  0  0  0  0  0  0  0  0  0
  1  2  1  0
  2  3  1  0
  3  4  2  0
  4  5  1  0
  5  6  2  0
  6  7  1  0
  7  8  2  0
  8  9  1  0
  9 10  2  0
 10 11  1  0
 11 12  2  0
 12 13  1  0
 13 14  2  0
 14 15  1  0
 15 16  2  0
 16  3  1  0
 15  6  1  0
 14  9  1  0
  1 17  1  0
  1 18  1  0
  2 19  1  0
  2 20  1  0
  4 21  1  0
  5 22  1  0
  7 23  1  0
  8 24  1  0
 10 25  1  0
 11 26  1  0
 12 27  1  0
 13 28  1  0
 16 29  1  0
M  END
>  <UniqueID>  (16) 
15

>  <SMILES>  (16) 
NCc1ccc2ccc3ccccc3c2c1

>  <Energy>  (16) 
41.388634582912665

>  <Genealogy>  (16) 
NCc1ccc2ccc3ccccc3c2c1 (3D coordinates assigned)
NCc1ccc2ccc3ccccc3c2c1 (optimized conformer: 41.388634582912665 kcal/mol)

>  <smiles>  (16) 
NCc1ccc2ccc3ccccc3c2c1

>  <score_type>  (16) 
oracle

>  <origin>  (16) 
adg

>  <m_score__min__energy>  (16) 
-8.0500000000000007

>  <m_primary>  (16) 
energy

$$$$
16:0
     RDKit          3D

 32 34  0  0  0  0  0  0  0  0999 V2000
   56.5700   30.0320   43.7000 C   0  0  0  0  0  0  0  0  0  0  0  0
   56.4740   30.8470   44.8630 O   0  0  0  0  0  0  0  0  0  0  0  0
   57.4160   31.8210   45.2290 C   0  0  0  0  0  0  0  0  0  0  0  0
   57.2500   33.1850   44.9200 C   0  0  0  0  0  0  0  0  0  0  0  0
   58.2170   34.1170   45.3050 C   0  0  0  0  0  0  0  0  0  0  0  0
   59.3680   33.7040   45.9960 C   0  0  0  0  0  0  0  0  0  0  0  0
   60.4100   34.7140   46.4040 C   0  0  0  0  0  0  0  0  0  0  0  0
   61.3310   34.1340   47.3940 N   0  0  0  0  0  0  0  0  0  0  0  0
   62.5990   33.7330   47.1080 C   0  0  0  0  0  0  0  0  0  0  0  0
   63.1270   33.8440   45.9690 O   0  0  0  0  0  0  0  0  0  0  0  0
   63.3910   33.0650   48.4400 S   0  0  0  0  0  0  0  0  0  0  0  0
   62.0540   33.2930   49.4310 C   0  0  0  0  0  0  0  0  0  0  0  0
   61.9190   32.9630   50.7780 C   0  0  0  0  0  0  0  0  0  0  0  0
   60.6990   33.2420   51.4100 C   0  0  0  0  0  0  0  0  0  0  0  0
   59.6470   33.8410   50.6920 C   0  0  0  0  0  0  0  0  0  0  0  0
   59.8040   34.1660   49.3340 C   0  0  0  0  0  0  0  0  0  0  0  0
   61.0260   33.8830   48.7040 C   0  0  0  0  0  0  0  0  0  0  0  0
   59.5270   32.3450   46.3100 C   0  0  0  0  0  0  0  0  0  0  0  0
   58.5590   31.4140   45.9250 C   0  0  0  0  0  0  0  0  0  0  0  0
   56.6939   28.9805   43.9983 H   0  0  0  0  0  0  0  0  0  0  0  0
   55.6532   30.1378   43.1014 H   0  0  0  0  0  0  0  0  0  0  0  0
   57.4371   30.3479   43.1014 H   0  0  0  0  0  0  0  0  0  0  0  0
   56.3554   33.5179   44.3733 H   0  0  0  0  0  0  0  0  0  0  0  0
   58.0760   35.1813   45.0654 H   0  0  0  0  0  0  0  0  0  0  0  0
   60.9811   35.0235   45.5163 H   0  0  0  0  0  0  0  0  0  0  0  0
   59.9064   35.5827   46.8532 H   0  0  0  0  0  0  0  0  0  0  0  0
   62.7475   32.4961   51.3308 H   0  0  0  0  0  0  0  0  0  0  0  0
   60.5633   32.9915   52.4725 H   0  0  0  0  0  0  0  0  0  0  0  0
   58.6943   34.0564   51.1980 H   0  0  0  0  0  0  0  0  0  0  0  0
   58.9820   34.6349   48.7733 H   0  0  0  0  0  0  0  0  0  0  0  0
   60.4182   32.0115   46.8619 H   0  0  0  0  0  0  0  0  0  0  0  0
   58.6970   30.3509   46.1715 H   0  0  0  0  0  0  0  0  0  0  0  0
  1  2  1  0
  2  3  1  0
  3  4  2  0
  4  5  1  0
  5  6  2  0
  6  7  1  0
  7  8  1  0
  8  9  1  0
  9 10  2  0
  9 11  1  0
 11 12  1  0
 12 13  2  0
 13 14  1  0
 14 15  2  0
 15 16  1  0
 16 17  2  0
  6 18  1  0
 18 19  2  0
 19  3  1  0
 17  8  1  0
 17 12  1  0
  1 20  1  0
  1 21  1  0
  1 22  1  0
  4 23  1  0
  5 24  1  0
  7 25  1  0
  7 26  1  0
 13 27  1  0
 14 28  1  0
 15 29  1  0
 16 30  1  0
 18 31  1  0
 19 32  1  0
M  END
>  <UniqueID>  (17) 
16

>  <SMILES>  (17) 
COc1ccc(Cn2c(=O)sc3ccccc32)cc1

>  <Energy>  (17) 
69.8447083447336

>  <Genealogy>  (17) 
COc1ccc(Cn2c(=O)sc3ccccc32)cc1 (3D coordinates assigned)
COc1ccc(Cn2c(=O)sc3ccccc32)cc1 (optimized conformer: 69.8447083447336 kcal/mol)

>  <smiles>  (17) 
COc1ccc(Cn2c(=O)sc3ccccc32)cc1

>  <score_type>  (17) 
oracle

>  <origin>  (17) 
adg

>  <m_score__min__energy>  (17) 
-6.7699999999999996

>  <m_primary>  (17) 
energy

$$$$
17:0
     RDKit          3D

 38 39  0  0  0  0  0  0  0  0999 V2000
   58.9390   29.6480   48.1830 C   0  0  0  0  0  0  0  0  0  0  0  0
   59.4360   30.9420   47.6000 C   0  0  0  0  0  0  0  0  0  0  0  0
   60.8650   31.0550   47.1300 C   0  0  0  0  0  0  0  0  0  0  0  0
   58.5940   31.9860   47.5340 C   0  0  0  0  0  0  0  0  0  0  0  0
   58.7620   33.0870   46.5680 C   0  0  0  0  0  0  0  0  0  0  0  0
   59.5740   34.1460   46.7650 N   0  0  0  0  0  0  0  0  0  0  0  0
   60.4060   34.4210   47.9320 C   0  0  0  0  0  0  0  0  0  0  0  0
   59.3820   34.9590   45.7080 C   0  0  0  0  0  0  0  0  0  0  0  0
   58.4550   34.3730   44.8700 C   0  0  0  0  0  0  0  0  0  0  0  0
   58.0740   33.1960   45.4080 N   0  0  0  0  0  0  0  0  0  0  0  0
   57.0140   32.3220   44.9030 C   0  0  0  0  0  0  0  0  0  0  0  0
   57.5790   31.2570   44.0010 C   0  0  0  0  0  0  0  0  0  0  0  0
   57.7710   31.5260   42.7830 O   0  0  0  0  0  0  0  0  0  0  0  0
   57.8920   29.8930   44.4960 C   0  0  0  0  0  0  0  0  0  0  0  0
   59.2320   29.4630   44.5220 C   0  0  0  0  0  0  0  0  0  0  0  0
   59.5620   28.1880   44.9880 C   0  0  0  0  0  0  0  0  0  0  0  0
   58.5590   27.3220   45.4270 C   0  0  0  0  0  0  0  0  0  0  0  0
   58.8810   26.0840   45.8760 F   0  0  0  0  0  0  0  0  0  0  0  0
   57.2240   27.7270   45.3930 C   0  0  0  0  0  0  0  0  0  0  0  0
   56.8840   29.0030   44.9290 C   0  0  0  0  0  0  0  0  0  0  0  0
   55.5710   29.3390   44.8680 F   0  0  0  0  0  0  0  0  0  0  0  0
   58.9620   29.7078   49.2811 H   0  0  0  0  0  0  0  0  0  0  0  0
   57.9073   29.4668   47.8472 H   0  0  0  0  0  0  0  0  0  0  0  0
   59.5842   28.8228   47.8472 H   0  0  0  0  0  0  0  0  0  0  0  0
   61.5344   31.1079   48.0012 H   0  0  0  0  0  0  0  0  0  0  0  0
   61.1221   30.1744   46.5230 H   0  0  0  0  0  0  0  0  0  0  0  0
   60.9805   31.9651   46.5230 H   0  0  0  0  0  0  0  0  0  0  0  0
   57.7430   32.0212   48.2301 H   0  0  0  0  0  0  0  0  0  0  0  0
   59.8276   34.2298   48.8479 H   0  0  0  0  0  0  0  0  0  0  0  0
   61.2906   33.7675   47.9139 H   0  0  0  0  0  0  0  0  0  0  0  0
   60.7269   35.4730   47.9139 H   0  0  0  0  0  0  0  0  0  0  0  0
   59.8796   35.9257   45.5412 H   0  0  0  0  0  0  0  0  0  0  0  0
   58.0884   34.7948   43.9225 H   0  0  0  0  0  0  0  0  0  0  0  0
   56.5075   31.8421   45.7533 H   0  0  0  0  0  0  0  0  0  0  0  0
   56.3027   32.9304   44.3252 H   0  0  0  0  0  0  0  0  0  0  0  0
   60.0273   30.1376   44.1719 H   0  0  0  0  0  0  0  0  0  0  0  0
   60.6136   27.8660   45.0090 H   0  0  0  0  0  0  0  0  0  0  0  0
   56.4349   27.0400   45.7326 H   0  0  0  0  0  0  0  0  0  0  0  0
  1  2  1  0
  2  3  1  0
  2  4  2  3
  4  5  1  0
  5  6  1  0
  6  7  1  0
  6  8  1  0
  8  9  2  0
  9 10  1  0
 10 11  1  0
 11 12  1  0
 12 13  2  0
 12 14  1  0
 14 15  2  0
 15 16  1  0
 16 17  2  0
 17 18  1  0
 17 19  1  0
 19 20  2  0
 20 21  1  0
 10  5  2  0
 20 14  1  0
  1 22  1  0
  1 23  1  0
  1 24  1  0
  3 25  1  0
  3 26  1  0
  3 27  1  0
  4 28  1  0
  7 29  1  0
  7 30  1  0
  7 31  1  0
  8 32  1  0
  9 33  1  0
 11 34  1  0
 11 35  1  0
 15 36  1  0
 16 37  1  0
 19 38  1  0
M  CHG  1  10   1
M  END
>  <UniqueID>  (18) 
17

>  <SMILES>  (18) 
CC(C)=Cc1n(C)cc[n+]1CC(=O)c1ccc(F)cc1F

>  <Energy>  (18) 
74.70336376904812

>  <Genealogy>  (18) 
CC(C)=Cc1n(C)cc[n+]1CC(=O)c1ccc(F)cc1F (3D coordinates assigned)
CC(C)=Cc1n(C)cc[n+]1CC(=O)c1ccc(F)cc1F (optimized conformer: 74.70336376904812 kcal/mol)

>  <smiles>  (18) 
CC(C)=Cc1n(C)cc[n+]1CC(=O)c1ccc(F)cc1F

>  <score_type>  (18) 
oracle

>  <origin>  (18) 
adg

>  <m_score__min__energy>  (18) 
-4.9199999999999999

>  <m_primary>  (18) 
energy

$$$$
18:0
     RDKit          3D

 34 35  0  0  0  0  0  0  0  0999 V2000
   54.5340   26.1580   45.9030 O   0  0  0  0  0  0  0  0  0  0  0  0
   55.1580   24.9450   45.5730 C   0  0  0  0  0  0  0  0  0  0  0  0
   56.5470   24.8580   46.2170 C   0  0  0  0  0  0  0  0  0  0  0  0
   57.1210   26.2320   46.5970 C   0  0  0  0  0  0  0  0  0  0  0  0
   56.8210   27.2450   45.5820 N   0  0  0  0  0  0  0  0  0  0  0  0
   57.3040   28.6000   45.6520 C   0  0  0  0  0  0  0  0  0  0  0  0
   58.2920   28.9890   46.5770 C   0  0  0  0  0  0  0  0  0  0  0  0
   58.7400   30.3120   46.6200 C   0  0  0  0  0  0  0  0  0  0  0  0
   58.2150   31.2730   45.7410 C   0  0  0  0  0  0  0  0  0  0  0  0
   58.6880   32.6780   45.7960 C   0  0  0  0  0  0  0  0  0  0  0  0
   59.0670   33.2450   47.0270 C   0  0  0  0  0  0  0  0  0  0  0  0
   59.5090   34.5690   47.0910 C   0  0  0  0  0  0  0  0  0  0  0  0
   59.5820   35.3410   45.9290 C   0  0  0  0  0  0  0  0  0  0  0  0
   60.0120   36.6250   45.9940 F   0  0  0  0  0  0  0  0  0  0  0  0
   59.2160   34.7870   44.7000 C   0  0  0  0  0  0  0  0  0  0  0  0
   58.7710   33.4630   44.6280 C   0  0  0  0  0  0  0  0  0  0  0  0
   58.4580   32.9410   43.4140 F   0  0  0  0  0  0  0  0  0  0  0  0
   57.2240   30.8870   44.8240 C   0  0  0  0  0  0  0  0  0  0  0  0
   56.7760   29.5640   44.7800 C   0  0  0  0  0  0  0  0  0  0  0  0
   53.6900   25.9300   46.3720 H   0  0  0  0  0  0  0  0  0  0  0  0
   54.5393   24.1104   45.9346 H   0  0  0  0  0  0  0  0  0  0  0  0
   55.2705   24.8907   44.4801 H   0  0  0  0  0  0  0  0  0  0  0  0
   56.4732   24.2452   47.1275 H   0  0  0  0  0  0  0  0  0  0  0  0
   57.2258   24.4121   45.4751 H   0  0  0  0  0  0  0  0  0  0  0  0
   56.6840   26.5479   47.5558 H   0  0  0  0  0  0  0  0  0  0  0  0
   58.2142   26.1372   46.6737 H   0  0  0  0  0  0  0  0  0  0  0  0
   56.2160   26.9840   44.7690 H   0  0  0  0  0  0  0  0  0  0  0  0
   58.7139   28.2465   47.2703 H   0  0  0  0  0  0  0  0  0  0  0  0
   59.5107   30.6032   47.3489 H   0  0  0  0  0  0  0  0  0  0  0  0
   59.0149   32.6416   47.9453 H   0  0  0  0  0  0  0  0  0  0  0  0
   59.8001   35.0043   48.0584 H   0  0  0  0  0  0  0  0  0  0  0  0
   59.2780   35.3945   43.7851 H   0  0  0  0  0  0  0  0  0  0  0  0
   56.7973   31.6312   44.1355 H   0  0  0  0  0  0  0  0  0  0  0  0
   56.0014   29.2755   44.0542 H   0  0  0  0  0  0  0  0  0  0  0  0
  1  2  1  0
  2  3  1  0
  3  4  1  0
  4  5  1  0
  5  6  1  0
  6  7  2  0
  7  8  1  0
  8  9  2  0
  9 10  1  0
 10 11  2  0
 11 12  1  0
 12 13  2  0
 13 14  1  0
 13 15  1  0
 15 16  2  0
 16 17  1  0
  9 18  1  0
 18 19  2  0
 19  6  1  0
 16 10  1  0
  1 20  1  0
  2 21  1  0
  2 22  1  0
  3 23  1  0
  3 24  1  0
  4 25  1  0
  4 26  1  0
  5 27  1  0
  7 28  1  0
  8 29  1  0
 11 30  1  0
 12 31  1  0
 15 32  1  0
 18 33  1  0
 19 34  1  0
M  END
>  <UniqueID>  (19) 
18

>  <SMILES>  (19) 
OCCCNc1ccc(-c2ccc(F)cc2F)cc1

>  <Energy>  (19) 
36.77223860203455

>  <Genealogy>  (19) 
OCCCNc1ccc(-c2ccc(F)cc2F)cc1 (3D coordinates assigned)
OCCCNc1ccc(-c2ccc(F)cc2F)cc1 (optimized conformer: 36.77223860203455 kcal/mol)

>  <smiles>  (19) 
OCCCNc1ccc(-c2ccc(F)cc2F)cc1

>  <score_type>  (19) 
oracle

>  <origin>  (19) 
adg

>  <m_score__min__energy>  (19) 
-7.3099999999999996

>  <m_primary>  (19) 
energy

$$$$
19:0
     RDKit          3D

 43 45  0  0  0  0  0  0  0  0999 V2000
   59.6140   27.8380   48.2530 C   0  0  0  0  0  0  0  0  0  0  0  0
   59.0670   28.5980   49.3280 O   0  0  0  0  0  0  0  0  0  0  0  0
   59.3060   29.9640   49.5500 C   0  0  0  0  0  0  0  0  0  0  0  0
   60.3520   30.6290   48.8840 C   0  0  0  0  0  0  0  0  0  0  0  0
   60.5710   31.9990   49.0710 C   0  0  0  0  0  0  0  0  0  0  0  0
   61.6540   32.6960   48.3310 C   0  0  0  0  0  0  0  0  0  0  0  0
   62.9350   32.7570   48.9040 C   0  0  0  0  0  0  0  0  0  0  0  0
   63.9830   33.3510   48.2000 C   0  0  0  0  0  0  0  0  0  0  0  0
   63.7660   33.8710   46.9660 N   0  0  0  0  0  0  0  0  0  0  0  0
   62.5410   33.8380   46.3810 C   0  0  0  0  0  0  0  0  0  0  0  0
   61.4470   33.2640   47.0480 C   0  0  0  0  0  0  0  0  0  0  0  0
   60.1120   33.3040   46.4040 C   0  0  0  0  0  0  0  0  0  0  0  0
   59.5210   34.5330   46.0570 C   0  0  0  0  0  0  0  0  0  0  0  0
   58.2510   34.5650   45.4740 C   0  0  0  0  0  0  0  0  0  0  0  0
   57.5640   33.3730   45.2250 C   0  0  0  0  0  0  0  0  0  0  0  0
   58.1500   32.1470   45.5540 C   0  0  0  0  0  0  0  0  0  0  0  0
   59.4190   32.1110   46.1370 C   0  0  0  0  0  0  0  0  0  0  0  0
   59.7610   32.7080   49.9640 C   0  0  0  0  0  0  0  0  0  0  0  0
   58.7210   32.0620   50.6550 C   0  0  0  0  0  0  0  0  0  0  0  0
   57.8920   32.7500   51.5550 O   0  0  0  0  0  0  0  0  0  0  0  0
   58.3430   33.7270   52.4880 C   0  0  0  0  0  0  0  0  0  0  0  0
   58.4860   30.6910   50.4510 C   0  0  0  0  0  0  0  0  0  0  0  0
   57.4210   30.1200   51.1740 O   0  0  0  0  0  0  0  0  0  0  0  0
   57.3400   29.9640   52.5860 C   0  0  0  0  0  0  0  0  0  0  0  0
   60.2115   27.0078   48.6577 H   0  0  0  0  0  0  0  0  0  0  0  0
   58.7973   27.4352   47.6359 H   0  0  0  0  0  0  0  0  0  0  0  0
   60.2552   28.4845   47.6359 H   0  0  0  0  0  0  0  0  0  0  0  0
   61.0079   30.0635   48.2058 H   0  0  0  0  0  0  0  0  0  0  0  0
   63.1115   32.3375   49.9054 H   0  0  0  0  0  0  0  0  0  0  0  0
   64.9872   33.3977   48.6465 H   0  0  0  0  0  0  0  0  0  0  0  0
   62.4047   34.2645   45.3763 H   0  0  0  0  0  0  0  0  0  0  0  0
   60.0608   35.4727   46.2454 H   0  0  0  0  0  0  0  0  0  0  0  0
   57.7915   35.5291   45.2108 H   0  0  0  0  0  0  0  0  0  0  0  0
   56.5627   33.3998   44.7704 H   0  0  0  0  0  0  0  0  0  0  0  0
   57.6110   31.2093   45.3535 H   0  0  0  0  0  0  0  0  0  0  0  0
   59.8782   31.1436   46.3884 H   0  0  0  0  0  0  0  0  0  0  0  0
   59.9394   33.7811   50.1272 H   0  0  0  0  0  0  0  0  0  0  0  0
   58.1744   33.3617   53.5118 H   0  0  0  0  0  0  0  0  0  0  0  0
   59.4169   33.9105   52.3364 H   0  0  0  0  0  0  0  0  0  0  0  0
   57.7860   34.6634   52.3364 H   0  0  0  0  0  0  0  0  0  0  0  0
   57.7934   30.8372   53.0780 H   0  0  0  0  0  0  0  0  0  0  0  0
   56.2849   29.8810   52.8858 H   0  0  0  0  0  0  0  0  0  0  0  0
   57.8791   29.0532   52.8858 H   0  0  0  0  0  0  0  0  0  0  0  0
  1  2  1  0
  2  3  1  0
  3  4  2  0
  4  5  1  0
  5  6  1  0
  6  7  2  0
  7  8  1  0
  8  9  2  0
  9 10  1  0
 10 11  2  0
 11 12  1  0
 12 13  2  0
 13 14  1  0
 14 15  2  0
 15 16  1  0
 16 17  2  0
  5 18  2  0
 18 19  1  0
 19 20  1  0
 20 21  1  0
 19 22  2  0
 22 23  1  0
 23 24  1  0
 22  3  1  0
 11  6  1  0
 17 12  1  0
  1 25  1  0
  1 26  1  0
  1 27  1  0
  4 28  1  0
  7 29  1  0
  8 30  1  0
 10 31  1  0
 13 32  1  0
 14 33  1  0
 15 34  1  0
 16 35  1  0
 17 36  1  0
 18 37  1  0
 21 38  1  0
 21 39  1  0
 21 40  1  0
 24 41  1  0
 24 42  1  0
 24 43  1  0
M  END
>  <UniqueID>  (20) 
19

>  <SMILES>  (20) 
COc1cc(-c2ccncc2-c2ccccc2)cc(OC)c1OC

>  <Energy>  (20) 
59.64142454206166

>  <Genealogy>  (20) 
COc1cc(-c2ccncc2-c2ccccc2)cc(OC)c1OC (3D coordinates assigned)
COc1cc(-c2ccncc2-c2ccccc2)cc(OC)c1OC (optimized conformer: 59.64142454206166 kcal/mol)

>  <smiles>  (20) 
COc1cc(-c2ccncc2-c2ccccc2)cc(OC)c1OC

>  <score_type>  (20) 
oracle

>  <origin>  (20) 
adg

>  <m_score__min__energy>  (20) 
-6.5899999999999999

>  <m_primary>  (20) 
energy

$$$$
20:0
     RDKit          3D

 35 37  0  0  0  0  0  0  0  0999 V2000
   54.7240   24.8820   45.6080 C   0  0  0  0  0  0  0  0  0  0  0  0
   55.5100   25.9740   46.0370 O   0  0  0  0  0  0  0  0  0  0  0  0
   56.8830   25.6400   45.9810 C   0  0  0  0  0  0  0  0  0  0  0  0
   57.7310   26.8860   45.9550 C   0  0  0  0  0  0  0  0  0  0  0  0
   57.9260   27.6260   47.1290 C   0  0  0  0  0  0  0  0  0  0  0  0
   58.6600   28.8160   47.0980 C   0  0  0  0  0  0  0  0  0  0  0  0
   59.1890   29.2900   45.8930 C   0  0  0  0  0  0  0  0  0  0  0  0
   59.8660   30.5190   45.8930 O   0  0  0  0  0  0  0  0  0  0  0  0
   59.2790   31.7560   46.2010 C   0  0  0  0  0  0  0  0  0  0  0  0
   59.8490   32.5160   47.2270 C   0  0  0  0  0  0  0  0  0  0  0  0
   59.3350   33.7790   47.5190 C   0  0  0  0  0  0  0  0  0  0  0  0
   58.2770   34.2640   46.8190 N   0  0  0  0  0  0  0  0  0  0  0  0
   57.6800   33.5410   45.8360 C   0  0  0  0  0  0  0  0  0  0  0  0
   58.1420   32.2540   45.5170 C   0  0  0  0  0  0  0  0  0  0  0  0
   57.4120   31.4630   44.5030 C   0  0  0  0  0  0  0  0  0  0  0  0
   57.7140   31.4820   43.1430 C   0  0  0  0  0  0  0  0  0  0  0  0
   56.6360   30.4550   42.3660 S   0  0  0  0  0  0  0  0  0  0  0  0
   55.8470   30.0120   43.7800 C   0  0  0  0  0  0  0  0  0  0  0  0
   56.3870   30.6360   44.8490 N   0  0  0  0  0  0  0  0  0  0  0  0
   59.0260   28.5290   44.7210 C   0  0  0  0  0  0  0  0  0  0  0  0
   58.2920   27.3400   44.7520 C   0  0  0  0  0  0  0  0  0  0  0  0
   54.3359   24.3428   46.4847 H   0  0  0  0  0  0  0  0  0  0  0  0
   53.8830   25.2510   45.0026 H   0  0  0  0  0  0  0  0  0  0  0  0
   55.3409   24.2016   45.0026 H   0  0  0  0  0  0  0  0  0  0  0  0
   57.1461   25.0420   46.8660 H   0  0  0  0  0  0  0  0  0  0  0  0
   57.0708   25.0637   45.0631 H   0  0  0  0  0  0  0  0  0  0  0  0
   57.5001   27.2695   48.0785 H   0  0  0  0  0  0  0  0  0  0  0  0
   58.8223   29.3826   48.0268 H   0  0  0  0  0  0  0  0  0  0  0  0
   60.6992   32.1193   47.8013 H   0  0  0  0  0  0  0  0  0  0  0  0
   59.7876   34.3841   48.3184 H   0  0  0  0  0  0  0  0  0  0  0  0
   56.8281   33.9671   45.2857 H   0  0  0  0  0  0  0  0  0  0  0  0
   58.5146   32.0649   42.6642 H   0  0  0  0  0  0  0  0  0  0  0  0
   55.0033   29.3079   43.8292 H   0  0  0  0  0  0  0  0  0  0  0  0
   59.4774   28.8706   43.7778 H   0  0  0  0  0  0  0  0  0  0  0  0
   58.1536   26.7577   43.8291 H   0  0  0  0  0  0  0  0  0  0  0  0
  1  2  1  0
  2  3  1  0
  3  4  1  0
  4  5  2  0
  5  6  1  0
  6  7  2  0
  7  8  1  0
  8  9  1  0
  9 10  2  0
 10 11  1  0
 11 12  2  0
 12 13  1  0
 13 14  2  0
 14 15  1  0
 15 16  2  0
 16 17  1  0
 17 18  1  0
 18 19  2  0
  7 20  1  0
 20 21  2  0
 21  4  1  0
 14  9  1  0
 19 15  1  0
  1 22  1  0
  1 23  1  0
  1 24  1  0
  3 25  1  0
  3 26  1  0
  5 27  1  0
  6 28  1  0
 10 29  1  0
 11 30  1  0
 13 31  1  0
 16 32  1  0
 18 33  1  0
 20 34  1  0
 21 35  1  0
M  END
>  <UniqueID>  (21) 
20

>  <SMILES>  (21) 
COCc1ccc(Oc2ccncc2-c2cscn2)cc1

>  <Energy>  (21) 
79.99567257672739

>  <Genealogy>  (21) 
COCc1ccc(Oc2ccncc2-c2cscn2)cc1 (3D coordinates assigned)
COCc1ccc(Oc2ccncc2-c2cscn2)cc1 (optimized conformer: 79.99567257672739 kcal/mol)

>  <smiles>  (21) 
COCc1ccc(Oc2ccncc2-c2cscn2)cc1

>  <score_type>  (21) 
oracle

>  <origin>  (21) 
adg

>  <m_score__min__energy>  (21) 
-7.0700000000000003

>  <m_primary>  (21) 
energy

$$$$
21:0
     RDKit          3D

 51 54  0  0  0  0  0  0  0  0999 V2000
   55.3150   26.3140   46.0130 N   0  0  0  0  0  0  0  0  0  0  0  0
   55.9120   25.0030   46.2520 C   0  0  0  0  0  0  0  0  0  0  0  0
   57.4140   25.0070   45.9170 C   0  0  0  0  0  0  0  0  0  0  0  0
   57.9480   26.3380   45.5870 N   0  0  0  0  0  0  0  0  0  0  0  0
   59.2020   26.6350   46.2900 C   0  0  0  0  0  0  0  0  0  0  0  0
   59.1790   28.0580   46.7700 C   0  0  0  0  0  0  0  0  0  0  0  0
   59.4110   28.3490   48.1380 C   0  0  0  0  0  0  0  0  0  0  0  0
   59.3440   29.6690   48.6150 C   0  0  0  0  0  0  0  0  0  0  0  0
   59.0300   30.6850   47.7070 C   0  0  0  0  0  0  0  0  0  0  0  0
   58.7910   30.3970   46.3780 C   0  0  0  0  0  0  0  0  0  0  0  0
   58.8510   29.0980   45.8770 C   0  0  0  0  0  0  0  0  0  0  0  0
   58.4610   31.5880   45.7750 C   0  0  0  0  0  0  0  0  0  0  0  0
   58.0950   31.8880   44.4640 C   0  0  0  0  0  0  0  0  0  0  0  0
   57.7710   33.2230   44.1640 C   0  0  0  0  0  0  0  0  0  0  0  0
   57.8120   34.2130   45.1700 C   0  0  0  0  0  0  0  0  0  0  0  0
   58.1790   33.8820   46.4870 C   0  0  0  0  0  0  0  0  0  0  0  0
   58.5070   32.5510   46.7640 C   0  0  0  0  0  0  0  0  0  0  0  0
   58.8620   32.0100   47.9570 N   0  0  0  0  0  0  0  0  0  0  0  0
   58.8990   32.6880   49.2580 C   0  0  0  0  0  0  0  0  0  0  0  0
   59.9280   33.8280   49.2580 C   0  0  0  0  0  0  0  0  0  0  0  0
   61.2250   33.3980   48.6250 C   0  0  0  0  0  0  0  0  0  0  0  0
   61.5880   33.8850   47.3610 C   0  0  0  0  0  0  0  0  0  0  0  0
   62.7540   33.4170   46.7530 C   0  0  0  0  0  0  0  0  0  0  0  0
   63.5420   32.4680   47.4030 C   0  0  0  0  0  0  0  0  0  0  0  0
   63.1530   32.0010   48.6600 C   0  0  0  0  0  0  0  0  0  0  0  0
   62.0150   32.4690   49.2420 N   0  0  0  0  0  0  0  0  0  0  0  0
   55.8290   26.7710   45.2260 H   0  0  0  0  0  0  0  0  0  0  0  0
   55.4970   26.9060   46.8550 H   0  0  0  0  0  0  0  0  0  0  0  0
   55.7812   24.7367   47.3112 H   0  0  0  0  0  0  0  0  0  0  0  0
   55.4120   24.2687   45.6033 H   0  0  0  0  0  0  0  0  0  0  0  0
   57.9639   24.6192   46.7872 H   0  0  0  0  0  0  0  0  0  0  0  0
   57.5431   24.3804   45.0222 H   0  0  0  0  0  0  0  0  0  0  0  0
   57.2390   27.0750   45.8080 H   0  0  0  0  0  0  0  0  0  0  0  0
   59.3093   25.9588   47.1510 H   0  0  0  0  0  0  0  0  0  0  0  0
   60.0505   26.4917   45.6048 H   0  0  0  0  0  0  0  0  0  0  0  0
   59.6464   27.5311   48.8348 H   0  0  0  0  0  0  0  0  0  0  0  0
   59.5335   29.8970   49.6743 H   0  0  0  0  0  0  0  0  0  0  0  0
   58.6484   28.8904   44.8159 H   0  0  0  0  0  0  0  0  0  0  0  0
   58.0608   31.1069   43.6903 H   0  0  0  0  0  0  0  0  0  0  0  0
   57.4836   33.4980   43.1385 H   0  0  0  0  0  0  0  0  0  0  0  0
   57.5545   35.2531   44.9214 H   0  0  0  0  0  0  0  0  0  0  0  0
   58.2072   34.6478   47.2761 H   0  0  0  0  0  0  0  0  0  0  0  0
   57.9036   33.1025   49.4756 H   0  0  0  0  0  0  0  0  0  0  0  0
   59.1889   31.9555   50.0257 H   0  0  0  0  0  0  0  0  0  0  0  0
   59.5192   34.6790   48.6935 H   0  0  0  0  0  0  0  0  0  0  0  0
   60.1297   34.1121   50.3014 H   0  0  0  0  0  0  0  0  0  0  0  0
   60.9586   34.6302   46.8525 H   0  0  0  0  0  0  0  0  0  0  0  0
   63.0504   33.7958   45.7637 H   0  0  0  0  0  0  0  0  0  0  0  0
   64.4609   32.0910   46.9303 H   0  0  0  0  0  0  0  0  0  0  0  0
   63.7679   31.2527   49.1815 H   0  0  0  0  0  0  0  0  0  0  0  0
   61.7400   32.0880   50.1760 H   0  0  0  0  0  0  0  0  0  0  0  0
  1  2  1  0
  2  3  1  0
  3  4  1  0
  4  5  1  0
  5  6  1  0
  6  7  2  0
  7  8  1  0
  8  9  2  0
  9 10  1  0
 10 11  2  0
 10 12  1  0
 12 13  2  0
 13 14  1  0
 14 15  2  0
 15 16  1  0
 16 17  2  0
 17 18  1  0
 18 19  1  0
 19 20  1  0
 20 21  1  0
 21 22  2  0
 22 23  1  0
 23 24  2  0
 24 25  1  0
 25 26  2  0
 11  6  1  0
 17 12  1  0
 26 21  1  0
 18  9  1  0
  1 27  1  0
  1 28  1  0
  2 29  1  0
  2 30  1  0
  3 31  1  0
  3 32  1  0
  4 33  1  0
  5 34  1  0
  5 35  1  0
  7 36  1  0
  8 37  1  0
 11 38  1  0
 13 39  1  0
 14 40  1  0
 15 41  1  0
 16 42  1  0
 19 43  1  0
 19 44  1  0
 20 45  1  0
 20 46  1  0
 22 47  1  0
 23 48  1  0
 24 49  1  0
 25 50  1  0
 26 51  1  0
M  CHG  1  26   1
M  END
>  <UniqueID>  (22) 
21

>  <SMILES>  (22) 
NCCNCc1ccc2c(c1)c1ccccc1n2CCc1cccc[nH+]1

>  <Energy>  (22) 
88.02530504839774

>  <Genealogy>  (22) 
NCCNCc1ccc2c(c1)c1ccccc1n2CCc1cccc[nH+]1 (protonated)
NCCNCc1ccc2c(c1)c1ccccc1n2CCc1cccc[nH+]1 (3D coordinates assigned)
NCCNCc1ccc2c(c1)c1ccccc1n2CCc1cccc[nH+]1 (optimized conformer: 88.02530504839774 kcal/mol)

>  <smiles>  (22) 
NCCNCc1ccc2c(c1)c1ccccc1n2CCc1ccccn1

>  <score_type>  (22) 
oracle

>  <origin>  (22) 
adg

>  <m_score__min__energy>  (22) 
-7.4000000000000004

>  <m_primary>  (22) 
energy

$$$$
22:0
     RDKit          3D

 46 48  0  0  0  0  0  0  0  0999 V2000
   61.0640   33.6900   46.6710 C   0  0  0  0  0  0  0  0  0  0  0  0
   60.1140   34.8160   46.6910 N   0  0  0  0  0  0  0  0  0  0  0  0
   59.0030   34.5850   47.6350 C   0  0  0  0  0  0  0  0  0  0  0  0
   58.0290   33.4860   47.1520 C   0  0  0  0  0  0  0  0  0  0  0  0
   58.1240   33.2550   45.6950 N   0  0  0  0  0  0  0  0  0  0  0  0
   56.9500   32.5040   45.2090 C   0  0  0  0  0  0  0  0  0  0  0  0
   57.2360   31.0550   45.2100 N   0  0  0  0  0  0  0  0  0  0  0  0
   57.2410   30.5110   43.8390 C   0  0  0  0  0  0  0  0  0  0  0  0
   57.2120   28.9830   43.9130 C   0  0  0  0  0  0  0  0  0  0  0  0
   58.0400   28.5020   45.0270 N   0  0  0  0  0  0  0  0  0  0  0  0
   57.9170   27.1400   45.4720 C   0  0  0  0  0  0  0  0  0  0  0  0
   59.0570   26.3280   45.5960 C   0  0  0  0  0  0  0  0  0  0  0  0
   58.9380   25.0030   46.0250 C   0  0  0  0  0  0  0  0  0  0  0  0
   57.6810   24.4760   46.3280 C   0  0  0  0  0  0  0  0  0  0  0  0
   56.5390   25.2720   46.1980 C   0  0  0  0  0  0  0  0  0  0  0  0
   56.6520   26.5990   45.7710 C   0  0  0  0  0  0  0  0  0  0  0  0
   55.5310   27.3450   45.6170 F   0  0  0  0  0  0  0  0  0  0  0  0
   59.0800   29.3750   45.5820 C   0  0  0  0  0  0  0  0  0  0  0  0
   58.5180   30.7780   45.8990 C   0  0  0  0  0  0  0  0  0  0  0  0
   58.2780   34.5310   44.9770 C   0  0  0  0  0  0  0  0  0  0  0  0
   59.6340   35.1710   45.3340 C   0  0  0  0  0  0  0  0  0  0  0  0
   61.3095   33.3990   47.7030 H   0  0  0  0  0  0  0  0  0  0  0  0
   60.6094   32.8360   46.1475 H   0  0  0  0  0  0  0  0  0  0  0  0
   61.9823   33.9943   46.1475 H   0  0  0  0  0  0  0  0  0  0  0  0
   59.4229   34.2815   48.6053 H   0  0  0  0  0  0  0  0  0  0  0  0
   58.4334   35.5227   47.7139 H   0  0  0  0  0  0  0  0  0  0  0  0
   58.2660   32.5480   47.6754 H   0  0  0  0  0  0  0  0  0  0  0  0
   57.0052   33.8215   47.3741 H   0  0  0  0  0  0  0  0  0  0  0  0
   56.0918   32.7055   45.8669 H   0  0  0  0  0  0  0  0  0  0  0  0
   56.7189   32.8238   44.1822 H   0  0  0  0  0  0  0  0  0  0  0  0
   56.3553   30.8714   43.2953 H   0  0  0  0  0  0  0  0  0  0  0  0
   58.1468   30.8418   43.3097 H   0  0  0  0  0  0  0  0  0  0  0  0
   56.1750   28.6482   44.0629 H   0  0  0  0  0  0  0  0  0  0  0  0
   57.6121   28.5754   42.9729 H   0  0  0  0  0  0  0  0  0  0  0  0
   60.0489   26.7374   45.3541 H   0  0  0  0  0  0  0  0  0  0  0  0
   59.8355   24.3748   46.1240 H   0  0  0  0  0  0  0  0  0  0  0  0
   57.5892   23.4343   46.6691 H   0  0  0  0  0  0  0  0  0  0  0  0
   55.5490   24.8535   46.4322 H   0  0  0  0  0  0  0  0  0  0  0  0
   59.4691   28.9263   46.5079 H   0  0  0  0  0  0  0  0  0  0  0  0
   59.8819   29.4804   44.8364 H   0  0  0  0  0  0  0  0  0  0  0  0
   58.3567   30.8544   46.9844 H   0  0  0  0  0  0  0  0  0  0  0  0
   59.2512   31.5158   45.5410 H   0  0  0  0  0  0  0  0  0  0  0  0
   58.2348   34.3477   43.8932 H   0  0  0  0  0  0  0  0  0  0  0  0
   57.4662   35.2129   45.2703 H   0  0  0  0  0  0  0  0  0  0  0  0
   60.3819   34.8350   44.6007 H   0  0  0  0  0  0  0  0  0  0  0  0
   59.4932   36.2618   45.3146 H   0  0  0  0  0  0  0  0  0  0  0  0
  1  2  1  0
  2  3  1  0
  3  4  1  0
  4  5  1  0
  5  6  1  0
  6  7  1  0
  7  8  1  0
  8  9  1  0
  9 10  1  0
 10 11  1  0
 11 12  2  0
 12 13  1  0
 13 14  2  0
 14 15  1  0
 15 16  2  0
 16 17  1  0
 10 18  1  0
 18 19  1  0
  5 20  1  0
 20 21  1  0
 21  2  1  0
 19  7  1  0
 16 11  1  0
  1 22  1  0
  1 23  1  0
  1 24  1  0
  3 25  1  0
  3 26  1  0
  4 27  1  0
  4 28  1  0
  6 29  1  0
  6 30  1  0
  8 31  1  0
  8 32  1  0
  9 33  1  0
  9 34  1  0
 12 35  1  0
 13 36  1  0
 14 37  1  0
 15 38  1  0
 18 39  1  0
 18 40  1  0
 19 41  1  0
 19 42  1  0
 20 43  1  0
 20 44  1  0
 21 45  1  0
 21 46  1  0
M  END
>  <UniqueID>  (23) 
22

>  <SMILES>  (23) 
CN1CCN(CN2CCN(c3ccccc3F)CC2)CC1

>  <Energy>  (23) 
66.61963301079399

>  <Genealogy>  (23) 
CN1CCN(CN2CCN(c3ccccc3F)CC2)CC1 (3D coordinates assigned)
CN1CCN(CN2CCN(c3ccccc3F)CC2)CC1 (nonaromatic ring conformer: 66.61963301079399 kcal/mol)

>  <smiles>  (23) 
CN1CCN(CN2CCN(c3ccccc3F)CC2)CC1

>  <score_type>  (23) 
oracle

>  <origin>  (23) 
adg

>  <m_score__min__energy>  (23) 
-7.2999999999999998

>  <m_primary>  (23) 
energy

$$$$
23:0
     RDKit          3D

 55 59  0  0  0  0  0  0  0  0999 V2000
   55.2020   29.7550   53.2640 C   0  0  0  0  0  0  0  0  0  0  0  0
   55.7830   30.0520   51.9980 O   0  0  0  0  0  0  0  0  0  0  0  0
   56.9660   30.7790   51.8240 C   0  0  0  0  0  0  0  0  0  0  0  0
   57.0200   32.0840   52.3250 C   0  0  0  0  0  0  0  0  0  0  0  0
   58.1770   32.8620   52.1870 C   0  0  0  0  0  0  0  0  0  0  0  0
   58.1640   34.1660   52.6960 O   0  0  0  0  0  0  0  0  0  0  0  0
   59.0070   34.6260   53.7520 C   0  0  0  0  0  0  0  0  0  0  0  0
   59.3030   32.3130   51.5470 C   0  0  0  0  0  0  0  0  0  0  0  0
   59.2650   31.0040   51.0360 C   0  0  0  0  0  0  0  0  0  0  0  0
   60.4090   30.4590   50.3510 N   0  0  0  0  0  0  0  0  0  0  0  0
   60.3620   29.0580   49.9000 C   0  0  0  0  0  0  0  0  0  0  0  0
   59.8240   28.9390   48.5030 C   0  0  0  0  0  0  0  0  0  0  0  0
   58.6220   29.4670   48.1450 N   0  0  0  0  0  0  0  0  0  0  0  0
   58.5650   29.1970   46.8320 C   0  0  0  0  0  0  0  0  0  0  0  0
   57.5410   29.5120   45.9400 C   0  0  0  0  0  0  0  0  0  0  0  0
   57.7080   29.1330   44.5930 C   0  0  0  0  0  0  0  0  0  0  0  0
   56.6910   29.4550   43.6280 C   0  0  0  0  0  0  0  0  0  0  0  0
   55.8750   29.7070   42.8500 N   0  0  0  0  0  0  0  0  0  0  0  0
   58.8830   28.4510   44.1840 C   0  0  0  0  0  0  0  0  0  0  0  0
   59.8940   28.1470   45.1190 C   0  0  0  0  0  0  0  0  0  0  0  0
   59.6920   28.5430   46.4380 C   0  0  0  0  0  0  0  0  0  0  0  0
   60.5120   28.3600   47.4810 N   0  0  0  0  0  0  0  0  0  0  0  0
   61.4310   31.3700   49.8090 C   0  0  0  0  0  0  0  0  0  0  0  0
   60.8990   32.1370   48.6370 C   0  0  0  0  0  0  0  0  0  0  0  0
   60.7190   33.5120   48.5800 C   0  0  0  0  0  0  0  0  0  0  0  0
   60.0900   33.7780   47.4250 N   0  0  0  0  0  0  0  0  0  0  0  0
   59.6580   34.9620   46.9210 C   0  0  0  0  0  0  0  0  0  0  0  0
   58.9790   34.9500   45.6930 C   0  0  0  0  0  0  0  0  0  0  0  0
   58.7600   33.7230   45.0330 C   0  0  0  0  0  0  0  0  0  0  0  0
   59.2210   32.5210   45.5970 C   0  0  0  0  0  0  0  0  0  0  0  0
   59.8970   32.5970   46.8130 C   0  0  0  0  0  0  0  0  0  0  0  0
   60.3820   31.5660   47.5250 N   0  0  0  0  0  0  0  0  0  0  0  0
   58.0890   30.2450   51.1680 C   0  0  0  0  0  0  0  0  0  0  0  0
   55.8732   30.0981   54.0651 H   0  0  0  0  0  0  0  0  0  0  0  0
   54.2332   30.2685   53.3524 H   0  0  0  0  0  0  0  0  0  0  0  0
   55.0508   28.6690   53.3524 H   0  0  0  0  0  0  0  0  0  0  0  0
   56.1411   32.5055   52.8348 H   0  0  0  0  0  0  0  0  0  0  0  0
   58.5500   34.3766   54.7210 H   0  0  0  0  0  0  0  0  0  0  0  0
   59.9905   34.1395   53.6744 H   0  0  0  0  0  0  0  0  0  0  0  0
   59.1301   35.7163   53.6744 H   0  0  0  0  0  0  0  0  0  0  0  0
   60.2198   32.9123   51.4457 H   0  0  0  0  0  0  0  0  0  0  0  0
   61.3797   28.6413   49.9262 H   0  0  0  0  0  0  0  0  0  0  0  0
   59.6905   28.5048   50.5730 H   0  0  0  0  0  0  0  0  0  0  0  0
   56.6349   30.0377   46.2756 H   0  0  0  0  0  0  0  0  0  0  0  0
   59.0061   28.1575   43.1310 H   0  0  0  0  0  0  0  0  0  0  0  0
   60.8089   27.6163   44.8169 H   0  0  0  0  0  0  0  0  0  0  0  0
   61.7348   32.0779   50.5943 H   0  0  0  0  0  0  0  0  0  0  0  0
   62.2919   30.7722   49.4751 H   0  0  0  0  0  0  0  0  0  0  0  0
   61.0326   34.2448   49.3380 H   0  0  0  0  0  0  0  0  0  0  0  0
   59.8352   35.9044   47.4600 H   0  0  0  0  0  0  0  0  0  0  0  0
   58.6204   35.8902   45.2487 H   0  0  0  0  0  0  0  0  0  0  0  0
   58.2255   33.7067   44.0717 H   0  0  0  0  0  0  0  0  0  0  0  0
   59.0542   31.5556   45.0967 H   0  0  0  0  0  0  0  0  0  0  0  0
   60.3240   30.5490   47.2980 H   0  0  0  0  0  0  0  0  0  0  0  0
   58.0472   29.2263   50.7552 H   0  0  0  0  0  0  0  0  0  0  0  0
  1  2  1  0
  2  3  1  0
  3  4  2  0
  4  5  1  0
  5  6  1  0
  6  7  1  0
  5  8  2  0
  8  9  1  0
  9 10  1  0
 10 11  1  0
 11 12  1  0
 12 13  2  0
 13 14  1  0
 14 15  2  0
 15 16  1  0
 16 17  1  0
 17 18  3  0
 16 19  2  0
 19 20  1  0
 20 21  2  0
 21 22  1  0
 10 23  1  0
 23 24  1  0
 24 25  2  0
 25 26  1  0
 26 27  1  0
 27 28  2  0
 28 29  1  0
 29 30  2  0
 30 31  1  0
 31 32  2  0
  9 33  2  0
 33  3  1  0
 22 12  1  0
 32 24  1  0
 21 14  1  0
 31 26  1  0
  1 34  1  0
  1 35  1  0
  1 36  1  0
  4 37  1  0
  7 38  1  0
  7 39  1  0
  7 40  1  0
  8 41  1  0
 11 42  1  0
 11 43  1  0
 15 44  1  0
 19 45  1  0
 20 46  1  0
 23 47  1  0
 23 48  1  0
 25 49  1  0
 27 50  1  0
 28 51  1  0
 29 52  1  0
 30 53  1  0
 32 54  1  0
 33 55  1  0
M  CHG  2  22  -1  32   1
M  END
>  <UniqueID>  (24) 
23

>  <SMILES>  (24) 
COc1cc(OC)cc(N(Cc2nc3cc(C#N)ccc3[n-]2)Cc2cn3ccccc3[nH+]2)c1

>  <Energy>  (24) 
129.57459899742688

>  <Genealogy>  (24) 
COc1cc(OC)cc(N(Cc2nc3cc(C#N)ccc3[n-]2)Cc2cn3ccccc3[nH+]2)c1 (protonated)
COc1cc(OC)cc(N(Cc2nc3cc(C#N)ccc3[n-]2)Cc2cn3ccccc3[nH+]2)c1 (3D coordinates assigned)
COc1cc(OC)cc(N(Cc2nc3cc(C#N)ccc3[n-]2)Cc2cn3ccccc3[nH+]2)c1 (optimized conformer: 129.57459899742688 kcal/mol)

>  <smiles>  (24) 
COc1cc(OC)cc(N(Cc2cn3ccccc3n2)Cc2nc3cc(C#N)ccc3[nH]2)c1

>  <score_type>  (24) 
oracle

>  <origin>  (24) 
adg

>  <m_score__min__energy>  (24) 
-7.8700000000000001

>  <m_primary>  (24) 
energy

$$$$
24:0
     RDKit          3D

 49 51  0  0  0  0  0  0  0  0999 V2000
   60.7910   28.5840   44.5490 C   0  0  0  0  0  0  0  0  0  0  0  0
   59.6120   29.3560   45.1320 C   0  0  0  0  0  0  0  0  0  0  0  0
   59.7240   29.4720   46.5900 N   0  0  0  0  0  0  0  0  0  0  0  0
   59.9860   28.4920   47.4850 C   0  0  0  0  0  0  0  0  0  0  0  0
   60.1020   26.7410   47.0950 S   0  0  0  0  0  0  0  0  0  0  0  0
   58.4350   26.3230   47.7170 C   0  0  0  0  0  0  0  0  0  0  0  0
   57.4090   26.4970   46.6340 C   0  0  0  0  0  0  0  0  0  0  0  0
   56.9910   27.6540   46.3560 O   0  0  0  0  0  0  0  0  0  0  0  0
   56.9440   25.3430   45.8290 C   0  0  0  0  0  0  0  0  0  0  0  0
   55.5780   25.1030   45.5980 C   0  0  0  0  0  0  0  0  0  0  0  0
   54.6070   26.0900   45.9910 N   0  0  0  0  0  0  0  0  0  0  0  0
   55.1870   23.9510   44.9580 N   0  0  0  0  0  0  0  0  0  0  0  0
   53.7510   23.7070   44.7130 C   0  0  0  0  0  0  0  0  0  0  0  0
   56.1260   23.0370   44.5450 C   0  0  0  0  0  0  0  0  0  0  0  0
   55.7580   21.9810   43.9550 O   0  0  0  0  0  0  0  0  0  0  0  0
   57.4620   23.2620   44.7500 N   0  0  0  0  0  0  0  0  0  0  0  0
   58.4550   22.2860   44.2660 C   0  0  0  0  0  0  0  0  0  0  0  0
   57.8780   24.4150   45.3560 C   0  0  0  0  0  0  0  0  0  0  0  0
   59.1110   24.6390   45.5170 O   0  0  0  0  0  0  0  0  0  0  0  0
   60.1560   28.9830   48.7280 N   0  0  0  0  0  0  0  0  0  0  0  0
   59.9990   30.2920   48.6320 N   0  0  0  0  0  0  0  0  0  0  0  0
   59.7410   30.5920   47.3470 C   0  0  0  0  0  0  0  0  0  0  0  0
   59.5060   31.9670   46.8570 C   0  0  0  0  0  0  0  0  0  0  0  0
   58.2240   32.3320   46.4120 C   0  0  0  0  0  0  0  0  0  0  0  0
   57.9710   33.6330   45.9700 C   0  0  0  0  0  0  0  0  0  0  0  0
   58.9930   34.5830   45.9700 C   0  0  0  0  0  0  0  0  0  0  0  0
   60.2710   34.2350   46.4160 C   0  0  0  0  0  0  0  0  0  0  0  0
   60.5340   32.9330   46.8610 C   0  0  0  0  0  0  0  0  0  0  0  0
   62.1760   32.5380   47.3640 Cl  0  0  0  0  0  0  0  0  0  0  0  0
   61.4061   28.1812   45.3672 H   0  0  0  0  0  0  0  0  0  0  0  0
   60.4166   27.7556   43.9297 H   0  0  0  0  0  0  0  0  0  0  0  0
   61.4006   29.2584   43.9297 H   0  0  0  0  0  0  0  0  0  0  0  0
   59.5903   30.3641   44.6923 H   0  0  0  0  0  0  0  0  0  0  0  0
   58.6866   28.8103   44.8956 H   0  0  0  0  0  0  0  0  0  0  0  0
   58.4277   25.2771   48.0575 H   0  0  0  0  0  0  0  0  0  0  0  0
   58.1882   26.9959   48.5514 H   0  0  0  0  0  0  0  0  0  0  0  0
   53.6670   25.8070   46.3460 H   0  0  0  0  0  0  0  0  0  0  0  0
   54.8000   27.1130   45.9450 H   0  0  0  0  0  0  0  0  0  0  0  0
   53.2249   23.6176   45.6749 H   0  0  0  0  0  0  0  0  0  0  0  0
   53.3289   24.5463   44.1408 H   0  0  0  0  0  0  0  0  0  0  0  0
   53.6298   22.7754   44.1408 H   0  0  0  0  0  0  0  0  0  0  0  0
   58.9449   21.8045   45.1252 H   0  0  0  0  0  0  0  0  0  0  0  0
   57.9510   21.5220   43.6558 H   0  0  0  0  0  0  0  0  0  0  0  0
   59.2102   22.8031   43.6558 H   0  0  0  0  0  0  0  0  0  0  0  0
   60.0490   30.9540   49.4380 H   0  0  0  0  0  0  0  0  0  0  0  0
   57.4138   31.5880   46.4117 H   0  0  0  0  0  0  0  0  0  0  0  0
   56.9648   33.9088   45.6215 H   0  0  0  0  0  0  0  0  0  0  0  0
   58.7928   35.6061   45.6189 H   0  0  0  0  0  0  0  0  0  0  0  0
   61.0739   34.9868   46.4176 H   0  0  0  0  0  0  0  0  0  0  0  0
  1  2  1  0
  2  3  1  0
  3  4  1  0
  4  5  1  0
  5  6  1  0
  6  7  1  0
  7  8  2  0
  7  9  1  0
  9 10  2  0
 10 11  1  0
 10 12  1  0
 12 13  1  0
 12 14  1  0
 14 15  2  0
 14 16  1  0
 16 17  1  0
 16 18  1  0
 18 19  2  0
  4 20  2  0
 20 21  1  0
 21 22  2  0
 22 23  1  0
 23 24  2  0
 24 25  1  0
 25 26  2  0
 26 27  1  0
 27 28  2  0
 28 29  1  0
 22  3  1  0
 28 23  1  0
 18  9  1  0
  1 30  1  0
  1 31  1  0
  1 32  1  0
  2 33  1  0
  2 34  1  0
  6 35  1  0
  6 36  1  0
 11 37  1  0
 11 38  1  0
 13 39  1  0
 13 40  1  0
 13 41  1  0
 17 42  1  0
 17 43  1  0
 17 44  1  0
 21 45  1  0
 24 46  1  0
 25 47  1  0
 26 48  1  0
 27 49  1  0
M  CHG  1  21   1
M  END
>  <UniqueID>  (25) 
24

>  <SMILES>  (25) 
CCn1c(SCC(=O)c2c(N)n(C)c(=O)n(C)c2=O)n[nH+]c1-c1ccccc1Cl

>  <Energy>  (25) 
102.22390545444486

>  <Genealogy>  (25) 
CCn1c(SCC(=O)c2c(N)n(C)c(=O)n(C)c2=O)n[nH+]c1-c1ccccc1Cl (protonated)
CCn1c(SCC(=O)c2c(N)n(C)c(=O)n(C)c2=O)n[nH+]c1-c1ccccc1Cl (3D coordinates assigned)
CCn1c(SCC(=O)c2c(N)n(C)c(=O)n(C)c2=O)n[nH+]c1-c1ccccc1Cl (optimized conformer: 102.22390545444486 kcal/mol)

>  <smiles>  (25) 
CCn1c(SCC(=O)c2c(N)n(C)c(=O)n(C)c2=O)nnc1-c1ccccc1Cl

>  <score_type>  (25) 
oracle

>  <origin>  (25) 
adg

>  <m_score__min__energy>  (25) 
-7.7999999999999998

>  <m_primary>  (25) 
energy

$$$$
25:0
     RDKit          3D

 35 37  0  0  0  0  0  0  0  0999 V2000
   57.2900   34.2560   45.1270 C   0  0  0  0  0  0  0  0  0  0  0  0
   58.3130   33.2820   45.6410 C   0  0  0  0  0  0  0  0  0  0  0  0
   59.5740   33.7590   46.0280 C   0  0  0  0  0  0  0  0  0  0  0  0
   60.5460   32.8800   46.5030 C   0  0  0  0  0  0  0  0  0  0  0  0
   60.2700   31.5170   46.6040 C   0  0  0  0  0  0  0  0  0  0  0  0
   59.0170   31.0120   46.2220 C   0  0  0  0  0  0  0  0  0  0  0  0
   58.7540   29.5590   46.3460 C   0  0  0  0  0  0  0  0  0  0  0  0
   58.4940   28.8590   47.5220 C   0  0  0  0  0  0  0  0  0  0  0  0
   58.2890   27.4890   47.3250 C   0  0  0  0  0  0  0  0  0  0  0  0
   58.3940   27.0950   45.9930 C   0  0  0  0  0  0  0  0  0  0  0  0
   58.2350   25.7250   45.4640 C   0  0  0  0  0  0  0  0  0  0  0  0
   57.4030   25.3960   44.3770 C   0  0  0  0  0  0  0  0  0  0  0  0
   57.4130   24.0460   44.0570 C   0  0  0  0  0  0  0  0  0  0  0  0
   58.4510   23.2630   45.1180 S   0  0  0  0  0  0  0  0  0  0  0  0
   58.8990   24.6220   45.9960 C   0  0  0  0  0  0  0  0  0  0  0  0
   58.7450   28.4600   45.0710 S   0  0  0  0  0  0  0  0  0  0  0  0
   58.0450   31.8950   45.6990 C   0  0  0  0  0  0  0  0  0  0  0  0
   56.8230   31.3930   45.2330 O   0  0  0  0  0  0  0  0  0  0  0  0
   56.7330   30.5420   44.0920 C   0  0  0  0  0  0  0  0  0  0  0  0
   55.5630   29.6210   44.2190 C   0  0  0  0  0  0  0  0  0  0  0  0
   54.6340   29.6580   43.3700 O   0  0  0  0  0  0  0  0  0  0  0  0
   55.5240   28.6820   45.2410 O   0  0  0  0  0  0  0  0  0  0  0  0
   56.7836   34.7381   45.9762 H   0  0  0  0  0  0  0  0  0  0  0  0
   57.7882   35.0218   44.5143 H   0  0  0  0  0  0  0  0  0  0  0  0
   56.5496   33.7209   44.5143 H   0  0  0  0  0  0  0  0  0  0  0  0
   59.7973   34.8337   45.9562 H   0  0  0  0  0  0  0  0  0  0  0  0
   61.5338   33.2628   46.7991 H   0  0  0  0  0  0  0  0  0  0  0  0
   61.0407   30.8315   46.9863 H   0  0  0  0  0  0  0  0  0  0  0  0
   58.4537   29.3378   48.5115 H   0  0  0  0  0  0  0  0  0  0  0  0
   58.0661   26.7895   48.1442 H   0  0  0  0  0  0  0  0  0  0  0  0
   56.8017   26.1391   43.8327 H   0  0  0  0  0  0  0  0  0  0  0  0
   56.8395   23.5709   43.2475 H   0  0  0  0  0  0  0  0  0  0  0  0
   59.5973   24.6386   46.8458 H   0  0  0  0  0  0  0  0  0  0  0  0
   56.6125   31.1584   43.1889 H   0  0  0  0  0  0  0  0  0  0  0  0
   57.6525   29.9425   44.0210 H   0  0  0  0  0  0  0  0  0  0  0  0
  1  2  1  0
  2  3  2  0
  3  4  1  0
  4  5  2  0
  5  6  1  0
  6  7  1  0
  7  8  2  0
  8  9  1  0
  9 10  2  0
 10 11  1  0
 11 12  1  0
 12 13  2  0
 13 14  1  0
 14 15  1  0
 10 16  1  0
  6 17  2  0
 17 18  1  0
 18 19  1  0
 19 20  1  0
 20 21  2  0
 20 22  1  0
 17  2  1  0
 16  7  1  0
 15 11  2  0
  1 23  1  0
  1 24  1  0
  1 25  1  0
  3 26  1  0
  4 27  1  0
  5 28  1  0
  8 29  1  0
  9 30  1  0
 12 31  1  0
 13 32  1  0
 15 33  1  0
 19 34  1  0
 19 35  1  0
M  CHG  1  22  -1
M  END
>  <UniqueID>  (26) 
25

>  <SMILES>  (26) 
Cc1cccc(-c2ccc(-c3ccsc3)s2)c1OCC(=O)[O-]

>  <Energy>  (26) 
98.05346608233668

>  <Genealogy>  (26) 
Cc1cccc(-c2ccc(-c3ccsc3)s2)c1OCC(=O)[O-] (protonated)
Cc1cccc(-c2ccc(-c3ccsc3)s2)c1OCC(=O)[O-] (3D coordinates assigned)
Cc1cccc(-c2ccc(-c3ccsc3)s2)c1OCC(=O)[O-] (optimized conformer: 98.05346608233668 kcal/mol)

>  <smiles>  (26) 
Cc1cccc(-c2ccc(-c3ccsc3)s2)c1OCC(=O)O

>  <score_type>  (26) 
oracle

>  <origin>  (26) 
adg

>  <m_score__min__energy>  (26) 
-9.7100000000000009

>  <m_primary>  (26) 
energy

$$$$
26:0
     RDKit          3D

 48 50  0  0  0  0  0  0  0  0999 V2000
   59.9880   35.7190   46.1040 C   0  0  0  0  0  0  0  0  0  0  0  0
   59.0050   34.6320   45.7830 C   0  0  0  0  0  0  0  0  0  0  0  0
   58.1540   34.1320   46.7800 C   0  0  0  0  0  0  0  0  0  0  0  0
   57.2630   33.0930   46.4910 C   0  0  0  0  0  0  0  0  0  0  0  0
   57.2110   32.5440   45.1980 C   0  0  0  0  0  0  0  0  0  0  0  0
   56.3280   31.4610   44.8750 N   0  0  0  0  0  0  0  0  0  0  0  0
   56.7230   30.1150   44.5810 C   0  0  0  0  0  0  0  0  0  0  0  0
   55.8310   29.2430   44.4090 O   0  0  0  0  0  0  0  0  0  0  0  0
   58.1100   29.7460   44.5470 N   0  0  0  0  0  0  0  0  0  0  0  0
   58.5570   28.3930   44.1920 C   0  0  1  0  0  0  0  0  0  0  0  0
   60.0660   28.2260   44.4930 C   0  0  0  0  0  0  0  0  0  0  0  0
   60.3390   27.3650   45.7350 C   0  0  0  0  0  0  0  0  0  0  0  0
   59.3200   27.6480   46.8460 C   0  0  0  0  0  0  0  0  0  0  0  0
   57.9030   27.4810   46.4170 N   0  0  0  0  0  0  0  0  0  0  0  0
   57.2310   26.3700   47.1200 C   0  0  0  0  0  0  0  0  0  0  0  0
   56.9090   25.2560   46.1550 C   0  0  0  0  0  0  0  0  0  0  0  0
   57.8960   24.3250   45.7890 C   0  0  0  0  0  0  0  0  0  0  0  0
   57.5910   23.2880   44.9030 C   0  0  0  0  0  0  0  0  0  0  0  0
   56.3020   23.1710   44.3770 C   0  0  0  0  0  0  0  0  0  0  0  0
   55.3140   24.0910   44.7360 C   0  0  0  0  0  0  0  0  0  0  0  0
   55.6120   25.1320   45.6220 C   0  0  0  0  0  0  0  0  0  0  0  0
   54.6400   26.0160   45.9620 F   0  0  0  0  0  0  0  0  0  0  0  0
   57.7160   27.3550   44.9530 C   0  0  0  0  0  0  0  0  0  0  0  0
   58.0920   33.0140   44.2170 C   0  0  0  0  0  0  0  0  0  0  0  0
   58.9830   34.0530   44.5050 C   0  0  0  0  0  0  0  0  0  0  0  0
   60.0794   35.8201   47.1955 H   0  0  0  0  0  0  0  0  0  0  0  0
   60.9688   35.4645   45.6759 H   0  0  0  0  0  0  0  0  0  0  0  0
   59.6365   36.6694   45.6759 H   0  0  0  0  0  0  0  0  0  0  0  0
   58.1875   34.5588   47.7933 H   0  0  0  0  0  0  0  0  0  0  0  0
   56.6006   32.7042   47.2785 H   0  0  0  0  0  0  0  0  0  0  0  0
   58.8070   30.4090   44.9530 H   0  0  0  0  0  0  0  0  0  0  0  0
   58.4138   28.2327   43.1132 H   0  0  0  0  0  0  0  0  0  0  0  0
   60.5460   27.7508   43.6248 H   0  0  0  0  0  0  0  0  0  0  0  0
   60.4746   29.2279   44.6912 H   0  0  0  0  0  0  0  0  0  0  0  0
   60.2778   26.3030   45.4550 H   0  0  0  0  0  0  0  0  0  0  0  0
   61.3420   27.6111   46.1137 H   0  0  0  0  0  0  0  0  0  0  0  0
   59.5141   26.9567   47.6794 H   0  0  0  0  0  0  0  0  0  0  0  0
   59.4456   28.7016   47.1361 H   0  0  0  0  0  0  0  0  0  0  0  0
   57.8946   25.9859   47.9088 H   0  0  0  0  0  0  0  0  0  0  0  0
   56.2946   26.7414   47.5619 H   0  0  0  0  0  0  0  0  0  0  0  0
   58.9121   24.4127   46.2012 H   0  0  0  0  0  0  0  0  0  0  0  0
   58.3675   22.5624   44.6192 H   0  0  0  0  0  0  0  0  0  0  0  0
   56.0649   22.3539   43.6797 H   0  0  0  0  0  0  0  0  0  0  0  0
   54.2996   23.9968   44.3212 H   0  0  0  0  0  0  0  0  0  0  0  0
   58.0209   26.3461   44.6382 H   0  0  0  0  0  0  0  0  0  0  0  0
   56.6550   27.5303   44.7217 H   0  0  0  0  0  0  0  0  0  0  0  0
   58.0835   32.5635   43.2135 H   0  0  0  0  0  0  0  0  0  0  0  0
   59.6693   34.4177   43.7265 H   0  0  0  0  0  0  0  0  0  0  0  0
  1  2  1  0
  2  3  2  0
  3  4  1  0
  4  5  2  0
  5  6  1  0
  6  7  1  0
  7  8  2  0
  7  9  1  0
  9 10  1  0
 10 11  1  0
 11 12  1  0
 12 13  1  0
 13 14  1  0
 14 15  1  0
 15 16  1  0
 16 17  2  0
 17 18  1  0
 18 19  2  0
 19 20  1  0
 20 21  2  0
 21 22  1  0
 14 23  1  0
  5 24  1  0
 24 25  2  0
 25  2  1  0
 23 10  1  0
 21 16  1  0
  1 26  1  0
  1 27  1  0
  1 28  1  0
  3 29  1  0
  4 30  1  0
  9 31  1  0
 10 32  1  6
 11 33  1  0
 11 34  1  0
 12 35  1  0
 12 36  1  0
 13 37  1  0
 13 38  1  0
 15 39  1  0
 15 40  1  0
 17 41  1  0
 18 42  1  0
 19 43  1  0
 20 44  1  0
 23 45  1  0
 23 46  1  0
 24 47  1  0
 25 48  1  0
M  CHG  1   6  -1
M  END
>  <UniqueID>  (27) 
26

>  <SMILES>  (27) 
Cc1ccc([N-]C(=O)N[C@H]2CCCN(Cc3ccccc3F)C2)cc1

>  <Energy>  (27) 
59.22589318708889

>  <Genealogy>  (27) 
Cc1ccc([N-]C(=O)NC2CCCN(Cc3ccccc3F)C2)cc1 (protonated)
Cc1ccc([N-]C(=O)N[C@H]2CCCN(Cc3ccccc3F)C2)cc1 (chirality)
Cc1ccc([N-]C(=O)N[C@H]2CCCN(Cc3ccccc3F)C2)cc1 (3D coordinates assigned)
Cc1ccc([N-]C(=O)N[C@H]2CCCN(Cc3ccccc3F)C2)cc1 (nonaromatic ring conformer: 59.22589318708889 kcal/mol)

>  <smiles>  (27) 
Cc1ccc(NC(=O)NC2CCCN(Cc3ccccc3F)C2)cc1

>  <score_type>  (27) 
oracle

>  <origin>  (27) 
adg

>  <m_score__min__energy>  (27) 
-9.75

>  <m_primary>  (27) 
energy

$$$$
27:0
     RDKit          3D

 42 45  0  0  0  0  0  0  0  0999 V2000
   58.6910   27.0280   44.5100 C   0  0  0  0  0  0  0  0  0  0  0  0
   57.5240   27.2540   45.4730 C   0  0  0  0  0  0  0  0  0  0  0  0
   57.0700   28.7240   45.5640 C   0  0  1  0  0  0  0  0  0  0  0  0
   58.1970   29.7170   45.1680 C   0  0  0  0  0  0  0  0  0  0  0  0
   57.6260   31.0410   44.8970 N   0  0  0  0  0  0  0  0  0  0  0  0
   58.3410   32.2480   45.2310 C   0  0  0  0  0  0  0  0  0  0  0  0
   57.8100   33.4670   44.9520 N   0  0  0  0  0  0  0  0  0  0  0  0
   58.4860   34.5980   45.2740 C   0  0  0  0  0  0  0  0  0  0  0  0
   59.6980   34.5170   45.8800 N   0  0  0  0  0  0  0  0  0  0  0  0
   60.2380   33.3000   46.1690 C   0  0  0  0  0  0  0  0  0  0  0  0
   61.5310   33.2010   46.7930 N   0  0  0  0  0  0  0  0  0  0  0  0
   62.6720   33.8090   46.3710 C   0  0  0  0  0  0  0  0  0  0  0  0
   63.7510   33.4610   47.1760 C   0  0  0  0  0  0  0  0  0  0  0  0
   63.2240   32.6100   48.1160 C   0  0  0  0  0  0  0  0  0  0  0  0
   63.8510   31.9930   49.1480 N   0  0  0  0  0  0  0  0  0  0  0  0
   63.1220   31.1950   49.9830 C   0  0  0  0  0  0  0  0  0  0  0  0
   61.7340   31.0220   49.7800 C   0  0  0  0  0  0  0  0  0  0  0  0
   61.0170   30.2390   50.6230 F   0  0  0  0  0  0  0  0  0  0  0  0
   61.0970   31.6710   48.7080 C   0  0  0  0  0  0  0  0  0  0  0  0
   61.8870   32.4640   47.8700 C   0  0  0  0  0  0  0  0  0  0  0  0
   59.5540   32.1750   45.8370 N   0  0  0  0  0  0  0  0  0  0  0  0
   56.3790   31.1230   44.1320 C   0  0  0  0  0  0  0  0  0  0  0  0
   55.8890   29.7220   43.7620 C   0  0  0  0  0  0  0  0  0  0  0  0
   55.8130   28.9010   44.9100 O   0  0  0  0  0  0  0  0  0  0  0  0
   59.6116   26.8497   45.0850 H   0  0  0  0  0  0  0  0  0  0  0  0
   58.4795   26.1541   43.8763 H   0  0  0  0  0  0  0  0  0  0  0  0
   58.8210   27.9177   43.8763 H   0  0  0  0  0  0  0  0  0  0  0  0
   56.6713   26.6478   45.1332 H   0  0  0  0  0  0  0  0  0  0  0  0
   57.8736   26.9635   46.4747 H   0  0  0  0  0  0  0  0  0  0  0  0
   56.8795   28.9837   46.6158 H   0  0  0  0  0  0  0  0  0  0  0  0
   58.9209   29.7942   45.9926 H   0  0  0  0  0  0  0  0  0  0  0  0
   58.7013   29.3487   44.2624 H   0  0  0  0  0  0  0  0  0  0  0  0
   58.0516   35.5820   45.0438 H   0  0  0  0  0  0  0  0  0  0  0  0
   60.1940   35.3990   46.1350 H   0  0  0  0  0  0  0  0  0  0  0  0
   62.7332   34.4867   45.5067 H   0  0  0  0  0  0  0  0  0  0  0  0
   64.7952   33.7936   47.0809 H   0  0  0  0  0  0  0  0  0  0  0  0
   63.6190   30.6829   50.8201 H   0  0  0  0  0  0  0  0  0  0  0  0
   60.0165   31.5591   48.5347 H   0  0  0  0  0  0  0  0  0  0  0  0
   55.6129   31.6264   44.7400 H   0  0  0  0  0  0  0  0  0  0  0  0
   56.5626   31.6927   43.2091 H   0  0  0  0  0  0  0  0  0  0  0  0
   54.8913   29.7972   43.3049 H   0  0  0  0  0  0  0  0  0  0  0  0
   56.6004   29.2739   43.0527 H   0  0  0  0  0  0  0  0  0  0  0  0
  1  2  1  0
  2  3  1  0
  3  4  1  0
  4  5  1  0
  5  6  1  0
  6  7  2  0
  7  8  1  0
  8  9  2  0
  9 10  1  0
 10 11  1  0
 11 12  1  0
 12 13  2  0
 13 14  1  0
 14 15  2  0
 15 16  1  0
 16 17  2  0
 17 18  1  0
 17 19  1  0
 19 20  2  0
 10 21  2  0
  5 22  1  0
 22 23  1  0
 23 24  1  0
 24  3  1  0
 21  6  1  0
 20 11  1  0
 20 14  1  0
  1 25  1  0
  1 26  1  0
  1 27  1  0
  2 28  1  0
  2 29  1  0
  3 30  1  1
  4 31  1  0
  4 32  1  0
  8 33  1  0
  9 34  1  0
 12 35  1  0
 13 36  1  0
 16 37  1  0
 19 38  1  0
 22 39  1  0
 22 40  1  0
 23 41  1  0
 23 42  1  0
M  CHG  1   9   1
M  END
>  <UniqueID>  (28) 
27

>  <SMILES>  (28) 
CC[C@H]1CN(c2nc[nH+]c(-n3ccc4ncc(F)cc43)n2)CCO1

>  <Energy>  (28) 
89.94683101866214

>  <Genealogy>  (28) 
CCC1CN(c2nc[nH+]c(-n3ccc4ncc(F)cc43)n2)CCO1 (protonated)
CC[C@H]1CN(c2nc[nH+]c(-n3ccc4ncc(F)cc43)n2)CCO1 (chirality)
CC[C@H]1CN(c2nc[nH+]c(-n3ccc4ncc(F)cc43)n2)CCO1 (3D coordinates assigned)
CC[C@H]1CN(c2nc[nH+]c(-n3ccc4ncc(F)cc43)n2)CCO1 (nonaromatic ring conformer: 89.94683101866214 kcal/mol)

>  <smiles>  (28) 
CCC1CN(c2ncnc(-n3ccc4ncc(F)cc43)n2)CCO1

>  <score_type>  (28) 
oracle

>  <origin>  (28) 
adg

>  <m_score__min__energy>  (28) 
-6.0599999999999996

>  <m_primary>  (28) 
energy

$$$$
28:0
     RDKit          3D

 43 47  0  0  1  0  0  0  0  0999 V2000
   56.6170   30.4780   42.2500 C   0  0  0  0  0  0  0  0  0  0  0  0
   57.4070   31.6010   42.3080 C   0  0  0  0  0  0  0  0  0  0  0  0
   57.9980   32.0040   43.4940 C   0  0  0  0  0  0  0  0  0  0  0  0
   57.8120   31.2800   44.6830 C   0  0  0  0  0  0  0  0  0  0  0  0
   58.4270   31.7130   45.8860 C   0  0  0  0  0  0  0  0  0  0  0  0
   58.2510   33.5250   46.3680 S   0  0  0  0  0  0  0  0  0  0  0  0
   59.2250   33.2610   47.8690 C   0  0  0  0  0  0  0  0  0  0  0  0
   59.5150   34.1580   48.7310 N   0  0  0  0  0  0  0  0  0  0  0  0
   60.5540   33.8900   49.6300 N   0  0  0  0  0  0  0  0  0  0  0  0
   60.5410   33.8190   50.9670 C   0  0  0  0  0  0  0  0  0  0  0  0
   61.7920   33.5300   51.4290 N   0  0  0  0  0  0  0  0  0  0  0  0
   62.6130   33.4150   50.3610 C   0  0  0  0  0  0  0  0  0  0  0  0
   63.9780   33.1330   50.2390 C   0  0  0  0  0  0  0  0  0  0  0  0
   64.5640   33.0800   48.9700 C   0  0  0  0  0  0  0  0  0  0  0  0
   63.7660   33.3090   47.8650 C   0  0  0  0  0  0  0  0  0  0  0  0
   62.4120   33.5880   47.9840 C   0  0  0  0  0  0  0  0  0  0  0  0
   61.8310   33.6410   49.2500 C   0  0  0  0  0  0  0  0  0  0  0  0
   59.5310   31.9980   47.8340 N   0  0  0  0  0  0  0  0  0  0  0  0
   59.1490   31.2260   46.8720 N   0  0  0  0  0  0  0  0  0  0  0  0
   59.5220   29.8070   46.8850 C   0  0  0  0  0  0  0  0  0  0  0  0
   60.1510   29.2600   45.7680 C   0  0  0  0  0  0  0  0  0  0  0  0
   60.5080   27.9190   45.8440 C   0  0  0  0  0  0  0  0  0  0  0  0
   60.2510   27.1650   46.9720 C   0  0  0  0  0  0  0  0  0  0  0  0
   59.6270   27.7230   48.0690 C   0  0  0  0  0  0  0  0  0  0  0  0
   59.2630   29.0460   48.0230 C   0  0  0  0  0  0  0  0  0  0  0  0
   57.0100   30.1700   44.5490 C   0  0  0  0  0  0  0  0  0  0  0  0
   56.4230   29.7630   43.3870 C   0  0  0  0  0  0  0  0  0  0  0  0
   56.1523   30.1657   41.3032 H   0  0  0  0  0  0  0  0  0  0  0  0
   57.5732   32.1913   41.3948 H   0  0  0  0  0  0  0  0  0  0  0  0
   58.6247   32.9079   43.5049 H   0  0  0  0  0  0  0  0  0  0  0  0
   59.6537   33.9711   51.5991 H   0  0  0  0  0  0  0  0  0  0  0  0
   64.5876   32.9538   51.1370 H   0  0  0  0  0  0  0  0  0  0  0  0
   65.6357   32.8610   48.8541 H   0  0  0  0  0  0  0  0  0  0  0  0
   64.2172   33.2689   46.8626 H   0  0  0  0  0  0  0  0  0  0  0  0
   61.8018   33.7660   47.0862 H   0  0  0  0  0  0  0  0  0  0  0  0
   60.1330   31.5810   48.6530 H   0  0  0  0  0  0  0  0  0  0  0  0
   60.3551   29.8608   44.8695 H   0  0  0  0  0  0  0  0  0  0  0  0
   61.0073   27.4469   44.9850 H   0  0  0  0  0  0  0  0  0  0  0  0
   60.5475   26.1060   46.9964 H   0  0  0  0  0  0  0  0  0  0  0  0
   59.4246   27.1181   48.9652 H   0  0  0  0  0  0  0  0  0  0  0  0
   58.7647   29.5072   48.8884 H   0  0  0  0  0  0  0  0  0  0  0  0
   56.8281   29.5639   45.4487 H   0  0  0  0  0  0  0  0  0  0  0  0
   55.7955   28.8597   43.3716 H   0  0  0  0  0  0  0  0  0  0  0  0
  1  2  2  0
  2  3  1  0
  3  4  2  0
  4  5  1  0
  5  6  1  0
  6  7  1  0
  7  8  2  0
  8  9  1  0
  9 10  1  0
 10 11  2  0
 11 12  1  0
 12 13  2  0
 13 14  1  0
 14 15  2  0
 15 16  1  0
 16 17  2  0
  7 18  1  0
 18 19  1  0
 19 20  1  0
 20 21  2  0
 21 22  1  0
 22 23  2  0
 23 24  1  0
 24 25  2  0
  4 26  1  0
 26 27  2  0
 27  1  1  0
 19  5  2  0
 25 20  1  0
 17  9  1  0
 17 12  1  0
  1 28  1  0
  2 29  1  0
  3 30  1  0
 10 31  1  0
 13 32  1  0
 14 33  1  0
 15 34  1  0
 16 35  1  0
 18 36  1  0
 21 37  1  0
 22 38  1  0
 23 39  1  0
 24 40  1  0
 25 41  1  0
 26 42  1  0
 27 43  1  0
M  CHG  1  19   1
M  END
>  <smiles>  (29) 
c1ccc(-c2sc(=Nn3cnc4ccccc43)[nH][n+]2-c2ccccc2)cc1

>  <score_type>  (29) 
oracle

>  <origin>  (29) 
adg

>  <m_score__min__energy>  (29) 
-7.0899999999999999

>  <m_primary>  (29) 
energy

$$$$
29:0
     RDKit          3D

 35 37  0  0  1  0  0  0  0  0999 V2000
   55.2740   26.7350   46.0040 O   0  0  0  0  0  0  0  0  0  0  0  0
   56.5510   27.2920   45.8150 C   0  0  0  0  0  0  0  0  0  0  0  0
   57.5970   26.6420   46.4430 C   0  0  0  0  0  0  0  0  0  0  0  0
   58.8890   27.1430   46.2960 C   0  0  0  0  0  0  0  0  0  0  0  0
   59.0760   28.2740   45.5270 C   0  0  0  0  0  0  0  0  0  0  0  0
   58.0150   28.9240   44.8970 C   0  0  0  0  0  0  0  0  0  0  0  0
   58.2940   30.0820   44.1230 N   0  0  0  0  0  0  0  0  0  0  0  0
   58.1830   31.2280   44.7020 C   0  0  0  0  0  0  0  0  0  0  0  0
   57.4380   32.2710   44.2130 C   0  0  0  0  0  0  0  0  0  0  0  0
   57.4080   33.4540   44.9440 C   0  0  0  0  0  0  0  0  0  0  0  0
   58.0830   33.5950   46.1010 N   0  0  0  0  0  0  0  0  0  0  0  0
   58.8030   32.5600   46.5560 C   0  0  0  0  0  0  0  0  0  0  0  0
   59.4720   32.6310   47.6580 N   0  0  0  0  0  0  0  0  0  0  0  0
   60.8920   32.6370   47.6350 C   0  0  0  0  0  0  0  0  0  0  0  0
   61.6750   31.7680   48.3480 C   0  0  0  0  0  0  0  0  0  0  0  0
   63.0590   31.8340   48.2750 C   0  0  0  0  0  0  0  0  0  0  0  0
   63.6970   32.7750   47.4820 C   0  0  0  0  0  0  0  0  0  0  0  0
   62.9000   33.6520   46.7610 C   0  0  0  0  0  0  0  0  0  0  0  0
   63.5300   34.5730   45.9860 F   0  0  0  0  0  0  0  0  0  0  0  0
   61.5260   33.5760   46.8430 C   0  0  0  0  0  0  0  0  0  0  0  0
   58.8440   31.4020   45.8580 N   0  0  0  0  0  0  0  0  0  0  0  0
   56.7290   28.4250   45.0440 C   0  0  0  0  0  0  0  0  0  0  0  0
   55.1060   26.3370   46.9370 H   0  0  0  0  0  0  0  0  0  0  0  0
   57.4123   25.7431   47.0495 H   0  0  0  0  0  0  0  0  0  0  0  0
   59.7421   26.6475   46.7826 H   0  0  0  0  0  0  0  0  0  0  0  0
   60.0933   28.6750   45.4074 H   0  0  0  0  0  0  0  0  0  0  0  0
   56.8803   32.1745   43.2698 H   0  0  0  0  0  0  0  0  0  0  0  0
   56.8152   34.2999   44.5658 H   0  0  0  0  0  0  0  0  0  0  0  0
   58.0520   34.4860   46.6400 H   0  0  0  0  0  0  0  0  0  0  0  0
   61.2005   31.0083   48.9865 H   0  0  0  0  0  0  0  0  0  0  0  0
   63.6631   31.1241   48.8591 H   0  0  0  0  0  0  0  0  0  0  0  0
   64.7945   32.8245   47.4265 H   0  0  0  0  0  0  0  0  0  0  0  0
   60.9164   34.2831   46.2613 H   0  0  0  0  0  0  0  0  0  0  0  0
   59.4250   30.6070   46.2510 H   0  0  0  0  0  0  0  0  0  0  0  0
   55.8734   28.9182   44.5596 H   0  0  0  0  0  0  0  0  0  0  0  0
  1  2  1  0
  2  3  2  0
  3  4  1  0
  4  5  2  0
  5  6  1  0
  6  7  1  0
  7  8  2  0
  8  9  1  0
  9 10  2  0
 10 11  1  0
 11 12  1  0
 12 13  2  0
 13 14  1  0
 14 15  2  0
 15 16  1  0
 16 17  2  0
 17 18  1  0
 18 19  1  0
 18 20  2  0
 12 21  1  0
  6 22  2  0
 22  2  1  0
 21  8  1  0
 20 14  1  0
  1 23  1  0
  3 24  1  0
  4 25  1  0
  5 26  1  0
  9 27  1  0
 10 28  1  0
 11 29  1  0
 15 30  1  0
 16 31  1  0
 17 32  1  0
 20 33  1  0
 21 34  1  0
 22 35  1  0
M  END
>  <smiles>  (30) 
Oc1cccc(N=c2cc[nH]c(=Nc3cccc(F)c3)[nH]2)c1

>  <score_type>  (30) 
oracle

>  <origin>  (30) 
adg

>  <m_score__min__energy>  (30) 
-8.1300000000000008

>  <m_primary>  (30) 
energy

$$$$
30:0
     RDKit          3D

 50 52  0  0  0  0  0  0  0  0999 V2000
   60.0500   34.2100   48.5190 C   0  0  0  0  0  0  0  0  0  0  0  0
   58.9240   33.4280   48.1330 O   0  0  0  0  0  0  0  0  0  0  0  0
   58.5630   33.1610   46.8040 C   0  0  0  0  0  0  0  0  0  0  0  0
   58.6090   34.2100   45.8780 C   0  0  0  0  0  0  0  0  0  0  0  0
   58.2540   33.9960   44.5450 C   0  0  0  0  0  0  0  0  0  0  0  0
   57.8470   32.7290   44.1220 C   0  0  0  0  0  0  0  0  0  0  0  0
   57.7960   31.6630   45.0340 C   0  0  0  0  0  0  0  0  0  0  0  0
   57.3260   30.2960   44.5880 C   0  0  0  0  0  0  0  0  0  0  0  0
   58.4350   29.4710   44.0350 N   0  0  0  0  0  0  0  0  0  0  0  0
   57.9250   28.2460   43.3630 C   0  0  0  0  0  0  0  0  0  0  0  0
   57.8520   27.0180   44.2970 C   0  0  0  0  0  0  0  0  0  0  0  0
   57.7250   27.4540   45.6970 N   0  0  0  0  0  0  0  0  0  0  0  0
   57.4230   26.3240   46.5960 C   0  0  0  0  0  0  0  0  0  0  0  0
   56.0140   25.8550   46.3870 C   0  0  0  0  0  0  0  0  0  0  0  0
   55.1350   26.6680   45.9940 O   0  0  0  0  0  0  0  0  0  0  0  0
   55.6900   24.4780   46.5880 N   0  0  0  0  0  0  0  0  0  0  0  0
   56.6820   23.4140   46.5630 C   0  0  0  0  0  0  0  0  0  0  0  0
   56.8050   22.8890   45.1710 C   0  0  0  0  0  0  0  0  0  0  0  0
   57.6190   21.8390   44.7660 C   0  0  0  0  0  0  0  0  0  0  0  0
   57.4840   21.5310   43.4080 C   0  0  0  0  0  0  0  0  0  0  0  0
   56.5580   22.3290   42.7440 C   0  0  0  0  0  0  0  0  0  0  0  0
   55.9050   23.4150   43.8500 S   0  0  0  0  0  0  0  0  0  0  0  0
   58.9460   28.1620   46.1300 C   0  0  0  0  0  0  0  0  0  0  0  0
   59.4680   29.1310   45.0440 C   0  0  0  0  0  0  0  0  0  0  0  0
   58.1550   31.8820   46.3730 C   0  0  0  0  0  0  0  0  0  0  0  0
   60.1090   34.2510   49.6167 H   0  0  0  0  0  0  0  0  0  0  0  0
   60.9676   33.7538   48.1192 H   0  0  0  0  0  0  0  0  0  0  0  0
   59.9430   35.2292   48.1192 H   0  0  0  0  0  0  0  0  0  0  0  0
   58.9276   35.2113   46.2035 H   0  0  0  0  0  0  0  0  0  0  0  0
   58.2950   34.8275   43.8260 H   0  0  0  0  0  0  0  0  0  0  0  0
   57.5656   32.5658   43.0712 H   0  0  0  0  0  0  0  0  0  0  0  0
   56.8917   29.7717   45.4520 H   0  0  0  0  0  0  0  0  0  0  0  0
   56.5823   30.4391   43.7902 H   0  0  0  0  0  0  0  0  0  0  0  0
   58.9070   30.0450   43.2960 H   0  0  0  0  0  0  0  0  0  0  0  0
   56.9148   28.4534   42.9804 H   0  0  0  0  0  0  0  0  0  0  0  0
   58.6327   27.9994   42.5578 H   0  0  0  0  0  0  0  0  0  0  0  0
   56.9790   26.4061   44.0259 H   0  0  0  0  0  0  0  0  0  0  0  0
   58.7727   26.4264   44.1864 H   0  0  0  0  0  0  0  0  0  0  0  0
   58.1161   25.4965   46.3842 H   0  0  0  0  0  0  0  0  0  0  0  0
   57.5390   26.6552   47.6385 H   0  0  0  0  0  0  0  0  0  0  0  0
   57.6536   23.8093   46.8942 H   0  0  0  0  0  0  0  0  0  0  0  0
   56.3703   22.6028   47.2373 H   0  0  0  0  0  0  0  0  0  0  0  0
   58.3004   21.3041   45.4439 H   0  0  0  0  0  0  0  0  0  0  0  0
   58.0561   20.7331   42.9121 H   0  0  0  0  0  0  0  0  0  0  0  0
   56.2973   22.2613   41.6775 H   0  0  0  0  0  0  0  0  0  0  0  0
   58.7196   28.7369   47.0401 H   0  0  0  0  0  0  0  0  0  0  0  0
   59.7265   27.4102   46.3189 H   0  0  0  0  0  0  0  0  0  0  0  0
   59.8024   30.0586   45.5315 H   0  0  0  0  0  0  0  0  0  0  0  0
   60.2926   28.6274   44.5183 H   0  0  0  0  0  0  0  0  0  0  0  0
   58.1178   31.0498   47.0914 H   0  0  0  0  0  0  0  0  0  0  0  0
  1  2  1  0
  2  3  1  0
  3  4  2  0
  4  5  1  0
  5  6  2  0
  6  7  1  0
  7  8  1  0
  8  9  1  0
  9 10  1  0
 10 11  1  0
 11 12  1  0
 12 13  1  0
 13 14  1  0
 14 15  2  0
 14 16  1  0
 16 17  1  0
 17 18  1  0
 18 19  2  0
 19 20  1  0
 20 21  2  0
 21 22  1  0
 12 23  1  0
 23 24  1  0
  7 25  2  0
 25  3  1  0
 24  9  1  0
 22 18  1  0
  1 26  1  0
  1 27  1  0
  1 28  1  0
  4 29  1  0
  5 30  1  0
  6 31  1  0
  8 32  1  0
  8 33  1  0
  9 34  1  0
 10 35  1  0
 10 36  1  0
 11 37  1  0
 11 38  1  0
 13 39  1  0
 13 40  1  0
 17 41  1  0
 17 42  1  0
 19 43  1  0
 20 44  1  0
 21 45  1  0
 23 46  1  0
 23 47  1  0
 24 48  1  0
 24 49  1  0
 25 50  1  0
M  CHG  2   9   1  16  -1
M  END
>  <UniqueID>  (31) 
28

>  <SMILES>  (31) 
COc1cccc(C[NH+]2CCN(CC(=O)[N-]Cc3cccs3)CC2)c1

>  <Energy>  (31) 
83.253782492505

>  <Genealogy>  (31) 
COc1cccc(C[NH+]2CCN(CC(=O)[N-]Cc3cccs3)CC2)c1 (protonated)
COc1cccc(C[NH+]2CCN(CC(=O)[N-]Cc3cccs3)CC2)c1 (3D coordinates assigned)
COc1cccc(C[NH+]2CCN(CC(=O)[N-]Cc3cccs3)CC2)c1 (nonaromatic ring conformer: 83.253782492505 kcal/mol)

>  <smiles>  (31) 
COc1cccc(CN2CCN(CC(=O)NCc3cccs3)CC2)c1

>  <score_type>  (31) 
oracle

>  <origin>  (31) 
adg

>  <m_score__min__energy>  (31) 
-8.3399999999999999

>  <m_primary>  (31) 
energy

$$$$
31:0
     RDKit          3D

 45 47  0  0  0  0  0  0  0  0999 V2000
   57.5866   35.0236   45.8389 H   0  0  0  0  0  0  0  0  0  0  0  0
   57.8950   33.9730   45.7340 C   0  0  0  0  0  0  0  0  0  0  0  0
   59.1620   33.5730   46.1590 C   0  0  0  0  0  0  0  0  0  0  0  0
   59.8476   34.3066   46.6082 H   0  0  0  0  0  0  0  0  0  0  0  0
   59.5610   32.2430   46.0150 C   0  0  0  0  0  0  0  0  0  0  0  0
   60.5584   31.9312   46.3586 H   0  0  0  0  0  0  0  0  0  0  0  0
   58.6980   31.3020   45.4350 C   0  0  0  0  0  0  0  0  0  0  0  0
   59.1500   29.9030   45.2930 C   0  0  0  0  0  0  0  0  0  0  0  0
   59.8590   29.2020   46.2090 N   0  0  0  0  0  0  0  0  0  0  0  0
   60.1650   29.5780   47.5940 C   0  0  0  0  0  0  0  0  0  0  0  0
   60.6379   30.5711   47.5976 H   0  0  0  0  0  0  0  0  0  0  0  0
   60.8404   28.8183   48.0144 H   0  0  0  0  0  0  0  0  0  0  0  0
   58.9080   29.6260   48.4560 C   0  0  0  0  0  0  0  0  0  0  0  0
   59.1916   29.6152   49.5188 H   0  0  0  0  0  0  0  0  0  0  0  0
   58.3471   30.5462   48.2355 H   0  0  0  0  0  0  0  0  0  0  0  0
   58.2786   28.7512   48.2355 H   0  0  0  0  0  0  0  0  0  0  0  0
   59.9630   27.9770   45.6380 C   0  0  0  0  0  0  0  0  0  0  0  0
   60.7750   26.5550   46.3730 S   0  0  0  0  0  0  0  0  0  0  0  0
   59.6030   26.3740   47.7740 C   0  0  0  0  0  0  0  0  0  0  0  0
   60.0986   25.8188   48.5840 H   0  0  0  0  0  0  0  0  0  0  0  0
   59.3096   27.3802   48.1080 H   0  0  0  0  0  0  0  0  0  0  0  0
   58.3590   25.6340   47.3660 C   0  0  0  0  0  0  0  0  0  0  0  0
   57.8060   24.8720   48.2030 O   0  0  0  0  0  0  0  0  0  0  0  0
   57.6520   25.9420   46.1540 N   0  0  0  0  0  0  0  0  0  0  0  0
   56.4110   25.6730   45.8650 C   0  0  0  0  0  0  0  0  0  0  0  0
   55.4250   26.5770   46.0090 N   0  0  0  0  0  0  0  0  0  0  0  0
   54.3190   25.9770   45.6720 O   0  0  0  0  0  0  0  0  0  0  0  0
   54.5430   24.7300   45.3280 C   0  0  0  0  0  0  0  0  0  0  0  0
   53.4860   23.7720   44.8920 C   0  0  0  0  0  0  0  0  0  0  0  0
   53.0016   23.3329   45.7766 H   0  0  0  0  0  0  0  0  0  0  0  0
   52.7353   24.3038   44.2889 H   0  0  0  0  0  0  0  0  0  0  0  0
   53.9416   22.9728   44.2889 H   0  0  0  0  0  0  0  0  0  0  0  0
   55.8910   24.4650   45.4390 C   0  0  0  0  0  0  0  0  0  0  0  0
   56.4227   23.5233   45.2379 H   0  0  0  0  0  0  0  0  0  0  0  0
   59.3450   27.9260   44.4410 N   0  0  0  0  0  0  0  0  0  0  0  0
   58.8430   29.1310   44.2340 N   0  0  0  0  0  0  0  0  0  0  0  0
   58.2980   29.4090   43.3890 H   0  0  0  0  0  0  0  0  0  0  0  0
   57.4040   31.6930   45.0310 C   0  0  0  0  0  0  0  0  0  0  0  0
   56.5300   30.7240   44.5150 O   0  0  0  0  0  0  0  0  0  0  0  0
   56.3160   30.4810   43.1290 C   0  0  0  0  0  0  0  0  0  0  0  0
   55.5934   29.6605   43.0079 H   0  0  0  0  0  0  0  0  0  0  0  0
   55.9206   31.3909   42.6540 H   0  0  0  0  0  0  0  0  0  0  0  0
   57.2686   30.2038   42.6540 H   0  0  0  0  0  0  0  0  0  0  0  0
   57.0170   33.0400   45.1750 C   0  0  0  0  0  0  0  0  0  0  0  0
   56.0174   33.3596   44.8454 H   0  0  0  0  0  0  0  0  0  0  0  0
  1  2  1  0
  2  3  2  0
  3  4  1  0
  3  5  1  0
  5  6  1  0
  5  7  2  0
  7  8  1  0
  8  9  1  0
  9 10  1  0
 10 11  1  0
 10 12  1  0
 10 13  1  0
 13 14  1  0
 13 15  1  0
 13 16  1  0
  9 17  1  0
 17 18  1  0
 18 19  1  0
 19 20  1  0
 19 21  1  0
 19 22  1  0
 22 23  2  0
 22 24  1  0
 24 25  2  0
 25 26  1  0
 26 27  1  0
 27 28  1  0
 28 29  1  0
 29 30  1  0
 29 31  1  0
 29 32  1  0
 28 33  2  0
 33 34  1  0
 17 35  2  0
 35 36  1  0
 36 37  1  0
  7 38  1  0
 38 39  1  0
 39 40  1  0
 40 41  1  0
 40 42  1  0
 40 43  1  0
 38 44  2  0
 44 45  1  0
 44  2  1  0
 36  8  2  0
 33 25  1  0
M  CHG  2  26  -1  36   1
M  END
>  <UniqueID>  (32) 
29

>  <SMILES>  (32) 
CCn1c(SCC(=O)/N=c2\cc(C)o[n-]2)n[nH+]c1-c1ccccc1OC

>  <Energy>  (32) 
116.89573253885077

>  <Genealogy>  (32) 
CCn1c(SCC(=O)N=c2cc(C)o[n-]2)n[nH+]c1-c1ccccc1OC (protonated)
CCn1c(SCC(=O)/N=c2\cc(C)o[n-]2)n[nH+]c1-c1ccccc1OC (cis-trans isomerization)
CCn1c(SCC(=O)/N=c2\cc(C)o[n-]2)n[nH+]c1-c1ccccc1OC (3D coordinates assigned)
CCn1c(SCC(=O)/N=c2\cc(C)o[n-]2)n[nH+]c1-c1ccccc1OC (optimized conformer: 116.89573253885077 kcal/mol)

>  <smiles>  (32) 
CCn1c(SCC(=O)N=c2cc(C)o[nH]2)nnc1-c1ccccc1OC

>  <score_type>  (32) 
oracle

>  <origin>  (32) 
adg

>  <m_score__min__energy>  (32) 
-9.1600000000000001

>  <m_primary>  (32) 
energy

$$$$
32:0
     RDKit          3D

 49 52  0  0  1  0  0  0  0  0999 V2000
   55.5530   25.8000   45.6550 C   0  0  0  0  0  0  0  0  0  0  0  0
   56.0270   27.0940   45.9140 O   0  0  0  0  0  0  0  0  0  0  0  0
   57.2480   27.2320   46.5520 C   0  0  0  0  0  0  0  0  0  0  0  0
   57.7660   26.1190   47.1860 C   0  0  0  0  0  0  0  0  0  0  0  0
   58.9650   26.2530   47.8140 C   0  0  0  0  0  0  0  0  0  0  0  0
   59.6540   27.4680   47.8210 C   0  0  0  0  0  0  0  0  0  0  0  0
   60.8550   27.4960   48.4830 O   0  0  0  0  0  0  0  0  0  0  0  0
   60.9360   27.8300   49.8420 C   0  0  0  0  0  0  0  0  0  0  0  0
   59.1630   28.5860   47.2020 C   0  0  0  0  0  0  0  0  0  0  0  0
   59.7990   29.8890   47.1520 C   0  0  0  0  0  0  0  0  0  0  0  0
   59.0280   30.9430   46.8560 N   0  0  0  0  0  0  0  0  0  0  0  0
   59.4840   32.2010   46.7770 C   0  0  0  0  0  0  0  0  0  0  0  0
   58.6880   33.0960   46.4600 N   0  0  0  0  0  0  0  0  0  0  0  0
   57.5690   33.0750   45.6670 C   0  0  0  0  0  0  0  0  0  0  0  0
   57.7360   32.7710   44.1980 C   0  0  0  0  0  0  0  0  0  0  0  0
   57.0380   31.4910   43.9200 C   0  0  0  0  0  0  0  0  0  0  0  0
   56.9710   30.8380   42.6860 C   0  0  0  0  0  0  0  0  0  0  0  0
   56.2260   29.6940   42.8940 C   0  0  0  0  0  0  0  0  0  0  0  0
   55.8680   29.6870   44.2320 C   0  0  0  0  0  0  0  0  0  0  0  0
   56.3680   30.7560   44.7730 O   0  0  0  0  0  0  0  0  0  0  0  0
   60.8050   32.4790   47.0060 C   0  0  0  0  0  0  0  0  0  0  0  0
   61.2780   33.7500   46.9400 C   0  0  0  0  0  0  0  0  0  0  0  0
   62.6550   33.9400   47.1930 C   0  0  0  0  0  0  0  0  0  0  0  0
   63.4050   32.8460   47.4850 C   0  0  0  0  0  0  0  0  0  0  0  0
   62.9340   31.5550   47.5580 C   0  0  0  0  0  0  0  0  0  0  0  0
   61.5960   31.3790   47.3100 C   0  0  0  0  0  0  0  0  0  0  0  0
   61.0930   30.1310   47.3770 N   0  0  0  0  0  0  0  0  0  0  0  0
   57.9280   28.4290   46.5610 C   0  0  0  0  0  0  0  0  0  0  0  0
   55.3632   25.2818   46.6065 H   0  0  0  0  0  0  0  0  0  0  0  0
   54.6187   25.8605   45.0776 H   0  0  0  0  0  0  0  0  0  0  0  0
   56.3053   25.2426   45.0776 H   0  0  0  0  0  0  0  0  0  0  0  0
   57.2282   25.1594   47.1830 H   0  0  0  0  0  0  0  0  0  0  0  0
   59.4022   25.3844   48.3283 H   0  0  0  0  0  0  0  0  0  0  0  0
   60.7202   26.9402   50.4517 H   0  0  0  0  0  0  0  0  0  0  0  0
   61.9485   28.1942   50.0703 H   0  0  0  0  0  0  0  0  0  0  0  0
   60.2028   28.6176   50.0703 H   0  0  0  0  0  0  0  0  0  0  0  0
   56.8909   32.3145   46.0815 H   0  0  0  0  0  0  0  0  0  0  0  0
   57.2027   34.1120   45.6886 H   0  0  0  0  0  0  0  0  0  0  0  0
   57.2930   33.5778   43.5957 H   0  0  0  0  0  0  0  0  0  0  0  0
   58.8023   32.6924   43.9396 H   0  0  0  0  0  0  0  0  0  0  0  0
   57.4216   31.1691   41.7387 H   0  0  0  0  0  0  0  0  0  0  0  0
   55.9668   28.9344   42.1418 H   0  0  0  0  0  0  0  0  0  0  0  0
   55.2702   28.9174   44.7422 H   0  0  0  0  0  0  0  0  0  0  0  0
   60.6172   34.5959   46.6997 H   0  0  0  0  0  0  0  0  0  0  0  0
   63.1056   34.9427   47.1547 H   0  0  0  0  0  0  0  0  0  0  0  0
   64.4761   33.0048   47.6789 H   0  0  0  0  0  0  0  0  0  0  0  0
   63.5945   30.7099   47.8020 H   0  0  0  0  0  0  0  0  0  0  0  0
   61.7480   29.3730   47.6090 H   0  0  0  0  0  0  0  0  0  0  0  0
   57.4849   29.2939   46.0457 H   0  0  0  0  0  0  0  0  0  0  0  0
  1  2  1  0
  2  3  1  0
  3  4  2  0
  4  5  1  0
  5  6  2  0
  6  7  1  0
  7  8  1  0
  6  9  1  0
  9 10  1  0
 10 11  2  0
 11 12  1  0
 12 13  2  0
 13 14  1  0
 14 15  1  0
 15 16  1  0
 16 17  2  0
 17 18  1  0
 18 19  2  0
 19 20  1  0
 12 21  1  0
 21 22  2  0
 22 23  1  0
 23 24  2  0
 24 25  1  0
 25 26  2  0
 26 27  1  0
  9 28  2  0
 28  3  1  0
 27 10  1  0
 20 16  1  0
 26 21  1  0
  1 29  1  0
  1 30  1  0
  1 31  1  0
  4 32  1  0
  5 33  1  0
  8 34  1  0
  8 35  1  0
  8 36  1  0
 14 37  1  0
 14 38  1  0
 15 39  1  0
 15 40  1  0
 17 41  1  0
 18 42  1  0
 19 43  1  0
 22 44  1  0
 23 45  1  0
 24 46  1  0
 25 47  1  0
 27 48  1  0
 28 49  1  0
M  END
>  <smiles>  (33) 
COc1ccc(OC)c(-c2nc(=NCCc3ccco3)c3ccccc3[nH]2)c1

>  <score_type>  (33) 
oracle

>  <origin>  (33) 
adg

>  <m_score__min__energy>  (33) 
-8.0899999999999999

>  <m_primary>  (33) 
energy

$$$$
33:0
     RDKit          3D

 47 49  0  0  0  0  0  0  0  0999 V2000
   63.2710   32.9980   47.1330 C   0  0  0  0  0  0  0  0  0  0  0  0
   62.8920   32.0110   48.0880 O   0  0  0  0  0  0  0  0  0  0  0  0
   61.7440   31.2120   47.9870 C   0  0  0  0  0  0  0  0  0  0  0  0
   60.8350   31.0560   49.0500 C   0  0  0  0  0  0  0  0  0  0  0  0
   59.7050   30.2460   48.8970 C   0  0  0  0  0  0  0  0  0  0  0  0
   59.4660   29.5790   47.6910 C   0  0  0  0  0  0  0  0  0  0  0  0
   58.3210   28.7740   47.5880 O   0  0  0  0  0  0  0  0  0  0  0  0
   58.1780   27.7390   46.6600 C   0  0  0  0  0  0  0  0  0  0  0  0
   58.2870   26.4510   47.0850 N   0  0  0  0  0  0  0  0  0  0  0  0
   58.1550   25.4000   46.2350 C   0  0  0  0  0  0  0  0  0  0  0  0
   57.8960   25.6230   44.8830 C   0  0  0  0  0  0  0  0  0  0  0  0
   57.7880   26.9320   44.4140 C   0  0  0  0  0  0  0  0  0  0  0  0
   57.9490   28.0140   45.2970 C   0  0  0  0  0  0  0  0  0  0  0  0
   57.8420   29.3730   44.8350 N   0  0  0  0  0  0  0  0  0  0  0  0
   56.6090   30.1030   44.7740 C   0  0  0  0  0  0  0  0  0  0  0  0
   55.5080   29.5110   44.9380 O   0  0  0  0  0  0  0  0  0  0  0  0
   56.6430   31.5070   44.4900 N   0  0  0  0  0  0  0  0  0  0  0  0
   57.0300   32.5670   45.4240 C   0  0  0  0  0  0  0  0  0  0  0  0
   57.3950   33.8820   44.6820 C   0  0  0  0  0  0  0  0  0  0  0  0
   58.8580   34.3010   44.8870 C   0  0  0  0  0  0  0  0  0  0  0  0
   59.2220   34.3940   46.3780 C   0  0  0  0  0  0  0  0  0  0  0  0
   58.6620   33.2350   47.2320 C   0  0  0  0  0  0  0  0  0  0  0  0
   58.1300   32.0740   46.3860 C   0  0  0  0  0  0  0  0  0  0  0  0
   60.3720   29.7380   46.6260 C   0  0  0  0  0  0  0  0  0  0  0  0
   61.5010   30.5470   46.7780 C   0  0  0  0  0  0  0  0  0  0  0  0
   63.6177   33.9010   47.6568 H   0  0  0  0  0  0  0  0  0  0  0  0
   64.0824   32.6056   46.5024 H   0  0  0  0  0  0  0  0  0  0  0  0
   62.4055   33.2495   46.5024 H   0  0  0  0  0  0  0  0  0  0  0  0
   61.0138   31.5728   50.0044 H   0  0  0  0  0  0  0  0  0  0  0  0
   58.9982   30.1326   49.7322 H   0  0  0  0  0  0  0  0  0  0  0  0
   58.2525   24.3717   46.6134 H   0  0  0  0  0  0  0  0  0  0  0  0
   57.7780   24.7745   44.1930 H   0  0  0  0  0  0  0  0  0  0  0  0
   57.5764   27.1182   43.3507 H   0  0  0  0  0  0  0  0  0  0  0  0
   58.6930   29.8470   44.4570 H   0  0  0  0  0  0  0  0  0  0  0  0
   56.1601   32.8172   46.0491 H   0  0  0  0  0  0  0  0  0  0  0  0
   57.2194   33.7374   43.6058 H   0  0  0  0  0  0  0  0  0  0  0  0
   56.7629   34.6805   45.0978 H   0  0  0  0  0  0  0  0  0  0  0  0
   59.5117   33.5581   44.4066 H   0  0  0  0  0  0  0  0  0  0  0  0
   58.9945   35.2964   44.4391 H   0  0  0  0  0  0  0  0  0  0  0  0
   60.3183   34.3921   46.4677 H   0  0  0  0  0  0  0  0  0  0  0  0
   58.7688   35.3205   46.7603 H   0  0  0  0  0  0  0  0  0  0  0  0
   59.4658   32.8570   47.8808 H   0  0  0  0  0  0  0  0  0  0  0  0
   57.8181   33.6324   47.8149 H   0  0  0  0  0  0  0  0  0  0  0  0
   58.9563   31.6438   45.8011 H   0  0  0  0  0  0  0  0  0  0  0  0
   57.7027   31.3126   47.0551 H   0  0  0  0  0  0  0  0  0  0  0  0
   60.1908   29.2237   45.6707 H   0  0  0  0  0  0  0  0  0  0  0  0
   62.2053   30.6628   45.9410 H   0  0  0  0  0  0  0  0  0  0  0  0
  1  2  1  0
  2  3  1  0
  3  4  2  0
  4  5  1  0
  5  6  2  0
  6  7  1  0
  7  8  1  0
  8  9  2  0
  9 10  1  0
 10 11  2  0
 11 12  1  0
 12 13  2  0
 13 14  1  0
 14 15  1  0
 15 16  2  0
 15 17  1  0
 17 18  1  0
 18 19  1  0
 19 20  1  0
 20 21  1  0
 21 22  1  0
 22 23  1  0
  6 24  1  0
 24 25  2  0
 25  3  1  0
 13  8  1  0
 23 18  1  0
  1 26  1  0
  1 27  1  0
  1 28  1  0
  4 29  1  0
  5 30  1  0
 10 31  1  0
 11 32  1  0
 12 33  1  0
 14 34  1  0
 18 35  1  0
 19 36  1  0
 19 37  1  0
 20 38  1  0
 20 39  1  0
 21 40  1  0
 21 41  1  0
 22 42  1  0
 22 43  1  0
 23 44  1  0
 23 45  1  0
 24 46  1  0
 25 47  1  0
M  CHG  1  17  -1
M  END
>  <UniqueID>  (34) 
30

>  <SMILES>  (34) 
COc1ccc(Oc2ncccc2NC(=O)[N-]C2CCCCC2)cc1

>  <Energy>  (34) 
62.67443524503424

>  <Genealogy>  (34) 
COc1ccc(Oc2ncccc2NC(=O)[N-]C2CCCCC2)cc1 (protonated)
COc1ccc(Oc2ncccc2NC(=O)[N-]C2CCCCC2)cc1 (3D coordinates assigned)
COc1ccc(Oc2ncccc2NC(=O)[N-]C2CCCCC2)cc1 (nonaromatic ring conformer: 62.67443524503424 kcal/mol)

>  <smiles>  (34) 
COc1ccc(Oc2ncccc2NC(=O)NC2CCCCC2)cc1

>  <score_type>  (34) 
oracle

>  <origin>  (34) 
adg

>  <m_score__min__energy>  (34) 
-9.2699999999999996

>  <m_primary>  (34) 
energy

$$$$
34:0
     RDKit          3D

 50 54  0  0  0  0  0  0  0  0999 V2000
   60.5350   26.7390   48.8070 C   0  0  0  0  0  0  0  0  0  0  0  0
   59.6320   26.7530   47.6180 C   0  0  0  0  0  0  0  0  0  0  0  0
   58.8530   25.7060   47.2220 N   0  0  0  0  0  0  0  0  0  0  0  0
   58.1290   26.0970   46.1710 N   0  0  0  0  0  0  0  0  0  0  0  0
   57.1540   25.2770   45.5090 C   0  0  0  0  0  0  0  0  0  0  0  0
   57.4920   24.6030   44.3240 C   0  0  0  0  0  0  0  0  0  0  0  0
   56.5440   23.8130   43.6660 C   0  0  0  0  0  0  0  0  0  0  0  0
   55.2480   23.7030   44.1780 C   0  0  0  0  0  0  0  0  0  0  0  0
   54.8970   24.3870   45.3450 C   0  0  0  0  0  0  0  0  0  0  0  0
   55.8430   25.1760   46.0060 C   0  0  0  0  0  0  0  0  0  0  0  0
   58.4610   27.3750   45.9220 C   0  0  0  0  0  0  0  0  0  0  0  0
   58.0010   28.4340   45.1820 C   0  0  0  0  0  0  0  0  0  0  0  0
   57.0020   28.3920   44.2120 O   0  0  0  0  0  0  0  0  0  0  0  0
   58.6880   29.5470   45.5720 N   0  0  0  0  0  0  0  0  0  0  0  0
   58.5370   30.8730   45.0390 C   0  0  0  0  0  0  0  0  0  0  0  0
   57.9360   31.0710   43.7880 C   0  0  0  0  0  0  0  0  0  0  0  0
   57.7410   32.3630   43.2990 C   0  0  0  0  0  0  0  0  0  0  0  0
   58.1440   33.4680   44.0520 C   0  0  0  0  0  0  0  0  0  0  0  0
   58.7670   33.2900   45.3000 C   0  0  0  0  0  0  0  0  0  0  0  0
   59.1450   34.4790   46.1460 C   0  0  0  0  0  0  0  0  0  0  0  0
   59.2750   35.6160   45.3670 F   0  0  0  0  0  0  0  0  0  0  0  0
   60.3530   34.2540   46.7860 F   0  0  0  0  0  0  0  0  0  0  0  0
   58.1650   34.6920   47.0960 F   0  0  0  0  0  0  0  0  0  0  0  0
   58.9400   31.9860   45.7950 C   0  0  0  0  0  0  0  0  0  0  0  0
   59.5460   29.1640   46.5720 C   0  0  0  0  0  0  0  0  0  0  0  0
   60.4020   30.0620   47.3730 C   0  0  0  0  0  0  0  0  0  0  0  0
   60.0750   30.3640   48.7050 C   0  0  0  0  0  0  0  0  0  0  0  0
   60.8860   31.2230   49.4530 C   0  0  0  0  0  0  0  0  0  0  0  0
   62.0320   31.7820   48.8790 C   0  0  0  0  0  0  0  0  0  0  0  0
   63.0480   32.8600   49.8180 Cl  0  0  0  0  0  0  0  0  0  0  0  0
   62.3670   31.4800   47.5550 C   0  0  0  0  0  0  0  0  0  0  0  0
   61.5570   30.6220   46.8050 C   0  0  0  0  0  0  0  0  0  0  0  0
   59.3720   27.8110   46.7770 C   0  0  0  0  0  0  0  0  0  0  0  0
   59.9310   26.7484   49.7263 H   0  0  0  0  0  0  0  0  0  0  0  0
   61.1557   25.8311   48.7853 H   0  0  0  0  0  0  0  0  0  0  0  0
   61.1836   27.6272   48.7853 H   0  0  0  0  0  0  0  0  0  0  0  0
   58.5074   24.6970   43.9115 H   0  0  0  0  0  0  0  0  0  0  0  0
   56.8184   23.2778   42.7450 H   0  0  0  0  0  0  0  0  0  0  0  0
   54.5042   23.0779   43.6622 H   0  0  0  0  0  0  0  0  0  0  0  0
   53.8752   24.3045   45.7439 H   0  0  0  0  0  0  0  0  0  0  0  0
   55.5602   25.7202   46.9191 H   0  0  0  0  0  0  0  0  0  0  0  0
   56.7590   27.5360   43.7320 H   0  0  0  0  0  0  0  0  0  0  0  0
   57.6171   30.2047   43.1899 H   0  0  0  0  0  0  0  0  0  0  0  0
   57.2682   32.5118   42.3170 H   0  0  0  0  0  0  0  0  0  0  0  0
   57.9730   34.4839   43.6664 H   0  0  0  0  0  0  0  0  0  0  0  0
   59.3958   31.8355   46.7848 H   0  0  0  0  0  0  0  0  0  0  0  0
   59.1769   29.9228   49.1619 H   0  0  0  0  0  0  0  0  0  0  0  0
   60.6221   31.4593   50.4944 H   0  0  0  0  0  0  0  0  0  0  0  0
   63.2691   31.9182   47.1031 H   0  0  0  0  0  0  0  0  0  0  0  0
   61.8261   30.3847   45.7651 H   0  0  0  0  0  0  0  0  0  0  0  0
  1  2  1  0
  2  3  2  0
  3  4  1  0
  4  5  1  0
  5  6  2  0
  6  7  1  0
  7  8  2  0
  8  9  1  0
  9 10  2  0
  4 11  1  0
 11 12  2  0
 12 13  1  0
 12 14  1  0
 14 15  1  0
 15 16  2  0
 16 17  1  0
 17 18  2  0
 18 19  1  0
 19 20  1  0
 20 21  1  0
 20 22  1  0
 20 23  1  0
 19 24  2  0
 14 25  1  0
 25 26  1  0
 26 27  2  0
 27 28  1  0
 28 29  2  0
 29 30  1  0
 29 31  1  0
 31 32  2  0
 25 33  2  0
 33  2  1  0
 10  5  1  0
 33 11  1  0
 24 15  1  0
 32 26  1  0
  1 34  1  0
  1 35  1  0
  1 36  1  0
  6 37  1  0
  7 38  1  0
  8 39  1  0
  9 40  1  0
 10 41  1  0
 13 42  1  0
 16 43  1  0
 17 44  1  0
 18 45  1  0
 24 46  1  0
 27 47  1  0
 28 48  1  0
 31 49  1  0
 32 50  1  0
M  END
>  <UniqueID>  (35) 
31

>  <SMILES>  (35) 
Cc1nn(-c2ccccc2)c2c(O)n(-c3cccc(C(F)(F)F)c3)c(-c3ccc(Cl)cc3)c12

>  <Energy>  (35) 
162.64245652016754

>  <Genealogy>  (35) 
Cc1nn(-c2ccccc2)c2c(O)n(-c3cccc(C(F)(F)F)c3)c(-c3ccc(Cl)cc3)c12 (3D coordinates assigned)
Cc1nn(-c2ccccc2)c2c(O)n(-c3cccc(C(F)(F)F)c3)c(-c3ccc(Cl)cc3)c12 (optimized conformer: 162.64245652016754 kcal/mol)

>  <smiles>  (35) 
Cc1nn(-c2ccccc2)c2c(O)n(-c3cccc(C(F)(F)F)c3)c(-c3ccc(Cl)cc3)c12

>  <score_type>  (35) 
oracle

>  <origin>  (35) 
adg

>  <m_score__min__energy>  (35) 
-8.5999999999999996

>  <m_primary>  (35) 
energy

$$$$
35:0
     RDKit          3D

 48 50  0  0  0  0  0  0  0  0999 V2000
   55.4480   29.7530   44.0520 C   0  0  0  0  0  0  0  0  0  0  0  0
   56.4580   30.8410   43.7010 C   0  0  0  0  0  0  0  0  0  0  0  0
   57.2080   31.2690   44.9020 N   0  0  0  0  0  0  0  0  0  0  0  0
   57.0200   32.7060   45.2130 C   0  0  0  0  0  0  0  0  0  0  0  0
   58.2320   33.5790   44.8560 C   0  0  0  0  0  0  0  0  0  0  0  0
   58.6340   30.8620   44.8880 C   0  0  0  0  0  0  0  0  0  0  0  0
   58.7930   29.5450   44.1250 C   0  0  0  0  0  0  0  0  0  0  0  0
   58.3800   28.4140   44.9580 N   0  0  0  0  0  0  0  0  0  0  0  0
   57.4320   27.5510   44.6140 N   0  0  0  0  0  0  0  0  0  0  0  0
   57.3610   26.5680   45.5420 C   0  0  0  0  0  0  0  0  0  0  0  0
   56.4410   25.4190   45.4520 C   0  0  0  0  0  0  0  0  0  0  0  0
   55.3160   25.5020   46.0170 O   0  0  0  0  0  0  0  0  0  0  0  0
   56.8030   24.1680   44.7490 C   0  0  0  0  0  0  0  0  0  0  0  0
   57.9080   23.3990   45.1630 C   0  0  0  0  0  0  0  0  0  0  0  0
   58.2320   22.2120   44.5000 C   0  0  0  0  0  0  0  0  0  0  0  0
   57.4530   21.7740   43.4270 C   0  0  0  0  0  0  0  0  0  0  0  0
   56.3440   22.5180   43.0180 C   0  0  0  0  0  0  0  0  0  0  0  0
   56.0160   23.7070   43.6780 C   0  0  0  0  0  0  0  0  0  0  0  0
   58.3370   26.8140   46.4970 C   0  0  0  0  0  0  0  0  0  0  0  0
   58.7830   26.0870   47.6030 C   0  0  0  0  0  0  0  0  0  0  0  0
   59.8660   26.6080   48.3340 C   0  0  0  0  0  0  0  0  0  0  0  0
   60.4850   27.8140   47.9390 C   0  0  0  0  0  0  0  0  0  0  0  0
   60.0330   28.5100   46.8040 C   0  0  0  0  0  0  0  0  0  0  0  0
   58.9490   27.9770   46.1010 C   0  0  0  0  0  0  0  0  0  0  0  0
   55.3676   29.6664   45.1456 H   0  0  0  0  0  0  0  0  0  0  0  0
   54.4658   30.0151   43.6317 H   0  0  0  0  0  0  0  0  0  0  0  0
   55.7823   28.7930   43.6317 H   0  0  0  0  0  0  0  0  0  0  0  0
   57.1651   30.4495   42.9548 H   0  0  0  0  0  0  0  0  0  0  0  0
   55.9156   31.7083   43.2965 H   0  0  0  0  0  0  0  0  0  0  0  0
   56.1499   33.0724   44.6486 H   0  0  0  0  0  0  0  0  0  0  0  0
   56.8777   32.7833   46.3010 H   0  0  0  0  0  0  0  0  0  0  0  0
   58.7170   33.9283   45.7794 H   0  0  0  0  0  0  0  0  0  0  0  0
   58.9485   32.9882   44.2664 H   0  0  0  0  0  0  0  0  0  0  0  0
   57.8986   34.4458   44.2664 H   0  0  0  0  0  0  0  0  0  0  0  0
   59.2313   31.6433   44.3952 H   0  0  0  0  0  0  0  0  0  0  0  0
   58.9814   30.7250   45.9227 H   0  0  0  0  0  0  0  0  0  0  0  0
   58.1690   29.5741   43.2196 H   0  0  0  0  0  0  0  0  0  0  0  0
   59.8514   29.4178   43.8536 H   0  0  0  0  0  0  0  0  0  0  0  0
   56.8500   27.6230   43.7480 H   0  0  0  0  0  0  0  0  0  0  0  0
   58.5198   23.7347   46.0133 H   0  0  0  0  0  0  0  0  0  0  0  0
   59.1020   21.6219   44.8239 H   0  0  0  0  0  0  0  0  0  0  0  0
   57.7130   20.8422   42.9034 H   0  0  0  0  0  0  0  0  0  0  0  0
   55.7280   22.1687   42.1762 H   0  0  0  0  0  0  0  0  0  0  0  0
   55.1369   24.2853   43.3574 H   0  0  0  0  0  0  0  0  0  0  0  0
   58.3040   25.1400   47.8924 H   0  0  0  0  0  0  0  0  0  0  0  0
   60.2338   26.0713   49.2209 H   0  0  0  0  0  0  0  0  0  0  0  0
   61.3274   28.2121   48.5237 H   0  0  0  0  0  0  0  0  0  0  0  0
   60.5166   29.4433   46.4800 H   0  0  0  0  0  0  0  0  0  0  0  0
  1  2  1  0
  2  3  1  0
  3  4  1  0
  4  5  1  0
  3  6  1  0
  6  7  1  0
  7  8  1  0
  8  9  1  0
  9 10  2  0
 10 11  1  0
 11 12  2  0
 11 13  1  0
 13 14  2  0
 14 15  1  0
 15 16  2  0
 16 17  1  0
 17 18  2  0
 10 19  1  0
 19 20  2  0
 20 21  1  0
 21 22  2  0
 22 23  1  0
 23 24  2  0
 24  8  1  0
 18 13  1  0
 24 19  1  0
  1 25  1  0
  1 26  1  0
  1 27  1  0
  2 28  1  0
  2 29  1  0
  4 30  1  0
  4 31  1  0
  5 32  1  0
  5 33  1  0
  5 34  1  0
  6 35  1  0
  6 36  1  0
  7 37  1  0
  7 38  1  0
  9 39  1  0
 14 40  1  0
 15 41  1  0
 16 42  1  0
 17 43  1  0
 18 44  1  0
 20 45  1  0
 21 46  1  0
 22 47  1  0
 23 48  1  0
M  CHG  1   9   1
M  END
>  <UniqueID>  (36) 
32

>  <SMILES>  (36) 
CCN(CC)CCn1[nH+]c(C(=O)c2ccccc2)c2ccccc21

>  <Energy>  (36) 
91.89258970436123

>  <Genealogy>  (36) 
CCN(CC)CCn1[nH+]c(C(=O)c2ccccc2)c2ccccc21 (protonated)
CCN(CC)CCn1[nH+]c(C(=O)c2ccccc2)c2ccccc21 (3D coordinates assigned)
CCN(CC)CCn1[nH+]c(C(=O)c2ccccc2)c2ccccc21 (optimized conformer: 91.89258970436123 kcal/mol)

>  <smiles>  (36) 
CCN(CC)CCn1nc(C(=O)c2ccccc2)c2ccccc21

>  <score_type>  (36) 
oracle

>  <origin>  (36) 
adg

>  <m_score__min__energy>  (36) 
-6.6600000000000001

>  <m_primary>  (36) 
energy

$$$$
36:0
     RDKit          3D

 38 40  0  0  0  0  0  0  0  0999 V2000
   59.0372   35.1053   44.2909 H   0  0  0  0  0  0  0  0  0  0  0  0
   58.9040   34.6060   45.2620 C   0  0  0  0  0  0  0  0  0  0  0  0
   57.9070   33.5110   45.3360 C   0  0  0  0  0  0  0  0  0  0  0  0
   56.6740   33.7750   45.3760 O   0  0  0  0  0  0  0  0  0  0  0  0
   58.3370   32.0950   45.3060 C   0  0  0  0  0  0  0  0  0  0  0  0
   58.7680   31.4690   46.4860 C   0  0  0  0  0  0  0  0  0  0  0  0
   58.7715   32.0290   47.4328 H   0  0  0  0  0  0  0  0  0  0  0  0
   59.1930   30.1370   46.4640 C   0  0  0  0  0  0  0  0  0  0  0  0
   59.6290   29.4980   47.6350 C   0  0  0  0  0  0  0  0  0  0  0  0
   59.6396   30.0455   48.5890 H   0  0  0  0  0  0  0  0  0  0  0  0
   60.0500   28.1650   47.5890 C   0  0  0  0  0  0  0  0  0  0  0  0
   60.3916   27.6659   48.5078 H   0  0  0  0  0  0  0  0  0  0  0  0
   60.0380   27.4650   46.3790 C   0  0  0  0  0  0  0  0  0  0  0  0
   60.4460   26.1730   46.3410 F   0  0  0  0  0  0  0  0  0  0  0  0
   59.6050   28.0950   45.2070 C   0  0  0  0  0  0  0  0  0  0  0  0
   59.5961   27.5405   44.2570 H   0  0  0  0  0  0  0  0  0  0  0  0
   59.1820   29.4330   45.2410 C   0  0  0  0  0  0  0  0  0  0  0  0
   58.7600   30.0560   44.1030 N   0  0  0  0  0  0  0  0  0  0  0  0
   58.7480   29.5290   43.2010 H   0  0  0  0  0  0  0  0  0  0  0  0
   58.3440   31.3540   44.1050 C   0  0  0  0  0  0  0  0  0  0  0  0
   57.7700   32.0510   42.5920 Cl  0  0  0  0  0  0  0  0  0  0  0  0
   59.6570   35.0360   46.2870 C   0  0  0  0  0  0  0  0  0  0  0  0
   59.5068   36.0722   46.6243 H   0  0  0  0  0  0  0  0  0  0  0  0
   60.6710   34.2310   46.9990 C   0  0  0  0  0  0  0  0  0  0  0  0
   61.8640   33.8380   46.3690 C   0  0  0  0  0  0  0  0  0  0  0  0
   62.0392   34.1004   45.3152 H   0  0  0  0  0  0  0  0  0  0  0  0
   62.8290   33.1150   47.0760 C   0  0  0  0  0  0  0  0  0  0  0  0
   63.7518   32.7970   46.5687 H   0  0  0  0  0  0  0  0  0  0  0  0
   62.6320   32.7920   48.4230 C   0  0  0  0  0  0  0  0  0  0  0  0
   63.6280   32.0630   49.0870 O   0  0  0  0  0  0  0  0  0  0  0  0
   64.7690   32.6450   49.7110 C   0  0  0  0  0  0  0  0  0  0  0  0
   64.6580   32.5884   50.8039 H   0  0  0  0  0  0  0  0  0  0  0  0
   65.6730   32.0979   49.4054 H   0  0  0  0  0  0  0  0  0  0  0  0
   64.8568   33.6980   49.4054 H   0  0  0  0  0  0  0  0  0  0  0  0
   61.4500   33.2130   49.0640 C   0  0  0  0  0  0  0  0  0  0  0  0
   61.2861   32.9714   50.1246 H   0  0  0  0  0  0  0  0  0  0  0  0
   60.4840   33.9370   48.3570 C   0  0  0  0  0  0  0  0  0  0  0  0
   59.5723   34.2776   48.8696 H   0  0  0  0  0  0  0  0  0  0  0  0
  1  2  1  0
  2  3  1  0
  3  4  2  0
  3  5  1  0
  5  6  2  0
  6  7  1  0
  6  8  1  0
  8  9  2  0
  9 10  1  0
  9 11  1  0
 11 12  1  0
 11 13  2  0
 13 14  1  0
 13 15  1  0
 15 16  1  0
 15 17  2  0
 17 18  1  0
 18 19  1  0
 18 20  2  0
 20 21  1  0
  2 22  2  0
 22 23  1  0
 22 24  1  0
 24 25  2  0
 25 26  1  0
 25 27  1  0
 27 28  1  0
 27 29  2  0
 29 30  1  0
 30 31  1  0
 31 32  1  0
 31 33  1  0
 31 34  1  0
 29 35  1  0
 35 36  1  0
 35 37  2  0
 37 38  1  0
 20  5  1  0
 37 24  1  0
 17  8  1  0
M  CHG  1  18   1
M  END
>  <UniqueID>  (37) 
33

>  <SMILES>  (37) 
COc1ccc(/C=C\C(=O)c2cc3ccc(F)cc3[nH+]c2Cl)cc1

>  <Energy>  (37) 
56.85991858739972

>  <Genealogy>  (37) 
COc1ccc(C=CC(=O)c2cc3ccc(F)cc3[nH+]c2Cl)cc1 (protonated)
COc1ccc(/C=C\C(=O)c2cc3ccc(F)cc3[nH+]c2Cl)cc1 (cis-trans isomerization)
COc1ccc(/C=C\C(=O)c2cc3ccc(F)cc3[nH+]c2Cl)cc1 (3D coordinates assigned)
COc1ccc(/C=C\C(=O)c2cc3ccc(F)cc3[nH+]c2Cl)cc1 (optimized conformer: 56.85991858739972 kcal/mol)

>  <smiles>  (37) 
COc1ccc(C=CC(=O)c2cc3ccc(F)cc3nc2Cl)cc1

>  <score_type>  (37) 
oracle

>  <origin>  (37) 
adg

>  <m_score__min__energy>  (37) 
-7.0999999999999996

>  <m_primary>  (37) 
energy

$$$$
37:0
     RDKit          3D

 37 39  0  0  0  0  0  0  0  0999 V2000
   55.8320   27.0910   45.6960 O   0  0  0  0  0  0  0  0  0  0  0  0
   56.6500   27.9460   45.2690 C   0  0  0  0  0  0  0  0  0  0  0  0
   56.2460   29.3240   45.2410 N   0  0  0  0  0  0  0  0  0  0  0  0
   56.7690   30.3450   44.3800 C   0  0  0  0  0  0  0  0  0  0  0  0
   56.6250   30.2730   42.9830 C   0  0  0  0  0  0  0  0  0  0  0  0
   57.1510   31.2820   42.1690 C   0  0  0  0  0  0  0  0  0  0  0  0
   57.8070   32.3750   42.7430 C   0  0  0  0  0  0  0  0  0  0  0  0
   57.9240   32.4680   44.1340 C   0  0  0  0  0  0  0  0  0  0  0  0
   58.7350   33.8460   44.8550 Cl  0  0  0  0  0  0  0  0  0  0  0  0
   57.3970   31.4600   44.9500 C   0  0  0  0  0  0  0  0  0  0  0  0
   58.0180   27.5220   44.8800 C   0  0  0  0  0  0  0  0  0  0  0  0
   59.1440   28.5320   44.9250 C   0  0  0  0  0  0  0  0  0  0  0  0
   59.4340   28.9670   46.3310 C   0  0  0  0  0  0  0  0  0  0  0  0
   60.0250   30.1690   46.6990 C   0  0  0  0  0  0  0  0  0  0  0  0
   60.2450   30.2770   48.0780 C   0  0  0  0  0  0  0  0  0  0  0  0
   59.8480   29.1590   48.7970 C   0  0  0  0  0  0  0  0  0  0  0  0
   59.2260   28.0320   47.7150 S   0  0  0  0  0  0  0  0  0  0  0  0
   58.1820   26.2970   44.4600 N   0  0  0  0  0  0  0  0  0  0  0  0
   58.1260   25.0550   45.1810 C   0  0  0  0  0  0  0  0  0  0  0  0
   58.4030   24.9880   46.4080 O   0  0  0  0  0  0  0  0  0  0  0  0
   57.7290   23.8340   44.4670 C   0  0  0  0  0  0  0  0  0  0  0  0
   58.3430   22.5900   44.5740 C   0  0  0  0  0  0  0  0  0  0  0  0
   57.7670   21.6180   43.7490 C   0  0  0  0  0  0  0  0  0  0  0  0
   56.6990   22.0880   42.9950 C   0  0  0  0  0  0  0  0  0  0  0  0
   56.4750   23.7160   43.3530 S   0  0  0  0  0  0  0  0  0  0  0  0
   56.0974   29.4212   42.5291 H   0  0  0  0  0  0  0  0  0  0  0  0
   57.0483   31.2152   41.0758 H   0  0  0  0  0  0  0  0  0  0  0  0
   58.2309   33.1614   42.1013 H   0  0  0  0  0  0  0  0  0  0  0  0
   57.4764   31.5438   46.0439 H   0  0  0  0  0  0  0  0  0  0  0  0
   60.0497   28.0774   44.4971 H   0  0  0  0  0  0  0  0  0  0  0  0
   58.8393   29.4158   44.3453 H   0  0  0  0  0  0  0  0  0  0  0  0
   60.2933   30.9568   45.9797 H   0  0  0  0  0  0  0  0  0  0  0  0
   60.6913   31.1661   48.5475 H   0  0  0  0  0  0  0  0  0  0  0  0
   59.9265   29.0317   49.8868 H   0  0  0  0  0  0  0  0  0  0  0  0
   59.1954   22.3909   45.2401 H   0  0  0  0  0  0  0  0  0  0  0  0
   58.1260   20.5793   43.7018 H   0  0  0  0  0  0  0  0  0  0  0  0
   56.1020   21.4965   42.2852 H   0  0  0  0  0  0  0  0  0  0  0  0
  1  2  2  0
  2  3  1  0
  3  4  1  0
  4  5  2  0
  5  6  1  0
  6  7  2  0
  7  8  1  0
  8  9  1  0
  8 10  2  0
  2 11  1  0
 11 12  1  0
 12 13  1  0
 13 14  2  0
 14 15  1  0
 15 16  2  0
 16 17  1  0
 11 18  2  3
 18 19  1  0
 19 20  2  0
 19 21  1  0
 21 22  2  0
 22 23  1  0
 23 24  2  0
 24 25  1  0
 10  4  1  0
 17 13  1  0
 25 21  1  0
  5 26  1  0
  6 27  1  0
  7 28  1  0
 10 29  1  0
 12 30  1  0
 12 31  1  0
 14 32  1  0
 15 33  1  0
 16 34  1  0
 22 35  1  0
 23 36  1  0
 24 37  1  0
M  CHG  1   3  -1
M  END
>  <UniqueID>  (38) 
34

>  <SMILES>  (38) 
O=C([N-]c1cccc(Cl)c1)C(Cc1cccs1)=NC(=O)c1cccs1

>  <Energy>  (38) 
96.67274187169465

>  <Genealogy>  (38) 
O=C([N-]c1cccc(Cl)c1)C(Cc1cccs1)=NC(=O)c1cccs1 (protonated)
O=C([N-]c1cccc(Cl)c1)C(Cc1cccs1)=NC(=O)c1cccs1 (3D coordinates assigned)
O=C([N-]c1cccc(Cl)c1)C(Cc1cccs1)=NC(=O)c1cccs1 (optimized conformer: 96.67274187169465 kcal/mol)

>  <smiles>  (38) 
O=C(Nc1cccc(Cl)c1)C(Cc1cccs1)=NC(=O)c1cccs1

>  <score_type>  (38) 
oracle

>  <origin>  (38) 
adg

>  <m_score__min__energy>  (38) 
-9.9100000000000001

>  <m_primary>  (38) 
energy

$$$$
38:0
     RDKit          3D

 51 54  0  0  0  0  0  0  0  0999 V2000
   60.7160   33.8190   50.0980 C   0  0  0  0  0  0  0  0  0  0  0  0
   61.8390   34.0880   49.1010 C   0  0  0  0  0  0  0  0  0  0  0  0
   61.3880   33.7740   47.7280 N   0  0  0  0  0  0  0  0  0  0  0  0
   62.4890   33.8430   46.7360 C   0  0  0  0  0  0  0  0  0  0  0  0
   63.7470   33.0580   47.1350 C   0  0  0  0  0  0  0  0  0  0  0  0
   60.1940   34.5610   47.3430 C   0  0  0  0  0  0  0  0  0  0  0  0
   59.2080   33.7040   46.5960 C   0  0  0  0  0  0  0  0  0  0  0  0
   57.9330   34.2170   46.2420 C   0  0  0  0  0  0  0  0  0  0  0  0
   57.0110   33.4250   45.5320 C   0  0  0  0  0  0  0  0  0  0  0  0
   57.3910   32.1320   45.1850 C   0  0  0  0  0  0  0  0  0  0  0  0
   56.6800   31.2350   44.5280 O   0  0  0  0  0  0  0  0  0  0  0  0
   57.4360   30.1590   44.4290 C   0  0  0  0  0  0  0  0  0  0  0  0
   57.1130   28.9520   43.8160 C   0  0  0  0  0  0  0  0  0  0  0  0
   58.0770   27.9180   43.8300 C   0  0  0  0  0  0  0  0  0  0  0  0
   57.7830   26.6070   43.1530 C   0  0  0  0  0  0  0  0  0  0  0  0
   57.3920   25.5720   44.1730 C   0  0  0  0  0  0  0  0  0  0  0  0
   57.1490   24.2450   43.7780 C   0  0  0  0  0  0  0  0  0  0  0  0
   56.7530   23.2910   44.7220 C   0  0  0  0  0  0  0  0  0  0  0  0
   56.5910   23.6560   46.0620 C   0  0  0  0  0  0  0  0  0  0  0  0
   56.8180   24.9770   46.4590 C   0  0  0  0  0  0  0  0  0  0  0  0
   57.2130   25.9340   45.5190 C   0  0  0  0  0  0  0  0  0  0  0  0
   59.3410   28.1360   44.4400 C   0  0  0  0  0  0  0  0  0  0  0  0
   59.6410   29.3650   45.0530 C   0  0  0  0  0  0  0  0  0  0  0  0
   58.6610   30.3540   45.0290 C   0  0  0  0  0  0  0  0  0  0  0  0
   58.6310   31.6350   45.5220 C   0  0  0  0  0  0  0  0  0  0  0  0
   59.5670   32.3900   46.2240 C   0  0  0  0  0  0  0  0  0  0  0  0
   61.1052   33.9122   51.1226 H   0  0  0  0  0  0  0  0  0  0  0  0
   59.9073   34.5488   49.9451 H   0  0  0  0  0  0  0  0  0  0  0  0
   60.3258   32.8020   49.9451 H   0  0  0  0  0  0  0  0  0  0  0  0
   62.1272   35.1482   49.1554 H   0  0  0  0  0  0  0  0  0  0  0  0
   62.7009   33.4517   49.3504 H   0  0  0  0  0  0  0  0  0  0  0  0
   62.1191   33.4397   45.7818 H   0  0  0  0  0  0  0  0  0  0  0  0
   62.7853   34.9000   46.6662 H   0  0  0  0  0  0  0  0  0  0  0  0
   63.8188   33.0132   48.2317 H   0  0  0  0  0  0  0  0  0  0  0  0
   63.6862   32.0373   46.7295 H   0  0  0  0  0  0  0  0  0  0  0  0
   64.6372   33.5612   46.7295 H   0  0  0  0  0  0  0  0  0  0  0  0
   59.7140   34.9556   48.2507 H   0  0  0  0  0  0  0  0  0  0  0  0
   60.5113   35.3862   46.6884 H   0  0  0  0  0  0  0  0  0  0  0  0
   57.6623   35.2448   46.5256 H   0  0  0  0  0  0  0  0  0  0  0  0
   56.0198   33.8164   45.2596 H   0  0  0  0  0  0  0  0  0  0  0  0
   56.1349   28.8066   43.3341 H   0  0  0  0  0  0  0  0  0  0  0  0
   56.9574   26.7438   42.4391 H   0  0  0  0  0  0  0  0  0  0  0  0
   58.6848   26.2663   42.6232 H   0  0  0  0  0  0  0  0  0  0  0  0
   57.2705   23.9557   42.7237 H   0  0  0  0  0  0  0  0  0  0  0  0
   56.5689   22.2525   44.4095 H   0  0  0  0  0  0  0  0  0  0  0  0
   56.2849   22.9037   46.8038 H   0  0  0  0  0  0  0  0  0  0  0  0
   56.6857   25.2642   47.5126 H   0  0  0  0  0  0  0  0  0  0  0  0
   57.3842   26.9738   45.8343 H   0  0  0  0  0  0  0  0  0  0  0  0
   60.0938   27.3340   44.4327 H   0  0  0  0  0  0  0  0  0  0  0  0
   60.6147   29.5391   45.5342 H   0  0  0  0  0  0  0  0  0  0  0  0
   60.5535   31.9764   46.4803 H   0  0  0  0  0  0  0  0  0  0  0  0
  1  2  1  0
  2  3  1  0
  3  4  1  0
  4  5  1  0
  3  6  1  0
  6  7  1  0
  7  8  2  0
  8  9  1  0
  9 10  2  0
 10 11  1  0
 11 12  1  0
 12 13  2  0
 13 14  1  0
 14 15  1  0
 15 16  1  0
 16 17  2  0
 17 18  1  0
 18 19  2  0
 19 20  1  0
 20 21  2  0
 14 22  2  0
 22 23  1  0
 23 24  2  0
 24 25  1  0
 25 26  2  0
 26  7  1  0
 25 10  1  0
 24 12  1  0
 21 16  1  0
  1 27  1  0
  1 28  1  0
  1 29  1  0
  2 30  1  0
  2 31  1  0
  4 32  1  0
  4 33  1  0
  5 34  1  0
  5 35  1  0
  5 36  1  0
  6 37  1  0
  6 38  1  0
  8 39  1  0
  9 40  1  0
 13 41  1  0
 15 42  1  0
 15 43  1  0
 17 44  1  0
 18 45  1  0
 19 46  1  0
 20 47  1  0
 21 48  1  0
 22 49  1  0
 23 50  1  0
 26 51  1  0
M  END
>  <UniqueID>  (39) 
35

>  <SMILES>  (39) 
CCN(CC)Cc1ccc2oc3cc(Cc4ccccc4)ccc3c2c1

>  <Energy>  (39) 
95.19247825815569

>  <Genealogy>  (39) 
CCN(CC)Cc1ccc2oc3cc(Cc4ccccc4)ccc3c2c1 (3D coordinates assigned)
CCN(CC)Cc1ccc2oc3cc(Cc4ccccc4)ccc3c2c1 (optimized conformer: 95.19247825815569 kcal/mol)

>  <smiles>  (39) 
CCN(CC)Cc1ccc2oc3cc(Cc4ccccc4)ccc3c2c1

>  <score_type>  (39) 
oracle

>  <origin>  (39) 
adg

>  <m_score__min__energy>  (39) 
-8.6899999999999995

>  <m_primary>  (39) 
energy

$$$$
39:0
     RDKit          3D

 59 63  0  0  0  0  0  0  0  0999 V2000
   63.2340   33.5290   47.0460 C   0  0  0  0  0  0  0  0  0  0  0  0
   62.0790   34.2020   47.5410 O   0  0  0  0  0  0  0  0  0  0  0  0
   61.2600   33.7540   48.5890 C   0  0  0  0  0  0  0  0  0  0  0  0
   61.8200   33.5350   49.8660 C   0  0  0  0  0  0  0  0  0  0  0  0
   61.0360   33.1140   50.9330 C   0  0  0  0  0  0  0  0  0  0  0  0
   59.6790   32.9030   50.7530 C   0  0  0  0  0  0  0  0  0  0  0  0
   59.0970   33.1040   49.5030 C   0  0  0  0  0  0  0  0  0  0  0  0
   59.8590   33.5250   48.3790 C   0  0  0  0  0  0  0  0  0  0  0  0
   59.1970   33.7070   47.0760 N   0  0  0  0  0  0  0  0  0  0  0  0
   57.7430   33.4550   46.9910 C   0  0  0  0  0  0  0  0  0  0  0  0
   57.1220   33.8350   45.6560 C   0  0  0  0  0  0  0  0  0  0  0  0
   57.9260   33.3760   44.5160 N   0  0  0  0  0  0  0  0  0  0  0  0
   57.9280   31.8970   44.3110 C   0  0  0  0  0  0  0  0  0  0  0  0
   56.5490   31.2170   44.1760 C   0  0  0  0  0  0  0  0  0  0  0  0
   56.5290   29.9880   44.9660 N   0  0  0  0  0  0  0  0  0  0  0  0
   57.6450   29.1010   45.0990 C   0  0  0  0  0  0  0  0  0  0  0  0
   57.9110   28.3040   44.1610 O   0  0  0  0  0  0  0  0  0  0  0  0
   58.4880   29.1010   46.3050 C   0  0  0  0  0  0  0  0  0  0  0  0
   58.9870   30.3250   46.8180 C   0  0  0  0  0  0  0  0  0  0  0  0
   59.7990   30.3450   47.9640 C   0  0  0  0  0  0  0  0  0  0  0  0
   60.0750   29.1270   48.5790 C   0  0  0  0  0  0  0  0  0  0  0  0
   59.5950   27.9310   48.0890 C   0  0  0  0  0  0  0  0  0  0  0  0
   58.8080   27.8820   46.9410 C   0  0  0  0  0  0  0  0  0  0  0  0
   59.9790   26.9190   48.8420 O   0  0  0  0  0  0  0  0  0  0  0  0
   60.7000   27.4330   49.8200 C   0  0  0  0  0  0  0  0  0  0  0  0
   61.3150   26.7520   50.8670 C   0  0  0  0  0  0  0  0  0  0  0  0
   62.0400   27.5090   51.8090 C   0  0  0  0  0  0  0  0  0  0  0  0
   62.1310   28.9140   51.6850 C   0  0  0  0  0  0  0  0  0  0  0  0
   61.5010   29.5810   50.6180 C   0  0  0  0  0  0  0  0  0  0  0  0
   60.7920   28.8040   49.7040 C   0  0  0  0  0  0  0  0  0  0  0  0
   59.2370   34.0460   44.5120 C   0  0  0  0  0  0  0  0  0  0  0  0
   59.9930   34.0180   45.8640 C   0  0  0  0  0  0  0  0  0  0  0  0
   63.8423   33.1746   47.8912 H   0  0  0  0  0  0  0  0  0  0  0  0
   62.9233   32.6705   46.4324 H   0  0  0  0  0  0  0  0  0  0  0  0
   63.8277   34.2226   46.4324 H   0  0  0  0  0  0  0  0  0  0  0  0
   62.8966   33.7006   50.0192 H   0  0  0  0  0  0  0  0  0  0  0  0
   61.4927   32.9484   51.9199 H   0  0  0  0  0  0  0  0  0  0  0  0
   59.0583   32.5755   51.6001 H   0  0  0  0  0  0  0  0  0  0  0  0
   58.0172   32.9320   49.3824 H   0  0  0  0  0  0  0  0  0  0  0  0
   57.5683   32.3822   47.1599 H   0  0  0  0  0  0  0  0  0  0  0  0
   57.2670   34.0893   47.7533 H   0  0  0  0  0  0  0  0  0  0  0  0
   56.1222   33.3813   45.5891 H   0  0  0  0  0  0  0  0  0  0  0  0
   57.0692   34.9328   45.6100 H   0  0  0  0  0  0  0  0  0  0  0  0
   57.4230   33.7560   43.6760 H   0  0  0  0  0  0  0  0  0  0  0  0
   58.4947   31.6881   43.3917 H   0  0  0  0  0  0  0  0  0  0  0  0
   58.3702   31.4775   45.2267 H   0  0  0  0  0  0  0  0  0  0  0  0
   55.7671   31.8994   44.5407 H   0  0  0  0  0  0  0  0  0  0  0  0
   56.3630   30.9750   43.1192 H   0  0  0  0  0  0  0  0  0  0  0  0
   58.7355   31.2693   46.3130 H   0  0  0  0  0  0  0  0  0  0  0  0
   60.2020   31.2884   48.3609 H   0  0  0  0  0  0  0  0  0  0  0  0
   58.4468   26.9227   46.5420 H   0  0  0  0  0  0  0  0  0  0  0  0
   61.2375   25.6584   50.9561 H   0  0  0  0  0  0  0  0  0  0  0  0
   62.5393   27.0021   52.6479 H   0  0  0  0  0  0  0  0  0  0  0  0
   62.6993   29.4912   52.4292 H   0  0  0  0  0  0  0  0  0  0  0  0
   61.5657   30.6737   50.5096 H   0  0  0  0  0  0  0  0  0  0  0  0
   59.8689   33.5540   43.7579 H   0  0  0  0  0  0  0  0  0  0  0  0
   59.0390   35.1057   44.2934 H   0  0  0  0  0  0  0  0  0  0  0  0
   60.7861   33.2599   45.7847 H   0  0  0  0  0  0  0  0  0  0  0  0
   60.3483   35.0483   46.0131 H   0  0  0  0  0  0  0  0  0  0  0  0
  1  2  1  0
  2  3  1  0
  3  4  2  0
  4  5  1  0
  5  6  2  0
  6  7  1  0
  7  8  2  0
  8  9  1  0
  9 10  1  0
 10 11  1  0
 11 12  1  0
 12 13  1  0
 13 14  1  0
 14 15  1  0
 15 16  1  0
 16 17  2  0
 16 18  1  0
 18 19  2  0
 19 20  1  0
 20 21  2  0
 21 22  1  0
 22 23  2  0
 22 24  1  0
 24 25  1  0
 25 26  2  0
 26 27  1  0
 27 28  2  0
 28 29  1  0
 29 30  2  0
 12 31  1  0
 31 32  1  0
  8  3  1  0
 32  9  1  0
 23 18  1  0
 30 25  1  0
 30 21  1  0
  1 33  1  0
  1 34  1  0
  1 35  1  0
  4 36  1  0
  5 37  1  0
  6 38  1  0
  7 39  1  0
 10 40  1  0
 10 41  1  0
 11 42  1  0
 11 43  1  0
 12 44  1  0
 13 45  1  0
 13 46  1  0
 14 47  1  0
 14 48  1  0
 19 49  1  0
 20 50  1  0
 23 51  1  0
 26 52  1  0
 27 53  1  0
 28 54  1  0
 29 55  1  0
 31 56  1  0
 31 57  1  0
 32 58  1  0
 32 59  1  0
M  CHG  2  12   1  15  -1
M  END
>  <UniqueID>  (40) 
36

>  <SMILES>  (40) 
COc1ccccc1N1CC[NH+](CC[N-]C(=O)c2ccc3c(c2)oc2ccccc23)CC1

>  <Energy>  (40) 
129.47617280466378

>  <Genealogy>  (40) 
COc1ccccc1N1CC[NH+](CC[N-]C(=O)c2ccc3c(c2)oc2ccccc23)CC1 (protonated)
COc1ccccc1N1CC[NH+](CC[N-]C(=O)c2ccc3c(c2)oc2ccccc23)CC1 (3D coordinates assigned)
COc1ccccc1N1CC[NH+](CC[N-]C(=O)c2ccc3c(c2)oc2ccccc23)CC1 (nonaromatic ring conformer: 129.47617280466378 kcal/mol)

>  <smiles>  (40) 
COc1ccccc1N1CCN(CCNC(=O)c2ccc3c(c2)oc2ccccc23)CC1

>  <score_type>  (40) 
oracle

>  <origin>  (40) 
adg

>  <m_score__min__energy>  (40) 
-8.7400000000000002

>  <m_primary>  (40) 
energy

$$$$
40:0
     RDKit          3D

 40 42  0  0  0  0  0  0  0  0999 V2000
   60.3747   34.2778   46.7672 H   0  0  0  0  0  0  0  0  0  0  0  0
   60.5790   33.1980   46.8160 C   0  0  0  0  0  0  0  0  0  0  0  0
   59.5870   32.3070   46.5620 N   0  0  0  0  0  0  0  0  0  0  0  0
   59.8110   30.9660   46.6060 C   0  0  0  0  0  0  0  0  0  0  0  0
   58.7520   30.0290   46.3400 N   0  0  0  0  0  0  0  0  0  0  0  0
   57.7210   30.3300   45.5610 N   0  0  0  0  0  0  0  0  0  0  0  0
   56.9050   29.2580   45.5280 C   0  0  0  0  0  0  0  0  0  0  0  0
   55.6750   29.2200   44.8680 O   0  0  0  0  0  0  0  0  0  0  0  0
   55.5080   29.7080   43.5450 C   0  0  0  0  0  0  0  0  0  0  0  0
   55.1520   30.7482   43.5801 H   0  0  0  0  0  0  0  0  0  0  0  0
   56.4711   29.6677   43.0150 H   0  0  0  0  0  0  0  0  0  0  0  0
   54.7715   29.0861   43.0150 H   0  0  0  0  0  0  0  0  0  0  0  0
   57.4490   28.2370   46.2790 C   0  0  0  0  0  0  0  0  0  0  0  0
   56.8260   26.9990   46.6520 N   0  0  0  0  0  0  0  0  0  0  0  0
   56.5050   26.0110   45.8650 C   0  0  0  0  0  0  0  0  0  0  0  0
   55.2720   25.4500   46.0000 N   0  0  0  0  0  0  0  0  0  0  0  0
   54.8590   24.4080   45.2300 C   0  0  0  0  0  0  0  0  0  0  0  0
   53.2530   23.7450   45.4560 Cl  0  0  0  0  0  0  0  0  0  0  0  0
   55.7120   23.8710   44.2650 C   0  0  0  0  0  0  0  0  0  0  0  0
   55.3800   23.0342   43.6329 H   0  0  0  0  0  0  0  0  0  0  0  0
   56.9900   24.4070   44.1110 C   0  0  0  0  0  0  0  0  0  0  0  0
   57.6753   23.9893   43.3588 H   0  0  0  0  0  0  0  0  0  0  0  0
   57.3990   25.4750   44.9130 C   0  0  0  0  0  0  0  0  0  0  0  0
   58.4097   25.8951   44.8036 H   0  0  0  0  0  0  0  0  0  0  0  0
   58.6040   28.7650   46.8170 C   0  0  0  0  0  0  0  0  0  0  0  0
   59.5210   28.0670   47.7760 C   0  0  0  0  0  0  0  0  0  0  0  0
   59.2174   28.2981   48.8077 H   0  0  0  0  0  0  0  0  0  0  0  0
   59.4652   26.9807   47.6120 H   0  0  0  0  0  0  0  0  0  0  0  0
   60.5532   28.4101   47.6120 H   0  0  0  0  0  0  0  0  0  0  0  0
   61.0560   30.5060   46.9070 N   0  0  0  0  0  0  0  0  0  0  0  0
   62.0780   31.3600   47.1680 C   0  0  0  0  0  0  0  0  0  0  0  0
   63.0776   30.9650   47.4019 H   0  0  0  0  0  0  0  0  0  0  0  0
   61.8620   32.7420   47.1400 C   0  0  0  0  0  0  0  0  0  0  0  0
   62.9880   33.7080   47.3900 C   0  0  0  0  0  0  0  0  0  0  0  0
   62.5861   34.6154   47.8644 H   0  0  0  0  0  0  0  0  0  0  0  0
   63.4600   33.9561   46.4279 H   0  0  0  0  0  0  0  0  0  0  0  0
   64.0390   33.0890   48.3050 C   0  0  0  0  0  0  0  0  0  0  0  0
   63.7555   33.2560   49.3546 H   0  0  0  0  0  0  0  0  0  0  0  0
   64.1041   32.0083   48.1102 H   0  0  0  0  0  0  0  0  0  0  0  0
   65.0157   33.5561   48.1102 H   0  0  0  0  0  0  0  0  0  0  0  0
  1  2  1  0
  2  3  2  0
  3  4  1  0
  4  5  1  0
  5  6  1  0
  6  7  2  0
  7  8  1  0
  8  9  1  0
  9 10  1  0
  9 11  1  0
  9 12  1  0
  7 13  1  0
 13 14  1  0
 14 15  2  0
 15 16  1  0
 16 17  1  0
 17 18  1  0
 17 19  2  0
 19 20  1  0
 19 21  1  0
 21 22  1  0
 21 23  2  0
 23 24  1  0
 13 25  2  0
 25 26  1  0
 26 27  1  0
 26 28  1  0
 26 29  1  0
  4 30  2  0
 30 31  1  0
 31 32  1  0
 31 33  2  0
 33 34  1  0
 34 35  1  0
 34 36  1  0
 34 37  1  0
 37 38  1  0
 37 39  1  0
 37 40  1  0
 33  2  1  0
 25  5  1  0
 23 15  1  0
M  CHG  1  16  -1
M  END
>  <UniqueID>  (41) 
37

>  <SMILES>  (41) 
CCc1cnc(-n2nc(OC)c(/N=c3\cccc(Cl)[n-]3)c2C)nc1

>  <Energy>  (41) 
80.28949312945095

>  <Genealogy>  (41) 
CCc1cnc(-n2nc(OC)c(N=c3cccc(Cl)[n-]3)c2C)nc1 (protonated)
CCc1cnc(-n2nc(OC)c(/N=c3\cccc(Cl)[n-]3)c2C)nc1 (cis-trans isomerization)
CCc1cnc(-n2nc(OC)c(/N=c3\cccc(Cl)[n-]3)c2C)nc1 (3D coordinates assigned)
CCc1cnc(-n2nc(OC)c(/N=c3\cccc(Cl)[n-]3)c2C)nc1 (optimized conformer: 80.28949312945095 kcal/mol)

>  <smiles>  (41) 
CCc1cnc(-n2nc(OC)c(N=c3cccc(Cl)[nH]3)c2C)nc1

>  <score_type>  (41) 
oracle

>  <origin>  (41) 
adg

>  <m_score__min__energy>  (41) 
-9.4499999999999993

>  <m_primary>  (41) 
energy

$$$$
41:0
     RDKit          3D

 47 49  0  0  0  0  0  0  0  0999 V2000
   65.6910   33.0790   50.2150 C   0  0  0  0  0  0  0  0  0  0  0  0
   64.5140   32.6740   49.3310 C   0  0  0  0  0  0  0  0  0  0  0  0
   63.4040   33.7420   49.3620 C   0  0  0  0  0  0  0  0  0  0  0  0
   62.1950   33.3220   48.6100 N   0  0  0  0  0  0  0  0  0  0  0  0
   62.3940   33.5660   47.1560 C   0  0  0  0  0  0  0  0  0  0  0  0
   61.0770   33.5740   46.3480 C   0  0  0  0  0  0  0  0  0  0  0  0
   59.9910   32.9480   47.1070 N   0  0  0  0  0  0  0  0  0  0  0  0
   59.0870   32.0300   46.4710 C   0  0  0  0  0  0  0  0  0  0  0  0
   58.0080   32.3680   45.7640 C   0  0  0  0  0  0  0  0  0  0  0  0
   57.4480   33.9970   45.4200 Cl  0  0  0  0  0  0  0  0  0  0  0  0
   57.4460   31.1440   45.1970 C   0  0  0  0  0  0  0  0  0  0  0  0
   56.3990   31.0830   44.5000 O   0  0  0  0  0  0  0  0  0  0  0  0
   58.2280   30.0110   45.5730 N   0  0  0  0  0  0  0  0  0  0  0  0
   58.0410   28.6320   45.2070 C   0  0  0  0  0  0  0  0  0  0  0  0
   57.5660   27.7060   46.1500 C   0  0  0  0  0  0  0  0  0  0  0  0
   57.3820   26.3650   45.7960 C   0  0  0  0  0  0  0  0  0  0  0  0
   57.6850   25.9290   44.4980 C   0  0  0  0  0  0  0  0  0  0  0  0
   57.4510   24.5000   44.1060 C   0  0  0  0  0  0  0  0  0  0  0  0
   58.1420   26.8550   43.5490 C   0  0  0  0  0  0  0  0  0  0  0  0
   58.3250   28.1960   43.9020 C   0  0  0  0  0  0  0  0  0  0  0  0
   59.2670   30.5800   46.3670 C   0  0  0  0  0  0  0  0  0  0  0  0
   60.2140   29.9220   46.8730 O   0  0  0  0  0  0  0  0  0  0  0  0
   59.7240   33.4020   48.4750 C   0  0  0  0  0  0  0  0  0  0  0  0
   60.9850   34.0270   49.0940 C   0  0  0  0  0  0  0  0  0  0  0  0
   65.4059   32.9809   51.2729 H   0  0  0  0  0  0  0  0  0  0  0  0
   66.5498   32.4247   50.0045 H   0  0  0  0  0  0  0  0  0  0  0  0
   65.9654   34.1232   50.0045 H   0  0  0  0  0  0  0  0  0  0  0  0
   64.8669   32.5525   48.2963 H   0  0  0  0  0  0  0  0  0  0  0  0
   64.1001   31.7286   49.7117 H   0  0  0  0  0  0  0  0  0  0  0  0
   63.1221   33.9285   50.4088 H   0  0  0  0  0  0  0  0  0  0  0  0
   63.7985   34.6505   48.8834 H   0  0  0  0  0  0  0  0  0  0  0  0
   62.0610   32.2890   48.7420 H   0  0  0  0  0  0  0  0  0  0  0  0
   62.8857   34.5420   47.0305 H   0  0  0  0  0  0  0  0  0  0  0  0
   63.0066   32.7383   46.7692 H   0  0  0  0  0  0  0  0  0  0  0  0
   60.8023   34.6141   46.1184 H   0  0  0  0  0  0  0  0  0  0  0  0
   61.2313   33.0023   45.4210 H   0  0  0  0  0  0  0  0  0  0  0  0
   57.3371   28.0372   47.1737 H   0  0  0  0  0  0  0  0  0  0  0  0
   56.9982   25.6500   46.5386 H   0  0  0  0  0  0  0  0  0  0  0  0
   57.3500   23.8833   45.0112 H   0  0  0  0  0  0  0  0  0  0  0  0
   56.5294   24.4296   43.5097 H   0  0  0  0  0  0  0  0  0  0  0  0
   58.3020   24.1393   43.5097 H   0  0  0  0  0  0  0  0  0  0  0  0
   58.3576   26.5251   42.5220 H   0  0  0  0  0  0  0  0  0  0  0  0
   58.6933   28.9132   43.1537 H   0  0  0  0  0  0  0  0  0  0  0  0
   58.9204   34.1529   48.4563 H   0  0  0  0  0  0  0  0  0  0  0  0
   59.4223   32.5365   49.0832 H   0  0  0  0  0  0  0  0  0  0  0  0
   61.0432   35.0875   48.8076 H   0  0  0  0  0  0  0  0  0  0  0  0
   60.9304   33.9366   50.1889 H   0  0  0  0  0  0  0  0  0  0  0  0
  1  2  1  0
  2  3  1  0
  3  4  1  0
  4  5  1  0
  5  6  1  0
  6  7  1  0
  7  8  1  0
  8  9  2  0
  9 10  1  0
  9 11  1  0
 11 12  2  0
 11 13  1  0
 13 14  1  0
 14 15  2  0
 15 16  1  0
 16 17  2  0
 17 18  1  0
 17 19  1  0
 19 20  2  0
 13 21  1  0
 21 22  2  0
  7 23  1  0
 23 24  1  0
 24  4  1  0
 21  8  1  0
 20 14  1  0
  1 25  1  0
  1 26  1  0
  1 27  1  0
  2 28  1  0
  2 29  1  0
  3 30  1  0
  3 31  1  0
  4 32  1  0
  5 33  1  0
  5 34  1  0
  6 35  1  0
  6 36  1  0
 15 37  1  0
 16 38  1  0
 18 39  1  0
 18 40  1  0
 18 41  1  0
 19 42  1  0
 20 43  1  0
 23 44  1  0
 23 45  1  0
 24 46  1  0
 24 47  1  0
M  CHG  1   4   1
M  END
>  <UniqueID>  (42) 
38

>  <SMILES>  (42) 
CCC[NH+]1CCN(C2=C(Cl)C(=O)N(c3ccc(C)cc3)C2=O)CC1

>  <Energy>  (42) 
86.7920648241826

>  <Genealogy>  (42) 
CCC[NH+]1CCN(C2=C(Cl)C(=O)N(c3ccc(C)cc3)C2=O)CC1 (protonated)
CCC[NH+]1CCN(C2=C(Cl)C(=O)N(c3ccc(C)cc3)C2=O)CC1 (3D coordinates assigned)
CCC[NH+]1CCN(C2=C(Cl)C(=O)N(c3ccc(C)cc3)C2=O)CC1 (nonaromatic ring conformer: 86.7920648241826 kcal/mol)

>  <smiles>  (42) 
CCCN1CCN(C2=C(Cl)C(=O)N(c3ccc(C)cc3)C2=O)CC1

>  <score_type>  (42) 
oracle

>  <origin>  (42) 
adg

>  <m_score__min__energy>  (42) 
-6.4400000000000004

>  <m_primary>  (42) 
energy

$$$$
42:0
     RDKit          3D

 38 39  0  0  0  0  0  0  0  0999 V2000
   59.1696   32.8035   47.4405 H   0  0  0  0  0  0  0  0  0  0  0  0
   58.6700   32.6540   46.4720 C   0  0  0  0  0  0  0  0  0  0  0  0
   57.9770   31.4650   46.2190 C   0  0  0  0  0  0  0  0  0  0  0  0
   57.9177   30.6903   46.9976 H   0  0  0  0  0  0  0  0  0  0  0  0
   57.3590   31.2560   44.9810 C   0  0  0  0  0  0  0  0  0  0  0  0
   56.6070   30.0530   44.7690 N   0  0  0  0  0  0  0  0  0  0  0  0
   57.0340   28.8260   44.8730 C   0  0  0  0  0  0  0  0  0  0  0  0
   56.2620   27.9240   45.5310 N   0  0  0  0  0  0  0  0  0  0  0  0
   56.6440   26.6280   45.6910 C   0  0  0  0  0  0  0  0  0  0  0  0
   55.7930   25.7220   46.3330 O   0  0  0  0  0  0  0  0  0  0  0  0
   54.8760   24.8920   45.6320 C   0  0  0  0  0  0  0  0  0  0  0  0
   54.2604   24.3348   46.3535 H   0  0  0  0  0  0  0  0  0  0  0  0
   54.2263   25.5154   45.0001 H   0  0  0  0  0  0  0  0  0  0  0  0
   55.4318   24.1836   45.0001 H   0  0  0  0  0  0  0  0  0  0  0  0
   57.8850   26.2060   45.1840 C   0  0  0  0  0  0  0  0  0  0  0  0
   58.3780   24.8160   45.3270 C   0  0  0  0  0  0  0  0  0  0  0  0
   59.4170   24.6050   46.0110 O   0  0  0  0  0  0  0  0  0  0  0  0
   57.6420   23.6380   44.7280 C   0  0  0  0  0  0  0  0  0  0  0  0
   56.8335   23.3439   45.4134 H   0  0  0  0  0  0  0  0  0  0  0  0
   58.5910   22.4470   44.5600 C   0  0  0  0  0  0  0  0  0  0  0  0
   58.8890   22.0730   45.5506 H   0  0  0  0  0  0  0  0  0  0  0  0
   58.0803   21.6467   44.0044 H   0  0  0  0  0  0  0  0  0  0  0  0
   59.4851   22.7661   44.0044 H   0  0  0  0  0  0  0  0  0  0  0  0
   57.0150   24.0240   43.3850 C   0  0  0  0  0  0  0  0  0  0  0  0
   56.0905   24.5932   43.5621 H   0  0  0  0  0  0  0  0  0  0  0  0
   57.7229   24.6429   42.8142 H   0  0  0  0  0  0  0  0  0  0  0  0
   56.7812   23.1132   42.8142 H   0  0  0  0  0  0  0  0  0  0  0  0
   58.6670   27.1480   44.5050 C   0  0  0  0  0  0  0  0  0  0  0  0
   59.6341   26.8459   44.0766 H   0  0  0  0  0  0  0  0  0  0  0  0
   58.2430   28.4320   44.3700 N   0  0  0  0  0  0  0  0  0  0  0  0
   58.8900   29.1060   43.9080 H   0  0  0  0  0  0  0  0  0  0  0  0
   57.3890   32.2750   44.0140 C   0  0  0  0  0  0  0  0  0  0  0  0
   56.8657   32.1373   43.0563 H   0  0  0  0  0  0  0  0  0  0  0  0
   58.0820   33.4640   44.2650 C   0  0  0  0  0  0  0  0  0  0  0  0
   58.1196   34.2506   43.4970 H   0  0  0  0  0  0  0  0  0  0  0  0
   58.7280   33.6540   45.4930 C   0  0  0  0  0  0  0  0  0  0  0  0
   59.4390   34.8790   45.7530 C   0  0  0  0  0  0  0  0  0  0  0  0
   60.0100   35.8620   45.9620 N   0  0  0  0  0  0  0  0  0  0  0  0
  1  2  1  0
  2  3  2  0
  3  4  1  0
  3  5  1  0
  5  6  1  0
  6  7  2  0
  7  8  1  0
  8  9  2  0
  9 10  1  0
 10 11  1  0
 11 12  1  0
 11 13  1  0
 11 14  1  0
  9 15  1  0
 15 16  1  0
 16 17  2  0
 16 18  1  0
 18 19  1  0
 18 20  1  0
 20 21  1  0
 20 22  1  0
 20 23  1  0
 18 24  1  0
 24 25  1  0
 24 26  1  0
 24 27  1  0
 15 28  2  0
 28 29  1  0
 28 30  1  0
 30 31  1  0
  5 32  2  0
 32 33  1  0
 32 34  1  0
 34 35  1  0
 34 36  2  0
 36 37  1  0
 37 38  3  0
 36  2  1  0
 30  7  1  0
M  END
>  <UniqueID>  (43) 
39

>  <SMILES>  (43) 
COc1n/c(=N/c2ccc(C#N)cc2)[nH]cc1C(=O)C(C)C

>  <Energy>  (43) 
44.620237857286575

>  <Genealogy>  (43) 
COc1n/c(=N/c2ccc(C#N)cc2)[nH]cc1C(=O)C(C)C (cis-trans isomerization)
COc1n/c(=N/c2ccc(C#N)cc2)[nH]cc1C(=O)C(C)C (3D coordinates assigned)
COc1n/c(=N/c2ccc(C#N)cc2)[nH]cc1C(=O)C(C)C (optimized conformer: 44.620237857286575 kcal/mol)

>  <smiles>  (43) 
COc1nc(=Nc2ccc(C#N)cc2)[nH]cc1C(=O)C(C)C

>  <score_type>  (43) 
oracle

>  <origin>  (43) 
adg

>  <m_score__min__energy>  (43) 
-7.0800000000000001

>  <m_primary>  (43) 
energy

$$$$
43:0
     RDKit          3D

 53 55  0  0  0  0  0  0  0  0999 V2000
   58.5400   31.8830   48.4830 S   0  0  0  0  0  0  0  0  0  0  0  0
   59.3440   32.2410   47.0910 C   0  0  0  0  0  0  0  0  0  0  0  0
   60.3520   31.3320   46.6070 N   0  0  0  0  0  0  0  0  0  0  0  0
   60.2490   29.9000   46.6910 C   0  0  0  0  0  0  0  0  0  0  0  0
   60.3260   29.1320   45.5180 C   0  0  0  0  0  0  0  0  0  0  0  0
   60.2020   27.7410   45.5740 C   0  0  0  0  0  0  0  0  0  0  0  0
   59.9850   27.1070   46.7990 C   0  0  0  0  0  0  0  0  0  0  0  0
   59.8830   27.8630   47.9700 C   0  0  0  0  0  0  0  0  0  0  0  0
   60.0080   29.2550   47.9180 C   0  0  0  0  0  0  0  0  0  0  0  0
   59.1470   33.5290   46.4580 N   0  0  0  0  0  0  0  0  0  0  0  0
   58.1040   33.6830   45.4290 C   0  0  0  0  0  0  0  0  0  0  0  0
   58.5310   33.0800   44.0790 C   0  0  0  0  0  0  0  0  0  0  0  0
   57.4110   32.2940   43.3720 C   0  0  0  0  0  0  0  0  0  0  0  0
   57.4840   30.8420   43.6500 N   0  0  0  0  0  0  0  0  0  0  0  0
   56.4700   30.0850   42.8760 C   0  0  0  0  0  0  0  0  0  0  0  0
   55.2450   29.7250   43.7360 C   0  0  0  0  0  0  0  0  0  0  0  0
   55.5590   28.9350   44.8760 O   0  0  0  0  0  0  0  0  0  0  0  0
   56.8750   29.1430   45.3700 C   0  0  0  0  0  0  0  0  0  0  0  0
   57.4150   30.5570   45.1040 C   0  0  0  0  0  0  0  0  0  0  0  0
   60.1310   34.6110   46.6330 C   0  0  0  0  0  0  0  0  0  0  0  0
   61.4240   34.1310   47.2580 C   0  0  0  0  0  0  0  0  0  0  0  0
   61.5850   34.0250   48.6540 C   0  0  0  0  0  0  0  0  0  0  0  0
   62.8050   33.6090   49.1950 C   0  0  0  0  0  0  0  0  0  0  0  0
   63.8800   33.3090   48.3550 C   0  0  0  0  0  0  0  0  0  0  0  0
   63.7360   33.4280   46.9710 C   0  0  0  0  0  0  0  0  0  0  0  0
   62.5180   33.8430   46.4240 C   0  0  0  0  0  0  0  0  0  0  0  0
   61.2280   31.7210   46.1950 H   0  0  0  0  0  0  0  0  0  0  0  0
   60.4849   29.6281   44.5492 H   0  0  0  0  0  0  0  0  0  0  0  0
   60.2754   27.1452   44.6523 H   0  0  0  0  0  0  0  0  0  0  0  0
   59.8943   26.0116   46.8424 H   0  0  0  0  0  0  0  0  0  0  0  0
   59.7043   27.3628   48.9333 H   0  0  0  0  0  0  0  0  0  0  0  0
   59.9175   29.8479   48.8401 H   0  0  0  0  0  0  0  0  0  0  0  0
   57.1901   33.1755   45.7712 H   0  0  0  0  0  0  0  0  0  0  0  0
   57.9303   34.7590   45.2803 H   0  0  0  0  0  0  0  0  0  0  0  0
   58.8513   33.8990   43.4182 H   0  0  0  0  0  0  0  0  0  0  0  0
   59.3429   32.3675   44.2867 H   0  0  0  0  0  0  0  0  0  0  0  0
   56.4387   32.6727   43.7202 H   0  0  0  0  0  0  0  0  0  0  0  0
   57.5319   32.4362   42.2880 H   0  0  0  0  0  0  0  0  0  0  0  0
   56.1397   30.6996   42.0256 H   0  0  0  0  0  0  0  0  0  0  0  0
   56.9326   29.1484   42.5313 H   0  0  0  0  0  0  0  0  0  0  0  0
   54.7752   30.6585   44.0792 H   0  0  0  0  0  0  0  0  0  0  0  0
   54.5738   29.1249   43.1041 H   0  0  0  0  0  0  0  0  0  0  0  0
   56.8699   28.9712   46.4565 H   0  0  0  0  0  0  0  0  0  0  0  0
   57.5340   28.4405   44.8388 H   0  0  0  0  0  0  0  0  0  0  0  0
   56.7493   31.2907   45.5819 H   0  0  0  0  0  0  0  0  0  0  0  0
   58.4310   30.6250   45.5201 H   0  0  0  0  0  0  0  0  0  0  0  0
   60.3564   35.0442   45.6473 H   0  0  0  0  0  0  0  0  0  0  0  0
   59.6895   35.3541   47.3133 H   0  0  0  0  0  0  0  0  0  0  0  0
   60.7461   34.2710   49.3216 H   0  0  0  0  0  0  0  0  0  0  0  0
   62.9188   33.5176   50.2853 H   0  0  0  0  0  0  0  0  0  0  0  0
   64.8383   32.9796   48.7829 H   0  0  0  0  0  0  0  0  0  0  0  0
   64.5832   33.1946   46.3094 H   0  0  0  0  0  0  0  0  0  0  0  0
   62.4153   33.9448   45.3335 H   0  0  0  0  0  0  0  0  0  0  0  0
  1  2  2  0
  2  3  1  0
  3  4  1  0
  4  5  2  0
  5  6  1  0
  6  7  2  0
  7  8  1  0
  8  9  2  0
  2 10  1  0
 10 11  1  0
 11 12  1  0
 12 13  1  0
 13 14  1  0
 14 15  1  0
 15 16  1  0
 16 17  1  0
 17 18  1  0
 18 19  1  0
 10 20  1  0
 20 21  1  0
 21 22  2  0
 22 23  1  0
 23 24  2  0
 24 25  1  0
 25 26  2  0
  9  4  1  0
 19 14  1  0
 26 21  1  0
  3 27  1  0
  5 28  1  0
  6 29  1  0
  7 30  1  0
  8 31  1  0
  9 32  1  0
 11 33  1  0
 11 34  1  0
 12 35  1  0
 12 36  1  0
 13 37  1  0
 13 38  1  0
 15 39  1  0
 15 40  1  0
 16 41  1  0
 16 42  1  0
 18 43  1  0
 18 44  1  0
 19 45  1  0
 19 46  1  0
 20 47  1  0
 20 48  1  0
 22 49  1  0
 23 50  1  0
 24 51  1  0
 25 52  1  0
 26 53  1  0
M  END
>  <UniqueID>  (44) 
40

>  <SMILES>  (44) 
S=C(Nc1ccccc1)N(CCCN1CCOCC1)Cc1ccccc1

>  <Energy>  (44) 
73.17672961850468

>  <Genealogy>  (44) 
S=C(Nc1ccccc1)N(CCCN1CCOCC1)Cc1ccccc1 (3D coordinates assigned)
S=C(Nc1ccccc1)N(CCCN1CCOCC1)Cc1ccccc1 (nonaromatic ring conformer: 73.17672961850468 kcal/mol)

>  <smiles>  (44) 
S=C(Nc1ccccc1)N(CCCN1CCOCC1)Cc1ccccc1

>  <score_type>  (44) 
oracle

>  <origin>  (44) 
adg

>  <m_score__min__energy>  (44) 
-8.0800000000000001

>  <m_primary>  (44) 
energy

$$$$
44:0
     RDKit          3D

 26 27  0  0  0  0  0  0  0  0999 V2000
   57.2370   28.8570   43.9080 C   0  0  0  0  0  0  0  0  0  0  0  0
   57.1160   28.5640   45.4100 C   0  0  1  0  0  0  0  0  0  0  0  0
   55.8950   27.7950   45.6200 N   0  0  0  0  0  0  0  0  0  0  0  0
   56.3030   26.5090   46.0270 C   0  0  0  0  0  0  0  0  0  0  0  0
   55.5030   25.5560   46.2060 O   0  0  0  0  0  0  0  0  0  0  0  0
   57.6610   26.4030   46.2080 O   0  0  0  0  0  0  0  0  0  0  0  0
   58.2740   27.6790   46.0380 C   0  0  0  0  0  0  0  0  0  0  0  0
   59.5690   27.5040   45.1930 C   0  0  0  0  0  0  0  0  0  0  0  0
   60.6370   28.5990   45.4170 C   0  0  0  0  0  0  0  0  0  0  0  0
   60.0850   29.8620   46.0840 C   0  0  0  0  0  0  0  0  0  0  0  0
   59.3940   29.5540   47.4230 C   0  0  0  0  0  0  0  0  0  0  0  0
   58.6550   28.1980   47.4450 C   0  0  0  0  0  0  0  0  0  0  0  0
   57.6532   29.8649   43.7634 H   0  0  0  0  0  0  0  0  0  0  0  0
   57.9024   28.1152   43.4422 H   0  0  0  0  0  0  0  0  0  0  0  0
   56.2421   28.8008   43.4422 H   0  0  0  0  0  0  0  0  0  0  0  0
   57.1478   29.5511   45.8943 H   0  0  0  0  0  0  0  0  0  0  0  0
   60.0160   26.5317   45.4477 H   0  0  0  0  0  0  0  0  0  0  0  0
   59.2650   27.5764   44.1383 H   0  0  0  0  0  0  0  0  0  0  0  0
   61.4307   28.1858   46.0567 H   0  0  0  0  0  0  0  0  0  0  0  0
   61.0118   28.8936   44.4257 H   0  0  0  0  0  0  0  0  0  0  0  0
   60.9161   30.5593   46.2658 H   0  0  0  0  0  0  0  0  0  0  0  0
   59.3357   30.3016   45.4093 H   0  0  0  0  0  0  0  0  0  0  0  0
   60.1584   29.5454   48.2140 H   0  0  0  0  0  0  0  0  0  0  0  0
   58.6355   30.3351   47.5795 H   0  0  0  0  0  0  0  0  0  0  0  0
   59.3072   27.4539   47.9256 H   0  0  0  0  0  0  0  0  0  0  0  0
   57.7166   28.3502   47.9984 H   0  0  0  0  0  0  0  0  0  0  0  0
  1  2  1  0
  2  3  1  0
  3  4  1  0
  4  5  2  0
  4  6  1  0
  6  7  1  0
  7  8  1  0
  8  9  1  0
  9 10  1  0
 10 11  1  0
 11 12  1  0
  7  2  1  0
 12  7  1  0
  1 13  1  0
  1 14  1  0
  1 15  1  0
  2 16  1  1
  8 17  1  0
  8 18  1  0
  9 19  1  0
  9 20  1  0
 10 21  1  0
 10 22  1  0
 11 23  1  0
 11 24  1  0
 12 25  1  0
 12 26  1  0
M  CHG  1   3  -1
M  END
>  <UniqueID>  (45) 
41

>  <SMILES>  (45) 
C[C@H]1[N-]C(=O)OC12CCCCC2

>  <Energy>  (45) 
47.17559911347225

>  <Genealogy>  (45) 
CC1[N-]C(=O)OC12CCCCC2 (protonated)
C[C@H]1[N-]C(=O)OC12CCCCC2 (chirality)
C[C@H]1[N-]C(=O)OC12CCCCC2 (3D coordinates assigned)
C[C@H]1[N-]C(=O)OC12CCCCC2 (nonaromatic ring conformer: 47.17559911347225 kcal/mol)

>  <smiles>  (45) 
CC1NC(=O)OC12CCCCC2

>  <score_type>  (45) 
oracle

>  <origin>  (45) 
adg

>  <m_score__min__energy>  (45) 
-7.1200000000000001

>  <m_primary>  (45) 
energy

$$$$
45:0
     RDKit          3D

 50 53  0  0  0  0  0  0  0  0999 V2000
   57.4440   22.0560   43.8020 C   0  0  0  0  0  0  0  0  0  0  0  0
   57.1740   22.6550   45.0650 O   0  0  0  0  0  0  0  0  0  0  0  0
   57.4750   23.9860   45.3950 C   0  0  0  0  0  0  0  0  0  0  0  0
   57.6650   24.9760   44.4130 C   0  0  0  0  0  0  0  0  0  0  0  0
   57.9760   26.2930   44.7760 C   0  0  0  0  0  0  0  0  0  0  0  0
   58.0770   26.6380   46.1380 C   0  0  0  0  0  0  0  0  0  0  0  0
   57.8810   25.6530   47.1160 C   0  0  0  0  0  0  0  0  0  0  0  0
   57.5860   24.3260   46.7520 C   0  0  0  0  0  0  0  0  0  0  0  0
   57.3920   23.3170   47.7080 O   0  0  0  0  0  0  0  0  0  0  0  0
   56.1230   22.7770   48.0670 C   0  0  0  0  0  0  0  0  0  0  0  0
   58.3500   28.0610   46.5740 C   0  0  0  0  0  0  0  0  0  0  0  0
   58.7560   28.9370   45.4670 N   0  0  0  0  0  0  0  0  0  0  0  0
   58.7710   30.3570   45.6820 C   0  0  0  0  0  0  0  0  0  0  0  0
   59.8220   30.8980   46.3510 N   0  0  0  0  0  0  0  0  0  0  0  0
   59.9000   32.2240   46.6280 C   0  0  0  0  0  0  0  0  0  0  0  0
   61.0780   32.7470   47.3670 C   0  0  0  0  0  0  0  0  0  0  0  0
   60.9040   33.7250   48.3620 C   0  0  0  0  0  0  0  0  0  0  0  0
   62.0110   34.2090   49.0630 C   0  0  0  0  0  0  0  0  0  0  0  0
   63.2530   33.7320   48.7890 N   0  0  0  0  0  0  0  0  0  0  0  0
   63.4560   32.7810   47.8420 C   0  0  0  0  0  0  0  0  0  0  0  0
   62.3780   32.2680   47.1170 C   0  0  0  0  0  0  0  0  0  0  0  0
   58.8450   33.0540   46.2340 C   0  0  0  0  0  0  0  0  0  0  0  0
   57.7710   32.5010   45.5350 C   0  0  0  0  0  0  0  0  0  0  0  0
   56.8180   33.2540   45.1920 O   0  0  0  0  0  0  0  0  0  0  0  0
   57.7540   31.1630   45.2320 N   0  0  0  0  0  0  0  0  0  0  0  0
   56.6360   30.5970   44.4590 C   0  0  0  0  0  0  0  0  0  0  0  0
   59.1580   28.3900   44.1670 C   0  0  0  0  0  0  0  0  0  0  0  0
   58.1450   27.3450   43.7130 C   0  0  0  0  0  0  0  0  0  0  0  0
   57.8916   21.0630   43.9553 H   0  0  0  0  0  0  0  0  0  0  0  0
   56.5057   21.9520   43.2374 H   0  0  0  0  0  0  0  0  0  0  0  0
   58.1433   22.6902   43.2374 H   0  0  0  0  0  0  0  0  0  0  0  0
   57.5683   24.7131   43.3493 H   0  0  0  0  0  0  0  0  0  0  0  0
   57.9587   25.9204   48.1802 H   0  0  0  0  0  0  0  0  0  0  0  0
   56.0369   22.7404   49.1630 H   0  0  0  0  0  0  0  0  0  0  0  0
   55.3246   23.4133   47.6575 H   0  0  0  0  0  0  0  0  0  0  0  0
   56.0280   21.7605   47.6575 H   0  0  0  0  0  0  0  0  0  0  0  0
   57.4343   28.4701   47.0259 H   0  0  0  0  0  0  0  0  0  0  0  0
   59.1850   28.0295   47.2894 H   0  0  0  0  0  0  0  0  0  0  0  0
   59.8980   34.1083   48.5880 H   0  0  0  0  0  0  0  0  0  0  0  0
   61.8768   34.9777   49.8383 H   0  0  0  0  0  0  0  0  0  0  0  0
   64.4736   32.4128   47.6447 H   0  0  0  0  0  0  0  0  0  0  0  0
   62.5440   31.4932   46.3541 H   0  0  0  0  0  0  0  0  0  0  0  0
   58.8617   34.1278   46.4719 H   0  0  0  0  0  0  0  0  0  0  0  0
   55.8718   30.2101   45.1492 H   0  0  0  0  0  0  0  0  0  0  0  0
   56.1948   31.3803   43.8252 H   0  0  0  0  0  0  0  0  0  0  0  0
   57.0061   29.7777   43.8252 H   0  0  0  0  0  0  0  0  0  0  0  0
   59.2021   29.2022   43.4265 H   0  0  0  0  0  0  0  0  0  0  0  0
   60.1484   27.9205   44.2602 H   0  0  0  0  0  0  0  0  0  0  0  0
   57.1770   27.8333   43.5271 H   0  0  0  0  0  0  0  0  0  0  0  0
   58.5075   26.8692   42.7898 H   0  0  0  0  0  0  0  0  0  0  0  0
  1  2  1  0
  2  3  1  0
  3  4  2  0
  4  5  1  0
  5  6  2  0
  6  7  1  0
  7  8  2  0
  8  9  1  0
  9 10  1  0
  6 11  1  0
 11 12  1  0
 12 13  1  0
 13 14  2  0
 14 15  1  0
 15 16  1  0
 16 17  2  0
 17 18  1  0
 18 19  2  0
 19 20  1  0
 20 21  2  0
 15 22  2  0
 22 23  1  0
 23 24  2  0
 23 25  1  0
 25 26  1  0
 12 27  1  0
 27 28  1  0
  8  3  1  0
 25 13  1  0
 28  5  1  0
 21 16  1  0
  1 29  1  0
  1 30  1  0
  1 31  1  0
  4 32  1  0
  7 33  1  0
 10 34  1  0
 10 35  1  0
 10 36  1  0
 11 37  1  0
 11 38  1  0
 17 39  1  0
 18 40  1  0
 20 41  1  0
 21 42  1  0
 22 43  1  0
 26 44  1  0
 26 45  1  0
 26 46  1  0
 27 47  1  0
 27 48  1  0
 28 49  1  0
 28 50  1  0
M  END
>  <UniqueID>  (46) 
42

>  <SMILES>  (46) 
COc1cc2c(cc1OC)CN(c1nc(-c3ccncc3)cc(=O)n1C)CC2

>  <Energy>  (46) 
68.04623932391593

>  <Genealogy>  (46) 
COc1cc2c(cc1OC)CN(c1nc(-c3ccncc3)cc(=O)n1C)CC2 (3D coordinates assigned)
COc1cc2c(cc1OC)CN(c1nc(-c3ccncc3)cc(=O)n1C)CC2 (nonaromatic ring conformer: 68.04623932391593 kcal/mol)

>  <smiles>  (46) 
COc1cc2c(cc1OC)CN(c1nc(-c3ccncc3)cc(=O)n1C)CC2

>  <score_type>  (46) 
oracle

>  <origin>  (46) 
adg

>  <m_score__min__energy>  (46) 
-7.5199999999999996

>  <m_primary>  (46) 
energy

$$$$
46:0
     RDKit          3D

 44 45  0  0  0  0  0  0  0  0999 V2000
   60.5810   26.4450   46.3820 C   0  0  0  0  0  0  0  0  0  0  0  0
   59.5280   27.3630   45.8350 C   0  0  0  0  0  0  0  0  0  0  0  0
   58.1660   27.0920   46.0490 C   0  0  0  0  0  0  0  0  0  0  0  0
   57.1870   27.9330   45.5090 C   0  0  0  0  0  0  0  0  0  0  0  0
   57.5590   29.0330   44.7280 C   0  0  0  0  0  0  0  0  0  0  0  0
   56.3030   30.1220   44.0460 S   0  0  0  0  0  0  0  0  0  0  0  0
   57.3960   31.5790   43.8900 C   0  0  0  0  0  0  0  0  0  0  0  0
   57.3970   32.4120   45.1760 C   0  0  0  0  0  0  0  0  0  0  0  0
   57.4110   33.9120   44.8770 C   0  0  0  0  0  0  0  0  0  0  0  0
   58.7220   34.3150   44.5310 O   0  0  0  0  0  0  0  0  0  0  0  0
   59.3560   34.9470   45.6280 C   0  0  0  0  0  0  0  0  0  0  0  0
   60.4810   34.0570   46.1750 C   0  0  0  0  0  0  0  0  0  0  0  0
   60.6290   34.1640   47.6980 C   0  0  0  0  0  0  0  0  0  0  0  0
   61.9920   33.7310   48.1630 C   0  0  0  0  0  0  0  0  0  0  0  0
   62.9070   33.1450   47.2760 C   0  0  0  0  0  0  0  0  0  0  0  0
   64.1400   32.7880   47.7240 N   0  0  0  0  0  0  0  0  0  0  0  0
   64.5030   32.9910   49.0190 C   0  0  0  0  0  0  0  0  0  0  0  0
   63.5960   33.5790   49.9030 C   0  0  0  0  0  0  0  0  0  0  0  0
   62.3640   33.9370   49.4560 N   0  0  0  0  0  0  0  0  0  0  0  0
   58.9150   29.3000   44.5020 C   0  0  0  0  0  0  0  0  0  0  0  0
   59.8950   28.4660   45.0480 C   0  0  0  0  0  0  0  0  0  0  0  0
   60.5533   26.4691   47.4814 H   0  0  0  0  0  0  0  0  0  0  0  0
   60.3907   25.4194   46.0328 H   0  0  0  0  0  0  0  0  0  0  0  0
   61.5711   26.7734   46.0328 H   0  0  0  0  0  0  0  0  0  0  0  0
   57.8684   26.2155   46.6432 H   0  0  0  0  0  0  0  0  0  0  0  0
   56.1228   27.7292   45.6987 H   0  0  0  0  0  0  0  0  0  0  0  0
   58.4210   31.2379   43.6828 H   0  0  0  0  0  0  0  0  0  0  0  0
   57.0226   32.2078   43.0683 H   0  0  0  0  0  0  0  0  0  0  0  0
   56.4941   32.1725   45.7568 H   0  0  0  0  0  0  0  0  0  0  0  0
   58.3067   32.1664   45.7435 H   0  0  0  0  0  0  0  0  0  0  0  0
   56.7298   34.1247   44.0399 H   0  0  0  0  0  0  0  0  0  0  0  0
   57.0824   34.4653   45.7692 H   0  0  0  0  0  0  0  0  0  0  0  0
   59.7799   35.9072   45.2988 H   0  0  0  0  0  0  0  0  0  0  0  0
   58.6141   35.1165   46.4223 H   0  0  0  0  0  0  0  0  0  0  0  0
   60.2610   33.0111   45.9149 H   0  0  0  0  0  0  0  0  0  0  0  0
   61.4247   34.3971   45.7235 H   0  0  0  0  0  0  0  0  0  0  0  0
   60.4670   35.2098   47.9980 H   0  0  0  0  0  0  0  0  0  0  0  0
   59.8850   33.4981   48.1594 H   0  0  0  0  0  0  0  0  0  0  0  0
   62.6289   32.9755   46.2253 H   0  0  0  0  0  0  0  0  0  0  0  0
   64.8210   32.3510   47.0640 H   0  0  0  0  0  0  0  0  0  0  0  0
   65.5033   32.6943   49.3672 H   0  0  0  0  0  0  0  0  0  0  0  0
   63.8767   33.7509   50.9526 H   0  0  0  0  0  0  0  0  0  0  0  0
   59.2096   30.1678   43.8936 H   0  0  0  0  0  0  0  0  0  0  0  0
   60.9585   28.6750   44.8601 H   0  0  0  0  0  0  0  0  0  0  0  0
  1  2  1  0
  2  3  2  0
  3  4  1  0
  4  5  2  0
  5  6  1  0
  6  7  1  0
  7  8  1  0
  8  9  1  0
  9 10  1  0
 10 11  1  0
 11 12  1  0
 12 13  1  0
 13 14  1  0
 14 15  2  0
 15 16  1  0
 16 17  2  0
 17 18  1  0
 18 19  2  0
  5 20  1  0
 20 21  2  0
 21  2  1  0
 19 14  1  0
  1 22  1  0
  1 23  1  0
  1 24  1  0
  3 25  1  0
  4 26  1  0
  7 27  1  0
  7 28  1  0
  8 29  1  0
  8 30  1  0
  9 31  1  0
  9 32  1  0
 11 33  1  0
 11 34  1  0
 12 35  1  0
 12 36  1  0
 13 37  1  0
 13 38  1  0
 15 39  1  0
 16 40  1  0
 17 41  1  0
 18 42  1  0
 20 43  1  0
 21 44  1  0
M  CHG  1  16   1
M  END
>  <UniqueID>  (47) 
43

>  <SMILES>  (47) 
Cc1ccc(SCCCOCCCc2c[nH+]ccn2)cc1

>  <Energy>  (47) 
34.1942529524383

>  <Genealogy>  (47) 
Cc1ccc(SCCCOCCCc2c[nH+]ccn2)cc1 (protonated)
Cc1ccc(SCCCOCCCc2c[nH+]ccn2)cc1 (3D coordinates assigned)
Cc1ccc(SCCCOCCCc2c[nH+]ccn2)cc1 (optimized conformer: 34.1942529524383 kcal/mol)

>  <smiles>  (47) 
Cc1ccc(SCCCOCCCc2cnccn2)cc1

>  <score_type>  (47) 
oracle

>  <origin>  (47) 
adg

>  <m_score__min__energy>  (47) 
-5.7199999999999998

>  <m_primary>  (47) 
energy

$$$$
