0:0
     RDKit          3D

 42 44  0  0  0  0  0  0  0  0999 V2000
   60.4100   29.7970   47.6010 C   0  0  0  0  0  0  0  0  0  0  0  0
   60.9070   31.0490   47.1410 O   0  0  0  0  0  0  0  0  0  0  0  0
   61.8750   31.8180   47.8110 C   0  0  0  0  0  0  0  0  0  0  0  0
   62.6370   31.2920   48.8730 C   0  0  0  0  0  0  0  0  0  0  0  0
   63.5920   32.0810   49.5170 C   0  0  0  0  0  0  0  0  0  0  0  0
   63.7990   33.4000   49.1110 C   0  0  0  0  0  0  0  0  0  0  0  0
   63.0520   33.9350   48.0600 C   0  0  0  0  0  0  0  0  0  0  0  0
   62.0870   33.1520   47.4040 C   0  0  0  0  0  0  0  0  0  0  0  0
   61.2940   33.7370   46.2610 C   0  0  0  0  0  0  0  0  0  0  0  0
   60.1020   34.4480   46.7740 N   0  0  0  0  0  0  0  0  0  0  0  0
   59.2560   34.9690   45.6790 C   0  0  0  0  0  0  0  0  0  0  0  0
   58.6270   33.8280   44.8630 C   0  0  0  0  0  0  0  0  0  0  0  0
   58.2330   32.7210   45.7390 N   0  0  0  0  0  0  0  0  0  0  0  0
   57.8880   31.4480   45.1610 C   0  0  0  0  0  0  0  0  0  0  0  0
   56.6320   31.2500   44.6750 N   0  0  0  0  0  0  0  0  0  0  0  0
   56.2750   30.0670   44.1090 C   0  0  0  0  0  0  0  0  0  0  0  0
   57.2050   29.0350   44.0140 C   0  0  0  0  0  0  0  0  0  0  0  0
   58.4930   29.2560   44.4980 C   0  0  0  0  0  0  0  0  0  0  0  0
   58.8160   30.4520   45.0570 N   0  0  0  0  0  0  0  0  0  0  0  0
   58.0640   32.9840   47.1710 C   0  0  0  0  0  0  0  0  0  0  0  0
   59.3350   33.6350   47.7550 C   0  0  0  0  0  0  0  0  0  0  0  0
   60.4056   29.7860   48.7009 H   0  0  0  0  0  0  0  0  0  0  0  0
   59.3854   29.6501   47.2288 H   0  0  0  0  0  0  0  0  0  0  0  0
   61.0549   28.9874   47.2288 H   0  0  0  0  0  0  0  0  0  0  0  0
   62.4784   30.2528   49.1969 H   0  0  0  0  0  0  0  0  0  0  0  0
   64.1821   31.6624   50.3456 H   0  0  0  0  0  0  0  0  0  0  0  0
   64.5522   34.0193   49.6201 H   0  0  0  0  0  0  0  0  0  0  0  0
   63.2197   34.9751   47.7437 H   0  0  0  0  0  0  0  0  0  0  0  0
   61.9269   34.4441   45.7047 H   0  0  0  0  0  0  0  0  0  0  0  0
   60.9670   32.9222   45.5983 H   0  0  0  0  0  0  0  0  0  0  0  0
   58.4532   35.5855   46.1096 H   0  0  0  0  0  0  0  0  0  0  0  0
   59.8897   35.5661   45.0068 H   0  0  0  0  0  0  0  0  0  0  0  0
   57.7378   34.2071   44.3379 H   0  0  0  0  0  0  0  0  0  0  0  0
   59.3692   33.4597   44.1395 H   0  0  0  0  0  0  0  0  0  0  0  0
   55.2534   29.9251   43.7267 H   0  0  0  0  0  0  0  0  0  0  0  0
   56.9295   28.0682   43.5675 H   0  0  0  0  0  0  0  0  0  0  0  0
   59.2498   28.4608   44.4275 H   0  0  0  0  0  0  0  0  0  0  0  0
   59.7980   30.6050   45.3740 H   0  0  0  0  0  0  0  0  0  0  0  0
   57.2105   33.6626   47.3161 H   0  0  0  0  0  0  0  0  0  0  0  0
   57.8829   32.0305   47.6887 H   0  0  0  0  0  0  0  0  0  0  0  0
   59.0376   34.2882   48.5886 H   0  0  0  0  0  0  0  0  0  0  0  0
   59.9950   32.8152   48.0749 H   0  0  0  0  0  0  0  0  0  0  0  0
  1  2  1  0
  2  3  1  0
  3  4  2  0
  4  5  1  0
  5  6  2  0
  6  7  1  0
  7  8  2  0
  8  9  1  0
  9 10  1  0
 10 11  1  0
 11 12  1  0
 12 13  1  0
 13 14  1  0
 14 15  2  0
 15 16  1  0
 16 17  2  0
 17 18  1  0
 18 19  2  0
 13 20  1  0
 20 21  1  0
  8  3  1  0
 21 10  1  0
 19 14  1  0
  1 22  1  0
  1 23  1  0
  1 24  1  0
  4 25  1  0
  5 26  1  0
  6 27  1  0
  7 28  1  0
  9 29  1  0
  9 30  1  0
 11 31  1  0
 11 32  1  0
 12 33  1  0
 12 34  1  0
 16 35  1  0
 17 36  1  0
 18 37  1  0
 19 38  1  0
 20 39  1  0
 20 40  1  0
 21 41  1  0
 21 42  1  0
M  CHG  1  19   1
M  END
>  <UniqueID>  (1) 
1

>  <SMILES>  (1) 
COc1ccccc1CN1CCN(c2nccc[nH+]2)CC1

>  <Energy>  (1) 
53.90601229592483

>  <Genealogy>  (1) 
COc1ccccc1CN1CCN(c2nccc[nH+]2)CC1 (protonated)
COc1ccccc1CN1CCN(c2nccc[nH+]2)CC1 (3D coordinates assigned)
COc1ccccc1CN1CCN(c2nccc[nH+]2)CC1 (nonaromatic ring conformer: 53.90601229592483 kcal/mol)

>  <smiles>  (1) 
COc1ccccc1CN1CCN(c2ncccn2)CC1

>  <score_type>  (1) 
oracle

>  <origin>  (1) 
adg

>  <m_score__min__energy>  (1) 
-5.1200000000000001

>  <m_primary>  (1) 
energy

$$$$
1:0
     RDKit          3D

 47 48  0  0  0  0  0  0  0  0999 V2000
   61.5980   33.4550   50.1160 C   0  0  0  0  0  0  0  0  0  0  0  0
   62.6580   34.3330   49.4500 C   0  0  0  0  0  0  0  0  0  0  0  0
   63.6320   33.5240   48.5710 C   0  0  0  0  0  0  0  0  0  0  0  0
   63.1550   33.3560   47.1150 C   0  0  0  0  0  0  0  0  0  0  0  0
   61.9220   32.5470   47.0220 N   0  0  0  0  0  0  0  0  0  0  0  0
   62.0450   31.2020   47.2360 C   0  0  0  0  0  0  0  0  0  0  0  0
   60.9390   30.3660   47.2350 C   0  0  0  0  0  0  0  0  0  0  0  0
   59.6580   30.8800   47.0130 C   0  0  0  0  0  0  0  0  0  0  0  0
   58.5240   29.9790   47.0930 N   0  0  0  0  0  0  0  0  0  0  0  0
   58.6450   28.8460   46.1530 C   0  0  0  0  0  0  0  0  0  0  0  0
   57.9850   29.1120   44.7840 C   0  0  0  0  0  0  0  0  0  0  0  0
   56.9950   30.2090   44.8480 N   0  0  0  0  0  0  0  0  0  0  0  0
   57.3810   31.2920   43.9280 C   0  0  0  0  0  0  0  0  0  0  0  0
   55.6460   29.7280   44.5030 C   0  0  0  0  0  0  0  0  0  0  0  0
   59.5180   32.2680   46.7500 C   0  0  0  0  0  0  0  0  0  0  0  0
   58.2590   32.8490   46.4790 C   0  0  0  0  0  0  0  0  0  0  0  0
   58.1400   34.2140   46.2300 C   0  0  0  0  0  0  0  0  0  0  0  0
   59.2660   35.0260   46.2390 C   0  0  0  0  0  0  0  0  0  0  0  0
   60.5230   34.4820   46.4960 C   0  0  0  0  0  0  0  0  0  0  0  0
   60.6810   33.0990   46.7590 C   0  0  0  0  0  0  0  0  0  0  0  0
   61.6917   33.5326   51.2093 H   0  0  0  0  0  0  0  0  0  0  0  0
   60.5970   33.7921   49.8089 H   0  0  0  0  0  0  0  0  0  0  0  0
   61.7428   32.4087   49.8089 H   0  0  0  0  0  0  0  0  0  0  0  0
   62.1520   35.0793   48.8199 H   0  0  0  0  0  0  0  0  0  0  0  0
   63.2466   34.8079   50.2488 H   0  0  0  0  0  0  0  0  0  0  0  0
   64.6030   34.0409   48.5614 H   0  0  0  0  0  0  0  0  0  0  0  0
   63.6988   32.5162   49.0069 H   0  0  0  0  0  0  0  0  0  0  0  0
   62.9588   34.3511   46.6893 H   0  0  0  0  0  0  0  0  0  0  0  0
   63.9459   32.8317   46.5586 H   0  0  0  0  0  0  0  0  0  0  0  0
   63.0429   30.7742   47.4127 H   0  0  0  0  0  0  0  0  0  0  0  0
   61.0707   29.2881   47.4105 H   0  0  0  0  0  0  0  0  0  0  0  0
   58.4210   29.6180   48.0680 H   0  0  0  0  0  0  0  0  0  0  0  0
   57.6320   30.4910   46.8990 H   0  0  0  0  0  0  0  0  0  0  0  0
   59.7133   28.6401   45.9908 H   0  0  0  0  0  0  0  0  0  0  0  0
   58.1207   27.9914   46.6055 H   0  0  0  0  0  0  0  0  0  0  0  0
   58.7674   29.3820   44.0594 H   0  0  0  0  0  0  0  0  0  0  0  0
   57.4572   28.1965   44.4785 H   0  0  0  0  0  0  0  0  0  0  0  0
   57.6947   32.1720   44.5087 H   0  0  0  0  0  0  0  0  0  0  0  0
   58.2144   30.9550   43.2940 H   0  0  0  0  0  0  0  0  0  0  0  0
   56.5223   31.5580   43.2940 H   0  0  0  0  0  0  0  0  0  0  0  0
   55.0815   29.5267   45.4254 H   0  0  0  0  0  0  0  0  0  0  0  0
   55.1230   30.4950   43.9130 H   0  0  0  0  0  0  0  0  0  0  0  0
   55.7263   28.8031   43.9130 H   0  0  0  0  0  0  0  0  0  0  0  0
   57.3605   32.2145   46.4645 H   0  0  0  0  0  0  0  0  0  0  0  0
   57.1510   34.6500   46.0256 H   0  0  0  0  0  0  0  0  0  0  0  0
   59.1655   36.1036   46.0424 H   0  0  0  0  0  0  0  0  0  0  0  0
   61.4067   35.1370   46.4946 H   0  0  0  0  0  0  0  0  0  0  0  0
  1  2  1  0
  2  3  1  0
  3  4  1  0
  4  5  1  0
  5  6  2  0
  6  7  1  0
  7  8  2  0
  8  9  1  0
  9 10  1  0
 10 11  1  0
 11 12  1  0
 12 13  1  0
 12 14  1  0
  8 15  1  0
 15 16  2  0
 16 17  1  0
 17 18  2  0
 18 19  1  0
 19 20  2  0
 20  5  1  0
 20 15  1  0
  1 21  1  0
  1 22  1  0
  1 23  1  0
  2 24  1  0
  2 25  1  0
  3 26  1  0
  3 27  1  0
  4 28  1  0
  4 29  1  0
  6 30  1  0
  7 31  1  0
  9 32  1  0
  9 33  1  0
 10 34  1  0
 10 35  1  0
 11 36  1  0
 11 37  1  0
 13 38  1  0
 13 39  1  0
 13 40  1  0
 14 41  1  0
 14 42  1  0
 14 43  1  0
 16 44  1  0
 17 45  1  0
 18 46  1  0
 19 47  1  0
M  CHG  2   5   1   9   1
M  END
>  <UniqueID>  (2) 
2

>  <SMILES>  (2) 
CCCC[n+]1ccc([NH2+]CCN(C)C)c2ccccc21

>  <Energy>  (2) 
52.36053091176334

>  <Genealogy>  (2) 
CCCC[n+]1ccc([NH2+]CCN(C)C)c2ccccc21 (protonated)
CCCC[n+]1ccc([NH2+]CCN(C)C)c2ccccc21 (3D coordinates assigned)
CCCC[n+]1ccc([NH2+]CCN(C)C)c2ccccc21 (optimized conformer: 52.36053091176334 kcal/mol)

>  <smiles>  (2) 
CCCC[n+]1ccc(NCCN(C)C)c2ccccc21

>  <score_type>  (2) 
oracle

>  <origin>  (2) 
adg

>  <m_score__min__energy>  (2) 
-3.1699999999999999

>  <m_primary>  (2) 
energy

$$$$
2:0
     RDKit          3D

 57 59  0  0  0  0  0  0  0  0999 V2000
   60.7690   29.7120   48.5970 C   0  0  0  0  0  0  0  0  0  0  0  0
   60.6720   30.1250   47.1260 C   0  0  0  0  0  0  0  0  0  0  0  0
   59.2840   30.1230   46.6370 N   0  0  0  0  0  0  0  0  0  0  0  0
   58.9350   28.8880   45.9200 C   0  0  0  0  0  0  0  0  0  0  0  0
   57.5450   29.0200   45.2900 C   0  0  0  0  0  0  0  0  0  0  0  0
   57.4590   30.2510   44.3810 C   0  0  0  0  0  0  0  0  0  0  0  0
   57.2040   31.4580   45.1900 N   0  0  0  0  0  0  0  0  0  0  0  0
   57.7810   32.6820   44.6080 C   0  0  0  0  0  0  0  0  0  0  0  0
   57.3970   33.9330   45.4210 C   0  0  0  0  0  0  0  0  0  0  0  0
   58.4060   34.2430   46.5330 C   0  0  0  0  0  0  0  0  0  0  0  0
   58.7400   33.0260   47.2690 N   0  0  0  0  0  0  0  0  0  0  0  0
   59.7400   33.0440   48.3030 C   0  0  0  0  0  0  0  0  0  0  0  0
   61.0800   33.3400   47.9930 C   0  0  0  0  0  0  0  0  0  0  0  0
   61.4880   33.5510   46.6580 C   0  0  0  0  0  0  0  0  0  0  0  0
   62.8220   33.8100   46.3530 C   0  0  0  0  0  0  0  0  0  0  0  0
   63.7720   33.8540   47.3660 C   0  0  0  0  0  0  0  0  0  0  0  0
   63.3900   33.6670   48.6950 C   0  0  0  0  0  0  0  0  0  0  0  0
   62.0340   33.4410   49.0430 C   0  0  0  0  0  0  0  0  0  0  0  0
   61.6340   33.3110   50.3600 N   0  0  0  0  0  0  0  0  0  0  0  0
   62.5520   33.7050   51.4530 C   0  0  0  0  0  0  0  0  0  0  0  0
   60.3690   32.8370   50.6540 C   0  0  0  0  0  0  0  0  0  0  0  0
   60.0120   32.4310   51.9650 C   0  0  0  0  0  0  0  0  0  0  0  0
   58.7170   32.0060   52.2590 C   0  0  0  0  0  0  0  0  0  0  0  0
   57.7560   31.9470   51.2570 C   0  0  0  0  0  0  0  0  0  0  0  0
   58.0900   32.2910   49.9500 C   0  0  0  0  0  0  0  0  0  0  0  0
   59.3910   32.7340   49.6300 C   0  0  0  0  0  0  0  0  0  0  0  0
   60.5644   30.5832   49.2367 H   0  0  0  0  0  0  0  0  0  0  0  0
   60.0318   28.9227   48.8056 H   0  0  0  0  0  0  0  0  0  0  0  0
   61.7805   29.3334   48.8056 H   0  0  0  0  0  0  0  0  0  0  0  0
   61.0850   31.1385   47.0149 H   0  0  0  0  0  0  0  0  0  0  0  0
   61.2396   29.3933   46.5323 H   0  0  0  0  0  0  0  0  0  0  0  0
   59.1340   30.9430   46.0020 H   0  0  0  0  0  0  0  0  0  0  0  0
   59.6770   28.7045   45.1290 H   0  0  0  0  0  0  0  0  0  0  0  0
   58.9300   28.0483   46.6306 H   0  0  0  0  0  0  0  0  0  0  0  0
   57.3349   28.1195   44.6942 H   0  0  0  0  0  0  0  0  0  0  0  0
   56.8074   29.1335   46.0981 H   0  0  0  0  0  0  0  0  0  0  0  0
   58.4082   30.3701   43.8381 H   0  0  0  0  0  0  0  0  0  0  0  0
   56.6348   30.1149   43.6654 H   0  0  0  0  0  0  0  0  0  0  0  0
   56.1680   31.5960   45.2410 H   0  0  0  0  0  0  0  0  0  0  0  0
   58.8769   32.5881   44.5939 H   0  0  0  0  0  0  0  0  0  0  0  0
   57.3832   32.7987   43.5891 H   0  0  0  0  0  0  0  0  0  0  0  0
   57.3472   34.7950   44.7395 H   0  0  0  0  0  0  0  0  0  0  0  0
   56.4248   33.7370   45.8969 H   0  0  0  0  0  0  0  0  0  0  0  0
   59.3210   34.6597   46.0868 H   0  0  0  0  0  0  0  0  0  0  0  0
   57.9603   34.9701   47.2277 H   0  0  0  0  0  0  0  0  0  0  0  0
   58.4410   32.1070   46.8680 H   0  0  0  0  0  0  0  0  0  0  0  0
   60.7435   33.5104   45.8492 H   0  0  0  0  0  0  0  0  0  0  0  0
   63.1239   33.9799   45.3090 H   0  0  0  0  0  0  0  0  0  0  0  0
   64.8283   34.0368   47.1196 H   0  0  0  0  0  0  0  0  0  0  0  0
   64.1537   33.6954   49.4862 H   0  0  0  0  0  0  0  0  0  0  0  0
   62.0758   33.5006   52.4233 H   0  0  0  0  0  0  0  0  0  0  0  0
   63.4853   33.1282   51.3738 H   0  0  0  0  0  0  0  0  0  0  0  0
   62.7768   34.7789   51.3738 H   0  0  0  0  0  0  0  0  0  0  0  0
   60.7690   32.4517   52.7629 H   0  0  0  0  0  0  0  0  0  0  0  0
   58.4552   31.7165   53.2874 H   0  0  0  0  0  0  0  0  0  0  0  0
   56.7308   31.6283   51.4967 H   0  0  0  0  0  0  0  0  0  0  0  0
   57.3308   32.2166   49.1574 H   0  0  0  0  0  0  0  0  0  0  0  0
  1  2  1  0
  2  3  1  0
  3  4  1  0
  4  5  1  0
  5  6  1  0
  6  7  1  0
  7  8  1  0
  8  9  1  0
  9 10  1  0
 10 11  1  0
 11 12  1  0
 12 13  2  0
 13 14  1  0
 14 15  2  0
 15 16  1  0
 16 17  2  0
 17 18  1  0
 18 19  2  0
 19 20  1  0
 19 21  1  0
 21 22  2  0
 22 23  1  0
 23 24  2  0
 24 25  1  0
 25 26  2  0
 26 12  1  0
 18 13  1  0
 26 21  1  0
  1 27  1  0
  1 28  1  0
  1 29  1  0
  2 30  1  0
  2 31  1  0
  3 32  1  0
  4 33  1  0
  4 34  1  0
  5 35  1  0
  5 36  1  0
  6 37  1  0
  6 38  1  0
  7 39  1  0
  8 40  1  0
  8 41  1  0
  9 42  1  0
  9 43  1  0
 10 44  1  0
 10 45  1  0
 11 46  1  0
 14 47  1  0
 15 48  1  0
 16 49  1  0
 17 50  1  0
 20 51  1  0
 20 52  1  0
 20 53  1  0
 22 54  1  0
 23 55  1  0
 24 56  1  0
 25 57  1  0
M  CHG  1  19   1
M  END
>  <UniqueID>  (3) 
3

>  <SMILES>  (3) 
CCNCCCNCCCNc1c2ccccc2[n+](C)c2ccccc12

>  <Energy>  (3) 
73.60557469505997

>  <Genealogy>  (3) 
CCNCCCNCCCNc1c2ccccc2[n+](C)c2ccccc12 (3D coordinates assigned)
CCNCCCNCCCNc1c2ccccc2[n+](C)c2ccccc12 (optimized conformer: 73.60557469505997 kcal/mol)

>  <smiles>  (3) 
CCNCCCNCCCNc1c2ccccc2[n+](C)c2ccccc12

>  <score_type>  (3) 
oracle

>  <origin>  (3) 
adg

>  <m_score__min__energy>  (3) 
-6.1699999999999999

>  <m_primary>  (3) 
energy

$$$$
3:0
     RDKit          3D

 56 58  0  0  0  0  0  0  0  0999 V2000
   58.8410   29.3410   46.2110 C   0  0  0  0  0  0  0  0  0  0  0  0
   57.4310   29.2720   45.6310 C   0  0  0  0  0  0  0  0  0  0  0  0
   57.0130   30.6040   45.1330 N   0  0  0  0  0  0  0  0  0  0  0  0
   56.1250   30.4770   43.9540 C   0  0  0  0  0  0  0  0  0  0  0  0
   56.6480   29.3940   43.0140 C   0  0  0  0  0  0  0  0  0  0  0  0
   58.1830   31.4700   44.8450 C   0  0  0  0  0  0  0  0  0  0  0  0
   57.7950   32.5660   43.8530 C   0  0  0  0  0  0  0  0  0  0  0  0
   57.9180   33.8340   44.4600 O   0  0  0  0  0  0  0  0  0  0  0  0
   57.2990   33.8450   45.7340 C   0  0  0  0  0  0  0  0  0  0  0  0
   58.3430   34.1230   46.8200 C   0  0  0  0  0  0  0  0  0  0  0  0
   59.6660   34.3520   46.2370 N   0  0  0  0  0  0  0  0  0  0  0  0
   60.9140   34.0470   46.8890 C   0  0  0  0  0  0  0  0  0  0  0  0
   62.0950   33.8090   46.1630 C   0  0  0  0  0  0  0  0  0  0  0  0
   63.2930   33.5460   46.8290 C   0  0  0  0  0  0  0  0  0  0  0  0
   63.3360   33.5070   48.2310 C   0  0  0  0  0  0  0  0  0  0  0  0
   64.5060   33.2630   48.8770 N   0  0  0  0  0  0  0  0  0  0  0  0
   64.5750   33.2220   50.2430 C   0  0  0  0  0  0  0  0  0  0  0  0
   65.8130   32.9730   50.8950 C   0  0  0  0  0  0  0  0  0  0  0  0
   67.0930   32.7510   50.1330 C   0  0  0  0  0  0  0  0  0  0  0  0
   65.8460   32.9320   52.2940 C   0  0  0  0  0  0  0  0  0  0  0  0
   64.6860   33.1330   53.0270 C   0  0  0  0  0  0  0  0  0  0  0  0
   63.4870   33.3780   52.3650 C   0  0  0  0  0  0  0  0  0  0  0  0
   63.4310   33.4250   50.9940 N   0  0  0  0  0  0  0  0  0  0  0  0
   62.2320   33.6740   50.3700 C   0  0  0  0  0  0  0  0  0  0  0  0
   61.1820   33.8600   51.0490 O   0  0  0  0  0  0  0  0  0  0  0  0
   62.1610   33.7250   48.9680 C   0  0  0  0  0  0  0  0  0  0  0  0
   60.9540   33.9910   48.2910 C   0  0  0  0  0  0  0  0  0  0  0  0
   58.7861   29.3383   47.3096 H   0  0  0  0  0  0  0  0  0  0  0  0
   59.4205   28.4701   45.8707 H   0  0  0  0  0  0  0  0  0  0  0  0
   59.3327   30.2643   45.8707 H   0  0  0  0  0  0  0  0  0  0  0  0
   57.4158   28.5526   44.7990 H   0  0  0  0  0  0  0  0  0  0  0  0
   56.7352   28.9509   46.4201 H   0  0  0  0  0  0  0  0  0  0  0  0
   55.1122   30.2090   44.2892 H   0  0  0  0  0  0  0  0  0  0  0  0
   56.1014   31.4370   43.4175 H   0  0  0  0  0  0  0  0  0  0  0  0
   57.0514   28.5587   43.6053 H   0  0  0  0  0  0  0  0  0  0  0  0
   55.8260   29.0308   42.3796 H   0  0  0  0  0  0  0  0  0  0  0  0
   57.4435   29.8120   42.3796 H   0  0  0  0  0  0  0  0  0  0  0  0
   58.5319   31.9327   45.7800 H   0  0  0  0  0  0  0  0  0  0  0  0
   58.9851   30.8571   44.4081 H   0  0  0  0  0  0  0  0  0  0  0  0
   58.4586   32.5158   42.9772 H   0  0  0  0  0  0  0  0  0  0  0  0
   56.7512   32.4159   43.5402 H   0  0  0  0  0  0  0  0  0  0  0  0
   56.5294   34.6306   45.7586 H   0  0  0  0  0  0  0  0  0  0  0  0
   56.8364   32.8645   45.9197 H   0  0  0  0  0  0  0  0  0  0  0  0
   58.0415   35.0160   47.3872 H   0  0  0  0  0  0  0  0  0  0  0  0
   58.4008   33.2450   47.4802 H   0  0  0  0  0  0  0  0  0  0  0  0
   59.6930   34.7380   45.2660 H   0  0  0  0  0  0  0  0  0  0  0  0
   62.0743   33.8303   45.0634 H   0  0  0  0  0  0  0  0  0  0  0  0
   64.2112   33.3678   46.2500 H   0  0  0  0  0  0  0  0  0  0  0  0
   65.3600   33.1080   48.2970 H   0  0  0  0  0  0  0  0  0  0  0  0
   67.9216   32.6073   50.8420 H   0  0  0  0  0  0  0  0  0  0  0  0
   66.9926   31.8569   49.5002 H   0  0  0  0  0  0  0  0  0  0  0  0
   67.2996   33.6267   49.5002 H   0  0  0  0  0  0  0  0  0  0  0  0
   66.7960   32.7395   52.8140 H   0  0  0  0  0  0  0  0  0  0  0  0
   64.7137   33.0989   54.1261 H   0  0  0  0  0  0  0  0  0  0  0  0
   62.5689   33.5366   52.9497 H   0  0  0  0  0  0  0  0  0  0  0  0
   60.0323   34.1567   48.8681 H   0  0  0  0  0  0  0  0  0  0  0  0
  1  2  1  0
  2  3  1  0
  3  4  1  0
  4  5  1  0
  3  6  1  0
  6  7  1  0
  7  8  1  0
  8  9  1  0
  9 10  1  0
 10 11  1  0
 11 12  1  0
 12 13  2  0
 13 14  1  0
 14 15  2  0
 15 16  1  0
 16 17  2  0
 17 18  1  0
 18 19  1  0
 18 20  2  0
 20 21  1  0
 21 22  2  0
 22 23  1  0
 23 24  1  0
 24 25  2  0
 24 26  1  0
 26 27  2  0
 27 12  1  0
 26 15  1  0
 23 17  1  0
  1 28  1  0
  1 29  1  0
  1 30  1  0
  2 31  1  0
  2 32  1  0
  4 33  1  0
  4 34  1  0
  5 35  1  0
  5 36  1  0
  5 37  1  0
  6 38  1  0
  6 39  1  0
  7 40  1  0
  7 41  1  0
  9 42  1  0
  9 43  1  0
 10 44  1  0
 10 45  1  0
 11 46  1  0
 13 47  1  0
 14 48  1  0
 16 49  1  0
 19 50  1  0
 19 51  1  0
 19 52  1  0
 20 53  1  0
 21 54  1  0
 22 55  1  0
 27 56  1  0
M  CHG  1  16   1
M  END
>  <UniqueID>  (4) 
4

>  <SMILES>  (4) 
CCN(CC)CCOCCNc1ccc2[nH+]c3c(C)cccn3c(=O)c2c1

>  <Energy>  (4) 
66.86155665259713

>  <Genealogy>  (4) 
CCN(CC)CCOCCNc1ccc2[nH+]c3c(C)cccn3c(=O)c2c1 (protonated)
CCN(CC)CCOCCNc1ccc2[nH+]c3c(C)cccn3c(=O)c2c1 (3D coordinates assigned)
CCN(CC)CCOCCNc1ccc2[nH+]c3c(C)cccn3c(=O)c2c1 (optimized conformer: 66.86155665259713 kcal/mol)

>  <smiles>  (4) 
CCN(CC)CCOCCNc1ccc2nc3c(C)cccn3c(=O)c2c1

>  <score_type>  (4) 
oracle

>  <origin>  (4) 
adg

>  <m_score__min__energy>  (4) 
-6.6399999999999997

>  <m_primary>  (4) 
energy

$$$$
4:0
     RDKit          3D

 48 51  0  0  0  0  0  0  0  0999 V2000
   58.9300   34.1760   45.2570 C   0  0  0  0  0  0  0  0  0  0  0  0
   59.1290   32.9850   46.0990 N   0  0  0  0  0  0  0  0  0  0  0  0
   59.8620   33.0390   47.2760 C   0  0  0  0  0  0  0  0  0  0  0  0
   60.7010   34.1430   47.5620 C   0  0  0  0  0  0  0  0  0  0  0  0
   61.3910   34.2290   48.7690 C   0  0  0  0  0  0  0  0  0  0  0  0
   61.2740   33.2220   49.7150 C   0  0  0  0  0  0  0  0  0  0  0  0
   60.4970   32.0960   49.4530 C   0  0  0  0  0  0  0  0  0  0  0  0
   59.8000   31.9590   48.2290 C   0  0  0  0  0  0  0  0  0  0  0  0
   59.0460   30.7860   47.9140 C   0  0  0  0  0  0  0  0  0  0  0  0
   58.9160   29.6500   48.8120 N   0  0  0  0  0  0  0  0  0  0  0  0
   60.1940   28.9370   48.9820 C   0  0  0  0  0  0  0  0  0  0  0  0
   60.4050   27.8480   47.9100 C   0  0  0  0  0  0  0  0  0  0  0  0
   59.1740   27.5790   47.1450 N   0  0  0  0  0  0  0  0  0  0  0  0
   59.0630   26.1740   46.7230 C   0  0  0  0  0  0  0  0  0  0  0  0
   58.1810   26.0660   45.4820 C   0  0  0  0  0  0  0  0  0  0  0  0
   56.3120   26.0380   45.9900 Br  0  0  0  0  0  0  0  0  0  0  0  0
   58.4300   30.7490   46.6580 C   0  0  0  0  0  0  0  0  0  0  0  0
   57.7170   29.7270   46.1290 N   0  0  0  0  0  0  0  0  0  0  0  0
   57.3810   30.1290   44.8880 C   0  0  0  0  0  0  0  0  0  0  0  0
   56.6840   29.3820   43.9390 C   0  0  0  0  0  0  0  0  0  0  0  0
   56.4940   29.9440   42.6670 C   0  0  0  0  0  0  0  0  0  0  0  0
   57.0180   31.2170   42.3640 C   0  0  0  0  0  0  0  0  0  0  0  0
   57.7230   31.9510   43.3340 C   0  0  0  0  0  0  0  0  0  0  0  0
   57.8610   31.3950   44.6130 C   0  0  0  0  0  0  0  0  0  0  0  0
   58.5170   31.8050   45.7750 C   0  0  0  0  0  0  0  0  0  0  0  0
   58.7827   35.0577   45.8980 H   0  0  0  0  0  0  0  0  0  0  0  0
   59.8152   34.3281   44.6219 H   0  0  0  0  0  0  0  0  0  0  0  0
   58.0434   34.0321   44.6219 H   0  0  0  0  0  0  0  0  0  0  0  0
   60.8098   34.9464   46.8185 H   0  0  0  0  0  0  0  0  0  0  0  0
   62.0316   35.0997   48.9726 H   0  0  0  0  0  0  0  0  0  0  0  0
   61.7978   33.3129   50.6780 H   0  0  0  0  0  0  0  0  0  0  0  0
   60.4240   31.3007   50.2094 H   0  0  0  0  0  0  0  0  0  0  0  0
   58.1620   28.9890   48.5320 H   0  0  0  0  0  0  0  0  0  0  0  0
   58.6080   29.9980   49.7490 H   0  0  0  0  0  0  0  0  0  0  0  0
   61.0164   29.6643   48.9138 H   0  0  0  0  0  0  0  0  0  0  0  0
   60.1749   28.4424   49.9643 H   0  0  0  0  0  0  0  0  0  0  0  0
   61.1893   28.1817   47.2146 H   0  0  0  0  0  0  0  0  0  0  0  0
   60.6958   26.9192   48.4225 H   0  0  0  0  0  0  0  0  0  0  0  0
   59.1390   28.1980   46.3010 H   0  0  0  0  0  0  0  0  0  0  0  0
   60.0651   25.7835   46.4920 H   0  0  0  0  0  0  0  0  0  0  0  0
   58.6111   25.5886   47.5373 H   0  0  0  0  0  0  0  0  0  0  0  0
   58.3668   26.9306   44.8278 H   0  0  0  0  0  0  0  0  0  0  0  0
   58.4224   25.1339   44.9501 H   0  0  0  0  0  0  0  0  0  0  0  0
   57.4870   28.8060   46.5630 H   0  0  0  0  0  0  0  0  0  0  0  0
   56.2946   28.3819   44.1801 H   0  0  0  0  0  0  0  0  0  0  0  0
   55.9327   29.3876   41.9019 H   0  0  0  0  0  0  0  0  0  0  0  0
   56.8739   31.6402   41.3589 H   0  0  0  0  0  0  0  0  0  0  0  0
   58.1543   32.9344   43.0956 H   0  0  0  0  0  0  0  0  0  0  0  0
  1  2  1  0
  2  3  2  0
  3  4  1  0
  4  5  2  0
  5  6  1  0
  6  7  2  0
  7  8  1  0
  8  9  2  0
  9 10  1  0
 10 11  1  0
 11 12  1  0
 12 13  1  0
 13 14  1  0
 14 15  1  0
 15 16  1  0
  9 17  1  0
 17 18  1  0
 18 19  1  0
 19 20  2  0
 20 21  1  0
 21 22  2  0
 22 23  1  0
 23 24  2  0
 24 25  1  0
 25  2  1  0
  8  3  1  0
 25 17  2  0
 24 19  1  0
  1 26  1  0
  1 27  1  0
  1 28  1  0
  4 29  1  0
  5 30  1  0
  6 31  1  0
  7 32  1  0
 10 33  1  0
 10 34  1  0
 11 35  1  0
 11 36  1  0
 12 37  1  0
 12 38  1  0
 13 39  1  0
 14 40  1  0
 14 41  1  0
 15 42  1  0
 15 43  1  0
 18 44  1  0
 20 45  1  0
 21 46  1  0
 22 47  1  0
 23 48  1  0
M  CHG  2   2   1  10   1
M  END
>  <UniqueID>  (5) 
5

>  <SMILES>  (5) 
C[n+]1c2ccccc2c([NH2+]CCNCCBr)c2[nH]c3ccccc3c21

>  <Energy>  (5) 
110.4423208242755

>  <Genealogy>  (5) 
C[n+]1c2ccccc2c([NH2+]CCNCCBr)c2[nH]c3ccccc3c21 (protonated)
C[n+]1c2ccccc2c([NH2+]CCNCCBr)c2[nH]c3ccccc3c21 (3D coordinates assigned)
C[n+]1c2ccccc2c([NH2+]CCNCCBr)c2[nH]c3ccccc3c21 (optimized conformer: 110.4423208242755 kcal/mol)

>  <smiles>  (5) 
C[n+]1c2ccccc2c(NCCNCCBr)c2[nH]c3ccccc3c21

>  <score_type>  (5) 
oracle

>  <origin>  (5) 
adg

>  <m_score__min__energy>  (5) 
-4.3700000000000001

>  <m_primary>  (5) 
energy

$$$$
5:0
     RDKit          3D

 49 51  0  0  0  0  0  0  0  0999 V2000
   58.1440   27.0860   42.8150 C   0  0  0  0  0  0  0  0  0  0  0  0
   58.4780   27.7530   44.1490 C   0  0  0  0  0  0  0  0  0  0  0  0
   57.9180   29.1130   44.2190 N   0  0  0  0  0  0  0  0  0  0  0  0
   56.8780   29.4950   43.2480 C   0  0  0  0  0  0  0  0  0  0  0  0
   55.5390   29.7390   43.9400 C   0  0  0  0  0  0  0  0  0  0  0  0
   58.3740   30.0560   45.2260 C   0  0  0  0  0  0  0  0  0  0  0  0
   59.2020   29.6350   46.2830 C   0  0  0  0  0  0  0  0  0  0  0  0
   59.6430   30.5410   47.2490 C   0  0  0  0  0  0  0  0  0  0  0  0
   59.2830   31.8950   47.1790 C   0  0  0  0  0  0  0  0  0  0  0  0
   58.4480   32.3310   46.1320 C   0  0  0  0  0  0  0  0  0  0  0  0
   57.9930   31.4110   45.1750 C   0  0  0  0  0  0  0  0  0  0  0  0
   57.9250   33.7490   46.0940 C   0  0  0  0  0  0  0  0  0  0  0  0
   58.8000   34.7060   46.8000 N   0  0  2  0  0  0  0  0  0  0  0  0
   59.9960   35.0480   46.0080 C   0  0  0  0  0  0  0  0  0  0  0  0
   59.1170   34.2410   48.1680 C   0  0  0  0  0  0  0  0  0  0  0  0
   59.8220   32.8610   48.2170 C   0  0  2  0  0  0  0  0  0  0  0  0
   61.3420   33.0020   48.1980 C   0  0  0  0  0  0  0  0  0  0  0  0
   61.9840   33.5350   49.3320 C   0  0  0  0  0  0  0  0  0  0  0  0
   63.3720   33.6930   49.3600 C   0  0  0  0  0  0  0  0  0  0  0  0
   64.1420   33.3180   48.2560 C   0  0  0  0  0  0  0  0  0  0  0  0
   63.5240   32.7840   47.1250 C   0  0  0  0  0  0  0  0  0  0  0  0
   62.1350   32.6250   47.0920 C   0  0  0  0  0  0  0  0  0  0  0  0
   57.6586   26.1166   43.0011 H   0  0  0  0  0  0  0  0  0  0  0  0
   57.4634   27.7328   42.2419 H   0  0  0  0  0  0  0  0  0  0  0  0
   59.0696   26.9285   42.2419 H   0  0  0  0  0  0  0  0  0  0  0  0
   58.0580   27.1494   44.9671 H   0  0  0  0  0  0  0  0  0  0  0  0
   59.5721   27.8216   44.2400 H   0  0  0  0  0  0  0  0  0  0  0  0
   57.1888   30.4160   42.7331 H   0  0  0  0  0  0  0  0  0  0  0  0
   56.7535   28.6717   42.5291 H   0  0  0  0  0  0  0  0  0  0  0  0
   55.6799   29.7133   45.0306 H   0  0  0  0  0  0  0  0  0  0  0  0
   55.1473   30.7233   43.6439 H   0  0  0  0  0  0  0  0  0  0  0  0
   54.8252   28.9561   43.6439 H   0  0  0  0  0  0  0  0  0  0  0  0
   59.5053   28.5797   46.3488 H   0  0  0  0  0  0  0  0  0  0  0  0
   60.2798   30.1894   48.0742 H   0  0  0  0  0  0  0  0  0  0  0  0
   57.3265   31.7544   44.3701 H   0  0  0  0  0  0  0  0  0  0  0  0
   57.8385   34.0626   45.0432 H   0  0  0  0  0  0  0  0  0  0  0  0
   56.9513   33.7543   46.6058 H   0  0  0  0  0  0  0  0  0  0  0  0
   58.2530   35.5940   46.9090 H   0  0  0  0  0  0  0  0  0  0  0  0
   60.8289   35.2862   46.6859 H   0  0  0  0  0  0  0  0  0  0  0  0
   60.2725   34.1929   45.3737 H   0  0  0  0  0  0  0  0  0  0  0  0
   59.7787   35.9200   45.3737 H   0  0  0  0  0  0  0  0  0  0  0  0
   59.7763   34.9833   48.6417 H   0  0  0  0  0  0  0  0  0  0  0  0
   58.1586   34.1279   48.6960 H   0  0  0  0  0  0  0  0  0  0  0  0
   59.5752   32.4014   49.1854 H   0  0  0  0  0  0  0  0  0  0  0  0
   61.3857   33.8306   50.2064 H   0  0  0  0  0  0  0  0  0  0  0  0
   63.8591   34.1131   50.2523 H   0  0  0  0  0  0  0  0  0  0  0  0
   65.2346   33.4437   48.2786 H   0  0  0  0  0  0  0  0  0  0  0  0
   64.1309   32.4872   46.2569 H   0  0  0  0  0  0  0  0  0  0  0  0
   61.6559   32.2025   46.1965 H   0  0  0  0  0  0  0  0  0  0  0  0
  1  2  1  0
  2  3  1  0
  3  4  1  0
  4  5  1  0
  3  6  1  0
  6  7  2  0
  7  8  1  0
  8  9  2  0
  9 10  1  0
 10 11  2  0
 10 12  1  0
 12 13  1  0
 13 14  1  0
 13 15  1  0
 15 16  1  0
 16 17  1  0
 17 18  2  0
 18 19  1  0
 19 20  2  0
 20 21  1  0
 21 22  2  0
 11  6  1  0
 22 17  1  0
 16  9  1  0
  1 23  1  0
  1 24  1  0
  1 25  1  0
  2 26  1  0
  2 27  1  0
  4 28  1  0
  4 29  1  0
  5 30  1  0
  5 31  1  0
  5 32  1  0
  7 33  1  0
  8 34  1  0
 11 35  1  0
 12 36  1  0
 12 37  1  0
 13 38  1  1
 14 39  1  0
 14 40  1  0
 14 41  1  0
 15 42  1  0
 15 43  1  0
 16 44  1  1
 18 45  1  0
 19 46  1  0
 20 47  1  0
 21 48  1  0
 22 49  1  0
M  CHG  1  13   1
M  END
>  <UniqueID>  (6) 
6

>  <SMILES>  (6) 
CCN(CC)c1ccc2c(c1)C[N@H+](C)C[C@@H]2c1ccccc1

>  <Energy>  (6) 
59.364408714811766

>  <Genealogy>  (6) 
CCN(CC)c1ccc2c(c1)C[NH+](C)CC2c1ccccc1 (protonated)
CCN(CC)c1ccc2c(c1)C[N@H+](C)C[C@@H]2c1ccccc1 (chirality)
CCN(CC)c1ccc2c(c1)C[N@H+](C)C[C@@H]2c1ccccc1 (3D coordinates assigned)
CCN(CC)c1ccc2c(c1)C[N@H+](C)C[C@@H]2c1ccccc1 (nonaromatic ring conformer: 59.364408714811766 kcal/mol)

>  <smiles>  (6) 
CCN(CC)c1ccc2c(c1)CN(C)CC2c1ccccc1

>  <score_type>  (6) 
oracle

>  <origin>  (6) 
adg

>  <m_score__min__energy>  (6) 
-5.9800000000000004

>  <m_primary>  (6) 
energy

$$$$
6:0
     RDKit          3D

 45 47  0  0  0  0  0  0  0  0999 V2000
   56.3670   23.8220   47.5990 C   0  0  0  0  0  0  0  0  0  0  0  0
   57.4970   24.8450   47.5540 C   0  0  0  0  0  0  0  0  0  0  0  0
   57.4840   25.5860   46.2830 N   0  0  0  0  0  0  0  0  0  0  0  0
   58.4070   25.2010   45.2070 C   0  0  0  0  0  0  0  0  0  0  0  0
   57.9080   23.9540   44.5240 C   0  0  0  0  0  0  0  0  0  0  0  0
   56.7920   24.0300   43.6740 C   0  0  0  0  0  0  0  0  0  0  0  0
   56.2960   22.8790   43.0540 C   0  0  0  0  0  0  0  0  0  0  0  0
   56.9070   21.6430   43.2820 C   0  0  0  0  0  0  0  0  0  0  0  0
   56.4230   20.5270   42.6810 F   0  0  0  0  0  0  0  0  0  0  0  0
   58.0140   21.5570   44.1310 C   0  0  0  0  0  0  0  0  0  0  0  0
   58.5160   22.7050   44.7540 C   0  0  0  0  0  0  0  0  0  0  0  0
   59.5890   22.5940   45.5770 F   0  0  0  0  0  0  0  0  0  0  0  0
   56.6020   26.7090   46.0990 C   0  0  0  0  0  0  0  0  0  0  0  0
   55.3610   26.5090   45.9960 O   0  0  0  0  0  0  0  0  0  0  0  0
   57.1240   28.0880   46.0000 C   0  0  0  0  0  0  0  0  0  0  0  0
   56.6420   28.9680   45.0170 C   0  0  0  0  0  0  0  0  0  0  0  0
   57.1350   30.2720   44.9320 C   0  0  0  0  0  0  0  0  0  0  0  0
   58.1280   30.7210   45.8210 C   0  0  0  0  0  0  0  0  0  0  0  0
   58.6430   32.1110   45.7370 C   0  0  0  0  0  0  0  0  0  0  0  0
   59.8030   32.4860   46.4400 C   0  0  0  0  0  0  0  0  0  0  0  0
   60.2880   33.7940   46.3560 C   0  0  0  0  0  0  0  0  0  0  0  0
   59.6240   34.7400   45.5720 C   0  0  0  0  0  0  0  0  0  0  0  0
   58.4720   34.3790   44.8700 C   0  0  0  0  0  0  0  0  0  0  0  0
   57.9830   33.0720   44.9470 C   0  0  0  0  0  0  0  0  0  0  0  0
   58.6240   29.8300   46.7900 C   0  0  0  0  0  0  0  0  0  0  0  0
   58.1300   28.5260   46.8750 C   0  0  0  0  0  0  0  0  0  0  0  0
   56.1180   23.5966   48.6465 H   0  0  0  0  0  0  0  0  0  0  0  0
   55.4812   24.2316   47.0915 H   0  0  0  0  0  0  0  0  0  0  0  0
   56.6867   22.8999   47.0915 H   0  0  0  0  0  0  0  0  0  0  0  0
   57.3740   25.5543   48.3857 H   0  0  0  0  0  0  0  0  0  0  0  0
   58.4561   24.3134   47.6411 H   0  0  0  0  0  0  0  0  0  0  0  0
   58.4721   26.0176   44.4729 H   0  0  0  0  0  0  0  0  0  0  0  0
   59.4011   25.0057   45.6356 H   0  0  0  0  0  0  0  0  0  0  0  0
   56.3057   25.0003   43.4952 H   0  0  0  0  0  0  0  0  0  0  0  0
   55.4244   22.9465   42.3864 H   0  0  0  0  0  0  0  0  0  0  0  0
   58.4925   20.5829   44.3101 H   0  0  0  0  0  0  0  0  0  0  0  0
   55.8713   28.6280   44.3096 H   0  0  0  0  0  0  0  0  0  0  0  0
   56.7431   30.9539   44.1629 H   0  0  0  0  0  0  0  0  0  0  0  0
   60.3309   31.7456   47.0590 H   0  0  0  0  0  0  0  0  0  0  0  0
   61.1952   34.0792   46.9089 H   0  0  0  0  0  0  0  0  0  0  0  0
   60.0081   35.7687   45.5075 H   0  0  0  0  0  0  0  0  0  0  0  0
   57.9481   35.1253   44.2548 H   0  0  0  0  0  0  0  0  0  0  0  0
   57.0780   32.7925   44.3877 H   0  0  0  0  0  0  0  0  0  0  0  0
   59.4075   30.1628   47.4867 H   0  0  0  0  0  0  0  0  0  0  0  0
   58.5323   27.8378   47.6330 H   0  0  0  0  0  0  0  0  0  0  0  0
  1  2  1  0
  2  3  1  0
  3  4  1  0
  4  5  1  0
  5  6  2  0
  6  7  1  0
  7  8  2  0
  8  9  1  0
  8 10  1  0
 10 11  2  0
 11 12  1  0
  3 13  1  0
 13 14  2  0
 13 15  1  0
 15 16  2  0
 16 17  1  0
 17 18  2  0
 18 19  1  0
 19 20  2  0
 20 21  1  0
 21 22  2  0
 22 23  1  0
 23 24  2  0
 18 25  1  0
 25 26  2  0
 11  5  1  0
 26 15  1  0
 24 19  1  0
  1 27  1  0
  1 28  1  0
  1 29  1  0
  2 30  1  0
  2 31  1  0
  4 32  1  0
  4 33  1  0
  6 34  1  0
  7 35  1  0
 10 36  1  0
 16 37  1  0
 17 38  1  0
 20 39  1  0
 21 40  1  0
 22 41  1  0
 23 42  1  0
 24 43  1  0
 25 44  1  0
 26 45  1  0
M  END
>  <UniqueID>  (7) 
7

>  <SMILES>  (7) 
CCN(Cc1ccc(F)cc1F)C(=O)c1ccc(-c2ccccc2)cc1

>  <Energy>  (7) 
53.674930643942716

>  <Genealogy>  (7) 
CCN(Cc1ccc(F)cc1F)C(=O)c1ccc(-c2ccccc2)cc1 (3D coordinates assigned)
CCN(Cc1ccc(F)cc1F)C(=O)c1ccc(-c2ccccc2)cc1 (optimized conformer: 53.674930643942716 kcal/mol)

>  <smiles>  (7) 
CCN(Cc1ccc(F)cc1F)C(=O)c1ccc(-c2ccccc2)cc1

>  <score_type>  (7) 
oracle

>  <origin>  (7) 
adg

>  <m_score__min__energy>  (7) 
-8.3699999999999992

>  <m_primary>  (7) 
energy

$$$$
7:0
     RDKit          3D

 58 61  0  0  0  0  0  0  0  0999 V2000
   63.4280   33.0680   47.0430 C   0  0  0  0  0  0  0  0  0  0  0  0
   63.3550   32.2830   48.3580 C   0  0  0  0  0  0  0  0  0  0  0  0
   62.4160   32.8370   49.3670 N   0  0  2  0  0  0  0  0  0  0  0  0
   62.0070   34.2220   49.0650 C   0  0  0  0  0  0  0  0  0  0  0  0
   62.8330   32.6040   50.7800 C   0  0  0  0  0  0  0  0  0  0  0  0
   61.7300   32.0960   51.7400 C   0  0  0  0  0  0  0  0  0  0  0  0
   60.7510   31.3500   51.0380 O   0  0  0  0  0  0  0  0  0  0  0  0
   59.4900   31.9790   51.1160 C   0  0  0  0  0  0  0  0  0  0  0  0
   59.0380   32.3580   49.7070 C   0  0  0  0  0  0  0  0  0  0  0  0
   59.5920   31.4380   48.7140 N   0  0  0  0  0  0  0  0  0  0  0  0
   59.1260   31.4200   47.3550 C   0  0  0  0  0  0  0  0  0  0  0  0
   58.8290   30.2180   46.7210 C   0  0  0  0  0  0  0  0  0  0  0  0
   58.4380   30.1820   45.3930 C   0  0  0  0  0  0  0  0  0  0  0  0
   58.1940   31.3310   44.6820 N   0  0  0  0  0  0  0  0  0  0  0  0
   57.4780   31.2640   43.3980 C   0  0  0  0  0  0  0  0  0  0  0  0
   58.5670   32.5450   45.2410 C   0  0  0  0  0  0  0  0  0  0  0  0
   58.5460   33.7460   44.4900 C   0  0  0  0  0  0  0  0  0  0  0  0
   58.8890   34.9650   45.0750 C   0  0  0  0  0  0  0  0  0  0  0  0
   59.2690   35.0210   46.4120 C   0  0  0  0  0  0  0  0  0  0  0  0
   59.3340   33.8560   47.1720 C   0  0  0  0  0  0  0  0  0  0  0  0
   59.0070   32.6080   46.6030 C   0  0  0  0  0  0  0  0  0  0  0  0
   58.2600   28.7600   45.0060 C   0  0  0  0  0  0  0  0  0  0  0  0
   58.0940   28.1490   43.7540 C   0  0  0  0  0  0  0  0  0  0  0  0
   58.0380   26.7460   43.6920 C   0  0  0  0  0  0  0  0  0  0  0  0
   58.1880   25.9710   44.8580 C   0  0  0  0  0  0  0  0  0  0  0  0
   58.4210   26.5900   46.0940 C   0  0  0  0  0  0  0  0  0  0  0  0
   58.4620   27.9830   46.1360 C   0  0  0  0  0  0  0  0  0  0  0  0
   58.8070   28.8540   47.2470 C   0  0  0  0  0  0  0  0  0  0  0  0
   58.9970   28.4970   48.4400 O   0  0  0  0  0  0  0  0  0  0  0  0
   63.5278   34.1414   47.2618 H   0  0  0  0  0  0  0  0  0  0  0  0
   64.2986   32.7297   46.4619 H   0  0  0  0  0  0  0  0  0  0  0  0
   62.5100   32.8961   46.4619 H   0  0  0  0  0  0  0  0  0  0  0  0
   63.0389   31.2554   48.1252 H   0  0  0  0  0  0  0  0  0  0  0  0
   64.3578   32.3396   48.8066 H   0  0  0  0  0  0  0  0  0  0  0  0
   61.5420   32.2700   49.2430 H   0  0  0  0  0  0  0  0  0  0  0  0
   61.8452   34.7698   50.0051 H   0  0  0  0  0  0  0  0  0  0  0  0
   62.7968   34.7188   48.4824 H   0  0  0  0  0  0  0  0  0  0  0  0
   61.0740   34.2100   48.4824 H   0  0  0  0  0  0  0  0  0  0  0  0
   63.6421   31.8588   50.7732 H   0  0  0  0  0  0  0  0  0  0  0  0
   63.1307   33.5897   51.1669 H   0  0  0  0  0  0  0  0  0  0  0  0
   62.1883   31.4555   52.5079 H   0  0  0  0  0  0  0  0  0  0  0  0
   61.2420   32.9653   52.2049 H   0  0  0  0  0  0  0  0  0  0  0  0
   58.7603   31.2889   51.5647 H   0  0  0  0  0  0  0  0  0  0  0  0
   59.5620   32.8821   51.7398 H   0  0  0  0  0  0  0  0  0  0  0  0
   57.9397   32.3203   49.6591 H   0  0  0  0  0  0  0  0  0  0  0  0
   59.3986   33.3731   49.4842 H   0  0  0  0  0  0  0  0  0  0  0  0
   60.2360   30.6800   49.0340 H   0  0  0  0  0  0  0  0  0  0  0  0
   56.3987   31.1630   43.5849 H   0  0  0  0  0  0  0  0  0  0  0  0
   57.6664   32.1837   42.8247 H   0  0  0  0  0  0  0  0  0  0  0  0
   57.8337   30.3952   42.8247 H   0  0  0  0  0  0  0  0  0  0  0  0
   58.2548   33.7169   43.4296 H   0  0  0  0  0  0  0  0  0  0  0  0
   58.8588   35.8870   44.4758 H   0  0  0  0  0  0  0  0  0  0  0  0
   59.5191   35.9891   46.8705 H   0  0  0  0  0  0  0  0  0  0  0  0
   59.6434   33.9098   48.2262 H   0  0  0  0  0  0  0  0  0  0  0  0
   58.0095   28.7553   42.8401 H   0  0  0  0  0  0  0  0  0  0  0  0
   57.8756   26.2491   42.7242 H   0  0  0  0  0  0  0  0  0  0  0  0
   58.1220   24.8746   44.7987 H   0  0  0  0  0  0  0  0  0  0  0  0
   58.5675   25.9928   47.0061 H   0  0  0  0  0  0  0  0  0  0  0  0
  1  2  1  0
  2  3  1  0
  3  4  1  0
  3  5  1  0
  5  6  1  0
  6  7  1  0
  7  8  1  0
  8  9  1  0
  9 10  1  0
 10 11  1  0
 11 12  2  0
 12 13  1  0
 13 14  2  0
 14 15  1  0
 14 16  1  0
 16 17  2  0
 17 18  1  0
 18 19  2  0
 19 20  1  0
 20 21  2  0
 13 22  1  0
 22 23  2  0
 23 24  1  0
 24 25  2  0
 25 26  1  0
 26 27  2  0
 27 28  1  0
 28 29  2  0
 21 11  1  0
 27 22  1  0
 28 12  1  0
 21 16  1  0
  1 30  1  0
  1 31  1  0
  1 32  1  0
  2 33  1  0
  2 34  1  0
  3 35  1  1
  4 36  1  0
  4 37  1  0
  4 38  1  0
  5 39  1  0
  5 40  1  0
  6 41  1  0
  6 42  1  0
  8 43  1  0
  8 44  1  0
  9 45  1  0
  9 46  1  0
 10 47  1  0
 15 48  1  0
 15 49  1  0
 15 50  1  0
 17 51  1  0
 18 52  1  0
 19 53  1  0
 20 54  1  0
 23 55  1  0
 24 56  1  0
 25 57  1  0
 26 58  1  0
M  CHG  2   3   1  14   1
M  END
>  <UniqueID>  (8) 
8

>  <SMILES>  (8) 
CC[N@H+](C)CCOCCNc1c2c([n+](C)c3ccccc13)-c1ccccc1C2=O

>  <Energy>  (8) 
122.8779141693348

>  <Genealogy>  (8) 
CC[NH+](C)CCOCCNc1c2c([n+](C)c3ccccc13)-c1ccccc1C2=O (protonated)
CC[N@H+](C)CCOCCNc1c2c([n+](C)c3ccccc13)-c1ccccc1C2=O (chirality)
CC[N@H+](C)CCOCCNc1c2c([n+](C)c3ccccc13)-c1ccccc1C2=O (3D coordinates assigned)
CC[N@H+](C)CCOCCNc1c2c([n+](C)c3ccccc13)-c1ccccc1C2=O (nonaromatic ring conformer: 122.8779141693348 kcal/mol)

>  <smiles>  (8) 
CCN(C)CCOCCNc1c2c([n+](C)c3ccccc13)-c1ccccc1C2=O

>  <score_type>  (8) 
oracle

>  <origin>  (8) 
adg

>  <m_score__min__energy>  (8) 
-4.6500000000000004

>  <m_primary>  (8) 
energy

$$$$
8:0
     RDKit          3D

 57 61  0  0  0  0  0  0  0  0999 V2000
   57.0050   21.0680   43.0660 C   0  0  0  0  0  0  0  0  0  0  0  0
   56.1020   21.9810   43.6830 O   0  0  0  0  0  0  0  0  0  0  0  0
   56.4600   23.2530   44.1520 C   0  0  0  0  0  0  0  0  0  0  0  0
   56.2730   23.6440   45.4910 C   0  0  0  0  0  0  0  0  0  0  0  0
   56.6440   24.9240   45.9110 C   0  0  0  0  0  0  0  0  0  0  0  0
   57.2100   25.8370   45.0050 C   0  0  0  0  0  0  0  0  0  0  0  0
   57.6060   27.1980   45.4510 C   0  0  0  0  0  0  0  0  0  0  0  0
   57.0080   28.3380   44.8840 C   0  0  0  0  0  0  0  0  0  0  0  0
   57.3800   29.6190   45.2990 C   0  0  0  0  0  0  0  0  0  0  0  0
   58.3640   29.7850   46.2880 C   0  0  0  0  0  0  0  0  0  0  0  0
   58.7750   31.0510   46.7490 C   0  0  0  0  0  0  0  0  0  0  0  0
   58.2370   32.2580   46.1820 N   0  0  0  0  0  0  0  0  0  0  0  0
   58.4040   32.5470   44.7580 C   0  0  0  0  0  0  0  0  0  0  0  0
   59.2040   33.8460   44.6080 C   0  0  0  0  0  0  0  0  0  0  0  0
   58.5990   34.8960   45.3440 O   0  0  0  0  0  0  0  0  0  0  0  0
   58.6330   34.6020   46.7310 C   0  0  0  0  0  0  0  0  0  0  0  0
   57.7970   33.3550   47.0430 C   0  0  0  0  0  0  0  0  0  0  0  0
   59.7070   31.1370   47.7400 N   0  0  0  0  0  0  0  0  0  0  0  0
   60.2690   30.0190   48.2880 C   0  0  0  0  0  0  0  0  0  0  0  0
   61.2660   30.1200   49.3290 N   0  0  0  0  0  0  0  0  0  0  0  0
   62.3350   31.1190   49.2070 C   0  0  0  0  0  0  0  0  0  0  0  0
   62.8540   31.5120   50.5930 C   0  0  0  0  0  0  0  0  0  0  0  0
   63.1920   30.3640   51.3460 O   0  0  0  0  0  0  0  0  0  0  0  0
   62.0240   29.6160   51.6170 C   0  0  0  0  0  0  0  0  0  0  0  0
   61.4240   29.0530   50.3240 C   0  0  0  0  0  0  0  0  0  0  0  0
   59.8830   28.7920   47.8480 N   0  0  0  0  0  0  0  0  0  0  0  0
   58.9540   28.6460   46.8700 C   0  0  0  0  0  0  0  0  0  0  0  0
   58.5800   27.3660   46.4500 C   0  0  0  0  0  0  0  0  0  0  0  0
   57.3940   25.4420   43.6680 C   0  0  0  0  0  0  0  0  0  0  0  0
   57.0210   24.1610   43.2500 C   0  0  0  0  0  0  0  0  0  0  0  0
   57.5532   20.5137   43.8420 H   0  0  0  0  0  0  0  0  0  0  0  0
   56.4409   20.3611   42.4398 H   0  0  0  0  0  0  0  0  0  0  0  0
   57.7181   21.6243   42.4398 H   0  0  0  0  0  0  0  0  0  0  0  0
   55.8325   22.9383   46.2106 H   0  0  0  0  0  0  0  0  0  0  0  0
   56.4917   25.2195   46.9596 H   0  0  0  0  0  0  0  0  0  0  0  0
   56.2396   28.2196   44.1059 H   0  0  0  0  0  0  0  0  0  0  0  0
   56.9006   30.5012   44.8497 H   0  0  0  0  0  0  0  0  0  0  0  0
   58.9460   31.7211   44.2742 H   0  0  0  0  0  0  0  0  0  0  0  0
   57.4190   32.6576   44.2811 H   0  0  0  0  0  0  0  0  0  0  0  0
   60.2261   33.6856   44.9817 H   0  0  0  0  0  0  0  0  0  0  0  0
   59.2256   34.1268   43.5447 H   0  0  0  0  0  0  0  0  0  0  0  0
   59.6746   34.4239   47.0366 H   0  0  0  0  0  0  0  0  0  0  0  0
   58.2131   35.4557   47.2832 H   0  0  0  0  0  0  0  0  0  0  0  0
   57.9341   33.0737   48.0975 H   0  0  0  0  0  0  0  0  0  0  0  0
   56.7330   33.5662   46.8606 H   0  0  0  0  0  0  0  0  0  0  0  0
   59.9830   32.0830   48.0810 H   0  0  0  0  0  0  0  0  0  0  0  0
   63.1611   30.6965   48.6163 H   0  0  0  0  0  0  0  0  0  0  0  0
   61.9344   32.0134   48.7075 H   0  0  0  0  0  0  0  0  0  0  0  0
   63.7471   32.1438   50.4780 H   0  0  0  0  0  0  0  0  0  0  0  0
   62.0624   32.0615   51.1235 H   0  0  0  0  0  0  0  0  0  0  0  0
   62.2775   28.7830   52.2892 H   0  0  0  0  0  0  0  0  0  0  0  0
   61.2836   30.2784   52.0892 H   0  0  0  0  0  0  0  0  0  0  0  0
   62.0923   28.2775   49.9215 H   0  0  0  0  0  0  0  0  0  0  0  0
   60.4367   28.6216   50.5459 H   0  0  0  0  0  0  0  0  0  0  0  0
   59.0521   26.4830   46.9054 H   0  0  0  0  0  0  0  0  0  0  0  0
   57.8344   26.1456   42.9462 H   0  0  0  0  0  0  0  0  0  0  0  0
   57.1706   23.8651   42.2012 H   0  0  0  0  0  0  0  0  0  0  0  0
  1  2  1  0
  2  3  1  0
  3  4  2  0
  4  5  1  0
  5  6  2  0
  6  7  1  0
  7  8  2  0
  8  9  1  0
  9 10  2  0
 10 11  1  0
 11 12  1  0
 12 13  1  0
 13 14  1  0
 14 15  1  0
 15 16  1  0
 16 17  1  0
 11 18  2  0
 18 19  1  0
 19 20  1  0
 20 21  1  0
 21 22  1  0
 22 23  1  0
 23 24  1  0
 24 25  1  0
 19 26  2  0
 26 27  1  0
 27 28  2  0
  6 29  1  0
 29 30  2  0
 30  3  1  0
 28  7  1  0
 27 10  1  0
 17 12  1  0
 25 20  1  0
  1 31  1  0
  1 32  1  0
  1 33  1  0
  4 34  1  0
  5 35  1  0
  8 36  1  0
  9 37  1  0
 13 38  1  0
 13 39  1  0
 14 40  1  0
 14 41  1  0
 16 42  1  0
 16 43  1  0
 17 44  1  0
 17 45  1  0
 18 46  1  0
 21 47  1  0
 21 48  1  0
 22 49  1  0
 22 50  1  0
 24 51  1  0
 24 52  1  0
 25 53  1  0
 25 54  1  0
 28 55  1  0
 29 56  1  0
 30 57  1  0
M  CHG  1  18   1
M  END
>  <UniqueID>  (9) 
9

>  <SMILES>  (9) 
COc1ccc(-c2ccc3c(N4CCOCC4)[nH+]c(N4CCOCC4)nc3c2)cc1

>  <Energy>  (9) 
80.11397611698811

>  <Genealogy>  (9) 
COc1ccc(-c2ccc3c(N4CCOCC4)[nH+]c(N4CCOCC4)nc3c2)cc1 (protonated)
COc1ccc(-c2ccc3c(N4CCOCC4)[nH+]c(N4CCOCC4)nc3c2)cc1 (3D coordinates assigned)
COc1ccc(-c2ccc3c(N4CCOCC4)[nH+]c(N4CCOCC4)nc3c2)cc1 (nonaromatic ring conformer: 80.11397611698811 kcal/mol)

>  <smiles>  (9) 
COc1ccc(-c2ccc3c(N4CCOCC4)nc(N4CCOCC4)nc3c2)cc1

>  <score_type>  (9) 
oracle

>  <origin>  (9) 
adg

>  <m_score__min__energy>  (9) 
-6.04

>  <m_primary>  (9) 
energy

$$$$
9:0
     RDKit          3D

 64 67  0  0  0  0  0  0  0  0999 V2000
   57.3240   33.5370   45.5750 C   0  0  0  0  0  0  0  0  0  0  0  0
   57.4210   32.5840   44.3940 C   0  0  0  0  0  0  0  0  0  0  0  0
   56.4570   31.5650   44.5430 O   0  0  0  0  0  0  0  0  0  0  0  0
   56.7820   30.4790   43.7000 C   0  0  0  0  0  0  0  0  0  0  0  0
   56.5600   29.1670   44.4540 C   0  0  0  0  0  0  0  0  0  0  0  0
   57.6720   28.8980   45.3910 N   0  0  0  0  0  0  0  0  0  0  0  0
   58.1990   29.9740   46.0530 C   0  0  0  0  0  0  0  0  0  0  0  0
   59.2670   29.8390   46.9470 C   0  0  0  0  0  0  0  0  0  0  0  0
   59.7970   31.0430   47.6300 C   0  0  0  0  0  0  0  0  0  0  0  0
   59.0770   32.0750   47.7110 O   0  0  0  0  0  0  0  0  0  0  0  0
   61.1270   31.0560   48.1740 N   0  0  0  0  0  0  0  0  0  0  0  0
   61.6140   32.1520   49.0230 C   0  0  0  0  0  0  0  0  0  0  0  0
   61.4370   33.5110   48.3150 C   0  0  0  0  0  0  0  0  0  0  0  0
   62.3210   33.6540   47.0580 C   0  0  0  0  0  0  0  0  0  0  0  0
   63.6230   32.8330   47.1240 C   0  0  0  0  0  0  0  0  0  0  0  0
   64.1130   32.6760   48.5650 C   0  0  0  0  0  0  0  0  0  0  0  0
   63.0930   31.9160   49.4330 C   0  0  0  0  0  0  0  0  0  0  0  0
   59.7910   28.5610   47.1860 C   0  0  0  0  0  0  0  0  0  0  0  0
   60.7120   28.4050   48.0370 O   0  0  0  0  0  0  0  0  0  0  0  0
   59.2740   27.4520   46.4960 C   0  0  0  0  0  0  0  0  0  0  0  0
   59.8060   26.1650   46.7050 C   0  0  0  0  0  0  0  0  0  0  0  0
   59.3050   25.0690   46.0090 C   0  0  0  0  0  0  0  0  0  0  0  0
   58.2670   25.2290   45.0860 C   0  0  0  0  0  0  0  0  0  0  0  0
   57.7540   24.0950   44.3620 N   0  0  0  0  0  0  0  0  0  0  0  0
   58.1120   22.7350   44.7800 C   0  0  0  0  0  0  0  0  0  0  0  0
   57.2320   21.7100   44.0610 C   0  0  0  0  0  0  0  0  0  0  0  0
   55.9160   22.2110   43.9670 O   0  0  0  0  0  0  0  0  0  0  0  0
   55.8520   23.2460   42.9990 C   0  0  0  0  0  0  0  0  0  0  0  0
   56.9870   24.2910   43.1240 C   0  0  0  0  0  0  0  0  0  0  0  0
   57.7170   26.5020   44.8820 C   0  0  0  0  0  0  0  0  0  0  0  0
   58.2050   27.6360   45.5780 C   0  0  0  0  0  0  0  0  0  0  0  0
   57.3822   32.9655   46.5131 H   0  0  0  0  0  0  0  0  0  0  0  0
   58.1534   34.2584   45.5331 H   0  0  0  0  0  0  0  0  0  0  0  0
   56.3663   34.0765   45.5331 H   0  0  0  0  0  0  0  0  0  0  0  0
   57.2339   33.1344   43.4602 H   0  0  0  0  0  0  0  0  0  0  0  0
   58.4268   32.1402   44.3575 H   0  0  0  0  0  0  0  0  0  0  0  0
   56.1399   30.5024   42.8072 H   0  0  0  0  0  0  0  0  0  0  0  0
   57.8361   30.5535   43.3944 H   0  0  0  0  0  0  0  0  0  0  0  0
   55.6199   29.2331   45.0213 H   0  0  0  0  0  0  0  0  0  0  0  0
   56.5127   28.3468   43.7225 H   0  0  0  0  0  0  0  0  0  0  0  0
   57.7712   30.9721   45.8774 H   0  0  0  0  0  0  0  0  0  0  0  0
   61.7880   30.3040   47.8750 H   0  0  0  0  0  0  0  0  0  0  0  0
   61.0112   32.1721   49.9429 H   0  0  0  0  0  0  0  0  0  0  0  0
   60.3835   33.6167   48.0168 H   0  0  0  0  0  0  0  0  0  0  0  0
   61.7428   34.2944   49.0240 H   0  0  0  0  0  0  0  0  0  0  0  0
   61.7418   33.3181   46.1853 H   0  0  0  0  0  0  0  0  0  0  0  0
   62.6102   34.7128   46.9853 H   0  0  0  0  0  0  0  0  0  0  0  0
   63.4389   31.8356   46.6981 H   0  0  0  0  0  0  0  0  0  0  0  0
   64.3969   33.3656   46.5518 H   0  0  0  0  0  0  0  0  0  0  0  0
   65.0620   32.1197   48.5604 H   0  0  0  0  0  0  0  0  0  0  0  0
   64.2473   33.6803   48.9932 H   0  0  0  0  0  0  0  0  0  0  0  0
   63.3061   30.8397   49.3545 H   0  0  0  0  0  0  0  0  0  0  0  0
   63.2030   32.2961   50.4594 H   0  0  0  0  0  0  0  0  0  0  0  0
   60.6254   26.0247   47.4253 H   0  0  0  0  0  0  0  0  0  0  0  0
   59.7287   24.0695   46.1863 H   0  0  0  0  0  0  0  0  0  0  0  0
   59.1668   22.5450   44.5324 H   0  0  0  0  0  0  0  0  0  0  0  0
   57.9571   22.6415   45.8650 H   0  0  0  0  0  0  0  0  0  0  0  0
   57.6292   21.5282   43.0514 H   0  0  0  0  0  0  0  0  0  0  0  0
   57.2280   20.7662   44.6260 H   0  0  0  0  0  0  0  0  0  0  0  0
   55.9093   22.7899   41.9997 H   0  0  0  0  0  0  0  0  0  0  0  0
   54.9052   23.7808   43.1647 H   0  0  0  0  0  0  0  0  0  0  0  0
   57.6638   24.1908   42.2626 H   0  0  0  0  0  0  0  0  0  0  0  0
   56.5365   25.2942   43.1478 H   0  0  0  0  0  0  0  0  0  0  0  0
   56.8898   26.6233   44.1672 H   0  0  0  0  0  0  0  0  0  0  0  0
  1  2  1  0
  2  3  1  0
  3  4  1  0
  4  5  1  0
  5  6  1  0
  6  7  1  0
  7  8  2  0
  8  9  1  0
  9 10  2  0
  9 11  1  0
 11 12  1  0
 12 13  1  0
 13 14  1  0
 14 15  1  0
 15 16  1  0
 16 17  1  0
  8 18  1  0
 18 19  2  0
 18 20  1  0
 20 21  2  0
 21 22  1  0
 22 23  2  0
 23 24  1  0
 24 25  1  0
 25 26  1  0
 26 27  1  0
 27 28  1  0
 28 29  1  0
 23 30  1  0
 30 31  2  0
 31  6  1  0
 17 12  1  0
 31 20  1  0
 29 24  1  0
  1 32  1  0
  1 33  1  0
  1 34  1  0
  2 35  1  0
  2 36  1  0
  4 37  1  0
  4 38  1  0
  5 39  1  0
  5 40  1  0
  7 41  1  0
 11 42  1  0
 12 43  1  0
 13 44  1  0
 13 45  1  0
 14 46  1  0
 14 47  1  0
 15 48  1  0
 15 49  1  0
 16 50  1  0
 16 51  1  0
 17 52  1  0
 17 53  1  0
 21 54  1  0
 22 55  1  0
 25 56  1  0
 25 57  1  0
 26 58  1  0
 26 59  1  0
 28 60  1  0
 28 61  1  0
 29 62  1  0
 29 63  1  0
 30 64  1  0
M  END
>  <UniqueID>  (10) 
10

>  <SMILES>  (10) 
CCOCCn1cc(C(=O)NC2CCCCC2)c(=O)c2ccc(N3CCOCC3)cc21

>  <Energy>  (10) 
86.3334587974369

>  <Genealogy>  (10) 
CCOCCn1cc(C(=O)NC2CCCCC2)c(=O)c2ccc(N3CCOCC3)cc21 (3D coordinates assigned)
CCOCCn1cc(C(=O)NC2CCCCC2)c(=O)c2ccc(N3CCOCC3)cc21 (nonaromatic ring conformer: 86.3334587974369 kcal/mol)

>  <smiles>  (10) 
CCOCCn1cc(C(=O)NC2CCCCC2)c(=O)c2ccc(N3CCOCC3)cc21

>  <score_type>  (10) 
oracle

>  <origin>  (10) 
adg

>  <m_score__min__energy>  (10) 
-9.1600000000000001

>  <m_primary>  (10) 
energy

$$$$
10:0
     RDKit          3D

 46 48  0  0  0  0  0  0  0  0999 V2000
   61.0780   31.4600   51.0770 C   0  0  0  0  0  0  0  0  0  0  0  0
   60.5110   32.8010   50.8560 N   0  0  0  0  0  0  0  0  0  0  0  0
   59.7360   33.2070   52.0420 C   0  0  0  0  0  0  0  0  0  0  0  0
   61.5960   33.7620   50.5690 C   0  0  0  0  0  0  0  0  0  0  0  0
   62.0050   33.7100   49.1140 C   0  0  0  0  0  0  0  0  0  0  0  0
   63.3640   33.5160   48.8000 C   0  0  0  0  0  0  0  0  0  0  0  0
   63.7800   33.4200   47.4710 C   0  0  0  0  0  0  0  0  0  0  0  0
   62.8470   33.5010   46.4400 C   0  0  0  0  0  0  0  0  0  0  0  0
   61.4960   33.6930   46.7320 C   0  0  0  0  0  0  0  0  0  0  0  0
   61.0660   33.8270   48.0620 C   0  0  0  0  0  0  0  0  0  0  0  0
   59.3030   34.0720   48.3630 S   0  0  0  0  0  0  0  0  0  0  0  0
   58.7910   33.4180   46.7690 C   0  0  0  0  0  0  0  0  0  0  0  0
   58.5820   34.2790   45.6910 C   0  0  0  0  0  0  0  0  0  0  0  0
   58.1840   33.7740   44.4530 C   0  0  0  0  0  0  0  0  0  0  0  0
   57.9840   32.3940   44.2630 C   0  0  0  0  0  0  0  0  0  0  0  0
   58.1780   31.5230   45.3680 C   0  0  0  0  0  0  0  0  0  0  0  0
   58.5520   32.0510   46.6130 C   0  0  0  0  0  0  0  0  0  0  0  0
   57.9850   30.1080   45.2650 N   0  0  0  0  0  0  0  0  0  0  0  0
   56.6660   29.5220   45.0330 C   0  0  0  0  0  0  0  0  0  0  0  0
   56.0070   30.0560   43.7550 C   0  0  0  0  0  0  0  0  0  0  0  0
   57.0460   30.4990   42.7180 C   0  0  0  0  0  0  0  0  0  0  0  0
   57.4640   31.9670   42.8980 C   0  0  0  0  0  0  0  0  0  0  0  0
   61.1586   31.2695   52.1574 H   0  0  0  0  0  0  0  0  0  0  0  0
   60.4222   30.7047   50.6194 H   0  0  0  0  0  0  0  0  0  0  0  0
   62.0767   31.4042   50.6194 H   0  0  0  0  0  0  0  0  0  0  0  0
   60.2825   32.9207   52.9527 H   0  0  0  0  0  0  0  0  0  0  0  0
   59.5903   34.2972   52.0292 H   0  0  0  0  0  0  0  0  0  0  0  0
   58.7568   32.7061   52.0292 H   0  0  0  0  0  0  0  0  0  0  0  0
   61.2474   34.7777   50.8072 H   0  0  0  0  0  0  0  0  0  0  0  0
   62.4678   33.4956   51.1846 H   0  0  0  0  0  0  0  0  0  0  0  0
   64.1047   33.4394   49.6096 H   0  0  0  0  0  0  0  0  0  0  0  0
   64.8458   33.2802   47.2377 H   0  0  0  0  0  0  0  0  0  0  0  0
   63.1756   33.4135   45.3939 H   0  0  0  0  0  0  0  0  0  0  0  0
   60.7622   33.7397   45.9139 H   0  0  0  0  0  0  0  0  0  0  0  0
   58.7318   35.3613   45.8180 H   0  0  0  0  0  0  0  0  0  0  0  0
   58.0240   34.4651   43.6123 H   0  0  0  0  0  0  0  0  0  0  0  0
   58.6583   31.3793   47.4776 H   0  0  0  0  0  0  0  0  0  0  0  0
   58.8130   29.5200   45.0210 H   0  0  0  0  0  0  0  0  0  0  0  0
   56.7744   28.4309   44.9455 H   0  0  0  0  0  0  0  0  0  0  0  0
   56.0227   29.7956   45.8823 H   0  0  0  0  0  0  0  0  0  0  0  0
   55.3842   29.2618   43.3175 H   0  0  0  0  0  0  0  0  0  0  0  0
   55.3999   30.9326   44.0252 H   0  0  0  0  0  0  0  0  0  0  0  0
   57.9379   29.8629   42.8175 H   0  0  0  0  0  0  0  0  0  0  0  0
   56.5895   30.3998   41.7221 H   0  0  0  0  0  0  0  0  0  0  0  0
   58.2574   32.1745   42.1649 H   0  0  0  0  0  0  0  0  0  0  0  0
   56.5336   32.5385   42.7646 H   0  0  0  0  0  0  0  0  0  0  0  0
  1  2  1  0
  2  3  1  0
  2  4  1  0
  4  5  1  0
  5  6  2  0
  6  7  1  0
  7  8  2  0
  8  9  1  0
  9 10  2  0
 10 11  1  0
 11 12  1  0
 12 13  2  0
 13 14  1  0
 14 15  2  0
 15 16  1  0
 16 17  2  0
 16 18  1  0
 18 19  1  0
 19 20  1  0
 20 21  1  0
 21 22  1  0
 10  5  1  0
 17 12  1  0
 22 15  1  0
  1 23  1  0
  1 24  1  0
  1 25  1  0
  3 26  1  0
  3 27  1  0
  3 28  1  0
  4 29  1  0
  4 30  1  0
  6 31  1  0
  7 32  1  0
  8 33  1  0
  9 34  1  0
 13 35  1  0
 14 36  1  0
 17 37  1  0
 18 38  1  0
 19 39  1  0
 19 40  1  0
 20 41  1  0
 20 42  1  0
 21 43  1  0
 21 44  1  0
 22 45  1  0
 22 46  1  0
M  END
>  <UniqueID>  (11) 
11

>  <SMILES>  (11) 
CN(C)Cc1ccccc1Sc1ccc2c(c1)NCCCC2

>  <Energy>  (11) 
54.40596944099439

>  <Genealogy>  (11) 
CN(C)Cc1ccccc1Sc1ccc2c(c1)NCCCC2 (3D coordinates assigned)
CN(C)Cc1ccccc1Sc1ccc2c(c1)NCCCC2 (nonaromatic ring conformer: 54.40596944099439 kcal/mol)

>  <smiles>  (11) 
CN(C)Cc1ccccc1Sc1ccc2c(c1)NCCCC2

>  <score_type>  (11) 
oracle

>  <origin>  (11) 
adg

>  <m_score__min__energy>  (11) 
-6.0300000000000002

>  <m_primary>  (11) 
energy

$$$$
11:0
     RDKit          3D

 73 76  0  0  0  0  0  0  0  0999 V2000
   63.4440   33.2190   46.9200 C   0  0  0  0  0  0  0  0  0  0  0  0
   62.0950   33.8450   47.2970 C   0  0  0  0  0  0  0  0  0  0  0  0
   61.7070   33.6230   48.7070 N   0  0  0  0  0  0  0  0  0  0  0  0
   62.6310   34.2180   49.6890 C   0  0  0  0  0  0  0  0  0  0  0  0
   60.2620   33.7940   49.0000 C   0  0  0  0  0  0  0  0  0  0  0  0
   59.4160   32.5140   48.8030 C   0  0  0  0  0  0  0  0  0  0  0  0
   60.1930   31.4670   48.1150 N   0  0  0  0  0  0  0  0  0  0  0  0
   59.3850   30.8460   47.0820 C   0  0  0  0  0  0  0  0  0  0  0  0
   59.0920   29.4550   47.1310 C   0  0  0  0  0  0  0  0  0  0  0  0
   58.2570   28.8830   46.1420 C   0  0  0  0  0  0  0  0  0  0  0  0
   57.9700   29.5830   44.9950 N   0  0  0  0  0  0  0  0  0  0  0  0
   57.6000   28.8630   43.7570 C   0  0  0  0  0  0  0  0  0  0  0  0
   58.1480   30.9500   44.9590 C   0  0  0  0  0  0  0  0  0  0  0  0
   57.6020   31.7250   43.9110 C   0  0  0  0  0  0  0  0  0  0  0  0
   57.8190   33.0970   43.8420 C   0  0  0  0  0  0  0  0  0  0  0  0
   58.5950   33.7280   44.8020 C   0  0  0  0  0  0  0  0  0  0  0  0
   59.1380   32.9960   45.8550 C   0  0  0  0  0  0  0  0  0  0  0  0
   58.8880   31.6040   45.9820 C   0  0  0  0  0  0  0  0  0  0  0  0
   57.8090   27.4620   46.3450 C   0  0  0  0  0  0  0  0  0  0  0  0
   56.5550   27.0040   45.9130 C   0  0  0  0  0  0  0  0  0  0  0  0
   56.2230   25.6470   46.0170 C   0  0  0  0  0  0  0  0  0  0  0  0
   57.1370   24.7370   46.5840 C   0  0  0  0  0  0  0  0  0  0  0  0
   56.9350   23.3530   46.5840 O   0  0  0  0  0  0  0  0  0  0  0  0
   55.7630   22.6630   47.0210 C   0  0  0  0  0  0  0  0  0  0  0  0
   55.3220   21.6720   45.9440 C   0  0  0  0  0  0  0  0  0  0  0  0
   56.4510   21.2740   44.9800 C   0  0  0  0  0  0  0  0  0  0  0  0
   56.1610   21.6950   43.5890 N   0  0  0  0  0  0  0  0  0  0  0  0
   57.1300   21.1250   42.6360 C   0  0  0  0  0  0  0  0  0  0  0  0
   56.1710   23.1600   43.4760 C   0  0  0  0  0  0  0  0  0  0  0  0
   58.3250   25.2210   47.1410 C   0  0  0  0  0  0  0  0  0  0  0  0
   58.6400   26.5850   47.0680 C   0  0  0  0  0  0  0  0  0  0  0  0
   59.8730   27.1260   47.7320 C   0  0  0  0  0  0  0  0  0  0  0  0
   59.6190   28.5520   48.2430 C   0  0  0  0  0  0  0  0  0  0  0  0
   63.9976   32.9621   47.8352 H   0  0  0  0  0  0  0  0  0  0  0  0
   63.2728   32.3083   46.3273 H   0  0  0  0  0  0  0  0  0  0  0  0
   64.0289   33.9377   46.3273 H   0  0  0  0  0  0  0  0  0  0  0  0
   62.1542   34.9291   47.1202 H   0  0  0  0  0  0  0  0  0  0  0  0
   61.3305   33.3579   46.6739 H   0  0  0  0  0  0  0  0  0  0  0  0
   62.2799   33.9919   50.7066 H   0  0  0  0  0  0  0  0  0  0  0  0
   63.6376   33.7980   49.5466 H   0  0  0  0  0  0  0  0  0  0  0  0
   62.6651   35.3082   49.5466 H   0  0  0  0  0  0  0  0  0  0  0  0
   60.1587   34.1174   50.0463 H   0  0  0  0  0  0  0  0  0  0  0  0
   59.8812   34.5363   48.2831 H   0  0  0  0  0  0  0  0  0  0  0  0
   59.0982   32.1381   49.7867 H   0  0  0  0  0  0  0  0  0  0  0  0
   58.5413   32.7641   48.1847 H   0  0  0  0  0  0  0  0  0  0  0  0
   60.5480   30.7580   48.7940 H   0  0  0  0  0  0  0  0  0  0  0  0
   61.0760   31.8750   47.7250 H   0  0  0  0  0  0  0  0  0  0  0  0
   57.1115   27.9125   44.0177 H   0  0  0  0  0  0  0  0  0  0  0  0
   56.9078   29.4811   43.1663 H   0  0  0  0  0  0  0  0  0  0  0  0
   58.5055   28.6600   43.1663 H   0  0  0  0  0  0  0  0  0  0  0  0
   56.9946   31.2344   43.1361 H   0  0  0  0  0  0  0  0  0  0  0  0
   57.3740   33.6827   43.0241 H   0  0  0  0  0  0  0  0  0  0  0  0
   58.7823   34.8097   44.7318 H   0  0  0  0  0  0  0  0  0  0  0  0
   59.7696   33.5034   46.5990 H   0  0  0  0  0  0  0  0  0  0  0  0
   55.8289   27.7141   45.4905 H   0  0  0  0  0  0  0  0  0  0  0  0
   55.2469   25.2913   45.6553 H   0  0  0  0  0  0  0  0  0  0  0  0
   55.9836   22.1190   47.9513 H   0  0  0  0  0  0  0  0  0  0  0  0
   54.9569   23.3892   47.2024 H   0  0  0  0  0  0  0  0  0  0  0  0
   54.9494   20.7628   46.4386 H   0  0  0  0  0  0  0  0  0  0  0  0
   54.5444   22.1687   45.3452 H   0  0  0  0  0  0  0  0  0  0  0  0
   57.3854   21.7521   45.3092 H   0  0  0  0  0  0  0  0  0  0  0  0
   56.5416   20.1778   44.9936 H   0  0  0  0  0  0  0  0  0  0  0  0
   57.9491   20.6432   43.1900 H   0  0  0  0  0  0  0  0  0  0  0  0
   56.6267   20.3791   42.0034 H   0  0  0  0  0  0  0  0  0  0  0  0
   57.5374   21.9273   42.0034 H   0  0  0  0  0  0  0  0  0  0  0  0
   56.1740   23.6053   44.4818 H   0  0  0  0  0  0  0  0  0  0  0  0
   57.0713   23.4796   42.9308 H   0  0  0  0  0  0  0  0  0  0  0  0
   55.2751   23.4918   42.9308 H   0  0  0  0  0  0  0  0  0  0  0  0
   59.0170   24.5266   47.6398 H   0  0  0  0  0  0  0  0  0  0  0  0
   60.1426   26.4790   48.5798 H   0  0  0  0  0  0  0  0  0  0  0  0
   60.6939   27.1483   47.0002 H   0  0  0  0  0  0  0  0  0  0  0  0
   58.8783   28.5147   49.0554 H   0  0  0  0  0  0  0  0  0  0  0  0
   60.5722   28.9661   48.6035 H   0  0  0  0  0  0  0  0  0  0  0  0
  1  2  1  0
  2  3  1  0
  3  4  1  0
  3  5  1  0
  5  6  1  0
  6  7  1  0
  7  8  1  0
  8  9  2  0
  9 10  1  0
 10 11  2  0
 11 12  1  0
 11 13  1  0
 13 14  2  0
 14 15  1  0
 15 16  2  0
 16 17  1  0
 17 18  2  0
 10 19  1  0
 19 20  2  0
 20 21  1  0
 21 22  2  0
 22 23  1  0
 23 24  1  0
 24 25  1  0
 25 26  1  0
 26 27  1  0
 27 28  1  0
 27 29  1  0
 22 30  1  0
 30 31  2  0
 31 32  1  0
 32 33  1  0
 18  8  1  0
 31 19  1  0
 33  9  1  0
 18 13  1  0
  1 34  1  0
  1 35  1  0
  1 36  1  0
  2 37  1  0
  2 38  1  0
  4 39  1  0
  4 40  1  0
  4 41  1  0
  5 42  1  0
  5 43  1  0
  6 44  1  0
  6 45  1  0
  7 46  1  0
  7 47  1  0
 12 48  1  0
 12 49  1  0
 12 50  1  0
 14 51  1  0
 15 52  1  0
 16 53  1  0
 17 54  1  0
 20 55  1  0
 21 56  1  0
 24 57  1  0
 24 58  1  0
 25 59  1  0
 25 60  1  0
 26 61  1  0
 26 62  1  0
 28 63  1  0
 28 64  1  0
 28 65  1  0
 29 66  1  0
 29 67  1  0
 29 68  1  0
 30 69  1  0
 32 70  1  0
 32 71  1  0
 33 72  1  0
 33 73  1  0
M  CHG  2   7   1  11   1
M  END
>  <UniqueID>  (12) 
12

>  <SMILES>  (12) 
CCN(C)CC[NH2+]c1c2c([n+](C)c3ccccc13)-c1ccc(OCCCN(C)C)cc1CC2

>  <Energy>  (12) 
113.5385526502961

>  <Genealogy>  (12) 
CCN(C)CC[NH2+]c1c2c([n+](C)c3ccccc13)-c1ccc(OCCCN(C)C)cc1CC2 (protonated)
CCN(C)CC[NH2+]c1c2c([n+](C)c3ccccc13)-c1ccc(OCCCN(C)C)cc1CC2 (3D coordinates assigned)
CCN(C)CC[NH2+]c1c2c([n+](C)c3ccccc13)-c1ccc(OCCCN(C)C)cc1CC2 (nonaromatic ring conformer: 113.5385526502961 kcal/mol)

>  <smiles>  (12) 
CCN(C)CCNc1c2c([n+](C)c3ccccc13)-c1ccc(OCCCN(C)C)cc1CC2

>  <score_type>  (12) 
oracle

>  <origin>  (12) 
adg

>  <m_score__min__energy>  (12) 
-5.3099999999999996

>  <m_primary>  (12) 
energy

$$$$
12:0
     RDKit          3D

 46 48  0  0  0  0  0  0  0  0999 V2000
   59.7610   26.7860   47.2760 C   0  0  0  0  0  0  0  0  0  0  0  0
   58.8960   27.7380   47.8880 O   0  0  0  0  0  0  0  0  0  0  0  0
   59.0820   29.1270   47.8310 C   0  0  0  0  0  0  0  0  0  0  0  0
   59.7460   29.8460   48.8610 C   0  0  0  0  0  0  0  0  0  0  0  0
   59.8970   31.2410   48.7780 C   0  0  0  0  0  0  0  0  0  0  0  0
   59.3950   31.8940   47.6500 C   0  0  0  0  0  0  0  0  0  0  0  0
   58.7730   31.2000   46.6410 C   0  0  0  0  0  0  0  0  0  0  0  0
   58.5830   29.8170   46.7110 C   0  0  0  0  0  0  0  0  0  0  0  0
   58.3770   32.1330   45.6950 C   0  0  0  0  0  0  0  0  0  0  0  0
   57.6640   31.9110   44.4230 C   0  0  0  0  0  0  0  0  0  0  0  0
   57.7850   32.7640   43.5030 O   0  0  0  0  0  0  0  0  0  0  0  0
   56.8610   30.6930   44.1840 C   0  0  0  0  0  0  0  0  0  0  0  0
   55.7950   30.5200   44.8390 O   0  0  0  0  0  0  0  0  0  0  0  0
   57.3200   29.6690   43.2680 N   0  0  0  0  0  0  0  0  0  0  0  0
   57.7250   28.4720   44.0190 C   0  0  0  0  0  0  0  0  0  0  0  0
   56.2690   29.3420   42.2900 C   0  0  0  0  0  0  0  0  0  0  0  0
   58.7650   33.3690   46.1980 C   0  0  0  0  0  0  0  0  0  0  0  0
   59.3930   33.2180   47.3880 N   0  0  0  0  0  0  0  0  0  0  0  0
   59.9970   34.2940   48.1780 C   0  0  0  0  0  0  0  0  0  0  0  0
   61.4610   34.0160   48.4080 C   0  0  0  0  0  0  0  0  0  0  0  0
   61.9830   34.0140   49.7130 C   0  0  0  0  0  0  0  0  0  0  0  0
   63.3350   33.7260   49.9310 C   0  0  0  0  0  0  0  0  0  0  0  0
   64.1730   33.4370   48.8530 C   0  0  0  0  0  0  0  0  0  0  0  0
   63.6630   33.4380   47.5520 C   0  0  0  0  0  0  0  0  0  0  0  0
   62.3120   33.7240   47.3260 C   0  0  0  0  0  0  0  0  0  0  0  0
   61.8410   33.7240   46.0530 F   0  0  0  0  0  0  0  0  0  0  0  0
   60.2833   26.2112   48.0550 H   0  0  0  0  0  0  0  0  0  0  0  0
   59.1691   26.1018   46.6502 H   0  0  0  0  0  0  0  0  0  0  0  0
   60.4986   27.3098   46.6502 H   0  0  0  0  0  0  0  0  0  0  0  0
   60.1458   29.3057   49.7318 H   0  0  0  0  0  0  0  0  0  0  0  0
   60.3972   31.8035   49.5801 H   0  0  0  0  0  0  0  0  0  0  0  0
   58.0554   29.2803   45.9088 H   0  0  0  0  0  0  0  0  0  0  0  0
   58.1500   30.0160   42.7310 H   0  0  0  0  0  0  0  0  0  0  0  0
   57.6562   28.6753   45.0979 H   0  0  0  0  0  0  0  0  0  0  0  0
   57.0602   27.6346   43.7606 H   0  0  0  0  0  0  0  0  0  0  0  0
   58.7617   28.2103   43.7606 H   0  0  0  0  0  0  0  0  0  0  0  0
   55.3495   29.0559   42.8217 H   0  0  0  0  0  0  0  0  0  0  0  0
   56.0693   30.2205   41.6588 H   0  0  0  0  0  0  0  0  0  0  0  0
   56.6030   28.5053   41.6588 H   0  0  0  0  0  0  0  0  0  0  0  0
   58.5871   34.3335   45.6999 H   0  0  0  0  0  0  0  0  0  0  0  0
   59.8890   35.2458   47.6372 H   0  0  0  0  0  0  0  0  0  0  0  0
   59.4869   34.3533   49.1508 H   0  0  0  0  0  0  0  0  0  0  0  0
   61.3263   34.2397   50.5662 H   0  0  0  0  0  0  0  0  0  0  0  0
   63.7382   33.7274   50.9544 H   0  0  0  0  0  0  0  0  0  0  0  0
   65.2348   33.2085   49.0275 H   0  0  0  0  0  0  0  0  0  0  0  0
   64.3255   33.2133   46.7031 H   0  0  0  0  0  0  0  0  0  0  0  0
  1  2  1  0
  2  3  1  0
  3  4  2  0
  4  5  1  0
  5  6  2  0
  6  7  1  0
  7  8  2  0
  7  9  1  0
  9 10  1  0
 10 11  2  0
 10 12  1  0
 12 13  2  0
 12 14  1  0
 14 15  1  0
 14 16  1  0
  9 17  2  0
 17 18  1  0
 18 19  1  0
 19 20  1  0
 20 21  2  0
 21 22  1  0
 22 23  2  0
 23 24  1  0
 24 25  2  0
 25 26  1  0
  8  3  1  0
 25 20  1  0
 18  6  1  0
  1 27  1  0
  1 28  1  0
  1 29  1  0
  4 30  1  0
  5 31  1  0
  8 32  1  0
 14 33  1  0
 15 34  1  0
 15 35  1  0
 15 36  1  0
 16 37  1  0
 16 38  1  0
 16 39  1  0
 17 40  1  0
 19 41  1  0
 19 42  1  0
 21 43  1  0
 22 44  1  0
 23 45  1  0
 24 46  1  0
M  CHG  1  14   1
M  END
>  <UniqueID>  (13) 
13

>  <SMILES>  (13) 
COc1ccc2c(c1)c(C(=O)C(=O)[NH+](C)C)cn2Cc1ccccc1F

>  <Energy>  (13) 
84.7406551621086

>  <Genealogy>  (13) 
COc1ccc2c(c1)c(C(=O)C(=O)[NH+](C)C)cn2Cc1ccccc1F (protonated)
COc1ccc2c(c1)c(C(=O)C(=O)[NH+](C)C)cn2Cc1ccccc1F (3D coordinates assigned)
COc1ccc2c(c1)c(C(=O)C(=O)[NH+](C)C)cn2Cc1ccccc1F (optimized conformer: 84.7406551621086 kcal/mol)

>  <smiles>  (13) 
COc1ccc2c(c1)c(C(=O)C(=O)N(C)C)cn2Cc1ccccc1F

>  <score_type>  (13) 
oracle

>  <origin>  (13) 
adg

>  <m_score__min__energy>  (13) 
-6.1100000000000003

>  <m_primary>  (13) 
energy

$$$$
13:0
     RDKit          3D

 61 65  0  0  0  0  0  0  0  0999 V2000
   63.4360   33.8170   46.4890 C   0  0  0  0  0  0  0  0  0  0  0  0
   63.3050   33.8410   48.0220 C   0  0  0  0  0  0  0  0  0  0  0  0
   64.1340   32.8220   48.7090 N   0  0  0  0  0  0  0  0  0  0  0  0
   64.8980   33.3970   49.8390 C   0  0  0  0  0  0  0  0  0  0  0  0
   66.1310   32.5570   50.1570 C   0  0  0  0  0  0  0  0  0  0  0  0
   63.3630   31.6020   49.0710 C   0  0  0  0  0  0  0  0  0  0  0  0
   62.3890   31.2300   47.9450 C   0  0  0  0  0  0  0  0  0  0  0  0
   61.0520   31.7710   48.1960 N   0  0  0  0  0  0  0  0  0  0  0  0
   60.0250   31.6570   47.2020 C   0  0  0  0  0  0  0  0  0  0  0  0
   59.6460   32.8150   46.4940 C   0  0  0  0  0  0  0  0  0  0  0  0
   60.1600   34.0830   46.8520 C   0  0  0  0  0  0  0  0  0  0  0  0
   59.7820   35.2270   46.1540 C   0  0  0  0  0  0  0  0  0  0  0  0
   58.8980   35.1320   45.0870 C   0  0  0  0  0  0  0  0  0  0  0  0
   58.3850   33.8910   44.7090 C   0  0  0  0  0  0  0  0  0  0  0  0
   58.7420   32.7100   45.4070 C   0  0  0  0  0  0  0  0  0  0  0  0
   58.2590   31.4750   45.0280 N   0  0  0  0  0  0  0  0  0  0  0  0
   57.0680   31.4010   44.1570 C   0  0  0  0  0  0  0  0  0  0  0  0
   58.8010   30.3280   45.5700 C   0  0  0  0  0  0  0  0  0  0  0  0
   58.6750   29.0530   44.9670 C   0  0  0  0  0  0  0  0  0  0  0  0
   58.2920   28.7250   43.7140 N   0  0  0  0  0  0  0  0  0  0  0  0
   58.4300   27.3790   43.6690 C   0  0  0  0  0  0  0  0  0  0  0  0
   58.1340   26.5540   42.4620 C   0  0  0  0  0  0  0  0  0  0  0  0
   58.9030   26.8840   44.7950 O   0  0  0  0  0  0  0  0  0  0  0  0
   59.0780   27.9090   45.5940 C   0  0  0  0  0  0  0  0  0  0  0  0
   59.5980   27.9080   46.8790 C   0  0  0  0  0  0  0  0  0  0  0  0
   59.9120   26.7050   47.5290 C   0  0  0  0  0  0  0  0  0  0  0  0
   60.3590   26.7210   48.8480 C   0  0  0  0  0  0  0  0  0  0  0  0
   60.4620   27.9290   49.5350 C   0  0  0  0  0  0  0  0  0  0  0  0
   60.1630   29.1350   48.8940 C   0  0  0  0  0  0  0  0  0  0  0  0
   59.7930   29.1640   47.5260 C   0  0  0  0  0  0  0  0  0  0  0  0
   59.5360   30.3880   46.7970 C   0  0  0  0  0  0  0  0  0  0  0  0
   64.4835   33.6251   46.2135 H   0  0  0  0  0  0  0  0  0  0  0  0
   62.7972   33.0209   46.0788 H   0  0  0  0  0  0  0  0  0  0  0  0
   63.1209   34.7878   46.0788 H   0  0  0  0  0  0  0  0  0  0  0  0
   63.6096   34.8353   48.3806 H   0  0  0  0  0  0  0  0  0  0  0  0
   62.2552   33.6121   48.2576 H   0  0  0  0  0  0  0  0  0  0  0  0
   65.2168   34.4161   49.5746 H   0  0  0  0  0  0  0  0  0  0  0  0
   64.2484   33.4112   50.7266 H   0  0  0  0  0  0  0  0  0  0  0  0
   66.2487   32.4768   51.2477 H   0  0  0  0  0  0  0  0  0  0  0  0
   66.0110   31.5520   49.7263 H   0  0  0  0  0  0  0  0  0  0  0  0
   67.0224   33.0365   49.7263 H   0  0  0  0  0  0  0  0  0  0  0  0
   64.0610   30.7681   49.2365 H   0  0  0  0  0  0  0  0  0  0  0  0
   62.7886   31.8022   49.9875 H   0  0  0  0  0  0  0  0  0  0  0  0
   62.7673   31.6365   46.9955 H   0  0  0  0  0  0  0  0  0  0  0  0
   62.3160   30.1334   47.8981 H   0  0  0  0  0  0  0  0  0  0  0  0
   60.8740   32.3940   49.0160 H   0  0  0  0  0  0  0  0  0  0  0  0
   60.8663   34.1664   47.6912 H   0  0  0  0  0  0  0  0  0  0  0  0
   60.1842   36.2077   46.4482 H   0  0  0  0  0  0  0  0  0  0  0  0
   58.6015   36.0381   44.5383 H   0  0  0  0  0  0  0  0  0  0  0  0
   57.6929   33.8279   43.8563 H   0  0  0  0  0  0  0  0  0  0  0  0
   56.1622   31.3447   44.7785 H   0  0  0  0  0  0  0  0  0  0  0  0
   57.0218   32.2980   43.5220 H   0  0  0  0  0  0  0  0  0  0  0  0
   57.1332   30.5052   43.5220 H   0  0  0  0  0  0  0  0  0  0  0  0
   58.0270   29.3400   42.9160 H   0  0  0  0  0  0  0  0  0  0  0  0
   57.7778   25.5613   42.7747 H   0  0  0  0  0  0  0  0  0  0  0  0
   57.3576   27.0495   41.8606 H   0  0  0  0  0  0  0  0  0  0  0  0
   59.0483   26.4428   41.8606 H   0  0  0  0  0  0  0  0  0  0  0  0
   59.8051   25.7484   46.9965 H   0  0  0  0  0  0  0  0  0  0  0  0
   60.6309   25.7795   49.3477 H   0  0  0  0  0  0  0  0  0  0  0  0
   60.7805   27.9337   50.5879 H   0  0  0  0  0  0  0  0  0  0  0  0
   60.2157   30.0765   49.4604 H   0  0  0  0  0  0  0  0  0  0  0  0
  1  2  1  0
  2  3  1  0
  3  4  1  0
  4  5  1  0
  3  6  1  0
  6  7  1  0
  7  8  1  0
  8  9  1  0
  9 10  2  0
 10 11  1  0
 11 12  2  0
 12 13  1  0
 13 14  2  0
 14 15  1  0
 15 16  2  0
 16 17  1  0
 16 18  1  0
 18 19  2  0
 19 20  1  0
 20 21  2  0
 21 22  1  0
 21 23  1  0
 23 24  1  0
 24 25  2  0
 25 26  1  0
 26 27  2  0
 27 28  1  0
 28 29  2  0
 29 30  1  0
 30 31  2  0
 31  9  1  0
 15 10  1  0
 31 18  1  0
 24 19  1  0
 30 25  1  0
  1 32  1  0
  1 33  1  0
  1 34  1  0
  2 35  1  0
  2 36  1  0
  4 37  1  0
  4 38  1  0
  5 39  1  0
  5 40  1  0
  5 41  1  0
  6 42  1  0
  6 43  1  0
  7 44  1  0
  7 45  1  0
  8 46  1  0
 11 47  1  0
 12 48  1  0
 13 49  1  0
 14 50  1  0
 17 51  1  0
 17 52  1  0
 17 53  1  0
 20 54  1  0
 22 55  1  0
 22 56  1  0
 22 57  1  0
 26 58  1  0
 27 59  1  0
 28 60  1  0
 29 61  1  0
M  CHG  2  16   1  20   1
M  END
>  <UniqueID>  (14) 
14

>  <SMILES>  (14) 
CCN(CC)CCNc1c2ccccc2[n+](C)c2c3[nH+]c(C)oc3c3ccccc3c12

>  <Energy>  (14) 
146.70733459265136

>  <Genealogy>  (14) 
CCN(CC)CCNc1c2ccccc2[n+](C)c2c3[nH+]c(C)oc3c3ccccc3c12 (protonated)
CCN(CC)CCNc1c2ccccc2[n+](C)c2c3[nH+]c(C)oc3c3ccccc3c12 (3D coordinates assigned)
CCN(CC)CCNc1c2ccccc2[n+](C)c2c3[nH+]c(C)oc3c3ccccc3c12 (optimized conformer: 146.70733459265136 kcal/mol)

>  <smiles>  (14) 
CCN(CC)CCNc1c2ccccc2[n+](C)c2c3nc(C)oc3c3ccccc3c12

>  <score_type>  (14) 
oracle

>  <origin>  (14) 
adg

>  <m_score__min__energy>  (14) 
-6.0099999999999998

>  <m_primary>  (14) 
energy

$$$$
14:0
     RDKit          3D

 31 32  0  0  0  0  0  0  0  0999 V2000
   61.6670   31.9720   47.9650 C   0  0  0  0  0  0  0  0  0  0  0  0
   61.0990   32.7800   46.8640 N   0  0  0  0  0  0  0  0  0  0  0  0
   62.0720   33.8350   46.5040 C   0  0  0  0  0  0  0  0  0  0  0  0
   59.7670   33.3620   47.2390 C   0  0  2  0  0  0  0  0  0  0  0  0
   58.8480   32.3620   47.9830 C   0  0  0  0  0  0  0  0  0  0  0  0
   58.5190   31.1300   47.1270 C   0  0  0  0  0  0  0  0  0  0  0  0
   58.2140   31.4550   45.6760 C   0  0  0  0  0  0  0  0  0  0  0  0
   57.7320   30.4420   44.8180 C   0  0  0  0  0  0  0  0  0  0  0  0
   57.3920   28.6590   45.4420 Br  0  0  0  0  0  0  0  0  0  0  0  0
   57.4990   30.7160   43.4670 C   0  0  0  0  0  0  0  0  0  0  0  0
   57.7460   31.9880   42.9510 C   0  0  0  0  0  0  0  0  0  0  0  0
   57.4130   32.3500   41.1060 Br  0  0  0  0  0  0  0  0  0  0  0  0
   58.2360   32.9950   43.7820 C   0  0  0  0  0  0  0  0  0  0  0  0
   58.4930   32.7380   45.1370 C   0  0  0  0  0  0  0  0  0  0  0  0
   58.9630   33.8700   46.0180 C   0  0  0  0  0  0  0  0  0  0  0  0
   61.3638   32.4033   48.9305 H   0  0  0  0  0  0  0  0  0  0  0  0
   61.2950   30.9394   47.8917 H   0  0  0  0  0  0  0  0  0  0  0  0
   62.7646   31.9724   47.8917 H   0  0  0  0  0  0  0  0  0  0  0  0
   60.9960   32.1540   46.0300 H   0  0  0  0  0  0  0  0  0  0  0  0
   62.4842   34.2819   47.4207 H   0  0  0  0  0  0  0  0  0  0  0  0
   62.8878   33.3948   45.9118 H   0  0  0  0  0  0  0  0  0  0  0  0
   61.5674   34.6126   45.9118 H   0  0  0  0  0  0  0  0  0  0  0  0
   60.0347   34.1985   47.9012 H   0  0  0  0  0  0  0  0  0  0  0  0
   59.3550   32.0304   48.9012 H   0  0  0  0  0  0  0  0  0  0  0  0
   57.9032   32.8769   48.2114 H   0  0  0  0  0  0  0  0  0  0  0  0
   59.3814   30.4477   47.1556 H   0  0  0  0  0  0  0  0  0  0  0  0
   57.6102   30.6786   47.5517 H   0  0  0  0  0  0  0  0  0  0  0  0
   57.1183   29.9230   42.8065 H   0  0  0  0  0  0  0  0  0  0  0  0
   58.4224   33.9985   43.3719 H   0  0  0  0  0  0  0  0  0  0  0  0
   59.6038   34.5387   45.4246 H   0  0  0  0  0  0  0  0  0  0  0  0
   58.0744   34.3985   46.3936 H   0  0  0  0  0  0  0  0  0  0  0  0
  1  2  1  0
  2  3  1  0
  2  4  1  0
  4  5  1  0
  5  6  1  0
  6  7  1  0
  7  8  2  0
  8  9  1  0
  8 10  1  0
 10 11  2  0
 11 12  1  0
 11 13  1  0
 13 14  2  0
 14 15  1  0
 15  4  1  0
 14  7  1  0
  1 16  1  0
  1 17  1  0
  1 18  1  0
  2 19  1  0
  3 20  1  0
  3 21  1  0
  3 22  1  0
  4 23  1  1
  5 24  1  0
  5 25  1  0
  6 26  1  0
  6 27  1  0
 10 28  1  0
 13 29  1  0
 15 30  1  0
 15 31  1  0
M  CHG  1   2   1
M  END
>  <UniqueID>  (15) 
15

>  <SMILES>  (15) 
C[NH+](C)[C@@H]1CCc2c(Br)cc(Br)cc2C1

>  <Energy>  (15) 
39.20248905073244

>  <Genealogy>  (15) 
C[NH+](C)C1CCc2c(Br)cc(Br)cc2C1 (protonated)
C[NH+](C)[C@@H]1CCc2c(Br)cc(Br)cc2C1 (chirality)
C[NH+](C)[C@@H]1CCc2c(Br)cc(Br)cc2C1 (3D coordinates assigned)
C[NH+](C)[C@@H]1CCc2c(Br)cc(Br)cc2C1 (nonaromatic ring conformer: 39.20248905073244 kcal/mol)

>  <smiles>  (15) 
CN(C)C1CCc2c(Br)cc(Br)cc2C1

>  <score_type>  (15) 
oracle

>  <origin>  (15) 
adg

>  <m_score__min__energy>  (15) 
-5.1900000000000004

>  <m_primary>  (15) 
energy

$$$$
15:0
     RDKit          3D

 52 55  0  0  0  0  0  0  0  0999 V2000
   60.3960   28.5790   45.1320 C   0  0  0  0  0  0  0  0  0  0  0  0
   59.5790   27.3250   45.4430 C   0  0  0  0  0  0  0  0  0  0  0  0
   58.8280   27.4470   46.7150 N   0  0  0  0  0  0  0  0  0  0  0  0
   57.9900   26.2450   46.9790 C   0  0  0  0  0  0  0  0  0  0  0  0
   56.6980   26.3250   46.1760 C   0  0  0  0  0  0  0  0  0  0  0  0
   59.7740   27.6910   47.8300 C   0  0  0  0  0  0  0  0  0  0  0  0
   59.6960   29.1440   48.3300 C   0  0  0  0  0  0  0  0  0  0  0  0
   58.6060   29.8970   47.6980 N   0  0  0  0  0  0  0  0  0  0  0  0
   58.7440   31.2630   47.2730 C   0  0  0  0  0  0  0  0  0  0  0  0
   59.3160   32.2580   48.1060 C   0  0  0  0  0  0  0  0  0  0  0  0
   59.5580   32.0080   49.4700 C   0  0  0  0  0  0  0  0  0  0  0  0
   60.1400   32.9830   50.2800 C   0  0  0  0  0  0  0  0  0  0  0  0
   60.4740   34.2260   49.7520 C   0  0  0  0  0  0  0  0  0  0  0  0
   60.2080   34.5180   48.4140 C   0  0  0  0  0  0  0  0  0  0  0  0
   59.6130   33.5560   47.5650 C   0  0  0  0  0  0  0  0  0  0  0  0
   59.3090   33.8490   46.2450 N   0  0  0  0  0  0  0  0  0  0  0  0
   59.6080   35.1620   45.6490 C   0  0  0  0  0  0  0  0  0  0  0  0
   58.6920   32.8940   45.4920 C   0  0  0  0  0  0  0  0  0  0  0  0
   58.3080   33.0270   44.2360 O   0  0  0  0  0  0  0  0  0  0  0  0
   57.7600   31.8850   43.8860 C   0  0  0  0  0  0  0  0  0  0  0  0
   57.2010   31.5660   42.6510 C   0  0  0  0  0  0  0  0  0  0  0  0
   56.6430   30.2870   42.4900 C   0  0  0  0  0  0  0  0  0  0  0  0
   56.6520   29.3620   43.5560 C   0  0  0  0  0  0  0  0  0  0  0  0
   57.2270   29.7050   44.7940 C   0  0  0  0  0  0  0  0  0  0  0  0
   57.7840   30.9800   44.9260 C   0  0  0  0  0  0  0  0  0  0  0  0
   58.3970   31.6390   45.9770 C   0  0  0  0  0  0  0  0  0  0  0  0
   60.7071   29.0566   46.0728 H   0  0  0  0  0  0  0  0  0  0  0  0
   61.2869   28.3011   44.5497 H   0  0  0  0  0  0  0  0  0  0  0  0
   59.7819   29.2817   44.5497 H   0  0  0  0  0  0  0  0  0  0  0  0
   58.8640   27.1560   44.6243 H   0  0  0  0  0  0  0  0  0  0  0  0
   60.2789   26.4824   45.5437 H   0  0  0  0  0  0  0  0  0  0  0  0
   58.5457   25.3419   46.6863 H   0  0  0  0  0  0  0  0  0  0  0  0
   57.7472   26.2021   48.0510 H   0  0  0  0  0  0  0  0  0  0  0  0
   55.8414   26.3780   46.8640 H   0  0  0  0  0  0  0  0  0  0  0  0
   56.7153   27.2238   45.5421 H   0  0  0  0  0  0  0  0  0  0  0  0
   56.6043   25.4309   45.5421 H   0  0  0  0  0  0  0  0  0  0  0  0
   59.5287   27.0136   48.6612 H   0  0  0  0  0  0  0  0  0  0  0  0
   60.7944   27.5075   47.4624 H   0  0  0  0  0  0  0  0  0  0  0  0
   59.5341   29.1347   49.4180 H   0  0  0  0  0  0  0  0  0  0  0  0
   60.6420   29.6398   48.0667 H   0  0  0  0  0  0  0  0  0  0  0  0
   57.7200   29.3930   47.4710 H   0  0  0  0  0  0  0  0  0  0  0  0
   59.2853   31.0336   49.9015 H   0  0  0  0  0  0  0  0  0  0  0  0
   60.3358   32.7682   51.3409 H   0  0  0  0  0  0  0  0  0  0  0  0
   60.9503   34.9826   50.3929 H   0  0  0  0  0  0  0  0  0  0  0  0
   60.4645   35.5100   48.0139 H   0  0  0  0  0  0  0  0  0  0  0  0
   59.7756   35.8982   46.4490 H   0  0  0  0  0  0  0  0  0  0  0  0
   60.5116   35.0849   45.0264 H   0  0  0  0  0  0  0  0  0  0  0  0
   58.7601   35.4837   45.0264 H   0  0  0  0  0  0  0  0  0  0  0  0
   57.1966   32.2939   41.8263 H   0  0  0  0  0  0  0  0  0  0  0  0
   56.1956   30.0042   41.5257 H   0  0  0  0  0  0  0  0  0  0  0  0
   56.2064   28.3658   43.4182 H   0  0  0  0  0  0  0  0  0  0  0  0
   57.2377   28.9919   45.6315 H   0  0  0  0  0  0  0  0  0  0  0  0
  1  2  1  0
  2  3  1  0
  3  4  1  0
  4  5  1  0
  3  6  1  0
  6  7  1  0
  7  8  1  0
  8  9  1  0
  9 10  2  0
 10 11  1  0
 11 12  2  0
 12 13  1  0
 13 14  2  0
 14 15  1  0
 15 16  2  0
 16 17  1  0
 16 18  1  0
 18 19  1  0
 19 20  1  0
 20 21  2  0
 21 22  1  0
 22 23  2  0
 23 24  1  0
 24 25  2  0
 25 26  1  0
 26  9  1  0
 15 10  1  0
 26 18  2  0
 25 20  1  0
  1 27  1  0
  1 28  1  0
  1 29  1  0
  2 30  1  0
  2 31  1  0
  4 32  1  0
  4 33  1  0
  5 34  1  0
  5 35  1  0
  5 36  1  0
  6 37  1  0
  6 38  1  0
  7 39  1  0
  7 40  1  0
  8 41  1  0
 11 42  1  0
 12 43  1  0
 13 44  1  0
 14 45  1  0
 17 46  1  0
 17 47  1  0
 17 48  1  0
 21 49  1  0
 22 50  1  0
 23 51  1  0
 24 52  1  0
M  CHG  1  16   1
M  END
>  <UniqueID>  (16) 
16

>  <SMILES>  (16) 
CCN(CC)CCNc1c2ccccc2[n+](C)c2oc3ccccc3c12

>  <Energy>  (16) 
107.40117138002452

>  <Genealogy>  (16) 
CCN(CC)CCNc1c2ccccc2[n+](C)c2oc3ccccc3c12 (3D coordinates assigned)
CCN(CC)CCNc1c2ccccc2[n+](C)c2oc3ccccc3c12 (optimized conformer: 107.40117138002452 kcal/mol)

>  <smiles>  (16) 
CCN(CC)CCNc1c2ccccc2[n+](C)c2oc3ccccc3c12

>  <score_type>  (16) 
oracle

>  <origin>  (16) 
adg

>  <m_score__min__energy>  (16) 
-5.7999999999999998

>  <m_primary>  (16) 
energy

$$$$
16:0
     RDKit          3D

 27 28  0  0  0  0  0  0  0  0999 V2000
   56.3120   24.5520   44.4960 C   0  0  0  0  0  0  0  0  0  0  0  0
   55.4630   25.4880   45.7500 S   0  0  0  0  0  0  0  0  0  0  0  0
   55.9020   24.9920   47.0980 O   0  0  0  0  0  0  0  0  0  0  0  0
   53.9760   25.3040   45.6290 O   0  0  0  0  0  0  0  0  0  0  0  0
   55.8680   27.1690   45.6200 N   0  0  0  0  0  0  0  0  0  0  0  0
   57.1860   27.7420   45.6230 C   0  0  0  0  0  0  0  0  0  0  0  0
   58.2750   27.0030   46.1220 C   0  0  0  0  0  0  0  0  0  0  0  0
   59.5330   27.5810   46.2550 C   0  0  0  0  0  0  0  0  0  0  0  0
   59.7290   28.9150   45.9190 C   0  0  0  0  0  0  0  0  0  0  0  0
   58.6720   29.6790   45.4080 C   0  0  0  0  0  0  0  0  0  0  0  0
   58.8880   31.0330   45.1140 C   0  0  0  0  0  0  0  0  0  0  0  0
   57.8540   31.8190   44.6190 C   0  0  0  0  0  0  0  0  0  0  0  0
   56.6070   31.2560   44.3670 C   0  0  0  0  0  0  0  0  0  0  0  0
   56.3660   29.8950   44.6120 C   0  0  0  0  0  0  0  0  0  0  0  0
   55.1110   29.3570   44.1770 N   0  0  0  0  0  0  0  0  0  0  0  0
   57.3900   29.0890   45.1990 C   0  0  0  0  0  0  0  0  0  0  0  0
   56.9776   23.8181   44.9739 H   0  0  0  0  0  0  0  0  0  0  0  0
   55.5762   24.0263   43.8696 H   0  0  0  0  0  0  0  0  0  0  0  0
   56.9067   25.2332   43.8696 H   0  0  0  0  0  0  0  0  0  0  0  0
   58.1288   25.9518   46.4113 H   0  0  0  0  0  0  0  0  0  0  0  0
   60.3757   26.9801   46.6275 H   0  0  0  0  0  0  0  0  0  0  0  0
   60.7196   29.3735   46.0550 H   0  0  0  0  0  0  0  0  0  0  0  0
   59.8818   31.4758   45.2761 H   0  0  0  0  0  0  0  0  0  0  0  0
   58.0221   32.8888   44.4260 H   0  0  0  0  0  0  0  0  0  0  0  0
   55.7979   31.8867   43.9699 H   0  0  0  0  0  0  0  0  0  0  0  0
   54.3780   29.9730   43.7640 H   0  0  0  0  0  0  0  0  0  0  0  0
   54.7960   28.4200   44.5140 H   0  0  0  0  0  0  0  0  0  0  0  0
  1  2  1  0
  2  3  2  0
  2  4  2  0
  2  5  1  0
  5  6  1  0
  6  7  2  0
  7  8  1  0
  8  9  2  0
  9 10  1  0
 10 11  2  0
 11 12  1  0
 12 13  2  0
 13 14  1  0
 14 15  1  0
 14 16  2  0
 16  6  1  0
 16 10  1  0
  1 17  1  0
  1 18  1  0
  1 19  1  0
  7 20  1  0
  8 21  1  0
  9 22  1  0
 11 23  1  0
 12 24  1  0
 13 25  1  0
 15 26  1  0
 15 27  1  0
M  CHG  1   5  -1
M  END
>  <UniqueID>  (17) 
17

>  <SMILES>  (17) 
CS(=O)(=O)[N-]c1cccc2cccc(N)c12

>  <Energy>  (17) 
38.56869011069392

>  <Genealogy>  (17) 
CS(=O)(=O)[N-]c1cccc2cccc(N)c12 (protonated)
CS(=O)(=O)[N-]c1cccc2cccc(N)c12 (3D coordinates assigned)
CS(=O)(=O)[N-]c1cccc2cccc(N)c12 (optimized conformer: 38.56869011069392 kcal/mol)

>  <smiles>  (17) 
CS(=O)(=O)Nc1cccc2cccc(N)c12

>  <score_type>  (17) 
oracle

>  <origin>  (17) 
adg

>  <m_score__min__energy>  (17) 
-9.2799999999999994

>  <m_primary>  (17) 
energy

$$$$
17:0
     RDKit          3D

 53 55  0  0  0  0  0  0  0  0999 V2000
   63.3530   33.8460   46.3380 C   0  0  0  0  0  0  0  0  0  0  0  0
   62.4930   33.3200   47.4120 N   0  0  0  0  0  0  0  0  0  0  0  0
   62.7240   31.8740   47.5510 C   0  0  0  0  0  0  0  0  0  0  0  0
   62.7500   34.0060   48.6990 C   0  0  0  0  0  0  0  0  0  0  0  0
   61.7060   33.6370   49.7680 C   0  0  0  0  0  0  0  0  0  0  0  0
   60.2970   34.1930   49.4810 C   0  0  0  0  0  0  0  0  0  0  0  0
   59.6000   33.4260   48.4230 N   0  0  0  0  0  0  0  0  0  0  0  0
   59.2150   32.1150   48.6160 C   0  0  0  0  0  0  0  0  0  0  0  0
   59.4250   31.2670   50.2000 S   0  0  0  0  0  0  0  0  0  0  0  0
   60.5130   29.9370   49.5640 C   0  0  0  0  0  0  0  0  0  0  0  0
   59.7230   28.7720   48.9710 C   0  0  0  0  0  0  0  0  0  0  0  0
   59.4740   29.0110   47.5880 O   0  0  0  0  0  0  0  0  0  0  0  0
   58.8760   28.0940   46.7100 C   0  0  0  0  0  0  0  0  0  0  0  0
   57.8080   27.2630   47.1070 C   0  0  0  0  0  0  0  0  0  0  0  0
   57.2250   26.3810   46.1920 C   0  0  0  0  0  0  0  0  0  0  0  0
   57.6980   26.3170   44.8790 C   0  0  0  0  0  0  0  0  0  0  0  0
   58.7640   27.1280   44.4800 C   0  0  0  0  0  0  0  0  0  0  0  0
   59.3560   28.0100   45.3920 C   0  0  0  0  0  0  0  0  0  0  0  0
   60.7280   28.9820   44.8750 Cl  0  0  0  0  0  0  0  0  0  0  0  0
   58.6830   31.3980   47.5890 N   0  0  0  0  0  0  0  0  0  0  0  0
   58.4800   31.9510   46.3650 C   0  0  0  0  0  0  0  0  0  0  0  0
   57.9260   31.1910   45.3230 C   0  0  0  0  0  0  0  0  0  0  0  0
   57.7080   31.7690   44.0680 C   0  0  0  0  0  0  0  0  0  0  0  0
   57.0140   30.8140   42.7710 Cl  0  0  0  0  0  0  0  0  0  0  0  0
   58.0400   33.1090   43.8480 C   0  0  0  0  0  0  0  0  0  0  0  0
   58.5930   33.8730   44.8780 C   0  0  0  0  0  0  0  0  0  0  0  0
   58.8180   33.2990   46.1450 C   0  0  0  0  0  0  0  0  0  0  0  0
   59.3720   34.0280   47.2080 C   0  0  0  0  0  0  0  0  0  0  0  0
   59.6620   35.2450   47.0390 O   0  0  0  0  0  0  0  0  0  0  0  0
   64.2121   34.3715   46.7804 H   0  0  0  0  0  0  0  0  0  0  0  0
   63.7132   33.0135   45.7158 H   0  0  0  0  0  0  0  0  0  0  0  0
   62.7759   34.5459   45.7158 H   0  0  0  0  0  0  0  0  0  0  0  0
   62.7661   31.6103   48.6181 H   0  0  0  0  0  0  0  0  0  0  0  0
   61.9024   31.3235   47.0694 H   0  0  0  0  0  0  0  0  0  0  0  0
   63.6762   31.6068   47.0694 H   0  0  0  0  0  0  0  0  0  0  0  0
   63.7474   33.7174   49.0622 H   0  0  0  0  0  0  0  0  0  0  0  0
   62.6884   35.0903   48.5241 H   0  0  0  0  0  0  0  0  0  0  0  0
   61.6409   32.5404   49.8250 H   0  0  0  0  0  0  0  0  0  0  0  0
   62.0420   34.0890   50.7129 H   0  0  0  0  0  0  0  0  0  0  0  0
   59.7017   34.1446   50.4047 H   0  0  0  0  0  0  0  0  0  0  0  0
   60.4070   35.2300   49.1308 H   0  0  0  0  0  0  0  0  0  0  0  0
   61.1639   30.3564   48.7827 H   0  0  0  0  0  0  0  0  0  0  0  0
   61.0982   29.5489   50.4107 H   0  0  0  0  0  0  0  0  0  0  0  0
   60.3025   27.8437   49.0825 H   0  0  0  0  0  0  0  0  0  0  0  0
   58.7640   28.6766   49.5012 H   0  0  0  0  0  0  0  0  0  0  0  0
   57.4324   27.3088   48.1399 H   0  0  0  0  0  0  0  0  0  0  0  0
   56.3916   25.7357   46.5068 H   0  0  0  0  0  0  0  0  0  0  0  0
   57.2314   25.6283   44.1593 H   0  0  0  0  0  0  0  0  0  0  0  0
   59.1387   27.0732   43.4472 H   0  0  0  0  0  0  0  0  0  0  0  0
   58.4200   30.3990   47.7550 H   0  0  0  0  0  0  0  0  0  0  0  0
   57.6623   30.1369   45.4940 H   0  0  0  0  0  0  0  0  0  0  0  0
   57.8653   33.5627   42.8613 H   0  0  0  0  0  0  0  0  0  0  0  0
   58.8538   34.9266   44.6995 H   0  0  0  0  0  0  0  0  0  0  0  0
  1  2  1  0
  2  3  1  0
  2  4  1  0
  4  5  1  0
  5  6  1  0
  6  7  1  0
  7  8  1  0
  8  9  1  0
  9 10  1  0
 10 11  1  0
 11 12  1  0
 12 13  1  0
 13 14  2  0
 14 15  1  0
 15 16  2  0
 16 17  1  0
 17 18  2  0
 18 19  1  0
  8 20  2  0
 20 21  1  0
 21 22  2  0
 22 23  1  0
 23 24  1  0
 23 25  2  0
 25 26  1  0
 26 27  2  0
 27 28  1  0
 28 29  2  0
 28  7  1  0
 18 13  1  0
 27 21  1  0
  1 30  1  0
  1 31  1  0
  1 32  1  0
  3 33  1  0
  3 34  1  0
  3 35  1  0
  4 36  1  0
  4 37  1  0
  5 38  1  0
  5 39  1  0
  6 40  1  0
  6 41  1  0
 10 42  1  0
 10 43  1  0
 11 44  1  0
 11 45  1  0
 14 46  1  0
 15 47  1  0
 16 48  1  0
 17 49  1  0
 20 50  1  0
 22 51  1  0
 25 52  1  0
 26 53  1  0
M  CHG  1  20   1
M  END
>  <UniqueID>  (18) 
18

>  <SMILES>  (18) 
CN(C)CCCn1c(SCCOc2ccccc2Cl)[nH+]c2cc(Cl)ccc2c1=O

>  <Energy>  (18) 
51.90930202277052

>  <Genealogy>  (18) 
CN(C)CCCn1c(SCCOc2ccccc2Cl)[nH+]c2cc(Cl)ccc2c1=O (protonated)
CN(C)CCCn1c(SCCOc2ccccc2Cl)[nH+]c2cc(Cl)ccc2c1=O (3D coordinates assigned)
CN(C)CCCn1c(SCCOc2ccccc2Cl)[nH+]c2cc(Cl)ccc2c1=O (optimized conformer: 51.90930202277052 kcal/mol)

>  <smiles>  (18) 
CN(C)CCCn1c(SCCOc2ccccc2Cl)nc2cc(Cl)ccc2c1=O

>  <score_type>  (18) 
oracle

>  <origin>  (18) 
adg

>  <m_score__min__energy>  (18) 
-6.2999999999999998

>  <m_primary>  (18) 
energy

$$$$
18:0
     RDKit          3D

 51 53  0  0  0  0  0  0  0  0999 V2000
   58.7200   33.0950   51.5410 C   0  0  0  0  0  0  0  0  0  0  0  0
   60.1930   33.3840   51.8200 C   0  0  0  0  0  0  0  0  0  0  0  0
   60.9520   33.8290   50.5600 C   0  0  0  0  0  0  0  0  0  0  0  0
   60.9030   32.8000   49.5080 N   0  0  0  0  0  0  0  0  0  0  0  0
   61.5770   31.6220   49.6820 C   0  0  0  0  0  0  0  0  0  0  0  0
   61.5470   30.6230   48.7030 C   0  0  0  0  0  0  0  0  0  0  0  0
   60.8100   30.8040   47.5200 C   0  0  0  0  0  0  0  0  0  0  0  0
   60.8970   29.8260   46.4760 N   0  0  0  0  0  0  0  0  0  0  0  0
   59.7980   28.9180   46.1470 C   0  0  0  0  0  0  0  0  0  0  0  0
   59.7760   28.6310   44.6310 C   0  0  0  0  0  0  0  0  0  0  0  0
   58.4260   28.6590   44.0170 N   0  0  0  0  0  0  0  0  0  0  0  0
   57.3580   28.8750   45.0100 C   0  0  0  0  0  0  0  0  0  0  0  0
   58.1500   27.4660   43.1980 C   0  0  0  0  0  0  0  0  0  0  0  0
   60.0810   32.0020   47.3660 C   0  0  0  0  0  0  0  0  0  0  0  0
   59.2130   32.4010   46.3170 C   0  0  0  0  0  0  0  0  0  0  0  0
   58.7830   31.6590   45.2010 C   0  0  0  0  0  0  0  0  0  0  0  0
   57.9000   32.2390   44.2730 C   0  0  0  0  0  0  0  0  0  0  0  0
   57.5020   31.4690   43.1700 O   0  0  0  0  0  0  0  0  0  0  0  0
   57.4100   31.9600   41.8370 C   0  0  0  0  0  0  0  0  0  0  0  0
   57.4350   33.5600   44.4760 C   0  0  0  0  0  0  0  0  0  0  0  0
   57.8330   34.2850   45.6040 C   0  0  0  0  0  0  0  0  0  0  0  0
   58.7080   33.6870   46.5050 C   0  0  0  0  0  0  0  0  0  0  0  0
   59.2590   34.3390   47.9520 S   0  0  0  0  0  0  0  0  0  0  0  0
   60.1720   32.9780   48.3660 C   0  0  0  0  0  0  0  0  0  0  0  0
   58.1803   32.9891   52.4936 H   0  0  0  0  0  0  0  0  0  0  0  0
   58.2863   33.9252   50.9642 H   0  0  0  0  0  0  0  0  0  0  0  0
   58.6322   32.1625   50.9642 H   0  0  0  0  0  0  0  0  0  0  0  0
   60.2597   34.1830   52.5731 H   0  0  0  0  0  0  0  0  0  0  0  0
   60.6553   32.4524   52.1784 H   0  0  0  0  0  0  0  0  0  0  0  0
   60.4966   34.7540   50.1766 H   0  0  0  0  0  0  0  0  0  0  0  0
   62.0050   33.9941   50.8321 H   0  0  0  0  0  0  0  0  0  0  0  0
   62.1512   31.4579   50.6058 H   0  0  0  0  0  0  0  0  0  0  0  0
   62.1049   29.6881   48.8604 H   0  0  0  0  0  0  0  0  0  0  0  0
   61.8020   29.7220   45.9640 H   0  0  0  0  0  0  0  0  0  0  0  0
   59.9323   27.9728   46.6933 H   0  0  0  0  0  0  0  0  0  0  0  0
   58.8465   29.3884   46.4360 H   0  0  0  0  0  0  0  0  0  0  0  0
   60.3969   29.3879   44.1294 H   0  0  0  0  0  0  0  0  0  0  0  0
   60.1561   27.6069   44.5019 H   0  0  0  0  0  0  0  0  0  0  0  0
   58.4120   29.4830   43.3700 H   0  0  0  0  0  0  0  0  0  0  0  0
   57.7771   28.7902   46.0235 H   0  0  0  0  0  0  0  0  0  0  0  0
   56.9281   29.8783   44.8737 H   0  0  0  0  0  0  0  0  0  0  0  0
   56.5720   28.1176   44.8737 H   0  0  0  0  0  0  0  0  0  0  0  0
   57.9514   26.6073   43.8562 H   0  0  0  0  0  0  0  0  0  0  0  0
   57.2712   27.6524   42.5631 H   0  0  0  0  0  0  0  0  0  0  0  0
   59.0213   27.2475   42.5631 H   0  0  0  0  0  0  0  0  0  0  0  0
   59.1369   30.6277   45.0551 H   0  0  0  0  0  0  0  0  0  0  0  0
   57.2075   33.0410   41.8576 H   0  0  0  0  0  0  0  0  0  0  0  0
   58.3585   31.7746   41.3117 H   0  0  0  0  0  0  0  0  0  0  0  0
   56.5929   31.4438   41.3117 H   0  0  0  0  0  0  0  0  0  0  0  0
   56.7564   34.0195   43.7422 H   0  0  0  0  0  0  0  0  0  0  0  0
   57.4620   35.3063   45.7750 H   0  0  0  0  0  0  0  0  0  0  0  0
  1  2  1  0
  2  3  1  0
  3  4  1  0
  4  5  2  0
  5  6  1  0
  6  7  2  0
  7  8  1  0
  8  9  1  0
  9 10  1  0
 10 11  1  0
 11 12  1  0
 11 13  1  0
  7 14  1  0
 14 15  1  0
 15 16  2  0
 16 17  1  0
 17 18  1  0
 18 19  1  0
 17 20  2  0
 20 21  1  0
 21 22  2  0
 22 23  1  0
 23 24  1  0
 24  4  1  0
 24 14  2  0
 22 15  1  0
  1 25  1  0
  1 26  1  0
  1 27  1  0
  2 28  1  0
  2 29  1  0
  3 30  1  0
  3 31  1  0
  5 32  1  0
  6 33  1  0
  8 34  1  0
  9 35  1  0
  9 36  1  0
 10 37  1  0
 10 38  1  0
 11 39  1  0
 12 40  1  0
 12 41  1  0
 12 42  1  0
 13 43  1  0
 13 44  1  0
 13 45  1  0
 16 46  1  0
 19 47  1  0
 19 48  1  0
 19 49  1  0
 20 50  1  0
 21 51  1  0
M  CHG  2   4   1  11   1
M  END
>  <UniqueID>  (19) 
19

>  <SMILES>  (19) 
CCC[n+]1ccc(NCC[NH+](C)C)c2c3cc(OC)ccc3sc21

>  <Energy>  (19) 
92.07183270098666

>  <Genealogy>  (19) 
CCC[n+]1ccc(NCC[NH+](C)C)c2c3cc(OC)ccc3sc21 (protonated)
CCC[n+]1ccc(NCC[NH+](C)C)c2c3cc(OC)ccc3sc21 (3D coordinates assigned)
CCC[n+]1ccc(NCC[NH+](C)C)c2c3cc(OC)ccc3sc21 (optimized conformer: 92.07183270098666 kcal/mol)

>  <smiles>  (19) 
CCC[n+]1ccc(NCCN(C)C)c2c3cc(OC)ccc3sc21

>  <score_type>  (19) 
oracle

>  <origin>  (19) 
adg

>  <m_score__min__energy>  (19) 
-4.0800000000000001

>  <m_primary>  (19) 
energy

$$$$
19:0
     RDKit          3D

 66 70  0  0  0  0  0  0  0  0999 V2000
   60.7160   29.5080   48.5620 C   0  0  0  0  0  0  0  0  0  0  0  0
   60.3850   29.9220   47.1320 C   0  0  0  0  0  0  0  0  0  0  0  0
   58.9430   29.6850   46.8630 N   0  0  0  0  0  0  0  0  0  0  0  0
   58.4620   28.4390   47.5040 C   0  0  0  0  0  0  0  0  0  0  0  0
   57.8510   27.4970   46.4670 C   0  0  0  0  0  0  0  0  0  0  0  0
   58.6380   29.6870   45.4120 C   0  0  0  0  0  0  0  0  0  0  0  0
   58.4320   31.1130   44.8880 C   0  0  0  0  0  0  0  0  0  0  0  0
   57.4120   31.7530   45.6300 O   0  0  0  0  0  0  0  0  0  0  0  0
   57.6240   33.1530   45.6860 C   0  0  0  0  0  0  0  0  0  0  0  0
   57.9950   33.5980   47.1040 C   0  0  0  0  0  0  0  0  0  0  0  0
   58.2350   32.4530   47.9800 N   0  0  0  0  0  0  0  0  0  0  0  0
   59.1590   32.5690   49.0720 C   0  0  0  0  0  0  0  0  0  0  0  0
   58.7280   32.3560   50.3940 C   0  0  0  0  0  0  0  0  0  0  0  0
   57.4080   31.9430   50.6680 C   0  0  0  0  0  0  0  0  0  0  0  0
   56.9780   31.7650   51.9810 C   0  0  0  0  0  0  0  0  0  0  0  0
   57.8510   31.9990   53.0400 C   0  0  0  0  0  0  0  0  0  0  0  0
   59.1610   32.4080   52.7910 C   0  0  0  0  0  0  0  0  0  0  0  0
   59.6300   32.5880   51.4670 C   0  0  0  0  0  0  0  0  0  0  0  0
   60.9230   32.9950   51.2110 N   0  0  0  0  0  0  0  0  0  0  0  0
   61.6360   33.7750   52.2480 C   0  0  0  0  0  0  0  0  0  0  0  0
   61.4190   32.9240   49.9240 C   0  0  0  0  0  0  0  0  0  0  0  0
   60.5130   32.8570   48.8250 C   0  0  0  0  0  0  0  0  0  0  0  0
   60.9770   33.1040   47.5020 C   0  0  0  0  0  0  0  0  0  0  0  0
   62.3300   33.3600   47.2500 C   0  0  0  0  0  0  0  0  0  0  0  0
   63.2220   33.2820   48.3100 C   0  0  0  0  0  0  0  0  0  0  0  0
   64.5670   33.3050   48.2080 N   0  0  0  0  0  0  0  0  0  0  0  0
   65.0160   32.9610   49.4290 C   0  0  0  0  0  0  0  0  0  0  0  0
   66.3420   32.7110   49.7820 C   0  0  0  0  0  0  0  0  0  0  0  0
   66.5990   32.1830   51.0560 C   0  0  0  0  0  0  0  0  0  0  0  0
   65.5320   31.8690   51.9240 C   0  0  0  0  0  0  0  0  0  0  0  0
   64.2020   32.1090   51.5380 C   0  0  0  0  0  0  0  0  0  0  0  0
   63.9710   32.7270   50.3040 C   0  0  0  0  0  0  0  0  0  0  0  0
   62.7990   33.0040   49.6020 C   0  0  0  0  0  0  0  0  0  0  0  0
   60.1883   30.1680   49.2663 H   0  0  0  0  0  0  0  0  0  0  0  0
   60.3977   28.4678   48.7256 H   0  0  0  0  0  0  0  0  0  0  0  0
   61.8007   29.5896   48.7256 H   0  0  0  0  0  0  0  0  0  0  0  0
   60.6110   30.9903   46.9990 H   0  0  0  0  0  0  0  0  0  0  0  0
   60.9889   29.3267   46.4314 H   0  0  0  0  0  0  0  0  0  0  0  0
   59.3083   27.9356   47.9944 H   0  0  0  0  0  0  0  0  0  0  0  0
   57.6902   28.6979   48.2437 H   0  0  0  0  0  0  0  0  0  0  0  0
   57.3215   26.6807   46.9801 H   0  0  0  0  0  0  0  0  0  0  0  0
   57.1424   28.0549   45.8373 H   0  0  0  0  0  0  0  0  0  0  0  0
   58.6494   27.0774   45.8373 H   0  0  0  0  0  0  0  0  0  0  0  0
   59.4749   29.2232   44.8693 H   0  0  0  0  0  0  0  0  0  0  0  0
   57.7087   29.1206   45.2518 H   0  0  0  0  0  0  0  0  0  0  0  0
   59.3693   31.6793   44.9918 H   0  0  0  0  0  0  0  0  0  0  0  0
   58.1394   31.0720   43.8284 H   0  0  0  0  0  0  0  0  0  0  0  0
   58.4414   33.4204   45.0001 H   0  0  0  0  0  0  0  0  0  0  0  0
   56.6925   33.6595   45.3932 H   0  0  0  0  0  0  0  0  0  0  0  0
   58.9074   34.2108   47.0589 H   0  0  0  0  0  0  0  0  0  0  0  0
   57.1543   34.1762   47.5149 H   0  0  0  0  0  0  0  0  0  0  0  0
   58.0220   31.4910   47.6260 H   0  0  0  0  0  0  0  0  0  0  0  0
   56.7110   31.7596   49.8370 H   0  0  0  0  0  0  0  0  0  0  0  0
   55.9467   31.4389   52.1815 H   0  0  0  0  0  0  0  0  0  0  0  0
   57.5068   31.8610   54.0756 H   0  0  0  0  0  0  0  0  0  0  0  0
   59.8403   32.5936   53.6361 H   0  0  0  0  0  0  0  0  0  0  0  0
   61.3225   33.4320   53.2450 H   0  0  0  0  0  0  0  0  0  0  0  0
   62.7205   33.6303   52.1347 H   0  0  0  0  0  0  0  0  0  0  0  0
   61.3947   34.8422   52.1347 H   0  0  0  0  0  0  0  0  0  0  0  0
   60.2623   33.0935   46.6659 H   0  0  0  0  0  0  0  0  0  0  0  0
   62.6770   33.6163   46.2381 H   0  0  0  0  0  0  0  0  0  0  0  0
   65.1310   33.4470   47.3400 H   0  0  0  0  0  0  0  0  0  0  0  0
   67.1632   32.9219   49.0811 H   0  0  0  0  0  0  0  0  0  0  0  0
   67.6365   32.0131   51.3795 H   0  0  0  0  0  0  0  0  0  0  0  0
   65.7428   31.4325   52.9115 H   0  0  0  0  0  0  0  0  0  0  0  0
   63.3644   31.8185   52.1891 H   0  0  0  0  0  0  0  0  0  0  0  0
  1  2  1  0
  2  3  1  0
  3  4  1  0
  4  5  1  0
  3  6  1  0
  6  7  1  0
  7  8  1  0
  8  9  1  0
  9 10  1  0
 10 11  1  0
 11 12  1  0
 12 13  2  0
 13 14  1  0
 14 15  2  0
 15 16  1  0
 16 17  2  0
 17 18  1  0
 18 19  2  0
 19 20  1  0
 19 21  1  0
 21 22  2  0
 22 23  1  0
 23 24  2  0
 24 25  1  0
 25 26  1  0
 26 27  1  0
 27 28  2  0
 28 29  1  0
 29 30  2  0
 30 31  1  0
 31 32  2  0
 32 33  1  0
 22 12  1  0
 33 25  2  0
 18 13  1  0
 33 21  1  0
 32 27  1  0
  1 34  1  0
  1 35  1  0
  1 36  1  0
  2 37  1  0
  2 38  1  0
  4 39  1  0
  4 40  1  0
  5 41  1  0
  5 42  1  0
  5 43  1  0
  6 44  1  0
  6 45  1  0
  7 46  1  0
  7 47  1  0
  9 48  1  0
  9 49  1  0
 10 50  1  0
 10 51  1  0
 11 52  1  0
 14 53  1  0
 15 54  1  0
 16 55  1  0
 17 56  1  0
 20 57  1  0
 20 58  1  0
 20 59  1  0
 23 60  1  0
 24 61  1  0
 26 62  1  0
 28 63  1  0
 29 64  1  0
 30 65  1  0
 31 66  1  0
M  CHG  1  19   1
M  END
>  <UniqueID>  (20) 
20

>  <SMILES>  (20) 
CCN(CC)CCOCCNc1c2ccccc2[n+](C)c2c1ccc1[nH]c3ccccc3c12

>  <Energy>  (20) 
149.67243709002548

>  <Genealogy>  (20) 
CCN(CC)CCOCCNc1c2ccccc2[n+](C)c2c1ccc1[nH]c3ccccc3c12 (3D coordinates assigned)
CCN(CC)CCOCCNc1c2ccccc2[n+](C)c2c1ccc1[nH]c3ccccc3c12 (optimized conformer: 149.67243709002548 kcal/mol)

>  <smiles>  (20) 
CCN(CC)CCOCCNc1c2ccccc2[n+](C)c2c1ccc1[nH]c3ccccc3c12

>  <score_type>  (20) 
oracle

>  <origin>  (20) 
adg

>  <m_score__min__energy>  (20) 
-6.9000000000000004

>  <m_primary>  (20) 
energy

$$$$
20:0
     RDKit          3D

 56 58  0  0  0  0  0  0  0  0999 V2000
   58.6270   26.2860   46.4110 C   0  0  0  0  0  0  0  0  0  0  0  0
   57.3620   27.0950   46.6760 C   0  0  0  0  0  0  0  0  0  0  0  0
   56.8350   27.6560   45.4310 N   0  0  0  0  0  0  0  0  0  0  0  0
   57.1510   28.9670   44.9220 C   0  0  0  0  0  0  0  0  0  0  0  0
   56.3190   29.6310   43.9990 C   0  0  0  0  0  0  0  0  0  0  0  0
   56.6600   30.9000   43.5240 C   0  0  0  0  0  0  0  0  0  0  0  0
   57.8370   31.5280   43.9580 C   0  0  0  0  0  0  0  0  0  0  0  0
   58.1900   32.9010   43.4470 C   0  0  0  0  0  0  0  0  0  0  0  0
   58.0600   33.9010   44.5250 N   0  0  0  0  0  0  0  0  0  0  0  0
   59.3830   34.1890   45.1250 C   0  0  0  0  0  0  0  0  0  0  0  0
   59.2350   34.8630   46.4960 C   0  0  0  0  0  0  0  0  0  0  0  0
   58.5050   34.0070   47.4700 N   0  0  0  0  0  0  0  0  0  0  0  0
   59.3910   33.4070   48.4960 C   0  0  0  0  0  0  0  0  0  0  0  0
   60.8750   33.6190   48.1310 C   0  0  0  0  0  0  0  0  0  0  0  0
   61.6630   34.1370   49.3650 C   0  0  0  0  0  0  0  0  0  0  0  0
   63.1750   33.8390   49.3100 C   0  0  0  0  0  0  0  0  0  0  0  0
   63.6810   33.7360   47.8700 C   0  0  0  0  0  0  0  0  0  0  0  0
   62.9840   32.5920   47.1100 C   0  0  0  0  0  0  0  0  0  0  0  0
   61.5300   32.3430   47.5630 C   0  0  0  0  0  0  0  0  0  0  0  0
   57.6440   32.9880   46.8260 C   0  0  0  0  0  0  0  0  0  0  0  0
   57.0280   33.5200   45.5250 C   0  0  0  0  0  0  0  0  0  0  0  0
   58.6720   30.8660   44.8700 C   0  0  0  0  0  0  0  0  0  0  0  0
   58.3320   29.5970   45.3450 C   0  0  0  0  0  0  0  0  0  0  0  0
   59.0830   25.9943   47.3686 H   0  0  0  0  0  0  0  0  0  0  0  0
   58.3714   25.3834   45.8366 H   0  0  0  0  0  0  0  0  0  0  0  0
   59.3392   26.8967   45.8366 H   0  0  0  0  0  0  0  0  0  0  0  0
   56.6022   26.4395   47.1265 H   0  0  0  0  0  0  0  0  0  0  0  0
   57.6078   27.9212   47.3594 H   0  0  0  0  0  0  0  0  0  0  0  0
   56.1760   27.0560   44.8830 H   0  0  0  0  0  0  0  0  0  0  0  0
   55.3948   29.1472   43.6500 H   0  0  0  0  0  0  0  0  0  0  0  0
   56.0015   31.4098   42.8053 H   0  0  0  0  0  0  0  0  0  0  0  0
   59.2272   32.8957   43.0808 H   0  0  0  0  0  0  0  0  0  0  0  0
   57.5019   33.1654   42.6305 H   0  0  0  0  0  0  0  0  0  0  0  0
   59.9350   33.2454   45.2467 H   0  0  0  0  0  0  0  0  0  0  0  0
   59.9272   34.8730   44.4572 H   0  0  0  0  0  0  0  0  0  0  0  0
   60.2375   35.0771   46.8950 H   0  0  0  0  0  0  0  0  0  0  0  0
   58.6528   35.7858   46.3563 H   0  0  0  0  0  0  0  0  0  0  0  0
   59.1879   33.8793   49.4685 H   0  0  0  0  0  0  0  0  0  0  0  0
   59.1913   32.3264   48.5456 H   0  0  0  0  0  0  0  0  0  0  0  0
   60.9109   34.3770   47.3347 H   0  0  0  0  0  0  0  0  0  0  0  0
   61.5267   35.2266   49.4307 H   0  0  0  0  0  0  0  0  0  0  0  0
   61.2648   33.6082   50.2435 H   0  0  0  0  0  0  0  0  0  0  0  0
   63.7165   34.6489   49.8207 H   0  0  0  0  0  0  0  0  0  0  0  0
   63.3515   32.8725   49.8047 H   0  0  0  0  0  0  0  0  0  0  0  0
   63.4800   34.6849   47.3513 H   0  0  0  0  0  0  0  0  0  0  0  0
   64.7606   33.5268   47.8965 H   0  0  0  0  0  0  0  0  0  0  0  0
   62.9763   32.8407   46.0385 H   0  0  0  0  0  0  0  0  0  0  0  0
   63.5494   31.6728   47.3230 H   0  0  0  0  0  0  0  0  0  0  0  0
   60.9433   31.9970   46.6993 H   0  0  0  0  0  0  0  0  0  0  0  0
   61.5477   31.5861   48.3610 H   0  0  0  0  0  0  0  0  0  0  0  0
   58.2503   32.0989   46.5980 H   0  0  0  0  0  0  0  0  0  0  0  0
   56.8277   32.7353   47.5187 H   0  0  0  0  0  0  0  0  0  0  0  0
   56.3875   32.7378   45.0915 H   0  0  0  0  0  0  0  0  0  0  0  0
   56.4499   34.4227   45.7717 H   0  0  0  0  0  0  0  0  0  0  0  0
   59.5992   31.3484   45.2129 H   0  0  0  0  0  0  0  0  0  0  0  0
   58.9964   29.0863   46.0576 H   0  0  0  0  0  0  0  0  0  0  0  0
  1  2  1  0
  2  3  1  0
  3  4  1  0
  4  5  2  0
  5  6  1  0
  6  7  2  0
  7  8  1  0
  8  9  1  0
  9 10  1  0
 10 11  1  0
 11 12  1  0
 12 13  1  0
 13 14  1  0
 14 15  1  0
 15 16  1  0
 16 17  1  0
 17 18  1  0
 18 19  1  0
 12 20  1  0
 20 21  1  0
  7 22  1  0
 22 23  2  0
 23  4  1  0
 21  9  1  0
 19 14  1  0
  1 24  1  0
  1 25  1  0
  1 26  1  0
  2 27  1  0
  2 28  1  0
  3 29  1  0
  5 30  1  0
  6 31  1  0
  8 32  1  0
  8 33  1  0
 10 34  1  0
 10 35  1  0
 11 36  1  0
 11 37  1  0
 13 38  1  0
 13 39  1  0
 14 40  1  0
 15 41  1  0
 15 42  1  0
 16 43  1  0
 16 44  1  0
 17 45  1  0
 17 46  1  0
 18 47  1  0
 18 48  1  0
 19 49  1  0
 19 50  1  0
 20 51  1  0
 20 52  1  0
 21 53  1  0
 21 54  1  0
 22 55  1  0
 23 56  1  0
M  END
>  <UniqueID>  (21) 
21

>  <SMILES>  (21) 
CCNc1ccc(CN2CCN(CC3CCCCC3)CC2)cc1

>  <Energy>  (21) 
68.32844323374127

>  <Genealogy>  (21) 
CCNc1ccc(CN2CCN(CC3CCCCC3)CC2)cc1 (3D coordinates assigned)
CCNc1ccc(CN2CCN(CC3CCCCC3)CC2)cc1 (nonaromatic ring conformer: 68.32844323374127 kcal/mol)

>  <smiles>  (21) 
CCNc1ccc(CN2CCN(CC3CCCCC3)CC2)cc1

>  <score_type>  (21) 
oracle

>  <origin>  (21) 
adg

>  <m_score__min__energy>  (21) 
-8.8100000000000005

>  <m_primary>  (21) 
energy

$$$$
21:0
     RDKit          3D

 51 52  0  0  0  0  0  0  0  0999 V2000
   54.0950   24.0340   45.3000 C   0  0  0  0  0  0  0  0  0  0  0  0
   55.2660   24.0020   44.3070 C   0  0  0  0  0  0  0  0  0  0  0  0
   56.4630   24.7750   44.7270 N   0  0  2  0  0  0  0  0  0  0  0  0
   57.6970   24.2250   44.1350 C   0  0  0  0  0  0  0  0  0  0  0  0
   56.6200   24.9160   46.1960 C   0  0  0  0  0  0  0  0  0  0  0  0
   56.2980   26.3340   46.7170 C   0  0  0  0  0  0  0  0  0  0  0  0
   56.1690   27.3020   45.6270 N   0  0  0  0  0  0  0  0  0  0  0  0
   57.2460   27.8830   44.8780 C   0  0  0  0  0  0  0  0  0  0  0  0
   57.7880   27.2020   43.9670 O   0  0  0  0  0  0  0  0  0  0  0  0
   57.7120   29.2630   45.1110 C   0  0  0  0  0  0  0  0  0  0  0  0
   57.3200   30.2870   44.2370 C   0  0  0  0  0  0  0  0  0  0  0  0
   57.7470   31.6010   44.4520 C   0  0  0  0  0  0  0  0  0  0  0  0
   58.5890   31.9090   45.5350 C   0  0  0  0  0  0  0  0  0  0  0  0
   59.0320   33.2640   45.7610 N   0  0  0  0  0  0  0  0  0  0  0  0
   59.2390   34.1800   44.6380 C   0  0  0  0  0  0  0  0  0  0  0  0
   59.1650   33.8880   47.3810 S   0  0  0  0  0  0  0  0  0  0  0  0
   58.1280   33.2300   48.2490 O   0  0  0  0  0  0  0  0  0  0  0  0
   58.9070   35.3690   47.3850 O   0  0  0  0  0  0  0  0  0  0  0  0
   60.7800   33.5790   48.0140 C   0  0  0  0  0  0  0  0  0  0  0  0
   61.0750   33.8090   49.3650 C   0  0  0  0  0  0  0  0  0  0  0  0
   62.3580   33.5580   49.8560 C   0  0  0  0  0  0  0  0  0  0  0  0
   63.3560   33.0760   49.0020 C   0  0  0  0  0  0  0  0  0  0  0  0
   65.1110   32.7380   49.6730 Br  0  0  0  0  0  0  0  0  0  0  0  0
   63.0650   32.8470   47.6530 C   0  0  0  0  0  0  0  0  0  0  0  0
   61.7810   33.1000   47.1600 C   0  0  0  0  0  0  0  0  0  0  0  0
   59.0060   30.8710   46.3870 C   0  0  0  0  0  0  0  0  0  0  0  0
   58.5730   29.5600   46.1750 C   0  0  0  0  0  0  0  0  0  0  0  0
   54.4858   24.0233   46.3282 H   0  0  0  0  0  0  0  0  0  0  0  0
   53.5048   24.9486   45.1415 H   0  0  0  0  0  0  0  0  0  0  0  0
   53.4557   23.1530   45.1415 H   0  0  0  0  0  0  0  0  0  0  0  0
   55.5678   22.9534   44.1681 H   0  0  0  0  0  0  0  0  0  0  0  0
   54.9009   24.4757   43.3838 H   0  0  0  0  0  0  0  0  0  0  0  0
   56.3540   25.7370   44.3270 H   0  0  0  0  0  0  0  0  0  0  0  0
   58.3839   23.9188   44.9377 H   0  0  0  0  0  0  0  0  0  0  0  0
   57.4480   23.3527   43.5129 H   0  0  0  0  0  0  0  0  0  0  0  0
   58.1793   24.9934   43.5129 H   0  0  0  0  0  0  0  0  0  0  0  0
   55.9434   24.2022   46.6885 H   0  0  0  0  0  0  0  0  0  0  0  0
   57.6767   24.7181   46.4288 H   0  0  0  0  0  0  0  0  0  0  0  0
   55.3513   26.3005   47.2762 H   0  0  0  0  0  0  0  0  0  0  0  0
   57.1293   26.6563   47.3613 H   0  0  0  0  0  0  0  0  0  0  0  0
   56.6733   30.0554   43.3779 H   0  0  0  0  0  0  0  0  0  0  0  0
   57.4218   32.3995   43.7689 H   0  0  0  0  0  0  0  0  0  0  0  0
   59.4662   35.1854   45.0220 H   0  0  0  0  0  0  0  0  0  0  0  0
   60.0792   33.8235   44.0241 H   0  0  0  0  0  0  0  0  0  0  0  0
   58.3271   34.2194   44.0241 H   0  0  0  0  0  0  0  0  0  0  0  0
   60.2938   34.1882   50.0402 H   0  0  0  0  0  0  0  0  0  0  0  0
   62.5846   33.7397   50.9170 H   0  0  0  0  0  0  0  0  0  0  0  0
   63.8472   32.4674   46.9791 H   0  0  0  0  0  0  0  0  0  0  0  0
   61.5567   32.9221   46.0979 H   0  0  0  0  0  0  0  0  0  0  0  0
   59.6792   31.0934   47.2280 H   0  0  0  0  0  0  0  0  0  0  0  0
   58.9099   28.7569   46.8470 H   0  0  0  0  0  0  0  0  0  0  0  0
  1  2  1  0
  2  3  1  0
  3  4  1  0
  3  5  1  0
  5  6  1  0
  6  7  1  0
  7  8  1  0
  8  9  2  0
  8 10  1  0
 10 11  2  0
 11 12  1  0
 12 13  2  0
 13 14  1  0
 14 15  1  0
 14 16  1  0
 16 17  2  0
 16 18  2  0
 16 19  1  0
 19 20  2  0
 20 21  1  0
 21 22  2  0
 22 23  1  0
 22 24  1  0
 24 25  2  0
 13 26  1  0
 26 27  2  0
 27 10  1  0
 25 19  1  0
  1 28  1  0
  1 29  1  0
  1 30  1  0
  2 31  1  0
  2 32  1  0
  3 33  1  6
  4 34  1  0
  4 35  1  0
  4 36  1  0
  5 37  1  0
  5 38  1  0
  6 39  1  0
  6 40  1  0
 11 41  1  0
 12 42  1  0
 15 43  1  0
 15 44  1  0
 15 45  1  0
 20 46  1  0
 21 47  1  0
 24 48  1  0
 25 49  1  0
 26 50  1  0
 27 51  1  0
M  CHG  2   3   1   7  -1
M  END
>  <UniqueID>  (22) 
22

>  <SMILES>  (22) 
CC[N@H+](C)CC[N-]C(=O)c1ccc(N(C)S(=O)(=O)c2ccc(Br)cc2)cc1

>  <Energy>  (22) 
61.345933247806045

>  <Genealogy>  (22) 
CC[NH+](C)CC[N-]C(=O)c1ccc(N(C)S(=O)(=O)c2ccc(Br)cc2)cc1 (protonated)
CC[N@H+](C)CC[N-]C(=O)c1ccc(N(C)S(=O)(=O)c2ccc(Br)cc2)cc1 (chirality)
CC[N@H+](C)CC[N-]C(=O)c1ccc(N(C)S(=O)(=O)c2ccc(Br)cc2)cc1 (3D coordinates assigned)
CC[N@H+](C)CC[N-]C(=O)c1ccc(N(C)S(=O)(=O)c2ccc(Br)cc2)cc1 (optimized conformer: 61.345933247806045 kcal/mol)

>  <smiles>  (22) 
CCN(C)CCNC(=O)c1ccc(N(C)S(=O)(=O)c2ccc(Br)cc2)cc1

>  <score_type>  (22) 
oracle

>  <origin>  (22) 
adg

>  <m_score__min__energy>  (22) 
-7.9000000000000004

>  <m_primary>  (22) 
energy

$$$$
22:0
     RDKit          3D

 53 55  0  0  0  0  0  0  0  0999 V2000
   64.4880   32.4090   49.3230 C   0  0  0  0  0  0  0  0  0  0  0  0
   63.3140   32.0400   48.4050 C   0  0  0  0  0  0  0  0  0  0  0  0
   62.5820   33.2310   47.9000 N   0  0  2  0  0  0  0  0  0  0  0  0
   63.2950   33.8350   46.7530 C   0  0  0  0  0  0  0  0  0  0  0  0
   62.4200   34.2150   49.0030 C   0  0  0  0  0  0  0  0  0  0  0  0
   61.0650   34.1120   49.7360 C   0  0  0  0  0  0  0  0  0  0  0  0
   60.0520   33.6030   48.8890 O   0  0  0  0  0  0  0  0  0  0  0  0
   59.5990   34.5840   47.9720 C   0  0  0  0  0  0  0  0  0  0  0  0
   59.4910   33.9920   46.5640 C   0  0  0  0  0  0  0  0  0  0  0  0
   60.3730   32.8790   46.4010 O   0  0  0  0  0  0  0  0  0  0  0  0
   59.9870   31.5310   46.3310 C   0  0  0  0  0  0  0  0  0  0  0  0
   60.8290   30.4770   46.7340 C   0  0  0  0  0  0  0  0  0  0  0  0
   60.4040   29.1500   46.6210 C   0  0  0  0  0  0  0  0  0  0  0  0
   59.1300   28.8570   46.1120 C   0  0  0  0  0  0  0  0  0  0  0  0
   58.7000   27.5340   45.9790 C   0  0  0  0  0  0  0  0  0  0  0  0
   57.4200   27.2810   45.4540 C   0  0  0  0  0  0  0  0  0  0  0  0
   56.9150   25.8980   45.2690 C   0  0  0  0  0  0  0  0  0  0  0  0
   57.3800   25.0750   44.2230 C   0  0  0  0  0  0  0  0  0  0  0  0
   56.8830   23.7760   44.0710 C   0  0  0  0  0  0  0  0  0  0  0  0
   55.9250   23.2830   44.9590 C   0  0  0  0  0  0  0  0  0  0  0  0
   55.4670   24.0830   46.0100 C   0  0  0  0  0  0  0  0  0  0  0  0
   55.9640   25.3800   46.1700 C   0  0  0  0  0  0  0  0  0  0  0  0
   56.6440   28.3010   45.0900 O   0  0  0  0  0  0  0  0  0  0  0  0
   57.0090   29.5760   45.2030 C   0  0  0  0  0  0  0  0  0  0  0  0
   56.2060   30.4760   44.8360 O   0  0  0  0  0  0  0  0  0  0  0  0
   58.2740   29.9060   45.7190 C   0  0  0  0  0  0  0  0  0  0  0  0
   58.7080   31.2380   45.8410 C   0  0  0  0  0  0  0  0  0  0  0  0
   64.1768   32.3112   50.3735 H   0  0  0  0  0  0  0  0  0  0  0  0
   65.3335   31.7333   49.1266 H   0  0  0  0  0  0  0  0  0  0  0  0
   64.7949   33.4469   49.1266 H   0  0  0  0  0  0  0  0  0  0  0  0
   63.7041   31.4763   47.5448 H   0  0  0  0  0  0  0  0  0  0  0  0
   62.6056   31.4420   48.9971 H   0  0  0  0  0  0  0  0  0  0  0  0
   61.6310   32.9250   47.5820 H   0  0  0  0  0  0  0  0  0  0  0  0
   64.0852   34.5044   47.1238 H   0  0  0  0  0  0  0  0  0  0  0  0
   63.7455   33.0395   46.1412 H   0  0  0  0  0  0  0  0  0  0  0  0
   62.5844   34.4101   46.1412 H   0  0  0  0  0  0  0  0  0  0  0  0
   63.2239   34.0503   49.7355 H   0  0  0  0  0  0  0  0  0  0  0  0
   62.4631   35.2158   48.5484 H   0  0  0  0  0  0  0  0  0  0  0  0
   61.1771   33.4419   50.6011 H   0  0  0  0  0  0  0  0  0  0  0  0
   60.7698   35.1218   50.0571 H   0  0  0  0  0  0  0  0  0  0  0  0
   58.6101   34.9468   48.2891 H   0  0  0  0  0  0  0  0  0  0  0  0
   60.3198   35.4148   47.9545 H   0  0  0  0  0  0  0  0  0  0  0  0
   58.4569   33.6580   46.3938 H   0  0  0  0  0  0  0  0  0  0  0  0
   59.7729   34.7685   45.8376 H   0  0  0  0  0  0  0  0  0  0  0  0
   61.8269   30.6989   47.1401 H   0  0  0  0  0  0  0  0  0  0  0  0
   61.0710   28.3326   46.9323 H   0  0  0  0  0  0  0  0  0  0  0  0
   59.3535   26.7022   46.2807 H   0  0  0  0  0  0  0  0  0  0  0  0
   58.1377   25.4562   43.5226 H   0  0  0  0  0  0  0  0  0  0  0  0
   57.2479   23.1415   43.2498 H   0  0  0  0  0  0  0  0  0  0  0  0
   55.5303   22.2642   44.8315 H   0  0  0  0  0  0  0  0  0  0  0  0
   54.7153   23.6919   46.7114 H   0  0  0  0  0  0  0  0  0  0  0  0
   55.6096   26.0009   47.0060 H   0  0  0  0  0  0  0  0  0  0  0  0
   58.0360   32.0583   45.5486 H   0  0  0  0  0  0  0  0  0  0  0  0
  1  2  1  0
  2  3  1  0
  3  4  1  0
  3  5  1  0
  5  6  1  0
  6  7  1  0
  7  8  1  0
  8  9  1  0
  9 10  1  0
 10 11  1  0
 11 12  2  0
 12 13  1  0
 13 14  2  0
 14 15  1  0
 15 16  2  0
 16 17  1  0
 17 18  2  0
 18 19  1  0
 19 20  2  0
 20 21  1  0
 21 22  2  0
 16 23  1  0
 23 24  1  0
 24 25  2  0
 24 26  1  0
 26 27  2  0
 27 11  1  0
 26 14  1  0
 22 17  1  0
  1 28  1  0
  1 29  1  0
  1 30  1  0
  2 31  1  0
  2 32  1  0
  3 33  1  6
  4 34  1  0
  4 35  1  0
  4 36  1  0
  5 37  1  0
  5 38  1  0
  6 39  1  0
  6 40  1  0
  8 41  1  0
  8 42  1  0
  9 43  1  0
  9 44  1  0
 12 45  1  0
 13 46  1  0
 15 47  1  0
 18 48  1  0
 19 49  1  0
 20 50  1  0
 21 51  1  0
 22 52  1  0
 27 53  1  0
M  CHG  1   3   1
M  END
>  <UniqueID>  (23) 
23

>  <SMILES>  (23) 
CC[N@H+](C)CCOCCOc1ccc2cc(-c3ccccc3)oc(=O)c2c1

>  <Energy>  (23) 
67.27117471482853

>  <Genealogy>  (23) 
CC[NH+](C)CCOCCOc1ccc2cc(-c3ccccc3)oc(=O)c2c1 (protonated)
CC[N@H+](C)CCOCCOc1ccc2cc(-c3ccccc3)oc(=O)c2c1 (chirality)
CC[N@H+](C)CCOCCOc1ccc2cc(-c3ccccc3)oc(=O)c2c1 (3D coordinates assigned)
CC[N@H+](C)CCOCCOc1ccc2cc(-c3ccccc3)oc(=O)c2c1 (optimized conformer: 67.27117471482853 kcal/mol)

>  <smiles>  (23) 
CCN(C)CCOCCOc1ccc2cc(-c3ccccc3)oc(=O)c2c1

>  <score_type>  (23) 
oracle

>  <origin>  (23) 
adg

>  <m_score__min__energy>  (23) 
-6.7199999999999998

>  <m_primary>  (23) 
energy

$$$$
23:0
     RDKit          3D

 28 28  0  0  0  0  0  0  0  0999 V2000
   58.0387   34.5498   43.9243 H   0  0  0  0  0  0  0  0  0  0  0  0
   58.1260   33.6600   44.5650 C   0  0  0  0  0  0  0  0  0  0  0  0
   58.9910   33.6700   45.6580 C   0  0  0  0  0  0  0  0  0  0  0  0
   59.5935   34.5626   45.8822 H   0  0  0  0  0  0  0  0  0  0  0  0
   59.0840   32.5360   46.4640 C   0  0  0  0  0  0  0  0  0  0  0  0
   59.7592   32.5348   47.3324 H   0  0  0  0  0  0  0  0  0  0  0  0
   58.3420   31.4300   46.1800 N   0  0  0  0  0  0  0  0  0  0  0  0
   58.4320   30.5970   46.8060 H   0  0  0  0  0  0  0  0  0  0  0  0
   57.5010   31.3790   45.1060 C   0  0  0  0  0  0  0  0  0  0  0  0
   58.2650   28.6570   45.8450 N   0  0  0  0  0  0  0  0  0  0  0  0
   57.0720   28.9800   45.4290 C   0  0  0  0  0  0  0  0  0  0  0  0
   56.8120   30.2910   44.9010 N   0  0  0  0  0  0  0  0  0  0  0  0
   59.2960   27.9080   45.1160 C   0  0  0  0  0  0  0  0  0  0  0  0
   59.4911   26.9858   45.6830 H   0  0  0  0  0  0  0  0  0  0  0  0
   58.8120   27.4800   43.7260 C   0  0  0  0  0  0  0  0  0  0  0  0
   57.9917   26.7546   43.8306 H   0  0  0  0  0  0  0  0  0  0  0  0
   58.4535   28.3619   43.1749 H   0  0  0  0  0  0  0  0  0  0  0  0
   59.6434   27.0163   43.1749 H   0  0  0  0  0  0  0  0  0  0  0  0
   60.6180   28.6810   45.0520 C   0  0  0  0  0  0  0  0  0  0  0  0
   60.9716   28.8878   46.0729 H   0  0  0  0  0  0  0  0  0  0  0  0
   61.3689   28.0797   44.5186 H   0  0  0  0  0  0  0  0  0  0  0  0
   60.4622   29.6303   44.5186 H   0  0  0  0  0  0  0  0  0  0  0  0
   56.0450   27.9790   45.3810 N   0  0  0  0  0  0  0  0  0  0  0  0
   55.1460   28.1800   44.8900 H   0  0  0  0  0  0  0  0  0  0  0  0
   56.2250   26.7060   45.9460 C   0  0  0  0  0  0  0  0  0  0  0  0
   56.3720   25.6580   46.4120 N   0  0  0  0  0  0  0  0  0  0  0  0
   57.3710   32.5210   44.2840 C   0  0  0  0  0  0  0  0  0  0  0  0
   56.6794   32.5120   43.4286 H   0  0  0  0  0  0  0  0  0  0  0  0
  1  2  1  0
  2  3  1  0
  3  4  1  0
  3  5  2  0
  5  6  1  0
  5  7  1  0
  7  8  1  0
  7  9  1  0
  9 10  2  0
 10 11  1  0
 11 12  2  0
 12 13  1  0
 13 14  1  0
 13 15  1  0
 15 16  1  0
 15 17  1  0
 15 18  1  0
 13 19  1  0
 19 20  1  0
 19 21  1  0
 19 22  1  0
 11 23  1  0
 23 24  1  0
 23 25  1  0
 25 26  3  0
  9 27  1  0
 27 28  1  0
 27  2  2  0
M  END
>  <UniqueID>  (24) 
24

>  <SMILES>  (24) 
CC(C)/N=C(\N=c1/cccc[nH]1)NC#N

>  <Energy>  (24) 
29.999070729361538

>  <Genealogy>  (24) 
CC(C)/N=C(\N=c1/cccc[nH]1)NC#N (cis-trans isomerization)
CC(C)/N=C(\N=c1/cccc[nH]1)NC#N (3D coordinates assigned)
CC(C)/N=C(\N=c1/cccc[nH]1)NC#N (optimized conformer: 29.999070729361538 kcal/mol)

>  <smiles>  (24) 
CC(C)N=C(N=c1cccc[nH]1)NC#N

>  <score_type>  (24) 
oracle

>  <origin>  (24) 
adg

>  <m_score__min__energy>  (24) 
-5.6900000000000004

>  <m_primary>  (24) 
energy

$$$$
24:0
     RDKit          3D

 38 41  0  0  1  0  0  0  0  0999 V2000
   57.4100   25.8260   44.9200 C   0  0  0  0  0  0  0  0  0  0  0  0
   56.7210   26.8260   45.6340 O   0  0  0  0  0  0  0  0  0  0  0  0
   57.0210   28.1750   45.5180 C   0  0  0  0  0  0  0  0  0  0  0  0
   56.6120   29.0740   44.6030 N   0  0  0  0  0  0  0  0  0  0  0  0
   57.1450   30.2760   44.8660 C   0  0  0  0  0  0  0  0  0  0  0  0
   57.0970   31.5370   44.3060 C   0  0  0  0  0  0  0  0  0  0  0  0
   57.7920   32.6010   44.8480 C   0  0  0  0  0  0  0  0  0  0  0  0
   57.7810   33.8370   44.3470 N   0  0  0  0  0  0  0  0  0  0  0  0
   58.4810   34.8580   44.9120 C   0  0  0  0  0  0  0  0  0  0  0  0
   59.2220   34.6690   46.0090 N   0  0  0  0  0  0  0  0  0  0  0  0
   59.2470   33.4300   46.5300 C   0  0  0  0  0  0  0  0  0  0  0  0
   59.9460   33.1910   47.5880 N   0  0  0  0  0  0  0  0  0  0  0  0
   61.3670   33.2380   47.6150 C   0  0  0  0  0  0  0  0  0  0  0  0
   62.0000   33.7540   46.4810 C   0  0  0  0  0  0  0  0  0  0  0  0
   63.3730   33.8410   46.4100 C   0  0  0  0  0  0  0  0  0  0  0  0
   64.1320   33.4080   47.4880 C   0  0  0  0  0  0  0  0  0  0  0  0
   63.4900   32.8930   48.6180 C   0  0  0  0  0  0  0  0  0  0  0  0
   64.4660   32.3500   49.9670 Cl  0  0  0  0  0  0  0  0  0  0  0  0
   62.1190   32.8050   48.6890 C   0  0  0  0  0  0  0  0  0  0  0  0
   58.5510   32.3780   45.9810 C   0  0  0  0  0  0  0  0  0  0  0  0
   58.6120   31.1310   46.5560 C   0  0  0  0  0  0  0  0  0  0  0  0
   57.9190   30.0830   46.0090 C   0  0  0  0  0  0  0  0  0  0  0  0
   57.8400   28.7980   46.4050 N   0  0  0  0  0  0  0  0  0  0  0  0
   58.5160   28.2340   47.5590 C   0  0  0  0  0  0  0  0  0  0  0  0
   57.8876   25.1329   45.6282 H   0  0  0  0  0  0  0  0  0  0  0  0
   56.7006   25.2726   44.2871 H   0  0  0  0  0  0  0  0  0  0  0  0
   58.1798   26.2917   44.2871 H   0  0  0  0  0  0  0  0  0  0  0  0
   56.4889   31.6990   43.4038 H   0  0  0  0  0  0  0  0  0  0  0  0
   58.4364   35.8587   44.4573 H   0  0  0  0  0  0  0  0  0  0  0  0
   59.7750   35.4250   46.4770 H   0  0  0  0  0  0  0  0  0  0  0  0
   61.3917   34.0964   45.6308 H   0  0  0  0  0  0  0  0  0  0  0  0
   63.8606   34.2478   45.5118 H   0  0  0  0  0  0  0  0  0  0  0  0
   65.2297   33.4695   47.4536 H   0  0  0  0  0  0  0  0  0  0  0  0
   61.6303   32.3967   49.5859 H   0  0  0  0  0  0  0  0  0  0  0  0
   59.2198   30.9736   47.4592 H   0  0  0  0  0  0  0  0  0  0  0  0
   58.0536   28.6198   48.4796 H   0  0  0  0  0  0  0  0  0  0  0  0
   58.4279   27.1378   47.5360 H   0  0  0  0  0  0  0  0  0  0  0  0
   59.5787   28.5170   47.5360 H   0  0  0  0  0  0  0  0  0  0  0  0
  1  2  1  0
  2  3  1  0
  3  4  2  0
  4  5  1  0
  5  6  2  0
  6  7  1  0
  7  8  1  0
  8  9  2  0
  9 10  1  0
 10 11  1  0
 11 12  2  0
 12 13  1  0
 13 14  2  0
 14 15  1  0
 15 16  2  0
 16 17  1  0
 17 18  1  0
 17 19  2  0
 11 20  1  0
 20 21  1  0
 21 22  2  0
 22 23  1  0
 23 24  1  0
 23  3  1  0
 22  5  1  0
 20  7  2  0
 19 13  1  0
  1 25  1  0
  1 26  1  0
  1 27  1  0
  6 28  1  0
  9 29  1  0
 10 30  1  0
 14 31  1  0
 15 32  1  0
 16 33  1  0
 19 34  1  0
 21 35  1  0
 24 36  1  0
 24 37  1  0
 24 38  1  0
M  END
>  <smiles>  (25) 
COc1nc2cc3nc[nH]c(=Nc4cccc(Cl)c4)c3cc2n1C

>  <score_type>  (25) 
oracle

>  <origin>  (25) 
adg

>  <m_score__min__energy>  (25) 
-7.71

>  <m_primary>  (25) 
energy

$$$$
25:0
     RDKit          3D

 49 51  0  0  0  0  0  0  0  0999 V2000
   57.3650   31.3740   43.0240 C   0  0  0  0  0  0  0  0  0  0  0  0
   56.5490   30.6930   44.1240 C   0  0  0  0  0  0  0  0  0  0  0  0
   57.4180   29.9810   45.0890 N   0  0  0  0  0  0  0  0  0  0  0  0
   56.9660   28.5870   45.2720 C   0  0  0  0  0  0  0  0  0  0  0  0
   58.8320   30.0090   44.6450 C   0  0  0  0  0  0  0  0  0  0  0  0
   59.7490   29.4870   45.7670 C   0  0  0  0  0  0  0  0  0  0  0  0
   59.2800   29.8880   47.1040 N   0  0  0  0  0  0  0  0  0  0  0  0
   60.1370   30.8810   47.7040 C   0  0  0  0  0  0  0  0  0  0  0  0
   61.2520   30.6190   48.4730 C   0  0  0  0  0  0  0  0  0  0  0  0
   61.9140   31.7820   48.6620 N   0  0  0  0  0  0  0  0  0  0  0  0
   63.1510   31.9690   49.3800 C   0  0  0  0  0  0  0  0  0  0  0  0
   63.4380   31.1760   50.5070 C   0  0  0  0  0  0  0  0  0  0  0  0
   64.6340   31.3460   51.2110 C   0  0  0  0  0  0  0  0  0  0  0  0
   65.5600   32.3070   50.7970 C   0  0  0  0  0  0  0  0  0  0  0  0
   65.2920   33.0970   49.6770 C   0  0  0  0  0  0  0  0  0  0  0  0
   64.0980   32.9300   48.9700 C   0  0  0  0  0  0  0  0  0  0  0  0
   61.2800   32.7610   48.0310 N   0  0  0  0  0  0  0  0  0  0  0  0
   60.1830   32.2440   47.4430 C   0  0  0  0  0  0  0  0  0  0  0  0
   59.2750   33.0380   46.5930 C   0  0  0  0  0  0  0  0  0  0  0  0
   57.8880   32.8290   46.6760 C   0  0  0  0  0  0  0  0  0  0  0  0
   57.0140   33.5730   45.8770 C   0  0  0  0  0  0  0  0  0  0  0  0
   57.5170   34.5190   44.9810 C   0  0  0  0  0  0  0  0  0  0  0  0
   58.8970   34.7170   44.8770 C   0  0  0  0  0  0  0  0  0  0  0  0
   59.7750   33.9760   45.6750 C   0  0  0  0  0  0  0  0  0  0  0  0
   58.1332   32.0151   43.4809 H   0  0  0  0  0  0  0  0  0  0  0  0
   57.8498   30.6087   42.4000 H   0  0  0  0  0  0  0  0  0  0  0  0
   56.6988   31.9879   42.4000 H   0  0  0  0  0  0  0  0  0  0  0  0
   55.9692   31.4570   44.6626 H   0  0  0  0  0  0  0  0  0  0  0  0
   55.8846   29.9548   43.6512 H   0  0  0  0  0  0  0  0  0  0  0  0
   56.8934   28.3631   46.3465 H   0  0  0  0  0  0  0  0  0  0  0  0
   55.9796   28.4568   44.8029 H   0  0  0  0  0  0  0  0  0  0  0  0
   57.6883   27.9028   44.8029 H   0  0  0  0  0  0  0  0  0  0  0  0
   58.9468   29.3723   43.7554 H   0  0  0  0  0  0  0  0  0  0  0  0
   59.1130   31.0445   44.4026 H   0  0  0  0  0  0  0  0  0  0  0  0
   59.7787   28.3885   45.7173 H   0  0  0  0  0  0  0  0  0  0  0  0
   60.7475   29.9231   45.6158 H   0  0  0  0  0  0  0  0  0  0  0  0
   59.2250   29.0480   47.7260 H   0  0  0  0  0  0  0  0  0  0  0  0
   58.3130   30.2730   47.0220 H   0  0  0  0  0  0  0  0  0  0  0  0
   61.5502   29.6351   48.8641 H   0  0  0  0  0  0  0  0  0  0  0  0
   62.7148   30.4156   50.8369 H   0  0  0  0  0  0  0  0  0  0  0  0
   64.8462   30.7224   52.0919 H   0  0  0  0  0  0  0  0  0  0  0  0
   66.4996   32.4412   51.3530 H   0  0  0  0  0  0  0  0  0  0  0  0
   66.0221   33.8522   49.3506 H   0  0  0  0  0  0  0  0  0  0  0  0
   63.8954   33.5533   48.0866 H   0  0  0  0  0  0  0  0  0  0  0  0
   57.4880   32.0772   47.3722 H   0  0  0  0  0  0  0  0  0  0  0  0
   55.9285   33.4129   45.9543 H   0  0  0  0  0  0  0  0  0  0  0  0
   56.8279   35.1078   44.3577 H   0  0  0  0  0  0  0  0  0  0  0  0
   59.2932   35.4571   44.1661 H   0  0  0  0  0  0  0  0  0  0  0  0
   60.8605   34.1284   45.5832 H   0  0  0  0  0  0  0  0  0  0  0  0
  1  2  1  0
  2  3  1  0
  3  4  1  0
  3  5  1  0
  5  6  1  0
  6  7  1  0
  7  8  1  0
  8  9  2  0
  9 10  1  0
 10 11  1  0
 11 12  2  0
 12 13  1  0
 13 14  2  0
 14 15  1  0
 15 16  2  0
 10 17  1  0
 17 18  2  0
 18 19  1  0
 19 20  2  0
 20 21  1  0
 21 22  2  0
 22 23  1  0
 23 24  2  0
 18  8  1  0
 24 19  1  0
 16 11  1  0
  1 25  1  0
  1 26  1  0
  1 27  1  0
  2 28  1  0
  2 29  1  0
  4 30  1  0
  4 31  1  0
  4 32  1  0
  5 33  1  0
  5 34  1  0
  6 35  1  0
  6 36  1  0
  7 37  1  0
  7 38  1  0
  9 39  1  0
 12 40  1  0
 13 41  1  0
 14 42  1  0
 15 43  1  0
 16 44  1  0
 20 45  1  0
 21 46  1  0
 22 47  1  0
 23 48  1  0
 24 49  1  0
M  CHG  1   7   1
M  END
>  <UniqueID>  (26) 
25

>  <SMILES>  (26) 
CCN(C)CC[NH2+]c1cn(-c2ccccc2)nc1-c1ccccc1

>  <Energy>  (26) 
89.29954243503938

>  <Genealogy>  (26) 
CCN(C)CC[NH2+]c1cn(-c2ccccc2)nc1-c1ccccc1 (protonated)
CCN(C)CC[NH2+]c1cn(-c2ccccc2)nc1-c1ccccc1 (3D coordinates assigned)
CCN(C)CC[NH2+]c1cn(-c2ccccc2)nc1-c1ccccc1 (optimized conformer: 89.29954243503938 kcal/mol)

>  <smiles>  (26) 
CCN(C)CCNc1cn(-c2ccccc2)nc1-c1ccccc1

>  <score_type>  (26) 
oracle

>  <origin>  (26) 
adg

>  <m_score__min__energy>  (26) 
-4.96

>  <m_primary>  (26) 
energy

$$$$
26:0
     RDKit          3D

 37 39  0  0  0  0  0  0  0  0999 V2000
   56.2720   28.5130   43.1170 H   0  0  0  0  0  0  0  0  0  0  0  0
   56.5070   29.4930   43.3920 N   0  0  0  0  0  0  0  0  0  0  0  0
   57.5040   29.7820   44.1690 C   0  0  0  0  0  0  0  0  0  0  0  0
   57.5290   31.0410   44.9540 C   0  0  0  0  0  0  0  0  0  0  0  0
   56.5620   31.8460   44.8760 O   0  0  0  0  0  0  0  0  0  0  0  0
   58.6980   31.3350   45.8300 C   0  0  0  0  0  0  0  0  0  0  0  0
   58.9220   32.6280   46.3630 C   0  0  0  0  0  0  0  0  0  0  0  0
   58.0000   33.6550   46.0990 O   0  0  0  0  0  0  0  0  0  0  0  0
   58.0750   34.5510   44.9950 C   0  0  0  0  0  0  0  0  0  0  0  0
   58.1614   35.5831   45.3656 H   0  0  0  0  0  0  0  0  0  0  0  0
   58.9558   34.3062   44.3832 H   0  0  0  0  0  0  0  0  0  0  0  0
   57.1658   34.4560   44.3832 H   0  0  0  0  0  0  0  0  0  0  0  0
   60.0770   32.8640   47.1350 C   0  0  0  0  0  0  0  0  0  0  0  0
   60.2477   33.8597   47.5702 H   0  0  0  0  0  0  0  0  0  0  0  0
   61.0050   31.8470   47.3520 C   0  0  0  0  0  0  0  0  0  0  0  0
   61.9139   32.0509   47.9371 H   0  0  0  0  0  0  0  0  0  0  0  0
   60.7870   30.5750   46.8320 C   0  0  0  0  0  0  0  0  0  0  0  0
   61.5365   29.7849   46.9871 H   0  0  0  0  0  0  0  0  0  0  0  0
   59.6150   30.2940   46.1100 C   0  0  0  0  0  0  0  0  0  0  0  0
   59.3550   28.9370   45.5500 C   0  0  0  0  0  0  0  0  0  0  0  0
   59.6450   27.8230   46.1660 N   0  0  0  0  0  0  0  0  0  0  0  0
   58.9680   26.5600   46.0690 C   0  0  0  0  0  0  0  0  0  0  0  0
   59.6820   25.3530   45.9980 C   0  0  0  0  0  0  0  0  0  0  0  0
   60.7818   25.3664   45.9849 H   0  0  0  0  0  0  0  0  0  0  0  0
   59.0000   24.1360   45.9440 C   0  0  0  0  0  0  0  0  0  0  0  0
   59.5628   23.1939   45.8683 H   0  0  0  0  0  0  0  0  0  0  0  0
   57.6030   24.1130   45.9860 C   0  0  0  0  0  0  0  0  0  0  0  0
   57.0711   23.1516   45.9334 H   0  0  0  0  0  0  0  0  0  0  0  0
   56.8720   25.3100   46.0950 C   0  0  0  0  0  0  0  0  0  0  0  0
   55.4340   25.2900   46.1550 N   0  0  0  0  0  0  0  0  0  0  0  0
   54.7760   26.3380   45.9860 O   0  0  0  0  0  0  0  0  0  0  0  0
   54.7590   24.1170   46.4000 O   0  0  0  0  0  0  0  0  0  0  0  0
   57.5700   26.5310   46.1470 C   0  0  0  0  0  0  0  0  0  0  0  0
   57.0113   27.4729   46.2500 H   0  0  0  0  0  0  0  0  0  0  0  0
   58.6920   28.8620   44.2060 C   0  0  0  0  0  0  0  0  0  0  0  0
   58.3599   27.8299   44.0203 H   0  0  0  0  0  0  0  0  0  0  0  0
   59.4102   29.1669   43.4306 H   0  0  0  0  0  0  0  0  0  0  0  0
  1  2  1  0
  2  3  2  3
  3  4  1  0
  4  5  2  0
  4  6  1  0
  6  7  2  0
  7  8  1  0
  8  9  1  0
  9 10  1  0
  9 11  1  0
  9 12  1  0
  7 13  1  0
 13 14  1  0
 13 15  2  0
 15 16  1  0
 15 17  1  0
 17 18  1  0
 17 19  2  0
 19 20  1  0
 20 21  2  0
 21 22  1  0
 22 23  2  0
 23 24  1  0
 23 25  1  0
 25 26  1  0
 25 27  2  0
 27 28  1  0
 27 29  1  0
 29 30  1  0
 30 31  2  0
 30 32  1  0
 29 33  2  0
 33 34  1  0
 20 35  1  0
 35 36  1  0
 35 37  1  0
 35  3  1  0
 19  6  1  0
 33 22  1  0
M  CHG  2  30   1  32  -1
M  END
>  <UniqueID>  (27) 
26

>  <SMILES>  (27) 
COc1cccc2c1C(=O)C(=N)C/C2=N/c1cccc([N+](=O)[O-])c1

>  <Energy>  (27) 
56.08459298922112

>  <Genealogy>  (27) 
COc1cccc2c1C(=O)C(=N)C/C2=N/c1cccc([N+](=O)[O-])c1 (cis-trans isomerization)
COc1cccc2c1C(=O)C(=N)C/C2=N/c1cccc([N+](=O)[O-])c1 (3D coordinates assigned)
COc1cccc2c1C(=O)C(=N)C/C2=N/c1cccc([N+](=O)[O-])c1 (nonaromatic ring conformer: 56.08459298922112 kcal/mol)

>  <smiles>  (27) 
COc1cccc2c1C(=O)C(=N)CC2=Nc1cccc([N+](=O)[O-])c1

>  <score_type>  (27) 
oracle

>  <origin>  (27) 
adg

>  <m_score__min__energy>  (27) 
-8.1500000000000004

>  <m_primary>  (27) 
energy

$$$$
27:0
     RDKit          3D

 60 62  0  0  0  0  0  0  0  0999 V2000
   59.6650   28.6110   48.9510 C   0  0  0  0  0  0  0  0  0  0  0  0
   60.9810   29.3180   49.2560 C   0  0  0  0  0  0  0  0  0  0  0  0
   61.1020   30.5270   48.4320 N   0  0  0  0  0  0  0  0  0  0  0  0
   62.3040   31.3010   48.7790 C   0  0  0  0  0  0  0  0  0  0  0  0
   62.1960   32.7640   48.2800 C   0  0  0  0  0  0  0  0  0  0  0  0
   60.9390   33.0960   47.5580 N   0  0  0  0  0  0  0  0  0  0  0  0
   61.1640   33.9280   46.3590 C   0  0  0  0  0  0  0  0  0  0  0  0
   59.8700   34.0430   45.5260 C   0  0  0  0  0  0  0  0  0  0  0  0
   58.6380   34.1500   46.3510 N   0  0  0  0  0  0  0  0  0  0  0  0
   57.8070   32.9240   46.3190 C   0  0  0  0  0  0  0  0  0  0  0  0
   57.5990   32.4400   44.8790 C   0  0  0  0  0  0  0  0  0  0  0  0
   57.9360   31.0140   44.7480 N   0  0  0  0  0  0  0  0  0  0  0  0
   57.0870   30.1380   43.9750 C   0  0  0  0  0  0  0  0  0  0  0  0
   56.0870   30.6000   43.3620 O   0  0  0  0  0  0  0  0  0  0  0  0
   57.4050   28.6750   43.8370 C   0  0  0  0  0  0  0  0  0  0  0  0
   58.2570   28.1490   45.0230 C   0  0  0  0  0  0  0  0  0  0  0  0
   58.6600   26.6870   44.7840 C   0  0  0  0  0  0  0  0  0  0  0  0
   57.5290   25.8360   45.3460 C   0  0  0  0  0  0  0  0  0  0  0  0
   56.7580   26.7140   46.3270 C   0  0  0  0  0  0  0  0  0  0  0  0
   57.4290   28.0810   46.3180 C   0  0  0  0  0  0  0  0  0  0  0  0
   59.5070   29.0430   45.1820 C   0  0  0  0  0  0  0  0  0  0  0  0
   59.1230   30.4820   45.3740 C   0  0  0  0  0  0  0  0  0  0  0  0
   59.8760   31.2270   46.0580 O   0  0  0  0  0  0  0  0  0  0  0  0
   58.9160   34.6030   47.7270 C   0  0  0  0  0  0  0  0  0  0  0  0
   59.9030   33.6670   48.4590 C   0  0  0  0  0  0  0  0  0  0  0  0
   59.1658   28.3428   49.8938 H   0  0  0  0  0  0  0  0  0  0  0  0
   59.0148   29.2813   48.3696 H   0  0  0  0  0  0  0  0  0  0  0  0
   59.8650   27.6989   48.3696 H   0  0  0  0  0  0  0  0  0  0  0  0
   61.0068   29.5975   50.3196 H   0  0  0  0  0  0  0  0  0  0  0  0
   61.8171   28.6402   49.0290 H   0  0  0  0  0  0  0  0  0  0  0  0
   61.1950   30.2170   47.4370 H   0  0  0  0  0  0  0  0  0  0  0  0
   62.4252   31.3035   49.8723 H   0  0  0  0  0  0  0  0  0  0  0  0
   63.1714   30.8315   48.2920 H   0  0  0  0  0  0  0  0  0  0  0  0
   62.2720   33.4280   49.1537 H   0  0  0  0  0  0  0  0  0  0  0  0
   63.0103   32.8992   47.5529 H   0  0  0  0  0  0  0  0  0  0  0  0
   60.5720   32.1760   47.2150 H   0  0  0  0  0  0  0  0  0  0  0  0
   61.4832   34.9332   46.6714 H   0  0  0  0  0  0  0  0  0  0  0  0
   61.9422   33.4561   45.7412 H   0  0  0  0  0  0  0  0  0  0  0  0
   59.9430   34.9392   44.8923 H   0  0  0  0  0  0  0  0  0  0  0  0
   59.7834   33.1188   44.9358 H   0  0  0  0  0  0  0  0  0  0  0  0
   58.3096   32.1333   46.8954 H   0  0  0  0  0  0  0  0  0  0  0  0
   56.8247   33.1543   46.7572 H   0  0  0  0  0  0  0  0  0  0  0  0
   56.5457   32.5879   44.5984 H   0  0  0  0  0  0  0  0  0  0  0  0
   58.2594   33.0184   44.2162 H   0  0  0  0  0  0  0  0  0  0  0  0
   56.4625   28.1091   43.7987 H   0  0  0  0  0  0  0  0  0  0  0  0
   57.9886   28.5405   42.9144 H   0  0  0  0  0  0  0  0  0  0  0  0
   58.7817   26.4963   43.7075 H   0  0  0  0  0  0  0  0  0  0  0  0
   59.6181   26.4512   45.2702 H   0  0  0  0  0  0  0  0  0  0  0  0
   56.8658   25.5043   44.5336 H   0  0  0  0  0  0  0  0  0  0  0  0
   57.9228   24.9391   45.8464 H   0  0  0  0  0  0  0  0  0  0  0  0
   55.7089   26.8054   46.0091 H   0  0  0  0  0  0  0  0  0  0  0  0
   56.7663   26.2777   47.3367 H   0  0  0  0  0  0  0  0  0  0  0  0
   56.6703   28.8774   46.3269 H   0  0  0  0  0  0  0  0  0  0  0  0
   58.0640   28.2198   47.2055 H   0  0  0  0  0  0  0  0  0  0  0  0
   60.0813   28.7048   46.0571 H   0  0  0  0  0  0  0  0  0  0  0  0
   60.1122   28.9625   44.2670 H   0  0  0  0  0  0  0  0  0  0  0  0
   59.3489   35.6135   47.6871 H   0  0  0  0  0  0  0  0  0  0  0  0
   57.9673   34.5968   48.2837 H   0  0  0  0  0  0  0  0  0  0  0  0
   60.4056   34.2392   49.2527 H   0  0  0  0  0  0  0  0  0  0  0  0
   59.3203   32.8268   48.8646 H   0  0  0  0  0  0  0  0  0  0  0  0
  1  2  1  0
  2  3  1  0
  3  4  1  0
  4  5  1  0
  5  6  1  0
  6  7  1  0
  7  8  1  0
  8  9  1  0
  9 10  1  0
 10 11  1  0
 11 12  1  0
 12 13  1  0
 13 14  2  0
 13 15  1  0
 15 16  1  0
 16 17  1  0
 17 18  1  0
 18 19  1  0
 19 20  1  0
 16 21  1  0
 21 22  1  0
 22 23  2  0
  9 24  1  0
 24 25  1  0
 25  6  1  0
 22 12  1  0
 20 16  1  0
  1 26  1  0
  1 27  1  0
  1 28  1  0
  2 29  1  0
  2 30  1  0
  3 31  1  0
  4 32  1  0
  4 33  1  0
  5 34  1  0
  5 35  1  0
  6 36  1  0
  7 37  1  0
  7 38  1  0
  8 39  1  0
  8 40  1  0
 10 41  1  0
 10 42  1  0
 11 43  1  0
 11 44  1  0
 15 45  1  0
 15 46  1  0
 17 47  1  0
 17 48  1  0
 18 49  1  0
 18 50  1  0
 19 51  1  0
 19 52  1  0
 20 53  1  0
 20 54  1  0
 21 55  1  0
 21 56  1  0
 24 57  1  0
 24 58  1  0
 25 59  1  0
 25 60  1  0
M  CHG  1   6   1
M  END
>  <UniqueID>  (28) 
27

>  <SMILES>  (28) 
CCNCC[NH+]1CCN(CCN2C(=O)CC3(CCCC3)CC2=O)CC1

>  <Energy>  (28) 
71.10654405393419

>  <Genealogy>  (28) 
CCNCC[NH+]1CCN(CCN2C(=O)CC3(CCCC3)CC2=O)CC1 (protonated)
CCNCC[NH+]1CCN(CCN2C(=O)CC3(CCCC3)CC2=O)CC1 (3D coordinates assigned)
CCNCC[NH+]1CCN(CCN2C(=O)CC3(CCCC3)CC2=O)CC1 (nonaromatic ring conformer: 71.10654405393419 kcal/mol)

>  <smiles>  (28) 
CCNCCN1CCN(CCN2C(=O)CC3(CCCC3)CC2=O)CC1

>  <score_type>  (28) 
oracle

>  <origin>  (28) 
adg

>  <m_score__min__energy>  (28) 
-5.8600000000000003

>  <m_primary>  (28) 
energy

$$$$
28:0
     RDKit          3D

 40 43  0  0  0  0  0  0  0  0999 V2000
   58.0510   26.5590   45.8040 Cl  0  0  0  0  0  0  0  0  0  0  0  0
   58.8990   27.9740   46.4020 C   0  0  0  0  0  0  0  0  0  0  0  0
   59.5770   28.8120   45.5110 C   0  0  0  0  0  0  0  0  0  0  0  0
   60.2530   29.9390   45.9860 C   0  0  0  0  0  0  0  0  0  0  0  0
   60.2670   30.2320   47.3600 C   0  0  0  0  0  0  0  0  0  0  0  0
   60.9770   31.4340   47.8510 C   0  0  0  0  0  0  0  0  0  0  0  0
   62.0350   31.3660   48.6850 N   0  0  0  0  0  0  0  0  0  0  0  0
   62.4650   32.6370   48.8320 C   0  0  0  0  0  0  0  0  0  0  0  0
   63.6230   33.0490   49.6640 C   0  0  0  0  0  0  0  0  0  0  0  0
   64.9210   32.5910   49.3660 C   0  0  0  0  0  0  0  0  0  0  0  0
   66.0090   32.9820   50.1520 C   0  0  0  0  0  0  0  0  0  0  0  0
   65.8170   33.8330   51.2420 C   0  0  0  0  0  0  0  0  0  0  0  0
   64.5360   34.2960   51.5480 C   0  0  0  0  0  0  0  0  0  0  0  0
   63.4430   33.9090   50.7660 C   0  0  0  0  0  0  0  0  0  0  0  0
   61.6500   33.4670   48.0830 C   0  0  0  0  0  0  0  0  0  0  0  0
   60.7130   32.7110   47.4760 N   0  0  0  0  0  0  0  0  0  0  0  0
   59.6160   33.2150   46.6950 C   0  0  0  0  0  0  0  0  0  0  0  0
   58.2900   32.8700   47.0130 C   0  0  0  0  0  0  0  0  0  0  0  0
   57.2290   33.3710   46.2540 C   0  0  0  0  0  0  0  0  0  0  0  0
   57.4800   34.2280   45.1780 C   0  0  0  0  0  0  0  0  0  0  0  0
   58.7930   34.5880   44.8640 C   0  0  0  0  0  0  0  0  0  0  0  0
   59.8570   34.0890   45.6220 C   0  0  0  0  0  0  0  0  0  0  0  0
   59.5670   29.3950   48.2460 C   0  0  0  0  0  0  0  0  0  0  0  0
   58.8920   28.2680   47.7680 C   0  0  0  0  0  0  0  0  0  0  0  0
   59.5782   28.5837   44.4350 H   0  0  0  0  0  0  0  0  0  0  0  0
   60.7770   30.6004   45.2803 H   0  0  0  0  0  0  0  0  0  0  0  0
   62.4590   30.4990   49.0810 H   0  0  0  0  0  0  0  0  0  0  0  0
   65.0799   31.9207   48.5085 H   0  0  0  0  0  0  0  0  0  0  0  0
   67.0188   32.6183   49.9111 H   0  0  0  0  0  0  0  0  0  0  0  0
   66.6746   34.1385   51.8594 H   0  0  0  0  0  0  0  0  0  0  0  0
   64.3859   34.9671   52.4066 H   0  0  0  0  0  0  0  0  0  0  0  0
   62.4365   34.2781   51.0126 H   0  0  0  0  0  0  0  0  0  0  0  0
   61.7496   34.5591   47.9972 H   0  0  0  0  0  0  0  0  0  0  0  0
   58.0872   32.2025   47.8634 H   0  0  0  0  0  0  0  0  0  0  0  0
   56.1949   33.0908   46.5034 H   0  0  0  0  0  0  0  0  0  0  0  0
   56.6441   34.6186   44.5790 H   0  0  0  0  0  0  0  0  0  0  0  0
   58.9900   35.2648   44.0195 H   0  0  0  0  0  0  0  0  0  0  0  0
   60.8883   34.3825   45.3767 H   0  0  0  0  0  0  0  0  0  0  0  0
   59.5502   29.6279   49.3209 H   0  0  0  0  0  0  0  0  0  0  0  0
   58.3546   27.6117   48.4683 H   0  0  0  0  0  0  0  0  0  0  0  0
  1  2  1  0
  2  3  2  0
  3  4  1  0
  4  5  2  0
  5  6  1  0
  6  7  2  0
  7  8  1  0
  8  9  1  0
  9 10  2  0
 10 11  1  0
 11 12  2  0
 12 13  1  0
 13 14  2  0
  8 15  2  0
 15 16  1  0
 16 17  1  0
 17 18  2  0
 18 19  1  0
 19 20  2  0
 20 21  1  0
 21 22  2  0
  5 23  1  0
 23 24  2  0
 24  2  1  0
 16  6  1  0
 22 17  1  0
 14  9  1  0
  3 25  1  0
  4 26  1  0
  7 27  1  0
 10 28  1  0
 11 29  1  0
 12 30  1  0
 13 31  1  0
 14 32  1  0
 15 33  1  0
 18 34  1  0
 19 35  1  0
 20 36  1  0
 21 37  1  0
 22 38  1  0
 23 39  1  0
 24 40  1  0
M  CHG  1   7   1
M  END
>  <UniqueID>  (29) 
28

>  <SMILES>  (29) 
Clc1ccc(-c2[nH+]c(-c3ccccc3)cn2-c2ccccc2)cc1

>  <Energy>  (29) 
86.69732668238937

>  <Genealogy>  (29) 
Clc1ccc(-c2[nH+]c(-c3ccccc3)cn2-c2ccccc2)cc1 (protonated)
Clc1ccc(-c2[nH+]c(-c3ccccc3)cn2-c2ccccc2)cc1 (3D coordinates assigned)
Clc1ccc(-c2[nH+]c(-c3ccccc3)cn2-c2ccccc2)cc1 (optimized conformer: 86.69732668238937 kcal/mol)

>  <smiles>  (29) 
Clc1ccc(-c2nc(-c3ccccc3)cn2-c2ccccc2)cc1

>  <score_type>  (29) 
oracle

>  <origin>  (29) 
adg

>  <m_score__min__energy>  (29) 
-6.2199999999999998

>  <m_primary>  (29) 
energy

$$$$
29:0
     RDKit          3D

 61 64  0  0  0  0  0  0  0  0999 V2000
   62.3620   30.8620   50.4740 C   0  0  0  0  0  0  0  0  0  0  0  0
   61.0530   31.6160   50.7100 C   0  0  0  0  0  0  0  0  0  0  0  0
   59.9080   31.0730   49.9460 N   0  0  0  0  0  0  0  0  0  0  0  0
   58.6130   31.7630   50.1530 C   0  0  0  0  0  0  0  0  0  0  0  0
   58.5660   32.6940   51.3750 C   0  0  0  0  0  0  0  0  0  0  0  0
   59.8870   29.6000   49.8070 C   0  0  0  0  0  0  0  0  0  0  0  0
   59.5440   29.2040   48.3670 C   0  0  0  0  0  0  0  0  0  0  0  0
   60.1680   30.1150   47.3910 N   0  0  0  0  0  0  0  0  0  0  0  0
   59.3650   30.2170   46.1860 C   0  0  0  0  0  0  0  0  0  0  0  0
   58.9520   29.0340   45.4960 C   0  0  0  0  0  0  0  0  0  0  0  0
   59.3920   27.7480   45.9010 C   0  0  0  0  0  0  0  0  0  0  0  0
   58.9860   26.6000   45.2260 C   0  0  0  0  0  0  0  0  0  0  0  0
   58.1420   26.6950   44.1300 C   0  0  0  0  0  0  0  0  0  0  0  0
   57.6980   27.9400   43.6970 C   0  0  0  0  0  0  0  0  0  0  0  0
   58.0830   29.1320   44.3620 C   0  0  0  0  0  0  0  0  0  0  0  0
   57.6420   30.3650   43.9270 N   0  0  0  0  0  0  0  0  0  0  0  0
   56.7070   30.4740   42.7860 C   0  0  0  0  0  0  0  0  0  0  0  0
   58.1050   31.4910   44.5490 C   0  0  0  0  0  0  0  0  0  0  0  0
   57.7670   33.0830   44.1140 S   0  0  0  0  0  0  0  0  0  0  0  0
   58.6900   33.7950   45.3090 C   0  0  0  0  0  0  0  0  0  0  0  0
   59.2870   32.8010   46.0800 C   0  0  0  0  0  0  0  0  0  0  0  0
   60.1830   33.2180   47.1710 C   0  0  0  0  0  0  0  0  0  0  0  0
   61.5520   32.9290   47.1010 C   0  0  0  0  0  0  0  0  0  0  0  0
   62.4300   33.4400   48.0610 C   0  0  0  0  0  0  0  0  0  0  0  0
   61.9490   34.2670   49.0950 C   0  0  0  0  0  0  0  0  0  0  0  0
   62.7920   34.8170   50.0720 O   0  0  0  0  0  0  0  0  0  0  0  0
   63.6980   34.0610   50.8710 C   0  0  0  0  0  0  0  0  0  0  0  0
   60.5820   34.5620   49.1530 C   0  0  0  0  0  0  0  0  0  0  0  0
   59.7060   34.0610   48.1870 C   0  0  0  0  0  0  0  0  0  0  0  0
   58.9570   31.4720   45.6560 C   0  0  0  0  0  0  0  0  0  0  0  0
   62.8146   30.6013   51.4421 H   0  0  0  0  0  0  0  0  0  0  0  0
   62.1583   29.9429   49.9051 H   0  0  0  0  0  0  0  0  0  0  0  0
   63.0549   31.4994   49.9051 H   0  0  0  0  0  0  0  0  0  0  0  0
   60.8110   31.5647   51.7818 H   0  0  0  0  0  0  0  0  0  0  0  0
   61.2097   32.6484   50.3642 H   0  0  0  0  0  0  0  0  0  0  0  0
   58.3984   32.3637   49.2569 H   0  0  0  0  0  0  0  0  0  0  0  0
   57.8682   30.9745   50.3360 H   0  0  0  0  0  0  0  0  0  0  0  0
   58.5964   32.0926   52.2955 H   0  0  0  0  0  0  0  0  0  0  0  0
   59.4310   33.3731   51.3520 H   0  0  0  0  0  0  0  0  0  0  0  0
   57.6370   33.2826   51.3520 H   0  0  0  0  0  0  0  0  0  0  0  0
   60.8769   29.1972   50.0676 H   0  0  0  0  0  0  0  0  0  0  0  0
   59.1219   29.1889   50.4819 H   0  0  0  0  0  0  0  0  0  0  0  0
   59.9048   28.1814   48.1823 H   0  0  0  0  0  0  0  0  0  0  0  0
   58.4525   29.2634   48.2444 H   0  0  0  0  0  0  0  0  0  0  0  0
   61.1320   29.8060   47.1750 H   0  0  0  0  0  0  0  0  0  0  0  0
   60.3130   31.0640   47.8030 H   0  0  0  0  0  0  0  0  0  0  0  0
   60.0668   27.6558   46.7648 H   0  0  0  0  0  0  0  0  0  0  0  0
   59.3363   25.6134   45.5636 H   0  0  0  0  0  0  0  0  0  0  0  0
   57.8230   25.7842   43.6021 H   0  0  0  0  0  0  0  0  0  0  0  0
   57.0351   28.0013   42.8213 H   0  0  0  0  0  0  0  0  0  0  0  0
   55.6806   30.5937   43.1632 H   0  0  0  0  0  0  0  0  0  0  0  0
   56.9765   31.3468   42.1732 H   0  0  0  0  0  0  0  0  0  0  0  0
   56.7685   29.5626   42.1732 H   0  0  0  0  0  0  0  0  0  0  0  0
   58.8079   34.8778   45.4629 H   0  0  0  0  0  0  0  0  0  0  0  0
   61.9375   32.2973   46.2872 H   0  0  0  0  0  0  0  0  0  0  0  0
   63.5012   33.1953   48.0089 H   0  0  0  0  0  0  0  0  0  0  0  0
   63.4847   34.2390   51.9353 H   0  0  0  0  0  0  0  0  0  0  0  0
   63.5789   32.9906   50.6472 H   0  0  0  0  0  0  0  0  0  0  0  0
   64.7298   34.3698   50.6472 H   0  0  0  0  0  0  0  0  0  0  0  0
   60.1943   35.1935   49.9659 H   0  0  0  0  0  0  0  0  0  0  0  0
   58.6395   34.3279   48.2226 H   0  0  0  0  0  0  0  0  0  0  0  0
  1  2  1  0
  2  3  1  0
  3  4  1  0
  4  5  1  0
  3  6  1  0
  6  7  1  0
  7  8  1  0
  8  9  1  0
  9 10  2  0
 10 11  1  0
 11 12  2  0
 12 13  1  0
 13 14  2  0
 14 15  1  0
 15 16  2  0
 16 17  1  0
 16 18  1  0
 18 19  1  0
 19 20  1  0
 20 21  2  0
 21 22  1  0
 22 23  2  0
 23 24  1  0
 24 25  2  0
 25 26  1  0
 26 27  1  0
 25 28  1  0
 28 29  2  0
 21 30  1  0
 30  9  1  0
 15 10  1  0
 30 18  2  0
 29 22  1  0
  1 31  1  0
  1 32  1  0
  1 33  1  0
  2 34  1  0
  2 35  1  0
  4 36  1  0
  4 37  1  0
  5 38  1  0
  5 39  1  0
  5 40  1  0
  6 41  1  0
  6 42  1  0
  7 43  1  0
  7 44  1  0
  8 45  1  0
  8 46  1  0
 11 47  1  0
 12 48  1  0
 13 49  1  0
 14 50  1  0
 17 51  1  0
 17 52  1  0
 17 53  1  0
 20 54  1  0
 23 55  1  0
 24 56  1  0
 27 57  1  0
 27 58  1  0
 27 59  1  0
 28 60  1  0
 29 61  1  0
M  CHG  2   8   1  16   1
M  END
>  <UniqueID>  (30) 
29

>  <SMILES>  (30) 
CCN(CC)CC[NH2+]c1c2ccccc2[n+](C)c2scc(-c3ccc(OC)cc3)c12

>  <Energy>  (30) 
126.15671500224956

>  <Genealogy>  (30) 
CCN(CC)CC[NH2+]c1c2ccccc2[n+](C)c2scc(-c3ccc(OC)cc3)c12 (protonated)
CCN(CC)CC[NH2+]c1c2ccccc2[n+](C)c2scc(-c3ccc(OC)cc3)c12 (3D coordinates assigned)
CCN(CC)CC[NH2+]c1c2ccccc2[n+](C)c2scc(-c3ccc(OC)cc3)c12 (optimized conformer: 126.15671500224956 kcal/mol)

>  <smiles>  (30) 
CCN(CC)CCNc1c2ccccc2[n+](C)c2scc(-c3ccc(OC)cc3)c12

>  <score_type>  (30) 
oracle

>  <origin>  (30) 
adg

>  <m_score__min__energy>  (30) 
-4.7400000000000002

>  <m_primary>  (30) 
energy

$$$$
30:0
     RDKit          3D

 71 74  0  0  0  0  0  0  0  0999 V2000
   65.2550   33.1190   50.0300 C   0  0  0  0  0  0  0  0  0  0  0  0
   64.4470   32.0240   49.3350 C   0  0  0  0  0  0  0  0  0  0  0  0
   63.3300   32.6030   48.5530 N   0  0  0  0  0  0  0  0  0  0  0  0
   63.7370   33.8500   47.8520 C   0  0  0  0  0  0  0  0  0  0  0  0
   63.2890   33.7870   46.3960 C   0  0  0  0  0  0  0  0  0  0  0  0
   62.1420   32.8140   49.4120 C   0  0  0  0  0  0  0  0  0  0  0  0
   60.9720   31.9240   48.9550 C   0  0  0  0  0  0  0  0  0  0  0  0
   61.2250   31.2730   47.6570 N   0  0  0  0  0  0  0  0  0  0  0  0
   60.0220   31.1580   46.8560 C   0  0  0  0  0  0  0  0  0  0  0  0
   59.4120   32.2510   46.1670 C   0  0  0  0  0  0  0  0  0  0  0  0
   59.9180   33.5680   46.2640 C   0  0  0  0  0  0  0  0  0  0  0  0
   59.2840   34.6290   45.6210 C   0  0  0  0  0  0  0  0  0  0  0  0
   58.1300   34.4130   44.8810 C   0  0  0  0  0  0  0  0  0  0  0  0
   57.6050   33.1290   44.7570 C   0  0  0  0  0  0  0  0  0  0  0  0
   58.2360   32.0170   45.3650 C   0  0  0  0  0  0  0  0  0  0  0  0
   57.7280   30.7330   45.2190 N   0  0  0  0  0  0  0  0  0  0  0  0
   56.7170   30.4080   44.2000 C   0  0  0  0  0  0  0  0  0  0  0  0
   58.2510   29.7430   46.0050 C   0  0  0  0  0  0  0  0  0  0  0  0
   59.3800   29.9250   46.7680 C   0  0  0  0  0  0  0  0  0  0  0  0
   59.7250   28.8130   47.3820 O   0  0  0  0  0  0  0  0  0  0  0  0
   58.8290   27.9050   47.0650 C   0  0  0  0  0  0  0  0  0  0  0  0
   58.7800   26.5910   47.5170 C   0  0  0  0  0  0  0  0  0  0  0  0
   57.6990   25.7930   47.1150 C   0  0  0  0  0  0  0  0  0  0  0  0
   56.6710   26.3260   46.2900 C   0  0  0  0  0  0  0  0  0  0  0  0
   55.5490   25.5740   45.9030 O   0  0  0  0  0  0  0  0  0  0  0  0
   55.5480   24.5230   44.9380 C   0  0  0  0  0  0  0  0  0  0  0  0
   56.1760   23.2540   45.5250 C   0  0  0  0  0  0  0  0  0  0  0  0
   55.5680   21.9900   44.9030 C   0  0  0  0  0  0  0  0  0  0  0  0
   56.2960   21.6080   43.6730 N   0  0  0  0  0  0  0  0  0  0  0  0
   56.1260   22.6200   42.6150 C   0  0  0  0  0  0  0  0  0  0  0  0
   57.7300   21.4430   43.9620 C   0  0  0  0  0  0  0  0  0  0  0  0
   56.7610   27.6580   45.8390 C   0  0  0  0  0  0  0  0  0  0  0  0
   57.8710   28.4210   46.2160 C   0  0  0  0  0  0  0  0  0  0  0  0
   65.1688   33.0022   51.1204 H   0  0  0  0  0  0  0  0  0  0  0  0
   66.3116   33.0383   49.7350 H   0  0  0  0  0  0  0  0  0  0  0  0
   64.8662   34.1048   49.7350 H   0  0  0  0  0  0  0  0  0  0  0  0
   65.1084   31.4644   48.6572 H   0  0  0  0  0  0  0  0  0  0  0  0
   64.0281   31.3570   50.1029 H   0  0  0  0  0  0  0  0  0  0  0  0
   63.2677   34.7156   48.3424 H   0  0  0  0  0  0  0  0  0  0  0  0
   64.8314   33.9522   47.8936 H   0  0  0  0  0  0  0  0  0  0  0  0
   62.2005   33.6339   46.3536 H   0  0  0  0  0  0  0  0  0  0  0  0
   63.5466   34.7302   45.8920 H   0  0  0  0  0  0  0  0  0  0  0  0
   63.7967   32.9514   45.8920 H   0  0  0  0  0  0  0  0  0  0  0  0
   62.4000   32.5647   50.4519 H   0  0  0  0  0  0  0  0  0  0  0  0
   61.8344   33.8674   49.3358 H   0  0  0  0  0  0  0  0  0  0  0  0
   60.8060   31.1444   49.7131 H   0  0  0  0  0  0  0  0  0  0  0  0
   60.0900   32.5704   48.8359 H   0  0  0  0  0  0  0  0  0  0  0  0
   61.5760   30.3050   47.8520 H   0  0  0  0  0  0  0  0  0  0  0  0
   62.0090   31.7410   47.1550 H   0  0  0  0  0  0  0  0  0  0  0  0
   60.8256   33.7575   46.8559 H   0  0  0  0  0  0  0  0  0  0  0  0
   59.7006   35.6440   45.7003 H   0  0  0  0  0  0  0  0  0  0  0  0
   57.6277   35.2597   44.3902 H   0  0  0  0  0  0  0  0  0  0  0  0
   56.6834   32.9761   44.1762 H   0  0  0  0  0  0  0  0  0  0  0  0
   55.7815   30.1073   44.6944 H   0  0  0  0  0  0  0  0  0  0  0  0
   56.5321   31.2920   43.5720 H   0  0  0  0  0  0  0  0  0  0  0  0
   57.0818   29.5819   43.5720 H   0  0  0  0  0  0  0  0  0  0  0  0
   59.5671   26.1886   48.1716 H   0  0  0  0  0  0  0  0  0  0  0  0
   57.6459   24.7439   47.4414 H   0  0  0  0  0  0  0  0  0  0  0  0
   54.5118   24.3084   44.6377 H   0  0  0  0  0  0  0  0  0  0  0  0
   56.1378   24.8408   44.0656 H   0  0  0  0  0  0  0  0  0  0  0  0
   57.2580   23.2655   45.3271 H   0  0  0  0  0  0  0  0  0  0  0  0
   55.9775   23.2377   46.6068 H   0  0  0  0  0  0  0  0  0  0  0  0
   55.6288   21.1657   45.6288 H   0  0  0  0  0  0  0  0  0  0  0  0
   54.5189   22.1943   44.6430 H   0  0  0  0  0  0  0  0  0  0  0  0
   55.9604   23.6059   43.0739 H   0  0  0  0  0  0  0  0  0  0  0  0
   57.0311   22.6535   41.9908 H   0  0  0  0  0  0  0  0  0  0  0  0
   55.2596   22.3559   41.9908 H   0  0  0  0  0  0  0  0  0  0  0  0
   57.8849   21.4252   45.0509 H   0  0  0  0  0  0  0  0  0  0  0  0
   58.0856   20.4980   43.5255 H   0  0  0  0  0  0  0  0  0  0  0  0
   58.2910   22.2825   43.5255 H   0  0  0  0  0  0  0  0  0  0  0  0
   55.9739   28.0892   45.2030 H   0  0  0  0  0  0  0  0  0  0  0  0
  1  2  1  0
  2  3  1  0
  3  4  1  0
  4  5  1  0
  3  6  1  0
  6  7  1  0
  7  8  1  0
  8  9  1  0
  9 10  2  0
 10 11  1  0
 11 12  2  0
 12 13  1  0
 13 14  2  0
 14 15  1  0
 15 16  2  0
 16 17  1  0
 16 18  1  0
 18 19  2  0
 19 20  1  0
 20 21  1  0
 21 22  2  0
 22 23  1  0
 23 24  2  0
 24 25  1  0
 25 26  1  0
 26 27  1  0
 27 28  1  0
 28 29  1  0
 29 30  1  0
 29 31  1  0
 24 32  1  0
 32 33  2  0
 19  9  1  0
 33 21  1  0
 15 10  1  0
 33 18  1  0
  1 34  1  0
  1 35  1  0
  1 36  1  0
  2 37  1  0
  2 38  1  0
  4 39  1  0
  4 40  1  0
  5 41  1  0
  5 42  1  0
  5 43  1  0
  6 44  1  0
  6 45  1  0
  7 46  1  0
  7 47  1  0
  8 48  1  0
  8 49  1  0
 11 50  1  0
 12 51  1  0
 13 52  1  0
 14 53  1  0
 17 54  1  0
 17 55  1  0
 17 56  1  0
 22 57  1  0
 23 58  1  0
 26 59  1  0
 26 60  1  0
 27 61  1  0
 27 62  1  0
 28 63  1  0
 28 64  1  0
 30 65  1  0
 30 66  1  0
 30 67  1  0
 31 68  1  0
 31 69  1  0
 31 70  1  0
 32 71  1  0
M  CHG  2   8   1  16   1
M  END
>  <UniqueID>  (31) 
30

>  <SMILES>  (31) 
CCN(CC)CC[NH2+]c1c2ccccc2[n+](C)c2c1oc1ccc(OCCCN(C)C)cc12

>  <Energy>  (31) 
131.04518372899315

>  <Genealogy>  (31) 
CCN(CC)CC[NH2+]c1c2ccccc2[n+](C)c2c1oc1ccc(OCCCN(C)C)cc12 (protonated)
CCN(CC)CC[NH2+]c1c2ccccc2[n+](C)c2c1oc1ccc(OCCCN(C)C)cc12 (3D coordinates assigned)
CCN(CC)CC[NH2+]c1c2ccccc2[n+](C)c2c1oc1ccc(OCCCN(C)C)cc12 (optimized conformer: 131.04518372899315 kcal/mol)

>  <smiles>  (31) 
CCN(CC)CCNc1c2ccccc2[n+](C)c2c1oc1ccc(OCCCN(C)C)cc12

>  <score_type>  (31) 
oracle

>  <origin>  (31) 
adg

>  <m_score__min__energy>  (31) 
-5.6799999999999997

>  <m_primary>  (31) 
energy

$$$$
31:0
     RDKit          3D

 33 35  0  0  0  0  0  0  0  0999 V2000
   57.7210   32.9420   45.3410 C   0  0  0  0  0  0  0  0  0  0  0  0
   58.2650   31.9880   46.2470 O   0  0  0  0  0  0  0  0  0  0  0  0
   58.0540   30.6040   46.1590 C   0  0  0  0  0  0  0  0  0  0  0  0
   58.4970   29.7950   47.2120 C   0  0  0  0  0  0  0  0  0  0  0  0
   58.3110   28.4110   47.1720 C   0  0  0  0  0  0  0  0  0  0  0  0
   57.6790   27.8130   46.0700 C   0  0  0  0  0  0  0  0  0  0  0  0
   57.4730   26.3440   46.0260 C   0  0  0  0  0  0  0  0  0  0  0  0
   58.5720   25.4580   46.0280 C   0  0  0  0  0  0  0  0  0  0  0  0
   59.9300   25.9620   46.0360 C   0  0  0  0  0  0  0  0  0  0  0  0
   61.0140   26.3650   46.0430 N   0  0  0  0  0  0  0  0  0  0  0  0
   58.3560   24.1110   45.9850 N   0  0  0  0  0  0  0  0  0  0  0  0
   59.4390   23.2550   45.9840 O   0  0  0  0  0  0  0  0  0  0  0  0
   57.0880   23.6050   45.9370 C   0  0  0  0  0  0  0  0  0  0  0  0
   56.8610   22.2150   45.8930 C   0  0  0  0  0  0  0  0  0  0  0  0
   55.5580   21.7140   45.8430 C   0  0  0  0  0  0  0  0  0  0  0  0
   54.4710   22.5870   45.8370 C   0  0  0  0  0  0  0  0  0  0  0  0
   54.6780   23.9680   45.8800 C   0  0  0  0  0  0  0  0  0  0  0  0
   55.9850   24.4900   45.9300 C   0  0  0  0  0  0  0  0  0  0  0  0
   56.2030   25.8390   45.9740 N   0  0  0  0  0  0  0  0  0  0  0  0
   55.1300   26.7060   45.9970 O   0  0  0  0  0  0  0  0  0  0  0  0
   57.2290   28.6200   45.0150 C   0  0  0  0  0  0  0  0  0  0  0  0
   57.4150   30.0040   45.0560 C   0  0  0  0  0  0  0  0  0  0  0  0
   57.2540   33.7610   45.9077 H   0  0  0  0  0  0  0  0  0  0  0  0
   58.5246   33.3459   44.7077 H   0  0  0  0  0  0  0  0  0  0  0  0
   56.9641   32.4561   44.7077 H   0  0  0  0  0  0  0  0  0  0  0  0
   58.9960   30.2531   48.0787 H   0  0  0  0  0  0  0  0  0  0  0  0
   58.6612   27.7870   48.0075 H   0  0  0  0  0  0  0  0  0  0  0  0
   57.7143   21.5208   45.8981 H   0  0  0  0  0  0  0  0  0  0  0  0
   55.3891   20.6276   45.8083 H   0  0  0  0  0  0  0  0  0  0  0  0
   53.4470   22.1871   45.7983 H   0  0  0  0  0  0  0  0  0  0  0  0
   53.8158   24.6510   45.8748 H   0  0  0  0  0  0  0  0  0  0  0  0
   56.7269   28.1608   44.1507 H   0  0  0  0  0  0  0  0  0  0  0  0
   57.0607   30.6286   44.2227 H   0  0  0  0  0  0  0  0  0  0  0  0
  1  2  1  0
  2  3  1  0
  3  4  2  0
  4  5  1  0
  5  6  2  0
  6  7  1  0
  7  8  2  0
  8  9  1  0
  9 10  3  0
  8 11  1  0
 11 12  1  0
 11 13  2  0
 13 14  1  0
 14 15  2  0
 15 16  1  0
 16 17  2  0
 17 18  1  0
 18 19  2  0
 19 20  1  0
  6 21  1  0
 21 22  2  0
 22  3  1  0
 19  7  1  0
 18 13  1  0
  1 23  1  0
  1 24  1  0
  1 25  1  0
  4 26  1  0
  5 27  1  0
 14 28  1  0
 15 29  1  0
 16 30  1  0
 17 31  1  0
 21 32  1  0
 22 33  1  0
M  CHG  4  11   1  12  -1  19   1  20  -1
M  END
>  <UniqueID>  (32) 
31

>  <SMILES>  (32) 
COc1ccc(-c2c(C#N)[n+]([O-])c3ccccc3[n+]2[O-])cc1

>  <Energy>  (32) 
50.5420357542889

>  <Genealogy>  (32) 
COc1ccc(-c2c(C#N)[n+]([O-])c3ccccc3[n+]2[O-])cc1 (3D coordinates assigned)
COc1ccc(-c2c(C#N)[n+]([O-])c3ccccc3[n+]2[O-])cc1 (optimized conformer: 50.5420357542889 kcal/mol)

>  <smiles>  (32) 
COc1ccc(-c2c(C#N)[n+]([O-])c3ccccc3[n+]2[O-])cc1

>  <score_type>  (32) 
oracle

>  <origin>  (32) 
adg

>  <m_score__min__energy>  (32) 
-6.4800000000000004

>  <m_primary>  (32) 
energy

$$$$
32:0
     RDKit          3D

 67 69  0  0  0  0  0  0  0  0999 V2000
   54.9030   27.8840   53.8140 C   0  0  0  0  0  0  0  0  0  0  0  0
   54.0840   28.6520   52.7840 C   0  0  0  0  0  0  0  0  0  0  0  0
   54.8280   29.8690   52.3640 N   0  0  0  0  0  0  0  0  0  0  0  0
   53.9290   30.8840   51.7690 C   0  0  0  0  0  0  0  0  0  0  0  0
   52.8920   30.2310   50.8550 C   0  0  0  0  0  0  0  0  0  0  0  0
   55.6020   30.4540   53.4830 C   0  0  0  0  0  0  0  0  0  0  0  0
   56.9880   30.9190   53.0090 C   0  0  0  0  0  0  0  0  0  0  0  0
   57.2620   30.4540   51.6470 N   0  0  0  0  0  0  0  0  0  0  0  0
   58.3470   30.9620   50.8470 C   0  0  0  0  0  0  0  0  0  0  0  0
   59.1840   30.0910   50.1040 C   0  0  0  0  0  0  0  0  0  0  0  0
   60.2130   30.6490   49.3530 C   0  0  0  0  0  0  0  0  0  0  0  0
   61.0980   30.0030   48.5710 N   0  0  0  0  0  0  0  0  0  0  0  0
   61.8570   31.0100   48.0670 C   0  0  0  0  0  0  0  0  0  0  0  0
   61.4800   32.2360   48.5090 N   0  0  0  0  0  0  0  0  0  0  0  0
   62.0570   33.5210   48.1120 C   0  0  0  0  0  0  0  0  0  0  0  0
   61.5500   33.9540   46.7300 C   0  0  0  0  0  0  0  0  0  0  0  0
   60.0150   33.9080   46.6400 C   0  0  0  0  0  0  0  0  0  0  0  0
   59.5110   32.9820   45.6040 N   0  0  0  0  0  0  0  0  0  0  0  0
   58.4130   33.4760   44.7530 C   0  0  0  0  0  0  0  0  0  0  0  0
   57.0430   32.9300   45.1810 C   0  0  0  0  0  0  0  0  0  0  0  0
   57.0450   31.4630   45.2990 N   0  0  0  0  0  0  0  0  0  0  0  0
   57.1390   30.7770   43.9900 C   0  0  0  0  0  0  0  0  0  0  0  0
   55.8650   29.9800   43.6950 C   0  0  0  0  0  0  0  0  0  0  0  0
   55.2700   29.5420   44.8860 O   0  0  0  0  0  0  0  0  0  0  0  0
   58.0620   31.0240   46.2750 C   0  0  0  0  0  0  0  0  0  0  0  0
   59.4770   31.5470   45.9580 C   0  0  0  0  0  0  0  0  0  0  0  0
   60.4350   31.9930   49.3170 C   0  0  0  0  0  0  0  0  0  0  0  0
   59.6380   32.8900   50.0280 C   0  0  0  0  0  0  0  0  0  0  0  0
   58.5860   32.3630   50.8000 C   0  0  0  0  0  0  0  0  0  0  0  0
   57.7980   33.2170   51.5000 F   0  0  0  0  0  0  0  0  0  0  0  0
   54.5887   28.1787   54.8261 H   0  0  0  0  0  0  0  0  0  0  0  0
   54.7414   26.8042   53.6798 H   0  0  0  0  0  0  0  0  0  0  0  0
   55.9702   28.1146   53.6798 H   0  0  0  0  0  0  0  0  0  0  0  0
   53.9043   28.0119   51.9077 H   0  0  0  0  0  0  0  0  0  0  0  0
   53.1215   28.9465   53.2277 H   0  0  0  0  0  0  0  0  0  0  0  0
   53.4093   31.4212   52.5761 H   0  0  0  0  0  0  0  0  0  0  0  0
   54.5348   31.5797   51.1698 H   0  0  0  0  0  0  0  0  0  0  0  0
   52.1186   29.7440   51.4671 H   0  0  0  0  0  0  0  0  0  0  0  0
   52.4270   30.9996   50.2201 H   0  0  0  0  0  0  0  0  0  0  0  0
   53.3842   29.4796   50.2201 H   0  0  0  0  0  0  0  0  0  0  0  0
   55.0524   31.3162   53.8887 H   0  0  0  0  0  0  0  0  0  0  0  0
   55.7360   29.6841   54.2571 H   0  0  0  0  0  0  0  0  0  0  0  0
   57.0241   32.0182   53.0276 H   0  0  0  0  0  0  0  0  0  0  0  0
   57.7480   30.4962   53.6825 H   0  0  0  0  0  0  0  0  0  0  0  0
   56.6380   29.7240   51.2330 H   0  0  0  0  0  0  0  0  0  0  0  0
   59.0236   29.0029   50.1212 H   0  0  0  0  0  0  0  0  0  0  0  0
   62.6930   30.8480   47.3707 H   0  0  0  0  0  0  0  0  0  0  0  0
   61.7762   34.2844   48.8525 H   0  0  0  0  0  0  0  0  0  0  0  0
   63.1504   33.4115   48.0631 H   0  0  0  0  0  0  0  0  0  0  0  0
   61.8867   34.9827   46.5343 H   0  0  0  0  0  0  0  0  0  0  0  0
   61.9556   33.2544   45.9843 H   0  0  0  0  0  0  0  0  0  0  0  0
   59.6188   33.5881   47.6150 H   0  0  0  0  0  0  0  0  0  0  0  0
   59.6775   34.9175   46.3625 H   0  0  0  0  0  0  0  0  0  0  0  0
   58.3886   34.5742   44.8115 H   0  0  0  0  0  0  0  0  0  0  0  0
   58.6044   33.1287   43.7270 H   0  0  0  0  0  0  0  0  0  0  0  0
   56.7768   33.3641   46.1561 H   0  0  0  0  0  0  0  0  0  0  0  0
   56.3110   33.2071   44.4081 H   0  0  0  0  0  0  0  0  0  0  0  0
   57.2843   31.5283   43.1998 H   0  0  0  0  0  0  0  0  0  0  0  0
   57.9893   30.0798   44.0201 H   0  0  0  0  0  0  0  0  0  0  0  0
   55.1556   30.6208   43.1509 H   0  0  0  0  0  0  0  0  0  0  0  0
   56.1288   29.1022   43.0868 H   0  0  0  0  0  0  0  0  0  0  0  0
   55.6600   30.0870   45.6180 H   0  0  0  0  0  0  0  0  0  0  0  0
   57.7702   31.3882   47.2711 H   0  0  0  0  0  0  0  0  0  0  0  0
   58.1031   29.9257   46.2310 H   0  0  0  0  0  0  0  0  0  0  0  0
   60.1117   31.3918   46.8429 H   0  0  0  0  0  0  0  0  0  0  0  0
   59.8386   30.9894   45.0815 H   0  0  0  0  0  0  0  0  0  0  0  0
   59.8255   33.9731   49.9867 H   0  0  0  0  0  0  0  0  0  0  0  0
  1  2  1  0
  2  3  1  0
  3  4  1  0
  4  5  1  0
  3  6  1  0
  6  7  1  0
  7  8  1  0
  8  9  1  0
  9 10  2  0
 10 11  1  0
 11 12  1  0
 12 13  2  0
 13 14  1  0
 14 15  1  0
 15 16  1  0
 16 17  1  0
 17 18  1  0
 18 19  1  0
 19 20  1  0
 20 21  1  0
 21 22  1  0
 22 23  1  0
 23 24  1  0
 21 25  1  0
 25 26  1  0
 14 27  1  0
 27 28  1  0
 28 29  2  0
 29 30  1  0
 29  9  1  0
 27 11  2  0
 26 18  1  0
  1 31  1  0
  1 32  1  0
  1 33  1  0
  2 34  1  0
  2 35  1  0
  4 36  1  0
  4 37  1  0
  5 38  1  0
  5 39  1  0
  5 40  1  0
  6 41  1  0
  6 42  1  0
  7 43  1  0
  7 44  1  0
  8 45  1  0
 10 46  1  0
 13 47  1  0
 15 48  1  0
 15 49  1  0
 16 50  1  0
 16 51  1  0
 17 52  1  0
 17 53  1  0
 19 54  1  0
 19 55  1  0
 20 56  1  0
 20 57  1  0
 22 58  1  0
 22 59  1  0
 23 60  1  0
 23 61  1  0
 24 62  1  0
 25 63  1  0
 25 64  1  0
 26 65  1  0
 26 66  1  0
 28 67  1  0
M  END
>  <UniqueID>  (33) 
32

>  <SMILES>  (33) 
CCN(CC)CCNc1cc2ncn(CCCN3CCN(CCO)CC3)c2cc1F

>  <Energy>  (33) 
110.64422756762154

>  <Genealogy>  (33) 
CCN(CC)CCNc1cc2ncn(CCCN3CCN(CCO)CC3)c2cc1F (3D coordinates assigned)
CCN(CC)CCNc1cc2ncn(CCCN3CCN(CCO)CC3)c2cc1F (nonaromatic ring conformer: 110.64422756762154 kcal/mol)

>  <smiles>  (33) 
CCN(CC)CCNc1cc2ncn(CCCN3CCN(CCO)CC3)c2cc1F

>  <score_type>  (33) 
oracle

>  <origin>  (33) 
adg

>  <m_score__min__energy>  (33) 
-8.2699999999999996

>  <m_primary>  (33) 
energy

$$$$
33:0
     RDKit          3D

 39 39  0  0  0  0  0  0  0  0999 V2000
   63.4170   32.2930   47.1210 C   0  0  0  0  0  0  0  0  0  0  0  0
   63.4110   33.8020   47.3660 C   0  0  0  0  0  0  0  0  0  0  0  0
   62.6270   34.1760   48.6280 C   0  0  0  0  0  0  0  0  0  0  0  0
   61.7120   33.0910   49.0100 N   0  0  0  0  0  0  0  0  0  0  0  0
   60.5610   33.6290   49.7430 C   0  0  0  0  0  0  0  0  0  0  0  0
   59.3970   33.8750   48.7810 C   0  0  0  0  0  0  0  0  0  0  0  0
   59.7830   33.5800   47.4380 O   0  0  0  0  0  0  0  0  0  0  0  0
   59.1180   32.7000   46.5660 C   0  0  0  0  0  0  0  0  0  0  0  0
   58.8910   31.3470   46.8880 C   0  0  0  0  0  0  0  0  0  0  0  0
   58.2240   30.5090   45.9900 C   0  0  0  0  0  0  0  0  0  0  0  0
   57.7720   30.9990   44.7550 C   0  0  0  0  0  0  0  0  0  0  0  0
   57.0480   30.0780   43.7910 C   0  0  0  0  0  0  0  0  0  0  0  0
   57.6540   28.6700   43.8120 C   0  0  0  0  0  0  0  0  0  0  0  0
   55.5450   30.0350   44.0900 C   0  0  0  0  0  0  0  0  0  0  0  0
   58.0040   32.3490   44.4340 C   0  0  0  0  0  0  0  0  0  0  0  0
   58.6710   33.1890   45.3310 C   0  0  0  0  0  0  0  0  0  0  0  0
   58.9390   34.8700   44.8910 Cl  0  0  0  0  0  0  0  0  0  0  0  0
   63.4191   31.7649   48.0859 H   0  0  0  0  0  0  0  0  0  0  0  0
   62.5200   32.0106   46.5504 H   0  0  0  0  0  0  0  0  0  0  0  0
   64.3162   32.0177   46.5504 H   0  0  0  0  0  0  0  0  0  0  0  0
   64.4493   34.1477   47.4776 H   0  0  0  0  0  0  0  0  0  0  0  0
   62.9212   34.2835   46.5068 H   0  0  0  0  0  0  0  0  0  0  0  0
   63.3333   34.3597   49.4510 H   0  0  0  0  0  0  0  0  0  0  0  0
   62.0369   35.0815   48.4232 H   0  0  0  0  0  0  0  0  0  0  0  0
   61.3550   32.6500   48.1290 H   0  0  0  0  0  0  0  0  0  0  0  0
   60.2506   32.9082   50.5137 H   0  0  0  0  0  0  0  0  0  0  0  0
   60.8463   34.5804   50.2156 H   0  0  0  0  0  0  0  0  0  0  0  0
   58.5519   33.2303   49.0640 H   0  0  0  0  0  0  0  0  0  0  0  0
   59.1052   34.9339   48.8413 H   0  0  0  0  0  0  0  0  0  0  0  0
   59.2407   30.9481   47.8516 H   0  0  0  0  0  0  0  0  0  0  0  0
   58.0516   29.4551   46.2538 H   0  0  0  0  0  0  0  0  0  0  0  0
   57.1775   30.4855   42.7775 H   0  0  0  0  0  0  0  0  0  0  0  0
   57.7933   28.3463   44.8540 H   0  0  0  0  0  0  0  0  0  0  0  0
   56.9768   27.9716   43.2985 H   0  0  0  0  0  0  0  0  0  0  0  0
   58.6267   28.6818   43.2985 H   0  0  0  0  0  0  0  0  0  0  0  0
   55.3877   30.0305   45.1787 H   0  0  0  0  0  0  0  0  0  0  0  0
   55.0587   30.9196   43.6529 H   0  0  0  0  0  0  0  0  0  0  0  0
   55.1101   29.1240   43.6529 H   0  0  0  0  0  0  0  0  0  0  0  0
   57.6576   32.7472   43.4689 H   0  0  0  0  0  0  0  0  0  0  0  0
  1  2  1  0
  2  3  1  0
  3  4  1  0
  4  5  1  0
  5  6  1  0
  6  7  1  0
  7  8  1  0
  8  9  2  0
  9 10  1  0
 10 11  2  0
 11 12  1  0
 12 13  1  0
 12 14  1  0
 11 15  1  0
 15 16  2  0
 16 17  1  0
 16  8  1  0
  1 18  1  0
  1 19  1  0
  1 20  1  0
  2 21  1  0
  2 22  1  0
  3 23  1  0
  3 24  1  0
  4 25  1  0
  5 26  1  0
  5 27  1  0
  6 28  1  0
  6 29  1  0
  9 30  1  0
 10 31  1  0
 12 32  1  0
 13 33  1  0
 13 34  1  0
 13 35  1  0
 14 36  1  0
 14 37  1  0
 14 38  1  0
 15 39  1  0
M  END
>  <UniqueID>  (34) 
33

>  <SMILES>  (34) 
CCCNCCOc1ccc(C(C)C)cc1Cl

>  <Energy>  (34) 
25.41020767051411

>  <Genealogy>  (34) 
CCCNCCOc1ccc(C(C)C)cc1Cl (3D coordinates assigned)
CCCNCCOc1ccc(C(C)C)cc1Cl (optimized conformer: 25.41020767051411 kcal/mol)

>  <smiles>  (34) 
CCCNCCOc1ccc(C(C)C)cc1Cl

>  <score_type>  (34) 
oracle

>  <origin>  (34) 
adg

>  <m_score__min__energy>  (34) 
-6.8600000000000003

>  <m_primary>  (34) 
energy

$$$$
34:0
     RDKit          3D

 32 34  0  0  0  0  0  0  0  0999 V2000
   66.0410   32.6860   50.1400 C   0  0  0  0  0  0  0  0  0  0  0  0
   64.8170   33.3850   50.3410 O   0  0  0  0  0  0  0  0  0  0  0  0
   63.7800   33.4550   49.3980 C   0  0  0  0  0  0  0  0  0  0  0  0
   63.8910   32.8960   48.1120 C   0  0  0  0  0  0  0  0  0  0  0  0
   62.8310   32.9920   47.2060 C   0  0  0  0  0  0  0  0  0  0  0  0
   61.6400   33.6480   47.5670 C   0  0  0  0  0  0  0  0  0  0  0  0
   60.5150   33.7500   46.6040 C   0  0  0  0  0  0  0  0  0  0  0  0
   60.0220   34.9660   46.1290 C   0  0  0  0  0  0  0  0  0  0  0  0
   58.7620   34.6340   45.0680 S   0  0  0  0  0  0  0  0  0  0  0  0
   58.8780   32.9620   45.2430 C   0  0  0  0  0  0  0  0  0  0  0  0
   58.0220   31.9700   44.5450 C   0  0  0  0  0  0  0  0  0  0  0  0
   57.8140   32.0560   43.1570 C   0  0  0  0  0  0  0  0  0  0  0  0
   57.0070   31.1200   42.5070 C   0  0  0  0  0  0  0  0  0  0  0  0
   56.4060   30.1030   43.2490 C   0  0  0  0  0  0  0  0  0  0  0  0
   56.6060   30.0320   44.5910 N   0  0  0  0  0  0  0  0  0  0  0  0
   57.3900   30.9290   45.2490 C   0  0  0  0  0  0  0  0  0  0  0  0
   59.8760   32.6500   46.1040 N   0  0  0  0  0  0  0  0  0  0  0  0
   61.5350   34.2030   48.8550 C   0  0  0  0  0  0  0  0  0  0  0  0
   62.5970   34.1070   49.7590 C   0  0  0  0  0  0  0  0  0  0  0  0
   66.4834   32.4334   51.1149 H   0  0  0  0  0  0  0  0  0  0  0  0
   65.8473   31.7624   49.5749 H   0  0  0  0  0  0  0  0  0  0  0  0
   66.7380   33.3222   49.5749 H   0  0  0  0  0  0  0  0  0  0  0  0
   64.8171   32.3805   47.8177 H   0  0  0  0  0  0  0  0  0  0  0  0
   62.9288   32.5512   46.2029 H   0  0  0  0  0  0  0  0  0  0  0  0
   60.3927   35.9653   46.4011 H   0  0  0  0  0  0  0  0  0  0  0  0
   58.2889   32.8638   42.5809 H   0  0  0  0  0  0  0  0  0  0  0  0
   56.8468   31.1840   41.4206 H   0  0  0  0  0  0  0  0  0  0  0  0
   55.7701   29.3585   42.7476 H   0  0  0  0  0  0  0  0  0  0  0  0
   57.5301   30.8395   46.3364 H   0  0  0  0  0  0  0  0  0  0  0  0
   60.1630   31.6740   46.3270 H   0  0  0  0  0  0  0  0  0  0  0  0
   60.6094   34.7170   49.1536 H   0  0  0  0  0  0  0  0  0  0  0  0
   62.5012   34.5479   50.7622 H   0  0  0  0  0  0  0  0  0  0  0  0
  1  2  1  0
  2  3  1  0
  3  4  2  0
  4  5  1  0
  5  6  2  0
  6  7  1  0
  7  8  2  0
  8  9  1  0
  9 10  1  0
 10 11  1  0
 11 12  2  0
 12 13  1  0
 13 14  2  0
 14 15  1  0
 15 16  2  0
 10 17  2  0
  6 18  1  0
 18 19  2  0
 19  3  1  0
 17  7  1  0
 16 11  1  0
  1 20  1  0
  1 21  1  0
  1 22  1  0
  4 23  1  0
  5 24  1  0
  8 25  1  0
 12 26  1  0
 13 27  1  0
 14 28  1  0
 16 29  1  0
 17 30  1  0
 18 31  1  0
 19 32  1  0
M  CHG  1  17   1
M  END
>  <UniqueID>  (35) 
34

>  <SMILES>  (35) 
COc1ccc(-c2csc(-c3cccnc3)[nH+]2)cc1

>  <Energy>  (35) 
69.78861649446578

>  <Genealogy>  (35) 
COc1ccc(-c2csc(-c3cccnc3)[nH+]2)cc1 (protonated)
COc1ccc(-c2csc(-c3cccnc3)[nH+]2)cc1 (3D coordinates assigned)
COc1ccc(-c2csc(-c3cccnc3)[nH+]2)cc1 (optimized conformer: 69.78861649446578 kcal/mol)

>  <smiles>  (35) 
COc1ccc(-c2csc(-c3cccnc3)n2)cc1

>  <score_type>  (35) 
oracle

>  <origin>  (35) 
adg

>  <m_score__min__energy>  (35) 
-5.6699999999999999

>  <m_primary>  (35) 
energy

$$$$
35:0
     RDKit          3D

 36 37  0  0  0  0  0  0  0  0999 V2000
   57.7530   28.0660   43.9200 C   0  0  0  0  0  0  0  0  0  0  0  0
   57.0590   28.2240   45.2700 C   0  0  0  0  0  0  0  0  0  0  0  0
   55.9030   29.1210   45.1420 N   0  0  0  0  0  0  0  0  0  0  0  0
   56.0130   29.9990   43.9690 C   0  0  0  0  0  0  0  0  0  0  0  0
   56.9770   31.1500   44.2610 C   0  0  0  0  0  0  0  0  0  0  0  0
   57.3570   31.1530   45.6380 O   0  0  0  0  0  0  0  0  0  0  0  0
   58.6730   31.2370   46.1270 C   0  0  0  0  0  0  0  0  0  0  0  0
   59.3930   30.0880   46.4950 C   0  0  0  0  0  0  0  0  0  0  0  0
   60.6550   30.1860   46.9830 N   0  0  0  0  0  0  0  0  0  0  0  0
   61.2760   31.3880   47.1320 C   0  0  0  0  0  0  0  0  0  0  0  0
   62.5790   31.4450   47.6510 C   0  0  0  0  0  0  0  0  0  0  0  0
   63.2230   32.6720   47.8090 C   0  0  0  0  0  0  0  0  0  0  0  0
   62.5730   33.8530   47.4510 C   0  0  0  0  0  0  0  0  0  0  0  0
   61.2770   33.8150   46.9320 C   0  0  0  0  0  0  0  0  0  0  0  0
   60.6070   32.5830   46.7630 C   0  0  0  0  0  0  0  0  0  0  0  0
   59.2900   32.4990   46.2430 C   0  0  0  0  0  0  0  0  0  0  0  0
   58.5330   33.7490   45.8500 C   0  0  0  0  0  0  0  0  0  0  0  0
   58.8142   27.8244   44.0793 H   0  0  0  0  0  0  0  0  0  0  0  0
   57.2731   27.2541   43.3538 H   0  0  0  0  0  0  0  0  0  0  0  0
   57.6719   29.0056   43.3538 H   0  0  0  0  0  0  0  0  0  0  0  0
   56.7179   27.2389   45.6211 H   0  0  0  0  0  0  0  0  0  0  0  0
   57.7695   28.6535   45.9917 H   0  0  0  0  0  0  0  0  0  0  0  0
   55.8590   29.7280   45.9940 H   0  0  0  0  0  0  0  0  0  0  0  0
   56.3888   29.4180   43.1139 H   0  0  0  0  0  0  0  0  0  0  0  0
   55.0207   30.4118   43.7346 H   0  0  0  0  0  0  0  0  0  0  0  0
   57.8765   31.0345   43.6384 H   0  0  0  0  0  0  0  0  0  0  0  0
   56.4732   32.1004   44.0310 H   0  0  0  0  0  0  0  0  0  0  0  0
   58.9279   29.0971   46.3861 H   0  0  0  0  0  0  0  0  0  0  0  0
   61.1510   29.3040   47.2490 H   0  0  0  0  0  0  0  0  0  0  0  0
   63.0954   30.5161   47.9349 H   0  0  0  0  0  0  0  0  0  0  0  0
   64.2442   32.7084   48.2162 H   0  0  0  0  0  0  0  0  0  0  0  0
   63.0836   34.8190   47.5781 H   0  0  0  0  0  0  0  0  0  0  0  0
   60.7737   34.7523   46.6525 H   0  0  0  0  0  0  0  0  0  0  0  0
   58.2101   34.2823   46.7563 H   0  0  0  0  0  0  0  0  0  0  0  0
   59.1876   34.4019   45.2540 H   0  0  0  0  0  0  0  0  0  0  0  0
   57.6511   33.4714   45.2540 H   0  0  0  0  0  0  0  0  0  0  0  0
  1  2  1  0
  2  3  1  0
  3  4  1  0
  4  5  1  0
  5  6  1  0
  6  7  1  0
  7  8  2  0
  8  9  1  0
  9 10  2  0
 10 11  1  0
 11 12  2  0
 12 13  1  0
 13 14  2  0
 14 15  1  0
 15 16  2  0
 16 17  1  0
 16  7  1  0
 15 10  1  0
  1 18  1  0
  1 19  1  0
  1 20  1  0
  2 21  1  0
  2 22  1  0
  3 23  1  0
  4 24  1  0
  4 25  1  0
  5 26  1  0
  5 27  1  0
  8 28  1  0
  9 29  1  0
 11 30  1  0
 12 31  1  0
 13 32  1  0
 14 33  1  0
 17 34  1  0
 17 35  1  0
 17 36  1  0
M  CHG  1   9   1
M  END
>  <UniqueID>  (36) 
35

>  <SMILES>  (36) 
CCNCCOc1c[nH+]c2ccccc2c1C

>  <Energy>  (36) 
37.6350223438617

>  <Genealogy>  (36) 
CCNCCOc1c[nH+]c2ccccc2c1C (protonated)
CCNCCOc1c[nH+]c2ccccc2c1C (3D coordinates assigned)
CCNCCOc1c[nH+]c2ccccc2c1C (optimized conformer: 37.6350223438617 kcal/mol)

>  <smiles>  (36) 
CCNCCOc1cnc2ccccc2c1C

>  <score_type>  (36) 
oracle

>  <origin>  (36) 
adg

>  <m_score__min__energy>  (36) 
-5.0300000000000002

>  <m_primary>  (36) 
energy

$$$$
36:0
     RDKit          3D

 47 49  0  0  0  0  0  0  0  0999 V2000
   56.8700   29.8480   44.3150 C   0  0  0  0  0  0  0  0  0  0  0  0
   56.5270   31.1140   44.8710 O   0  0  0  0  0  0  0  0  0  0  0  0
   57.4320   32.1710   45.0710 C   0  0  0  0  0  0  0  0  0  0  0  0
   57.7220   32.6710   46.3560 C   0  0  0  0  0  0  0  0  0  0  0  0
   58.6610   33.6990   46.5360 C   0  0  0  0  0  0  0  0  0  0  0  0
   58.9730   34.2160   47.9280 C   0  0  0  0  0  0  0  0  0  0  0  0
   60.1890   33.6500   48.5810 N   0  0  0  0  0  0  0  0  0  0  0  0
   59.9510   32.5940   49.5810 C   0  0  0  0  0  0  0  0  0  0  0  0
   59.5530   31.2520   48.9640 C   0  0  0  0  0  0  0  0  0  0  0  0
   60.1480   31.0110   47.6360 N   0  0  0  0  0  0  0  0  0  0  0  0
   59.7760   29.8150   46.8920 C   0  0  0  0  0  0  0  0  0  0  0  0
   58.8090   28.9090   47.3890 C   0  0  0  0  0  0  0  0  0  0  0  0
   58.4130   27.7960   46.6410 C   0  0  0  0  0  0  0  0  0  0  0  0
   58.9850   27.5520   45.3920 C   0  0  0  0  0  0  0  0  0  0  0  0
   58.5890   26.4770   44.6660 F   0  0  0  0  0  0  0  0  0  0  0  0
   59.9600   28.4160   44.8930 C   0  0  0  0  0  0  0  0  0  0  0  0
   60.3550   29.5340   45.6320 C   0  0  0  0  0  0  0  0  0  0  0  0
   61.2460   31.8520   47.1210 C   0  0  0  0  0  0  0  0  0  0  0  0
   61.2950   33.2950   47.6720 C   0  0  0  0  0  0  0  0  0  0  0  0
   59.2240   34.3070   45.4030 C   0  0  0  0  0  0  0  0  0  0  0  0
   58.9470   33.8190   44.1260 C   0  0  0  0  0  0  0  0  0  0  0  0
   58.0750   32.7340   43.9530 C   0  0  0  0  0  0  0  0  0  0  0  0
   57.7950   32.2090   42.5730 C   0  0  0  0  0  0  0  0  0  0  0  0
   57.0641   29.1315   45.1267 H   0  0  0  0  0  0  0  0  0  0  0  0
   56.0385   29.4826   43.6945 H   0  0  0  0  0  0  0  0  0  0  0  0
   57.7722   29.9524   43.6945 H   0  0  0  0  0  0  0  0  0  0  0  0
   57.2051   32.2497   47.2309 H   0  0  0  0  0  0  0  0  0  0  0  0
   59.1045   35.3060   47.8600 H   0  0  0  0  0  0  0  0  0  0  0  0
   58.1267   33.9017   48.5565 H   0  0  0  0  0  0  0  0  0  0  0  0
   60.5560   34.4560   49.1450 H   0  0  0  0  0  0  0  0  0  0  0  0
   60.8734   32.4504   50.1629 H   0  0  0  0  0  0  0  0  0  0  0  0
   59.1107   32.9248   50.2090 H   0  0  0  0  0  0  0  0  0  0  0  0
   59.8778   30.4483   49.6412 H   0  0  0  0  0  0  0  0  0  0  0  0
   58.4615   31.2710   48.8289 H   0  0  0  0  0  0  0  0  0  0  0  0
   58.3621   29.0831   48.3789 H   0  0  0  0  0  0  0  0  0  0  0  0
   57.6490   27.1114   47.0380 H   0  0  0  0  0  0  0  0  0  0  0  0
   60.4196   28.2163   43.9138 H   0  0  0  0  0  0  0  0  0  0  0  0
   61.1272   30.2054   45.2284 H   0  0  0  0  0  0  0  0  0  0  0  0
   62.1968   31.3602   47.3744 H   0  0  0  0  0  0  0  0  0  0  0  0
   61.0703   31.9481   46.0394 H   0  0  0  0  0  0  0  0  0  0  0  0
   62.2409   33.4199   48.2195 H   0  0  0  0  0  0  0  0  0  0  0  0
   61.2050   33.9612   46.8013 H   0  0  0  0  0  0  0  0  0  0  0  0
   59.8888   35.1751   45.5231 H   0  0  0  0  0  0  0  0  0  0  0  0
   59.4157   34.2883   43.2484 H   0  0  0  0  0  0  0  0  0  0  0  0
   57.2785   31.2406   42.6469 H   0  0  0  0  0  0  0  0  0  0  0  0
   57.1583   32.9237   42.0310 H   0  0  0  0  0  0  0  0  0  0  0  0
   58.7432   32.0784   42.0310 H   0  0  0  0  0  0  0  0  0  0  0  0
  1  2  1  0
  2  3  1  0
  3  4  2  0
  4  5  1  0
  5  6  1  0
  6  7  1  0
  7  8  1  0
  8  9  1  0
  9 10  1  0
 10 11  1  0
 11 12  2  0
 12 13  1  0
 13 14  2  0
 14 15  1  0
 14 16  1  0
 16 17  2  0
 10 18  1  0
 18 19  1  0
  5 20  2  0
 20 21  1  0
 21 22  2  0
 22 23  1  0
 22  3  1  0
 19  7  1  0
 17 11  1  0
  1 24  1  0
  1 25  1  0
  1 26  1  0
  4 27  1  0
  6 28  1  0
  6 29  1  0
  7 30  1  0
  8 31  1  0
  8 32  1  0
  9 33  1  0
  9 34  1  0
 12 35  1  0
 13 36  1  0
 16 37  1  0
 17 38  1  0
 18 39  1  0
 18 40  1  0
 19 41  1  0
 19 42  1  0
 20 43  1  0
 21 44  1  0
 23 45  1  0
 23 46  1  0
 23 47  1  0
M  CHG  1   7   1
M  END
>  <UniqueID>  (37) 
36

>  <SMILES>  (37) 
COc1cc(C[NH+]2CCN(c3ccc(F)cc3)CC2)ccc1C

>  <Energy>  (37) 
64.42281744903109

>  <Genealogy>  (37) 
COc1cc(C[NH+]2CCN(c3ccc(F)cc3)CC2)ccc1C (protonated)
COc1cc(C[NH+]2CCN(c3ccc(F)cc3)CC2)ccc1C (3D coordinates assigned)
COc1cc(C[NH+]2CCN(c3ccc(F)cc3)CC2)ccc1C (nonaromatic ring conformer: 64.42281744903109 kcal/mol)

>  <smiles>  (37) 
COc1cc(CN2CCN(c3ccc(F)cc3)CC2)ccc1C

>  <score_type>  (37) 
oracle

>  <origin>  (37) 
adg

>  <m_score__min__energy>  (37) 
-5.7000000000000002

>  <m_primary>  (37) 
energy

$$$$
