0:0
     RDKit          3D

 55 58  0  0  0  0  0  0  0  0999 V2000
   60.0130   34.5900   47.8760 C   0  0  0  0  0  0  0  0  0  0  0  0
   59.1640   33.5850   48.0770 C   0  0  0  0  0  0  0  0  0  0  0  0
   58.5750   32.8140   46.9680 C   0  0  0  0  0  0  0  0  0  0  0  0
   57.8920   33.4230   45.9210 C   0  0  0  0  0  0  0  0  0  0  0  0
   57.3810   32.2140   44.8730 S   0  0  0  0  0  0  0  0  0  0  0  0
   58.0480   30.9650   45.7890 C   0  0  0  0  0  0  0  0  0  0  0  0
   57.9900   29.5220   45.4620 C   0  0  0  0  0  0  0  0  0  0  0  0
   58.0020   28.5650   46.4900 C   0  0  0  0  0  0  0  0  0  0  0  0
   57.9480   27.2000   46.1930 C   0  0  0  0  0  0  0  0  0  0  0  0
   57.8790   26.7610   44.8600 C   0  0  0  0  0  0  0  0  0  0  0  0
   57.8180   25.3110   44.5450 C   0  0  0  0  0  0  0  0  0  0  0  0
   58.5800   24.3860   45.2800 C   0  0  0  0  0  0  0  0  0  0  0  0
   58.5250   23.0220   44.9780 C   0  0  0  0  0  0  0  0  0  0  0  0
   57.7090   22.5570   43.9360 C   0  0  0  0  0  0  0  0  0  0  0  0
   57.6640   21.0830   43.6060 C   0  0  0  0  0  0  0  0  0  0  0  0
   57.3690   20.2550   44.7910 N   0  0  0  0  0  0  0  0  0  0  0  0
   55.9870   20.4140   45.2840 C   0  0  0  0  0  0  0  0  0  0  0  0
   55.8430   21.6090   46.2030 C   0  0  0  0  0  0  0  0  0  0  0  0
   54.8850   22.5950   45.9190 C   0  0  0  0  0  0  0  0  0  0  0  0
   54.7510   23.7130   46.7440 C   0  0  0  0  0  0  0  0  0  0  0  0
   55.5710   23.8570   47.8630 C   0  0  0  0  0  0  0  0  0  0  0  0
   56.5240   22.8820   48.1640 C   0  0  0  0  0  0  0  0  0  0  0  0
   56.6680   21.7470   47.3410 C   0  0  0  0  0  0  0  0  0  0  0  0
   57.6110   20.7440   47.6250 O   0  0  0  0  0  0  0  0  0  0  0  0
   57.5350   19.8500   48.7290 C   0  0  0  0  0  0  0  0  0  0  0  0
   56.9400   23.4760   43.2060 C   0  0  0  0  0  0  0  0  0  0  0  0
   56.9960   24.8400   43.5050 C   0  0  0  0  0  0  0  0  0  0  0  0
   57.8670   27.7190   43.8310 C   0  0  0  0  0  0  0  0  0  0  0  0
   57.9220   29.0830   44.1280 C   0  0  0  0  0  0  0  0  0  0  0  0
   58.6590   31.4570   46.8910 N   0  0  0  0  0  0  0  0  0  0  0  0
   60.4288   35.1387   48.7339 H   0  0  0  0  0  0  0  0  0  0  0  0
   60.2989   34.8720   46.8519 H   0  0  0  0  0  0  0  0  0  0  0  0
   58.8919   33.3201   49.1094 H   0  0  0  0  0  0  0  0  0  0  0  0
   57.7177   34.5024   45.8007 H   0  0  0  0  0  0  0  0  0  0  0  0
   58.0544   28.8927   47.5388 H   0  0  0  0  0  0  0  0  0  0  0  0
   57.9596   26.4633   47.0098 H   0  0  0  0  0  0  0  0  0  0  0  0
   59.2244   24.7381   46.0990 H   0  0  0  0  0  0  0  0  0  0  0  0
   59.1256   22.3087   45.5614 H   0  0  0  0  0  0  0  0  0  0  0  0
   56.8820   20.9127   42.8514 H   0  0  0  0  0  0  0  0  0  0  0  0
   58.6552   20.7912   43.2286 H   0  0  0  0  0  0  0  0  0  0  0  0
   57.5300   19.2470   44.5630 H   0  0  0  0  0  0  0  0  0  0  0  0
   58.0450   20.5060   45.5490 H   0  0  0  0  0  0  0  0  0  0  0  0
   55.3163   20.5466   44.4223 H   0  0  0  0  0  0  0  0  0  0  0  0
   55.7267   19.5125   45.8580 H   0  0  0  0  0  0  0  0  0  0  0  0
   54.2344   22.4857   45.0388 H   0  0  0  0  0  0  0  0  0  0  0  0
   53.9984   24.4808   46.5115 H   0  0  0  0  0  0  0  0  0  0  0  0
   55.4667   24.7406   48.5098 H   0  0  0  0  0  0  0  0  0  0  0  0
   57.1664   23.0005   49.0490 H   0  0  0  0  0  0  0  0  0  0  0  0
   57.5836   20.4215   49.6676 H   0  0  0  0  0  0  0  0  0  0  0  0
   56.5864   19.2947   48.6865 H   0  0  0  0  0  0  0  0  0  0  0  0
   58.3762   19.1425   48.6865 H   0  0  0  0  0  0  0  0  0  0  0  0
   56.2892   23.1207   42.3935 H   0  0  0  0  0  0  0  0  0  0  0  0
   56.3923   25.5513   42.9223 H   0  0  0  0  0  0  0  0  0  0  0  0
   57.8138   27.3915   42.7822 H   0  0  0  0  0  0  0  0  0  0  0  0
   57.9120   29.8198   43.3113 H   0  0  0  0  0  0  0  0  0  0  0  0
  1  2  2  0
  2  3  1  0
  3  4  2  0
  4  5  1  0
  5  6  1  0
  6  7  1  0
  7  8  2  0
  8  9  1  0
  9 10  2  0
 10 11  1  0
 11 12  2  0
 12 13  1  0
 13 14  2  0
 14 15  1  0
 15 16  1  0
 16 17  1  0
 17 18  1  0
 18 19  2  0
 19 20  1  0
 20 21  2  0
 21 22  1  0
 22 23  2  0
 23 24  1  0
 24 25  1  0
 14 26  1  0
 26 27  2  0
 10 28  1  0
 28 29  2  0
  6 30  2  0
 30  3  1  0
 29  7  1  0
 27 11  1  0
 23 18  1  0
  1 31  1  0
  1 32  1  0
  2 33  1  0
  4 34  1  0
  8 35  1  0
  9 36  1  0
 12 37  1  0
 13 38  1  0
 15 39  1  0
 15 40  1  0
 16 41  1  0
 16 42  1  0
 17 43  1  0
 17 44  1  0
 19 45  1  0
 20 46  1  0
 21 47  1  0
 22 48  1  0
 25 49  1  0
 25 50  1  0
 25 51  1  0
 26 52  1  0
 27 53  1  0
 28 54  1  0
 29 55  1  0
M  CHG  1  16   1
M  END
>  <UniqueID>  (1) 
1

>  <SMILES>  (1) 
C=Cc1csc(-c2ccc(-c3ccc(C[NH2+]Cc4ccccc4OC)cc3)cc2)n1

>  <Energy>  (1) 
93.28500042723579

>  <Genealogy>  (1) 
C=Cc1csc(-c2ccc(-c3ccc(C[NH2+]Cc4ccccc4OC)cc3)cc2)n1 (protonated)
C=Cc1csc(-c2ccc(-c3ccc(C[NH2+]Cc4ccccc4OC)cc3)cc2)n1 (3D coordinates assigned)
C=Cc1csc(-c2ccc(-c3ccc(C[NH2+]Cc4ccccc4OC)cc3)cc2)n1 (optimized conformer: 93.28500042723579 kcal/mol)

>  <smiles>  (1) 
C=Cc1csc(-c2ccc(-c3ccc(CNCc4ccccc4OC)cc3)cc2)n1

>  <score_type>  (1) 
oracle

>  <origin>  (1) 
adg

>  <m_score__min__energy>  (1) 
-6.5800000000000001

>  <m_primary>  (1) 
energy

$$$$
1:0
     RDKit          3D

 36 38  0  0  0  0  0  0  0  0999 V2000
   65.0200   33.4560   50.4210 C   0  0  0  0  0  0  0  0  0  0  0  0
   63.7940   33.2990   49.5700 C   0  0  0  0  0  0  0  0  0  0  0  0
   62.6730   34.1100   49.7930 C   0  0  0  0  0  0  0  0  0  0  0  0
   61.5430   33.9900   48.9780 C   0  0  0  0  0  0  0  0  0  0  0  0
   61.5200   33.0680   47.9160 C   0  0  0  0  0  0  0  0  0  0  0  0
   60.3220   32.9410   47.0490 C   0  0  0  0  0  0  0  0  0  0  0  0
   59.9310   31.8120   46.3440 C   0  0  0  0  0  0  0  0  0  0  0  0
   58.7700   32.1850   45.6880 C   0  0  0  0  0  0  0  0  0  0  0  0
   57.9790   31.3090   44.7960 C   0  0  0  0  0  0  0  0  0  0  0  0
   57.4050   30.1190   45.2760 C   0  0  0  0  0  0  0  0  0  0  0  0
   56.6460   29.3090   44.4260 C   0  0  0  0  0  0  0  0  0  0  0  0
   56.4440   29.6830   43.0960 C   0  0  0  0  0  0  0  0  0  0  0  0
   56.9940   30.8740   42.6150 C   0  0  0  0  0  0  0  0  0  0  0  0
   57.7540   31.6870   43.4610 C   0  0  0  0  0  0  0  0  0  0  0  0
   58.4810   33.4660   46.0160 N   0  0  0  0  0  0  0  0  0  0  0  0
   57.3240   34.2560   45.6040 C   0  0  0  0  0  0  0  0  0  0  0  0
   59.4230   33.9230   46.8260 N   0  0  0  0  0  0  0  0  0  0  0  0
   62.6580   32.2730   47.6850 C   0  0  0  0  0  0  0  0  0  0  0  0
   63.7860   32.3920   48.5030 C   0  0  0  0  0  0  0  0  0  0  0  0
   64.7362   33.4197   51.4831 H   0  0  0  0  0  0  0  0  0  0  0  0
   65.7253   32.6408   50.2018 H   0  0  0  0  0  0  0  0  0  0  0  0
   65.4972   34.4226   50.2018 H   0  0  0  0  0  0  0  0  0  0  0  0
   62.6820   34.8439   50.6124 H   0  0  0  0  0  0  0  0  0  0  0  0
   60.6637   34.6227   49.1693 H   0  0  0  0  0  0  0  0  0  0  0  0
   60.4335   30.8340   46.3129 H   0  0  0  0  0  0  0  0  0  0  0  0
   57.5537   29.8237   46.3252 H   0  0  0  0  0  0  0  0  0  0  0  0
   56.2069   28.3748   44.8060 H   0  0  0  0  0  0  0  0  0  0  0  0
   55.8523   29.0405   42.4274 H   0  0  0  0  0  0  0  0  0  0  0  0
   56.8287   31.1723   41.5692 H   0  0  0  0  0  0  0  0  0  0  0  0
   58.1782   32.6276   43.0799 H   0  0  0  0  0  0  0  0  0  0  0  0
   56.7919   34.6194   46.4955 H   0  0  0  0  0  0  0  0  0  0  0  0
   57.6608   35.1136   45.0031 H   0  0  0  0  0  0  0  0  0  0  0  0
   56.6479   33.6301   45.0031 H   0  0  0  0  0  0  0  0  0  0  0  0
   59.4260   34.8820   47.2410 H   0  0  0  0  0  0  0  0  0  0  0  0
   62.6603   31.5521   46.8542 H   0  0  0  0  0  0  0  0  0  0  0  0
   64.6718   31.7698   48.3073 H   0  0  0  0  0  0  0  0  0  0  0  0
  1  2  1  0
  2  3  2  0
  3  4  1  0
  4  5  2  0
  5  6  1  0
  6  7  1  0
  7  8  2  0
  8  9  1  0
  9 10  2  0
 10 11  1  0
 11 12  2  0
 12 13  1  0
 13 14  2  0
  8 15  1  0
 15 16  1  0
 15 17  1  0
  5 18  1  0
 18 19  2  0
 19  2  1  0
 17  6  2  0
 14  9  1  0
  1 20  1  0
  1 21  1  0
  1 22  1  0
  3 23  1  0
  4 24  1  0
  7 25  1  0
 10 26  1  0
 11 27  1  0
 12 28  1  0
 13 29  1  0
 14 30  1  0
 16 31  1  0
 16 32  1  0
 16 33  1  0
 17 34  1  0
 18 35  1  0
 19 36  1  0
M  CHG  1  17   1
M  END
>  <UniqueID>  (2) 
2

>  <SMILES>  (2) 
Cc1ccc(-c2cc(-c3ccccc3)n(C)[nH+]2)cc1

>  <Energy>  (2) 
74.94039478128141

>  <Genealogy>  (2) 
Cc1ccc(-c2cc(-c3ccccc3)n(C)[nH+]2)cc1 (protonated)
Cc1ccc(-c2cc(-c3ccccc3)n(C)[nH+]2)cc1 (3D coordinates assigned)
Cc1ccc(-c2cc(-c3ccccc3)n(C)[nH+]2)cc1 (optimized conformer: 74.94039478128141 kcal/mol)

>  <smiles>  (2) 
Cc1ccc(-c2cc(-c3ccccc3)n(C)n2)cc1

>  <score_type>  (2) 
oracle

>  <origin>  (2) 
adg

>  <m_score__min__energy>  (2) 
-5.7400000000000002

>  <m_primary>  (2) 
energy

$$$$
2:0
     RDKit          3D

 60 62  0  0  0  0  0  0  0  0999 V2000
   63.3740   33.6680   46.7180 C   0  0  0  0  0  0  0  0  0  0  0  0
   63.6700   32.5200   47.6790 C   0  0  0  0  0  0  0  0  0  0  0  0
   63.9490   33.0480   49.0350 N   0  0  0  0  0  0  0  0  0  0  0  0
   64.9510   32.2130   49.7380 C   0  0  0  0  0  0  0  0  0  0  0  0
   66.1800   33.0350   50.1320 C   0  0  0  0  0  0  0  0  0  0  0  0
   62.7000   33.1450   49.8310 C   0  0  0  0  0  0  0  0  0  0  0  0
   62.1500   34.5760   49.8240 C   0  0  0  0  0  0  0  0  0  0  0  0
   60.7440   34.5760   49.5640 O   0  0  0  0  0  0  0  0  0  0  0  0
   60.1200   33.9660   48.4650 C   0  0  0  0  0  0  0  0  0  0  0  0
   60.1050   34.5490   47.1870 C   0  0  0  0  0  0  0  0  0  0  0  0
   59.5080   33.8850   46.1130 C   0  0  0  0  0  0  0  0  0  0  0  0
   58.8880   32.6360   46.2990 C   0  0  0  0  0  0  0  0  0  0  0  0
   58.2820   31.9350   45.1390 C   0  0  0  0  0  0  0  0  0  0  0  0
   57.8190   32.6250   44.0070 C   0  0  0  0  0  0  0  0  0  0  0  0
   57.2670   31.9310   42.9770 N   0  0  0  0  0  0  0  0  0  0  0  0
   57.1610   30.5760   43.0120 C   0  0  0  0  0  0  0  0  0  0  0  0
   57.6400   29.8710   44.1280 C   0  0  0  0  0  0  0  0  0  0  0  0
   57.5550   28.3910   44.2260 C   0  0  0  0  0  0  0  0  0  0  0  0
   57.2020   27.7900   45.4450 C   0  0  0  0  0  0  0  0  0  0  0  0
   57.1230   26.4000   45.5600 C   0  0  0  0  0  0  0  0  0  0  0  0
   57.4020   25.5660   44.4580 C   0  0  0  0  0  0  0  0  0  0  0  0
   57.3190   24.1210   44.5770 N   0  0  0  0  0  0  0  0  0  0  0  0
   56.4870   23.3420   43.6520 C   0  0  0  0  0  0  0  0  0  0  0  0
   58.0670   23.4150   45.6240 C   0  0  0  0  0  0  0  0  0  0  0  0
   57.7670   26.1730   43.2400 C   0  0  0  0  0  0  0  0  0  0  0  0
   57.8450   27.5640   43.1260 C   0  0  0  0  0  0  0  0  0  0  0  0
   58.1810   30.5780   45.1570 N   0  0  0  0  0  0  0  0  0  0  0  0
   58.8840   32.0680   47.5870 C   0  0  0  0  0  0  0  0  0  0  0  0
   59.4860   32.7340   48.6590 C   0  0  0  0  0  0  0  0  0  0  0  0
   59.4870   32.1580   49.8870 F   0  0  0  0  0  0  0  0  0  0  0  0
   63.1398   34.5762   47.2928 H   0  0  0  0  0  0  0  0  0  0  0  0
   64.2541   33.8519   46.0843 H   0  0  0  0  0  0  0  0  0  0  0  0
   62.5147   33.4034   46.0843 H   0  0  0  0  0  0  0  0  0  0  0  0
   62.7997   31.8486   47.7223 H   0  0  0  0  0  0  0  0  0  0  0  0
   64.5515   31.9688   47.3196 H   0  0  0  0  0  0  0  0  0  0  0  0
   64.4941   31.7933   50.6464 H   0  0  0  0  0  0  0  0  0  0  0  0
   65.2729   31.4102   49.0584 H   0  0  0  0  0  0  0  0  0  0  0  0
   66.2525   33.0835   51.2285 H   0  0  0  0  0  0  0  0  0  0  0  0
   67.0848   32.5597   49.7254 H   0  0  0  0  0  0  0  0  0  0  0  0
   66.0862   34.0528   49.7254 H   0  0  0  0  0  0  0  0  0  0  0  0
   61.9466   32.4686   49.4010 H   0  0  0  0  0  0  0  0  0  0  0  0
   62.9254   32.8627   50.8700 H   0  0  0  0  0  0  0  0  0  0  0  0
   62.3359   35.0390   50.8043 H   0  0  0  0  0  0  0  0  0  0  0  0
   62.6563   35.1455   49.0307 H   0  0  0  0  0  0  0  0  0  0  0  0
   60.5666   35.5352   47.0311 H   0  0  0  0  0  0  0  0  0  0  0  0
   59.5228   34.3427   45.1129 H   0  0  0  0  0  0  0  0  0  0  0  0
   57.9026   33.7205   43.9542 H   0  0  0  0  0  0  0  0  0  0  0  0
   56.9160   32.4490   42.1410 H   0  0  0  0  0  0  0  0  0  0  0  0
   56.7027   30.0351   42.1710 H   0  0  0  0  0  0  0  0  0  0  0  0
   56.9852   28.4210   46.3195 H   0  0  0  0  0  0  0  0  0  0  0  0
   56.8394   25.9503   46.5230 H   0  0  0  0  0  0  0  0  0  0  0  0
   55.8021   22.7007   44.2262 H   0  0  0  0  0  0  0  0  0  0  0  0
   55.9038   24.0264   43.0183 H   0  0  0  0  0  0  0  0  0  0  0  0
   57.1316   22.7151   43.0183 H   0  0  0  0  0  0  0  0  0  0  0  0
   57.7158   23.7464   46.6124 H   0  0  0  0  0  0  0  0  0  0  0  0
   57.9064   22.3316   45.5222 H   0  0  0  0  0  0  0  0  0  0  0  0
   59.1394   23.6379   45.5222 H   0  0  0  0  0  0  0  0  0  0  0  0
   57.9937   25.5436   42.3668 H   0  0  0  0  0  0  0  0  0  0  0  0
   58.1361   28.0163   42.1665 H   0  0  0  0  0  0  0  0  0  0  0  0
   58.4034   31.0923   47.7515 H   0  0  0  0  0  0  0  0  0  0  0  0
  1  2  1  0
  2  3  1  0
  3  4  1  0
  4  5  1  0
  3  6  1  0
  6  7  1  0
  7  8  1  0
  8  9  1  0
  9 10  2  0
 10 11  1  0
 11 12  2  0
 12 13  1  0
 13 14  2  0
 14 15  1  0
 15 16  2  0
 16 17  1  0
 17 18  1  0
 18 19  2  0
 19 20  1  0
 20 21  2  0
 21 22  1  0
 22 23  1  0
 22 24  1  0
 21 25  1  0
 25 26  2  0
 17 27  2  0
 12 28  1  0
 28 29  2  0
 29 30  1  0
 29  9  1  0
 27 13  1  0
 26 18  1  0
  1 31  1  0
  1 32  1  0
  1 33  1  0
  2 34  1  0
  2 35  1  0
  4 36  1  0
  4 37  1  0
  5 38  1  0
  5 39  1  0
  5 40  1  0
  6 41  1  0
  6 42  1  0
  7 43  1  0
  7 44  1  0
 10 45  1  0
 11 46  1  0
 14 47  1  0
 15 48  1  0
 16 49  1  0
 19 50  1  0
 20 51  1  0
 23 52  1  0
 23 53  1  0
 23 54  1  0
 24 55  1  0
 24 56  1  0
 24 57  1  0
 25 58  1  0
 26 59  1  0
 28 60  1  0
M  CHG  1  15   1
M  END
>  <UniqueID>  (3) 
3

>  <SMILES>  (3) 
CCN(CC)CCOc1ccc(-c2c[nH+]cc(-c3ccc(N(C)C)cc3)n2)cc1F

>  <Energy>  (3) 
68.58412974641591

>  <Genealogy>  (3) 
CCN(CC)CCOc1ccc(-c2c[nH+]cc(-c3ccc(N(C)C)cc3)n2)cc1F (protonated)
CCN(CC)CCOc1ccc(-c2c[nH+]cc(-c3ccc(N(C)C)cc3)n2)cc1F (3D coordinates assigned)
CCN(CC)CCOc1ccc(-c2c[nH+]cc(-c3ccc(N(C)C)cc3)n2)cc1F (optimized conformer: 68.58412974641591 kcal/mol)

>  <smiles>  (3) 
CCN(CC)CCOc1ccc(-c2cncc(-c3ccc(N(C)C)cc3)n2)cc1F

>  <score_type>  (3) 
oracle

>  <origin>  (3) 
adg

>  <m_score__min__energy>  (3) 
-5.79

>  <m_primary>  (3) 
energy

$$$$
3:0
     RDKit          3D

 40 41  0  0  1  0  0  0  0  0999 V2000
   56.2510   30.1740   42.9500 C   0  0  0  0  0  0  0  0  0  0  0  0
   55.5570   30.0550   44.2810 C   0  0  0  0  0  0  0  0  0  0  0  0
   56.4530   29.4410   45.2340 N   0  0  0  0  0  0  0  0  0  0  0  0
   57.7210   29.2010   44.5520 C   0  0  0  0  0  0  0  0  0  0  0  0
   58.8120   29.1650   45.6150 C   0  0  0  0  0  0  0  0  0  0  0  0
   58.5230   30.1620   46.6000 N   0  0  0  0  0  0  0  0  0  0  0  0
   58.7630   31.3920   46.4000 C   0  0  0  0  0  0  0  0  0  0  0  0
   57.8030   32.1600   45.7820 C   0  0  0  0  0  0  0  0  0  0  0  0
   58.0500   33.4960   45.5320 C   0  0  0  0  0  0  0  0  0  0  0  0
   57.0540   34.3900   44.8700 C   0  0  0  0  0  0  0  0  0  0  0  0
   59.2500   33.9780   45.9210 N   0  0  0  0  0  0  0  0  0  0  0  0
   60.1850   33.2140   46.5280 C   0  0  0  0  0  0  0  0  0  0  0  0
   61.3620   33.7960   46.8680 N   0  0  0  0  0  0  0  0  0  0  0  0
   62.3240   33.0800   47.4630 C   0  0  0  0  0  0  0  0  0  0  0  0
   63.6040   33.6970   47.8230 C   0  0  0  0  0  0  0  0  0  0  0  0
   62.0870   31.7620   47.7140 C   0  0  0  0  0  0  0  0  0  0  0  0
   60.9020   31.1330   47.3830 C   0  0  0  0  0  0  0  0  0  0  0  0
   60.6550   29.7090   47.6710 C   0  0  0  0  0  0  0  0  0  0  0  0
   59.9680   31.8980   46.7840 N   0  0  0  0  0  0  0  0  0  0  0  0
   57.3235   30.3579   43.1109 H   0  0  0  0  0  0  0  0  0  0  0  0
   56.1200   29.2403   42.3834 H   0  0  0  0  0  0  0  0  0  0  0  0
   55.8164   31.0107   42.3834 H   0  0  0  0  0  0  0  0  0  0  0  0
   55.2715   31.0558   44.6372 H   0  0  0  0  0  0  0  0  0  0  0  0
   54.6546   29.4355   44.1718 H   0  0  0  0  0  0  0  0  0  0  0  0
   56.6690   30.1000   46.0310 H   0  0  0  0  0  0  0  0  0  0  0  0
   57.6845   28.2398   44.0183 H   0  0  0  0  0  0  0  0  0  0  0  0
   57.9220   29.9940   43.8166 H   0  0  0  0  0  0  0  0  0  0  0  0
   58.8355   28.1723   46.0883 H   0  0  0  0  0  0  0  0  0  0  0  0
   59.7913   29.3639   45.1552 H   0  0  0  0  0  0  0  0  0  0  0  0
   56.8424   31.7118   45.4881 H   0  0  0  0  0  0  0  0  0  0  0  0
   56.4672   34.9167   45.6370 H   0  0  0  0  0  0  0  0  0  0  0  0
   57.5804   35.1244   44.2426 H   0  0  0  0  0  0  0  0  0  0  0  0
   56.3806   33.7876   44.2426 H   0  0  0  0  0  0  0  0  0  0  0  0
   63.6947   33.7407   48.9184 H   0  0  0  0  0  0  0  0  0  0  0  0
   64.4289   33.0976   47.4104 H   0  0  0  0  0  0  0  0  0  0  0  0
   63.6489   34.7157   47.4104 H   0  0  0  0  0  0  0  0  0  0  0  0
   62.8756   31.1712   48.2029 H   0  0  0  0  0  0  0  0  0  0  0  0
   60.6282   29.5544   48.7598 H   0  0  0  0  0  0  0  0  0  0  0  0
   59.6913   29.4083   47.2341 H   0  0  0  0  0  0  0  0  0  0  0  0
   61.4612   29.1013   47.2341 H   0  0  0  0  0  0  0  0  0  0  0  0
  1  2  1  0
  2  3  1  0
  3  4  1  0
  4  5  1  0
  5  6  1  0
  6  7  2  0
  7  8  1  0
  8  9  2  0
  9 10  1  0
  9 11  1  0
 11 12  2  0
 12 13  1  0
 13 14  2  0
 14 15  1  0
 14 16  1  0
 16 17  2  0
 17 18  1  0
 17 19  1  0
 19  7  1  0
 19 12  1  0
  1 20  1  0
  1 21  1  0
  1 22  1  0
  2 23  1  0
  2 24  1  0
  3 25  1  0
  4 26  1  0
  4 27  1  0
  5 28  1  0
  5 29  1  0
  8 30  1  0
 10 31  1  0
 10 32  1  0
 10 33  1  0
 15 34  1  0
 15 35  1  0
 15 36  1  0
 16 37  1  0
 18 38  1  0
 18 39  1  0
 18 40  1  0
M  END
>  <smiles>  (4) 
CCNCCN=c1cc(C)nc2nc(C)cc(C)n12

>  <score_type>  (4) 
oracle

>  <origin>  (4) 
adg

>  <m_score__min__energy>  (4) 
-6.2699999999999996

>  <m_primary>  (4) 
energy

$$$$
4:0
     RDKit          3D

 33 34  0  0  0  0  0  0  0  0999 V2000
   55.5200   29.0100   44.8770 O   0  0  0  0  0  0  0  0  0  0  0  0
   56.4290   29.7890   44.4830 C   0  0  0  0  0  0  0  0  0  0  0  0
   57.7470   29.2150   44.0310 C   0  0  0  0  0  0  0  0  0  0  0  0
   58.0000   27.8420   44.6700 C   0  0  0  0  0  0  0  0  0  0  0  0
   59.3390   27.8090   45.3040 N   0  0  0  0  0  0  0  0  0  0  0  0
   60.1380   28.9950   44.9470 C   0  0  0  0  0  0  0  0  0  0  0  0
   59.9890   30.0250   46.0620 C   0  0  0  0  0  0  0  0  0  0  0  0
   59.2690   29.3100   47.1880 C   0  0  0  0  0  0  0  0  0  0  0  0
   59.2390   27.8530   46.7700 C   0  0  0  0  0  0  0  0  0  0  0  0
   56.1980   31.2020   44.5350 N   0  0  0  0  0  0  0  0  0  0  0  0
   57.1680   32.2100   44.8530 C   0  0  0  0  0  0  0  0  0  0  0  0
   57.3920   32.6100   46.1840 C   0  0  0  0  0  0  0  0  0  0  0  0
   58.3630   33.5710   46.4770 C   0  0  0  0  0  0  0  0  0  0  0  0
   59.1310   34.1260   45.4520 C   0  0  0  0  0  0  0  0  0  0  0  0
   58.9360   33.7150   44.1320 C   0  0  0  0  0  0  0  0  0  0  0  0
   57.9630   32.7540   43.8300 C   0  0  0  0  0  0  0  0  0  0  0  0
   57.7430   32.2540   42.1580 Cl  0  0  0  0  0  0  0  0  0  0  0  0
   57.7346   29.1052   42.9366 H   0  0  0  0  0  0  0  0  0  0  0  0
   58.5508   29.8986   44.3418 H   0  0  0  0  0  0  0  0  0  0  0  0
   57.2320   27.6501   45.4338 H   0  0  0  0  0  0  0  0  0  0  0  0
   57.9550   27.0696   43.8881 H   0  0  0  0  0  0  0  0  0  0  0  0
   61.1958   28.7127   44.8401 H   0  0  0  0  0  0  0  0  0  0  0  0
   59.7875   29.4154   43.9928 H   0  0  0  0  0  0  0  0  0  0  0  0
   60.9773   30.3720   46.3981 H   0  0  0  0  0  0  0  0  0  0  0  0
   59.4332   30.9119   45.7235 H   0  0  0  0  0  0  0  0  0  0  0  0
   59.8163   29.4297   48.1347 H   0  0  0  0  0  0  0  0  0  0  0  0
   58.2594   29.7133   47.3554 H   0  0  0  0  0  0  0  0  0  0  0  0
   60.0870   27.3161   47.2201 H   0  0  0  0  0  0  0  0  0  0  0  0
   58.3088   27.3731   47.1083 H   0  0  0  0  0  0  0  0  0  0  0  0
   56.8000   32.1641   46.9968 H   0  0  0  0  0  0  0  0  0  0  0  0
   58.5225   33.8908   47.5173 H   0  0  0  0  0  0  0  0  0  0  0  0
   59.8901   34.8874   45.6843 H   0  0  0  0  0  0  0  0  0  0  0  0
   59.5484   34.1472   43.3269 H   0  0  0  0  0  0  0  0  0  0  0  0
  1  2  2  0
  2  3  1  0
  3  4  1  0
  4  5  1  0
  5  6  1  0
  6  7  1  0
  7  8  1  0
  8  9  1  0
  2 10  1  0
 10 11  1  0
 11 12  2  0
 12 13  1  0
 13 14  2  0
 14 15  1  0
 15 16  2  0
 16 17  1  0
  9  5  1  0
 16 11  1  0
  3 18  1  0
  3 19  1  0
  4 20  1  0
  4 21  1  0
  6 22  1  0
  6 23  1  0
  7 24  1  0
  7 25  1  0
  8 26  1  0
  8 27  1  0
  9 28  1  0
  9 29  1  0
 12 30  1  0
 13 31  1  0
 14 32  1  0
 15 33  1  0
M  CHG  1  10  -1
M  END
>  <UniqueID>  (5) 
4

>  <SMILES>  (5) 
O=C(CCN1CCCC1)[N-]c1ccccc1Cl

>  <Energy>  (5) 
38.7837357431499

>  <Genealogy>  (5) 
O=C(CCN1CCCC1)[N-]c1ccccc1Cl (protonated)
O=C(CCN1CCCC1)[N-]c1ccccc1Cl (3D coordinates assigned)
O=C(CCN1CCCC1)[N-]c1ccccc1Cl (nonaromatic ring conformer: 38.7837357431499 kcal/mol)

>  <smiles>  (5) 
O=C(CCN1CCCC1)Nc1ccccc1Cl

>  <score_type>  (5) 
oracle

>  <origin>  (5) 
adg

>  <m_score__min__energy>  (5) 
-8.6999999999999993

>  <m_primary>  (5) 
energy

$$$$
5:0
     RDKit          3D

 65 67  0  0  0  0  0  0  0  0999 V2000
   57.3760   24.4720   43.6710 C   0  0  0  0  0  0  0  0  0  0  0  0
   56.3850   23.5230   42.9820 C   0  0  0  0  0  0  0  0  0  0  0  0
   56.2740   22.1760   43.6040 N   0  0  0  0  0  0  0  0  0  0  0  0
   57.5710   21.4780   43.7720 C   0  0  0  0  0  0  0  0  0  0  0  0
   58.1540   21.6750   45.1720 C   0  0  0  0  0  0  0  0  0  0  0  0
   55.5030   22.1700   44.8700 C   0  0  0  0  0  0  0  0  0  0  0  0
   54.4190   23.2680   44.8870 C   0  0  0  0  0  0  0  0  0  0  0  0
   54.2580   23.9100   46.2740 C   0  0  0  0  0  0  0  0  0  0  0  0
   55.5340   23.8950   46.9860 N   0  0  0  0  0  0  0  0  0  0  0  0
   56.4680   24.9760   46.8510 C   0  0  0  0  0  0  0  0  0  0  0  0
   57.7860   24.8030   47.2910 C   0  0  0  0  0  0  0  0  0  0  0  0
   58.7060   25.8500   47.2050 C   0  0  0  0  0  0  0  0  0  0  0  0
   58.3210   27.0850   46.6630 C   0  0  0  0  0  0  0  0  0  0  0  0
   59.2410   28.1430   46.5830 C   0  0  0  0  0  0  0  0  0  0  0  0
   58.8580   29.3790   46.0380 C   0  0  0  0  0  0  0  0  0  0  0  0
   59.7860   30.4690   45.9320 N   0  0  0  0  0  0  0  0  0  0  0  0
   59.8960   31.5150   46.9110 C   0  0  0  0  0  0  0  0  0  0  0  0
   59.1740   31.5070   47.9440 O   0  0  0  0  0  0  0  0  0  0  0  0
   60.8460   32.6570   46.6950 C   0  0  0  0  0  0  0  0  0  0  0  0
   60.2400   34.0270   47.1010 C   0  0  0  0  0  0  0  0  0  0  0  0
   59.0640   34.4710   46.3140 N   0  0  0  0  0  0  0  0  0  0  0  0
   59.1890   34.2910   44.8620 C   0  0  0  0  0  0  0  0  0  0  0  0
   58.1730   33.2440   44.4420 C   0  0  0  0  0  0  0  0  0  0  0  0
   57.1060   33.2850   45.5160 C   0  0  0  0  0  0  0  0  0  0  0  0
   57.7780   33.8970   46.7390 C   0  0  0  0  0  0  0  0  0  0  0  0
   57.5590   29.5380   45.5400 C   0  0  0  0  0  0  0  0  0  0  0  0
   56.6320   28.4970   45.6210 C   0  0  0  0  0  0  0  0  0  0  0  0
   57.0000   27.2620   46.1850 C   0  0  0  0  0  0  0  0  0  0  0  0
   56.0800   26.1990   46.2730 C   0  0  0  0  0  0  0  0  0  0  0  0
   54.7910   26.3450   45.7650 O   0  0  0  0  0  0  0  0  0  0  0  0
   57.2765   24.3767   44.7623 H   0  0  0  0  0  0  0  0  0  0  0  0
   58.4019   24.2109   43.3721 H   0  0  0  0  0  0  0  0  0  0  0  0
   57.1595   25.5083   43.3721 H   0  0  0  0  0  0  0  0  0  0  0  0
   55.3905   23.9926   43.0035 H   0  0  0  0  0  0  0  0  0  0  0  0
   56.7680   23.3625   41.9634 H   0  0  0  0  0  0  0  0  0  0  0  0
   57.4197   20.4023   43.5991 H   0  0  0  0  0  0  0  0  0  0  0  0
   58.2806   21.9033   43.0470 H   0  0  0  0  0  0  0  0  0  0  0  0
   57.3943   21.4183   45.9250 H   0  0  0  0  0  0  0  0  0  0  0  0
   59.0310   21.0233   45.2990 H   0  0  0  0  0  0  0  0  0  0  0  0
   58.4560   22.7251   45.2990 H   0  0  0  0  0  0  0  0  0  0  0  0
   55.0183   21.1895   44.9869 H   0  0  0  0  0  0  0  0  0  0  0  0
   56.2018   22.3671   45.6964 H   0  0  0  0  0  0  0  0  0  0  0  0
   54.6972   24.0504   44.1656 H   0  0  0  0  0  0  0  0  0  0  0  0
   53.4607   22.7977   44.6215 H   0  0  0  0  0  0  0  0  0  0  0  0
   53.9193   24.9499   46.1564 H   0  0  0  0  0  0  0  0  0  0  0  0
   53.5170   23.3378   46.8515 H   0  0  0  0  0  0  0  0  0  0  0  0
   55.5890   23.3080   47.8480 H   0  0  0  0  0  0  0  0  0  0  0  0
   58.0993   23.8344   47.7078 H   0  0  0  0  0  0  0  0  0  0  0  0
   59.7359   25.7057   47.5635 H   0  0  0  0  0  0  0  0  0  0  0  0
   60.2685   28.0025   46.9497 H   0  0  0  0  0  0  0  0  0  0  0  0
   60.2810   30.5960   45.0210 H   0  0  0  0  0  0  0  0  0  0  0  0
   61.7504   32.4806   47.2958 H   0  0  0  0  0  0  0  0  0  0  0  0
   61.0733   32.7005   45.6196 H   0  0  0  0  0  0  0  0  0  0  0  0
   59.9351   33.9619   48.1559 H   0  0  0  0  0  0  0  0  0  0  0  0
   61.0270   34.7709   46.9079 H   0  0  0  0  0  0  0  0  0  0  0  0
   58.9839   35.2410   44.3469 H   0  0  0  0  0  0  0  0  0  0  0  0
   60.2074   33.9699   44.5980 H   0  0  0  0  0  0  0  0  0  0  0  0
   57.7439   33.4928   43.4602 H   0  0  0  0  0  0  0  0  0  0  0  0
   58.6236   32.2454   44.3432 H   0  0  0  0  0  0  0  0  0  0  0  0
   56.2588   33.9073   45.1919 H   0  0  0  0  0  0  0  0  0  0  0  0
   56.7060   32.2830   45.7304 H   0  0  0  0  0  0  0  0  0  0  0  0
   57.1382   34.6865   47.1601 H   0  0  0  0  0  0  0  0  0  0  0  0
   57.9394   33.1289   47.5097 H   0  0  0  0  0  0  0  0  0  0  0  0
   57.2657   30.4932   45.0801 H   0  0  0  0  0  0  0  0  0  0  0  0
   55.6097   28.6432   45.2422 H   0  0  0  0  0  0  0  0  0  0  0  0
  1  2  1  0
  2  3  1  0
  3  4  1  0
  4  5  1  0
  3  6  1  0
  6  7  1  0
  7  8  1  0
  8  9  1  0
  9 10  1  0
 10 11  2  0
 11 12  1  0
 12 13  2  0
 13 14  1  0
 14 15  2  0
 15 16  1  0
 16 17  1  0
 17 18  2  0
 17 19  1  0
 19 20  1  0
 20 21  1  0
 21 22  1  0
 22 23  1  0
 23 24  1  0
 24 25  1  0
 15 26  1  0
 26 27  2  0
 27 28  1  0
 28 29  2  0
 29 30  1  0
 29 10  1  0
 28 13  1  0
 25 21  1  0
  1 31  1  0
  1 32  1  0
  1 33  1  0
  2 34  1  0
  2 35  1  0
  4 36  1  0
  4 37  1  0
  5 38  1  0
  5 39  1  0
  5 40  1  0
  6 41  1  0
  6 42  1  0
  7 43  1  0
  7 44  1  0
  8 45  1  0
  8 46  1  0
  9 47  1  0
 11 48  1  0
 12 49  1  0
 14 50  1  0
 16 51  1  0
 19 52  1  0
 19 53  1  0
 20 54  1  0
 20 55  1  0
 22 56  1  0
 22 57  1  0
 23 58  1  0
 23 59  1  0
 24 60  1  0
 24 61  1  0
 25 62  1  0
 25 63  1  0
 26 64  1  0
 27 65  1  0
M  CHG  1  30  -1
M  END
>  <UniqueID>  (6) 
5

>  <SMILES>  (6) 
CCN(CC)CCCNc1ccc2cc(NC(=O)CCN3CCCC3)ccc2c1[O-]

>  <Energy>  (6) 
83.3724119588875

>  <Genealogy>  (6) 
CCN(CC)CCCNc1ccc2cc(NC(=O)CCN3CCCC3)ccc2c1[O-] (protonated)
CCN(CC)CCCNc1ccc2cc(NC(=O)CCN3CCCC3)ccc2c1[O-] (3D coordinates assigned)
CCN(CC)CCCNc1ccc2cc(NC(=O)CCN3CCCC3)ccc2c1[O-] (nonaromatic ring conformer: 83.3724119588875 kcal/mol)

>  <smiles>  (6) 
CCN(CC)CCCNc1ccc2cc(NC(=O)CCN3CCCC3)ccc2c1O

>  <score_type>  (6) 
oracle

>  <origin>  (6) 
adg

>  <m_score__min__energy>  (6) 
-11.27

>  <m_primary>  (6) 
energy

$$$$
6:0
     RDKit          3D

 36 37  0  0  0  0  0  0  0  0999 V2000
   57.8030   27.1610   46.4020 C   0  0  0  0  0  0  0  0  0  0  0  0
   58.5500   28.3990   46.1090 N   0  0  2  0  0  0  0  0  0  0  0  0
   58.8140   28.5740   44.6540 C   0  0  0  0  0  0  0  0  0  0  0  0
   58.7740   30.0280   44.1210 C   0  0  0  0  0  0  0  0  0  0  0  0
   57.7480   30.8960   44.7950 C   0  0  0  0  0  0  0  0  0  0  0  0
   56.6370   30.3910   45.1120 O   0  0  0  0  0  0  0  0  0  0  0  0
   58.0050   32.3150   45.1040 C   0  0  0  0  0  0  0  0  0  0  0  0
   58.6130   33.2550   44.2770 C   0  0  0  0  0  0  0  0  0  0  0  0
   58.7130   34.5240   44.8620 C   0  0  0  0  0  0  0  0  0  0  0  0
   58.1920   34.5900   46.1470 C   0  0  0  0  0  0  0  0  0  0  0  0
   57.6070   33.0680   46.5550 S   0  0  0  0  0  0  0  0  0  0  0  0
   59.7800   28.5070   46.9330 C   0  0  0  0  0  0  0  0  0  0  0  0
   60.0050   29.9200   47.4200 C   0  0  0  0  0  0  0  0  0  0  0  0
   60.9230   30.7550   46.7630 C   0  0  0  0  0  0  0  0  0  0  0  0
   61.1170   32.0700   47.1970 C   0  0  0  0  0  0  0  0  0  0  0  0
   60.3910   32.5630   48.2860 C   0  0  0  0  0  0  0  0  0  0  0  0
   60.6340   34.2130   48.8280 Cl  0  0  0  0  0  0  0  0  0  0  0  0
   59.4690   31.7400   48.9410 C   0  0  0  0  0  0  0  0  0  0  0  0
   59.2740   30.4240   48.5090 C   0  0  0  0  0  0  0  0  0  0  0  0
   57.7238   27.0297   47.4913 H   0  0  0  0  0  0  0  0  0  0  0  0
   56.7951   27.2291   45.9666 H   0  0  0  0  0  0  0  0  0  0  0  0
   58.3331   26.3011   45.9666 H   0  0  0  0  0  0  0  0  0  0  0  0
   57.9210   29.1960   46.3720 H   0  0  0  0  0  0  0  0  0  0  0  0
   59.8138   28.1668   44.4431 H   0  0  0  0  0  0  0  0  0  0  0  0
   57.9939   28.0501   44.1412 H   0  0  0  0  0  0  0  0  0  0  0  0
   59.7649   30.4804   44.2742 H   0  0  0  0  0  0  0  0  0  0  0  0
   58.4955   29.9709   43.0584 H   0  0  0  0  0  0  0  0  0  0  0  0
   58.9784   33.0246   43.2654 H   0  0  0  0  0  0  0  0  0  0  0  0
   59.1626   35.3879   44.3506 H   0  0  0  0  0  0  0  0  0  0  0  0
   58.1664   35.4839   46.7875 H   0  0  0  0  0  0  0  0  0  0  0  0
   59.6856   27.8409   47.8033 H   0  0  0  0  0  0  0  0  0  0  0  0
   60.6379   28.2195   46.3074 H   0  0  0  0  0  0  0  0  0  0  0  0
   61.4922   30.3728   45.9028 H   0  0  0  0  0  0  0  0  0  0  0  0
   61.8415   32.7175   46.6813 H   0  0  0  0  0  0  0  0  0  0  0  0
   58.8968   32.1280   49.7966 H   0  0  0  0  0  0  0  0  0  0  0  0
   58.5452   29.7809   49.0240 H   0  0  0  0  0  0  0  0  0  0  0  0
  1  2  1  0
  2  3  1  0
  3  4  1  0
  4  5  1  0
  5  6  2  0
  5  7  1  0
  7  8  2  0
  8  9  1  0
  9 10  2  0
 10 11  1  0
  2 12  1  0
 12 13  1  0
 13 14  2  0
 14 15  1  0
 15 16  2  0
 16 17  1  0
 16 18  1  0
 18 19  2  0
 11  7  1  0
 19 13  1  0
  1 20  1  0
  1 21  1  0
  1 22  1  0
  2 23  1  1
  3 24  1  0
  3 25  1  0
  4 26  1  0
  4 27  1  0
  8 28  1  0
  9 29  1  0
 10 30  1  0
 12 31  1  0
 12 32  1  0
 14 33  1  0
 15 34  1  0
 18 35  1  0
 19 36  1  0
M  CHG  1   2   1
M  END
>  <UniqueID>  (7) 
6

>  <SMILES>  (7) 
C[N@H+](CCC(=O)c1cccs1)Cc1ccc(Cl)cc1

>  <Energy>  (7) 
65.3325737925466

>  <Genealogy>  (7) 
C[NH+](CCC(=O)c1cccs1)Cc1ccc(Cl)cc1 (protonated)
C[N@H+](CCC(=O)c1cccs1)Cc1ccc(Cl)cc1 (chirality)
C[N@H+](CCC(=O)c1cccs1)Cc1ccc(Cl)cc1 (3D coordinates assigned)
C[N@H+](CCC(=O)c1cccs1)Cc1ccc(Cl)cc1 (optimized conformer: 65.3325737925466 kcal/mol)

>  <smiles>  (7) 
CN(CCC(=O)c1cccs1)Cc1ccc(Cl)cc1

>  <score_type>  (7) 
oracle

>  <origin>  (7) 
adg

>  <m_score__min__energy>  (7) 
-5.7000000000000002

>  <m_primary>  (7) 
energy

$$$$
7:0
     RDKit          3D

 33 34  0  0  0  0  0  0  0  0999 V2000
   56.5420   29.9050   43.2440 C   0  0  0  0  0  0  0  0  0  0  0  0
   56.5910   30.1580   44.6450 O   0  0  0  0  0  0  0  0  0  0  0  0
   57.3860   31.1460   45.2440 C   0  0  0  0  0  0  0  0  0  0  0  0
   58.3250   30.7530   46.2050 C   0  0  0  0  0  0  0  0  0  0  0  0
   59.1390   31.7010   46.8310 C   0  0  0  0  0  0  0  0  0  0  0  0
   59.0210   33.0560   46.5050 C   0  0  0  0  0  0  0  0  0  0  0  0
   60.0390   34.2400   47.3150 S   0  0  0  0  0  0  0  0  0  0  0  0
   60.4600   35.2810   46.3170 O   0  0  0  0  0  0  0  0  0  0  0  0
   59.2930   34.9100   48.4340 O   0  0  0  0  0  0  0  0  0  0  0  0
   61.4400   33.4490   47.9660 N   0  0  0  0  0  0  0  0  0  0  0  0
   61.4860   32.8930   49.1640 N   0  0  0  0  0  0  0  0  0  0  0  0
   62.7260   32.4030   49.3570 C   0  0  0  0  0  0  0  0  0  0  0  0
   63.1550   31.6470   50.5700 C   0  0  0  0  0  0  0  0  0  0  0  0
   63.4950   32.6410   48.2310 C   0  0  0  0  0  0  0  0  0  0  0  0
   62.6420   33.3070   47.3690 C   0  0  0  0  0  0  0  0  0  0  0  0
   63.0130   33.8480   46.0230 C   0  0  0  0  0  0  0  0  0  0  0  0
   58.0850   33.4580   45.5420 C   0  0  0  0  0  0  0  0  0  0  0  0
   57.2710   32.5100   44.9140 C   0  0  0  0  0  0  0  0  0  0  0  0
   56.3354   28.8385   43.0710 H   0  0  0  0  0  0  0  0  0  0  0  0
   55.7446   30.5113   42.7896 H   0  0  0  0  0  0  0  0  0  0  0  0
   57.5081   30.1698   42.7896 H   0  0  0  0  0  0  0  0  0  0  0  0
   58.4229   29.6898   46.4695 H   0  0  0  0  0  0  0  0  0  0  0  0
   59.8752   31.3803   47.5828 H   0  0  0  0  0  0  0  0  0  0  0  0
   60.6880   32.8480   49.8360 H   0  0  0  0  0  0  0  0  0  0  0  0
   62.8444   32.1944   51.4721 H   0  0  0  0  0  0  0  0  0  0  0  0
   62.6873   30.6514   50.5660 H   0  0  0  0  0  0  0  0  0  0  0  0
   64.2496   31.5379   50.5660 H   0  0  0  0  0  0  0  0  0  0  0  0
   64.5457   32.3636   48.0603 H   0  0  0  0  0  0  0  0  0  0  0  0
   63.6311   34.7493   46.1477 H   0  0  0  0  0  0  0  0  0  0  0  0
   63.5809   33.0881   45.4662 H   0  0  0  0  0  0  0  0  0  0  0  0
   62.0995   34.1040   45.4662 H   0  0  0  0  0  0  0  0  0  0  0  0
   57.9905   34.5221   45.2796 H   0  0  0  0  0  0  0  0  0  0  0  0
   56.5380   32.8312   44.1593 H   0  0  0  0  0  0  0  0  0  0  0  0
  1  2  1  0
  2  3  1  0
  3  4  2  0
  4  5  1  0
  5  6  2  0
  6  7  1  0
  7  8  2  0
  7  9  2  0
  7 10  1  0
 10 11  1  0
 11 12  2  0
 12 13  1  0
 12 14  1  0
 14 15  2  0
 15 16  1  0
  6 17  1  0
 17 18  2  0
 18  3  1  0
 15 10  1  0
  1 19  1  0
  1 20  1  0
  1 21  1  0
  4 22  1  0
  5 23  1  0
 11 24  1  0
 13 25  1  0
 13 26  1  0
 13 27  1  0
 14 28  1  0
 16 29  1  0
 16 30  1  0
 16 31  1  0
 17 32  1  0
 18 33  1  0
M  CHG  1  11   1
M  END
>  <UniqueID>  (8) 
7

>  <SMILES>  (8) 
COc1ccc(S(=O)(=O)n2[nH+]c(C)cc2C)cc1

>  <Energy>  (8) 
61.806635304181015

>  <Genealogy>  (8) 
COc1ccc(S(=O)(=O)n2[nH+]c(C)cc2C)cc1 (protonated)
COc1ccc(S(=O)(=O)n2[nH+]c(C)cc2C)cc1 (3D coordinates assigned)
COc1ccc(S(=O)(=O)n2[nH+]c(C)cc2C)cc1 (optimized conformer: 61.806635304181015 kcal/mol)

>  <smiles>  (8) 
COc1ccc(S(=O)(=O)n2nc(C)cc2C)cc1

>  <score_type>  (8) 
oracle

>  <origin>  (8) 
adg

>  <m_score__min__energy>  (8) 
-5.3300000000000001

>  <m_primary>  (8) 
energy

$$$$
8:0
     RDKit          3D

 59 63  0  0  0  0  0  0  0  0999 V2000
   62.3290   34.1990   48.8050 C   0  0  0  0  0  0  0  0  0  0  0  0
   60.9800   34.6440   48.7130 O   0  0  0  0  0  0  0  0  0  0  0  0
   60.0730   34.2240   47.7290 C   0  0  0  0  0  0  0  0  0  0  0  0
   60.3830   34.4740   46.3880 C   0  0  0  0  0  0  0  0  0  0  0  0
   59.5120   34.0760   45.3700 C   0  0  0  0  0  0  0  0  0  0  0  0
   58.3100   33.4240   45.6830 C   0  0  0  0  0  0  0  0  0  0  0  0
   57.3880   32.9720   44.5790 C   0  0  0  0  0  0  0  0  0  0  0  0
   57.8720   31.7180   43.9630 N   0  0  0  0  0  0  0  0  0  0  0  0
   56.7600   30.9540   43.3430 C   0  0  0  0  0  0  0  0  0  0  0  0
   56.2760   29.8050   44.2400 C   0  0  0  0  0  0  0  0  0  0  0  0
   57.3570   28.8210   44.4960 N   0  0  0  0  0  0  0  0  0  0  0  0
   57.0920   28.0360   45.7200 C   0  0  0  0  0  0  0  0  0  0  0  0
   58.3770   27.5470   46.3400 C   0  0  0  0  0  0  0  0  0  0  0  0
   59.0450   26.4100   45.8420 C   0  0  0  0  0  0  0  0  0  0  0  0
   60.2550   25.9810   46.4220 C   0  0  0  0  0  0  0  0  0  0  0  0
   60.7980   26.6960   47.4970 C   0  0  0  0  0  0  0  0  0  0  0  0
   60.1280   27.7890   47.9430 N   0  0  0  0  0  0  0  0  0  0  0  0
   60.4340   28.6390   48.9320 C   0  0  0  0  0  0  0  0  0  0  0  0
   59.4230   29.5950   48.9740 C   0  0  0  0  0  0  0  0  0  0  0  0
   59.3300   30.7500   49.9000 C   0  0  0  0  0  0  0  0  0  0  0  0
   58.1030   31.0480   50.5260 C   0  0  0  0  0  0  0  0  0  0  0  0
   57.9980   32.1340   51.4000 C   0  0  0  0  0  0  0  0  0  0  0  0
   59.1110   32.9350   51.6600 C   0  0  0  0  0  0  0  0  0  0  0  0
   60.3330   32.6510   51.0470 C   0  0  0  0  0  0  0  0  0  0  0  0
   60.4450   31.5660   50.1720 C   0  0  0  0  0  0  0  0  0  0  0  0
   58.5000   29.3310   48.0160 N   0  0  0  0  0  0  0  0  0  0  0  0
   58.9720   28.2200   47.4140 C   0  0  0  0  0  0  0  0  0  0  0  0
   58.7100   29.4340   44.5270 C   0  0  0  0  0  0  0  0  0  0  0  0
   58.6670   30.9150   44.9270 C   0  0  0  0  0  0  0  0  0  0  0  0
   57.9970   33.1650   47.0270 C   0  0  0  0  0  0  0  0  0  0  0  0
   58.8690   33.5630   48.0430 C   0  0  0  0  0  0  0  0  0  0  0  0
   62.6128   34.1054   49.8636 H   0  0  0  0  0  0  0  0  0  0  0  0
   62.4269   33.2209   48.3112 H   0  0  0  0  0  0  0  0  0  0  0  0
   62.9897   34.9268   48.3112 H   0  0  0  0  0  0  0  0  0  0  0  0
   61.3210   34.9886   46.1324 H   0  0  0  0  0  0  0  0  0  0  0  0
   59.7700   34.2748   44.3193 H   0  0  0  0  0  0  0  0  0  0  0  0
   56.3839   32.8037   44.9955 H   0  0  0  0  0  0  0  0  0  0  0  0
   57.3590   33.7534   43.8054 H   0  0  0  0  0  0  0  0  0  0  0  0
   55.9189   31.6386   43.1592 H   0  0  0  0  0  0  0  0  0  0  0  0
   57.1320   30.5168   42.4047 H   0  0  0  0  0  0  0  0  0  0  0  0
   55.9362   30.2203   45.2003 H   0  0  0  0  0  0  0  0  0  0  0  0
   55.4540   29.2875   43.7237 H   0  0  0  0  0  0  0  0  0  0  0  0
   56.5615   28.6700   46.4456 H   0  0  0  0  0  0  0  0  0  0  0  0
   56.4800   27.1629   45.4495 H   0  0  0  0  0  0  0  0  0  0  0  0
   58.6184   25.8537   44.9944 H   0  0  0  0  0  0  0  0  0  0  0  0
   60.7700   25.0902   46.0331 H   0  0  0  0  0  0  0  0  0  0  0  0
   61.7413   26.3805   47.9668 H   0  0  0  0  0  0  0  0  0  0  0  0
   61.3166   28.5908   49.5867 H   0  0  0  0  0  0  0  0  0  0  0  0
   57.2214   30.4214   50.3254 H   0  0  0  0  0  0  0  0  0  0  0  0
   57.0359   32.3578   51.8840 H   0  0  0  0  0  0  0  0  0  0  0  0
   59.0256   33.7895   52.3474 H   0  0  0  0  0  0  0  0  0  0  0  0
   61.2099   33.2824   51.2529 H   0  0  0  0  0  0  0  0  0  0  0  0
   61.4109   31.3484   49.6928 H   0  0  0  0  0  0  0  0  0  0  0  0
   59.3293   28.8886   45.2543 H   0  0  0  0  0  0  0  0  0  0  0  0
   59.1326   29.3703   43.5134 H   0  0  0  0  0  0  0  0  0  0  0  0
   58.2125   31.0024   45.9249 H   0  0  0  0  0  0  0  0  0  0  0  0
   59.6970   31.3011   44.9298 H   0  0  0  0  0  0  0  0  0  0  0  0
   57.0608   32.6463   47.2810 H   0  0  0  0  0  0  0  0  0  0  0  0
   58.6144   33.3593   49.0936 H   0  0  0  0  0  0  0  0  0  0  0  0
  1  2  1  0
  2  3  1  0
  3  4  2  0
  4  5  1  0
  5  6  2  0
  6  7  1  0
  7  8  1  0
  8  9  1  0
  9 10  1  0
 10 11  1  0
 11 12  1  0
 12 13  1  0
 13 14  2  0
 14 15  1  0
 15 16  2  0
 16 17  1  0
 17 18  1  0
 18 19  2  0
 19 20  1  0
 20 21  2  0
 21 22  1  0
 22 23  2  0
 23 24  1  0
 24 25  2  0
 19 26  1  0
 26 27  2  0
 11 28  1  0
 28 29  1  0
  6 30  1  0
 30 31  2  0
 31  3  1  0
 29  8  1  0
 27 13  1  0
 27 17  1  0
 25 20  1  0
  1 32  1  0
  1 33  1  0
  1 34  1  0
  4 35  1  0
  5 36  1  0
  7 37  1  0
  7 38  1  0
  9 39  1  0
  9 40  1  0
 10 41  1  0
 10 42  1  0
 12 43  1  0
 12 44  1  0
 14 45  1  0
 15 46  1  0
 16 47  1  0
 18 48  1  0
 21 49  1  0
 22 50  1  0
 23 51  1  0
 24 52  1  0
 25 53  1  0
 28 54  1  0
 28 55  1  0
 29 56  1  0
 29 57  1  0
 30 58  1  0
 31 59  1  0
M  END
>  <UniqueID>  (9) 
8

>  <SMILES>  (9) 
COc1ccc(CN2CCN(Cc3cccn4cc(-c5ccccc5)nc34)CC2)cc1

>  <Energy>  (9) 
112.10859057484285

>  <Genealogy>  (9) 
COc1ccc(CN2CCN(Cc3cccn4cc(-c5ccccc5)nc34)CC2)cc1 (3D coordinates assigned)
COc1ccc(CN2CCN(Cc3cccn4cc(-c5ccccc5)nc34)CC2)cc1 (nonaromatic ring conformer: 112.10859057484285 kcal/mol)

>  <smiles>  (9) 
COc1ccc(CN2CCN(Cc3cccn4cc(-c5ccccc5)nc34)CC2)cc1

>  <score_type>  (9) 
oracle

>  <origin>  (9) 
adg

>  <m_score__min__energy>  (9) 
-8.9900000000000002

>  <m_primary>  (9) 
energy

$$$$
9:0
     RDKit          3D

 50 52  0  0  0  0  0  0  0  0999 V2000
   57.7760   26.8560   44.8510 C   0  0  0  0  0  0  0  0  0  0  0  0
   58.5550   27.7140   43.8620 C   0  0  0  0  0  0  0  0  0  0  0  0
   59.3500   28.7630   44.5850 C   0  0  0  0  0  0  0  0  0  0  0  0
   60.5630   28.9320   44.2850 O   0  0  0  0  0  0  0  0  0  0  0  0
   58.7390   29.5710   45.6110 N   0  0  0  0  0  0  0  0  0  0  0  0
   59.3630   29.5610   46.9490 C   0  0  0  0  0  0  0  0  0  0  0  0
   59.0700   30.8490   47.7510 C   0  0  0  0  0  0  0  0  0  0  0  0
   59.0770   32.0720   46.8460 C   0  0  0  0  0  0  0  0  0  0  0  0
   59.6980   33.2860   47.2310 C   0  0  0  0  0  0  0  0  0  0  0  0
   60.2820   33.4800   48.5770 C   0  0  0  0  0  0  0  0  0  0  0  0
   59.4520   33.4060   49.7070 C   0  0  0  0  0  0  0  0  0  0  0  0
   59.9820   33.5900   50.9860 C   0  0  0  0  0  0  0  0  0  0  0  0
   59.1720   33.5240   52.0710 F   0  0  0  0  0  0  0  0  0  0  0  0
   61.3440   33.8440   51.1470 C   0  0  0  0  0  0  0  0  0  0  0  0
   62.1840   33.9090   50.0310 C   0  0  0  0  0  0  0  0  0  0  0  0
   61.6620   33.7210   48.7360 C   0  0  0  0  0  0  0  0  0  0  0  0
   62.4800   33.7600   47.5950 O   0  0  0  0  0  0  0  0  0  0  0  0
   63.3660   32.7190   47.2000 C   0  0  0  0  0  0  0  0  0  0  0  0
   59.7650   34.3440   46.3160 C   0  0  0  0  0  0  0  0  0  0  0  0
   59.2130   34.2170   45.0450 C   0  0  0  0  0  0  0  0  0  0  0  0
   58.5600   33.0430   44.6670 C   0  0  0  0  0  0  0  0  0  0  0  0
   58.0730   32.9850   43.4050 F   0  0  0  0  0  0  0  0  0  0  0  0
   58.4460   31.9690   45.5800 C   0  0  0  0  0  0  0  0  0  0  0  0
   57.7570   30.6330   45.3110 C   0  0  1  0  0  0  0  0  0  0  0  0
   57.0040   30.4210   43.9660 C   0  0  0  0  0  0  0  0  0  0  0  0
   55.4840   30.2470   44.1310 C   0  0  0  0  0  0  0  0  0  0  0  0
   55.1670   29.3390   45.1510 O   0  0  0  0  0  0  0  0  0  0  0  0
   58.0411   27.1479   45.8779 H   0  0  0  0  0  0  0  0  0  0  0  0
   56.6973   27.0040   44.6946 H   0  0  0  0  0  0  0  0  0  0  0  0
   58.0272   25.7966   44.6946 H   0  0  0  0  0  0  0  0  0  0  0  0
   59.2401   27.0726   43.2881 H   0  0  0  0  0  0  0  0  0  0  0  0
   57.8436   28.2110   43.1861 H   0  0  0  0  0  0  0  0  0  0  0  0
   58.9751   28.6994   47.5122 H   0  0  0  0  0  0  0  0  0  0  0  0
   60.4521   29.4967   46.8082 H   0  0  0  0  0  0  0  0  0  0  0  0
   58.0819   30.7594   48.2260 H   0  0  0  0  0  0  0  0  0  0  0  0
   59.8551   30.9729   48.5115 H   0  0  0  0  0  0  0  0  0  0  0  0
   58.3781   33.2019   49.5843 H   0  0  0  0  0  0  0  0  0  0  0  0
   61.7586   33.9936   52.1548 H   0  0  0  0  0  0  0  0  0  0  0  0
   63.2576   34.1079   50.1648 H   0  0  0  0  0  0  0  0  0  0  0  0
   63.7809   32.2315   48.0945 H   0  0  0  0  0  0  0  0  0  0  0  0
   62.8171   31.9782   46.6000 H   0  0  0  0  0  0  0  0  0  0  0  0
   64.1850   33.1425   46.6000 H   0  0  0  0  0  0  0  0  0  0  0  0
   60.2584   35.2838   46.6046 H   0  0  0  0  0  0  0  0  0  0  0  0
   59.2921   35.0502   44.3312 H   0  0  0  0  0  0  0  0  0  0  0  0
   56.8847   30.6058   45.9806 H   0  0  0  0  0  0  0  0  0  0  0  0
   57.1861   31.2955   43.3240 H   0  0  0  0  0  0  0  0  0  0  0  0
   57.3889   29.4900   43.5244 H   0  0  0  0  0  0  0  0  0  0  0  0
   55.0391   31.2233   44.3737 H   0  0  0  0  0  0  0  0  0  0  0  0
   55.0829   29.8507   43.1865 H   0  0  0  0  0  0  0  0  0  0  0  0
   55.5140   29.7240   45.9980 H   0  0  0  0  0  0  0  0  0  0  0  0
  1  2  1  0
  2  3  1  0
  3  4  2  0
  3  5  1  0
  5  6  1  0
  6  7  1  0
  7  8  1  0
  8  9  2  0
  9 10  1  0
 10 11  2  0
 11 12  1  0
 12 13  1  0
 12 14  2  0
 14 15  1  0
 15 16  2  0
 16 17  1  0
 17 18  1  0
  9 19  1  0
 19 20  2  0
 20 21  1  0
 21 22  1  0
 21 23  2  0
 23 24  1  0
 24 25  1  0
 25 26  1  0
 26 27  1  0
 24  5  1  0
 23  8  1  0
 16 10  1  0
  1 28  1  0
  1 29  1  0
  1 30  1  0
  2 31  1  0
  2 32  1  0
  6 33  1  0
  6 34  1  0
  7 35  1  0
  7 36  1  0
 11 37  1  0
 14 38  1  0
 15 39  1  0
 18 40  1  0
 18 41  1  0
 18 42  1  0
 19 43  1  0
 20 44  1  0
 24 45  1  1
 25 46  1  0
 25 47  1  0
 26 48  1  0
 26 49  1  0
 27 50  1  0
M  END
>  <UniqueID>  (10) 
9

>  <SMILES>  (10) 
CCC(=O)N1CCc2c(-c3cc(F)ccc3OC)ccc(F)c2[C@H]1CCO

>  <Energy>  (10) 
74.05227854219555

>  <Genealogy>  (10) 
CCC(=O)N1CCc2c(-c3cc(F)ccc3OC)ccc(F)c2[C@H]1CCO (chirality)
CCC(=O)N1CCc2c(-c3cc(F)ccc3OC)ccc(F)c2[C@H]1CCO (3D coordinates assigned)
CCC(=O)N1CCc2c(-c3cc(F)ccc3OC)ccc(F)c2[C@H]1CCO (nonaromatic ring conformer: 74.05227854219555 kcal/mol)

>  <smiles>  (10) 
CCC(=O)N1CCc2c(-c3cc(F)ccc3OC)ccc(F)c2C1CCO

>  <score_type>  (10) 
oracle

>  <origin>  (10) 
adg

>  <m_score__min__energy>  (10) 
-8.3800000000000008

>  <m_primary>  (10) 
energy

$$$$
10:0
     RDKit          3D

 47 49  0  0  0  0  0  0  0  0999 V2000
   59.1900   26.3890   46.4970 C   0  0  0  0  0  0  0  0  0  0  0  0
   59.0620   27.8700   46.3230 C   0  0  0  0  0  0  0  0  0  0  0  0
   58.2560   28.5900   45.0370 S   0  0  0  0  0  0  0  0  0  0  0  0
   58.5960   30.1780   45.4870 C   0  0  0  0  0  0  0  0  0  0  0  0
   59.3410   30.1760   46.6620 C   0  0  0  0  0  0  0  0  0  0  0  0
   59.6330   28.8650   47.1300 C   0  0  0  0  0  0  0  0  0  0  0  0
   60.5510   28.5460   48.2800 C   0  0  0  0  0  0  0  0  0  0  0  0
   59.7040   31.4060   47.2390 C   0  0  0  0  0  0  0  0  0  0  0  0
   60.2520   31.4650   48.5670 N   0  0  0  0  0  0  0  0  0  0  0  0
   61.6890   31.6530   48.7980 C   0  0  0  0  0  0  0  0  0  0  0  0
   62.4830   31.5770   47.4800 C   0  0  0  0  0  0  0  0  0  0  0  0
   63.6710   32.4640   47.4830 N   0  0  0  0  0  0  0  0  0  0  0  0
   63.3870   33.6800   46.7000 C   0  0  0  0  0  0  0  0  0  0  0  0
   64.0670   32.8400   48.8530 C   0  0  0  0  0  0  0  0  0  0  0  0
   59.4390   32.5940   46.5190 C   0  0  0  0  0  0  0  0  0  0  0  0
   59.9340   33.8370   46.9680 C   0  0  0  0  0  0  0  0  0  0  0  0
   59.6670   35.0070   46.2630 C   0  0  0  0  0  0  0  0  0  0  0  0
   58.9190   34.9630   45.0920 C   0  0  0  0  0  0  0  0  0  0  0  0
   58.4390   33.7460   44.6100 C   0  0  0  0  0  0  0  0  0  0  0  0
   58.6890   32.5370   45.3020 C   0  0  0  0  0  0  0  0  0  0  0  0
   58.2340   31.3210   44.8250 N   0  0  0  0  0  0  0  0  0  0  0  0
   57.4130   31.2460   43.6010 C   0  0  0  0  0  0  0  0  0  0  0  0
   59.2110   26.1463   47.5697 H   0  0  0  0  0  0  0  0  0  0  0  0
   58.3317   25.8888   46.0246 H   0  0  0  0  0  0  0  0  0  0  0  0
   60.1214   26.0434   46.0246 H   0  0  0  0  0  0  0  0  0  0  0  0
   60.0263   28.7283   49.2295 H   0  0  0  0  0  0  0  0  0  0  0  0
   60.8539   27.4899   48.2254 H   0  0  0  0  0  0  0  0  0  0  0  0
   61.4435   29.1867   48.2254 H   0  0  0  0  0  0  0  0  0  0  0  0
   59.6360   31.2350   49.3760 H   0  0  0  0  0  0  0  0  0  0  0  0
   61.8519   32.6388   49.2580 H   0  0  0  0  0  0  0  0  0  0  0  0
   62.0416   30.8502   49.4623 H   0  0  0  0  0  0  0  0  0  0  0  0
   62.8170   30.5400   47.3283 H   0  0  0  0  0  0  0  0  0  0  0  0
   61.8186   31.9097   46.6689 H   0  0  0  0  0  0  0  0  0  0  0  0
   64.4750   31.9710   47.0250 H   0  0  0  0  0  0  0  0  0  0  0  0
   63.1910   34.5190   47.3839 H   0  0  0  0  0  0  0  0  0  0  0  0
   64.2536   33.9185   46.0659 H   0  0  0  0  0  0  0  0  0  0  0  0
   62.5044   33.5100   46.0659 H   0  0  0  0  0  0  0  0  0  0  0  0
   63.4668   32.2701   49.5776 H   0  0  0  0  0  0  0  0  0  0  0  0
   65.1332   32.6138   49.0016 H   0  0  0  0  0  0  0  0  0  0  0  0
   63.8963   33.9165   49.0016 H   0  0  0  0  0  0  0  0  0  0  0  0
   60.5381   33.8817   47.8862 H   0  0  0  0  0  0  0  0  0  0  0  0
   60.0491   35.9696   46.6336 H   0  0  0  0  0  0  0  0  0  0  0  0
   58.7050   35.8922   44.5435 H   0  0  0  0  0  0  0  0  0  0  0  0
   57.8567   33.7251   43.6770 H   0  0  0  0  0  0  0  0  0  0  0  0
   56.3524   31.1491   43.8763 H   0  0  0  0  0  0  0  0  0  0  0  0
   57.5556   32.1609   43.0072 H   0  0  0  0  0  0  0  0  0  0  0  0
   57.7190   30.3721   43.0072 H   0  0  0  0  0  0  0  0  0  0  0  0
  1  2  1  0
  2  3  1  0
  3  4  1  0
  4  5  2  0
  5  6  1  0
  6  7  1  0
  5  8  1  0
  8  9  1  0
  9 10  1  0
 10 11  1  0
 11 12  1  0
 12 13  1  0
 12 14  1  0
  8 15  2  0
 15 16  1  0
 16 17  2  0
 17 18  1  0
 18 19  2  0
 19 20  1  0
 20 21  2  0
 21 22  1  0
  6  2  2  0
 20 15  1  0
 21  4  1  0
  1 23  1  0
  1 24  1  0
  1 25  1  0
  7 26  1  0
  7 27  1  0
  7 28  1  0
  9 29  1  0
 10 30  1  0
 10 31  1  0
 11 32  1  0
 11 33  1  0
 12 34  1  0
 13 35  1  0
 13 36  1  0
 13 37  1  0
 14 38  1  0
 14 39  1  0
 14 40  1  0
 16 41  1  0
 17 42  1  0
 18 43  1  0
 19 44  1  0
 22 45  1  0
 22 46  1  0
 22 47  1  0
M  CHG  2  12   1  21   1
M  END
>  <UniqueID>  (11) 
10

>  <SMILES>  (11) 
Cc1sc2c(c1C)c(NCC[NH+](C)C)c1ccccc1[n+]2C

>  <Energy>  (11) 
96.80923996879208

>  <Genealogy>  (11) 
Cc1sc2c(c1C)c(NCC[NH+](C)C)c1ccccc1[n+]2C (protonated)
Cc1sc2c(c1C)c(NCC[NH+](C)C)c1ccccc1[n+]2C (3D coordinates assigned)
Cc1sc2c(c1C)c(NCC[NH+](C)C)c1ccccc1[n+]2C (optimized conformer: 96.80923996879208 kcal/mol)

>  <smiles>  (11) 
Cc1sc2c(c1C)c(NCCN(C)C)c1ccccc1[n+]2C

>  <score_type>  (11) 
oracle

>  <origin>  (11) 
adg

>  <m_score__min__energy>  (11) 
-4.6600000000000001

>  <m_primary>  (11) 
energy

$$$$
11:0
     RDKit          3D

 40 43  0  0  0  0  0  0  0  0999 V2000
   60.7210   27.2320   47.4880 C   0  0  0  0  0  0  0  0  0  0  0  0
   59.4250   27.5740   46.8050 C   0  0  0  0  0  0  0  0  0  0  0  0
   58.4810   26.5370   46.5680 C   0  0  0  0  0  0  0  0  0  0  0  0
   57.2510   26.8060   45.9420 C   0  0  0  0  0  0  0  0  0  0  0  0
   57.0000   28.1120   45.5510 C   0  0  0  0  0  0  0  0  0  0  0  0
   55.9510   28.5920   44.9260 O   0  0  0  0  0  0  0  0  0  0  0  0
   56.2020   29.8780   44.7510 C   0  0  0  0  0  0  0  0  0  0  0  0
   55.4250   30.6540   44.1350 O   0  0  0  0  0  0  0  0  0  0  0  0
   57.3950   30.2640   45.2720 N   0  0  0  0  0  0  0  0  0  0  0  0
   57.8950   29.1180   45.7680 C   0  0  0  0  0  0  0  0  0  0  0  0
   59.1130   28.9140   46.4260 C   0  0  0  0  0  0  0  0  0  0  0  0
   59.9920   30.1050   46.7520 C   0  0  0  0  0  0  0  0  0  0  0  0
   59.1500   31.2760   47.3080 C   0  0  0  0  0  0  0  0  0  0  0  0
   58.5620   32.1690   46.2730 N   0  0  0  0  0  0  0  0  0  0  0  0
   59.4540   33.3100   45.9670 C   0  0  0  0  0  0  0  0  0  0  0  0
   60.4990   33.4640   47.0400 C   0  0  0  0  0  0  0  0  0  0  0  0
   60.1740   34.0300   48.2830 C   0  0  0  0  0  0  0  0  0  0  0  0
   61.1550   34.1760   49.2700 C   0  0  0  0  0  0  0  0  0  0  0  0
   62.4650   33.7560   49.0220 C   0  0  0  0  0  0  0  0  0  0  0  0
   62.7960   33.1900   47.7870 C   0  0  0  0  0  0  0  0  0  0  0  0
   61.8180   33.0440   46.7980 C   0  0  0  0  0  0  0  0  0  0  0  0
   58.1230   31.5110   45.0220 C   0  0  0  0  0  0  0  0  0  0  0  0
   60.5816   27.2688   48.5785 H   0  0  0  0  0  0  0  0  0  0  0  0
   61.0354   26.2202   47.1925 H   0  0  0  0  0  0  0  0  0  0  0  0
   61.4937   27.9570   47.1925 H   0  0  0  0  0  0  0  0  0  0  0  0
   58.7167   25.5086   46.8792 H   0  0  0  0  0  0  0  0  0  0  0  0
   56.5139   26.0081   45.7687 H   0  0  0  0  0  0  0  0  0  0  0  0
   60.7368   29.8076   47.5049 H   0  0  0  0  0  0  0  0  0  0  0  0
   60.4901   30.4373   45.8293 H   0  0  0  0  0  0  0  0  0  0  0  0
   58.3269   30.8533   47.9028 H   0  0  0  0  0  0  0  0  0  0  0  0
   59.8379   31.8984   47.8991 H   0  0  0  0  0  0  0  0  0  0  0  0
   59.9500   33.1331   45.0012 H   0  0  0  0  0  0  0  0  0  0  0  0
   58.8525   34.2299   45.9211 H   0  0  0  0  0  0  0  0  0  0  0  0
   59.1437   34.3601   48.4818 H   0  0  0  0  0  0  0  0  0  0  0  0
   60.8952   34.6215   50.2416 H   0  0  0  0  0  0  0  0  0  0  0  0
   63.2356   33.8708   49.7985 H   0  0  0  0  0  0  0  0  0  0  0  0
   63.8270   32.8591   47.5931 H   0  0  0  0  0  0  0  0  0  0  0  0
   62.0822   32.5989   45.8274 H   0  0  0  0  0  0  0  0  0  0  0  0
   57.4648   32.2002   44.4726 H   0  0  0  0  0  0  0  0  0  0  0  0
   59.0229   31.2629   44.4401 H   0  0  0  0  0  0  0  0  0  0  0  0
  1  2  1  0
  2  3  2  0
  3  4  1  0
  4  5  2  0
  5  6  1  0
  6  7  1  0
  7  8  2  0
  7  9  1  0
  9 10  1  0
 10 11  2  0
 11 12  1  0
 12 13  1  0
 13 14  1  0
 14 15  1  0
 15 16  1  0
 16 17  2  0
 17 18  1  0
 18 19  2  0
 19 20  1  0
 20 21  2  0
 14 22  1  0
 11  2  1  0
 21 16  1  0
 10  5  1  0
 22  9  1  0
  1 23  1  0
  1 24  1  0
  1 25  1  0
  3 26  1  0
  4 27  1  0
 12 28  1  0
 12 29  1  0
 13 30  1  0
 13 31  1  0
 15 32  1  0
 15 33  1  0
 17 34  1  0
 18 35  1  0
 19 36  1  0
 20 37  1  0
 21 38  1  0
 22 39  1  0
 22 40  1  0
M  END
>  <UniqueID>  (12) 
11

>  <SMILES>  (12) 
Cc1ccc2oc(=O)n3c2c1CCN(Cc1ccccc1)C3

>  <Energy>  (12) 
99.14000402264455

>  <Genealogy>  (12) 
Cc1ccc2oc(=O)n3c2c1CCN(Cc1ccccc1)C3 (3D coordinates assigned)
Cc1ccc2oc(=O)n3c2c1CCN(Cc1ccccc1)C3 (nonaromatic ring conformer: 99.14000402264455 kcal/mol)

>  <smiles>  (12) 
Cc1ccc2oc(=O)n3c2c1CCN(Cc1ccccc1)C3

>  <score_type>  (12) 
oracle

>  <origin>  (12) 
adg

>  <m_score__min__energy>  (12) 
-6.1299999999999999

>  <m_primary>  (12) 
energy

$$$$
12:0
     RDKit          3D

 48 50  0  0  0  0  0  0  0  0999 V2000
   56.3930   34.1000   46.9670 H   0  0  0  0  0  0  0  0  0  0  0  0
   57.0660   33.6420   46.3130 N   0  0  0  0  0  0  0  0  0  0  0  0
   57.9440   32.6260   46.8410 C   0  0  0  0  0  0  0  0  0  0  0  0
   58.5230   32.7750   47.9980 N   0  0  0  0  0  0  0  0  0  0  0  0
   59.6400   33.6220   48.3150 C   0  0  0  0  0  0  0  0  0  0  0  0
   59.4560   34.7870   48.7590 O   0  0  0  0  0  0  0  0  0  0  0  0
   61.0430   33.1570   47.9890 C   0  0  1  0  0  0  0  0  0  0  0  0
   61.1320   31.6710   47.5330 C   0  0  0  0  0  0  0  0  0  0  0  0
   60.4942   31.0265   48.1559 H   0  0  0  0  0  0  0  0  0  0  0  0
   60.7877   31.5109   46.5006 H   0  0  0  0  0  0  0  0  0  0  0  0
   62.6230   31.3400   47.7370 C   0  0  0  0  0  0  0  0  0  0  0  0
   62.7526   30.5252   48.4645 H   0  0  0  0  0  0  0  0  0  0  0  0
   63.1226   30.9925   46.8207 H   0  0  0  0  0  0  0  0  0  0  0  0
   63.1960   32.6740   48.2830 C   0  0  1  0  0  0  0  0  0  0  0  0
   64.5580   32.5120   48.9700 C   0  0  0  0  0  0  0  0  0  0  0  0
   64.4223   32.5281   50.0615 H   0  0  0  0  0  0  0  0  0  0  0  0
   65.0081   31.5540   48.6706 H   0  0  0  0  0  0  0  0  0  0  0  0
   65.2202   33.3377   48.6706 H   0  0  0  0  0  0  0  0  0  0  0  0
   63.2310   33.6510   47.0780 C   0  0  0  0  0  0  0  0  0  0  0  0
   63.8101   34.5552   47.3169 H   0  0  0  0  0  0  0  0  0  0  0  0
   63.7126   33.2262   46.1849 H   0  0  0  0  0  0  0  0  0  0  0  0
   61.7410   33.9840   46.8700 C   0  0  0  0  0  0  0  0  0  0  0  0
   61.5540   35.0604   46.9978 H   0  0  0  0  0  0  0  0  0  0  0  0
   61.3780   33.7432   45.8599 H   0  0  0  0  0  0  0  0  0  0  0  0
   62.0480   33.2280   49.1610 C   0  0  0  0  0  0  0  0  0  0  0  0
   62.2880   34.6630   49.7240 C   0  0  0  0  0  0  0  0  0  0  0  0
   62.2827   34.6311   50.8235 H   0  0  0  0  0  0  0  0  0  0  0  0
   63.2611   35.0367   49.3727 H   0  0  0  0  0  0  0  0  0  0  0  0
   61.4894   35.3330   49.3727 H   0  0  0  0  0  0  0  0  0  0  0  0
   61.6730   32.3380   50.3880 C   0  0  0  0  0  0  0  0  0  0  0  0
   61.9014   32.8800   51.3176 H   0  0  0  0  0  0  0  0  0  0  0  0
   60.5991   32.1023   50.3554 H   0  0  0  0  0  0  0  0  0  0  0  0
   62.2544   31.4048   50.3554 H   0  0  0  0  0  0  0  0  0  0  0  0
   58.1600   31.3160   46.1230 C   0  0  0  0  0  0  0  0  0  0  0  0
   59.2340   31.2089   45.9107 H   0  0  0  0  0  0  0  0  0  0  0  0
   57.7823   30.5209   46.7826 H   0  0  0  0  0  0  0  0  0  0  0  0
   57.3920   31.2060   44.8020 C   0  0  0  0  0  0  0  0  0  0  0  0
   57.4088   30.1563   44.4737 H   0  0  0  0  0  0  0  0  0  0  0  0
   56.3683   31.5634   44.9870 H   0  0  0  0  0  0  0  0  0  0  0  0
   57.9870   32.0780   43.6840 C   0  0  0  0  0  0  0  0  0  0  0  0
   58.9618   31.6554   43.3990 H   0  0  0  0  0  0  0  0  0  0  0  0
   57.2606   32.0709   42.8580 H   0  0  0  0  0  0  0  0  0  0  0  0
   58.1960   33.5510   44.0750 C   0  0  0  0  0  0  0  0  0  0  0  0
   59.1291   33.6324   44.6518 H   0  0  0  0  0  0  0  0  0  0  0  0
   58.2381   34.1373   43.1452 H   0  0  0  0  0  0  0  0  0  0  0  0
   57.0460   34.1110   44.9220 C   0  0  0  0  0  0  0  0  0  0  0  0
   57.1158   35.2088   44.9229 H   0  0  0  0  0  0  0  0  0  0  0  0
   56.1074   33.7551   44.4722 H   0  0  0  0  0  0  0  0  0  0  0  0
  1  2  1  0
  2  3  1  0
  3  4  2  0
  4  5  1  0
  5  6  2  0
  7  5  1  6
  7  8  1  0
  8  9  1  0
  8 10  1  0
  8 11  1  0
 11 12  1  0
 11 13  1  0
 11 14  1  0
 14 15  1  6
 15 16  1  0
 15 17  1  0
 15 18  1  0
 14 19  1  0
 19 20  1  0
 19 21  1  0
 19 22  1  0
 22 23  1  0
 22 24  1  0
 14 25  1  0
 25 26  1  0
 26 27  1  0
 26 28  1  0
 26 29  1  0
 25 30  1  0
 30 31  1  0
 30 32  1  0
 30 33  1  0
  3 34  1  0
 34 35  1  0
 34 36  1  0
 34 37  1  0
 37 38  1  0
 37 39  1  0
 37 40  1  0
 40 41  1  0
 40 42  1  0
 40 43  1  0
 43 44  1  0
 43 45  1  0
 43 46  1  0
 46 47  1  0
 46 48  1  0
 46  2  1  0
 22  7  1  0
 25  7  1  0
M  END
>  <UniqueID>  (13) 
12

>  <SMILES>  (13) 
CC12CCC(C(=O)/N=C3/CCCCCN3)(CC1)C2(C)C

>  <Energy>  (13) 
88.7616998735199

>  <Genealogy>  (13) 
CC12CCC(C(=O)/N=C3/CCCCCN3)(CC1)C2(C)C (cis-trans isomerization)
CC12CCC(C(=O)/N=C3/CCCCCN3)(CC1)C2(C)C (3D coordinates assigned)
CC12CCC(C(=O)/N=C3/CCCCCN3)(CC1)C2(C)C (nonaromatic ring conformer: 88.7616998735199 kcal/mol)

>  <smiles>  (13) 
CC12CCC(C(=O)N=C3CCCCCN3)(CC1)C2(C)C

>  <score_type>  (13) 
oracle

>  <origin>  (13) 
adg

>  <m_score__min__energy>  (13) 
-6.4400000000000004

>  <m_primary>  (13) 
energy

$$$$
13:0
     RDKit          3D

 41 43  0  0  0  0  0  0  0  0999 V2000
   60.1610   30.0190   49.1530 C   0  0  0  0  0  0  0  0  0  0  0  0
   60.2690   30.7770   47.9510 O   0  0  0  0  0  0  0  0  0  0  0  0
   61.3110   31.6740   47.6640 C   0  0  0  0  0  0  0  0  0  0  0  0
   62.6380   31.2280   47.4940 C   0  0  0  0  0  0  0  0  0  0  0  0
   63.6710   32.1400   47.2720 C   0  0  0  0  0  0  0  0  0  0  0  0
   63.3960   33.5040   47.2160 C   0  0  0  0  0  0  0  0  0  0  0  0
   62.0860   33.9620   47.3560 C   0  0  0  0  0  0  0  0  0  0  0  0
   61.0310   33.0560   47.5630 C   0  0  0  0  0  0  0  0  0  0  0  0
   59.6550   33.5910   47.6870 C   0  0  0  0  0  0  0  0  0  0  0  0
   58.8220   32.9630   48.3980 O   0  0  0  0  0  0  0  0  0  0  0  0
   59.2430   34.9180   47.0950 C   0  0  0  0  0  0  0  0  0  0  0  0
   59.6310   35.0240   45.6120 C   0  0  0  0  0  0  0  0  0  0  0  0
   58.6290   34.3110   44.6950 C   0  0  0  0  0  0  0  0  0  0  0  0
   57.2490   33.6130   45.6690 S   0  0  0  0  0  0  0  0  0  0  0  0
   57.6420   31.9110   45.2620 C   0  0  0  0  0  0  0  0  0  0  0  0
   58.4740   31.1350   45.9970 N   0  0  0  0  0  0  0  0  0  0  0  0
   58.5580   29.8770   45.4930 C   0  0  0  0  0  0  0  0  0  0  0  0
   59.3090   28.8370   46.0510 C   0  0  0  0  0  0  0  0  0  0  0  0
   59.2700   27.5730   45.4390 C   0  0  0  0  0  0  0  0  0  0  0  0
   58.4940   27.3640   44.2810 C   0  0  0  0  0  0  0  0  0  0  0  0
   57.7510   28.4170   43.7220 C   0  0  0  0  0  0  0  0  0  0  0  0
   57.8000   29.6580   44.3510 C   0  0  0  0  0  0  0  0  0  0  0  0
   56.9840   31.0720   43.9460 S   0  0  0  0  0  0  0  0  0  0  0  0
   60.2566   30.6899   50.0194 H   0  0  0  0  0  0  0  0  0  0  0  0
   59.1824   29.5177   49.1837 H   0  0  0  0  0  0  0  0  0  0  0  0
   60.9607   29.2643   49.1837 H   0  0  0  0  0  0  0  0  0  0  0  0
   62.8610   30.1517   47.5367 H   0  0  0  0  0  0  0  0  0  0  0  0
   64.7026   31.7812   47.1412 H   0  0  0  0  0  0  0  0  0  0  0  0
   64.2144   34.2224   47.0609 H   0  0  0  0  0  0  0  0  0  0  0  0
   61.8766   35.0406   47.3040 H   0  0  0  0  0  0  0  0  0  0  0  0
   58.1521   35.0259   47.1866 H   0  0  0  0  0  0  0  0  0  0  0  0
   59.7656   35.7153   47.6439 H   0  0  0  0  0  0  0  0  0  0  0  0
   59.6719   36.0871   45.3323 H   0  0  0  0  0  0  0  0  0  0  0  0
   60.6090   34.5368   45.4847 H   0  0  0  0  0  0  0  0  0  0  0  0
   58.2291   35.0319   43.9668 H   0  0  0  0  0  0  0  0  0  0  0  0
   59.1459   33.4912   44.1746 H   0  0  0  0  0  0  0  0  0  0  0  0
   58.9750   31.4620   46.8540 H   0  0  0  0  0  0  0  0  0  0  0  0
   59.9181   29.0056   46.9513 H   0  0  0  0  0  0  0  0  0  0  0  0
   59.8489   26.7409   45.8663 H   0  0  0  0  0  0  0  0  0  0  0  0
   58.4701   26.3694   43.8118 H   0  0  0  0  0  0  0  0  0  0  0  0
   57.1484   28.2655   42.8143 H   0  0  0  0  0  0  0  0  0  0  0  0
  1  2  1  0
  2  3  1  0
  3  4  2  0
  4  5  1  0
  5  6  2  0
  6  7  1  0
  7  8  2  0
  8  9  1  0
  9 10  2  0
  9 11  1  0
 11 12  1  0
 12 13  1  0
 13 14  1  0
 14 15  1  0
 15 16  2  0
 16 17  1  0
 17 18  2  0
 18 19  1  0
 19 20  2  0
 20 21  1  0
 21 22  2  0
 22 23  1  0
  8  3  1  0
 23 15  1  0
 22 17  1  0
  1 24  1  0
  1 25  1  0
  1 26  1  0
  4 27  1  0
  5 28  1  0
  6 29  1  0
  7 30  1  0
 11 31  1  0
 11 32  1  0
 12 33  1  0
 12 34  1  0
 13 35  1  0
 13 36  1  0
 16 37  1  0
 18 38  1  0
 19 39  1  0
 20 40  1  0
 21 41  1  0
M  CHG  1  16   1
M  END
>  <UniqueID>  (14) 
13

>  <SMILES>  (14) 
COc1ccccc1C(=O)CCCSc1[nH+]c2ccccc2s1

>  <Energy>  (14) 
71.53315047900084

>  <Genealogy>  (14) 
COc1ccccc1C(=O)CCCSc1[nH+]c2ccccc2s1 (protonated)
COc1ccccc1C(=O)CCCSc1[nH+]c2ccccc2s1 (3D coordinates assigned)
COc1ccccc1C(=O)CCCSc1[nH+]c2ccccc2s1 (optimized conformer: 71.53315047900084 kcal/mol)

>  <smiles>  (14) 
COc1ccccc1C(=O)CCCSc1nc2ccccc2s1

>  <score_type>  (14) 
oracle

>  <origin>  (14) 
adg

>  <m_score__min__energy>  (14) 
-6.71

>  <m_primary>  (14) 
energy

$$$$
14:0
     RDKit          3D

 34 36  0  0  0  0  0  0  0  0999 V2000
   57.0770   32.3300   41.1650 C   0  0  0  0  0  0  0  0  0  0  0  0
   58.1920   31.9850   42.1450 C   0  0  0  0  0  0  0  0  0  0  0  0
   57.7560   32.2190   43.5250 N   0  0  0  0  0  0  0  0  0  0  0  0
   56.8220   31.5380   44.2470 C   0  0  0  0  0  0  0  0  0  0  0  0
   55.9980   30.4020   43.7140 C   0  0  0  0  0  0  0  0  0  0  0  0
   55.6860   29.4550   44.7770 N   0  0  0  0  0  0  0  0  0  0  0  0
   56.6400   28.5410   45.3270 C   0  0  0  0  0  0  0  0  0  0  0  0
   56.2990   27.3600   45.6110 O   0  0  0  0  0  0  0  0  0  0  0  0
   58.0190   28.9850   45.5670 C   0  0  0  0  0  0  0  0  0  0  0  0
   59.1260   28.6730   44.7830 C   0  0  0  0  0  0  0  0  0  0  0  0
   60.3170   29.2300   45.2660 C   0  0  0  0  0  0  0  0  0  0  0  0
   60.1440   29.9740   46.4240 C   0  0  0  0  0  0  0  0  0  0  0  0
   61.5160   30.8840   47.3830 Br  0  0  0  0  0  0  0  0  0  0  0  0
   58.5200   29.9460   46.8550 S   0  0  0  0  0  0  0  0  0  0  0  0
   56.7050   31.9770   45.5280 N   0  0  0  0  0  0  0  0  0  0  0  0
   57.6090   32.9700   45.5930 C   0  0  0  0  0  0  0  0  0  0  0  0
   57.9150   33.7660   46.6940 C   0  0  0  0  0  0  0  0  0  0  0  0
   58.9140   34.7450   46.5370 C   0  0  0  0  0  0  0  0  0  0  0  0
   59.5760   34.9000   45.2980 C   0  0  0  0  0  0  0  0  0  0  0  0
   59.2440   34.0780   44.2050 C   0  0  0  0  0  0  0  0  0  0  0  0
   58.2460   33.1190   44.3960 C   0  0  0  0  0  0  0  0  0  0  0  0
   56.1717   32.6101   41.7235 H   0  0  0  0  0  0  0  0  0  0  0  0
   57.3928   33.1725   40.5321 H   0  0  0  0  0  0  0  0  0  0  0  0
   56.8618   31.4564   40.5321 H   0  0  0  0  0  0  0  0  0  0  0  0
   58.4630   30.9255   42.0261 H   0  0  0  0  0  0  0  0  0  0  0  0
   59.0609   32.6257   41.9339 H   0  0  0  0  0  0  0  0  0  0  0  0
   55.0610   30.7992   43.2965 H   0  0  0  0  0  0  0  0  0  0  0  0
   56.5715   29.8828   42.9320 H   0  0  0  0  0  0  0  0  0  0  0  0
   59.0711   28.0523   43.8765 H   0  0  0  0  0  0  0  0  0  0  0  0
   61.2920   29.0913   44.7760 H   0  0  0  0  0  0  0  0  0  0  0  0
   57.3937   33.6341   47.6536 H   0  0  0  0  0  0  0  0  0  0  0  0
   59.1812   35.3937   47.3842 H   0  0  0  0  0  0  0  0  0  0  0  0
   60.3557   35.6680   45.1873 H   0  0  0  0  0  0  0  0  0  0  0  0
   59.7519   34.1866   43.2353 H   0  0  0  0  0  0  0  0  0  0  0  0
  1  2  1  0
  2  3  1  0
  3  4  1  0
  4  5  1  0
  5  6  1  0
  6  7  1  0
  7  8  2  0
  7  9  1  0
  9 10  2  0
 10 11  1  0
 11 12  2  0
 12 13  1  0
 12 14  1  0
  4 15  2  0
 15 16  1  0
 16 17  2  0
 17 18  1  0
 18 19  2  0
 19 20  1  0
 20 21  2  0
 21  3  1  0
 14  9  1  0
 21 16  1  0
  1 22  1  0
  1 23  1  0
  1 24  1  0
  2 25  1  0
  2 26  1  0
  5 27  1  0
  5 28  1  0
 10 29  1  0
 11 30  1  0
 17 31  1  0
 18 32  1  0
 19 33  1  0
 20 34  1  0
M  CHG  1   6  -1
M  END
>  <UniqueID>  (15) 
14

>  <SMILES>  (15) 
CCn1c(C[N-]C(=O)c2ccc(Br)s2)nc2ccccc21

>  <Energy>  (15) 
92.00583310263231

>  <Genealogy>  (15) 
CCn1c(C[N-]C(=O)c2ccc(Br)s2)nc2ccccc21 (protonated)
CCn1c(C[N-]C(=O)c2ccc(Br)s2)nc2ccccc21 (3D coordinates assigned)
CCn1c(C[N-]C(=O)c2ccc(Br)s2)nc2ccccc21 (optimized conformer: 92.00583310263231 kcal/mol)

>  <smiles>  (15) 
CCn1c(CNC(=O)c2ccc(Br)s2)nc2ccccc21

>  <score_type>  (15) 
oracle

>  <origin>  (15) 
adg

>  <m_score__min__energy>  (15) 
-9.6799999999999997

>  <m_primary>  (15) 
energy

$$$$
15:0
     RDKit          3D

 40 42  0  0  0  0  0  0  0  0999 V2000
   63.7660   33.1810   47.0820 N   0  0  0  0  0  0  0  0  0  0  0  0
   62.8850   32.5010   47.3980 C   0  0  0  0  0  0  0  0  0  0  0  0
   61.7900   31.6550   47.7890 C   0  0  0  0  0  0  0  0  0  0  0  0
   61.1940   31.8490   48.9920 N   0  0  0  0  0  0  0  0  0  0  0  0
   60.1580   31.0700   49.3900 C   0  0  0  0  0  0  0  0  0  0  0  0
   59.6890   30.0540   48.5610 C   0  0  0  0  0  0  0  0  0  0  0  0
   58.6160   29.3250   48.9560 F   0  0  0  0  0  0  0  0  0  0  0  0
   60.3110   29.8540   47.3140 C   0  0  0  0  0  0  0  0  0  0  0  0
   59.8340   28.8530   46.3860 N   0  0  0  0  0  0  0  0  0  0  0  0
   59.0550   27.6910   46.8230 C   0  0  0  0  0  0  0  0  0  0  0  0
   57.6790   27.7160   46.1490 C   0  0  0  0  0  0  0  0  0  0  0  0
   57.7470   28.0440   44.6310 C   0  0  0  0  0  0  0  0  0  0  0  0
   56.7600   29.4930   44.2010 S   0  0  0  0  0  0  0  0  0  0  0  0
   56.5390   29.5090   42.7140 O   0  0  0  0  0  0  0  0  0  0  0  0
   55.4180   29.3770   44.8670 O   0  0  0  0  0  0  0  0  0  0  0  0
   57.5030   31.0180   44.6890 C   0  0  0  0  0  0  0  0  0  0  0  0
   57.8010   32.0000   43.7330 C   0  0  0  0  0  0  0  0  0  0  0  0
   58.4270   33.1900   44.1170 C   0  0  0  0  0  0  0  0  0  0  0  0
   58.7340   33.4180   45.4620 C   0  0  0  0  0  0  0  0  0  0  0  0
   59.6160   35.0290   45.9830 Br  0  0  0  0  0  0  0  0  0  0  0  0
   58.3960   32.4630   46.4250 C   0  0  0  0  0  0  0  0  0  0  0  0
   57.7790   31.2680   46.0410 C   0  0  0  0  0  0  0  0  0  0  0  0
   59.1900   28.1370   44.0800 C   0  0  0  0  0  0  0  0  0  0  0  0
   60.1330   28.9870   44.9540 C   0  0  0  0  0  0  0  0  0  0  0  0
   61.3500   30.6690   46.9590 N   0  0  0  0  0  0  0  0  0  0  0  0
   59.6872   31.2408   50.3694 H   0  0  0  0  0  0  0  0  0  0  0  0
   59.5841   26.7683   46.5424 H   0  0  0  0  0  0  0  0  0  0  0  0
   58.9290   27.7236   47.9153 H   0  0  0  0  0  0  0  0  0  0  0  0
   57.2110   26.7282   46.2727 H   0  0  0  0  0  0  0  0  0  0  0  0
   57.0936   28.5135   46.6300 H   0  0  0  0  0  0  0  0  0  0  0  0
   57.2934   27.1796   44.1241 H   0  0  0  0  0  0  0  0  0  0  0  0
   57.5413   31.8335   42.6771 H   0  0  0  0  0  0  0  0  0  0  0  0
   58.6782   33.9476   43.3601 H   0  0  0  0  0  0  0  0  0  0  0  0
   58.6155   32.6515   47.4863 H   0  0  0  0  0  0  0  0  0  0  0  0
   57.5092   30.5214   46.8024 H   0  0  0  0  0  0  0  0  0  0  0  0
   59.6022   27.1194   44.0123 H   0  0  0  0  0  0  0  0  0  0  0  0
   59.1285   28.6308   43.0990 H   0  0  0  0  0  0  0  0  0  0  0  0
   61.1689   28.6624   44.7766 H   0  0  0  0  0  0  0  0  0  0  0  0
   59.9908   30.0419   44.6767 H   0  0  0  0  0  0  0  0  0  0  0  0
   61.8280   30.5330   46.0410 H   0  0  0  0  0  0  0  0  0  0  0  0
  1  2  3  0
  2  3  1  0
  3  4  2  0
  4  5  1  0
  5  6  2  0
  6  7  1  0
  6  8  1  0
  8  9  1  0
  9 10  1  0
 10 11  1  0
 11 12  1  0
 12 13  1  0
 13 14  2  0
 13 15  2  0
 13 16  1  0
 16 17  2  0
 17 18  1  0
 18 19  2  0
 19 20  1  0
 19 21  1  0
 21 22  2  0
 12 23  1  0
 23 24  1  0
  8 25  2  0
 25  3  1  0
 24  9  1  0
 22 16  1  0
  5 26  1  0
 10 27  1  0
 10 28  1  0
 11 29  1  0
 11 30  1  0
 12 31  1  0
 17 32  1  0
 18 33  1  0
 21 34  1  0
 22 35  1  0
 23 36  1  0
 23 37  1  0
 24 38  1  0
 24 39  1  0
 25 40  1  0
M  CHG  1  25   1
M  END
>  <UniqueID>  (16) 
15

>  <SMILES>  (16) 
N#Cc1ncc(F)c(N2CCC(S(=O)(=O)c3ccc(Br)cc3)CC2)[nH+]1

>  <Energy>  (16) 
44.29891997754011

>  <Genealogy>  (16) 
N#Cc1ncc(F)c(N2CCC(S(=O)(=O)c3ccc(Br)cc3)CC2)[nH+]1 (protonated)
N#Cc1ncc(F)c(N2CCC(S(=O)(=O)c3ccc(Br)cc3)CC2)[nH+]1 (3D coordinates assigned)
N#Cc1ncc(F)c(N2CCC(S(=O)(=O)c3ccc(Br)cc3)CC2)[nH+]1 (nonaromatic ring conformer: 44.29891997754011 kcal/mol)

>  <smiles>  (16) 
N#Cc1ncc(F)c(N2CCC(S(=O)(=O)c3ccc(Br)cc3)CC2)n1

>  <score_type>  (16) 
oracle

>  <origin>  (16) 
adg

>  <m_score__min__energy>  (16) 
-7.54

>  <m_primary>  (16) 
energy

$$$$
16:0
     RDKit          3D

 46 48  0  0  0  0  0  0  0  0999 V2000
   57.6900   27.8030   44.2210 C   0  0  0  0  0  0  0  0  0  0  0  0
   56.5920   27.9780   45.2620 C   0  0  0  0  0  0  0  0  0  0  0  0
   55.6460   29.0080   44.8170 N   0  0  0  0  0  0  0  0  0  0  0  0
   56.1590   29.7720   43.6710 C   0  0  0  0  0  0  0  0  0  0  0  0
   57.2030   30.8160   44.0960 C   0  0  0  0  0  0  0  0  0  0  0  0
   57.4020   30.8330   45.5490 N   0  0  0  0  0  0  0  0  0  0  0  0
   58.6090   31.3270   46.1570 C   0  0  0  0  0  0  0  0  0  0  0  0
   59.3560   30.5130   47.0240 C   0  0  0  0  0  0  0  0  0  0  0  0
   59.0350   29.1470   47.1800 C   0  0  0  0  0  0  0  0  0  0  0  0
   59.7200   28.3540   48.0940 C   0  0  0  0  0  0  0  0  0  0  0  0
   60.7350   28.9030   48.8640 C   0  0  0  0  0  0  0  0  0  0  0  0
   61.1030   30.2370   48.6940 C   0  0  0  0  0  0  0  0  0  0  0  0
   60.4550   31.0660   47.7370 C   0  0  0  0  0  0  0  0  0  0  0  0
   60.8580   32.3720   47.4980 N   0  0  0  0  0  0  0  0  0  0  0  0
   62.1170   32.8810   48.1010 C   0  0  0  0  0  0  0  0  0  0  0  0
   63.2810   32.7660   47.1170 C   0  0  0  0  0  0  0  0  0  0  0  0
   60.1060   33.1910   46.6690 C   0  0  0  0  0  0  0  0  0  0  0  0
   60.3880   34.5760   46.5160 C   0  0  0  0  0  0  0  0  0  0  0  0
   59.6400   35.3780   45.6560 C   0  0  0  0  0  0  0  0  0  0  0  0
   58.5880   34.8360   44.9330 C   0  0  0  0  0  0  0  0  0  0  0  0
   58.2600   33.4930   45.0830 C   0  0  0  0  0  0  0  0  0  0  0  0
   58.9950   32.6620   45.9560 C   0  0  0  0  0  0  0  0  0  0  0  0
   58.6543   27.6493   44.7275 H   0  0  0  0  0  0  0  0  0  0  0  0
   57.4630   26.9297   43.5919 H   0  0  0  0  0  0  0  0  0  0  0  0
   57.7457   28.7036   43.5919 H   0  0  0  0  0  0  0  0  0  0  0  0
   56.0589   27.0250   45.3945 H   0  0  0  0  0  0  0  0  0  0  0  0
   57.0423   28.2861   46.2172 H   0  0  0  0  0  0  0  0  0  0  0  0
   54.7700   28.5240   44.5090 H   0  0  0  0  0  0  0  0  0  0  0  0
   56.6239   29.0745   42.9587 H   0  0  0  0  0  0  0  0  0  0  0  0
   55.3132   30.3048   43.2119 H   0  0  0  0  0  0  0  0  0  0  0  0
   58.1606   30.5795   43.6090 H   0  0  0  0  0  0  0  0  0  0  0  0
   56.8362   31.8073   43.7913 H   0  0  0  0  0  0  0  0  0  0  0  0
   56.6650   30.4190   46.1630 H   0  0  0  0  0  0  0  0  0  0  0  0
   58.2330   28.7045   46.5709 H   0  0  0  0  0  0  0  0  0  0  0  0
   59.4572   27.2918   48.2065 H   0  0  0  0  0  0  0  0  0  0  0  0
   61.2516   28.2833   49.6117 H   0  0  0  0  0  0  0  0  0  0  0  0
   61.9104   30.6566   49.3122 H   0  0  0  0  0  0  0  0  0  0  0  0
   61.9823   33.9372   48.3771 H   0  0  0  0  0  0  0  0  0  0  0  0
   62.3489   32.2768   48.9905 H   0  0  0  0  0  0  0  0  0  0  0  0
   64.2246   32.6728   47.6746 H   0  0  0  0  0  0  0  0  0  0  0  0
   63.1397   31.8774   46.4841 H   0  0  0  0  0  0  0  0  0  0  0  0
   63.3163   33.6650   46.4841 H   0  0  0  0  0  0  0  0  0  0  0  0
   61.2137   35.0239   47.0883 H   0  0  0  0  0  0  0  0  0  0  0  0
   59.8850   36.4451   45.5503 H   0  0  0  0  0  0  0  0  0  0  0  0
   58.0129   35.4685   44.2408 H   0  0  0  0  0  0  0  0  0  0  0  0
   57.4173   33.0729   44.5143 H   0  0  0  0  0  0  0  0  0  0  0  0
  1  2  1  0
  2  3  1  0
  3  4  1  0
  4  5  1  0
  5  6  1  0
  6  7  1  0
  7  8  2  0
  8  9  1  0
  9 10  2  0
 10 11  1  0
 11 12  2  0
 12 13  1  0
 13 14  2  0
 14 15  1  0
 15 16  1  0
 14 17  1  0
 17 18  2  0
 18 19  1  0
 19 20  2  0
 20 21  1  0
 21 22  2  0
 22  7  1  0
 13  8  1  0
 22 17  1  0
  1 23  1  0
  1 24  1  0
  1 25  1  0
  2 26  1  0
  2 27  1  0
  3 28  1  0
  4 29  1  0
  4 30  1  0
  5 31  1  0
  5 32  1  0
  6 33  1  0
  9 34  1  0
 10 35  1  0
 11 36  1  0
 12 37  1  0
 15 38  1  0
 15 39  1  0
 16 40  1  0
 16 41  1  0
 16 42  1  0
 18 43  1  0
 19 44  1  0
 20 45  1  0
 21 46  1  0
M  CHG  1  14   1
M  END
>  <UniqueID>  (17) 
16

>  <SMILES>  (17) 
CCNCCNc1c2ccccc2[n+](CC)c2ccccc12

>  <Energy>  (17) 
64.50206456412413

>  <Genealogy>  (17) 
CCNCCNc1c2ccccc2[n+](CC)c2ccccc12 (3D coordinates assigned)
CCNCCNc1c2ccccc2[n+](CC)c2ccccc12 (optimized conformer: 64.50206456412413 kcal/mol)

>  <smiles>  (17) 
CCNCCNc1c2ccccc2[n+](CC)c2ccccc12

>  <score_type>  (17) 
oracle

>  <origin>  (17) 
adg

>  <m_score__min__energy>  (17) 
-6.1200000000000001

>  <m_primary>  (17) 
energy

$$$$
17:0
     RDKit          3D

 47 48  0  0  0  0  0  0  0  0999 V2000
   63.3420   33.8860   46.3730 C   0  0  0  0  0  0  0  0  0  0  0  0
   62.7340   33.0960   47.5390 C   0  0  0  0  0  0  0  0  0  0  0  0
   62.0510   33.9340   48.5500 N   0  0  0  0  0  0  0  0  0  0  0  0
   62.6960   33.8640   49.8770 C   0  0  0  0  0  0  0  0  0  0  0  0
   64.0350   33.1380   49.7890 C   0  0  0  0  0  0  0  0  0  0  0  0
   60.3280   33.6070   48.6370 S   0  0  0  0  0  0  0  0  0  0  0  0
   60.0850   32.2180   49.1610 O   0  0  0  0  0  0  0  0  0  0  0  0
   59.6750   34.5870   49.5700 O   0  0  0  0  0  0  0  0  0  0  0  0
   59.5750   33.7910   47.0520 C   0  0  0  0  0  0  0  0  0  0  0  0
   59.8370   34.9160   46.2600 C   0  0  0  0  0  0  0  0  0  0  0  0
   59.2210   35.0550   45.0150 C   0  0  0  0  0  0  0  0  0  0  0  0
   58.3420   34.0710   44.5530 C   0  0  0  0  0  0  0  0  0  0  0  0
   58.0670   32.9370   45.3340 C   0  0  0  0  0  0  0  0  0  0  0  0
   57.1540   31.9420   44.8330 N   0  0  0  0  0  0  0  0  0  0  0  0
   57.4890   30.5210   44.7380 C   0  0  0  0  0  0  0  0  0  0  0  0
   56.2480   29.6720   44.7910 C   0  0  0  0  0  0  0  0  0  0  0  0
   55.1480   30.1830   44.4540 O   0  0  0  0  0  0  0  0  0  0  0  0
   56.2640   28.3220   45.2780 N   0  0  0  0  0  0  0  0  0  0  0  0
   57.3580   27.6550   45.9220 C   0  0  0  0  0  0  0  0  0  0  0  0
   58.1640   28.3050   46.8730 C   0  0  0  0  0  0  0  0  0  0  0  0
   59.2380   27.6310   47.4620 C   0  0  0  0  0  0  0  0  0  0  0  0
   59.5280   26.3140   47.0930 C   0  0  0  0  0  0  0  0  0  0  0  0
   58.7500   25.6750   46.1240 C   0  0  0  0  0  0  0  0  0  0  0  0
   59.0410   24.4030   45.7540 F   0  0  0  0  0  0  0  0  0  0  0  0
   57.6740   26.3460   45.5340 C   0  0  0  0  0  0  0  0  0  0  0  0
   58.6910   32.8060   46.5900 C   0  0  0  0  0  0  0  0  0  0  0  0
   63.9681   34.6995   46.7682 H   0  0  0  0  0  0  0  0  0  0  0  0
   63.9587   33.2147   45.7573 H   0  0  0  0  0  0  0  0  0  0  0  0
   62.5352   34.3103   45.7573 H   0  0  0  0  0  0  0  0  0  0  0  0
   62.0018   32.3848   47.1290 H   0  0  0  0  0  0  0  0  0  0  0  0
   63.5697   32.5990   48.0534 H   0  0  0  0  0  0  0  0  0  0  0  0
   62.8628   34.8847   50.2516 H   0  0  0  0  0  0  0  0  0  0  0  0
   62.0374   33.3089   50.5611 H   0  0  0  0  0  0  0  0  0  0  0  0
   64.4094   32.9350   50.8032 H   0  0  0  0  0  0  0  0  0  0  0  0
   63.9024   32.1882   49.2502 H   0  0  0  0  0  0  0  0  0  0  0  0
   64.7586   33.7673   49.2502 H   0  0  0  0  0  0  0  0  0  0  0  0
   60.5294   35.6914   46.6196 H   0  0  0  0  0  0  0  0  0  0  0  0
   59.4277   35.9406   44.3962 H   0  0  0  0  0  0  0  0  0  0  0  0
   57.8620   34.1860   43.5699 H   0  0  0  0  0  0  0  0  0  0  0  0
   56.2100   32.2600   44.5100 H   0  0  0  0  0  0  0  0  0  0  0  0
   58.0110   30.3368   43.7874 H   0  0  0  0  0  0  0  0  0  0  0  0
   58.1338   30.2544   45.5884 H   0  0  0  0  0  0  0  0  0  0  0  0
   57.9491   29.3465   47.1544 H   0  0  0  0  0  0  0  0  0  0  0  0
   59.8562   28.1380   48.2174 H   0  0  0  0  0  0  0  0  0  0  0  0
   60.3672   25.7818   47.5647 H   0  0  0  0  0  0  0  0  0  0  0  0
   57.0729   25.8438   44.7617 H   0  0  0  0  0  0  0  0  0  0  0  0
   58.4830   31.9238   47.2133 H   0  0  0  0  0  0  0  0  0  0  0  0
  1  2  1  0
  2  3  1  0
  3  4  1  0
  4  5  1  0
  3  6  1  0
  6  7  2  0
  6  8  2  0
  6  9  1  0
  9 10  2  0
 10 11  1  0
 11 12  2  0
 12 13  1  0
 13 14  1  0
 14 15  1  0
 15 16  1  0
 16 17  2  0
 16 18  1  0
 18 19  1  0
 19 20  2  0
 20 21  1  0
 21 22  2  0
 22 23  1  0
 23 24  1  0
 23 25  2  0
 13 26  2  0
 26  9  1  0
 25 19  1  0
  1 27  1  0
  1 28  1  0
  1 29  1  0
  2 30  1  0
  2 31  1  0
  4 32  1  0
  4 33  1  0
  5 34  1  0
  5 35  1  0
  5 36  1  0
 10 37  1  0
 11 38  1  0
 12 39  1  0
 14 40  1  0
 15 41  1  0
 15 42  1  0
 20 43  1  0
 21 44  1  0
 22 45  1  0
 25 46  1  0
 26 47  1  0
M  CHG  1  18  -1
M  END
>  <UniqueID>  (18) 
17

>  <SMILES>  (18) 
CCN(CC)S(=O)(=O)c1cccc(NCC(=O)[N-]c2cccc(F)c2)c1

>  <Energy>  (18) 
49.70163505142361

>  <Genealogy>  (18) 
CCN(CC)S(=O)(=O)c1cccc(NCC(=O)[N-]c2cccc(F)c2)c1 (protonated)
CCN(CC)S(=O)(=O)c1cccc(NCC(=O)[N-]c2cccc(F)c2)c1 (3D coordinates assigned)
CCN(CC)S(=O)(=O)c1cccc(NCC(=O)[N-]c2cccc(F)c2)c1 (optimized conformer: 49.70163505142361 kcal/mol)

>  <smiles>  (18) 
CCN(CC)S(=O)(=O)c1cccc(NCC(=O)Nc2cccc(F)c2)c1

>  <score_type>  (18) 
oracle

>  <origin>  (18) 
adg

>  <m_score__min__energy>  (18) 
-10.25

>  <m_primary>  (18) 
energy

$$$$
18:0
     RDKit          3D

 52 55  0  0  0  0  0  0  0  0999 V2000
   63.3750   33.8400   46.4130 C   0  0  0  0  0  0  0  0  0  0  0  0
   63.4530   33.8700   47.9460 C   0  0  0  0  0  0  0  0  0  0  0  0
   64.1130   32.6870   48.5600 N   0  0  1  0  0  0  0  0  0  0  0  0
   65.0320   33.0880   49.6420 C   0  0  0  0  0  0  0  0  0  0  0  0
   63.1800   31.6410   49.0530 C   0  0  0  0  0  0  0  0  0  0  0  0
   62.2620   31.0510   47.9660 C   0  0  0  0  0  0  0  0  0  0  0  0
   60.9030   31.5800   48.0750 N   0  0  0  0  0  0  0  0  0  0  0  0
   59.9310   31.3630   47.0430 C   0  0  0  0  0  0  0  0  0  0  0  0
   59.4560   30.0790   46.7900 C   0  0  0  0  0  0  0  0  0  0  0  0
   58.4880   29.8580   45.8290 C   0  0  0  0  0  0  0  0  0  0  0  0
   58.0440   30.8590   45.0030 N   0  0  0  0  0  0  0  0  0  0  0  0
   57.2700   30.5290   43.7940 C   0  0  0  0  0  0  0  0  0  0  0  0
   58.3990   32.1660   45.2970 C   0  0  0  0  0  0  0  0  0  0  0  0
   57.8100   33.2660   44.6280 C   0  0  0  0  0  0  0  0  0  0  0  0
   58.2040   34.5730   44.9120 C   0  0  0  0  0  0  0  0  0  0  0  0
   59.1810   34.8210   45.8720 C   0  0  0  0  0  0  0  0  0  0  0  0
   59.7570   33.7650   46.5740 C   0  0  0  0  0  0  0  0  0  0  0  0
   59.3680   32.4360   46.3180 C   0  0  0  0  0  0  0  0  0  0  0  0
   58.0950   28.4450   45.9070 C   0  0  0  0  0  0  0  0  0  0  0  0
   57.0330   27.7390   45.3210 C   0  0  0  0  0  0  0  0  0  0  0  0
   56.8530   26.3890   45.6570 C   0  0  0  0  0  0  0  0  0  0  0  0
   57.6940   25.7700   46.5980 C   0  0  0  0  0  0  0  0  0  0  0  0
   58.7080   26.5050   47.2280 C   0  0  0  0  0  0  0  0  0  0  0  0
   58.8840   27.8440   46.8770 C   0  0  0  0  0  0  0  0  0  0  0  0
   59.8220   28.8160   47.5140 C   0  0  0  0  0  0  0  0  0  0  0  0
   62.3898   33.4611   46.1033 H   0  0  0  0  0  0  0  0  0  0  0  0
   63.5172   34.8570   46.0186 H   0  0  0  0  0  0  0  0  0  0  0  0
   64.1620   33.1804   46.0186 H   0  0  0  0  0  0  0  0  0  0  0  0
   64.0151   34.7678   48.2426 H   0  0  0  0  0  0  0  0  0  0  0  0
   62.4146   33.8686   48.3091 H   0  0  0  0  0  0  0  0  0  0  0  0
   64.7160   32.2610   47.8190 H   0  0  0  0  0  0  0  0  0  0  0  0
   64.5632   32.8835   50.6159 H   0  0  0  0  0  0  0  0  0  0  0  0
   65.9682   32.5166   49.5585 H   0  0  0  0  0  0  0  0  0  0  0  0
   65.2498   34.1630   49.5585 H   0  0  0  0  0  0  0  0  0  0  0  0
   63.7756   30.8224   49.4832 H   0  0  0  0  0  0  0  0  0  0  0  0
   62.5245   32.1249   49.7920 H   0  0  0  0  0  0  0  0  0  0  0  0
   62.6680   31.3069   46.9762 H   0  0  0  0  0  0  0  0  0  0  0  0
   62.2220   29.9599   48.0994 H   0  0  0  0  0  0  0  0  0  0  0  0
   60.6770   32.2450   48.8470 H   0  0  0  0  0  0  0  0  0  0  0  0
   56.2943   30.1130   44.0855 H   0  0  0  0  0  0  0  0  0  0  0  0
   57.1166   31.4400   43.1968 H   0  0  0  0  0  0  0  0  0  0  0  0
   57.8211   29.7876   43.1968 H   0  0  0  0  0  0  0  0  0  0  0  0
   57.0302   33.0869   43.8732 H   0  0  0  0  0  0  0  0  0  0  0  0
   57.7401   35.4130   44.3743 H   0  0  0  0  0  0  0  0  0  0  0  0
   59.4990   35.8539   46.0768 H   0  0  0  0  0  0  0  0  0  0  0  0
   60.5233   33.9711   47.3358 H   0  0  0  0  0  0  0  0  0  0  0  0
   56.3544   28.2350   44.6114 H   0  0  0  0  0  0  0  0  0  0  0  0
   56.0478   25.8105   45.1806 H   0  0  0  0  0  0  0  0  0  0  0  0
   57.5561   24.7060   46.8407 H   0  0  0  0  0  0  0  0  0  0  0  0
   59.3529   26.0349   47.9850 H   0  0  0  0  0  0  0  0  0  0  0  0
   59.6414   28.9029   48.5956 H   0  0  0  0  0  0  0  0  0  0  0  0
   60.8840   28.5397   47.4377 H   0  0  0  0  0  0  0  0  0  0  0  0
  1  2  1  0
  2  3  1  0
  3  4  1  0
  3  5  1  0
  5  6  1  0
  6  7  1  0
  7  8  1  0
  8  9  2  0
  9 10  1  0
 10 11  2  0
 11 12  1  0
 11 13  1  0
 13 14  2  0
 14 15  1  0
 15 16  2  0
 16 17  1  0
 17 18  2  0
 10 19  1  0
 19 20  2  0
 20 21  1  0
 21 22  2  0
 22 23  1  0
 23 24  2  0
 24 25  1  0
 18  8  1  0
 24 19  1  0
 25  9  1  0
 18 13  1  0
  1 26  1  0
  1 27  1  0
  1 28  1  0
  2 29  1  0
  2 30  1  0
  3 31  1  6
  4 32  1  0
  4 33  1  0
  4 34  1  0
  5 35  1  0
  5 36  1  0
  6 37  1  0
  6 38  1  0
  7 39  1  0
 12 40  1  0
 12 41  1  0
 12 42  1  0
 14 43  1  0
 15 44  1  0
 16 45  1  0
 17 46  1  0
 20 47  1  0
 21 48  1  0
 22 49  1  0
 23 50  1  0
 25 51  1  0
 25 52  1  0
M  CHG  2   3   1  11   1
M  END
>  <UniqueID>  (19) 
18

>  <SMILES>  (19) 
CC[N@@H+](C)CCNc1c2c([n+](C)c3ccccc13)-c1ccccc1C2

>  <Energy>  (19) 
99.64515404519787

>  <Genealogy>  (19) 
CC[NH+](C)CCNc1c2c([n+](C)c3ccccc13)-c1ccccc1C2 (protonated)
CC[N@@H+](C)CCNc1c2c([n+](C)c3ccccc13)-c1ccccc1C2 (chirality)
CC[N@@H+](C)CCNc1c2c([n+](C)c3ccccc13)-c1ccccc1C2 (3D coordinates assigned)
CC[N@@H+](C)CCNc1c2c([n+](C)c3ccccc13)-c1ccccc1C2 (nonaromatic ring conformer: 99.64515404519787 kcal/mol)

>  <smiles>  (19) 
CCN(C)CCNc1c2c([n+](C)c3ccccc13)-c1ccccc1C2

>  <score_type>  (19) 
oracle

>  <origin>  (19) 
adg

>  <m_score__min__energy>  (19) 
-5.2300000000000004

>  <m_primary>  (19) 
energy

$$$$
19:0
     RDKit          3D

 42 44  0  0  0  0  0  0  0  0999 V2000
   64.0110   32.6020   48.6740 C   0  0  0  0  0  0  0  0  0  0  0  0
   63.3510   33.7760   48.2040 O   0  0  0  0  0  0  0  0  0  0  0  0
   62.0070   33.8190   47.8060 C   0  0  0  0  0  0  0  0  0  0  0  0
   60.9450   33.8610   48.7300 C   0  0  0  0  0  0  0  0  0  0  0  0
   59.6210   33.8950   48.2840 C   0  0  0  0  0  0  0  0  0  0  0  0
   59.3290   33.8880   46.9060 C   0  0  0  0  0  0  0  0  0  0  0  0
   57.9780   33.9020   46.3930 N   0  0  0  0  0  0  0  0  0  0  0  0
   57.4180   33.0440   45.3380 C   0  0  1  0  0  0  0  0  0  0  0  0
   57.9240   33.4430   43.9300 C   0  0  0  0  0  0  0  0  0  0  0  0
   58.1450   32.2380   43.0040 C   0  0  0  0  0  0  0  0  0  0  0  0
   57.0610   31.1750   43.2020 C   0  0  0  0  0  0  0  0  0  0  0  0
   57.0210   30.7120   44.6000 N   0  0  0  0  0  0  0  0  0  0  0  0
   56.4040   29.4410   44.8880 C   0  0  0  0  0  0  0  0  0  0  0  0
   55.1480   29.3420   44.8330 O   0  0  0  0  0  0  0  0  0  0  0  0
   57.2030   28.2490   45.2460 C   0  0  0  0  0  0  0  0  0  0  0  0
   58.5300   28.0480   44.9170 C   0  0  0  0  0  0  0  0  0  0  0  0
   58.8660   26.8170   45.4450 C   0  0  0  0  0  0  0  0  0  0  0  0
   57.7300   26.3440   46.0670 C   0  0  0  0  0  0  0  0  0  0  0  0
   56.7580   27.2180   45.9320 O   0  0  0  0  0  0  0  0  0  0  0  0
   57.5790   31.5490   45.6750 C   0  0  0  0  0  0  0  0  0  0  0  0
   60.3960   33.8460   45.9940 C   0  0  0  0  0  0  0  0  0  0  0  0
   61.7190   33.8150   46.4400 C   0  0  0  0  0  0  0  0  0  0  0  0
   64.0132   32.5981   49.7740 H   0  0  0  0  0  0  0  0  0  0  0  0
   63.4815   31.7112   48.3052 H   0  0  0  0  0  0  0  0  0  0  0  0
   65.0473   32.5914   48.3052 H   0  0  0  0  0  0  0  0  0  0  0  0
   61.1589   33.8671   49.8090 H   0  0  0  0  0  0  0  0  0  0  0  0
   58.7999   33.9275   49.0153 H   0  0  0  0  0  0  0  0  0  0  0  0
   57.3030   34.5530   46.8500 H   0  0  0  0  0  0  0  0  0  0  0  0
   56.3322   33.2166   45.3022 H   0  0  0  0  0  0  0  0  0  0  0  0
   57.1807   34.1085   43.4667 H   0  0  0  0  0  0  0  0  0  0  0  0
   58.8973   33.9388   44.0602 H   0  0  0  0  0  0  0  0  0  0  0  0
   58.1233   32.5809   41.9591 H   0  0  0  0  0  0  0  0  0  0  0  0
   59.1191   31.7886   43.2472 H   0  0  0  0  0  0  0  0  0  0  0  0
   56.0836   31.6051   42.9379 H   0  0  0  0  0  0  0  0  0  0  0  0
   57.2926   30.3154   42.5559 H   0  0  0  0  0  0  0  0  0  0  0  0
   59.1837   28.7282   44.3513 H   0  0  0  0  0  0  0  0  0  0  0  0
   59.8428   26.3151   45.3821 H   0  0  0  0  0  0  0  0  0  0  0  0
   57.6497   25.3825   46.5952 H   0  0  0  0  0  0  0  0  0  0  0  0
   57.0496   31.3312   46.6143 H   0  0  0  0  0  0  0  0  0  0  0  0
   58.6503   31.3228   45.7804 H   0  0  0  0  0  0  0  0  0  0  0  0
   60.1869   33.8374   44.9141 H   0  0  0  0  0  0  0  0  0  0  0  0
   62.5407   33.7872   45.7092 H   0  0  0  0  0  0  0  0  0  0  0  0
  1  2  1  0
  2  3  1  0
  3  4  2  0
  4  5  1  0
  5  6  2  0
  6  7  1  0
  7  8  1  0
  8  9  1  0
  9 10  1  0
 10 11  1  0
 11 12  1  0
 12 13  1  0
 13 14  2  0
 13 15  1  0
 15 16  2  0
 16 17  1  0
 17 18  2  0
 18 19  1  0
 12 20  1  0
  6 21  1  0
 21 22  2  0
 22  3  1  0
 20  8  1  0
 19 15  1  0
  1 23  1  0
  1 24  1  0
  1 25  1  0
  4 26  1  0
  5 27  1  0
  7 28  1  0
  8 29  1  6
  9 30  1  0
  9 31  1  0
 10 32  1  0
 10 33  1  0
 11 34  1  0
 11 35  1  0
 16 36  1  0
 17 37  1  0
 18 38  1  0
 20 39  1  0
 20 40  1  0
 21 41  1  0
 22 42  1  0
M  END
>  <UniqueID>  (20) 
19

>  <SMILES>  (20) 
COc1ccc(N[C@H]2CCCN(C(=O)c3ccco3)C2)cc1

>  <Energy>  (20) 
74.79078551116648

>  <Genealogy>  (20) 
COc1ccc(N[C@H]2CCCN(C(=O)c3ccco3)C2)cc1 (chirality)
COc1ccc(N[C@H]2CCCN(C(=O)c3ccco3)C2)cc1 (3D coordinates assigned)
COc1ccc(N[C@H]2CCCN(C(=O)c3ccco3)C2)cc1 (nonaromatic ring conformer: 74.79078551116648 kcal/mol)

>  <smiles>  (20) 
COc1ccc(NC2CCCN(C(=O)c3ccco3)C2)cc1

>  <score_type>  (20) 
oracle

>  <origin>  (20) 
adg

>  <m_score__min__energy>  (20) 
-7.3300000000000001

>  <m_primary>  (20) 
energy

$$$$
20:0
     RDKit          3D

 37 38  0  0  0  0  0  0  0  0999 V2000
   56.9760   20.7180   42.7700 C   0  0  0  0  0  0  0  0  0  0  0  0
   55.9800   21.7290   42.8780 O   0  0  0  0  0  0  0  0  0  0  0  0
   56.0560   22.8260   43.7500 C   0  0  0  0  0  0  0  0  0  0  0  0
   56.9850   23.8690   43.5730 C   0  0  0  0  0  0  0  0  0  0  0  0
   57.0210   24.9410   44.4710 C   0  0  0  0  0  0  0  0  0  0  0  0
   56.1260   24.9910   45.5500 C   0  0  0  0  0  0  0  0  0  0  0  0
   56.2050   26.1150   46.5470 C   0  0  0  0  0  0  0  0  0  0  0  0
   56.7790   27.2990   45.9020 N   0  0  0  0  0  0  0  0  0  0  0  0
   58.2250   27.3680   46.1370 C   0  0  0  0  0  0  0  0  0  0  0  0
   58.9810   27.4850   44.8110 C   0  0  0  0  0  0  0  0  0  0  0  0
   59.5410   29.1980   44.4960 S   0  0  0  0  0  0  0  0  0  0  0  0
   57.9010   29.9310   44.5180 C   0  0  0  0  0  0  0  0  0  0  0  0
   56.7650   29.2790   44.2250 N   0  0  0  0  0  0  0  0  0  0  0  0
   55.7860   30.1600   44.3580 N   0  0  0  0  0  0  0  0  0  0  0  0
   56.2960   31.3270   44.7320 N   0  0  0  0  0  0  0  0  0  0  0  0
   57.6080   31.2000   44.8530 N   0  0  0  0  0  0  0  0  0  0  0  0
   58.5240   32.2830   45.1830 C   0  0  0  0  0  0  0  0  0  0  0  0
   55.2110   23.9440   45.7350 C   0  0  0  0  0  0  0  0  0  0  0  0
   55.1750   22.8740   44.8360 C   0  0  0  0  0  0  0  0  0  0  0  0
   57.2878   20.4015   43.7763 H   0  0  0  0  0  0  0  0  0  0  0  0
   56.5652   19.8553   42.2251 H   0  0  0  0  0  0  0  0  0  0  0  0
   57.8448   21.1159   42.2251 H   0  0  0  0  0  0  0  0  0  0  0  0
   57.6853   23.8408   42.7252 H   0  0  0  0  0  0  0  0  0  0  0  0
   57.7546   25.7485   44.3304 H   0  0  0  0  0  0  0  0  0  0  0  0
   55.1955   26.3507   46.9149 H   0  0  0  0  0  0  0  0  0  0  0  0
   56.8411   25.8124   47.3919 H   0  0  0  0  0  0  0  0  0  0  0  0
   56.6240   27.2100   44.8700 H   0  0  0  0  0  0  0  0  0  0  0  0
   58.4486   28.2469   46.7595 H   0  0  0  0  0  0  0  0  0  0  0  0
   58.5456   26.4483   46.6483 H   0  0  0  0  0  0  0  0  0  0  0  0
   59.8593   26.8235   44.8425 H   0  0  0  0  0  0  0  0  0  0  0  0
   58.2961   27.1951   44.0006 H   0  0  0  0  0  0  0  0  0  0  0  0
   56.6500   28.2800   43.9460 H   0  0  0  0  0  0  0  0  0  0  0  0
   58.6029   32.3762   46.2762 H   0  0  0  0  0  0  0  0  0  0  0  0
   59.5163   32.0654   44.7610 H   0  0  0  0  0  0  0  0  0  0  0  0
   58.1448   33.2254   44.7610 H   0  0  0  0  0  0  0  0  0  0  0  0
   54.5195   23.9649   46.5902 H   0  0  0  0  0  0  0  0  0  0  0  0
   54.4474   22.0624   44.9837 H   0  0  0  0  0  0  0  0  0  0  0  0
  1  2  1  0
  2  3  1  0
  3  4  2  0
  4  5  1  0
  5  6  2  0
  6  7  1  0
  7  8  1  0
  8  9  1  0
  9 10  1  0
 10 11  1  0
 11 12  1  0
 12 13  2  0
 13 14  1  0
 14 15  2  0
 15 16  1  0
 16 17  1  0
  6 18  1  0
 18 19  2  0
 19  3  1  0
 16 12  1  0
  1 20  1  0
  1 21  1  0
  1 22  1  0
  4 23  1  0
  5 24  1  0
  7 25  1  0
  7 26  1  0
  8 27  1  0
  9 28  1  0
  9 29  1  0
 10 30  1  0
 10 31  1  0
 13 32  1  0
 17 33  1  0
 17 34  1  0
 17 35  1  0
 18 36  1  0
 19 37  1  0
M  CHG  1  13   1
M  END
>  <UniqueID>  (21) 
20

>  <SMILES>  (21) 
COc1ccc(CNCCSc2[nH+]nnn2C)cc1

>  <Energy>  (21) 
68.50507914513108

>  <Genealogy>  (21) 
COc1ccc(CNCCSc2[nH+]nnn2C)cc1 (protonated)
COc1ccc(CNCCSc2[nH+]nnn2C)cc1 (3D coordinates assigned)
COc1ccc(CNCCSc2[nH+]nnn2C)cc1 (optimized conformer: 68.50507914513108 kcal/mol)

>  <smiles>  (21) 
COc1ccc(CNCCSc2nnnn2C)cc1

>  <score_type>  (21) 
oracle

>  <origin>  (21) 
adg

>  <m_score__min__energy>  (21) 
-5.2800000000000002

>  <m_primary>  (21) 
energy

$$$$
21:0
     RDKit          3D

 36 37  0  0  0  0  0  0  0  0999 V2000
   56.6120   30.3810   42.6210 C   0  0  0  0  0  0  0  0  0  0  0  0
   55.5460   29.7580   43.5080 C   0  0  0  0  0  0  0  0  0  0  0  0
   56.0080   29.7230   44.8540 O   0  0  0  0  0  0  0  0  0  0  0  0
   57.2460   30.2450   45.2420 C   0  0  0  0  0  0  0  0  0  0  0  0
   57.4350   31.4920   45.2430 O   0  0  0  0  0  0  0  0  0  0  0  0
   58.3310   29.2940   45.6790 C   0  0  1  0  0  0  0  0  0  0  0  0
   59.7200   29.6610   45.0810 C   0  0  0  0  0  0  0  0  0  0  0  0
   60.5450   28.3700   45.3040 C   0  0  0  0  0  0  0  0  0  0  0  0
   59.5290   27.4270   45.9940 C   0  0  1  0  0  0  0  0  0  0  0  0
   59.9350   25.9480   45.9960 C   0  0  0  0  0  0  0  0  0  0  0  0
   59.3190   28.0240   47.3640 C   0  0  0  0  0  0  0  0  0  0  0  0
   59.7980   27.6070   48.4080 O   0  0  0  0  0  0  0  0  0  0  0  0
   58.5100   29.2730   47.2260 C   0  0  0  0  0  0  0  0  0  0  0  0
   58.1870   27.7840   45.3100 C   0  0  0  0  0  0  0  0  0  0  0  0
   56.9490   27.0740   45.9460 C   0  0  0  0  0  0  0  0  0  0  0  0
   58.1440   27.4730   43.7810 C   0  0  0  0  0  0  0  0  0  0  0  0
   57.3915   30.8366   43.2493 H   0  0  0  0  0  0  0  0  0  0  0  0
   57.0611   29.6032   41.9859 H   0  0  0  0  0  0  0  0  0  0  0  0
   56.1547   31.1540   41.9859 H   0  0  0  0  0  0  0  0  0  0  0  0
   54.6259   30.3582   43.4519 H   0  0  0  0  0  0  0  0  0  0  0  0
   55.3377   28.7336   43.1657 H   0  0  0  0  0  0  0  0  0  0  0  0
   59.6394   29.8990   44.0101 H   0  0  0  0  0  0  0  0  0  0  0  0
   60.1713   30.5504   45.5451 H   0  0  0  0  0  0  0  0  0  0  0  0
   60.8890   27.9497   44.3474 H   0  0  0  0  0  0  0  0  0  0  0  0
   61.4577   28.5338   45.8957 H   0  0  0  0  0  0  0  0  0  0  0  0
   60.0317   25.5957   47.0336 H   0  0  0  0  0  0  0  0  0  0  0  0
   59.1661   25.3560   45.4779 H   0  0  0  0  0  0  0  0  0  0  0  0
   60.8983   25.8315   45.4779 H   0  0  0  0  0  0  0  0  0  0  0  0
   57.5456   29.1972   47.7496 H   0  0  0  0  0  0  0  0  0  0  0  0
   58.9665   30.1764   47.6567 H   0  0  0  0  0  0  0  0  0  0  0  0
   57.0247   27.1174   47.0425 H   0  0  0  0  0  0  0  0  0  0  0  0
   56.0285   27.5815   45.6216 H   0  0  0  0  0  0  0  0  0  0  0  0
   56.9222   26.0233   45.6216 H   0  0  0  0  0  0  0  0  0  0  0  0
   57.9948   26.3936   43.6304 H   0  0  0  0  0  0  0  0  0  0  0  0
   57.3138   28.0261   43.3175 H   0  0  0  0  0  0  0  0  0  0  0  0
   59.0931   27.7801   43.3175 H   0  0  0  0  0  0  0  0  0  0  0  0
  1  2  1  0
  2  3  1  0
  3  4  1  0
  4  5  2  0
  6  4  1  1
  6  7  1  0
  7  8  1  0
  8  9  1  0
  9 10  1  1
  9 11  1  0
 11 12  2  0
 11 13  1  0
  9 14  1  0
 14 15  1  0
 14 16  1  0
 13  6  1  0
 14  6  1  0
  1 17  1  0
  1 18  1  0
  1 19  1  0
  2 20  1  0
  2 21  1  0
  7 22  1  0
  7 23  1  0
  8 24  1  0
  8 25  1  0
 10 26  1  0
 10 27  1  0
 10 28  1  0
 13 29  1  0
 13 30  1  0
 15 31  1  0
 15 32  1  0
 15 33  1  0
 16 34  1  0
 16 35  1  0
 16 36  1  0
M  END
>  <UniqueID>  (22) 
21

>  <SMILES>  (22) 
CCOC(=O)[C@@]12CC[C@@](C)(C(=O)C1)C2(C)C

>  <Energy>  (22) 
70.55768511983193

>  <Genealogy>  (22) 
CCOC(=O)[C@@]12CC[C@@](C)(C(=O)C1)C2(C)C (chirality)
CCOC(=O)[C@@]12CC[C@@](C)(C(=O)C1)C2(C)C (3D coordinates assigned)
CCOC(=O)[C@@]12CC[C@@](C)(C(=O)C1)C2(C)C (nonaromatic ring conformer: 70.55768511983193 kcal/mol)

>  <smiles>  (22) 
CCOC(=O)C12CCC(C)(C(=O)C1)C2(C)C

>  <score_type>  (22) 
oracle

>  <origin>  (22) 
adg

>  <m_score__min__energy>  (22) 
-6.2300000000000004

>  <m_primary>  (22) 
energy

$$$$
22:0
     RDKit          3D

 81 85  0  0  0  0  0  0  0  0999 V2000
   56.7020   30.4000   42.9650 C   0  0  0  0  0  0  0  0  0  0  0  0
   56.6830   30.8910   44.3040 O   0  0  0  0  0  0  0  0  0  0  0  0
   57.4760   31.9480   44.7770 C   0  0  0  0  0  0  0  0  0  0  0  0
   57.7270   33.0950   43.9990 C   0  0  0  0  0  0  0  0  0  0  0  0
   58.5350   34.1170   44.4920 C   0  0  0  0  0  0  0  0  0  0  0  0
   59.0780   34.0230   45.7710 C   0  0  0  0  0  0  0  0  0  0  0  0
   58.8290   32.8980   46.5720 C   0  0  0  0  0  0  0  0  0  0  0  0
   59.3210   32.9300   47.9610 C   0  0  0  0  0  0  0  0  0  0  0  0
   58.5430   32.4030   48.9930 C   0  0  0  0  0  0  0  0  0  0  0  0
   59.0270   32.3480   50.3090 C   0  0  0  0  0  0  0  0  0  0  0  0
   58.1920   31.6300   51.2930 C   0  0  0  0  0  0  0  0  0  0  0  0
   57.0930   32.2690   51.8820 C   0  0  0  0  0  0  0  0  0  0  0  0
   56.2840   31.5820   52.7910 C   0  0  0  0  0  0  0  0  0  0  0  0
   56.5640   30.2520   53.1310 C   0  0  0  0  0  0  0  0  0  0  0  0
   55.6720   29.5860   53.9870 O   0  0  0  0  0  0  0  0  0  0  0  0
   54.2690   29.4410   53.7660 C   0  0  0  0  0  0  0  0  0  0  0  0
   53.9390   29.2580   52.2780 C   0  0  0  0  0  0  0  0  0  0  0  0
   53.2220   30.4450   51.7520 N   0  0  0  0  0  0  0  0  0  0  0  0
   52.5490   30.1430   50.4760 C   0  0  0  0  0  0  0  0  0  0  0  0
   52.2280   30.9270   52.7250 C   0  0  0  0  0  0  0  0  0  0  0  0
   57.7130   29.6380   52.5960 C   0  0  0  0  0  0  0  0  0  0  0  0
   58.5220   30.3250   51.6860 C   0  0  0  0  0  0  0  0  0  0  0  0
   60.3200   32.8710   50.6080 C   0  0  0  0  0  0  0  0  0  0  0  0
   60.8860   32.9250   51.9120 C   0  0  0  0  0  0  0  0  0  0  0  0
   60.1310   32.6440   53.1020 N   0  0  0  0  0  0  0  0  0  0  0  0
   60.6290   31.6370   54.0450 C   0  0  0  0  0  0  0  0  0  0  0  0
   61.0890   32.3170   55.3480 C   0  0  0  0  0  0  0  0  0  0  0  0
   61.2820   33.7100   55.1570 O   0  0  0  0  0  0  0  0  0  0  0  0
   60.0410   34.3420   54.8820 C   0  0  0  0  0  0  0  0  0  0  0  0
   59.3060   33.7060   53.6820 C   0  0  0  0  0  0  0  0  0  0  0  0
   62.1700   33.3400   52.0640 N   0  0  0  0  0  0  0  0  0  0  0  0
   62.9290   33.7520   51.0220 C   0  0  0  0  0  0  0  0  0  0  0  0
   64.2920   34.1510   51.2520 N   0  0  0  0  0  0  0  0  0  0  0  0
   65.3850   33.4540   50.5650 C   0  0  0  0  0  0  0  0  0  0  0  0
   64.5560   35.3310   52.0830 C   0  0  0  0  0  0  0  0  0  0  0  0
   62.3940   33.7850   49.7710 N   0  0  0  0  0  0  0  0  0  0  0  0
   61.1210   33.3570   49.5400 C   0  0  0  0  0  0  0  0  0  0  0  0
   60.6140   33.3810   48.2320 C   0  0  0  0  0  0  0  0  0  0  0  0
   58.0440   31.8310   46.0580 C   0  0  0  0  0  0  0  0  0  0  0  0
   57.8050   30.6330   46.7560 O   0  0  0  0  0  0  0  0  0  0  0  0
   58.6210   29.4650   46.6860 C   0  0  0  0  0  0  0  0  0  0  0  0
   56.7445   29.3009   42.9781 H   0  0  0  0  0  0  0  0  0  0  0  0
   55.7906   30.7255   42.4421 H   0  0  0  0  0  0  0  0  0  0  0  0
   57.5855   30.7949   42.4421 H   0  0  0  0  0  0  0  0  0  0  0  0
   57.2826   33.1842   42.9967 H   0  0  0  0  0  0  0  0  0  0  0  0
   58.7445   34.9998   43.8701 H   0  0  0  0  0  0  0  0  0  0  0  0
   59.7079   34.8381   46.1569 H   0  0  0  0  0  0  0  0  0  0  0  0
   57.5342   32.0247   48.7712 H   0  0  0  0  0  0  0  0  0  0  0  0
   56.8662   33.3150   51.6280 H   0  0  0  0  0  0  0  0  0  0  0  0
   55.4196   32.0900   53.2436 H   0  0  0  0  0  0  0  0  0  0  0  0
   53.9109   28.5610   54.3204 H   0  0  0  0  0  0  0  0  0  0  0  0
   53.7727   30.3587   54.1145 H   0  0  0  0  0  0  0  0  0  0  0  0
   54.8738   29.1214   51.7146 H   0  0  0  0  0  0  0  0  0  0  0  0
   53.2934   28.3747   52.1642 H   0  0  0  0  0  0  0  0  0  0  0  0
   51.5624   29.7003   50.6776 H   0  0  0  0  0  0  0  0  0  0  0  0
   52.4234   31.0711   49.8990 H   0  0  0  0  0  0  0  0  0  0  0  0
   53.1589   29.4322   49.8990 H   0  0  0  0  0  0  0  0  0  0  0  0
   52.5972   30.7480   53.7456 H   0  0  0  0  0  0  0  0  0  0  0  0
   52.0639   32.0047   52.5782 H   0  0  0  0  0  0  0  0  0  0  0  0
   51.2801   30.3885   52.5782 H   0  0  0  0  0  0  0  0  0  0  0  0
   57.9753   28.6126   52.8957 H   0  0  0  0  0  0  0  0  0  0  0  0
   59.4206   29.8401   51.2768 H   0  0  0  0  0  0  0  0  0  0  0  0
   59.8250   30.9213   54.2718 H   0  0  0  0  0  0  0  0  0  0  0  0
   61.4817   31.1094   53.5927 H   0  0  0  0  0  0  0  0  0  0  0  0
   60.3236   32.1633   56.1230 H   0  0  0  0  0  0  0  0  0  0  0  0
   62.0461   31.8707   55.6558 H   0  0  0  0  0  0  0  0  0  0  0  0
   59.3993   34.2612   55.7717 H   0  0  0  0  0  0  0  0  0  0  0  0
   60.2498   35.3916   54.6276 H   0  0  0  0  0  0  0  0  0  0  0  0
   58.3501   33.2813   54.0225 H   0  0  0  0  0  0  0  0  0  0  0  0
   59.1182   34.4773   52.9205 H   0  0  0  0  0  0  0  0  0  0  0  0
   66.0676   33.0187   51.3097 H   0  0  0  0  0  0  0  0  0  0  0  0
   64.9705   32.6531   49.9351 H   0  0  0  0  0  0  0  0  0  0  0  0
   65.9363   34.1676   49.9351 H   0  0  0  0  0  0  0  0  0  0  0  0
   64.4937   35.0527   53.1454 H   0  0  0  0  0  0  0  0  0  0  0  0
   65.5626   35.7164   51.8633 H   0  0  0  0  0  0  0  0  0  0  0  0
   63.8096   36.1086   51.8633 H   0  0  0  0  0  0  0  0  0  0  0  0
   62.9810   34.1040   48.9690 H   0  0  0  0  0  0  0  0  0  0  0  0
   61.2418   33.7591   47.4117 H   0  0  0  0  0  0  0  0  0  0  0  0
   58.8599   29.1231   47.7039 H   0  0  0  0  0  0  0  0  0  0  0  0
   58.0799   28.6713   46.1501 H   0  0  0  0  0  0  0  0  0  0  0  0
   59.5524   29.7000   46.1501 H   0  0  0  0  0  0  0  0  0  0  0  0
  1  2  1  0
  2  3  1  0
  3  4  2  0
  4  5  1  0
  5  6  2  0
  6  7  1  0
  7  8  1  0
  8  9  2  0
  9 10  1  0
 10 11  1  0
 11 12  2  0
 12 13  1  0
 13 14  2  0
 14 15  1  0
 15 16  1  0
 16 17  1  0
 17 18  1  0
 18 19  1  0
 18 20  1  0
 14 21  1  0
 21 22  2  0
 10 23  2  0
 23 24  1  0
 24 25  1  0
 25 26  1  0
 26 27  1  0
 27 28  1  0
 28 29  1  0
 29 30  1  0
 24 31  2  0
 31 32  1  0
 32 33  1  0
 33 34  1  0
 33 35  1  0
 32 36  2  0
 36 37  1  0
 37 38  2  0
  7 39  2  0
 39 40  1  0
 40 41  1  0
 39  3  1  0
 38  8  1  0
 22 11  1  0
 37 23  1  0
 30 25  1  0
  1 42  1  0
  1 43  1  0
  1 44  1  0
  4 45  1  0
  5 46  1  0
  6 47  1  0
  9 48  1  0
 12 49  1  0
 13 50  1  0
 16 51  1  0
 16 52  1  0
 17 53  1  0
 17 54  1  0
 19 55  1  0
 19 56  1  0
 19 57  1  0
 20 58  1  0
 20 59  1  0
 20 60  1  0
 21 61  1  0
 22 62  1  0
 26 63  1  0
 26 64  1  0
 27 65  1  0
 27 66  1  0
 29 67  1  0
 29 68  1  0
 30 69  1  0
 30 70  1  0
 34 71  1  0
 34 72  1  0
 34 73  1  0
 35 74  1  0
 35 75  1  0
 35 76  1  0
 36 77  1  0
 38 78  1  0
 41 79  1  0
 41 80  1  0
 41 81  1  0
M  CHG  1  36   1
M  END
>  <UniqueID>  (23) 
22

>  <SMILES>  (23) 
COc1cccc(-c2cc(-c3ccc(OCCN(C)C)cc3)c3c(N4CCOCC4)nc(N(C)C)[nH+]c3c2)c1OC

>  <Energy>  (23) 
123.92871265736636

>  <Genealogy>  (23) 
COc1cccc(-c2cc(-c3ccc(OCCN(C)C)cc3)c3c(N4CCOCC4)nc(N(C)C)[nH+]c3c2)c1OC (protonated)
COc1cccc(-c2cc(-c3ccc(OCCN(C)C)cc3)c3c(N4CCOCC4)nc(N(C)C)[nH+]c3c2)c1OC (3D coordinates assigned)
COc1cccc(-c2cc(-c3ccc(OCCN(C)C)cc3)c3c(N4CCOCC4)nc(N(C)C)[nH+]c3c2)c1OC (nonaromatic ring conformer: 123.92871265736636 kcal/mol)

>  <smiles>  (23) 
COc1cccc(-c2cc(-c3ccc(OCCN(C)C)cc3)c3c(N4CCOCC4)nc(N(C)C)nc3c2)c1OC

>  <score_type>  (23) 
oracle

>  <origin>  (23) 
adg

>  <m_score__min__energy>  (23) 
-6.3099999999999996

>  <m_primary>  (23) 
energy

$$$$
23:0
     RDKit          3D

 65 67  0  0  0  0  0  0  0  0999 V2000
   60.2650   26.5820   47.2240 C   0  0  0  0  0  0  0  0  0  0  0  0
   58.7900   26.3680   46.8830 C   0  0  0  0  0  0  0  0  0  0  0  0
   58.6100   25.8470   45.5100 N   0  0  0  0  0  0  0  0  0  0  0  0
   58.1840   24.4280   45.4340 C   0  0  0  0  0  0  0  0  0  0  0  0
   57.3990   24.0800   44.1610 C   0  0  0  0  0  0  0  0  0  0  0  0
   57.7710   26.7430   44.6790 C   0  0  0  0  0  0  0  0  0  0  0  0
   58.6450   27.5900   43.7520 C   0  0  0  0  0  0  0  0  0  0  0  0
   59.5850   28.3720   44.4910 O   0  0  0  0  0  0  0  0  0  0  0  0
   59.3100   29.5520   45.2060 C   0  0  0  0  0  0  0  0  0  0  0  0
   60.0630   29.8080   46.3550 C   0  0  0  0  0  0  0  0  0  0  0  0
   59.8210   30.9440   47.1270 C   0  0  0  0  0  0  0  0  0  0  0  0
   58.8200   31.8530   46.7570 C   0  0  0  0  0  0  0  0  0  0  0  0
   58.0790   31.6320   45.5770 C   0  0  0  0  0  0  0  0  0  0  0  0
   58.3140   30.4690   44.8220 C   0  0  0  0  0  0  0  0  0  0  0  0
   57.0030   32.6080   45.1430 C   0  0  0  0  0  0  0  0  0  0  0  0
   57.4450   34.0930   45.0620 C   0  0  0  0  0  0  0  0  0  0  0  0
   58.8950   34.4000   45.4970 C   0  0  0  0  0  0  0  0  0  0  0  0
   59.1050   34.3340   46.9690 N   0  0  2  0  0  0  0  0  0  0  0  0
   60.5510   34.5210   47.2710 C   0  0  0  0  0  0  0  0  0  0  0  0
   61.4940   33.6960   46.3590 C   0  0  0  0  0  0  0  0  0  0  0  0
   62.9830   33.7450   46.7500 C   0  0  0  0  0  0  0  0  0  0  0  0
   63.2240   33.2970   48.1680 C   0  0  0  0  0  0  0  0  0  0  0  0
   63.7280   32.0130   48.4290 C   0  0  0  0  0  0  0  0  0  0  0  0
   63.9900   31.6120   49.7430 C   0  0  0  0  0  0  0  0  0  0  0  0
   63.7600   32.4920   50.8030 C   0  0  0  0  0  0  0  0  0  0  0  0
   63.2680   33.7750   50.5520 C   0  0  0  0  0  0  0  0  0  0  0  0
   63.0010   34.1790   49.2400 C   0  0  0  0  0  0  0  0  0  0  0  0
   58.5740   33.0910   47.5930 C   0  0  0  0  0  0  0  0  0  0  0  0
   60.3898   26.6001   48.3167 H   0  0  0  0  0  0  0  0  0  0  0  0
   60.8621   25.7611   46.8003 H   0  0  0  0  0  0  0  0  0  0  0  0
   60.6042   27.5388   46.8003 H   0  0  0  0  0  0  0  0  0  0  0  0
   58.3614   25.6478   47.5955 H   0  0  0  0  0  0  0  0  0  0  0  0
   58.2811   27.3411   46.9473 H   0  0  0  0  0  0  0  0  0  0  0  0
   59.0825   23.7945   45.4706 H   0  0  0  0  0  0  0  0  0  0  0  0
   57.5077   24.2523   46.2835 H   0  0  0  0  0  0  0  0  0  0  0  0
   56.4255   23.6485   44.4370 H   0  0  0  0  0  0  0  0  0  0  0  0
   57.2406   24.9922   43.5670 H   0  0  0  0  0  0  0  0  0  0  0  0
   57.9685   23.3500   43.5670 H   0  0  0  0  0  0  0  0  0  0  0  0
   57.0834   26.1352   44.0725 H   0  0  0  0  0  0  0  0  0  0  0  0
   57.2025   27.4126   45.3412 H   0  0  0  0  0  0  0  0  0  0  0  0
   59.1925   26.9238   43.0690 H   0  0  0  0  0  0  0  0  0  0  0  0
   57.9918   28.2741   43.1905 H   0  0  0  0  0  0  0  0  0  0  0  0
   60.8553   29.1059   46.6538 H   0  0  0  0  0  0  0  0  0  0  0  0
   60.4192   31.1278   48.0317 H   0  0  0  0  0  0  0  0  0  0  0  0
   57.7128   30.2740   43.9217 H   0  0  0  0  0  0  0  0  0  0  0  0
   56.6510   32.3038   44.1462 H   0  0  0  0  0  0  0  0  0  0  0  0
   56.2244   32.5654   45.9188 H   0  0  0  0  0  0  0  0  0  0  0  0
   57.3320   34.4198   44.0178 H   0  0  0  0  0  0  0  0  0  0  0  0
   56.8043   34.6292   45.7775 H   0  0  0  0  0  0  0  0  0  0  0  0
   59.5633   33.6694   45.0178 H   0  0  0  0  0  0  0  0  0  0  0  0
   59.1114   35.4331   45.1875 H   0  0  0  0  0  0  0  0  0  0  0  0
   58.5700   35.1340   47.3750 H   0  0  0  0  0  0  0  0  0  0  0  0
   60.7955   35.5865   47.1487 H   0  0  0  0  0  0  0  0  0  0  0  0
   60.7110   34.1667   48.3000 H   0  0  0  0  0  0  0  0  0  0  0  0
   61.1671   32.6462   46.3905 H   0  0  0  0  0  0  0  0  0  0  0  0
   61.4238   34.1448   45.3572 H   0  0  0  0  0  0  0  0  0  0  0  0
   63.5472   33.0877   46.0720 H   0  0  0  0  0  0  0  0  0  0  0  0
   63.3146   34.7908   46.6698 H   0  0  0  0  0  0  0  0  0  0  0  0
   63.9176   31.3194   47.5966 H   0  0  0  0  0  0  0  0  0  0  0  0
   64.3778   30.6020   49.9420 H   0  0  0  0  0  0  0  0  0  0  0  0
   63.9664   32.1746   51.8358 H   0  0  0  0  0  0  0  0  0  0  0  0
   63.0904   34.4684   51.3873 H   0  0  0  0  0  0  0  0  0  0  0  0
   62.6151   35.1906   49.0460 H   0  0  0  0  0  0  0  0  0  0  0  0
   59.0599   32.9552   48.5705 H   0  0  0  0  0  0  0  0  0  0  0  0
   57.4846   33.2114   47.6868 H   0  0  0  0  0  0  0  0  0  0  0  0
  1  2  1  0
  2  3  1  0
  3  4  1  0
  4  5  1  0
  3  6  1  0
  6  7  1  0
  7  8  1  0
  8  9  1  0
  9 10  2  0
 10 11  1  0
 11 12  2  0
 12 13  1  0
 13 14  2  0
 13 15  1  0
 15 16  1  0
 16 17  1  0
 17 18  1  0
 18 19  1  0
 19 20  1  0
 20 21  1  0
 21 22  1  0
 22 23  2  0
 23 24  1  0
 24 25  2  0
 25 26  1  0
 26 27  2  0
 18 28  1  0
 14  9  1  0
 27 22  1  0
 28 12  1  0
  1 29  1  0
  1 30  1  0
  1 31  1  0
  2 32  1  0
  2 33  1  0
  4 34  1  0
  4 35  1  0
  5 36  1  0
  5 37  1  0
  5 38  1  0
  6 39  1  0
  6 40  1  0
  7 41  1  0
  7 42  1  0
 10 43  1  0
 11 44  1  0
 14 45  1  0
 15 46  1  0
 15 47  1  0
 16 48  1  0
 16 49  1  0
 17 50  1  0
 17 51  1  0
 18 52  1  1
 19 53  1  0
 19 54  1  0
 20 55  1  0
 20 56  1  0
 21 57  1  0
 21 58  1  0
 23 59  1  0
 24 60  1  0
 25 61  1  0
 26 62  1  0
 27 63  1  0
 28 64  1  0
 28 65  1  0
M  CHG  1  18   1
M  END
>  <UniqueID>  (24) 
23

>  <SMILES>  (24) 
CCN(CC)CCOc1ccc2c(c1)CCC[N@H+](CCCc1ccccc1)C2

>  <Energy>  (24) 
78.83997908278815

>  <Genealogy>  (24) 
CCN(CC)CCOc1ccc2c(c1)CCC[NH+](CCCc1ccccc1)C2 (protonated)
CCN(CC)CCOc1ccc2c(c1)CCC[N@H+](CCCc1ccccc1)C2 (chirality)
CCN(CC)CCOc1ccc2c(c1)CCC[N@H+](CCCc1ccccc1)C2 (3D coordinates assigned)
CCN(CC)CCOc1ccc2c(c1)CCC[N@H+](CCCc1ccccc1)C2 (nonaromatic ring conformer: 78.83997908278815 kcal/mol)

>  <smiles>  (24) 
CCN(CC)CCOc1ccc2c(c1)CCCN(CCCc1ccccc1)C2

>  <score_type>  (24) 
oracle

>  <origin>  (24) 
adg

>  <m_score__min__energy>  (24) 
-4.0899999999999999

>  <m_primary>  (24) 
energy

$$$$
24:0
     RDKit          3D

 58 61  0  0  0  0  0  0  0  0999 V2000
   58.9310   35.2140   53.9520 C   0  0  0  0  0  0  0  0  0  0  0  0
   58.2500   34.6960   52.8130 O   0  0  0  0  0  0  0  0  0  0  0  0
   58.7370   33.6590   52.0030 C   0  0  0  0  0  0  0  0  0  0  0  0
   58.0310   32.4570   51.8100 C   0  0  0  0  0  0  0  0  0  0  0  0
   58.5610   31.4520   50.9950 C   0  0  0  0  0  0  0  0  0  0  0  0
   59.8040   31.6260   50.3650 C   0  0  0  0  0  0  0  0  0  0  0  0
   60.3440   30.5940   49.5170 N   0  0  0  0  0  0  0  0  0  0  0  0
   60.4220   30.8120   48.0640 C   0  0  0  0  0  0  0  0  0  0  0  0
   60.7660   29.5180   47.3130 C   0  0  0  0  0  0  0  0  0  0  0  0
   60.0330   28.3790   47.8880 N   0  0  0  0  0  0  0  0  0  0  0  0
   59.5010   27.3470   47.0360 C   0  0  0  0  0  0  0  0  0  0  0  0
   59.6300   26.1380   47.3690 O   0  0  0  0  0  0  0  0  0  0  0  0
   58.7980   27.6720   45.7760 C   0  0  0  0  0  0  0  0  0  0  0  0
   58.4440   29.0040   45.5010 C   0  0  0  0  0  0  0  0  0  0  0  0
   57.7720   29.3290   44.3140 C   0  0  0  0  0  0  0  0  0  0  0  0
   57.2830   30.9920   43.9910 S   0  0  0  0  0  0  0  0  0  0  0  0
   57.2720   31.2430   42.5080 O   0  0  0  0  0  0  0  0  0  0  0  0
   55.8920   31.1990   44.5220 O   0  0  0  0  0  0  0  0  0  0  0  0
   58.3820   32.0990   44.7780 N   0  0  0  0  0  0  0  0  0  0  0  0
   58.3050   33.4250   44.1370 C   0  0  0  0  0  0  0  0  0  0  0  0
   58.8270   34.5160   45.0860 C   0  0  0  0  0  0  0  0  0  0  0  0
   58.1070   34.6180   46.3090 O   0  0  0  0  0  0  0  0  0  0  0  0
   57.4050   33.4340   46.6590 C   0  0  0  0  0  0  0  0  0  0  0  0
   58.1360   32.1460   46.2370 C   0  0  0  0  0  0  0  0  0  0  0  0
   57.4560   28.3200   43.3970 C   0  0  0  0  0  0  0  0  0  0  0  0
   57.8250   26.9980   43.6550 C   0  0  0  0  0  0  0  0  0  0  0  0
   58.4980   26.6710   44.8340 C   0  0  0  0  0  0  0  0  0  0  0  0
   58.8850   25.3870   45.0380 F   0  0  0  0  0  0  0  0  0  0  0  0
   60.0300   28.1680   49.3450 C   0  0  0  0  0  0  0  0  0  0  0  0
   60.7550   29.3010   50.0780 C   0  0  0  0  0  0  0  0  0  0  0  0
   60.5010   32.8310   50.5530 C   0  0  0  0  0  0  0  0  0  0  0  0
   59.9700   33.8350   51.3670 C   0  0  0  0  0  0  0  0  0  0  0  0
   58.4463   34.8453   54.8681 H   0  0  0  0  0  0  0  0  0  0  0  0
   59.9800   34.8835   53.9337 H   0  0  0  0  0  0  0  0  0  0  0  0
   58.8925   36.3132   53.9337 H   0  0  0  0  0  0  0  0  0  0  0  0
   57.0586   32.3075   52.3021 H   0  0  0  0  0  0  0  0  0  0  0  0
   57.9999   30.5177   50.8461 H   0  0  0  0  0  0  0  0  0  0  0  0
   59.4504   31.1839   47.7067 H   0  0  0  0  0  0  0  0  0  0  0  0
   61.2200   31.5437   47.8695 H   0  0  0  0  0  0  0  0  0  0  0  0
   60.4894   29.6293   46.2542 H   0  0  0  0  0  0  0  0  0  0  0  0
   61.8458   29.3294   47.4046 H   0  0  0  0  0  0  0  0  0  0  0  0
   58.6956   29.7964   46.2213 H   0  0  0  0  0  0  0  0  0  0  0  0
   58.9150   33.4200   43.2216 H   0  0  0  0  0  0  0  0  0  0  0  0
   57.2543   33.6404   43.8930 H   0  0  0  0  0  0  0  0  0  0  0  0
   59.8782   34.2940   45.3220 H   0  0  0  0  0  0  0  0  0  0  0  0
   58.7012   35.4760   44.5639 H   0  0  0  0  0  0  0  0  0  0  0  0
   57.2704   33.4175   47.7506 H   0  0  0  0  0  0  0  0  0  0  0  0
   56.4443   33.4541   46.1235 H   0  0  0  0  0  0  0  0  0  0  0  0
   59.1017   32.0980   46.7614 H   0  0  0  0  0  0  0  0  0  0  0  0
   57.4962   31.2910   46.5008 H   0  0  0  0  0  0  0  0  0  0  0  0
   56.9161   28.5687   42.4715 H   0  0  0  0  0  0  0  0  0  0  0  0
   57.5843   26.2104   42.9258 H   0  0  0  0  0  0  0  0  0  0  0  0
   58.9890   28.1229   49.6975 H   0  0  0  0  0  0  0  0  0  0  0  0
   60.5569   27.2263   49.5584 H   0  0  0  0  0  0  0  0  0  0  0  0
   60.4988   29.2680   51.1472 H   0  0  0  0  0  0  0  0  0  0  0  0
   61.8413   29.1787   49.9553 H   0  0  0  0  0  0  0  0  0  0  0  0
   61.4704   32.9852   50.0566 H   0  0  0  0  0  0  0  0  0  0  0  0
   60.5272   34.7728   51.5089 H   0  0  0  0  0  0  0  0  0  0  0  0
  1  2  1  0
  2  3  1  0
  3  4  2  0
  4  5  1  0
  5  6  2  0
  6  7  1  0
  7  8  1  0
  8  9  1  0
  9 10  1  0
 10 11  1  0
 11 12  2  0
 11 13  1  0
 13 14  2  0
 14 15  1  0
 15 16  1  0
 16 17  2  0
 16 18  2  0
 16 19  1  0
 19 20  1  0
 20 21  1  0
 21 22  1  0
 22 23  1  0
 23 24  1  0
 15 25  2  0
 25 26  1  0
 26 27  2  0
 27 28  1  0
 10 29  1  0
 29 30  1  0
  6 31  1  0
 31 32  2  0
 32  3  1  0
 30  7  1  0
 27 13  1  0
 24 19  1  0
  1 33  1  0
  1 34  1  0
  1 35  1  0
  4 36  1  0
  5 37  1  0
  8 38  1  0
  8 39  1  0
  9 40  1  0
  9 41  1  0
 14 42  1  0
 20 43  1  0
 20 44  1  0
 21 45  1  0
 21 46  1  0
 23 47  1  0
 23 48  1  0
 24 49  1  0
 24 50  1  0
 25 51  1  0
 26 52  1  0
 29 53  1  0
 29 54  1  0
 30 55  1  0
 30 56  1  0
 31 57  1  0
 32 58  1  0
M  END
>  <UniqueID>  (25) 
24

>  <SMILES>  (25) 
COc1ccc(N2CCN(C(=O)c3cc(S(=O)(=O)N4CCOCC4)ccc3F)CC2)cc1

>  <Energy>  (25) 
82.0978220865385

>  <Genealogy>  (25) 
COc1ccc(N2CCN(C(=O)c3cc(S(=O)(=O)N4CCOCC4)ccc3F)CC2)cc1 (3D coordinates assigned)
COc1ccc(N2CCN(C(=O)c3cc(S(=O)(=O)N4CCOCC4)ccc3F)CC2)cc1 (nonaromatic ring conformer: 82.0978220865385 kcal/mol)

>  <smiles>  (25) 
COc1ccc(N2CCN(C(=O)c3cc(S(=O)(=O)N4CCOCC4)ccc3F)CC2)cc1

>  <score_type>  (25) 
oracle

>  <origin>  (25) 
adg

>  <m_score__min__energy>  (25) 
-8.2300000000000004

>  <m_primary>  (25) 
energy

$$$$
25:0
     RDKit          3D

 48 51  0  0  0  0  0  0  0  0999 V2000
   55.5410   29.7790   44.5660 O   0  0  0  0  0  0  0  0  0  0  0  0
   56.7750   29.8620   44.8120 C   0  0  0  0  0  0  0  0  0  0  0  0
   57.5340   28.5870   45.0620 C   0  0  0  0  0  0  0  0  0  0  0  0
   58.8230   28.8690   45.6910 N   0  0  0  0  0  0  0  0  0  0  0  0
   59.0380   29.2240   46.9690 C   0  0  0  0  0  0  0  0  0  0  0  0
   60.3970   29.4390   47.0860 C   0  0  0  0  0  0  0  0  0  0  0  0
   61.1370   29.8780   48.3210 C   0  0  0  0  0  0  0  0  0  0  0  0
   61.4080   31.3310   48.3510 N   0  0  0  0  0  0  0  0  0  0  0  0
   62.3910   31.7400   49.3870 C   0  0  0  0  0  0  0  0  0  0  0  0
   63.7270   32.2010   48.7860 C   0  0  0  0  0  0  0  0  0  0  0  0
   63.5280   33.3760   47.8140 C   0  0  0  0  0  0  0  0  0  0  0  0
   62.1680   33.3330   47.0920 C   0  0  0  0  0  0  0  0  0  0  0  0
   61.6340   31.9010   47.0020 C   0  0  0  0  0  0  0  0  0  0  0  0
   60.9710   29.2200   45.8840 N   0  0  0  0  0  0  0  0  0  0  0  0
   59.9890   28.8810   45.0640 N   0  0  0  0  0  0  0  0  0  0  0  0
   57.4330   31.2000   44.8170 C   0  0  0  0  0  0  0  0  0  0  0  0
   57.7270   31.8790   43.6180 C   0  0  0  0  0  0  0  0  0  0  0  0
   58.3360   33.1360   43.6390 C   0  0  0  0  0  0  0  0  0  0  0  0
   58.6680   33.7410   44.8570 C   0  0  0  0  0  0  0  0  0  0  0  0
   59.2810   35.0030   44.8860 C   0  0  0  0  0  0  0  0  0  0  0  0
   59.6100   35.5960   46.1090 C   0  0  0  0  0  0  0  0  0  0  0  0
   59.3280   34.9350   47.3080 C   0  0  0  0  0  0  0  0  0  0  0  0
   58.7170   33.6780   47.2910 C   0  0  0  0  0  0  0  0  0  0  0  0
   58.3820   33.0720   46.0700 C   0  0  0  0  0  0  0  0  0  0  0  0
   57.7690   31.8100   46.0410 C   0  0  0  0  0  0  0  0  0  0  0  0
   56.9426   27.9386   45.7252 H   0  0  0  0  0  0  0  0  0  0  0  0
   57.7120   28.0863   44.0989 H   0  0  0  0  0  0  0  0  0  0  0  0
   58.2829   29.3234   47.7627 H   0  0  0  0  0  0  0  0  0  0  0  0
   60.5327   29.6167   49.2022 H   0  0  0  0  0  0  0  0  0  0  0  0
   62.1094   29.3637   48.3200 H   0  0  0  0  0  0  0  0  0  0  0  0
   61.9631   32.5683   49.9708 H   0  0  0  0  0  0  0  0  0  0  0  0
   62.5951   30.8617   50.0170 H   0  0  0  0  0  0  0  0  0  0  0  0
   64.3952   32.5188   49.6000 H   0  0  0  0  0  0  0  0  0  0  0  0
   64.1648   31.3600   48.2283 H   0  0  0  0  0  0  0  0  0  0  0  0
   63.5946   34.3160   48.3814 H   0  0  0  0  0  0  0  0  0  0  0  0
   64.3120   33.3052   47.0457 H   0  0  0  0  0  0  0  0  0  0  0  0
   61.4470   33.9505   47.6478 H   0  0  0  0  0  0  0  0  0  0  0  0
   62.3033   33.7191   46.0709 H   0  0  0  0  0  0  0  0  0  0  0  0
   60.6825   31.9063   46.4500 H   0  0  0  0  0  0  0  0  0  0  0  0
   62.3793   31.2819   46.4811 H   0  0  0  0  0  0  0  0  0  0  0  0
   60.1230   28.6630   44.0510 H   0  0  0  0  0  0  0  0  0  0  0  0
   57.4740   31.4138   42.6539 H   0  0  0  0  0  0  0  0  0  0  0  0
   58.5559   33.6532   42.6934 H   0  0  0  0  0  0  0  0  0  0  0  0
   59.5032   35.5269   43.9447 H   0  0  0  0  0  0  0  0  0  0  0  0
   60.0917   36.5847   46.1275 H   0  0  0  0  0  0  0  0  0  0  0  0
   59.5877   35.4055   48.2678 H   0  0  0  0  0  0  0  0  0  0  0  0
   58.4980   33.1620   48.2375 H   0  0  0  0  0  0  0  0  0  0  0  0
   57.5483   31.2911   46.9855 H   0  0  0  0  0  0  0  0  0  0  0  0
  1  2  2  0
  2  3  1  0
  3  4  1  0
  4  5  1  0
  5  6  2  0
  6  7  1  0
  7  8  1  0
  8  9  1  0
  9 10  1  0
 10 11  1  0
 11 12  1  0
 12 13  1  0
  6 14  1  0
 14 15  2  0
  2 16  1  0
 16 17  2  0
 17 18  1  0
 18 19  2  0
 19 20  1  0
 20 21  2  0
 21 22  1  0
 22 23  2  0
 23 24  1  0
 24 25  2  0
 15  4  1  0
 25 16  1  0
 13  8  1  0
 24 19  1  0
  3 26  1  0
  3 27  1  0
  5 28  1  0
  7 29  1  0
  7 30  1  0
  9 31  1  0
  9 32  1  0
 10 33  1  0
 10 34  1  0
 11 35  1  0
 11 36  1  0
 12 37  1  0
 12 38  1  0
 13 39  1  0
 13 40  1  0
 15 41  1  0
 17 42  1  0
 18 43  1  0
 20 44  1  0
 21 45  1  0
 22 46  1  0
 23 47  1  0
 25 48  1  0
M  CHG  1  15   1
M  END
>  <UniqueID>  (26) 
25

>  <SMILES>  (26) 
O=C(Cn1cc(CN2CCCCC2)n[nH+]1)c1ccc2ccccc2c1

>  <Energy>  (26) 
97.10145620518945

>  <Genealogy>  (26) 
O=C(Cn1cc(CN2CCCCC2)n[nH+]1)c1ccc2ccccc2c1 (protonated)
O=C(Cn1cc(CN2CCCCC2)n[nH+]1)c1ccc2ccccc2c1 (3D coordinates assigned)
O=C(Cn1cc(CN2CCCCC2)n[nH+]1)c1ccc2ccccc2c1 (nonaromatic ring conformer: 97.10145620518945 kcal/mol)

>  <smiles>  (26) 
O=C(Cn1cc(CN2CCCCC2)nn1)c1ccc2ccccc2c1

>  <score_type>  (26) 
oracle

>  <origin>  (26) 
adg

>  <m_score__min__energy>  (26) 
-8.2300000000000004

>  <m_primary>  (26) 
energy

$$$$
26:0
     RDKit          3D

 42 43  0  0  0  0  0  0  0  0999 V2000
   54.8870   26.3020   45.9660 O   0  0  0  0  0  0  0  0  0  0  0  0
   55.6510   25.1280   45.9860 C   0  0  0  0  0  0  0  0  0  0  0  0
   57.0800   25.3760   45.4680 C   0  0  0  0  0  0  0  0  0  0  0  0
   57.3660   26.8160   45.2250 N   0  0  2  0  0  0  0  0  0  0  0  0
   58.4630   26.9590   44.2280 C   0  0  0  0  0  0  0  0  0  0  0  0
   59.1090   28.3450   44.2870 C   0  0  0  0  0  0  0  0  0  0  0  0
   59.8290   28.5370   45.6410 C   0  0  1  0  0  0  0  0  0  0  0  0
   60.0530   30.0310   45.9560 C   0  0  0  0  0  0  0  0  0  0  0  0
   58.8780   30.6270   46.6080 N   0  0  0  0  0  0  0  0  0  0  0  0
   58.4510   31.8360   45.8960 C   0  0  0  0  0  0  0  0  0  0  0  0
   57.8360   31.4550   44.5780 C   0  0  0  0  0  0  0  0  0  0  0  0
   58.1560   32.1640   43.4110 C   0  0  0  0  0  0  0  0  0  0  0  0
   57.5420   31.8180   42.2050 C   0  0  0  0  0  0  0  0  0  0  0  0
   56.6320   30.8090   42.1690 N   0  0  0  0  0  0  0  0  0  0  0  0
   56.2920   30.1140   43.2860 C   0  0  0  0  0  0  0  0  0  0  0  0
   56.8830   30.4280   44.5130 C   0  0  0  0  0  0  0  0  0  0  0  0
   59.1190   27.7720   46.7880 C   0  0  0  0  0  0  0  0  0  0  0  0
   57.6230   27.5550   46.4990 C   0  0  0  0  0  0  0  0  0  0  0  0
   54.0250   26.0910   46.4100 H   0  0  0  0  0  0  0  0  0  0  0  0
   55.7051   24.7542   47.0191 H   0  0  0  0  0  0  0  0  0  0  0  0
   55.1683   24.3907   45.3277 H   0  0  0  0  0  0  0  0  0  0  0  0
   57.7944   24.9972   46.2138 H   0  0  0  0  0  0  0  0  0  0  0  0
   57.1776   24.8530   44.5052 H   0  0  0  0  0  0  0  0  0  0  0  0
   56.5190   27.2500   44.7840 H   0  0  0  0  0  0  0  0  0  0  0  0
   59.2315   26.1992   44.4331 H   0  0  0  0  0  0  0  0  0  0  0  0
   58.0321   26.8256   43.2247 H   0  0  0  0  0  0  0  0  0  0  0  0
   59.8389   28.4415   43.4697 H   0  0  0  0  0  0  0  0  0  0  0  0
   58.3273   29.1118   44.1825 H   0  0  0  0  0  0  0  0  0  0  0  0
   60.8289   28.0867   45.5541 H   0  0  0  0  0  0  0  0  0  0  0  0
   60.9208   30.1289   46.6248 H   0  0  0  0  0  0  0  0  0  0  0  0
   60.2270   30.5609   45.0079 H   0  0  0  0  0  0  0  0  0  0  0  0
   59.1610   30.9180   47.5730 H   0  0  0  0  0  0  0  0  0  0  0  0
   57.7096   32.3758   46.5034 H   0  0  0  0  0  0  0  0  0  0  0  0
   59.3231   32.4825   45.7187 H   0  0  0  0  0  0  0  0  0  0  0  0
   58.8853   32.9867   43.4452 H   0  0  0  0  0  0  0  0  0  0  0  0
   57.7952   32.3627   41.2835 H   0  0  0  0  0  0  0  0  0  0  0  0
   55.5509   29.3035   43.2245 H   0  0  0  0  0  0  0  0  0  0  0  0
   56.6028   29.8738   45.4209 H   0  0  0  0  0  0  0  0  0  0  0  0
   59.6021   26.7917   46.9129 H   0  0  0  0  0  0  0  0  0  0  0  0
   59.2033   28.3775   47.7025 H   0  0  0  0  0  0  0  0  0  0  0  0
   57.1871   26.9804   47.3295 H   0  0  0  0  0  0  0  0  0  0  0  0
   57.1643   28.5495   46.3960 H   0  0  0  0  0  0  0  0  0  0  0  0
  1  2  1  0
  2  3  1  0
  3  4  1  0
  4  5  1  0
  5  6  1  0
  6  7  1  0
  7  8  1  0
  8  9  1  0
  9 10  1  0
 10 11  1  0
 11 12  2  0
 12 13  1  0
 13 14  2  0
 14 15  1  0
 15 16  2  0
  7 17  1  0
 17 18  1  0
 18  4  1  0
 16 11  1  0
  1 19  1  0
  2 20  1  0
  2 21  1  0
  3 22  1  0
  3 23  1  0
  4 24  1  6
  5 25  1  0
  5 26  1  0
  6 27  1  0
  6 28  1  0
  7 29  1  6
  8 30  1  0
  8 31  1  0
  9 32  1  0
 10 33  1  0
 10 34  1  0
 12 35  1  0
 13 36  1  0
 15 37  1  0
 16 38  1  0
 17 39  1  0
 17 40  1  0
 18 41  1  0
 18 42  1  0
M  CHG  1   4   1
M  END
>  <UniqueID>  (27) 
26

>  <SMILES>  (27) 
OCC[NH+]1CCC(CNCc2ccncc2)CC1

>  <Energy>  (27) 
49.07292718190047

>  <Genealogy>  (27) 
OCC[NH+]1CCC(CNCc2ccncc2)CC1 (protonated)
OCC[NH+]1CCC(CNCc2ccncc2)CC1 (3D coordinates assigned)
OCC[NH+]1CCC(CNCc2ccncc2)CC1 (nonaromatic ring conformer: 49.07292718190047 kcal/mol)

>  <smiles>  (27) 
OCCN1CCC(CNCc2ccncc2)CC1

>  <score_type>  (27) 
oracle

>  <origin>  (27) 
adg

>  <m_score__min__energy>  (27) 
-5.1900000000000004

>  <m_primary>  (27) 
energy

$$$$
27:0
     RDKit          3D

 64 67  0  0  0  0  0  0  0  0999 V2000
   63.0950   33.7530   46.6560 C   0  0  0  0  0  0  0  0  0  0  0  0
   62.6040   33.7230   48.1020 C   0  0  0  0  0  0  0  0  0  0  0  0
   62.6040   32.3390   48.6290 N   0  0  0  0  0  0  0  0  0  0  0  0
   63.9290   31.9040   49.1370 C   0  0  0  0  0  0  0  0  0  0  0  0
   64.8910   33.0520   49.4830 C   0  0  0  0  0  0  0  0  0  0  0  0
   61.5160   32.1080   49.6050 C   0  0  0  0  0  0  0  0  0  0  0  0
   60.4900   31.1200   49.0390 C   0  0  0  0  0  0  0  0  0  0  0  0
   60.6780   30.9470   47.5980 N   0  0  0  0  0  0  0  0  0  0  0  0
   59.5560   30.8230   46.7060 C   0  0  0  0  0  0  0  0  0  0  0  0
   59.0340   31.9600   46.0710 C   0  0  0  0  0  0  0  0  0  0  0  0
   59.5090   33.2490   46.3900 C   0  0  0  0  0  0  0  0  0  0  0  0
   58.9680   34.3790   45.7820 C   0  0  0  0  0  0  0  0  0  0  0  0
   57.9360   34.2440   44.8590 C   0  0  0  0  0  0  0  0  0  0  0  0
   57.4590   32.9790   44.5190 C   0  0  0  0  0  0  0  0  0  0  0  0
   58.0210   31.8070   45.0880 C   0  0  0  0  0  0  0  0  0  0  0  0
   57.6050   30.5430   44.7120 N   0  0  0  0  0  0  0  0  0  0  0  0
   56.7930   30.3640   43.4870 C   0  0  0  0  0  0  0  0  0  0  0  0
   57.9680   29.4450   45.4710 C   0  0  0  0  0  0  0  0  0  0  0  0
   57.3530   28.1790   45.2940 C   0  0  0  0  0  0  0  0  0  0  0  0
   57.7420   27.0660   46.0500 C   0  0  0  0  0  0  0  0  0  0  0  0
   57.1590   25.7760   45.8260 N   0  0  0  0  0  0  0  0  0  0  0  0
   55.7670   25.5020   45.6310 C   0  0  0  0  0  0  0  0  0  0  0  0
   54.9250   26.3660   45.9960 O   0  0  0  0  0  0  0  0  0  0  0  0
   55.3010   24.3020   44.8470 C   0  0  0  0  0  0  0  0  0  0  0  0
   56.4390   23.3330   44.5040 C   0  0  0  0  0  0  0  0  0  0  0  0
   55.9390   22.2360   43.6560 N   0  0  0  0  0  0  0  0  0  0  0  0
   56.7130   20.9950   43.8950 C   0  0  0  0  0  0  0  0  0  0  0  0
   56.9430   21.7620   42.6730 C   0  0  0  0  0  0  0  0  0  0  0  0
   58.7650   27.1950   46.9860 C   0  0  0  0  0  0  0  0  0  0  0  0
   59.3550   28.4360   47.2150 C   0  0  0  0  0  0  0  0  0  0  0  0
   58.9710   29.5680   46.4670 C   0  0  0  0  0  0  0  0  0  0  0  0
   64.1929   33.8201   46.6429 H   0  0  0  0  0  0  0  0  0  0  0  0
   62.7776   32.8338   46.1419 H   0  0  0  0  0  0  0  0  0  0  0  0
   62.6681   34.6267   46.1419 H   0  0  0  0  0  0  0  0  0  0  0  0
   63.2676   34.3446   48.7211 H   0  0  0  0  0  0  0  0  0  0  0  0
   61.5756   34.1121   48.1332 H   0  0  0  0  0  0  0  0  0  0  0  0
   63.7682   31.3056   50.0459 H   0  0  0  0  0  0  0  0  0  0  0  0
   64.4029   31.3351   48.3235 H   0  0  0  0  0  0  0  0  0  0  0  0
   64.9705   33.1469   50.5760 H   0  0  0  0  0  0  0  0  0  0  0  0
   65.8838   32.8384   49.0603 H   0  0  0  0  0  0  0  0  0  0  0  0
   64.5070   33.9921   49.0603 H   0  0  0  0  0  0  0  0  0  0  0  0
   61.9421   31.6965   50.5319 H   0  0  0  0  0  0  0  0  0  0  0  0
   61.0135   33.0645   49.8115 H   0  0  0  0  0  0  0  0  0  0  0  0
   60.6118   30.1474   49.5383 H   0  0  0  0  0  0  0  0  0  0  0  0
   59.4802   31.5176   49.2185 H   0  0  0  0  0  0  0  0  0  0  0  0
   61.6460   30.8290   47.2200 H   0  0  0  0  0  0  0  0  0  0  0  0
   60.3166   33.3632   47.1280 H   0  0  0  0  0  0  0  0  0  0  0  0
   59.3564   35.3775   46.0314 H   0  0  0  0  0  0  0  0  0  0  0  0
   57.4947   35.1388   44.3957 H   0  0  0  0  0  0  0  0  0  0  0  0
   56.6334   32.8879   43.7978 H   0  0  0  0  0  0  0  0  0  0  0  0
   55.7539   30.1349   43.7661 H   0  0  0  0  0  0  0  0  0  0  0  0
   56.8175   31.2891   42.8924 H   0  0  0  0  0  0  0  0  0  0  0  0
   57.2042   29.5349   42.8924 H   0  0  0  0  0  0  0  0  0  0  0  0
   56.5533   28.0691   44.5468 H   0  0  0  0  0  0  0  0  0  0  0  0
   54.5497   23.7636   45.4433 H   0  0  0  0  0  0  0  0  0  0  0  0
   54.8842   24.6700   43.8979 H   0  0  0  0  0  0  0  0  0  0  0  0
   57.2288   23.8770   43.9652 H   0  0  0  0  0  0  0  0  0  0  0  0
   56.8415   22.9096   45.4361 H   0  0  0  0  0  0  0  0  0  0  0  0
   57.4825   20.9711   44.6807 H   0  0  0  0  0  0  0  0  0  0  0  0
   56.4520   19.9495   44.1160 H   0  0  0  0  0  0  0  0  0  0  0  0
   57.8850   22.3144   42.5409 H   0  0  0  0  0  0  0  0  0  0  0  0
   56.9259   21.5306   41.5978 H   0  0  0  0  0  0  0  0  0  0  0  0
   59.1086   26.3133   47.5469 H   0  0  0  0  0  0  0  0  0  0  0  0
   60.1303   28.5341   47.9892 H   0  0  0  0  0  0  0  0  0  0  0  0
  1  2  1  0
  2  3  1  0
  3  4  1  0
  4  5  1  0
  3  6  1  0
  6  7  1  0
  7  8  1  0
  8  9  1  0
  9 10  2  0
 10 11  1  0
 11 12  2  0
 12 13  1  0
 13 14  2  0
 14 15  1  0
 15 16  2  0
 16 17  1  0
 16 18  1  0
 18 19  2  0
 19 20  1  0
 20 21  1  0
 21 22  1  0
 22 23  2  0
 22 24  1  0
 24 25  1  0
 25 26  1  0
 26 27  1  0
 27 28  1  0
 20 29  2  0
 29 30  1  0
 30 31  2  0
 31  9  1  0
 15 10  1  0
 31 18  1  0
 28 26  1  0
  1 32  1  0
  1 33  1  0
  1 34  1  0
  2 35  1  0
  2 36  1  0
  4 37  1  0
  4 38  1  0
  5 39  1  0
  5 40  1  0
  5 41  1  0
  6 42  1  0
  6 43  1  0
  7 44  1  0
  7 45  1  0
  8 46  1  0
 11 47  1  0
 12 48  1  0
 13 49  1  0
 14 50  1  0
 17 51  1  0
 17 52  1  0
 17 53  1  0
 19 54  1  0
 24 55  1  0
 24 56  1  0
 25 57  1  0
 25 58  1  0
 27 59  1  0
 27 60  1  0
 28 61  1  0
 28 62  1  0
 29 63  1  0
 30 64  1  0
M  CHG  2  16   1  21  -1
M  END
>  <UniqueID>  (28) 
27

>  <SMILES>  (28) 
CCN(CC)CCNc1c2ccccc2[n+](C)c2cc([N-]C(=O)CCN3CC3)ccc12

>  <Energy>  (28) 
431.71113333365446

>  <Genealogy>  (28) 
CCN(CC)CCNc1c2ccccc2[n+](C)c2cc([N-]C(=O)CCN3CC3)ccc12 (protonated)
CCN(CC)CCNc1c2ccccc2[n+](C)c2cc([N-]C(=O)CCN3CC3)ccc12 (3D coordinates assigned)
CCN(CC)CCNc1c2ccccc2[n+](C)c2cc([N-]C(=O)CCN3CC3)ccc12 (nonaromatic ring conformer: 431.71113333365446 kcal/mol)

>  <smiles>  (28) 
CCN(CC)CCNc1c2ccccc2[n+](C)c2cc(NC(=O)CCN3CC3)ccc12

>  <score_type>  (28) 
oracle

>  <origin>  (28) 
adg

>  <m_score__min__energy>  (28) 
-9.2300000000000004

>  <m_primary>  (28) 
energy

$$$$
28:0
     RDKit          3D

 67 70  0  0  0  0  0  0  0  0999 V2000
   54.2060   24.8390   45.6110 C   0  0  0  0  0  0  0  0  0  0  0  0
   55.1480   25.6210   46.3130 O   0  0  0  0  0  0  0  0  0  0  0  0
   56.2920   24.8520   46.6300 C   0  0  0  0  0  0  0  0  0  0  0  0
   57.5600   25.6860   46.4260 C   0  0  0  0  0  0  0  0  0  0  0  0
   57.2980   27.1010   46.6970 N   0  0  0  0  0  0  0  0  0  0  0  0
   58.3030   28.1350   46.7150 C   0  0  0  0  0  0  0  0  0  0  0  0
   58.7480   28.7630   45.5370 C   0  0  0  0  0  0  0  0  0  0  0  0
   59.7220   29.7610   45.5910 C   0  0  0  0  0  0  0  0  0  0  0  0
   60.2720   30.1490   46.8210 C   0  0  0  0  0  0  0  0  0  0  0  0
   61.2020   31.1350   46.8780 N   0  0  0  0  0  0  0  0  0  0  0  0
   61.7130   31.5650   48.0630 C   0  0  0  0  0  0  0  0  0  0  0  0
   62.8580   32.9620   48.0200 S   0  0  0  0  0  0  0  0  0  0  0  0
   61.6090   34.2030   48.5210 C   0  0  0  0  0  0  0  0  0  0  0  0
   60.3410   34.0550   47.7180 C   0  0  0  0  0  0  0  0  0  0  0  0
   60.3240   34.4940   46.3830 C   0  0  0  0  0  0  0  0  0  0  0  0
   59.1820   34.3300   45.5970 C   0  0  0  0  0  0  0  0  0  0  0  0
   58.0470   33.7210   46.1330 C   0  0  0  0  0  0  0  0  0  0  0  0
   58.0490   33.2730   47.4560 C   0  0  0  0  0  0  0  0  0  0  0  0
   59.1940   33.4320   48.2630 C   0  0  0  0  0  0  0  0  0  0  0  0
   59.2290   32.9750   49.5900 O   0  0  0  0  0  0  0  0  0  0  0  0
   58.1750   32.2620   50.2290 C   0  0  0  0  0  0  0  0  0  0  0  0
   61.3380   30.9610   49.2440 N   0  0  0  0  0  0  0  0  0  0  0  0
   61.9680   31.3540   50.5240 C   0  0  0  0  0  0  0  0  0  0  0  0
   63.3670   30.7340   50.6610 C   0  0  0  0  0  0  0  0  0  0  0  0
   64.2830   31.6360   51.3950 N   0  0  0  0  0  0  0  0  0  0  0  0
   65.7030   31.4420   51.0050 C   0  0  0  0  0  0  0  0  0  0  0  0
   66.2110   32.5690   50.0910 C   0  0  0  0  0  0  0  0  0  0  0  0
   66.1240   33.8590   50.6830 O   0  0  0  0  0  0  0  0  0  0  0  0
   65.0300   34.0020   51.5790 C   0  0  0  0  0  0  0  0  0  0  0  0
   63.8570   33.0510   51.2850 C   0  0  0  0  0  0  0  0  0  0  0  0
   60.4050   29.9500   49.2210 C   0  0  0  0  0  0  0  0  0  0  0  0
   60.0410   29.3960   50.2950 O   0  0  0  0  0  0  0  0  0  0  0  0
   59.8420   29.5290   48.0050 C   0  0  0  0  0  0  0  0  0  0  0  0
   58.8620   28.5190   47.9440 C   0  0  0  0  0  0  0  0  0  0  0  0
   53.5643   24.3063   46.3283 H   0  0  0  0  0  0  0  0  0  0  0  0
   53.5860   25.4916   44.9788 H   0  0  0  0  0  0  0  0  0  0  0  0
   54.7334   24.1095   44.9788 H   0  0  0  0  0  0  0  0  0  0  0  0
   56.2339   24.5292   47.6800 H   0  0  0  0  0  0  0  0  0  0  0  0
   56.3292   23.9730   45.9697 H   0  0  0  0  0  0  0  0  0  0  0  0
   58.3427   25.3262   47.1100 H   0  0  0  0  0  0  0  0  0  0  0  0
   57.8882   25.5808   45.3814 H   0  0  0  0  0  0  0  0  0  0  0  0
   56.3060   27.3680   46.8920 H   0  0  0  0  0  0  0  0  0  0  0  0
   58.3250   28.4650   44.5663 H   0  0  0  0  0  0  0  0  0  0  0  0
   60.0601   30.2460   44.6634 H   0  0  0  0  0  0  0  0  0  0  0  0
   61.5160   31.6010   45.9960 H   0  0  0  0  0  0  0  0  0  0  0  0
   61.3762   34.0675   49.5875 H   0  0  0  0  0  0  0  0  0  0  0  0
   62.0219   35.2061   48.3387 H   0  0  0  0  0  0  0  0  0  0  0  0
   61.2177   34.9707   45.9540 H   0  0  0  0  0  0  0  0  0  0  0  0
   59.1770   34.6811   44.5546 H   0  0  0  0  0  0  0  0  0  0  0  0
   57.1481   33.5933   45.5120 H   0  0  0  0  0  0  0  0  0  0  0  0
   57.1507   32.7927   47.8712 H   0  0  0  0  0  0  0  0  0  0  0  0
   58.2891   32.3392   51.3203 H   0  0  0  0  0  0  0  0  0  0  0  0
   57.2076   32.6919   49.9301 H   0  0  0  0  0  0  0  0  0  0  0  0
   58.2141   31.2041   49.9301 H   0  0  0  0  0  0  0  0  0  0  0  0
   62.0548   32.4499   50.5609 H   0  0  0  0  0  0  0  0  0  0  0  0
   61.3402   30.9897   51.3505 H   0  0  0  0  0  0  0  0  0  0  0  0
   63.2859   29.7828   51.2075 H   0  0  0  0  0  0  0  0  0  0  0  0
   63.7749   30.5687   49.6529 H   0  0  0  0  0  0  0  0  0  0  0  0
   66.3206   31.4178   51.9149 H   0  0  0  0  0  0  0  0  0  0  0  0
   65.7751   30.4960   50.4483 H   0  0  0  0  0  0  0  0  0  0  0  0
   67.2640   32.3693   49.8436 H   0  0  0  0  0  0  0  0  0  0  0  0
   65.5684   32.5775   49.1983 H   0  0  0  0  0  0  0  0  0  0  0  0
   65.3896   33.8038   52.5995 H   0  0  0  0  0  0  0  0  0  0  0  0
   64.6491   35.0268   51.4579 H   0  0  0  0  0  0  0  0  0  0  0  0
   63.0495   33.2412   52.0073 H   0  0  0  0  0  0  0  0  0  0  0  0
   63.5055   33.2334   50.2588 H   0  0  0  0  0  0  0  0  0  0  0  0
   58.5311   28.0257   48.8698 H   0  0  0  0  0  0  0  0  0  0  0  0
  1  2  1  0
  2  3  1  0
  3  4  1  0
  4  5  1  0
  5  6  1  0
  6  7  2  0
  7  8  1  0
  8  9  2  0
  9 10  1  0
 10 11  2  0
 11 12  1  0
 12 13  1  0
 13 14  1  0
 14 15  2  0
 15 16  1  0
 16 17  2  0
 17 18  1  0
 18 19  2  0
 19 20  1  0
 20 21  1  0
 11 22  1  0
 22 23  1  0
 23 24  1  0
 24 25  1  0
 25 26  1  0
 26 27  1  0
 27 28  1  0
 28 29  1  0
 29 30  1  0
 22 31  1  0
 31 32  2  0
 31 33  1  0
 33 34  2  0
 34  6  1  0
 33  9  1  0
 19 14  1  0
 30 25  1  0
  1 35  1  0
  1 36  1  0
  1 37  1  0
  3 38  1  0
  3 39  1  0
  4 40  1  0
  4 41  1  0
  5 42  1  0
  7 43  1  0
  8 44  1  0
 10 45  1  0
 13 46  1  0
 13 47  1  0
 15 48  1  0
 16 49  1  0
 17 50  1  0
 18 51  1  0
 21 52  1  0
 21 53  1  0
 21 54  1  0
 23 55  1  0
 23 56  1  0
 24 57  1  0
 24 58  1  0
 26 59  1  0
 26 60  1  0
 27 61  1  0
 27 62  1  0
 29 63  1  0
 29 64  1  0
 30 65  1  0
 30 66  1  0
 34 67  1  0
M  CHG  1  10   1
M  END
>  <UniqueID>  (29) 
28

>  <SMILES>  (29) 
COCCNc1ccc2[nH+]c(SCc3ccccc3OC)n(CCN3CCOCC3)c(=O)c2c1

>  <Energy>  (29) 
83.96062699336665

>  <Genealogy>  (29) 
COCCNc1ccc2[nH+]c(SCc3ccccc3OC)n(CCN3CCOCC3)c(=O)c2c1 (protonated)
COCCNc1ccc2[nH+]c(SCc3ccccc3OC)n(CCN3CCOCC3)c(=O)c2c1 (3D coordinates assigned)
COCCNc1ccc2[nH+]c(SCc3ccccc3OC)n(CCN3CCOCC3)c(=O)c2c1 (nonaromatic ring conformer: 83.96062699336665 kcal/mol)

>  <smiles>  (29) 
COCCNc1ccc2nc(SCc3ccccc3OC)n(CCN3CCOCC3)c(=O)c2c1

>  <score_type>  (29) 
oracle

>  <origin>  (29) 
adg

>  <m_score__min__energy>  (29) 
-7.3399999999999999

>  <m_primary>  (29) 
energy

$$$$
29:0
     RDKit          3D

 55 59  0  0  0  0  0  0  0  0999 V2000
   61.0710   27.7170   47.8980 O   0  0  0  0  0  0  0  0  0  0  0  0
   60.2640   28.0660   46.9940 C   0  0  0  0  0  0  0  0  0  0  0  0
   59.8210   27.1760   45.9690 N   0  0  0  0  0  0  0  0  0  0  0  0
   59.8600   25.7160   46.0490 C   0  0  0  0  0  0  0  0  0  0  0  0
   58.4650   25.1530   45.9570 C   0  0  0  0  0  0  0  0  0  0  0  0
   57.4920   25.5190   46.9000 C   0  0  0  0  0  0  0  0  0  0  0  0
   56.1840   25.0380   46.7880 C   0  0  0  0  0  0  0  0  0  0  0  0
   55.8370   24.1910   45.7300 C   0  0  0  0  0  0  0  0  0  0  0  0
   54.0490   23.5360   45.5770 Br  0  0  0  0  0  0  0  0  0  0  0  0
   56.8000   23.8270   44.7840 C   0  0  0  0  0  0  0  0  0  0  0  0
   58.1080   24.3070   44.8930 C   0  0  0  0  0  0  0  0  0  0  0  0
   58.9340   27.9540   45.1760 C   0  0  0  0  0  0  0  0  0  0  0  0
   58.2370   27.5280   44.0410 C   0  0  0  0  0  0  0  0  0  0  0  0
   57.4040   28.4460   43.3830 C   0  0  0  0  0  0  0  0  0  0  0  0
   57.2840   29.7650   43.8590 C   0  0  0  0  0  0  0  0  0  0  0  0
   57.9970   30.1750   44.9960 C   0  0  0  0  0  0  0  0  0  0  0  0
   58.8250   29.2500   45.6440 C   0  0  0  0  0  0  0  0  0  0  0  0
   59.6690   29.4520   46.8800 C   0  0  0  0  0  0  0  0  0  0  0  0
   58.8020   29.7720   48.1260 C   0  0  0  0  0  0  0  0  0  0  0  0
   58.7960   31.2760   48.4290 C   0  0  0  0  0  0  0  0  0  0  0  0
   60.1590   31.7980   48.7180 N   0  0  0  0  0  0  0  0  0  0  0  0
   60.2200   33.2640   48.5350 C   0  0  0  0  0  0  0  0  0  0  0  0
   59.5380   33.6800   47.2560 C   0  0  0  0  0  0  0  0  0  0  0  0
   60.2810   33.8700   46.0790 C   0  0  0  0  0  0  0  0  0  0  0  0
   59.6370   34.2280   44.8910 C   0  0  0  0  0  0  0  0  0  0  0  0
   58.2500   34.3960   44.8700 C   0  0  0  0  0  0  0  0  0  0  0  0
   57.5040   34.2010   46.0350 C   0  0  0  0  0  0  0  0  0  0  0  0
   58.1440   33.8420   47.2250 C   0  0  0  0  0  0  0  0  0  0  0  0
   61.2480   31.1120   47.9690 C   0  0  0  0  0  0  0  0  0  0  0  0
   60.7700   30.5140   46.6380 C   0  0  0  0  0  0  0  0  0  0  0  0
   60.4662   25.3226   45.2197 H   0  0  0  0  0  0  0  0  0  0  0  0
   60.3039   25.4207   47.0112 H   0  0  0  0  0  0  0  0  0  0  0  0
   57.7599   26.1876   47.7314 H   0  0  0  0  0  0  0  0  0  0  0  0
   55.4271   25.3258   47.5324 H   0  0  0  0  0  0  0  0  0  0  0  0
   56.5275   23.1612   43.9519 H   0  0  0  0  0  0  0  0  0  0  0  0
   58.8608   24.0217   44.1434 H   0  0  0  0  0  0  0  0  0  0  0  0
   58.3393   26.4967   43.6723 H   0  0  0  0  0  0  0  0  0  0  0  0
   56.8420   28.1330   42.4907 H   0  0  0  0  0  0  0  0  0  0  0  0
   56.6283   30.4778   43.3374 H   0  0  0  0  0  0  0  0  0  0  0  0
   57.9071   31.2049   45.3717 H   0  0  0  0  0  0  0  0  0  0  0  0
   57.7701   29.4398   47.9395 H   0  0  0  0  0  0  0  0  0  0  0  0
   59.2298   29.2449   48.9916 H   0  0  0  0  0  0  0  0  0  0  0  0
   58.3894   31.8109   47.5581 H   0  0  0  0  0  0  0  0  0  0  0  0
   58.1767   31.4371   49.3237 H   0  0  0  0  0  0  0  0  0  0  0  0
   59.7204   33.7532   49.3842 H   0  0  0  0  0  0  0  0  0  0  0  0
   61.2764   33.5659   48.4820 H   0  0  0  0  0  0  0  0  0  0  0  0
   61.3728   33.7367   46.0922 H   0  0  0  0  0  0  0  0  0  0  0  0
   60.2226   34.3776   43.9720 H   0  0  0  0  0  0  0  0  0  0  0  0
   57.7451   34.6820   43.9355 H   0  0  0  0  0  0  0  0  0  0  0  0
   56.4118   34.3301   46.0160 H   0  0  0  0  0  0  0  0  0  0  0  0
   57.5534   33.6860   48.1398 H   0  0  0  0  0  0  0  0  0  0  0  0
   62.0446   31.8414   47.7606 H   0  0  0  0  0  0  0  0  0  0  0  0
   61.6080   30.2819   48.5946 H   0  0  0  0  0  0  0  0  0  0  0  0
   60.3641   31.3176   46.0060 H   0  0  0  0  0  0  0  0  0  0  0  0
   61.6238   30.0316   46.1397 H   0  0  0  0  0  0  0  0  0  0  0  0
  1  2  2  0
  2  3  1  0
  3  4  1  0
  4  5  1  0
  5  6  2  0
  6  7  1  0
  7  8  2  0
  8  9  1  0
  8 10  1  0
 10 11  2  0
  3 12  1  0
 12 13  2  0
 13 14  1  0
 14 15  2  0
 15 16  1  0
 16 17  2  0
 17 18  1  0
 18 19  1  0
 19 20  1  0
 20 21  1  0
 21 22  1  0
 22 23  1  0
 23 24  2  0
 24 25  1  0
 25 26  2  0
 26 27  1  0
 27 28  2  0
 21 29  1  0
 29 30  1  0
 18  2  1  0
 28 23  1  0
 11  5  1  0
 17 12  1  0
 30 18  1  0
  4 31  1  0
  4 32  1  0
  6 33  1  0
  7 34  1  0
 10 35  1  0
 11 36  1  0
 13 37  1  0
 14 38  1  0
 15 39  1  0
 16 40  1  0
 19 41  1  0
 19 42  1  0
 20 43  1  0
 20 44  1  0
 22 45  1  0
 22 46  1  0
 24 47  1  0
 25 48  1  0
 26 49  1  0
 27 50  1  0
 28 51  1  0
 29 52  1  0
 29 53  1  0
 30 54  1  0
 30 55  1  0
M  END
>  <UniqueID>  (30) 
29

>  <SMILES>  (30) 
O=C1N(Cc2ccc(Br)cc2)c2ccccc2C12CCN(Cc1ccccc1)CC2

>  <Energy>  (30) 
87.5097989836939

>  <Genealogy>  (30) 
O=C1N(Cc2ccc(Br)cc2)c2ccccc2C12CCN(Cc1ccccc1)CC2 (3D coordinates assigned)
O=C1N(Cc2ccc(Br)cc2)c2ccccc2C12CCN(Cc1ccccc1)CC2 (nonaromatic ring conformer: 87.5097989836939 kcal/mol)

>  <smiles>  (30) 
O=C1N(Cc2ccc(Br)cc2)c2ccccc2C12CCN(Cc1ccccc1)CC2

>  <score_type>  (30) 
oracle

>  <origin>  (30) 
adg

>  <m_score__min__energy>  (30) 
-9.2200000000000006

>  <m_primary>  (30) 
energy

$$$$
30:0
     RDKit          3D

 48 50  0  0  0  0  0  0  0  0999 V2000
   57.0290   33.3180   45.6350 C   0  0  0  0  0  0  0  0  0  0  0  0
   58.3110   33.4310   44.8090 C   0  0  0  0  0  0  0  0  0  0  0  0
   59.1490   34.6600   45.1900 C   0  0  0  0  0  0  0  0  0  0  0  0
   59.9580   34.4260   46.4400 C   0  0  0  0  0  0  0  0  0  0  0  0
   61.3150   34.0770   46.3550 C   0  0  0  0  0  0  0  0  0  0  0  0
   62.0550   33.8310   47.5150 C   0  0  0  0  0  0  0  0  0  0  0  0
   61.4480   33.9270   48.7770 C   0  0  0  0  0  0  0  0  0  0  0  0
   62.2460   33.6400   50.0280 C   0  0  0  0  0  0  0  0  0  0  0  0
   62.7590   32.2590   50.0610 N   0  0  0  0  0  0  0  0  0  0  0  0
   61.7410   31.2780   50.4650 C   0  0  0  0  0  0  0  0  0  0  0  0
   60.9260   30.8290   49.2790 C   0  0  0  0  0  0  0  0  0  0  0  0
   59.5600   30.5540   49.4300 C   0  0  0  0  0  0  0  0  0  0  0  0
   58.7940   30.1490   48.3330 C   0  0  0  0  0  0  0  0  0  0  0  0
   59.3820   30.0090   47.0610 C   0  0  0  0  0  0  0  0  0  0  0  0
   58.5890   29.5840   45.8780 C   0  0  0  0  0  0  0  0  0  0  0  0
   58.9650   28.5600   45.0000 C   0  0  0  0  0  0  0  0  0  0  0  0
   57.7770   28.4220   43.8170 S   0  0  0  0  0  0  0  0  0  0  0  0
   56.8500   29.6710   44.4460 C   0  0  0  0  0  0  0  0  0  0  0  0
   55.5250   30.0980   43.9150 C   0  0  0  0  0  0  0  0  0  0  0  0
   57.4080   30.1880   45.5610 N   0  0  0  0  0  0  0  0  0  0  0  0
   60.7530   30.2920   46.9180 C   0  0  0  0  0  0  0  0  0  0  0  0
   61.5180   30.6940   48.0170 C   0  0  0  0  0  0  0  0  0  0  0  0
   60.0910   34.2720   48.8620 C   0  0  0  0  0  0  0  0  0  0  0  0
   59.3500   34.5170   47.7020 C   0  0  0  0  0  0  0  0  0  0  0  0
   57.2796   33.3401   46.7058 H   0  0  0  0  0  0  0  0  0  0  0  0
   56.3637   34.1610   45.3967 H   0  0  0  0  0  0  0  0  0  0  0  0
   56.5215   32.3716   45.3967 H   0  0  0  0  0  0  0  0  0  0  0  0
   58.9163   32.5270   44.9715 H   0  0  0  0  0  0  0  0  0  0  0  0
   58.0204   33.5385   43.7535 H   0  0  0  0  0  0  0  0  0  0  0  0
   59.8344   34.8932   44.3618 H   0  0  0  0  0  0  0  0  0  0  0  0
   58.4594   35.4951   45.3828 H   0  0  0  0  0  0  0  0  0  0  0  0
   61.7986   33.9967   45.3703 H   0  0  0  0  0  0  0  0  0  0  0  0
   63.1185   33.5608   47.4385 H   0  0  0  0  0  0  0  0  0  0  0  0
   63.0978   34.3347   50.0711 H   0  0  0  0  0  0  0  0  0  0  0  0
   61.5764   33.7704   50.8909 H   0  0  0  0  0  0  0  0  0  0  0  0
   63.1120   32.0000   49.1100 H   0  0  0  0  0  0  0  0  0  0  0  0
   62.2394   30.4046   50.9109 H   0  0  0  0  0  0  0  0  0  0  0  0
   61.0678   31.7506   51.1954 H   0  0  0  0  0  0  0  0  0  0  0  0
   59.0877   30.6575   50.4180 H   0  0  0  0  0  0  0  0  0  0  0  0
   57.7225   29.9378   48.4645 H   0  0  0  0  0  0  0  0  0  0  0  0
   59.8786   27.9515   45.0714 H   0  0  0  0  0  0  0  0  0  0  0  0
   54.8471   30.3165   44.7533 H   0  0  0  0  0  0  0  0  0  0  0  0
   55.6503   31.0012   43.2998 H   0  0  0  0  0  0  0  0  0  0  0  0
   55.0993   29.2915   43.2998 H   0  0  0  0  0  0  0  0  0  0  0  0
   61.2281   30.1959   45.9306 H   0  0  0  0  0  0  0  0  0  0  0  0
   62.5900   30.9053   47.8898 H   0  0  0  0  0  0  0  0  0  0  0  0
   59.6072   34.3502   49.8468 H   0  0  0  0  0  0  0  0  0  0  0  0
   58.2852   34.7824   47.7786 H   0  0  0  0  0  0  0  0  0  0  0  0
  1  2  1  0
  2  3  1  0
  3  4  1  0
  4  5  2  0
  5  6  1  0
  6  7  2  0
  7  8  1  0
  8  9  1  0
  9 10  1  0
 10 11  1  0
 11 12  2  0
 12 13  1  0
 13 14  2  0
 14 15  1  0
 15 16  2  0
 16 17  1  0
 17 18  1  0
 18 19  1  0
 18 20  2  0
 14 21  1  0
 21 22  2  0
  7 23  1  0
 23 24  2  0
 24  4  1  0
 22 11  1  0
 20 15  1  0
  1 25  1  0
  1 26  1  0
  1 27  1  0
  2 28  1  0
  2 29  1  0
  3 30  1  0
  3 31  1  0
  5 32  1  0
  6 33  1  0
  8 34  1  0
  8 35  1  0
  9 36  1  0
 10 37  1  0
 10 38  1  0
 12 39  1  0
 13 40  1  0
 16 41  1  0
 19 42  1  0
 19 43  1  0
 19 44  1  0
 21 45  1  0
 22 46  1  0
 23 47  1  0
 24 48  1  0
M  END
>  <UniqueID>  (31) 
30

>  <SMILES>  (31) 
CCCc1ccc(CNCc2ccc(-c3csc(C)n3)cc2)cc1

>  <Energy>  (31) 
74.55933149721267

>  <Genealogy>  (31) 
CCCc1ccc(CNCc2ccc(-c3csc(C)n3)cc2)cc1 (3D coordinates assigned)
CCCc1ccc(CNCc2ccc(-c3csc(C)n3)cc2)cc1 (optimized conformer: 74.55933149721267 kcal/mol)

>  <smiles>  (31) 
CCCc1ccc(CNCc2ccc(-c3csc(C)n3)cc2)cc1

>  <score_type>  (31) 
oracle

>  <origin>  (31) 
adg

>  <m_score__min__energy>  (31) 
-7.2199999999999998

>  <m_primary>  (31) 
energy

$$$$
31:0
     RDKit          3D

 48 50  0  0  0  0  0  0  0  0999 V2000
   56.6270   26.2650   46.0000 C   0  0  0  0  0  0  0  0  0  0  0  0
   55.9740   27.4700   45.6150 O   0  0  0  0  0  0  0  0  0  0  0  0
   56.6340   28.6690   45.3110 C   0  0  0  0  0  0  0  0  0  0  0  0
   55.9820   29.5960   44.4950 C   0  0  0  0  0  0  0  0  0  0  0  0
   56.5950   30.8030   44.1620 C   0  0  0  0  0  0  0  0  0  0  0  0
   57.8790   31.1090   44.6370 C   0  0  0  0  0  0  0  0  0  0  0  0
   58.5150   32.4290   44.2410 C   0  0  0  0  0  0  0  0  0  0  0  0
   57.8690   33.5860   44.9180 N   0  0  0  0  0  0  0  0  0  0  0  0
   57.4590   33.2370   46.2990 C   0  0  0  0  0  0  0  0  0  0  0  0
   58.6700   32.9230   47.1940 C   0  0  0  0  0  0  0  0  0  0  0  0
   59.8010   33.7930   46.8580 N   0  0  0  0  0  0  0  0  0  0  0  0
   61.1470   33.4040   47.1960 C   0  0  0  0  0  0  0  0  0  0  0  0
   62.2290   33.8220   46.4010 C   0  0  0  0  0  0  0  0  0  0  0  0
   63.5360   33.4560   46.7380 C   0  0  0  0  0  0  0  0  0  0  0  0
   63.7770   32.6800   47.8730 C   0  0  0  0  0  0  0  0  0  0  0  0
   62.7100   32.2680   48.6770 C   0  0  0  0  0  0  0  0  0  0  0  0
   63.0150   31.3020   50.1090 Cl  0  0  0  0  0  0  0  0  0  0  0  0
   61.4000   32.6300   48.3440 C   0  0  0  0  0  0  0  0  0  0  0  0
   59.5230   35.0610   46.1740 C   0  0  0  0  0  0  0  0  0  0  0  0
   58.7200   34.8120   44.8810 C   0  0  0  0  0  0  0  0  0  0  0  0
   58.5490   30.1870   45.4710 C   0  0  0  0  0  0  0  0  0  0  0  0
   59.8300   30.5080   45.9540 O   0  0  0  0  0  0  0  0  0  0  0  0
   60.7560   29.5660   46.4850 C   0  0  0  0  0  0  0  0  0  0  0  0
   57.9200   28.9690   45.7990 C   0  0  0  0  0  0  0  0  0  0  0  0
   56.6616   26.2012   47.0976 H   0  0  0  0  0  0  0  0  0  0  0  0
   56.0724   25.4034   45.5999 H   0  0  0  0  0  0  0  0  0  0  0  0
   57.6517   26.2593   45.5999 H   0  0  0  0  0  0  0  0  0  0  0  0
   54.9757   29.3718   44.1116 H   0  0  0  0  0  0  0  0  0  0  0  0
   56.0663   31.5230   43.5200 H   0  0  0  0  0  0  0  0  0  0  0  0
   59.5799   32.4064   44.5158 H   0  0  0  0  0  0  0  0  0  0  0  0
   58.3859   32.5556   43.1560 H   0  0  0  0  0  0  0  0  0  0  0  0
   56.9830   33.8040   44.4030 H   0  0  0  0  0  0  0  0  0  0  0  0
   56.9074   34.0848   46.7313 H   0  0  0  0  0  0  0  0  0  0  0  0
   56.8281   32.3372   46.2506 H   0  0  0  0  0  0  0  0  0  0  0  0
   58.3922   33.0818   48.2464 H   0  0  0  0  0  0  0  0  0  0  0  0
   58.9680   31.8766   47.0321 H   0  0  0  0  0  0  0  0  0  0  0  0
   62.0464   34.4400   45.5095 H   0  0  0  0  0  0  0  0  0  0  0  0
   64.3765   33.7805   46.1069 H   0  0  0  0  0  0  0  0  0  0  0  0
   64.8061   32.3927   48.1348 H   0  0  0  0  0  0  0  0  0  0  0  0
   60.5640   32.3082   48.9824 H   0  0  0  0  0  0  0  0  0  0  0  0
   58.9407   35.7127   46.8420 H   0  0  0  0  0  0  0  0  0  0  0  0
   60.4775   35.5415   45.9132 H   0  0  0  0  0  0  0  0  0  0  0  0
   58.0674   35.6803   44.7072 H   0  0  0  0  0  0  0  0  0  0  0  0
   59.4543   34.6640   44.0754 H   0  0  0  0  0  0  0  0  0  0  0  0
   60.7233   29.5992   47.5840 H   0  0  0  0  0  0  0  0  0  0  0  0
   60.4896   28.5558   46.1406 H   0  0  0  0  0  0  0  0  0  0  0  0
   61.7706   29.8151   46.1406 H   0  0  0  0  0  0  0  0  0  0  0  0
   58.4398   28.2448   46.4435 H   0  0  0  0  0  0  0  0  0  0  0  0
  1  2  1  0
  2  3  1  0
  3  4  2  0
  4  5  1  0
  5  6  2  0
  6  7  1  0
  7  8  1  0
  8  9  1  0
  9 10  1  0
 10 11  1  0
 11 12  1  0
 12 13  2  0
 13 14  1  0
 14 15  2  0
 15 16  1  0
 16 17  1  0
 16 18  2  0
 11 19  1  0
 19 20  1  0
  6 21  1  0
 21 22  1  0
 22 23  1  0
 21 24  2  0
 24  3  1  0
 20  8  1  0
 18 12  1  0
  1 25  1  0
  1 26  1  0
  1 27  1  0
  4 28  1  0
  5 29  1  0
  7 30  1  0
  7 31  1  0
  8 32  1  0
  9 33  1  0
  9 34  1  0
 10 35  1  0
 10 36  1  0
 13 37  1  0
 14 38  1  0
 15 39  1  0
 18 40  1  0
 19 41  1  0
 19 42  1  0
 20 43  1  0
 20 44  1  0
 23 45  1  0
 23 46  1  0
 23 47  1  0
 24 48  1  0
M  CHG  1   8   1
M  END
>  <UniqueID>  (32) 
31

>  <SMILES>  (32) 
COc1ccc(C[NH+]2CCN(c3cccc(Cl)c3)CC2)c(OC)c1

>  <Energy>  (32) 
60.30645469664618

>  <Genealogy>  (32) 
COc1ccc(C[NH+]2CCN(c3cccc(Cl)c3)CC2)c(OC)c1 (protonated)
COc1ccc(C[NH+]2CCN(c3cccc(Cl)c3)CC2)c(OC)c1 (3D coordinates assigned)
COc1ccc(C[NH+]2CCN(c3cccc(Cl)c3)CC2)c(OC)c1 (nonaromatic ring conformer: 60.30645469664618 kcal/mol)

>  <smiles>  (32) 
COc1ccc(CN2CCN(c3cccc(Cl)c3)CC2)c(OC)c1

>  <score_type>  (32) 
oracle

>  <origin>  (32) 
adg

>  <m_score__min__energy>  (32) 
-6.1299999999999999

>  <m_primary>  (32) 
energy

$$$$
32:0
     RDKit          3D

 63 66  0  0  0  0  0  0  0  0999 V2000
   54.7630   26.3270   45.9930 O   0  0  0  0  0  0  0  0  0  0  0  0
   55.7000   25.4980   45.8320 C   0  0  0  0  0  0  0  0  0  0  0  0
   55.3770   24.0310   45.8370 C   0  0  0  0  0  0  0  0  0  0  0  0
   56.4120   23.2210   45.0230 C   0  0  0  0  0  0  0  0  0  0  0  0
   56.3220   23.5170   43.5140 C   0  0  0  0  0  0  0  0  0  0  0  0
   56.7480   22.2380   42.7990 C   0  0  0  0  0  0  0  0  0  0  0  0
   56.6630   21.1070   43.8230 C   0  0  0  0  0  0  0  0  0  0  0  0
   56.1120   21.7170   45.1040 C   0  0  0  0  0  0  0  0  0  0  0  0
   57.8340   23.5130   45.5690 C   0  0  0  0  0  0  0  0  0  0  0  0
   58.1290   24.9860   45.6080 C   0  0  0  0  0  0  0  0  0  0  0  0
   59.3330   25.3650   45.6060 O   0  0  0  0  0  0  0  0  0  0  0  0
   57.0610   25.9520   45.7030 N   0  0  0  0  0  0  0  0  0  0  0  0
   57.3670   27.3910   45.7310 C   0  0  0  0  0  0  0  0  0  0  0  0
   57.7400   27.8820   44.3290 C   0  0  0  0  0  0  0  0  0  0  0  0
   57.3500   29.3520   44.1390 C   0  0  0  0  0  0  0  0  0  0  0  0
   58.3820   30.2840   44.7910 C   0  0  0  0  0  0  0  0  0  0  0  0
   57.7670   31.1340   45.9160 C   0  0  0  0  0  0  0  0  0  0  0  0
   57.3940   32.5020   45.4730 N   0  0  0  0  0  0  0  0  0  0  0  0
   58.3480   33.0360   44.4660 C   0  0  0  0  0  0  0  0  0  0  0  0
   59.3490   34.0710   45.0230 C   0  0  0  0  0  0  0  0  0  0  0  0
   59.6170   33.8380   46.4510 N   0  0  0  0  0  0  0  0  0  0  0  0
   60.9730   33.8440   46.9590 C   0  0  0  0  0  0  0  0  0  0  0  0
   61.2420   33.8450   48.3430 C   0  0  0  0  0  0  0  0  0  0  0  0
   62.5650   33.8470   48.7900 C   0  0  0  0  0  0  0  0  0  0  0  0
   63.6110   33.8450   47.8680 C   0  0  0  0  0  0  0  0  0  0  0  0
   63.3170   33.8450   46.5050 C   0  0  0  0  0  0  0  0  0  0  0  0
   62.0230   33.8440   46.0880 N   0  0  0  0  0  0  0  0  0  0  0  0
   58.4680   33.7300   47.3610 C   0  0  0  0  0  0  0  0  0  0  0  0
   57.1720   33.4540   46.5840 C   0  0  0  0  0  0  0  0  0  0  0  0
   55.3761   23.6686   46.8756 H   0  0  0  0  0  0  0  0  0  0  0  0
   54.3889   23.8933   45.3737 H   0  0  0  0  0  0  0  0  0  0  0  0
   55.2903   23.7813   43.2388 H   0  0  0  0  0  0  0  0  0  0  0  0
   56.9656   24.3640   43.2343 H   0  0  0  0  0  0  0  0  0  0  0  0
   56.0737   22.0346   41.9540 H   0  0  0  0  0  0  0  0  0  0  0  0
   57.7688   22.3316   42.3999 H   0  0  0  0  0  0  0  0  0  0  0  0
   55.9900   20.3164   43.4596 H   0  0  0  0  0  0  0  0  0  0  0  0
   57.6503   20.6530   43.9938 H   0  0  0  0  0  0  0  0  0  0  0  0
   55.0273   21.5472   45.1719 H   0  0  0  0  0  0  0  0  0  0  0  0
   56.5707   21.2632   45.9949 H   0  0  0  0  0  0  0  0  0  0  0  0
   57.9135   23.1075   46.5884 H   0  0  0  0  0  0  0  0  0  0  0  0
   58.5617   23.0378   44.8947 H   0  0  0  0  0  0  0  0  0  0  0  0
   56.4842   27.9430   46.0860 H   0  0  0  0  0  0  0  0  0  0  0  0
   58.2164   27.5633   46.4084 H   0  0  0  0  0  0  0  0  0  0  0  0
   58.8259   27.7770   44.1884 H   0  0  0  0  0  0  0  0  0  0  0  0
   57.1949   27.2768   43.5896 H   0  0  0  0  0  0  0  0  0  0  0  0
   57.2947   29.5733   43.0629 H   0  0  0  0  0  0  0  0  0  0  0  0
   56.3740   29.5203   44.6177 H   0  0  0  0  0  0  0  0  0  0  0  0
   59.1947   29.6737   45.2118 H   0  0  0  0  0  0  0  0  0  0  0  0
   58.7563   30.9689   44.0159 H   0  0  0  0  0  0  0  0  0  0  0  0
   56.8634   30.6265   46.2846 H   0  0  0  0  0  0  0  0  0  0  0  0
   58.5289   31.2394   46.7024 H   0  0  0  0  0  0  0  0  0  0  0  0
   58.9198   32.1923   44.0522 H   0  0  0  0  0  0  0  0  0  0  0  0
   57.7454   33.5579   43.7080 H   0  0  0  0  0  0  0  0  0  0  0  0
   60.2930   33.9940   44.4637 H   0  0  0  0  0  0  0  0  0  0  0  0
   58.9116   35.0740   44.9101 H   0  0  0  0  0  0  0  0  0  0  0  0
   60.4139   33.8442   49.0671 H   0  0  0  0  0  0  0  0  0  0  0  0
   62.7817   33.8501   49.8684 H   0  0  0  0  0  0  0  0  0  0  0  0
   64.6559   33.8434   48.2119 H   0  0  0  0  0  0  0  0  0  0  0  0
   64.1325   33.8458   45.7667 H   0  0  0  0  0  0  0  0  0  0  0  0
   58.6456   32.9061   48.0679 H   0  0  0  0  0  0  0  0  0  0  0  0
   58.3570   34.6832   47.8987 H   0  0  0  0  0  0  0  0  0  0  0  0
   56.4262   33.0307   47.2729 H   0  0  0  0  0  0  0  0  0  0  0  0
   56.8184   34.4041   46.1569 H   0  0  0  0  0  0  0  0  0  0  0  0
  1  2  2  0
  2  3  1  0
  3  4  1  0
  4  5  1  0
  5  6  1  0
  6  7  1  0
  7  8  1  0
  4  9  1  0
  9 10  1  0
 10 11  2  0
 10 12  1  0
 12 13  1  0
 13 14  1  0
 14 15  1  0
 15 16  1  0
 16 17  1  0
 17 18  1  0
 18 19  1  0
 19 20  1  0
 20 21  1  0
 21 22  1  0
 22 23  2  0
 23 24  1  0
 24 25  2  0
 25 26  1  0
 26 27  2  0
 21 28  1  0
 28 29  1  0
 12  2  1  0
 29 18  1  0
  8  4  1  0
 27 22  1  0
  3 30  1  0
  3 31  1  0
  5 32  1  0
  5 33  1  0
  6 34  1  0
  6 35  1  0
  7 36  1  0
  7 37  1  0
  8 38  1  0
  8 39  1  0
  9 40  1  0
  9 41  1  0
 13 42  1  0
 13 43  1  0
 14 44  1  0
 14 45  1  0
 15 46  1  0
 15 47  1  0
 16 48  1  0
 16 49  1  0
 17 50  1  0
 17 51  1  0
 19 52  1  0
 19 53  1  0
 20 54  1  0
 20 55  1  0
 23 56  1  0
 24 57  1  0
 25 58  1  0
 26 59  1  0
 28 60  1  0
 28 61  1  0
 29 62  1  0
 29 63  1  0
M  END
>  <UniqueID>  (33) 
32

>  <SMILES>  (33) 
O=C1CC2(CCCC2)CC(=O)N1CCCCCN1CCN(c2ccccn2)CC1

>  <Energy>  (33) 
70.53533749467177

>  <Genealogy>  (33) 
O=C1CC2(CCCC2)CC(=O)N1CCCCCN1CCN(c2ccccn2)CC1 (3D coordinates assigned)
O=C1CC2(CCCC2)CC(=O)N1CCCCCN1CCN(c2ccccn2)CC1 (nonaromatic ring conformer: 70.53533749467177 kcal/mol)

>  <smiles>  (33) 
O=C1CC2(CCCC2)CC(=O)N1CCCCCN1CCN(c2ccccn2)CC1

>  <score_type>  (33) 
oracle

>  <origin>  (33) 
adg

>  <m_score__min__energy>  (33) 
-9.5099999999999998

>  <m_primary>  (33) 
energy

$$$$
33:0
     RDKit          3D

 51 52  0  0  0  0  0  0  0  0999 V2000
   56.4824   29.0871   42.1764 H   0  0  0  0  0  0  0  0  0  0  0  0
   56.7850   29.0230   43.2320 C   0  0  0  0  0  0  0  0  0  0  0  0
   56.0360   29.8500   44.2000 C   0  0  0  0  0  0  0  0  0  0  0  0
   55.1590   29.3460   44.9530 O   0  0  0  0  0  0  0  0  0  0  0  0
   56.3480   31.2090   44.2980 O   0  0  0  0  0  0  0  0  0  0  0  0
   57.6870   31.6870   44.3690 C   0  0  0  0  0  0  0  0  0  0  0  0
   57.7388   32.6997   43.9426 H   0  0  0  0  0  0  0  0  0  0  0  0
   58.3480   31.0174   43.7993 H   0  0  0  0  0  0  0  0  0  0  0  0
   58.1340   31.7250   45.8340 C   0  0  0  0  0  0  0  0  0  0  0  0
   59.1877   31.4128   45.8805 H   0  0  0  0  0  0  0  0  0  0  0  0
   57.4625   31.0502   46.3851 H   0  0  0  0  0  0  0  0  0  0  0  0
   58.0160   33.0560   46.4750 N   0  0  0  0  0  0  0  0  0  0  0  0
   58.8830   33.2540   47.6640 C   0  0  0  0  0  0  0  0  0  0  0  0
   58.5106   34.1280   48.2184 H   0  0  0  0  0  0  0  0  0  0  0  0
   59.9067   33.3878   47.2845 H   0  0  0  0  0  0  0  0  0  0  0  0
   58.9290   32.0580   48.6290 C   0  0  0  0  0  0  0  0  0  0  0  0
   58.9150   32.4232   49.6665 H   0  0  0  0  0  0  0  0  0  0  0  0
   58.0550   31.4130   48.4555 H   0  0  0  0  0  0  0  0  0  0  0  0
   59.8500   31.4821   48.4555 H   0  0  0  0  0  0  0  0  0  0  0  0
   57.9360   34.2110   45.5540 C   0  0  0  0  0  0  0  0  0  0  0  0
   57.6055   33.8580   44.5660 H   0  0  0  0  0  0  0  0  0  0  0  0
   57.2208   34.9355   45.9706 H   0  0  0  0  0  0  0  0  0  0  0  0
   59.2900   34.9050   45.4060 C   0  0  0  0  0  0  0  0  0  0  0  0
   59.7041   35.1173   46.4027 H   0  0  0  0  0  0  0  0  0  0  0  0
   59.9798   34.2493   44.8544 H   0  0  0  0  0  0  0  0  0  0  0  0
   59.1604   35.8478   44.8544 H   0  0  0  0  0  0  0  0  0  0  0  0
   57.8030   28.2000   43.5290 C   0  0  0  0  0  0  0  0  0  0  0  0
   58.2085   27.5779   42.7175 H   0  0  0  0  0  0  0  0  0  0  0  0
   58.4190   28.0680   44.8650 C   0  0  0  0  0  0  0  0  0  0  0  0
   59.5570   28.8370   45.1400 C   0  0  0  0  0  0  0  0  0  0  0  0
   59.9832   29.4789   44.3549 H   0  0  0  0  0  0  0  0  0  0  0  0
   60.1550   28.7970   46.3990 C   0  0  0  0  0  0  0  0  0  0  0  0
   61.0434   29.4135   46.6006 H   0  0  0  0  0  0  0  0  0  0  0  0
   59.6330   27.9770   47.4110 C   0  0  0  0  0  0  0  0  0  0  0  0
   60.2630   27.9450   48.7560 C   0  0  0  0  0  0  0  0  0  0  0  0
   60.5630   26.7170   49.3780 C   0  0  0  0  0  0  0  0  0  0  0  0
   60.3282   25.7729   48.8646 H   0  0  0  0  0  0  0  0  0  0  0  0
   61.1570   26.6900   50.6430 C   0  0  0  0  0  0  0  0  0  0  0  0
   61.3858   25.7261   51.1210 H   0  0  0  0  0  0  0  0  0  0  0  0
   61.4610   27.8840   51.3020 C   0  0  0  0  0  0  0  0  0  0  0  0
   61.9294   27.8603   52.2970 H   0  0  0  0  0  0  0  0  0  0  0  0
   61.1690   29.1080   50.6950 C   0  0  0  0  0  0  0  0  0  0  0  0
   61.4079   30.0480   51.2139 H   0  0  0  0  0  0  0  0  0  0  0  0
   60.5740   29.1420   49.4300 C   0  0  0  0  0  0  0  0  0  0  0  0
   60.3474   30.1096   48.9584 H   0  0  0  0  0  0  0  0  0  0  0  0
   58.5080   27.1820   47.1300 C   0  0  0  0  0  0  0  0  0  0  0  0
   58.0936   26.5346   47.9169 H   0  0  0  0  0  0  0  0  0  0  0  0
   57.9030   27.2000   45.8600 C   0  0  0  0  0  0  0  0  0  0  0  0
   56.7880   26.3270   45.5970 N   0  0  0  0  0  0  0  0  0  0  0  0
   56.9340   25.3230   44.8700 O   0  0  0  0  0  0  0  0  0  0  0  0
   55.5220   26.6600   46.0190 O   0  0  0  0  0  0  0  0  0  0  0  0
  1  2  1  0
  2  3  1  0
  3  4  2  0
  3  5  1  0
  5  6  1  0
  6  7  1  0
  6  8  1  0
  6  9  1  0
  9 10  1  0
  9 11  1  0
  9 12  1  0
 12 13  1  0
 13 14  1  0
 13 15  1  0
 13 16  1  0
 16 17  1  0
 16 18  1  0
 16 19  1  0
 12 20  1  0
 20 21  1  0
 20 22  1  0
 20 23  1  0
 23 24  1  0
 23 25  1  0
 23 26  1  0
  2 27  2  0
 27 28  1  0
 27 29  1  0
 29 30  2  0
 30 31  1  0
 30 32  1  0
 32 33  1  0
 32 34  2  0
 34 35  1  0
 35 36  2  0
 36 37  1  0
 36 38  1  0
 38 39  1  0
 38 40  2  0
 40 41  1  0
 40 42  1  0
 42 43  1  0
 42 44  2  0
 44 45  1  0
 34 46  1  0
 46 47  1  0
 46 48  2  0
 48 49  1  0
 49 50  2  0
 49 51  1  0
 48 29  1  0
 44 35  1  0
M  CHG  2  49   1  51  -1
M  END
>  <UniqueID>  (34) 
33

>  <SMILES>  (34) 
CCN(CC)CCOC(=O)/C=C\c1ccc(-c2ccccc2)cc1[N+](=O)[O-]

>  <Energy>  (34) 
71.50940117594764

>  <Genealogy>  (34) 
CCN(CC)CCOC(=O)/C=C\c1ccc(-c2ccccc2)cc1[N+](=O)[O-] (cis-trans isomerization)
CCN(CC)CCOC(=O)/C=C\c1ccc(-c2ccccc2)cc1[N+](=O)[O-] (3D coordinates assigned)
CCN(CC)CCOC(=O)/C=C\c1ccc(-c2ccccc2)cc1[N+](=O)[O-] (optimized conformer: 71.50940117594764 kcal/mol)

>  <smiles>  (34) 
CCN(CC)CCOC(=O)C=Cc1ccc(-c2ccccc2)cc1[N+](=O)[O-]

>  <score_type>  (34) 
oracle

>  <origin>  (34) 
adg

>  <m_score__min__energy>  (34) 
-8.8000000000000007

>  <m_primary>  (34) 
energy

$$$$
34:0
     RDKit          3D

 54 55  0  0  1  0  0  0  0  0999 V2000
   59.8050   26.7270   46.3560 C   0  0  0  0  0  0  0  0  0  0  0  0
   60.3710   27.9760   45.7630 C   0  0  0  0  0  0  0  0  0  0  0  0
   59.3680   29.0640   45.6200 N   0  0  0  0  0  0  0  0  0  0  0  0
   59.5440   29.8640   46.8210 C   0  0  0  0  0  0  0  0  0  0  0  0
   60.6450   30.8620   46.8170 C   0  0  0  0  0  0  0  0  0  0  0  0
   58.0950   28.3780   45.6170 C   0  0  0  0  0  0  0  0  0  0  0  0
   57.2800   28.7560   44.4320 C   0  0  0  0  0  0  0  0  0  0  0  0
   57.8660   29.9210   43.7670 N   0  0  0  0  0  0  0  0  0  0  0  0
   56.8170   30.7360   43.1970 C   0  0  0  0  0  0  0  0  0  0  0  0
   57.3940   32.0800   42.8270 C   0  0  0  0  0  0  0  0  0  0  0  0
   57.8610   32.7680   44.0700 C   0  0  0  0  0  0  0  0  0  0  0  0
   58.8420   33.7220   44.0910 C   0  0  0  0  0  0  0  0  0  0  0  0
   59.2220   34.2930   45.2860 C   0  0  0  0  0  0  0  0  0  0  0  0
   58.6310   33.9250   46.5040 C   0  0  0  0  0  0  0  0  0  0  0  0
   59.0870   34.5350   47.6860 N   0  0  0  0  0  0  0  0  0  0  0  0
   60.1380   34.2600   48.3240 C   0  0  0  0  0  0  0  0  0  0  0  0
   60.1080   34.1540   49.7220 C   0  0  0  0  0  0  0  0  0  0  0  0
   61.2620   33.8300   50.4010 C   0  0  0  0  0  0  0  0  0  0  0  0
   62.3870   33.6260   49.6770 N   0  0  0  0  0  0  0  0  0  0  0  0
   63.6620   33.2730   50.2870 C   0  0  0  0  0  0  0  0  0  0  0  0
   62.3900   33.7370   48.3200 C   0  0  0  0  0  0  0  0  0  0  0  0
   63.7750   33.4790   47.4710 S   0  0  0  0  0  0  0  0  0  0  0  0
   61.2740   34.0520   47.6470 N   0  0  0  0  0  0  0  0  0  0  0  0
   57.6450   32.9630   46.4470 C   0  0  0  0  0  0  0  0  0  0  0  0
   57.2550   32.3820   45.2440 C   0  0  0  0  0  0  0  0  0  0  0  0
   59.8360   26.7954   47.4534 H   0  0  0  0  0  0  0  0  0  0  0  0
   58.7631   26.6037   46.0256 H   0  0  0  0  0  0  0  0  0  0  0  0
   60.3992   25.8623   46.0256 H   0  0  0  0  0  0  0  0  0  0  0  0
   61.1843   28.3335   46.4117 H   0  0  0  0  0  0  0  0  0  0  0  0
   60.7274   27.7256   44.7529 H   0  0  0  0  0  0  0  0  0  0  0  0
   58.6045   30.4085   46.9965 H   0  0  0  0  0  0  0  0  0  0  0  0
   59.8183   29.1424   47.6046 H   0  0  0  0  0  0  0  0  0  0  0  0
   60.9187   31.1101   47.8531 H   0  0  0  0  0  0  0  0  0  0  0  0
   61.5188   30.4419   46.2975 H   0  0  0  0  0  0  0  0  0  0  0  0
   60.3124   31.7728   46.2975 H   0  0  0  0  0  0  0  0  0  0  0  0
   58.2729   27.2927   45.5980 H   0  0  0  0  0  0  0  0  0  0  0  0
   57.5433   28.6662   46.5239 H   0  0  0  0  0  0  0  0  0  0  0  0
   57.2501   27.9120   43.7272 H   0  0  0  0  0  0  0  0  0  0  0  0
   56.2607   29.0056   44.7619 H   0  0  0  0  0  0  0  0  0  0  0  0
   58.5480   29.6220   43.0290 H   0  0  0  0  0  0  0  0  0  0  0  0
   56.4149   30.2459   42.2980 H   0  0  0  0  0  0  0  0  0  0  0  0
   56.0050   30.8656   43.9276 H   0  0  0  0  0  0  0  0  0  0  0  0
   58.2428   31.9409   42.1413 H   0  0  0  0  0  0  0  0  0  0  0  0
   56.6254   32.6906   42.3306 H   0  0  0  0  0  0  0  0  0  0  0  0
   59.3271   34.0329   43.1540 H   0  0  0  0  0  0  0  0  0  0  0  0
   60.0112   35.0592   45.2850 H   0  0  0  0  0  0  0  0  0  0  0  0
   59.1712   34.3280   50.2716 H   0  0  0  0  0  0  0  0  0  0  0  0
   61.2688   33.7399   51.4973 H   0  0  0  0  0  0  0  0  0  0  0  0
   63.5644   33.3000   51.3823 H   0  0  0  0  0  0  0  0  0  0  0  0
   63.9525   32.2606   49.9696 H   0  0  0  0  0  0  0  0  0  0  0  0
   64.4318   33.9918   49.9696 H   0  0  0  0  0  0  0  0  0  0  0  0
   61.2590   34.1400   46.6150 H   0  0  0  0  0  0  0  0  0  0  0  0
   57.1529   32.6459   47.3783 H   0  0  0  0  0  0  0  0  0  0  0  0
   56.4649   31.6167   45.2314 H   0  0  0  0  0  0  0  0  0  0  0  0
  1  2  1  0
  2  3  1  0
  3  4  1  0
  4  5  1  0
  3  6  1  0
  6  7  1  0
  7  8  1  0
  8  9  1  0
  9 10  1  0
 10 11  1  0
 11 12  2  0
 12 13  1  0
 13 14  2  0
 14 15  1  0
 15 16  2  0
 16 17  1  0
 17 18  2  0
 18 19  1  0
 19 20  1  0
 19 21  1  0
 21 22  2  0
 21 23  1  0
 14 24  1  0
 24 25  2  0
 25 11  1  0
 23 16  1  0
  1 26  1  0
  1 27  1  0
  1 28  1  0
  2 29  1  0
  2 30  1  0
  4 31  1  0
  4 32  1  0
  5 33  1  0
  5 34  1  0
  5 35  1  0
  6 36  1  0
  6 37  1  0
  7 38  1  0
  7 39  1  0
  8 40  1  0
  9 41  1  0
  9 42  1  0
 10 43  1  0
 10 44  1  0
 12 45  1  0
 13 46  1  0
 17 47  1  0
 18 48  1  0
 20 49  1  0
 20 50  1  0
 20 51  1  0
 23 52  1  0
 24 53  1  0
 25 54  1  0
M  END
>  <smiles>  (35) 
CCN(CC)CCNCCc1ccc(N=c2ccn(C)c(=S)[nH]2)cc1

>  <score_type>  (35) 
oracle

>  <origin>  (35) 
adg

>  <m_score__min__energy>  (35) 
-7.4100000000000001

>  <m_primary>  (35) 
energy

$$$$
35:0
     RDKit          3D

 56 58  0  0  0  0  0  0  0  0999 V2000
   63.3890   33.8540   46.6000 C   0  0  0  0  0  0  0  0  0  0  0  0
   64.0510   33.5010   47.9340 C   0  0  0  0  0  0  0  0  0  0  0  0
   63.7950   32.0980   48.2930 N   0  0  0  0  0  0  0  0  0  0  0  0
   63.8770   31.9070   49.7520 C   0  0  0  0  0  0  0  0  0  0  0  0
   63.2560   33.0900   50.5220 C   0  0  0  0  0  0  0  0  0  0  0  0
   61.8200   33.2190   50.2290 N   0  0  0  0  0  0  0  0  0  0  0  0
   61.2890   33.9750   49.2410 C   0  0  0  0  0  0  0  0  0  0  0  0
   59.9500   33.6500   49.0440 C   0  0  0  0  0  0  0  0  0  0  0  0
   59.0960   34.1050   47.9420 C   0  0  0  0  0  0  0  0  0  0  0  0
   58.9510   35.3440   47.7560 O   0  0  0  0  0  0  0  0  0  0  0  0
   58.2590   33.1380   47.1480 C   0  0  0  0  0  0  0  0  0  0  0  0
   58.3780   33.3160   45.6120 C   0  0  0  0  0  0  0  0  0  0  0  0
   59.4490   34.2110   44.9540 C   0  0  0  0  0  0  0  0  0  0  0  0
   57.0340   33.2710   44.8600 C   0  0  0  0  0  0  0  0  0  0  0  0
   58.9150   32.0240   46.2880 C   0  0  0  0  0  0  0  0  0  0  0  0
   60.4320   31.8130   46.4480 C   0  0  0  0  0  0  0  0  0  0  0  0
   58.0980   30.7340   46.0460 C   0  0  0  0  0  0  0  0  0  0  0  0
   59.6810   32.6260   49.9390 C   0  0  0  0  0  0  0  0  0  0  0  0
   58.5300   31.8630   50.1400 C   0  0  0  0  0  0  0  0  0  0  0  0
   58.5410   30.8940   51.1710 C   0  0  0  0  0  0  0  0  0  0  0  0
   57.4180   30.1120   51.4820 O   0  0  0  0  0  0  0  0  0  0  0  0
   56.3980   30.4930   52.4000 C   0  0  0  0  0  0  0  0  0  0  0  0
   59.7120   30.7010   51.9340 C   0  0  0  0  0  0  0  0  0  0  0  0
   60.8770   31.4410   51.6660 C   0  0  0  0  0  0  0  0  0  0  0  0
   60.8260   32.4110   50.6630 C   0  0  0  0  0  0  0  0  0  0  0  0
   62.4328   34.3639   46.7888 H   0  0  0  0  0  0  0  0  0  0  0  0
   64.0518   34.5184   46.0262 H   0  0  0  0  0  0  0  0  0  0  0  0
   63.2066   32.9334   46.0262 H   0  0  0  0  0  0  0  0  0  0  0  0
   65.1364   33.6588   47.8501 H   0  0  0  0  0  0  0  0  0  0  0  0
   63.6278   34.1467   48.7176 H   0  0  0  0  0  0  0  0  0  0  0  0
   62.8400   31.8250   47.9610 H   0  0  0  0  0  0  0  0  0  0  0  0
   64.5120   31.5050   47.8160 H   0  0  0  0  0  0  0  0  0  0  0  0
   63.3392   30.9859   50.0210 H   0  0  0  0  0  0  0  0  0  0  0  0
   64.9397   31.8404   50.0282 H   0  0  0  0  0  0  0  0  0  0  0  0
   63.3888   32.9251   51.6014 H   0  0  0  0  0  0  0  0  0  0  0  0
   63.7608   34.0150   50.2066 H   0  0  0  0  0  0  0  0  0  0  0  0
   61.8386   34.7398   48.6726 H   0  0  0  0  0  0  0  0  0  0  0  0
   57.4672   33.1082   47.9110 H   0  0  0  0  0  0  0  0  0  0  0  0
   60.0428   34.7073   45.7357 H   0  0  0  0  0  0  0  0  0  0  0  0
   60.1097   33.5927   44.3286 H   0  0  0  0  0  0  0  0  0  0  0  0
   58.9579   34.9711   44.3286 H   0  0  0  0  0  0  0  0  0  0  0  0
   56.2083   33.2434   45.5862 H   0  0  0  0  0  0  0  0  0  0  0  0
   56.9370   34.1664   44.2285 H   0  0  0  0  0  0  0  0  0  0  0  0
   56.9972   32.3711   44.2285 H   0  0  0  0  0  0  0  0  0  0  0  0
   60.6865   31.7776   47.5176 H   0  0  0  0  0  0  0  0  0  0  0  0
   60.7228   30.8658   45.9704 H   0  0  0  0  0  0  0  0  0  0  0  0
   60.9703   32.6449   45.9704 H   0  0  0  0  0  0  0  0  0  0  0  0
   57.8174   30.2909   47.0129 H   0  0  0  0  0  0  0  0  0  0  0  0
   57.1889   30.9772   45.4765 H   0  0  0  0  0  0  0  0  0  0  0  0
   58.7064   30.0161   45.4765 H   0  0  0  0  0  0  0  0  0  0  0  0
   57.6379   32.0109   49.5136 H   0  0  0  0  0  0  0  0  0  0  0  0
   56.7616   30.3572   53.4292 H   0  0  0  0  0  0  0  0  0  0  0  0
   56.1366   31.5494   52.2399 H   0  0  0  0  0  0  0  0  0  0  0  0
   55.5080   29.8667   52.2399 H   0  0  0  0  0  0  0  0  0  0  0  0
   59.7135   29.9621   52.7489 H   0  0  0  0  0  0  0  0  0  0  0  0
   61.8034   31.2607   52.2311 H   0  0  0  0  0  0  0  0  0  0  0  0
  1  2  1  0
  2  3  1  0
  3  4  1  0
  4  5  1  0
  5  6  1  0
  6  7  1  0
  7  8  2  0
  8  9  1  0
  9 10  2  0
  9 11  1  0
 11 12  1  0
 12 13  1  0
 12 14  1  0
 12 15  1  0
 15 16  1  0
 15 17  1  0
  8 18  1  0
 18 19  2  0
 19 20  1  0
 20 21  1  0
 21 22  1  0
 20 23  2  0
 23 24  1  0
 24 25  2  0
 25  6  1  0
 15 11  1  0
 25 18  1  0
  1 26  1  0
  1 27  1  0
  1 28  1  0
  2 29  1  0
  2 30  1  0
  3 31  1  0
  3 32  1  0
  4 33  1  0
  4 34  1  0
  5 35  1  0
  5 36  1  0
  7 37  1  0
 11 38  1  0
 13 39  1  0
 13 40  1  0
 13 41  1  0
 14 42  1  0
 14 43  1  0
 14 44  1  0
 16 45  1  0
 16 46  1  0
 16 47  1  0
 17 48  1  0
 17 49  1  0
 17 50  1  0
 19 51  1  0
 22 52  1  0
 22 53  1  0
 22 54  1  0
 23 55  1  0
 24 56  1  0
M  CHG  1   3   1
M  END
>  <UniqueID>  (36) 
34

>  <SMILES>  (36) 
CC[NH2+]CCn1cc(C(=O)C2C(C)(C)C2(C)C)c2cc(OC)ccc21

>  <Energy>  (36) 
369.8781415488581

>  <Genealogy>  (36) 
CC[NH2+]CCn1cc(C(=O)C2C(C)(C)C2(C)C)c2cc(OC)ccc21 (protonated)
CC[NH2+]CCn1cc(C(=O)C2C(C)(C)C2(C)C)c2cc(OC)ccc21 (3D coordinates assigned)
CC[NH2+]CCn1cc(C(=O)C2C(C)(C)C2(C)C)c2cc(OC)ccc21 (nonaromatic ring conformer: 369.8781415488581 kcal/mol)

>  <smiles>  (36) 
CCNCCn1cc(C(=O)C2C(C)(C)C2(C)C)c2cc(OC)ccc21

>  <score_type>  (36) 
oracle

>  <origin>  (36) 
adg

>  <m_score__min__energy>  (36) 
-6.0800000000000001

>  <m_primary>  (36) 
energy

$$$$
36:0
     RDKit          3D

 74 79  0  0  0  0  0  0  0  0999 V2000
   59.2620   34.0735   44.5935 H   0  0  0  0  0  0  0  0  0  0  0  0
   59.5700   33.9480   45.6420 C   0  0  0  0  0  0  0  0  0  0  0  0
   58.6020   33.8950   46.6550 C   0  0  0  0  0  0  0  0  0  0  0  0
   57.2270   33.9240   46.3780 O   0  0  0  0  0  0  0  0  0  0  0  0
   56.6490   34.5490   45.2350 C   0  0  0  0  0  0  0  0  0  0  0  0
   55.9356   35.3204   45.5604 H   0  0  0  0  0  0  0  0  0  0  0  0
   57.4420   35.0143   44.6312 H   0  0  0  0  0  0  0  0  0  0  0  0
   56.1233   33.7947   44.6312 H   0  0  0  0  0  0  0  0  0  0  0  0
   59.5680   28.9080   45.4590 C   0  0  0  0  0  0  0  0  0  0  0  0
   60.6084   28.7349   45.7714 H   0  0  0  0  0  0  0  0  0  0  0  0
   58.5960   27.9020   45.6700 C   0  0  0  0  0  0  0  0  0  0  0  0
   60.8670   33.7140   49.7040 C   0  0  0  0  0  0  0  0  0  0  0  0
   60.1590   33.9910   50.7730 N   0  0  0  0  0  0  0  0  0  0  0  0
   59.2160   33.2150   51.5710 C   0  0  0  0  0  0  0  0  0  0  0  0
   58.2268   33.2365   51.0904 H   0  0  0  0  0  0  0  0  0  0  0  0
   59.1483   33.6510   52.5786 H   0  0  0  0  0  0  0  0  0  0  0  0
   59.6980   31.7630   51.6790 C   0  0  0  0  0  0  0  0  0  0  0  0
   59.4844   31.3962   52.6938 H   0  0  0  0  0  0  0  0  0  0  0  0
   60.7761   31.7545   51.4609 H   0  0  0  0  0  0  0  0  0  0  0  0
   59.0140   30.8330   50.6670 C   0  0  0  0  0  0  0  0  0  0  0  0
   59.1765   31.2191   49.6499 H   0  0  0  0  0  0  0  0  0  0  0  0
   57.9363   30.7940   50.8838 H   0  0  0  0  0  0  0  0  0  0  0  0
   59.5770   29.4750   50.7690 N   0  0  0  0  0  0  0  0  0  0  0  0
   60.0520   29.3500   51.6920 H   0  0  0  0  0  0  0  0  0  0  0  0
   60.4780   29.1180   49.6590 C   0  0  0  0  0  0  0  0  0  0  0  0
   61.3289   28.5535   50.0680 H   0  0  0  0  0  0  0  0  0  0  0  0
   60.7942   30.0572   49.1816 H   0  0  0  0  0  0  0  0  0  0  0  0
   59.8000   28.2620   48.5750 C   0  0  0  0  0  0  0  0  0  0  0  0
   59.5457   28.9115   47.7245 H   0  0  0  0  0  0  0  0  0  0  0  0
   58.9067   27.8071   49.0279 H   0  0  0  0  0  0  0  0  0  0  0  0
   60.6850   27.1220   48.0690 C   0  0  0  0  0  0  0  0  0  0  0  0
   60.7367   26.3293   48.8299 H   0  0  0  0  0  0  0  0  0  0  0  0
   61.6996   27.4980   47.8710 H   0  0  0  0  0  0  0  0  0  0  0  0
   60.1090   26.5850   46.8410 N   0  0  0  0  0  0  0  0  0  0  0  0
   58.9160   26.6710   46.3030 C   0  0  0  0  0  0  0  0  0  0  0  0
   60.3770   33.7690   48.3540 C   0  0  0  0  0  0  0  0  0  0  0  0
   59.0080   33.7960   47.9920 C   0  0  0  0  0  0  0  0  0  0  0  0
   58.2439   33.7377   48.7811 H   0  0  0  0  0  0  0  0  0  0  0  0
   59.2180   30.1200   44.8570 C   0  0  0  0  0  0  0  0  0  0  0  0
   59.9846   30.8917   44.6931 H   0  0  0  0  0  0  0  0  0  0  0  0
   57.9000   30.3550   44.4630 C   0  0  0  0  0  0  0  0  0  0  0  0
   57.4670   31.8790   43.7090 Cl  0  0  0  0  0  0  0  0  0  0  0  0
   60.9190   33.8420   45.9620 C   0  0  0  0  0  0  0  0  0  0  0  0
   61.6724   33.8519   45.1606 H   0  0  0  0  0  0  0  0  0  0  0  0
   61.3250   33.7230   47.2940 C   0  0  0  0  0  0  0  0  0  0  0  0
   56.3050   27.2290   45.4700 N   0  0  0  0  0  0  0  0  0  0  0  0
   56.5690   26.0160   46.0110 C   0  0  0  0  0  0  0  0  0  0  0  0
   55.5160   25.1080   46.1550 C   0  0  0  0  0  0  0  0  0  0  0  0
   54.4925   25.4141   45.8927 H   0  0  0  0  0  0  0  0  0  0  0  0
   55.7510   23.8210   46.6270 C   0  0  0  0  0  0  0  0  0  0  0  0
   54.9107   23.1254   46.7688 H   0  0  0  0  0  0  0  0  0  0  0  0
   57.0580   23.4100   46.9220 C   0  0  0  0  0  0  0  0  0  0  0  0
   57.3540   22.1040   47.3420 O   0  0  0  0  0  0  0  0  0  0  0  0
   57.1340   20.9350   46.5600 C   0  0  0  0  0  0  0  0  0  0  0  0
   56.9720   20.0740   47.2252 H   0  0  0  0  0  0  0  0  0  0  0  0
   56.2474   21.0799   45.9253 H   0  0  0  0  0  0  0  0  0  0  0  0
   58.0127   20.7477   45.9253 H   0  0  0  0  0  0  0  0  0  0  0  0
   58.1130   24.3200   46.7870 C   0  0  0  0  0  0  0  0  0  0  0  0
   59.1401   23.9830   46.9906 H   0  0  0  0  0  0  0  0  0  0  0  0
   57.8930   25.6640   46.3950 C   0  0  0  0  0  0  0  0  0  0  0  0
   62.2450   33.4400   49.9130 C   0  0  0  0  0  0  0  0  0  0  0  0
   62.7880   33.2810   51.2090 C   0  0  0  0  0  0  0  0  0  0  0  0
   62.1280   33.3398   52.0870 H   0  0  0  0  0  0  0  0  0  0  0  0
   64.1540   33.0500   51.3850 C   0  0  0  0  0  0  0  0  0  0  0  0
   64.5626   32.9252   52.3986 H   0  0  0  0  0  0  0  0  0  0  0  0
   65.0020   32.9770   50.2800 C   0  0  0  0  0  0  0  0  0  0  0  0
   66.7180   32.6890   50.5080 Cl  0  0  0  0  0  0  0  0  0  0  0  0
   64.4850   33.1350   48.9930 C   0  0  0  0  0  0  0  0  0  0  0  0
   65.1556   33.0792   48.1228 H   0  0  0  0  0  0  0  0  0  0  0  0
   63.1180   33.3640   48.8050 C   0  0  0  0  0  0  0  0  0  0  0  0
   62.6410   33.5290   47.5520 N   0  0  0  0  0  0  0  0  0  0  0  0
   57.2670   28.1560   45.2670 C   0  0  0  0  0  0  0  0  0  0  0  0
   56.9260   29.3770   44.6710 C   0  0  0  0  0  0  0  0  0  0  0  0
   55.8863   29.5659   44.3656 H   0  0  0  0  0  0  0  0  0  0  0  0
  1  2  1  0
  2  3  2  0
  3  4  1  0
  4  5  1  0
  5  6  1  0
  5  7  1  0
  5  8  1  0
  3  9  1  0
  9 10  1  0
  9 11  2  0
 11 12  1  0
 12 13  2  0
 13 14  1  0
 14 15  1  0
 14 16  1  0
 14 17  1  0
 17 18  1  0
 17 19  1  0
 17 20  1  0
 20 21  1  0
 20 22  1  0
 20 23  1  0
 23 24  1  0
 23 25  1  0
 25 26  1  0
 25 27  1  0
 25 28  1  0
 28 29  1  0
 28 30  1  0
 28 31  1  0
 31 32  1  0
 31 33  1  0
 31 34  1  0
 34 35  2  0
 35 36  1  0
 36 37  2  0
 37 38  1  0
 37 39  1  0
 39 40  1  0
 39 41  2  0
 41 42  1  0
 41 43  1  0
 43 44  1  0
 43 45  2  0
 45 46  1  0
 46 47  1  0
 47 48  2  0
 48 49  1  0
 48 50  1  0
 50 51  1  0
 50 52  2  0
 52 53  1  0
 53 54  1  0
 54 55  1  0
 54 56  1  0
 54 57  1  0
 52 58  1  0
 58 59  1  0
 58 60  2  0
 12 61  1  0
 61 62  2  0
 62 63  1  0
 62 64  1  0
 64 65  1  0
 64 66  2  0
 66 67  1  0
 66 68  1  0
 68 69  1  0
 68 70  2  0
 70 71  1  0
 71 72  1  0
 72 73  2  0
 73 74  1  0
 73  2  1  0
 72 11  1  0
 60 35  1  0
 70 61  1  0
 45 36  1  0
 60 47  1  0
M  CHG  2  46  -1  71  -1
M  END
>  <UniqueID>  (37) 
35

>  <SMILES>  (37) 
COc1ccc2[n-]c3cc(Cl)ccc3/c(=N/CCCNCCC/N=c3/c4ccc(Cl)cc4[n-]c4ccc(OC)cc34)c2c1

>  <Energy>  (37) 
121.74045979714892

>  <Genealogy>  (37) 
COc1ccc2[n-]c3cc(Cl)ccc3c(=NCCCNCCCN=c3c4ccc(Cl)cc4[n-]c4ccc(OC)cc34)c2c1 (protonated)
COc1ccc2[n-]c3cc(Cl)ccc3/c(=N/CCCNCCC/N=c3/c4ccc(Cl)cc4[n-]c4ccc(OC)cc34)c2c1 (cis-trans isomerization)
COc1ccc2[n-]c3cc(Cl)ccc3/c(=N/CCCNCCC/N=c3/c4ccc(Cl)cc4[n-]c4ccc(OC)cc34)c2c1 (3D coordinates assigned)
COc1ccc2[n-]c3cc(Cl)ccc3/c(=N/CCCNCCC/N=c3/c4ccc(Cl)cc4[n-]c4ccc(OC)cc34)c2c1 (optimized conformer: 121.74045979714892 kcal/mol)

>  <smiles>  (37) 
COc1ccc2[nH]c3cc(Cl)ccc3c(=NCCCNCCCN=c3c4ccc(Cl)cc4[nH]c4ccc(OC)cc34)c2c1

>  <score_type>  (37) 
oracle

>  <origin>  (37) 
adg

>  <m_score__min__energy>  (37) 
-12.06

>  <m_primary>  (37) 
energy

$$$$
37:0
     RDKit          3D

 34 35  0  0  0  0  0  0  0  0999 V2000
   56.4420   30.0900   43.3190 C   0  0  0  0  0  0  0  0  0  0  0  0
   56.2710   30.8280   44.5240 O   0  0  0  0  0  0  0  0  0  0  0  0
   57.1620   31.8080   44.9850 C   0  0  0  0  0  0  0  0  0  0  0  0
   58.5280   31.5440   45.2030 C   0  0  0  0  0  0  0  0  0  0  0  0
   59.3730   32.5510   45.6780 C   0  0  0  0  0  0  0  0  0  0  0  0
   58.8660   33.8300   45.9560 C   0  0  0  0  0  0  0  0  0  0  0  0
   59.7670   34.8910   46.5340 C   0  0  0  0  0  0  0  0  0  0  0  0
   59.6120   34.9800   47.9950 N   0  0  0  0  0  0  0  0  0  0  0  0
   59.9440   33.7190   48.6800 C   0  0  0  0  0  0  0  0  0  0  0  0
   61.3360   33.2650   48.3240 C   0  0  0  0  0  0  0  0  0  0  0  0
   62.4210   34.1430   48.4570 C   0  0  0  0  0  0  0  0  0  0  0  0
   63.6980   33.7220   48.0770 C   0  0  0  0  0  0  0  0  0  0  0  0
   63.8890   32.4650   47.5930 N   0  0  0  0  0  0  0  0  0  0  0  0
   62.8560   31.5880   47.4720 C   0  0  0  0  0  0  0  0  0  0  0  0
   61.5640   31.9690   47.8390 C   0  0  0  0  0  0  0  0  0  0  0  0
   57.5110   34.0990   45.7160 C   0  0  0  0  0  0  0  0  0  0  0  0
   56.6670   33.0920   45.2370 C   0  0  0  0  0  0  0  0  0  0  0  0
   56.6842   29.0445   43.5606 H   0  0  0  0  0  0  0  0  0  0  0  0
   55.5120   30.1248   42.7326 H   0  0  0  0  0  0  0  0  0  0  0  0
   57.2619   30.5303   42.7326 H   0  0  0  0  0  0  0  0  0  0  0  0
   58.9316   30.5413   44.9987 H   0  0  0  0  0  0  0  0  0  0  0  0
   60.4411   32.3400   45.8348 H   0  0  0  0  0  0  0  0  0  0  0  0
   60.8122   34.6421   46.2982 H   0  0  0  0  0  0  0  0  0  0  0  0
   59.4915   35.8607   46.0939 H   0  0  0  0  0  0  0  0  0  0  0  0
   58.6010   35.1780   48.1840 H   0  0  0  0  0  0  0  0  0  0  0  0
   59.8822   33.8726   49.7675 H   0  0  0  0  0  0  0  0  0  0  0  0
   59.2294   32.9463   48.3603 H   0  0  0  0  0  0  0  0  0  0  0  0
   62.2680   35.1560   48.8576 H   0  0  0  0  0  0  0  0  0  0  0  0
   64.5518   34.4093   48.1695 H   0  0  0  0  0  0  0  0  0  0  0  0
   64.8490   32.1660   47.3090 H   0  0  0  0  0  0  0  0  0  0  0  0
   63.0394   30.5753   47.0837 H   0  0  0  0  0  0  0  0  0  0  0  0
   60.7302   31.2573   47.7483 H   0  0  0  0  0  0  0  0  0  0  0  0
   57.1103   35.1058   45.9052 H   0  0  0  0  0  0  0  0  0  0  0  0
   55.6043   33.3115   45.0567 H   0  0  0  0  0  0  0  0  0  0  0  0
  1  2  1  0
  2  3  1  0
  3  4  2  0
  4  5  1  0
  5  6  2  0
  6  7  1  0
  7  8  1  0
  8  9  1  0
  9 10  1  0
 10 11  2  0
 11 12  1  0
 12 13  2  0
 13 14  1  0
 14 15  2  0
  6 16  1  0
 16 17  2  0
 17  3  1  0
 15 10  1  0
  1 18  1  0
  1 19  1  0
  1 20  1  0
  4 21  1  0
  5 22  1  0
  7 23  1  0
  7 24  1  0
  8 25  1  0
  9 26  1  0
  9 27  1  0
 11 28  1  0
 12 29  1  0
 13 30  1  0
 14 31  1  0
 15 32  1  0
 16 33  1  0
 17 34  1  0
M  CHG  1  13   1
M  END
>  <UniqueID>  (38) 
36

>  <SMILES>  (38) 
COc1ccc(CNCc2cc[nH+]cc2)cc1

>  <Energy>  (38) 
30.528515795816613

>  <Genealogy>  (38) 
COc1ccc(CNCc2cc[nH+]cc2)cc1 (protonated)
COc1ccc(CNCc2cc[nH+]cc2)cc1 (3D coordinates assigned)
COc1ccc(CNCc2cc[nH+]cc2)cc1 (optimized conformer: 30.528515795816613 kcal/mol)

>  <smiles>  (38) 
COc1ccc(CNCc2ccncc2)cc1

>  <score_type>  (38) 
oracle

>  <origin>  (38) 
adg

>  <m_score__min__energy>  (38) 
-5.04

>  <m_primary>  (38) 
energy

$$$$
38:0
     RDKit          3D

 45 47  0  0  0  0  0  0  0  0999 V2000
   60.2880   30.6670   47.7830 C   0  0  0  0  0  0  0  0  0  0  0  0
   59.3390   31.6700   47.4210 O   0  0  0  0  0  0  0  0  0  0  0  0
   58.8670   31.8200   46.1100 C   0  0  0  0  0  0  0  0  0  0  0  0
   58.9900   33.0760   45.4780 C   0  0  0  0  0  0  0  0  0  0  0  0
   59.5230   34.2830   46.2270 C   0  0  0  0  0  0  0  0  0  0  0  0
   60.5020   33.9310   47.2880 N   0  0  0  0  0  0  0  0  0  0  0  0
   61.9140   34.1350   46.8640 C   0  0  0  0  0  0  0  0  0  0  0  0
   62.9830   33.6730   47.8770 C   0  0  0  0  0  0  0  0  0  0  0  0
   62.9040   34.3060   49.2850 C   0  0  0  0  0  0  0  0  0  0  0  0
   61.8880   33.6430   50.2340 C   0  0  0  0  0  0  0  0  0  0  0  0
   60.4000   33.7990   49.8280 C   0  0  0  0  0  0  0  0  0  0  0  0
   60.1320   34.6230   48.5500 C   0  0  0  0  0  0  0  0  0  0  0  0
   58.5890   33.2220   44.1430 C   0  0  0  0  0  0  0  0  0  0  0  0
   58.0690   32.1440   43.4230 C   0  0  0  0  0  0  0  0  0  0  0  0
   57.7050   32.3640   42.0410 C   0  0  0  0  0  0  0  0  0  0  0  0
   57.4130   32.5400   40.9350 N   0  0  0  0  0  0  0  0  0  0  0  0
   57.8800   30.8980   44.0590 C   0  0  0  0  0  0  0  0  0  0  0  0
   57.3030   29.8040   43.3780 C   0  0  0  0  0  0  0  0  0  0  0  0
   57.0630   28.6010   44.0420 C   0  0  0  0  0  0  0  0  0  0  0  0
   57.3730   28.4730   45.3930 C   0  0  0  0  0  0  0  0  0  0  0  0
   57.9530   29.5360   46.0840 C   0  0  0  0  0  0  0  0  0  0  0  0
   58.2520   30.7460   45.4240 C   0  0  0  0  0  0  0  0  0  0  0  0
   60.3510   30.6004   48.8792 H   0  0  0  0  0  0  0  0  0  0  0  0
   59.9697   29.6966   47.3744 H   0  0  0  0  0  0  0  0  0  0  0  0
   61.2745   30.9311   47.3744 H   0  0  0  0  0  0  0  0  0  0  0  0
   60.0152   34.9521   45.5058 H   0  0  0  0  0  0  0  0  0  0  0  0
   58.6661   34.7644   46.7210 H   0  0  0  0  0  0  0  0  0  0  0  0
   60.4010   32.9090   47.4800 H   0  0  0  0  0  0  0  0  0  0  0  0
   62.0709   33.5791   45.9279 H   0  0  0  0  0  0  0  0  0  0  0  0
   62.0450   35.2222   46.7599 H   0  0  0  0  0  0  0  0  0  0  0  0
   62.8878   32.5832   47.9926 H   0  0  0  0  0  0  0  0  0  0  0  0
   63.9467   34.0002   47.4595 H   0  0  0  0  0  0  0  0  0  0  0  0
   63.8997   34.2376   49.7475 H   0  0  0  0  0  0  0  0  0  0  0  0
   62.5633   35.3419   49.1406 H   0  0  0  0  0  0  0  0  0  0  0  0
   62.1168   32.5680   50.2789 H   0  0  0  0  0  0  0  0  0  0  0  0
   61.9945   34.1580   51.2002 H   0  0  0  0  0  0  0  0  0  0  0  0
   59.9858   32.7919   49.6726 H   0  0  0  0  0  0  0  0  0  0  0  0
   59.9251   34.3583   50.6476 H   0  0  0  0  0  0  0  0  0  0  0  0
   59.0584   34.8596   48.5113 H   0  0  0  0  0  0  0  0  0  0  0  0
   60.7651   35.5202   48.6149 H   0  0  0  0  0  0  0  0  0  0  0  0
   58.6855   34.2025   43.6538 H   0  0  0  0  0  0  0  0  0  0  0  0
   57.0404   29.9012   42.3142 H   0  0  0  0  0  0  0  0  0  0  0  0
   56.6275   27.7509   43.4964 H   0  0  0  0  0  0  0  0  0  0  0  0
   57.1596   27.5298   45.9173 H   0  0  0  0  0  0  0  0  0  0  0  0
   58.1798   29.4298   47.1551 H   0  0  0  0  0  0  0  0  0  0  0  0
  1  2  1  0
  2  3  1  0
  3  4  2  0
  4  5  1  0
  5  6  1  0
  6  7  1  0
  7  8  1  0
  8  9  1  0
  9 10  1  0
 10 11  1  0
 11 12  1  0
  4 13  1  0
 13 14  2  0
 14 15  1  0
 15 16  3  0
 14 17  1  0
 17 18  2  0
 18 19  1  0
 19 20  2  0
 20 21  1  0
 21 22  2  0
 22  3  1  0
 12  6  1  0
 22 17  1  0
  1 23  1  0
  1 24  1  0
  1 25  1  0
  5 26  1  0
  5 27  1  0
  6 28  1  0
  7 29  1  0
  7 30  1  0
  8 31  1  0
  8 32  1  0
  9 33  1  0
  9 34  1  0
 10 35  1  0
 10 36  1  0
 11 37  1  0
 11 38  1  0
 12 39  1  0
 12 40  1  0
 13 41  1  0
 18 42  1  0
 19 43  1  0
 20 44  1  0
 21 45  1  0
M  CHG  1   6   1
M  END
>  <UniqueID>  (39) 
37

>  <SMILES>  (39) 
COc1c(C[NH+]2CCCCCC2)cc(C#N)c2ccccc12

>  <Energy>  (39) 
74.91470214473021

>  <Genealogy>  (39) 
COc1c(C[NH+]2CCCCCC2)cc(C#N)c2ccccc12 (protonated)
COc1c(C[NH+]2CCCCCC2)cc(C#N)c2ccccc12 (3D coordinates assigned)
COc1c(C[NH+]2CCCCCC2)cc(C#N)c2ccccc12 (nonaromatic ring conformer: 74.91470214473021 kcal/mol)

>  <smiles>  (39) 
COc1c(CN2CCCCCC2)cc(C#N)c2ccccc12

>  <score_type>  (39) 
oracle

>  <origin>  (39) 
adg

>  <m_score__min__energy>  (39) 
-3.75

>  <m_primary>  (39) 
energy

$$$$
39:0
     RDKit          3D

 40 43  0  0  0  0  0  0  0  0999 V2000
   59.6670   36.0210   45.9350 C   0  0  0  0  0  0  0  0  0  0  0  0
   60.0470   34.6050   45.7890 N   0  0  0  0  0  0  0  0  0  0  0  0
   59.3290   33.9730   44.6430 C   0  0  0  0  0  0  0  0  0  0  0  0
   57.8660   33.5310   44.9970 C   0  0  2  0  0  0  0  0  0  0  0  0
   57.7620   33.2670   46.4780 C   0  0  0  0  0  0  0  0  0  0  0  0
   58.8770   32.7650   47.0040 C   0  0  0  0  0  0  0  0  0  0  0  0
   59.3110   31.3920   46.5890 C   0  0  0  0  0  0  0  0  0  0  0  0
   58.6900   30.6390   45.6600 C   0  0  0  0  0  0  0  0  0  0  0  0
   59.2340   29.3190   45.1960 C   0  0  0  0  0  0  0  0  0  0  0  0
   58.3000   28.8810   44.2240 O   0  0  0  0  0  0  0  0  0  0  0  0
   57.2620   29.7850   44.0770 C   0  0  0  0  0  0  0  0  0  0  0  0
   56.3020   29.5970   43.2860 O   0  0  0  0  0  0  0  0  0  0  0  0
   57.3910   30.9650   44.9690 C   0  0  2  0  0  0  0  0  0  0  0  0
   57.4210   32.2920   44.1700 C   0  0  0  0  0  0  0  0  0  0  0  0
   59.9390   33.8540   47.0860 C   0  0  1  0  0  0  0  0  0  0  0  0
   61.2990   33.3370   47.5230 C   0  0  0  0  0  0  0  0  0  0  0  0
   62.4100   33.4960   46.6740 C   0  0  0  0  0  0  0  0  0  0  0  0
   63.6760   33.0640   47.0750 C   0  0  0  0  0  0  0  0  0  0  0  0
   63.8530   32.4800   48.3310 C   0  0  0  0  0  0  0  0  0  0  0  0
   62.7620   32.3310   49.1900 C   0  0  0  0  0  0  0  0  0  0  0  0
   61.4920   32.7600   48.7940 C   0  0  0  0  0  0  0  0  0  0  0  0
   59.5991   36.2741   47.0033 H   0  0  0  0  0  0  0  0  0  0  0  0
   60.4266   36.6558   45.4553 H   0  0  0  0  0  0  0  0  0  0  0  0
   58.6917   36.1902   45.4553 H   0  0  0  0  0  0  0  0  0  0  0  0
   59.2848   34.6972   43.8162 H   0  0  0  0  0  0  0  0  0  0  0  0
   59.8869   33.0655   44.3688 H   0  0  0  0  0  0  0  0  0  0  0  0
   57.1812   34.3496   44.7307 H   0  0  0  0  0  0  0  0  0  0  0  0
   56.8544   33.4693   47.0656 H   0  0  0  0  0  0  0  0  0  0  0  0
   60.2006   30.9684   47.0780 H   0  0  0  0  0  0  0  0  0  0  0  0
   60.2319   29.4432   44.7502 H   0  0  0  0  0  0  0  0  0  0  0  0
   59.3542   28.5996   46.0194 H   0  0  0  0  0  0  0  0  0  0  0  0
   56.5532   31.1279   45.6629 H   0  0  0  0  0  0  0  0  0  0  0  0
   58.1195   32.1712   43.3288 H   0  0  0  0  0  0  0  0  0  0  0  0
   56.3879   32.4861   43.8458 H   0  0  0  0  0  0  0  0  0  0  0  0
   59.6022   34.5469   47.8711 H   0  0  0  0  0  0  0  0  0  0  0  0
   62.2802   33.9641   45.6871 H   0  0  0  0  0  0  0  0  0  0  0  0
   64.5360   33.1841   46.3997 H   0  0  0  0  0  0  0  0  0  0  0  0
   64.8506   32.1377   48.6435 H   0  0  0  0  0  0  0  0  0  0  0  0
   62.9025   31.8748   50.1810 H   0  0  0  0  0  0  0  0  0  0  0  0
   60.6384   32.6465   49.4784 H   0  0  0  0  0  0  0  0  0  0  0  0
  1  2  1  0
  2  3  1  0
  3  4  1  0
  4  5  1  0
  5  6  2  0
  6  7  1  0
  7  8  2  0
  8  9  1  0
  9 10  1  0
 10 11  1  0
 11 12  2  0
 11 13  1  0
 13 14  1  0
  6 15  1  0
 15 16  1  0
 16 17  2  0
 17 18  1  0
 18 19  2  0
 19 20  1  0
 20 21  2  0
 15  2  1  0
 21 16  1  0
 14  4  1  0
 13  8  1  0
  1 22  1  0
  1 23  1  0
  1 24  1  0
  3 25  1  0
  3 26  1  0
  4 27  1  6
  5 28  1  0
  7 29  1  0
  9 30  1  0
  9 31  1  0
 13 32  1  1
 14 33  1  0
 14 34  1  0
 15 35  1  1
 17 36  1  0
 18 37  1  0
 19 38  1  0
 20 39  1  0
 21 40  1  0
M  END
>  <UniqueID>  (40) 
38

>  <SMILES>  (40) 
CN1C[C@@H]2C=C(C=C3COC(=O)[C@@H]3C2)C1c1ccccc1

>  <Energy>  (40) 
112.53738653417658

>  <Genealogy>  (40) 
CN1C[C@@H]2C=C(C=C3COC(=O)[C@@H]3C2)C1c1ccccc1 (chirality)
CN1C[C@@H]2C=C(C=C3COC(=O)[C@@H]3C2)C1c1ccccc1 (3D coordinates assigned)
CN1C[C@@H]2C=C(C=C3COC(=O)[C@@H]3C2)C1c1ccccc1 (nonaromatic ring conformer: 112.53738653417658 kcal/mol)

>  <smiles>  (40) 
CN1CC2C=C(C=C3COC(=O)C3C2)C1c1ccccc1

>  <score_type>  (40) 
oracle

>  <origin>  (40) 
adg

>  <m_score__min__energy>  (40) 
-7.0899999999999999

>  <m_primary>  (40) 
energy

$$$$
40:0
     RDKit          3D

 42 43  0  0  0  0  0  0  0  0999 V2000
   63.3290   32.9750   47.1440 C   0  0  0  0  0  0  0  0  0  0  0  0
   62.5500   31.6670   47.2230 C   0  0  0  0  0  0  0  0  0  0  0  0
   61.4900   31.5890   48.3650 C   0  0  0  0  0  0  0  0  0  0  0  0
   60.1280   31.0040   48.0610 N   0  0  0  0  0  0  0  0  0  0  0  0
   60.1620   29.5560   48.4240 C   0  0  0  0  0  0  0  0  0  0  0  0
   59.0720   31.7880   48.8170 C   0  0  0  0  0  0  0  0  0  0  0  0
   59.5360   32.9120   49.7990 C   0  0  0  0  0  0  0  0  0  0  0  0
   59.6530   34.2830   49.1320 C   0  0  0  0  0  0  0  0  0  0  0  0
   59.9120   31.0980   46.5550 C   0  0  1  0  0  0  0  0  0  0  0  0
   58.9040   30.0430   45.9730 C   0  0  0  0  0  0  0  0  0  0  0  0
   57.7780   30.8500   45.4290 C   0  0  0  0  0  0  0  0  0  0  0  0
   56.7190   30.3680   44.9500 O   0  0  0  0  0  0  0  0  0  0  0  0
   58.0950   32.2500   45.4720 C   0  0  0  0  0  0  0  0  0  0  0  0
   57.3880   33.3080   44.8970 C   0  0  0  0  0  0  0  0  0  0  0  0
   57.9730   34.5810   44.8970 C   0  0  0  0  0  0  0  0  0  0  0  0
   59.2620   34.7620   45.4250 C   0  0  0  0  0  0  0  0  0  0  0  0
   59.9580   33.6780   45.9840 C   0  0  0  0  0  0  0  0  0  0  0  0
   59.3300   32.4230   46.0590 C   0  0  0  0  0  0  0  0  0  0  0  0
   63.5439   33.3358   48.1607 H   0  0  0  0  0  0  0  0  0  0  0  0
   64.2743   32.8069   46.6072 H   0  0  0  0  0  0  0  0  0  0  0  0
   62.7310   33.7261   46.6072 H   0  0  0  0  0  0  0  0  0  0  0  0
   62.0284   31.5240   46.2651 H   0  0  0  0  0  0  0  0  0  0  0  0
   63.2914   30.8848   47.4429 H   0  0  0  0  0  0  0  0  0  0  0  0
   61.9287   30.9831   49.1715 H   0  0  0  0  0  0  0  0  0  0  0  0
   61.2786   32.6422   48.6020 H   0  0  0  0  0  0  0  0  0  0  0  0
   60.1644   29.4525   49.5191 H   0  0  0  0  0  0  0  0  0  0  0  0
   59.2754   29.0533   48.0101 H   0  0  0  0  0  0  0  0  0  0  0  0
   61.0712   29.0955   48.0101 H   0  0  0  0  0  0  0  0  0  0  0  0
   58.4203   32.2607   48.0675 H   0  0  0  0  0  0  0  0  0  0  0  0
   58.5980   31.0400   49.4696 H   0  0  0  0  0  0  0  0  0  0  0  0
   58.8063   32.9831   50.6190 H   0  0  0  0  0  0  0  0  0  0  0  0
   60.5379   32.6375   50.1606 H   0  0  0  0  0  0  0  0  0  0  0  0
   59.7195   35.0625   49.9053 H   0  0  0  0  0  0  0  0  0  0  0  0
   60.5567   34.3100   48.5054 H   0  0  0  0  0  0  0  0  0  0  0  0
   58.7669   34.4628   48.5054 H   0  0  0  0  0  0  0  0  0  0  0  0
   60.9451   30.9421   46.2109 H   0  0  0  0  0  0  0  0  0  0  0  0
   59.3786   29.4533   45.1749 H   0  0  0  0  0  0  0  0  0  0  0  0
   58.5687   29.3253   46.7362 H   0  0  0  0  0  0  0  0  0  0  0  0
   56.3943   33.1456   44.4541 H   0  0  0  0  0  0  0  0  0  0  0  0
   57.4227   35.4390   44.4834 H   0  0  0  0  0  0  0  0  0  0  0  0
   59.7286   35.7579   45.4005 H   0  0  0  0  0  0  0  0  0  0  0  0
   60.9836   33.8098   46.3591 H   0  0  0  0  0  0  0  0  0  0  0  0
  1  2  1  0
  2  3  1  0
  3  4  1  0
  4  5  1  0
  4  6  1  0
  6  7  1  0
  7  8  1  0
  4  9  1  0
  9 10  1  0
 10 11  1  0
 11 12  2  0
 11 13  1  0
 13 14  2  0
 14 15  1  0
 15 16  2  0
 16 17  1  0
 17 18  2  0
 18  9  1  0
 18 13  1  0
  1 19  1  0
  1 20  1  0
  1 21  1  0
  2 22  1  0
  2 23  1  0
  3 24  1  0
  3 25  1  0
  5 26  1  0
  5 27  1  0
  5 28  1  0
  6 29  1  0
  6 30  1  0
  7 31  1  0
  7 32  1  0
  8 33  1  0
  8 34  1  0
  8 35  1  0
  9 36  1  6
 10 37  1  0
 10 38  1  0
 14 39  1  0
 15 40  1  0
 16 41  1  0
 17 42  1  0
M  CHG  1   4   1
M  END
>  <UniqueID>  (41) 
39

>  <SMILES>  (41) 
CCC[N+](C)(CCC)[C@H]1CC(=O)c2ccccc21

>  <Energy>  (41) 
89.17377542891344

>  <Genealogy>  (41) 
CCC[N+](C)(CCC)[C@H]1CC(=O)c2ccccc21 (chirality)
CCC[N+](C)(CCC)[C@H]1CC(=O)c2ccccc21 (3D coordinates assigned)
CCC[N+](C)(CCC)[C@H]1CC(=O)c2ccccc21 (nonaromatic ring conformer: 89.17377542891344 kcal/mol)

>  <smiles>  (41) 
CCC[N+](C)(CCC)C1CC(=O)c2ccccc21

>  <score_type>  (41) 
oracle

>  <origin>  (41) 
adg

>  <m_score__min__energy>  (41) 
-4.8700000000000001

>  <m_primary>  (41) 
energy

$$$$
41:0
     RDKit          3D

 49 51  0  0  0  0  0  0  0  0999 V2000
   57.7700   31.1540   43.7010 C   0  0  0  0  0  0  0  0  0  0  0  0
   56.9400   30.1610   44.5080 C   0  0  0  0  0  0  0  0  0  0  0  0
   57.8320   29.3080   45.3400 N   0  0  0  0  0  0  0  0  0  0  0  0
   58.8630   28.6380   44.5080 C   0  0  0  0  0  0  0  0  0  0  0  0
   58.2680   27.4730   43.7190 C   0  0  0  0  0  0  0  0  0  0  0  0
   58.4810   30.0910   46.4220 C   0  0  0  0  0  0  0  0  0  0  0  0
   59.9790   29.7760   46.5260 C   0  0  0  0  0  0  0  0  0  0  0  0
   60.7600   30.9470   46.2620 O   0  0  0  0  0  0  0  0  0  0  0  0
   61.2830   31.7730   47.2710 C   0  0  0  0  0  0  0  0  0  0  0  0
   62.4240   31.3910   48.0090 C   0  0  0  0  0  0  0  0  0  0  0  0
   62.9840   32.2520   48.9610 C   0  0  0  0  0  0  0  0  0  0  0  0
   64.1330   31.8770   49.6750 C   0  0  0  0  0  0  0  0  0  0  0  0
   64.6930   32.7480   50.6140 C   0  0  0  0  0  0  0  0  0  0  0  0
   64.1050   33.9950   50.8530 C   0  0  0  0  0  0  0  0  0  0  0  0
   62.9560   34.3780   50.1550 C   0  0  0  0  0  0  0  0  0  0  0  0
   62.3870   33.5140   49.2020 C   0  0  0  0  0  0  0  0  0  0  0  0
   61.2300   33.8810   48.4980 C   0  0  0  0  0  0  0  0  0  0  0  0
   60.6670   33.0160   47.5410 C   0  0  0  0  0  0  0  0  0  0  0  0
   59.4590   33.4420   46.7840 C   0  0  0  0  0  0  0  0  0  0  0  0
   59.5950   34.1920   45.6020 C   0  0  0  0  0  0  0  0  0  0  0  0
   58.4630   34.5680   44.8690 C   0  0  0  0  0  0  0  0  0  0  0  0
   57.1920   34.2010   45.3080 C   0  0  0  0  0  0  0  0  0  0  0  0
   57.0440   33.4650   46.4880 C   0  0  0  0  0  0  0  0  0  0  0  0
   58.1730   33.0850   47.2240 C   0  0  0  0  0  0  0  0  0  0  0  0
   58.3215   31.8138   44.3870 H   0  0  0  0  0  0  0  0  0  0  0  0
   58.4827   30.6062   43.0670 H   0  0  0  0  0  0  0  0  0  0  0  0
   57.1045   31.7582   43.0670 H   0  0  0  0  0  0  0  0  0  0  0  0
   56.2486   30.7118   45.1626 H   0  0  0  0  0  0  0  0  0  0  0  0
   56.3709   29.5214   43.8173 H   0  0  0  0  0  0  0  0  0  0  0  0
   59.2857   29.3693   43.8033 H   0  0  0  0  0  0  0  0  0  0  0  0
   59.6443   28.2433   45.1742 H   0  0  0  0  0  0  0  0  0  0  0  0
   57.8816   26.7164   44.4177 H   0  0  0  0  0  0  0  0  0  0  0  0
   57.4471   27.8404   43.0856 H   0  0  0  0  0  0  0  0  0  0  0  0
   59.0469   27.0234   43.0856 H   0  0  0  0  0  0  0  0  0  0  0  0
   58.3554   31.1633   46.2114 H   0  0  0  0  0  0  0  0  0  0  0  0
   58.0052   29.8199   47.3760 H   0  0  0  0  0  0  0  0  0  0  0  0
   60.2026   29.4135   47.5402 H   0  0  0  0  0  0  0  0  0  0  0  0
   60.2319   29.0061   45.7822 H   0  0  0  0  0  0  0  0  0  0  0  0
   62.8789   30.4049   47.8342 H   0  0  0  0  0  0  0  0  0  0  0  0
   64.5941   30.8947   49.4950 H   0  0  0  0  0  0  0  0  0  0  0  0
   65.5975   32.4526   51.1660 H   0  0  0  0  0  0  0  0  0  0  0  0
   64.5488   34.6769   51.5933 H   0  0  0  0  0  0  0  0  0  0  0  0
   62.4957   35.3575   50.3515 H   0  0  0  0  0  0  0  0  0  0  0  0
   60.7582   34.8547   48.6961 H   0  0  0  0  0  0  0  0  0  0  0  0
   60.5958   34.4846   45.2517 H   0  0  0  0  0  0  0  0  0  0  0  0
   58.5768   35.1540   43.9451 H   0  0  0  0  0  0  0  0  0  0  0  0
   56.3047   34.4905   44.7259 H   0  0  0  0  0  0  0  0  0  0  0  0
   56.0397   33.1844   46.8382 H   0  0  0  0  0  0  0  0  0  0  0  0
   58.0528   32.5045   48.1506 H   0  0  0  0  0  0  0  0  0  0  0  0
  1  2  1  0
  2  3  1  0
  3  4  1  0
  4  5  1  0
  3  6  1  0
  6  7  1  0
  7  8  1  0
  8  9  1  0
  9 10  2  0
 10 11  1  0
 11 12  2  0
 12 13  1  0
 13 14  2  0
 14 15  1  0
 15 16  2  0
 16 17  1  0
 17 18  2  0
 18 19  1  0
 19 20  2  0
 20 21  1  0
 21 22  2  0
 22 23  1  0
 23 24  2  0
 18  9  1  0
 24 19  1  0
 16 11  1  0
  1 25  1  0
  1 26  1  0
  1 27  1  0
  2 28  1  0
  2 29  1  0
  4 30  1  0
  4 31  1  0
  5 32  1  0
  5 33  1  0
  5 34  1  0
  6 35  1  0
  6 36  1  0
  7 37  1  0
  7 38  1  0
 10 39  1  0
 12 40  1  0
 13 41  1  0
 14 42  1  0
 15 43  1  0
 17 44  1  0
 20 45  1  0
 21 46  1  0
 22 47  1  0
 23 48  1  0
 24 49  1  0
M  END
>  <UniqueID>  (42) 
40

>  <SMILES>  (42) 
CCN(CC)CCOc1cc2ccccc2cc1-c1ccccc1

>  <Energy>  (42) 
59.28574888010447

>  <Genealogy>  (42) 
CCN(CC)CCOc1cc2ccccc2cc1-c1ccccc1 (3D coordinates assigned)
CCN(CC)CCOc1cc2ccccc2cc1-c1ccccc1 (optimized conformer: 59.28574888010447 kcal/mol)

>  <smiles>  (42) 
CCN(CC)CCOc1cc2ccccc2cc1-c1ccccc1

>  <score_type>  (42) 
oracle

>  <origin>  (42) 
adg

>  <m_score__min__energy>  (42) 
-7.2699999999999996

>  <m_primary>  (42) 
energy

$$$$
42:0
     RDKit          3D

 44 46  0  0  0  0  0  0  0  0999 V2000
   56.2510   30.3700   43.6030 C   0  0  0  0  0  0  0  0  0  0  0  0
   56.4270   31.0170   44.8590 O   0  0  0  0  0  0  0  0  0  0  0  0
   57.4250   31.9660   45.1350 C   0  0  0  0  0  0  0  0  0  0  0  0
   57.3990   33.2560   44.5680 C   0  0  0  0  0  0  0  0  0  0  0  0
   58.3890   34.1890   44.8860 C   0  0  0  0  0  0  0  0  0  0  0  0
   59.4130   33.8500   45.7700 C   0  0  0  0  0  0  0  0  0  0  0  0
   59.4550   32.5740   46.3350 C   0  0  0  0  0  0  0  0  0  0  0  0
   58.4720   31.6220   46.0170 C   0  0  0  0  0  0  0  0  0  0  0  0
   58.5430   30.2720   46.6250 C   0  0  0  0  0  0  0  0  0  0  0  0
   58.0810   29.1640   45.8950 C   0  0  0  0  0  0  0  0  0  0  0  0
   58.1350   27.8700   46.4370 C   0  0  0  0  0  0  0  0  0  0  0  0
   57.6520   26.7030   45.6560 C   0  0  0  0  0  0  0  0  0  0  0  0
   58.1310   26.4660   44.3540 C   0  0  0  0  0  0  0  0  0  0  0  0
   57.6740   25.3680   43.6200 C   0  0  0  0  0  0  0  0  0  0  0  0
   56.7310   24.4960   44.1730 C   0  0  0  0  0  0  0  0  0  0  0  0
   56.1480   23.0860   43.2290 S   0  0  0  0  0  0  0  0  0  0  0  0
   57.5220   22.0140   43.7510 C   0  0  0  0  0  0  0  0  0  0  0  0
   56.2520   24.7190   45.4670 C   0  0  0  0  0  0  0  0  0  0  0  0
   56.7080   25.8170   46.2050 C   0  0  0  0  0  0  0  0  0  0  0  0
   58.6570   27.6970   47.7280 C   0  0  0  0  0  0  0  0  0  0  0  0
   59.1090   28.7920   48.4650 C   0  0  0  0  0  0  0  0  0  0  0  0
   59.0500   30.0900   47.9270 C   0  0  0  0  0  0  0  0  0  0  0  0
   59.4700   31.2140   48.6570 O   0  0  0  0  0  0  0  0  0  0  0  0
   58.7460   31.7940   49.7370 C   0  0  0  0  0  0  0  0  0  0  0  0
   55.9655   29.3206   43.7680 H   0  0  0  0  0  0  0  0  0  0  0  0
   55.4591   30.8805   43.0353 H   0  0  0  0  0  0  0  0  0  0  0  0
   57.1924   30.4090   43.0353 H   0  0  0  0  0  0  0  0  0  0  0  0
   56.5938   33.5300   43.8704 H   0  0  0  0  0  0  0  0  0  0  0  0
   58.3608   35.1933   44.4381 H   0  0  0  0  0  0  0  0  0  0  0  0
   60.1882   34.5885   46.0223 H   0  0  0  0  0  0  0  0  0  0  0  0
   60.2632   32.3123   47.0338 H   0  0  0  0  0  0  0  0  0  0  0  0
   57.6714   29.3124   44.8850 H   0  0  0  0  0  0  0  0  0  0  0  0
   58.8702   27.1497   43.9111 H   0  0  0  0  0  0  0  0  0  0  0  0
   58.0571   25.1892   42.6045 H   0  0  0  0  0  0  0  0  0  0  0  0
   57.5643   21.9810   44.8497 H   0  0  0  0  0  0  0  0  0  0  0  0
   57.3638   20.9983   43.3595 H   0  0  0  0  0  0  0  0  0  0  0  0
   58.4687   22.4145   43.3595 H   0  0  0  0  0  0  0  0  0  0  0  0
   55.5153   24.0302   45.9060 H   0  0  0  0  0  0  0  0  0  0  0  0
   56.3253   25.9883   47.2219 H   0  0  0  0  0  0  0  0  0  0  0  0
   58.7103   26.6882   48.1632 H   0  0  0  0  0  0  0  0  0  0  0  0
   59.5151   28.6387   49.4757 H   0  0  0  0  0  0  0  0  0  0  0  0
   59.1735   31.4515   50.6909 H   0  0  0  0  0  0  0  0  0  0  0  0
   58.8141   32.8903   49.6773 H   0  0  0  0  0  0  0  0  0  0  0  0
   57.6910   31.4884   49.6773 H   0  0  0  0  0  0  0  0  0  0  0  0
  1  2  1  0
  2  3  1  0
  3  4  2  0
  4  5  1  0
  5  6  2  0
  6  7  1  0
  7  8  2  0
  8  9  1  0
  9 10  2  0
 10 11  1  0
 11 12  1  0
 12 13  2  0
 13 14  1  0
 14 15  2  0
 15 16  1  0
 16 17  1  0
 15 18  1  0
 18 19  2  0
 11 20  2  0
 20 21  1  0
 21 22  2  0
 22 23  1  0
 23 24  1  0
  8  3  1  0
 22  9  1  0
 19 12  1  0
  1 25  1  0
  1 26  1  0
  1 27  1  0
  4 28  1  0
  5 29  1  0
  6 30  1  0
  7 31  1  0
 10 32  1  0
 13 33  1  0
 14 34  1  0
 17 35  1  0
 17 36  1  0
 17 37  1  0
 18 38  1  0
 19 39  1  0
 20 40  1  0
 21 41  1  0
 24 42  1  0
 24 43  1  0
 24 44  1  0
M  END
>  <UniqueID>  (43) 
41

>  <SMILES>  (43) 
COc1ccccc1-c1cc(-c2ccc(SC)cc2)ccc1OC

>  <Energy>  (43) 
53.26227123253758

>  <Genealogy>  (43) 
COc1ccccc1-c1cc(-c2ccc(SC)cc2)ccc1OC (3D coordinates assigned)
COc1ccccc1-c1cc(-c2ccc(SC)cc2)ccc1OC (optimized conformer: 53.26227123253758 kcal/mol)

>  <smiles>  (43) 
COc1ccccc1-c1cc(-c2ccc(SC)cc2)ccc1OC

>  <score_type>  (43) 
oracle

>  <origin>  (43) 
adg

>  <m_score__min__energy>  (43) 
-7.4299999999999997

>  <m_primary>  (43) 
energy

$$$$
43:0
     RDKit          3D

 40 42  0  0  0  0  0  0  0  0999 V2000
   55.9210   29.7250   43.0250 C   0  0  0  0  0  0  0  0  0  0  0  0
   57.0720   30.1030   43.9160 C   0  0  0  0  0  0  0  0  0  0  0  0
   57.1360   31.4110   44.4260 C   0  0  0  0  0  0  0  0  0  0  0  0
   58.1820   31.7960   45.2640 C   0  0  0  0  0  0  0  0  0  0  0  0
   59.1680   30.8760   45.6190 C   0  0  0  0  0  0  0  0  0  0  0  0
   59.1110   29.5680   45.1350 C   0  0  0  0  0  0  0  0  0  0  0  0
   58.0730   29.1650   44.2750 C   0  0  0  0  0  0  0  0  0  0  0  0
   58.0300   27.8060   43.8040 N   0  0  0  0  0  0  0  0  0  0  0  0
   57.7980   27.4470   42.5540 N   0  0  0  0  0  0  0  0  0  0  0  0
   57.7760   26.1230   42.4860 N   0  0  0  0  0  0  0  0  0  0  0  0
   57.9860   25.6020   43.6870 N   0  0  0  0  0  0  0  0  0  0  0  0
   58.1430   26.6590   44.5030 C   0  0  0  0  0  0  0  0  0  0  0  0
   58.4920   26.5230   46.2610 S   0  0  0  0  0  0  0  0  0  0  0  0
   56.9180   25.6990   46.6790 C   0  0  0  0  0  0  0  0  0  0  0  0
   55.7620   26.3600   45.9820 C   0  0  0  0  0  0  0  0  0  0  0  0
   55.8770   27.5580   45.6120 O   0  0  0  0  0  0  0  0  0  0  0  0
   54.5310   25.6740   45.7200 N   0  0  0  0  0  0  0  0  0  0  0  0
   54.3250   24.2390   45.8720 C   0  0  0  0  0  0  0  0  0  0  0  0
   55.3360   23.4970   45.0470 C   0  0  0  0  0  0  0  0  0  0  0  0
   55.3410   23.6360   43.6480 C   0  0  0  0  0  0  0  0  0  0  0  0
   56.2640   22.9290   42.8730 C   0  0  0  0  0  0  0  0  0  0  0  0
   57.1860   22.0750   43.4850 C   0  0  0  0  0  0  0  0  0  0  0  0
   57.1850   21.9280   44.8750 C   0  0  0  0  0  0  0  0  0  0  0  0
   56.2640   22.6340   45.6550 C   0  0  0  0  0  0  0  0  0  0  0  0
   55.0566   29.4411   43.6432 H   0  0  0  0  0  0  0  0  0  0  0  0
   55.6520   30.5820   42.3900 H   0  0  0  0  0  0  0  0  0  0  0  0
   56.2125   28.8754   42.3900 H   0  0  0  0  0  0  0  0  0  0  0  0
   56.3538   32.1378   44.1617 H   0  0  0  0  0  0  0  0  0  0  0  0
   58.2294   32.8266   45.6455 H   0  0  0  0  0  0  0  0  0  0  0  0
   59.9916   31.1814   46.2812 H   0  0  0  0  0  0  0  0  0  0  0  0
   59.8858   28.8447   45.4291 H   0  0  0  0  0  0  0  0  0  0  0  0
   56.9702   24.6450   46.3685 H   0  0  0  0  0  0  0  0  0  0  0  0
   56.7612   25.7735   47.7652 H   0  0  0  0  0  0  0  0  0  0  0  0
   54.4413   23.9622   46.9302 H   0  0  0  0  0  0  0  0  0  0  0  0
   53.3120   23.9766   45.5329 H   0  0  0  0  0  0  0  0  0  0  0  0
   54.6152   24.3042   43.1614 H   0  0  0  0  0  0  0  0  0  0  0  0
   56.2651   23.0447   41.7791 H   0  0  0  0  0  0  0  0  0  0  0  0
   57.9117   21.5191   42.8732 H   0  0  0  0  0  0  0  0  0  0  0  0
   57.9103   21.2555   45.3563 H   0  0  0  0  0  0  0  0  0  0  0  0
   56.2657   22.5136   46.7484 H   0  0  0  0  0  0  0  0  0  0  0  0
  1  2  1  0
  2  3  2  0
  3  4  1  0
  4  5  2  0
  5  6  1  0
  6  7  2  0
  7  8  1  0
  8  9  1  0
  9 10  2  0
 10 11  1  0
 11 12  2  0
 12 13  1  0
 13 14  1  0
 14 15  1  0
 15 16  2  0
 15 17  1  0
 17 18  1  0
 18 19  1  0
 19 20  2  0
 20 21  1  0
 21 22  2  0
 22 23  1  0
 23 24  2  0
  7  2  1  0
 12  8  1  0
 24 19  1  0
  1 25  1  0
  1 26  1  0
  1 27  1  0
  3 28  1  0
  4 29  1  0
  5 30  1  0
  6 31  1  0
 14 32  1  0
 14 33  1  0
 18 34  1  0
 18 35  1  0
 20 36  1  0
 21 37  1  0
 22 38  1  0
 23 39  1  0
 24 40  1  0
M  CHG  1  17  -1
M  END
>  <UniqueID>  (44) 
42

>  <SMILES>  (44) 
Cc1ccccc1-n1nnnc1SCC(=O)[N-]Cc1ccccc1

>  <Energy>  (44) 
78.89169121412743

>  <Genealogy>  (44) 
Cc1ccccc1-n1nnnc1SCC(=O)[N-]Cc1ccccc1 (protonated)
Cc1ccccc1-n1nnnc1SCC(=O)[N-]Cc1ccccc1 (3D coordinates assigned)
Cc1ccccc1-n1nnnc1SCC(=O)[N-]Cc1ccccc1 (optimized conformer: 78.89169121412743 kcal/mol)

>  <smiles>  (44) 
Cc1ccccc1-n1nnnc1SCC(=O)NCc1ccccc1

>  <score_type>  (44) 
oracle

>  <origin>  (44) 
adg

>  <m_score__min__energy>  (44) 
-11.06

>  <m_primary>  (44) 
energy

$$$$
