0:0
     RDKit          3D

 39 40  0  0  0  0  0  0  0  0999 V2000
   58.7813   35.4717   44.9930 H   0  0  0  0  0  0  0  0  0  0  0  0
   58.8490   34.3740   45.0130 C   0  0  0  0  0  0  0  0  0  0  0  0
   59.9040   33.8050   45.4810 N   0  0  0  0  0  0  0  0  0  0  0  0
   60.4350   34.0950   46.7990 C   0  0  0  0  0  0  0  0  0  0  0  0
   60.8258   35.1232   46.8043 H   0  0  0  0  0  0  0  0  0  0  0  0
   59.3300   34.0810   47.8900 C   0  0  0  0  0  0  0  0  0  0  0  0
   58.6325   34.9052   47.6798 H   0  0  0  0  0  0  0  0  0  0  0  0
   59.8489   34.1832   48.8545 H   0  0  0  0  0  0  0  0  0  0  0  0
   58.5190   32.7810   47.9750 C   0  0  0  0  0  0  0  0  0  0  0  0
   58.3556   32.5191   49.0308 H   0  0  0  0  0  0  0  0  0  0  0  0
   57.5480   32.9214   47.4776 H   0  0  0  0  0  0  0  0  0  0  0  0
   59.0720   31.9706   47.4776 H   0  0  0  0  0  0  0  0  0  0  0  0
   61.6190   33.1540   47.1110 C   0  0  0  0  0  0  0  0  0  0  0  0
   61.5922   32.9130   48.1839 H   0  0  0  0  0  0  0  0  0  0  0  0
   61.4934   32.2710   46.4672 H   0  0  0  0  0  0  0  0  0  0  0  0
   62.9950   33.7340   46.7870 C   0  0  0  0  0  0  0  0  0  0  0  0
   63.5278   33.9586   47.7228 H   0  0  0  0  0  0  0  0  0  0  0  0
   63.5727   33.0028   46.2025 H   0  0  0  0  0  0  0  0  0  0  0  0
   62.8750   34.6581   46.2025 H   0  0  0  0  0  0  0  0  0  0  0  0
   57.7120   33.5460   44.4950 C   0  0  0  0  0  0  0  0  0  0  0  0
   56.8808   33.5783   45.2148 H   0  0  0  0  0  0  0  0  0  0  0  0
   57.3839   33.9507   43.5262 H   0  0  0  0  0  0  0  0  0  0  0  0
   58.1420   32.1590   44.3140 N   0  0  0  0  0  0  0  0  0  0  0  0
   57.4840   31.0660   44.6030 C   0  0  0  0  0  0  0  0  0  0  0  0
   56.1690   30.8410   44.1440 C   0  0  0  0  0  0  0  0  0  0  0  0
   55.6602   31.6050   43.5379 H   0  0  0  0  0  0  0  0  0  0  0  0
   55.5140   29.6510   44.4580 C   0  0  0  0  0  0  0  0  0  0  0  0
   54.4918   29.4761   44.0912 H   0  0  0  0  0  0  0  0  0  0  0  0
   56.1300   28.7080   45.2130 N   0  0  0  0  0  0  0  0  0  0  0  0
   57.3910   28.8820   45.6880 C   0  0  0  0  0  0  0  0  0  0  0  0
   57.9830   27.8780   46.4640 C   0  0  0  0  0  0  0  0  0  0  0  0
   57.4246   26.9570   46.6876 H   0  0  0  0  0  0  0  0  0  0  0  0
   59.2800   28.0420   46.9550 C   0  0  0  0  0  0  0  0  0  0  0  0
   60.0170   26.7810   47.9250 Cl  0  0  0  0  0  0  0  0  0  0  0  0
   59.9920   29.2120   46.6730 C   0  0  0  0  0  0  0  0  0  0  0  0
   61.0131   29.3388   47.0620 H   0  0  0  0  0  0  0  0  0  0  0  0
   59.4120   30.2210   45.8990 C   0  0  0  0  0  0  0  0  0  0  0  0
   59.9804   31.1370   45.6802 H   0  0  0  0  0  0  0  0  0  0  0  0
   58.1030   30.0720   45.3970 C   0  0  0  0  0  0  0  0  0  0  0  0
  1  2  1  0
  2  3  2  0
  3  4  1  0
  4  5  1  0
  4  6  1  0
  6  7  1  0
  6  8  1  0
  6  9  1  0
  9 10  1  0
  9 11  1  0
  9 12  1  0
  4 13  1  0
 13 14  1  0
 13 15  1  0
 13 16  1  0
 16 17  1  0
 16 18  1  0
 16 19  1  0
  2 20  1  0
 20 21  1  0
 20 22  1  0
 20 23  1  0
 23 24  2  0
 24 25  1  0
 25 26  1  0
 25 27  2  0
 27 28  1  0
 27 29  1  0
 29 30  1  0
 30 31  2  0
 31 32  1  0
 31 33  1  0
 33 34  1  0
 33 35  2  0
 35 36  1  0
 35 37  1  0
 37 38  1  0
 37 39  2  0
 39 24  1  0
 39 30  1  0
M  CHG  1  29  -1
M  END
>  <UniqueID>  (1) 
1

>  <SMILES>  (1) 
CCC(CC)/N=C/C/N=c1\cc[n-]c2cc(Cl)ccc12

>  <Energy>  (1) 
38.42258249609889

>  <Genealogy>  (1) 
CCC(CC)N=CCN=c1cc[n-]c2cc(Cl)ccc12 (protonated)
CCC(CC)/N=C/C/N=c1\cc[n-]c2cc(Cl)ccc12 (cis-trans isomerization)
CCC(CC)/N=C/C/N=c1\cc[n-]c2cc(Cl)ccc12 (3D coordinates assigned)
CCC(CC)/N=C/C/N=c1\cc[n-]c2cc(Cl)ccc12 (optimized conformer: 38.42258249609889 kcal/mol)

>  <smiles>  (1) 
CCC(CC)N=CCN=c1cc[nH]c2cc(Cl)ccc12

>  <score_type>  (1) 
oracle

>  <origin>  (1) 
adg

>  <m_score__min__energy>  (1) 
-8.2799999999999994

>  <m_primary>  (1) 
energy

$$$$
1:0
     RDKit          3D

 88 91  0  0  0  0  0  0  0  0999 V2000
   55.9900   30.6890   52.0050 C   0  0  0  0  0  0  0  0  0  0  0  0
   57.3420   29.9730   51.9980 C   0  0  0  0  0  0  0  0  0  0  0  0
   58.3250   30.6540   51.1260 N   0  0  0  0  0  0  0  0  0  0  0  0
   57.8720   31.9990   50.7050 C   0  0  0  0  0  0  0  0  0  0  0  0
   58.5010   33.0560   51.6040 C   0  0  0  0  0  0  0  0  0  0  0  0
   59.7240   30.6520   51.6230 C   0  0  0  0  0  0  0  0  0  0  0  0
   60.5610   29.4320   51.1910 C   0  0  0  0  0  0  0  0  0  0  0  0
   59.8100   28.6270   50.3000 O   0  0  0  0  0  0  0  0  0  0  0  0
   60.6220   28.1630   49.2400 C   0  0  0  0  0  0  0  0  0  0  0  0
   60.3060   28.9490   47.9700 C   0  0  0  0  0  0  0  0  0  0  0  0
   59.1970   29.8760   48.1920 N   0  0  0  0  0  0  0  0  0  0  0  0
   58.8740   30.9060   47.2400 C   0  0  0  0  0  0  0  0  0  0  0  0
   58.1440   30.5960   46.0780 C   0  0  0  0  0  0  0  0  0  0  0  0
   57.7810   29.2640   45.7810 C   0  0  0  0  0  0  0  0  0  0  0  0
   57.0890   28.9590   44.6120 C   0  0  0  0  0  0  0  0  0  0  0  0
   56.7550   29.9670   43.7160 C   0  0  0  0  0  0  0  0  0  0  0  0
   57.0900   31.2910   43.9940 C   0  0  0  0  0  0  0  0  0  0  0  0
   57.7620   31.6420   45.1930 C   0  0  0  0  0  0  0  0  0  0  0  0
   58.0560   32.9560   45.5060 N   0  0  0  0  0  0  0  0  0  0  0  0
   57.4150   34.0560   44.7520 C   0  0  0  0  0  0  0  0  0  0  0  0
   58.9390   33.2420   46.5300 C   0  0  0  0  0  0  0  0  0  0  0  0
   59.4890   34.5370   46.7020 C   0  0  0  0  0  0  0  0  0  0  0  0
   60.3630   34.8190   47.7530 C   0  0  0  0  0  0  0  0  0  0  0  0
   60.7380   33.8120   48.6520 C   0  0  0  0  0  0  0  0  0  0  0  0
   61.6140   34.0370   49.7250 O   0  0  0  0  0  0  0  0  0  0  0  0
   61.8410   33.1500   50.8200 C   0  0  0  0  0  0  0  0  0  0  0  0
   62.9170   32.0980   50.4540 C   0  0  0  0  0  0  0  0  0  0  0  0
   64.3010   32.6370   50.2470 N   0  0  0  0  0  0  0  0  0  0  0  0
   64.3680   33.0800   48.8270 C   0  0  0  0  0  0  0  0  0  0  0  0
   64.5500   33.8300   51.1320 C   0  0  0  0  0  0  0  0  0  0  0  0
   65.6890   33.6210   52.1550 C   0  0  0  0  0  0  0  0  0  0  0  0
   66.9660   33.1740   51.5220 N   0  0  0  0  0  0  0  0  0  0  0  0
   67.8530   32.6660   52.5990 C   0  0  0  0  0  0  0  0  0  0  0  0
   67.6440   34.3360   50.8940 C   0  0  0  0  0  0  0  0  0  0  0  0
   66.7550   32.0970   50.4970 C   0  0  0  0  0  0  0  0  0  0  0  0
   65.3110   31.5550   50.4580 C   0  0  0  0  0  0  0  0  0  0  0  0
   60.2420   32.5220   48.4710 C   0  0  0  0  0  0  0  0  0  0  0  0
   59.3430   32.2190   47.4270 C   0  0  0  0  0  0  0  0  0  0  0  0
   55.6702   30.8584   53.0438 H   0  0  0  0  0  0  0  0  0  0  0  0
   56.0842   31.6554   51.4881 H   0  0  0  0  0  0  0  0  0  0  0  0
   55.2435   30.0680   51.4881 H   0  0  0  0  0  0  0  0  0  0  0  0
   57.7357   29.9474   53.0248 H   0  0  0  0  0  0  0  0  0  0  0  0
   57.1866   28.9569   51.6063 H   0  0  0  0  0  0  0  0  0  0  0  0
   58.1752   32.1776   49.6628 H   0  0  0  0  0  0  0  0  0  0  0  0
   56.7765   32.0567   50.7854 H   0  0  0  0  0  0  0  0  0  0  0  0
   58.3394   32.7845   52.6576 H   0  0  0  0  0  0  0  0  0  0  0  0
   59.5807   33.1140   51.4017 H   0  0  0  0  0  0  0  0  0  0  0  0
   58.0370   34.0326   51.4017 H   0  0  0  0  0  0  0  0  0  0  0  0
   60.2217   31.5586   51.2483 H   0  0  0  0  0  0  0  0  0  0  0  0
   59.6629   30.6130   52.7206 H   0  0  0  0  0  0  0  0  0  0  0  0
   61.4767   29.7767   50.6884 H   0  0  0  0  0  0  0  0  0  0  0  0
   60.8266   28.8404   52.0795 H   0  0  0  0  0  0  0  0  0  0  0  0
   61.6811   28.3021   49.5024 H   0  0  0  0  0  0  0  0  0  0  0  0
   60.4222   27.0951   49.0676 H   0  0  0  0  0  0  0  0  0  0  0  0
   61.1970   29.5192   47.6683 H   0  0  0  0  0  0  0  0  0  0  0  0
   60.0181   28.2395   47.1802 H   0  0  0  0  0  0  0  0  0  0  0  0
   58.7730   29.9170   49.1460 H   0  0  0  0  0  0  0  0  0  0  0  0
   58.0479   28.4585   46.4810 H   0  0  0  0  0  0  0  0  0  0  0  0
   56.8061   27.9179   44.3973 H   0  0  0  0  0  0  0  0  0  0  0  0
   56.2247   29.7194   42.7846 H   0  0  0  0  0  0  0  0  0  0  0  0
   56.8287   32.0777   43.2709 H   0  0  0  0  0  0  0  0  0  0  0  0
   56.9901   34.7852   45.4575 H   0  0  0  0  0  0  0  0  0  0  0  0
   58.1652   34.5525   44.1190 H   0  0  0  0  0  0  0  0  0  0  0  0
   56.6132   33.6481   44.1190 H   0  0  0  0  0  0  0  0  0  0  0  0
   59.2219   35.3350   45.9936 H   0  0  0  0  0  0  0  0  0  0  0  0
   60.7596   35.8376   47.8762 H   0  0  0  0  0  0  0  0  0  0  0  0
   62.1831   33.7296   51.6901 H   0  0  0  0  0  0  0  0  0  0  0  0
   60.9012   32.6293   51.0559 H   0  0  0  0  0  0  0  0  0  0  0  0
   62.9591   31.3588   51.2675 H   0  0  0  0  0  0  0  0  0  0  0  0
   62.6094   31.6746   49.4865 H   0  0  0  0  0  0  0  0  0  0  0  0
   64.5324   34.1670   48.7894 H   0  0  0  0  0  0  0  0  0  0  0  0
   65.1986   32.5658   48.3213 H   0  0  0  0  0  0  0  0  0  0  0  0
   63.4225   32.8344   48.3213 H   0  0  0  0  0  0  0  0  0  0  0  0
   64.8103   34.6871   50.4935 H   0  0  0  0  0  0  0  0  0  0  0  0
   63.6286   33.9989   51.7086 H   0  0  0  0  0  0  0  0  0  0  0  0
   65.8704   34.5721   52.6770 H   0  0  0  0  0  0  0  0  0  0  0  0
   65.3690   32.8280   52.8469 H   0  0  0  0  0  0  0  0  0  0  0  0
   67.4193   32.9144   53.5789 H   0  0  0  0  0  0  0  0  0  0  0  0
   67.9520   31.5743   52.5080 H   0  0  0  0  0  0  0  0  0  0  0  0
   68.8448   33.1330   52.5080 H   0  0  0  0  0  0  0  0  0  0  0  0
   68.0325   35.0019   51.6787 H   0  0  0  0  0  0  0  0  0  0  0  0
   68.4767   33.9809   50.2690 H   0  0  0  0  0  0  0  0  0  0  0  0
   66.9252   34.8862   50.2690 H   0  0  0  0  0  0  0  0  0  0  0  0
   66.9991   32.5075   49.5061 H   0  0  0  0  0  0  0  0  0  0  0  0
   67.4076   31.2560   50.7741 H   0  0  0  0  0  0  0  0  0  0  0  0
   65.2282   30.8294   49.6354 H   0  0  0  0  0  0  0  0  0  0  0  0
   65.1023   31.0869   51.4313 H   0  0  0  0  0  0  0  0  0  0  0  0
   60.5585   31.7227   49.1573 H   0  0  0  0  0  0  0  0  0  0  0  0
  1  2  1  0
  2  3  1  0
  3  4  1  0
  4  5  1  0
  3  6  1  0
  6  7  1  0
  7  8  1  0
  8  9  1  0
  9 10  1  0
 10 11  1  0
 11 12  1  0
 12 13  2  0
 13 14  1  0
 14 15  2  0
 15 16  1  0
 16 17  2  0
 17 18  1  0
 18 19  2  0
 19 20  1  0
 19 21  1  0
 21 22  2  0
 22 23  1  0
 23 24  2  0
 24 25  1  0
 25 26  1  0
 26 27  1  0
 27 28  1  0
 28 29  1  0
 28 30  1  0
 30 31  1  0
 31 32  1  0
 32 33  1  0
 32 34  1  0
 32 35  1  0
 35 36  1  0
 24 37  1  0
 37 38  2  0
 38 12  1  0
 18 13  1  0
 38 21  1  0
 36 28  1  0
  1 39  1  0
  1 40  1  0
  1 41  1  0
  2 42  1  0
  2 43  1  0
  4 44  1  0
  4 45  1  0
  5 46  1  0
  5 47  1  0
  5 48  1  0
  6 49  1  0
  6 50  1  0
  7 51  1  0
  7 52  1  0
  9 53  1  0
  9 54  1  0
 10 55  1  0
 10 56  1  0
 11 57  1  0
 14 58  1  0
 15 59  1  0
 16 60  1  0
 17 61  1  0
 20 62  1  0
 20 63  1  0
 20 64  1  0
 22 65  1  0
 23 66  1  0
 26 67  1  0
 26 68  1  0
 27 69  1  0
 27 70  1  0
 29 71  1  0
 29 72  1  0
 29 73  1  0
 30 74  1  0
 30 75  1  0
 31 76  1  0
 31 77  1  0
 33 78  1  0
 33 79  1  0
 33 80  1  0
 34 81  1  0
 34 82  1  0
 34 83  1  0
 35 84  1  0
 35 85  1  0
 36 86  1  0
 36 87  1  0
 37 88  1  0
M  CHG  3  19   1  28   1  32   1
M  END
>  <UniqueID>  (2) 
2

>  <SMILES>  (2) 
CCN(CC)CCOCCNc1c2ccccc2[n+](C)c2ccc(OCC[N+]3(C)CC[N+](C)(C)CC3)cc12

>  <Energy>  (2) 
143.56449583335862

>  <Genealogy>  (2) 
CCN(CC)CCOCCNc1c2ccccc2[n+](C)c2ccc(OCC[N+]3(C)CC[N+](C)(C)CC3)cc12 (3D coordinates assigned)
CCN(CC)CCOCCNc1c2ccccc2[n+](C)c2ccc(OCC[N+]3(C)CC[N+](C)(C)CC3)cc12 (nonaromatic ring conformer: 143.56449583335862 kcal/mol)

>  <smiles>  (2) 
CCN(CC)CCOCCNc1c2ccccc2[n+](C)c2ccc(OCC[N+]3(C)CC[N+](C)(C)CC3)cc12

>  <score_type>  (2) 
oracle

>  <origin>  (2) 
adg

>  <m_score__min__energy>  (2) 
-4.0899999999999999

>  <m_primary>  (2) 
energy

$$$$
2:0
     RDKit          3D

 49 50  0  0  0  0  0  0  0  0999 V2000
   63.3450   33.7560   46.6950 C   0  0  0  0  0  0  0  0  0  0  0  0
   63.0330   32.3320   47.1590 C   0  0  0  0  0  0  0  0  0  0  0  0
   63.4750   32.1010   48.5530 N   0  0  0  0  0  0  0  0  0  0  0  0
   64.5220   33.0660   48.9370 C   0  0  0  0  0  0  0  0  0  0  0  0
   62.3280   32.2020   49.4860 C   0  0  0  0  0  0  0  0  0  0  0  0
   62.2740   33.5820   50.1510 C   0  0  0  0  0  0  0  0  0  0  0  0
   61.0140   34.2120   49.9110 O   0  0  0  0  0  0  0  0  0  0  0  0
   60.1670   33.9570   48.8210 C   0  0  0  0  0  0  0  0  0  0  0  0
   60.3040   34.6090   47.5820 C   0  0  0  0  0  0  0  0  0  0  0  0
   59.4490   34.2980   46.5220 C   0  0  0  0  0  0  0  0  0  0  0  0
   58.4380   33.3390   46.6850 C   0  0  0  0  0  0  0  0  0  0  0  0
   57.5440   32.9630   45.5330 C   0  0  0  0  0  0  0  0  0  0  0  0
   58.2970   32.1600   44.5450 N   0  0  0  0  0  0  0  0  0  0  0  0
   58.4000   30.7410   44.9420 C   0  0  0  0  0  0  0  0  0  0  0  0
   57.0460   30.0060   44.8520 C   0  0  0  0  0  0  0  0  0  0  0  0
   56.1910   30.4610   43.6530 C   0  0  0  0  0  0  0  0  0  0  0  0
   55.5200   29.3540   43.1100 O   0  0  0  0  0  0  0  0  0  0  0  0
   57.0550   31.1300   42.5770 C   0  0  0  0  0  0  0  0  0  0  0  0
   57.8100   32.3450   43.1500 C   0  0  0  0  0  0  0  0  0  0  0  0
   58.2870   32.7060   47.9270 C   0  0  0  0  0  0  0  0  0  0  0  0
   59.1390   33.0220   48.9880 C   0  0  0  0  0  0  0  0  0  0  0  0
   63.4871   34.4046   47.5720 H   0  0  0  0  0  0  0  0  0  0  0  0
   64.2635   33.7514   46.0897 H   0  0  0  0  0  0  0  0  0  0  0  0
   62.5088   34.1359   46.0897 H   0  0  0  0  0  0  0  0  0  0  0  0
   61.9472   32.1668   47.0973 H   0  0  0  0  0  0  0  0  0  0  0  0
   63.5759   31.6322   46.5067 H   0  0  0  0  0  0  0  0  0  0  0  0
   64.5838   33.1229   50.0338 H   0  0  0  0  0  0  0  0  0  0  0  0
   65.4903   32.7370   48.5318 H   0  0  0  0  0  0  0  0  0  0  0  0
   64.2729   34.0579   48.5318 H   0  0  0  0  0  0  0  0  0  0  0  0
   61.3952   32.0364   48.9270 H   0  0  0  0  0  0  0  0  0  0  0  0
   62.4499   31.4415   50.2714 H   0  0  0  0  0  0  0  0  0  0  0  0
   62.4183   33.4657   51.2353 H   0  0  0  0  0  0  0  0  0  0  0  0
   63.0694   34.2105   49.7241 H   0  0  0  0  0  0  0  0  0  0  0  0
   61.0888   35.3679   47.4471 H   0  0  0  0  0  0  0  0  0  0  0  0
   59.5690   34.8076   45.5546 H   0  0  0  0  0  0  0  0  0  0  0  0
   56.6947   32.3737   45.9091 H   0  0  0  0  0  0  0  0  0  0  0  0
   57.1783   33.8798   45.0475 H   0  0  0  0  0  0  0  0  0  0  0  0
   59.1192   30.2395   44.2777 H   0  0  0  0  0  0  0  0  0  0  0  0
   58.7304   30.7089   45.9907 H   0  0  0  0  0  0  0  0  0  0  0  0
   57.2387   28.9273   44.7556 H   0  0  0  0  0  0  0  0  0  0  0  0
   56.4822   30.2429   45.7663 H   0  0  0  0  0  0  0  0  0  0  0  0
   55.4591   31.2014   44.0081 H   0  0  0  0  0  0  0  0  0  0  0  0
   56.1480   28.5850   43.1550 H   0  0  0  0  0  0  0  0  0  0  0  0
   57.7847   30.4000   42.1966 H   0  0  0  0  0  0  0  0  0  0  0  0
   56.3977   31.4770   41.7661 H   0  0  0  0  0  0  0  0  0  0  0  0
   58.6784   32.5466   42.5056 H   0  0  0  0  0  0  0  0  0  0  0  0
   57.0935   33.1793   43.1739 H   0  0  0  0  0  0  0  0  0  0  0  0
   57.4937   31.9569   48.0666 H   0  0  0  0  0  0  0  0  0  0  0  0
   59.0008   32.5318   49.9630 H   0  0  0  0  0  0  0  0  0  0  0  0
  1  2  1  0
  2  3  1  0
  3  4  1  0
  3  5  1  0
  5  6  1  0
  6  7  1  0
  7  8  1  0
  8  9  2  0
  9 10  1  0
 10 11  2  0
 11 12  1  0
 12 13  1  0
 13 14  1  0
 14 15  1  0
 15 16  1  0
 16 17  1  0
 16 18  1  0
 18 19  1  0
 11 20  1  0
 20 21  2  0
 21  8  1  0
 19 13  1  0
  1 22  1  0
  1 23  1  0
  1 24  1  0
  2 25  1  0
  2 26  1  0
  4 27  1  0
  4 28  1  0
  4 29  1  0
  5 30  1  0
  5 31  1  0
  6 32  1  0
  6 33  1  0
  9 34  1  0
 10 35  1  0
 12 36  1  0
 12 37  1  0
 14 38  1  0
 14 39  1  0
 15 40  1  0
 15 41  1  0
 16 42  1  0
 17 43  1  0
 18 44  1  0
 18 45  1  0
 19 46  1  0
 19 47  1  0
 20 48  1  0
 21 49  1  0
M  END
>  <UniqueID>  (3) 
3

>  <SMILES>  (3) 
CCN(C)CCOc1ccc(CN2CCC(O)CC2)cc1

>  <Energy>  (3) 
54.55752690779842

>  <Genealogy>  (3) 
CCN(C)CCOc1ccc(CN2CCC(O)CC2)cc1 (3D coordinates assigned)
CCN(C)CCOc1ccc(CN2CCC(O)CC2)cc1 (nonaromatic ring conformer: 54.55752690779842 kcal/mol)

>  <smiles>  (3) 
CCN(C)CCOc1ccc(CN2CCC(O)CC2)cc1

>  <score_type>  (3) 
oracle

>  <origin>  (3) 
adg

>  <m_score__min__energy>  (3) 
-7.6900000000000004

>  <m_primary>  (3) 
energy

$$$$
3:0
     RDKit          3D

 41 41  0  0  0  0  0  0  0  0999 V2000
   57.0850   33.4970   46.7020 C   0  0  0  0  0  0  0  0  0  0  0  0
   57.3660   33.6700   45.2100 C   0  0  0  0  0  0  0  0  0  0  0  0
   58.3500   32.6220   44.6570 C   0  0  0  0  0  0  0  0  0  0  0  0
   58.7720   31.5380   45.6800 C   0  0  1  0  0  0  0  0  0  0  0  0
   58.8900   30.1600   44.9740 C   0  0  0  0  0  0  0  0  0  0  0  0
   57.6570   29.2270   45.0780 C   0  0  1  0  0  0  0  0  0  0  0  0
   57.7660   28.2140   46.2340 C   0  0  0  0  0  0  0  0  0  0  0  0
   56.4120   30.0210   45.1520 N   0  0  0  0  0  0  0  0  0  0  0  0
   55.5750   29.8870   43.9500 C   0  0  0  0  0  0  0  0  0  0  0  0
   56.4180   30.0940   42.6950 C   0  0  0  0  0  0  0  0  0  0  0  0
   60.0560   31.9320   46.3920 C   0  0  0  0  0  0  0  0  0  0  0  0
   60.4850   33.2720   46.4300 C   0  0  0  0  0  0  0  0  0  0  0  0
   61.6650   33.6180   47.0950 C   0  0  0  0  0  0  0  0  0  0  0  0
   62.4240   32.6350   47.7350 C   0  0  0  0  0  0  0  0  0  0  0  0
   64.0350   33.1100   48.6430 Br  0  0  0  0  0  0  0  0  0  0  0  0
   62.0010   31.3030   47.7140 C   0  0  0  0  0  0  0  0  0  0  0  0
   60.8220   30.9520   47.0490 C   0  0  0  0  0  0  0  0  0  0  0  0
   57.8799   33.9864   47.2840 H   0  0  0  0  0  0  0  0  0  0  0  0
   56.1156   33.9549   46.9480 H   0  0  0  0  0  0  0  0  0  0  0  0
   57.0573   32.4252   46.9480 H   0  0  0  0  0  0  0  0  0  0  0  0
   56.4162   33.5824   44.6620 H   0  0  0  0  0  0  0  0  0  0  0  0
   57.8285   34.6588   45.0750 H   0  0  0  0  0  0  0  0  0  0  0  0
   57.8739   32.1208   43.8014 H   0  0  0  0  0  0  0  0  0  0  0  0
   59.2652   33.1659   44.3804 H   0  0  0  0  0  0  0  0  0  0  0  0
   57.9956   31.4523   46.4545 H   0  0  0  0  0  0  0  0  0  0  0  0
   59.0807   30.3456   43.9067 H   0  0  0  0  0  0  0  0  0  0  0  0
   59.7019   29.6320   45.4955 H   0  0  0  0  0  0  0  0  0  0  0  0
   57.6265   28.6232   44.1590 H   0  0  0  0  0  0  0  0  0  0  0  0
   57.7087   28.7465   47.1948 H   0  0  0  0  0  0  0  0  0  0  0  0
   56.9406   27.4901   46.1662 H   0  0  0  0  0  0  0  0  0  0  0  0
   58.7265   27.6822   46.1662 H   0  0  0  0  0  0  0  0  0  0  0  0
   55.8510   29.7250   45.9850 H   0  0  0  0  0  0  0  0  0  0  0  0
   55.1303   28.8811   43.9272 H   0  0  0  0  0  0  0  0  0  0  0  0
   54.7812   30.6480   43.9787 H   0  0  0  0  0  0  0  0  0  0  0  0
   57.4489   30.3471   42.9834 H   0  0  0  0  0  0  0  0  0  0  0  0
   56.4206   29.1698   42.0985 H   0  0  0  0  0  0  0  0  0  0  0  0
   55.9922   30.9143   42.0985 H   0  0  0  0  0  0  0  0  0  0  0  0
   59.8884   34.0515   45.9336 H   0  0  0  0  0  0  0  0  0  0  0  0
   61.9967   34.6666   47.1144 H   0  0  0  0  0  0  0  0  0  0  0  0
   62.5964   30.5297   48.2213 H   0  0  0  0  0  0  0  0  0  0  0  0
   60.4915   29.9029   47.0396 H   0  0  0  0  0  0  0  0  0  0  0  0
  1  2  1  0
  2  3  1  0
  3  4  1  0
  4  5  1  0
  5  6  1  0
  6  7  1  0
  6  8  1  0
  8  9  1  0
  9 10  1  0
  4 11  1  0
 11 12  2  0
 12 13  1  0
 13 14  2  0
 14 15  1  0
 14 16  1  0
 16 17  2  0
 17 11  1  0
  1 18  1  0
  1 19  1  0
  1 20  1  0
  2 21  1  0
  2 22  1  0
  3 23  1  0
  3 24  1  0
  4 25  1  1
  5 26  1  0
  5 27  1  0
  6 28  1  6
  7 29  1  0
  7 30  1  0
  7 31  1  0
  8 32  1  0
  9 33  1  0
  9 34  1  0
 10 35  1  0
 10 36  1  0
 10 37  1  0
 12 38  1  0
 13 39  1  0
 16 40  1  0
 17 41  1  0
M  END
>  <UniqueID>  (4) 
4

>  <SMILES>  (4) 
CCC[C@@H](C[C@@H](C)NCC)c1ccc(Br)cc1

>  <Energy>  (4) 
30.479930413571854

>  <Genealogy>  (4) 
CCC[C@@H](C[C@@H](C)NCC)c1ccc(Br)cc1 (chirality)
CCC[C@@H](C[C@@H](C)NCC)c1ccc(Br)cc1 (3D coordinates assigned)
CCC[C@@H](C[C@@H](C)NCC)c1ccc(Br)cc1 (optimized conformer: 30.479930413571854 kcal/mol)

>  <smiles>  (4) 
CCCC(CC(C)NCC)c1ccc(Br)cc1

>  <score_type>  (4) 
oracle

>  <origin>  (4) 
adg

>  <m_score__min__energy>  (4) 
-7.0999999999999996

>  <m_primary>  (4) 
energy

$$$$
4:0
     RDKit          3D

 54 57  0  0  0  0  0  0  0  0999 V2000
   63.7590   33.1270   47.0730 C   0  0  0  0  0  0  0  0  0  0  0  0
   63.4120   32.9550   48.5590 C   0  0  0  0  0  0  0  0  0  0  0  0
   61.9560   32.9410   48.8470 N   0  0  0  0  0  0  0  0  0  0  0  0
   61.4160   34.2540   49.2750 C   0  0  0  0  0  0  0  0  0  0  0  0
   59.8920   34.2280   49.3880 C   0  0  0  0  0  0  0  0  0  0  0  0
   61.5780   31.8600   49.7850 C   0  0  0  0  0  0  0  0  0  0  0  0
   60.8380   30.7440   49.0340 C   0  0  0  0  0  0  0  0  0  0  0  0
   61.1400   30.7380   47.5890 N   0  0  0  0  0  0  0  0  0  0  0  0
   59.9370   30.8260   46.7800 C   0  0  0  0  0  0  0  0  0  0  0  0
   59.1410   29.6880   46.5940 C   0  0  0  0  0  0  0  0  0  0  0  0
   57.9790   29.7390   45.8300 C   0  0  0  0  0  0  0  0  0  0  0  0
   57.5360   30.8810   45.2260 N   0  0  0  0  0  0  0  0  0  0  0  0
   56.2860   30.8740   44.4450 C   0  0  0  0  0  0  0  0  0  0  0  0
   58.2880   32.0350   45.3690 C   0  0  0  0  0  0  0  0  0  0  0  0
   57.8870   33.2440   44.7470 C   0  0  0  0  0  0  0  0  0  0  0  0
   58.6260   34.4140   44.8990 C   0  0  0  0  0  0  0  0  0  0  0  0
   59.7800   34.4160   45.6670 C   0  0  0  0  0  0  0  0  0  0  0  0
   60.2150   33.2490   46.2880 C   0  0  0  0  0  0  0  0  0  0  0  0
   59.4970   32.0360   46.1560 C   0  0  0  0  0  0  0  0  0  0  0  0
   57.4180   28.3850   45.8360 C   0  0  0  0  0  0  0  0  0  0  0  0
   56.4050   27.7540   45.2950 O   0  0  0  0  0  0  0  0  0  0  0  0
   56.5010   26.4880   45.6830 C   0  0  0  0  0  0  0  0  0  0  0  0
   57.6170   26.3180   46.5110 C   0  0  0  0  0  0  0  0  0  0  0  0
   58.1540   25.0460   47.0750 C   0  0  0  0  0  0  0  0  0  0  0  0
   58.1770   27.5670   46.5690 C   0  0  0  0  0  0  0  0  0  0  0  0
   59.3110   28.2990   47.0920 C   0  0  0  0  0  0  0  0  0  0  0  0
   60.2330   27.8360   47.8130 O   0  0  0  0  0  0  0  0  0  0  0  0
   64.7410   33.6138   46.9797 H   0  0  0  0  0  0  0  0  0  0  0  0
   63.7911   32.1405   46.5874 H   0  0  0  0  0  0  0  0  0  0  0  0
   62.9934   33.7499   46.5874 H   0  0  0  0  0  0  0  0  0  0  0  0
   63.8412   32.0032   48.9054 H   0  0  0  0  0  0  0  0  0  0  0  0
   63.8292   33.8272   49.0836 H   0  0  0  0  0  0  0  0  0  0  0  0
   61.8420   34.5122   50.2558 H   0  0  0  0  0  0  0  0  0  0  0  0
   61.6912   35.0019   48.5168 H   0  0  0  0  0  0  0  0  0  0  0  0
   59.6031   34.2231   50.4494 H   0  0  0  0  0  0  0  0  0  0  0  0
   59.4727   35.1191   48.8980 H   0  0  0  0  0  0  0  0  0  0  0  0
   59.5034   33.3231   48.8980 H   0  0  0  0  0  0  0  0  0  0  0  0
   62.4859   31.4465   50.2484 H   0  0  0  0  0  0  0  0  0  0  0  0
   60.9159   32.2720   50.5608 H   0  0  0  0  0  0  0  0  0  0  0  0
   61.1354   29.7746   49.4605 H   0  0  0  0  0  0  0  0  0  0  0  0
   59.7587   30.9227   49.1490 H   0  0  0  0  0  0  0  0  0  0  0  0
   61.8450   31.4690   47.3570 H   0  0  0  0  0  0  0  0  0  0  0  0
   61.6300   29.8430   47.3610 H   0  0  0  0  0  0  0  0  0  0  0  0
   55.4255   30.8692   45.1302 H   0  0  0  0  0  0  0  0  0  0  0  0
   56.2448   31.7719   43.8109 H   0  0  0  0  0  0  0  0  0  0  0  0
   56.2548   29.9757   43.8109 H   0  0  0  0  0  0  0  0  0  0  0  0
   56.9747   33.2580   44.1326 H   0  0  0  0  0  0  0  0  0  0  0  0
   58.2930   35.3402   44.4079 H   0  0  0  0  0  0  0  0  0  0  0  0
   60.3555   35.3458   45.7863 H   0  0  0  0  0  0  0  0  0  0  0  0
   61.1337   33.2694   46.8926 H   0  0  0  0  0  0  0  0  0  0  0  0
   55.8037   25.6874   45.3952 H   0  0  0  0  0  0  0  0  0  0  0  0
   58.1335   25.0946   48.1737 H   0  0  0  0  0  0  0  0  0  0  0  0
   57.5349   24.2033   46.7336 H   0  0  0  0  0  0  0  0  0  0  0  0
   59.1897   24.9019   46.7336 H   0  0  0  0  0  0  0  0  0  0  0  0
  1  2  1  0
  2  3  1  0
  3  4  1  0
  4  5  1  0
  3  6  1  0
  6  7  1  0
  7  8  1  0
  8  9  1  0
  9 10  2  0
 10 11  1  0
 11 12  2  0
 12 13  1  0
 12 14  1  0
 14 15  2  0
 15 16  1  0
 16 17  2  0
 17 18  1  0
 18 19  2  0
 11 20  1  0
 20 21  1  0
 21 22  1  0
 22 23  2  0
 23 24  1  0
 23 25  1  0
 25 26  1  0
 26 27  2  0
 19  9  1  0
 25 20  2  0
 26 10  1  0
 19 14  1  0
  1 28  1  0
  1 29  1  0
  1 30  1  0
  2 31  1  0
  2 32  1  0
  4 33  1  0
  4 34  1  0
  5 35  1  0
  5 36  1  0
  5 37  1  0
  6 38  1  0
  6 39  1  0
  7 40  1  0
  7 41  1  0
  8 42  1  0
  8 43  1  0
 13 44  1  0
 13 45  1  0
 13 46  1  0
 15 47  1  0
 16 48  1  0
 17 49  1  0
 18 50  1  0
 22 51  1  0
 24 52  1  0
 24 53  1  0
 24 54  1  0
M  CHG  2   8   1  12   1
M  END
>  <UniqueID>  (5) 
5

>  <SMILES>  (5) 
CCN(CC)CC[NH2+]c1c2c([n+](C)c3ccccc13)-c1occ(C)c1C2=O

>  <Energy>  (5) 
153.27881561020854

>  <Genealogy>  (5) 
CCN(CC)CC[NH2+]c1c2c([n+](C)c3ccccc13)-c1occ(C)c1C2=O (protonated)
CCN(CC)CC[NH2+]c1c2c([n+](C)c3ccccc13)-c1occ(C)c1C2=O (3D coordinates assigned)
CCN(CC)CC[NH2+]c1c2c([n+](C)c3ccccc13)-c1occ(C)c1C2=O (nonaromatic ring conformer: 153.27881561020854 kcal/mol)

>  <smiles>  (5) 
CCN(CC)CCNc1c2c([n+](C)c3ccccc13)-c1occ(C)c1C2=O

>  <score_type>  (5) 
oracle

>  <origin>  (5) 
adg

>  <m_score__min__energy>  (5) 
-4.4800000000000004

>  <m_primary>  (5) 
energy

$$$$
5:0
     RDKit          3D

 46 48  0  0  0  0  0  0  0  0999 V2000
   56.5940   29.6400   42.8390 C   0  0  0  0  0  0  0  0  0  0  0  0
   55.5840   30.0880   43.8900 C   0  0  0  0  0  0  0  0  0  0  0  0
   55.9940   29.6390   45.2270 N   0  0  0  0  0  0  0  0  0  0  0  0
   56.7530   28.3810   45.1580 C   0  0  0  0  0  0  0  0  0  0  0  0
   57.9010   28.3820   46.1780 C   0  0  0  0  0  0  0  0  0  0  0  0
   58.9120   29.4230   45.9230 N   0  0  0  0  0  0  0  0  0  0  0  0
   60.0730   29.0750   45.1010 C   0  0  0  0  0  0  0  0  0  0  0  0
   58.9510   30.6500   46.6840 C   0  0  0  0  0  0  0  0  0  0  0  0
   59.2350   30.6110   48.0600 C   0  0  0  0  0  0  0  0  0  0  0  0
   59.3980   29.3780   48.7280 C   0  0  0  0  0  0  0  0  0  0  0  0
   59.6430   29.3380   50.0980 C   0  0  0  0  0  0  0  0  0  0  0  0
   59.7180   30.5200   50.8260 C   0  0  0  0  0  0  0  0  0  0  0  0
   59.5770   31.7500   50.1850 C   0  0  0  0  0  0  0  0  0  0  0  0
   59.3680   31.8250   48.7840 C   0  0  0  0  0  0  0  0  0  0  0  0
   59.2900   33.0360   48.1240 N   0  0  0  0  0  0  0  0  0  0  0  0
   59.7340   34.2760   48.7980 C   0  0  0  0  0  0  0  0  0  0  0  0
   58.8200   33.0850   46.8250 C   0  0  0  0  0  0  0  0  0  0  0  0
   58.4600   34.3120   46.2090 C   0  0  0  0  0  0  0  0  0  0  0  0
   58.0160   34.3500   44.8880 C   0  0  0  0  0  0  0  0  0  0  0  0
   57.8970   33.1750   44.1550 C   0  0  0  0  0  0  0  0  0  0  0  0
   58.2080   31.9520   44.7420 C   0  0  0  0  0  0  0  0  0  0  0  0
   58.6650   31.8870   46.0760 C   0  0  0  0  0  0  0  0  0  0  0  0
   57.4902   29.2425   43.3377 H   0  0  0  0  0  0  0  0  0  0  0  0
   56.1460   28.8562   42.2106 H   0  0  0  0  0  0  0  0  0  0  0  0
   56.8743   30.4982   42.2106 H   0  0  0  0  0  0  0  0  0  0  0  0
   55.5174   31.1860   43.8822 H   0  0  0  0  0  0  0  0  0  0  0  0
   54.6055   29.6452   43.6523 H   0  0  0  0  0  0  0  0  0  0  0  0
   56.6300   30.3680   45.6290 H   0  0  0  0  0  0  0  0  0  0  0  0
   56.0781   27.5399   45.3750 H   0  0  0  0  0  0  0  0  0  0  0  0
   57.1776   28.2795   44.1483 H   0  0  0  0  0  0  0  0  0  0  0  0
   57.4769   28.5463   47.1796 H   0  0  0  0  0  0  0  0  0  0  0  0
   58.4090   27.4099   46.0948 H   0  0  0  0  0  0  0  0  0  0  0  0
   60.9213   28.8207   45.7535 H   0  0  0  0  0  0  0  0  0  0  0  0
   59.8270   28.2111   44.4660 H   0  0  0  0  0  0  0  0  0  0  0  0
   60.3428   29.9318   44.4660 H   0  0  0  0  0  0  0  0  0  0  0  0
   59.3307   28.4385   48.1598 H   0  0  0  0  0  0  0  0  0  0  0  0
   59.7773   28.3708   50.6045 H   0  0  0  0  0  0  0  0  0  0  0  0
   59.8893   30.4846   51.9120 H   0  0  0  0  0  0  0  0  0  0  0  0
   59.6286   32.6770   50.7750 H   0  0  0  0  0  0  0  0  0  0  0  0
   59.6848   34.1385   49.8883 H   0  0  0  0  0  0  0  0  0  0  0  0
   60.7692   34.5029   48.5034 H   0  0  0  0  0  0  0  0  0  0  0  0
   59.0781   35.1085   48.5034 H   0  0  0  0  0  0  0  0  0  0  0  0
   58.5325   35.2476   46.7829 H   0  0  0  0  0  0  0  0  0  0  0  0
   57.7588   35.3136   44.4240 H   0  0  0  0  0  0  0  0  0  0  0  0
   57.5566   33.2118   43.1096 H   0  0  0  0  0  0  0  0  0  0  0  0
   58.0964   31.0254   44.1598 H   0  0  0  0  0  0  0  0  0  0  0  0
  1  2  1  0
  2  3  1  0
  3  4  1  0
  4  5  1  0
  5  6  1  0
  6  7  1  0
  6  8  1  0
  8  9  2  0
  9 10  1  0
 10 11  2  0
 11 12  1  0
 12 13  2  0
 13 14  1  0
 14 15  2  0
 15 16  1  0
 15 17  1  0
 17 18  2  0
 18 19  1  0
 19 20  2  0
 20 21  1  0
 21 22  2  0
 22  8  1  0
 14  9  1  0
 22 17  1  0
  1 23  1  0
  1 24  1  0
  1 25  1  0
  2 26  1  0
  2 27  1  0
  3 28  1  0
  4 29  1  0
  4 30  1  0
  5 31  1  0
  5 32  1  0
  7 33  1  0
  7 34  1  0
  7 35  1  0
 10 36  1  0
 11 37  1  0
 12 38  1  0
 13 39  1  0
 16 40  1  0
 16 41  1  0
 16 42  1  0
 18 43  1  0
 19 44  1  0
 20 45  1  0
 21 46  1  0
M  CHG  1  15   1
M  END
>  <UniqueID>  (6) 
6

>  <SMILES>  (6) 
CCNCCN(C)c1c2ccccc2[n+](C)c2ccccc12

>  <Energy>  (6) 
66.9577590232164

>  <Genealogy>  (6) 
CCNCCN(C)c1c2ccccc2[n+](C)c2ccccc12 (3D coordinates assigned)
CCNCCN(C)c1c2ccccc2[n+](C)c2ccccc12 (optimized conformer: 66.9577590232164 kcal/mol)

>  <smiles>  (6) 
CCNCCN(C)c1c2ccccc2[n+](C)c2ccccc12

>  <score_type>  (6) 
oracle

>  <origin>  (6) 
adg

>  <m_score__min__energy>  (6) 
-5.9000000000000004

>  <m_primary>  (6) 
energy

$$$$
6:0
     RDKit          3D

 92 95  0  0  0  0  0  0  0  0999 V2000
   57.0170   21.2190   43.0150 C   0  0  0  0  0  0  0  0  0  0  0  0
   56.4630   21.7300   44.3390 C   0  0  0  0  0  0  0  0  0  0  0  0
   56.4650   23.2100   44.3670 N   0  0  0  0  0  0  0  0  0  0  0  0
   56.6240   23.7620   43.0090 C   0  0  0  0  0  0  0  0  0  0  0  0
   55.2350   23.7410   45.0040 C   0  0  0  0  0  0  0  0  0  0  0  0
   55.5860   24.5110   46.2800 C   0  0  0  0  0  0  0  0  0  0  0  0
   55.4270   25.9000   46.0690 O   0  0  0  0  0  0  0  0  0  0  0  0
   56.6790   26.5600   46.0180 C   0  0  0  0  0  0  0  0  0  0  0  0
   57.8450   25.5590   45.9800 C   0  0  0  0  0  0  0  0  0  0  0  0
   59.0770   26.1580   46.3300 O   0  0  0  0  0  0  0  0  0  0  0  0
   59.0860   26.5300   47.6950 C   0  0  0  0  0  0  0  0  0  0  0  0
   59.4430   28.0100   47.8140 C   0  0  0  0  0  0  0  0  0  0  0  0
   59.8490   28.5780   46.5250 N   0  0  0  0  0  0  0  0  0  0  0  0
   59.4930   29.9110   46.1090 C   0  0  0  0  0  0  0  0  0  0  0  0
   58.5360   30.0960   45.0930 C   0  0  0  0  0  0  0  0  0  0  0  0
   57.9340   28.9900   44.4590 C   0  0  0  0  0  0  0  0  0  0  0  0
   56.9220   29.1700   43.5200 C   0  0  0  0  0  0  0  0  0  0  0  0
   56.4920   30.4510   43.1970 C   0  0  0  0  0  0  0  0  0  0  0  0
   57.0910   31.5620   43.7880 C   0  0  0  0  0  0  0  0  0  0  0  0
   58.1510   31.4130   44.7210 C   0  0  0  0  0  0  0  0  0  0  0  0
   58.7910   32.5050   45.2750 N   0  0  0  0  0  0  0  0  0  0  0  0
   58.6040   33.8490   44.6850 C   0  0  0  0  0  0  0  0  0  0  0  0
   59.6350   32.3380   46.3590 C   0  0  0  0  0  0  0  0  0  0  0  0
   60.1010   33.4410   47.1170 C   0  0  0  0  0  0  0  0  0  0  0  0
   60.9730   33.2720   48.1940 C   0  0  0  0  0  0  0  0  0  0  0  0
   61.3370   34.4010   48.9440 O   0  0  0  0  0  0  0  0  0  0  0  0
   62.5820   34.5470   49.6190 C   0  0  0  0  0  0  0  0  0  0  0  0
   62.5930   33.8210   50.9820 C   0  0  0  0  0  0  0  0  0  0  0  0
   63.8980   33.2290   51.4410 N   0  0  0  0  0  0  0  0  0  0  0  0
   63.5670   32.3900   52.6290 C   0  0  0  0  0  0  0  0  0  0  0  0
   64.8510   34.3010   51.8670 C   0  0  0  0  0  0  0  0  0  0  0  0
   66.2590   33.7500   52.1730 C   0  0  0  0  0  0  0  0  0  0  0  0
   66.8570   32.9570   51.0440 N   0  0  0  0  0  0  0  0  0  0  0  0
   68.0400   33.6730   50.5060 C   0  0  0  0  0  0  0  0  0  0  0  0
   67.3230   31.6400   51.5440 C   0  0  0  0  0  0  0  0  0  0  0  0
   65.8970   32.7580   49.9180 C   0  0  0  0  0  0  0  0  0  0  0  0
   64.4880   32.3360   50.3830 C   0  0  0  0  0  0  0  0  0  0  0  0
   61.4520   31.9910   48.4920 C   0  0  0  0  0  0  0  0  0  0  0  0
   61.0040   30.8890   47.7710 C   0  0  0  0  0  0  0  0  0  0  0  0
   60.0420   31.0350   46.7520 C   0  0  0  0  0  0  0  0  0  0  0  0
   57.8128   20.4849   43.2094 H   0  0  0  0  0  0  0  0  0  0  0  0
   56.2101   20.7414   42.4398 H   0  0  0  0  0  0  0  0  0  0  0  0
   57.4280   22.0617   42.4398 H   0  0  0  0  0  0  0  0  0  0  0  0
   55.4321   21.3673   44.4638 H   0  0  0  0  0  0  0  0  0  0  0  0
   57.0982   21.3585   45.1567 H   0  0  0  0  0  0  0  0  0  0  0  0
   56.9279   24.8171   43.0753 H   0  0  0  0  0  0  0  0  0  0  0  0
   57.3944   23.1918   42.4693 H   0  0  0  0  0  0  0  0  0  0  0  0
   55.6683   23.6889   42.4693 H   0  0  0  0  0  0  0  0  0  0  0  0
   54.7254   24.4166   44.3013 H   0  0  0  0  0  0  0  0  0  0  0  0
   54.5756   22.8998   45.2642 H   0  0  0  0  0  0  0  0  0  0  0  0
   54.9206   24.1883   47.0943 H   0  0  0  0  0  0  0  0  0  0  0  0
   56.6328   24.3052   46.5480 H   0  0  0  0  0  0  0  0  0  0  0  0
   56.7161   27.1858   45.1141 H   0  0  0  0  0  0  0  0  0  0  0  0
   56.7817   27.1737   46.9251 H   0  0  0  0  0  0  0  0  0  0  0  0
   57.6344   24.7434   46.6874 H   0  0  0  0  0  0  0  0  0  0  0  0
   57.9335   25.1838   44.9498 H   0  0  0  0  0  0  0  0  0  0  0  0
   58.0905   26.3564   48.1295 H   0  0  0  0  0  0  0  0  0  0  0  0
   59.8307   25.9274   48.2356 H   0  0  0  0  0  0  0  0  0  0  0  0
   58.5649   28.5593   48.1843 H   0  0  0  0  0  0  0  0  0  0  0  0
   60.2898   28.1023   48.5100 H   0  0  0  0  0  0  0  0  0  0  0  0
   60.2980   27.9460   45.8260 H   0  0  0  0  0  0  0  0  0  0  0  0
   58.2680   27.9723   44.7093 H   0  0  0  0  0  0  0  0  0  0  0  0
   56.4624   28.2971   43.0333 H   0  0  0  0  0  0  0  0  0  0  0  0
   55.6760   30.5888   42.4723 H   0  0  0  0  0  0  0  0  0  0  0  0
   56.7370   32.5704   43.5275 H   0  0  0  0  0  0  0  0  0  0  0  0
   58.5007   34.5916   45.4899 H   0  0  0  0  0  0  0  0  0  0  0  0
   59.4757   34.1010   44.0633 H   0  0  0  0  0  0  0  0  0  0  0  0
   57.6966   33.8535   44.0633 H   0  0  0  0  0  0  0  0  0  0  0  0
   59.7676   34.4548   46.8503 H   0  0  0  0  0  0  0  0  0  0  0  0
   63.3791   34.1277   48.9875 H   0  0  0  0  0  0  0  0  0  0  0  0
   62.7424   35.6192   49.8052 H   0  0  0  0  0  0  0  0  0  0  0  0
   62.2734   34.5463   51.7447 H   0  0  0  0  0  0  0  0  0  0  0  0
   61.9250   32.9577   50.8461 H   0  0  0  0  0  0  0  0  0  0  0  0
   63.7888   32.9521   53.5481 H   0  0  0  0  0  0  0  0  0  0  0  0
   62.4986   32.1292   52.6075 H   0  0  0  0  0  0  0  0  0  0  0  0
   64.1695   31.4700   52.6075 H   0  0  0  0  0  0  0  0  0  0  0  0
   64.9304   35.0440   51.0598 H   0  0  0  0  0  0  0  0  0  0  0  0
   64.4588   34.7498   52.7915 H   0  0  0  0  0  0  0  0  0  0  0  0
   66.9239   34.5986   52.3915 H   0  0  0  0  0  0  0  0  0  0  0  0
   66.1571   33.0652   53.0278 H   0  0  0  0  0  0  0  0  0  0  0  0
   68.6540   34.0446   51.3396 H   0  0  0  0  0  0  0  0  0  0  0  0
   68.6365   32.9842   49.8898 H   0  0  0  0  0  0  0  0  0  0  0  0
   67.7064   34.5210   49.8898 H   0  0  0  0  0  0  0  0  0  0  0  0
   67.3216   31.6440   52.6440 H   0  0  0  0  0  0  0  0  0  0  0  0
   66.6497   30.8502   51.1793 H   0  0  0  0  0  0  0  0  0  0  0  0
   68.3431   31.4494   51.1793 H   0  0  0  0  0  0  0  0  0  0  0  0
   65.8122   33.7026   49.3608 H   0  0  0  0  0  0  0  0  0  0  0  0
   66.2916   31.9422   49.2945 H   0  0  0  0  0  0  0  0  0  0  0  0
   63.8187   32.3455   49.5101 H   0  0  0  0  0  0  0  0  0  0  0  0
   64.5875   31.3361   50.8306 H   0  0  0  0  0  0  0  0  0  0  0  0
   62.1860   31.8551   49.3000 H   0  0  0  0  0  0  0  0  0  0  0  0
   61.4059   29.8908   47.9993 H   0  0  0  0  0  0  0  0  0  0  0  0
  1  2  1  0
  2  3  1  0
  3  4  1  0
  3  5  1  0
  5  6  1  0
  6  7  1  0
  7  8  1  0
  8  9  1  0
  9 10  1  0
 10 11  1  0
 11 12  1  0
 12 13  1  0
 13 14  1  0
 14 15  2  0
 15 16  1  0
 16 17  2  0
 17 18  1  0
 18 19  2  0
 19 20  1  0
 20 21  2  0
 21 22  1  0
 21 23  1  0
 23 24  2  0
 24 25  1  0
 25 26  1  0
 26 27  1  0
 27 28  1  0
 28 29  1  0
 29 30  1  0
 29 31  1  0
 31 32  1  0
 32 33  1  0
 33 34  1  0
 33 35  1  0
 33 36  1  0
 36 37  1  0
 25 38  2  0
 38 39  1  0
 39 40  2  0
 40 14  1  0
 20 15  1  0
 40 23  1  0
 37 29  1  0
  1 41  1  0
  1 42  1  0
  1 43  1  0
  2 44  1  0
  2 45  1  0
  4 46  1  0
  4 47  1  0
  4 48  1  0
  5 49  1  0
  5 50  1  0
  6 51  1  0
  6 52  1  0
  8 53  1  0
  8 54  1  0
  9 55  1  0
  9 56  1  0
 11 57  1  0
 11 58  1  0
 12 59  1  0
 12 60  1  0
 13 61  1  0
 16 62  1  0
 17 63  1  0
 18 64  1  0
 19 65  1  0
 22 66  1  0
 22 67  1  0
 22 68  1  0
 24 69  1  0
 27 70  1  0
 27 71  1  0
 28 72  1  0
 28 73  1  0
 30 74  1  0
 30 75  1  0
 30 76  1  0
 31 77  1  0
 31 78  1  0
 32 79  1  0
 32 80  1  0
 34 81  1  0
 34 82  1  0
 34 83  1  0
 35 84  1  0
 35 85  1  0
 35 86  1  0
 36 87  1  0
 36 88  1  0
 37 89  1  0
 37 90  1  0
 38 91  1  0
 39 92  1  0
M  CHG  3  21   1  29   1  33   1
M  END
>  <UniqueID>  (7) 
7

>  <SMILES>  (7) 
CCN(C)CCOCCOCCNc1c2ccccc2[n+](C)c2cc(OCC[N+]3(C)CC[N+](C)(C)CC3)ccc12

>  <Energy>  (7) 
145.6313165354478

>  <Genealogy>  (7) 
CCN(C)CCOCCOCCNc1c2ccccc2[n+](C)c2cc(OCC[N+]3(C)CC[N+](C)(C)CC3)ccc12 (3D coordinates assigned)
CCN(C)CCOCCOCCNc1c2ccccc2[n+](C)c2cc(OCC[N+]3(C)CC[N+](C)(C)CC3)ccc12 (nonaromatic ring conformer: 145.6313165354478 kcal/mol)

>  <smiles>  (7) 
CCN(C)CCOCCOCCNc1c2ccccc2[n+](C)c2cc(OCC[N+]3(C)CC[N+](C)(C)CC3)ccc12

>  <score_type>  (7) 
oracle

>  <origin>  (7) 
adg

>  <m_score__min__energy>  (7) 
-4.7400000000000002

>  <m_primary>  (7) 
energy

$$$$
7:0
     RDKit          3D

 56 59  0  0  0  0  0  0  0  0999 V2000
   58.0700   33.3570   45.6080 C   0  0  0  0  0  0  0  0  0  0  0  0
   58.0750   32.6970   46.9830 C   0  0  0  0  0  0  0  0  0  0  0  0
   58.8990   33.4590   47.9290 N   0  0  0  0  0  0  0  0  0  0  0  0
   59.7320   34.5740   47.4650 C   0  0  0  0  0  0  0  0  0  0  0  0
   61.2130   34.2970   47.7690 C   0  0  0  0  0  0  0  0  0  0  0  0
   61.9850   33.8260   46.5260 C   0  0  0  0  0  0  0  0  0  0  0  0
   62.7740   32.6200   46.8010 N   0  0  0  0  0  0  0  0  0  0  0  0
   62.5590   31.7990   47.9610 C   0  0  0  0  0  0  0  0  0  0  0  0
   63.3960   31.9320   49.0830 C   0  0  0  0  0  0  0  0  0  0  0  0
   64.5050   32.8050   49.0600 C   0  0  0  0  0  0  0  0  0  0  0  0
   65.3590   32.8980   50.1570 C   0  0  0  0  0  0  0  0  0  0  0  0
   65.1370   32.1120   51.2810 C   0  0  0  0  0  0  0  0  0  0  0  0
   64.0370   31.2560   51.3330 C   0  0  0  0  0  0  0  0  0  0  0  0
   63.1180   31.1810   50.2550 C   0  0  0  0  0  0  0  0  0  0  0  0
   61.9810   30.4010   50.3230 N   0  0  0  0  0  0  0  0  0  0  0  0
   61.5130   29.8850   51.6290 C   0  0  0  0  0  0  0  0  0  0  0  0
   61.2690   30.1180   49.1730 C   0  0  0  0  0  0  0  0  0  0  0  0
   60.2730   29.1080   49.1410 C   0  0  0  0  0  0  0  0  0  0  0  0
   59.5560   28.8400   47.9760 C   0  0  0  0  0  0  0  0  0  0  0  0
   59.8250   29.5470   46.8090 C   0  0  0  0  0  0  0  0  0  0  0  0
   58.8590   29.1520   45.2090 Br  0  0  0  0  0  0  0  0  0  0  0  0
   60.8190   30.5240   46.8000 C   0  0  0  0  0  0  0  0  0  0  0  0
   61.5430   30.8270   47.9720 C   0  0  0  0  0  0  0  0  0  0  0  0
   58.9610   33.0500   49.3060 C   0  0  0  0  0  0  0  0  0  0  0  0
   58.3670   31.8450   49.7110 C   0  0  0  0  0  0  0  0  0  0  0  0
   58.4310   31.4440   51.0490 C   0  0  0  0  0  0  0  0  0  0  0  0
   59.1030   32.2340   51.9860 C   0  0  0  0  0  0  0  0  0  0  0  0
   59.7080   33.4290   51.5850 C   0  0  0  0  0  0  0  0  0  0  0  0
   59.6300   33.8420   50.2520 C   0  0  0  0  0  0  0  0  0  0  0  0
   58.0617   34.4506   45.7262 H   0  0  0  0  0  0  0  0  0  0  0  0
   58.9705   33.0550   45.0530 H   0  0  0  0  0  0  0  0  0  0  0  0
   57.1742   33.0414   45.0530 H   0  0  0  0  0  0  0  0  0  0  0  0
   57.0437   32.6482   47.3624 H   0  0  0  0  0  0  0  0  0  0  0  0
   58.4977   31.6862   46.8851 H   0  0  0  0  0  0  0  0  0  0  0  0
   59.6014   34.6973   46.3798 H   0  0  0  0  0  0  0  0  0  0  0  0
   59.4251   35.4915   47.9885 H   0  0  0  0  0  0  0  0  0  0  0  0
   61.6762   35.2216   48.1439 H   0  0  0  0  0  0  0  0  0  0  0  0
   61.2583   33.4929   48.5182 H   0  0  0  0  0  0  0  0  0  0  0  0
   61.2667   33.6063   45.7224 H   0  0  0  0  0  0  0  0  0  0  0  0
   62.6770   34.6276   46.2284 H   0  0  0  0  0  0  0  0  0  0  0  0
   63.5950   32.4130   46.1890 H   0  0  0  0  0  0  0  0  0  0  0  0
   64.6969   33.4180   48.1671 H   0  0  0  0  0  0  0  0  0  0  0  0
   66.2100   33.5946   50.1331 H   0  0  0  0  0  0  0  0  0  0  0  0
   65.8311   32.1650   52.1327 H   0  0  0  0  0  0  0  0  0  0  0  0
   63.8797   30.6296   52.2234 H   0  0  0  0  0  0  0  0  0  0  0  0
   62.0118   30.4350   52.4406 H   0  0  0  0  0  0  0  0  0  0  0  0
   60.4244   30.0217   51.7085 H   0  0  0  0  0  0  0  0  0  0  0  0
   61.7550   28.8149   51.7085 H   0  0  0  0  0  0  0  0  0  0  0  0
   60.0631   28.5266   50.0509 H   0  0  0  0  0  0  0  0  0  0  0  0
   58.7742   28.0662   47.9797 H   0  0  0  0  0  0  0  0  0  0  0  0
   61.0414   31.0649   45.8683 H   0  0  0  0  0  0  0  0  0  0  0  0
   57.8494   31.2139   48.9736 H   0  0  0  0  0  0  0  0  0  0  0  0
   57.9518   30.5055   51.3646 H   0  0  0  0  0  0  0  0  0  0  0  0
   59.1558   31.9159   53.0377 H   0  0  0  0  0  0  0  0  0  0  0  0
   60.2464   34.0453   52.3200 H   0  0  0  0  0  0  0  0  0  0  0  0
   60.0942   34.7903   49.9435 H   0  0  0  0  0  0  0  0  0  0  0  0
  1  2  1  0
  2  3  1  0
  3  4  1  0
  4  5  1  0
  5  6  1  0
  6  7  1  0
  7  8  1  0
  8  9  1  0
  9 10  2  0
 10 11  1  0
 11 12  2  0
 12 13  1  0
 13 14  2  0
 14 15  1  0
 15 16  1  0
 15 17  2  0
 17 18  1  0
 18 19  2  0
 19 20  1  0
 20 21  1  0
 20 22  2  0
 22 23  1  0
  3 24  1  0
 24 25  2  0
 25 26  1  0
 26 27  2  0
 27 28  1  0
 28 29  2  0
 23  8  2  0
 29 24  1  0
 14  9  1  0
 23 17  1  0
  1 30  1  0
  1 31  1  0
  1 32  1  0
  2 33  1  0
  2 34  1  0
  4 35  1  0
  4 36  1  0
  5 37  1  0
  5 38  1  0
  6 39  1  0
  6 40  1  0
  7 41  1  0
 10 42  1  0
 11 43  1  0
 12 44  1  0
 13 45  1  0
 16 46  1  0
 16 47  1  0
 16 48  1  0
 18 49  1  0
 19 50  1  0
 22 51  1  0
 25 52  1  0
 26 53  1  0
 27 54  1  0
 28 55  1  0
 29 56  1  0
M  CHG  1  15   1
M  END
>  <UniqueID>  (8) 
8

>  <SMILES>  (8) 
CCN(CCCNc1c2ccccc2[n+](C)c2ccc(Br)cc12)c1ccccc1

>  <Energy>  (8) 
78.28486170370978

>  <Genealogy>  (8) 
CCN(CCCNc1c2ccccc2[n+](C)c2ccc(Br)cc12)c1ccccc1 (3D coordinates assigned)
CCN(CCCNc1c2ccccc2[n+](C)c2ccc(Br)cc12)c1ccccc1 (optimized conformer: 78.28486170370978 kcal/mol)

>  <smiles>  (8) 
CCN(CCCNc1c2ccccc2[n+](C)c2ccc(Br)cc12)c1ccccc1

>  <score_type>  (8) 
oracle

>  <origin>  (8) 
adg

>  <m_score__min__energy>  (8) 
-6.7699999999999996

>  <m_primary>  (8) 
energy

$$$$
8:0
     RDKit          3D

 50 52  0  0  0  0  0  0  0  0999 V2000
   64.2690   32.3870   49.5470 C   0  0  0  0  0  0  0  0  0  0  0  0
   63.6020   32.0600   48.2130 C   0  0  0  0  0  0  0  0  0  0  0  0
   64.1500   32.8990   47.1330 N   0  0  0  0  0  0  0  0  0  0  0  0
   63.1290   33.7700   46.5220 C   0  0  0  0  0  0  0  0  0  0  0  0
   61.6740   33.3040   46.7570 C   0  0  0  0  0  0  0  0  0  0  0  0
   60.5860   34.3790   46.5680 C   0  0  0  0  0  0  0  0  0  0  0  0
   59.5710   34.4980   47.7160 C   0  0  0  0  0  0  0  0  0  0  0  0
   58.4660   33.5420   47.5850 N   0  0  0  0  0  0  0  0  0  0  0  0
   58.6860   32.1650   47.2410 C   0  0  0  0  0  0  0  0  0  0  0  0
   59.3560   31.3260   48.1520 C   0  0  0  0  0  0  0  0  0  0  0  0
   60.0310   31.8610   49.2710 C   0  0  0  0  0  0  0  0  0  0  0  0
   60.7070   31.0300   50.1610 C   0  0  0  0  0  0  0  0  0  0  0  0
   60.7420   29.6590   49.9430 C   0  0  0  0  0  0  0  0  0  0  0  0
   60.0920   29.1090   48.8380 C   0  0  0  0  0  0  0  0  0  0  0  0
   59.3700   29.9270   47.9320 C   0  0  0  0  0  0  0  0  0  0  0  0
   58.7030   29.3950   46.8490 N   0  0  0  0  0  0  0  0  0  0  0  0
   58.4240   27.9430   46.7960 C   0  0  0  0  0  0  0  0  0  0  0  0
   58.2930   30.2210   45.8190 C   0  0  0  0  0  0  0  0  0  0  0  0
   57.9060   29.6810   44.5670 C   0  0  0  0  0  0  0  0  0  0  0  0
   57.4510   30.4970   43.5410 C   0  0  0  0  0  0  0  0  0  0  0  0
   57.3870   31.8680   43.7170 C   0  0  0  0  0  0  0  0  0  0  0  0
   57.7950   32.4550   44.9160 C   0  0  0  0  0  0  0  0  0  0  0  0
   57.7350   34.2180   44.9320 Cl  0  0  0  0  0  0  0  0  0  0  0  0
   58.2610   31.6380   45.9950 C   0  0  0  0  0  0  0  0  0  0  0  0
   63.6156   32.0667   50.3719 H   0  0  0  0  0  0  0  0  0  0  0  0
   65.2313   31.8585   49.6151 H   0  0  0  0  0  0  0  0  0  0  0  0
   64.4406   33.4714   49.6151 H   0  0  0  0  0  0  0  0  0  0  0  0
   63.7785   31.0014   47.9718 H   0  0  0  0  0  0  0  0  0  0  0  0
   62.5237   32.2589   48.3005 H   0  0  0  0  0  0  0  0  0  0  0  0
   64.5170   32.2740   46.3780 H   0  0  0  0  0  0  0  0  0  0  0  0
   64.9510   33.4670   47.4910 H   0  0  0  0  0  0  0  0  0  0  0  0
   63.2400   34.7798   46.9440 H   0  0  0  0  0  0  0  0  0  0  0  0
   63.2982   33.7405   45.4355 H   0  0  0  0  0  0  0  0  0  0  0  0
   61.4644   32.4846   46.0537 H   0  0  0  0  0  0  0  0  0  0  0  0
   61.6221   33.0097   47.8156 H   0  0  0  0  0  0  0  0  0  0  0  0
   61.0863   35.3521   46.4550 H   0  0  0  0  0  0  0  0  0  0  0  0
   60.0085   34.0737   45.6830 H   0  0  0  0  0  0  0  0  0  0  0  0
   60.0899   34.3103   48.6676 H   0  0  0  0  0  0  0  0  0  0  0  0
   59.1443   35.5113   47.6835 H   0  0  0  0  0  0  0  0  0  0  0  0
   57.5070   33.9260   47.4340 H   0  0  0  0  0  0  0  0  0  0  0  0
   60.0228   32.9476   49.4419 H   0  0  0  0  0  0  0  0  0  0  0  0
   61.2137   31.4601   51.0375 H   0  0  0  0  0  0  0  0  0  0  0  0
   61.2833   29.0055   50.6429 H   0  0  0  0  0  0  0  0  0  0  0  0
   60.1402   28.0235   48.6667 H   0  0  0  0  0  0  0  0  0  0  0  0
   58.3478   27.5467   47.8193 H   0  0  0  0  0  0  0  0  0  0  0  0
   57.4763   27.7709   46.2647 H   0  0  0  0  0  0  0  0  0  0  0  0
   59.2404   27.4319   46.2647 H   0  0  0  0  0  0  0  0  0  0  0  0
   57.9675   28.5946   44.4056 H   0  0  0  0  0  0  0  0  0  0  0  0
   57.1400   30.0523   42.5842 H   0  0  0  0  0  0  0  0  0  0  0  0
   57.0099   32.5032   42.9020 H   0  0  0  0  0  0  0  0  0  0  0  0
  1  2  1  0
  2  3  1  0
  3  4  1  0
  4  5  1  0
  5  6  1  0
  6  7  1  0
  7  8  1  0
  8  9  1  0
  9 10  2  0
 10 11  1  0
 11 12  2  0
 12 13  1  0
 13 14  2  0
 14 15  1  0
 15 16  2  0
 16 17  1  0
 16 18  1  0
 18 19  2  0
 19 20  1  0
 20 21  2  0
 21 22  1  0
 22 23  1  0
 22 24  2  0
 24  9  1  0
 15 10  1  0
 24 18  1  0
  1 25  1  0
  1 26  1  0
  1 27  1  0
  2 28  1  0
  2 29  1  0
  3 30  1  0
  3 31  1  0
  4 32  1  0
  4 33  1  0
  5 34  1  0
  5 35  1  0
  6 36  1  0
  6 37  1  0
  7 38  1  0
  7 39  1  0
  8 40  1  0
 11 41  1  0
 12 42  1  0
 13 43  1  0
 14 44  1  0
 17 45  1  0
 17 46  1  0
 17 47  1  0
 19 48  1  0
 20 49  1  0
 21 50  1  0
M  CHG  2   3   1  16   1
M  END
>  <UniqueID>  (9) 
9

>  <SMILES>  (9) 
CC[NH2+]CCCCNc1c2ccccc2[n+](C)c2cccc(Cl)c12

>  <Energy>  (9) 
79.06842380103288

>  <Genealogy>  (9) 
CC[NH2+]CCCCNc1c2ccccc2[n+](C)c2cccc(Cl)c12 (protonated)
CC[NH2+]CCCCNc1c2ccccc2[n+](C)c2cccc(Cl)c12 (3D coordinates assigned)
CC[NH2+]CCCCNc1c2ccccc2[n+](C)c2cccc(Cl)c12 (optimized conformer: 79.06842380103288 kcal/mol)

>  <smiles>  (9) 
CCNCCCCNc1c2ccccc2[n+](C)c2cccc(Cl)c12

>  <score_type>  (9) 
oracle

>  <origin>  (9) 
adg

>  <m_score__min__energy>  (9) 
-4.7999999999999998

>  <m_primary>  (9) 
energy

$$$$
9:0
     RDKit          3D

 64 66  0  0  0  0  0  0  0  0999 V2000
   55.9000   29.7670   43.9570 C   0  0  0  0  0  0  0  0  0  0  0  0
   56.9670   30.8520   43.8890 C   0  0  0  0  0  0  0  0  0  0  0  0
   57.2860   31.3260   45.2420 N   0  0  0  0  0  0  0  0  0  0  0  0
   58.3050   32.3850   45.2150 C   0  0  0  0  0  0  0  0  0  0  0  0
   57.9470   33.4930   46.2130 C   0  0  0  0  0  0  0  0  0  0  0  0
   59.1190   34.4700   46.3940 C   0  0  0  0  0  0  0  0  0  0  0  0
   60.4770   33.8200   46.0890 C   0  0  0  0  0  0  0  0  0  0  0  0
   61.5040   34.0330   47.2180 C   0  0  0  0  0  0  0  0  0  0  0  0
   62.9610   33.8580   46.7370 C   0  0  0  0  0  0  0  0  0  0  0  0
   63.4820   32.4890   46.9330 N   0  0  0  0  0  0  0  0  0  0  0  0
   63.0410   31.8960   48.1890 C   0  0  0  0  0  0  0  0  0  0  0  0
   63.7610   32.1560   49.3860 C   0  0  0  0  0  0  0  0  0  0  0  0
   63.2960   31.6430   50.6130 C   0  0  0  0  0  0  0  0  0  0  0  0
   62.0680   31.0300   50.6920 N   0  0  0  0  0  0  0  0  0  0  0  0
   61.4420   30.8220   52.0160 C   0  0  0  0  0  0  0  0  0  0  0  0
   61.4230   30.6250   49.5430 C   0  0  0  0  0  0  0  0  0  0  0  0
   60.3000   29.7630   49.6040 C   0  0  0  0  0  0  0  0  0  0  0  0
   59.6050   29.3940   48.4590 C   0  0  0  0  0  0  0  0  0  0  0  0
   60.0170   29.8540   47.2070 C   0  0  0  0  0  0  0  0  0  0  0  0
   59.3370   29.5230   46.0240 O   0  0  0  0  0  0  0  0  0  0  0  0
   59.9500   28.9360   44.8810 C   0  0  0  0  0  0  0  0  0  0  0  0
   61.1480   30.6660   47.1160 C   0  0  0  0  0  0  0  0  0  0  0  0
   61.8820   31.0610   48.2650 C   0  0  0  0  0  0  0  0  0  0  0  0
   64.1780   31.8390   51.8370 C   0  0  0  0  0  0  0  0  0  0  0  0
   65.6550   31.6130   51.4840 C   0  0  0  0  0  0  0  0  0  0  0  0
   66.1250   32.4140   50.2540 C   0  0  0  0  0  0  0  0  0  0  0  0
   64.9820   33.0640   49.4590 C   0  0  0  0  0  0  0  0  0  0  0  0
   55.6756   29.5388   45.0094 H   0  0  0  0  0  0  0  0  0  0  0  0
   54.9866   30.1191   43.4553 H   0  0  0  0  0  0  0  0  0  0  0  0
   56.2673   28.8596   43.4553 H   0  0  0  0  0  0  0  0  0  0  0  0
   57.8750   30.4417   43.4229 H   0  0  0  0  0  0  0  0  0  0  0  0
   56.5892   31.6940   43.2904 H   0  0  0  0  0  0  0  0  0  0  0  0
   57.6820   30.5150   45.7720 H   0  0  0  0  0  0  0  0  0  0  0  0
   59.2815   31.9560   45.4839 H   0  0  0  0  0  0  0  0  0  0  0  0
   58.3481   32.8147   44.2033 H   0  0  0  0  0  0  0  0  0  0  0  0
   57.0725   34.0455   45.8388 H   0  0  0  0  0  0  0  0  0  0  0  0
   57.7229   33.0301   47.1854 H   0  0  0  0  0  0  0  0  0  0  0  0
   58.9755   35.3233   45.7148 H   0  0  0  0  0  0  0  0  0  0  0  0
   59.1294   34.7893   47.4466 H   0  0  0  0  0  0  0  0  0  0  0  0
   60.3266   32.7394   45.9491 H   0  0  0  0  0  0  0  0  0  0  0  0
   60.8770   34.2954   45.1813 H   0  0  0  0  0  0  0  0  0  0  0  0
   61.3843   35.0517   47.6155 H   0  0  0  0  0  0  0  0  0  0  0  0
   61.3141   33.2715   47.9888 H   0  0  0  0  0  0  0  0  0  0  0  0
   63.0056   34.0981   45.6644 H   0  0  0  0  0  0  0  0  0  0  0  0
   63.5859   34.5333   47.3398 H   0  0  0  0  0  0  0  0  0  0  0  0
   64.5250   32.5110   46.9090 H   0  0  0  0  0  0  0  0  0  0  0  0
   63.2700   31.9130   46.0960 H   0  0  0  0  0  0  0  0  0  0  0  0
   62.1677   31.0631   52.8067 H   0  0  0  0  0  0  0  0  0  0  0  0
   60.5632   31.4764   52.1129 H   0  0  0  0  0  0  0  0  0  0  0  0
   61.1296   29.7718   52.1129 H   0  0  0  0  0  0  0  0  0  0  0  0
   59.9710   29.3772   50.5802 H   0  0  0  0  0  0  0  0  0  0  0  0
   58.7266   28.7368   48.5393 H   0  0  0  0  0  0  0  0  0  0  0  0
   60.7093   28.2089   45.2049 H   0  0  0  0  0  0  0  0  0  0  0  0
   59.1860   28.4241   44.2775 H   0  0  0  0  0  0  0  0  0  0  0  0
   60.4284   29.7214   44.2775 H   0  0  0  0  0  0  0  0  0  0  0  0
   61.4804   31.0099   46.1254 H   0  0  0  0  0  0  0  0  0  0  0  0
   64.0497   32.8644   52.2139 H   0  0  0  0  0  0  0  0  0  0  0  0
   63.8828   31.1098   52.6058 H   0  0  0  0  0  0  0  0  0  0  0  0
   66.2683   31.9100   52.3475 H   0  0  0  0  0  0  0  0  0  0  0  0
   65.7682   30.5470   51.2373 H   0  0  0  0  0  0  0  0  0  0  0  0
   66.8036   33.2088   50.5972 H   0  0  0  0  0  0  0  0  0  0  0  0
   66.6178   31.6999   49.5778 H   0  0  0  0  0  0  0  0  0  0  0  0
   64.6970   34.0063   49.9497 H   0  0  0  0  0  0  0  0  0  0  0  0
   65.3367   33.2459   48.4338 H   0  0  0  0  0  0  0  0  0  0  0  0
  1  2  1  0
  2  3  1  0
  3  4  1  0
  4  5  1  0
  5  6  1  0
  6  7  1  0
  7  8  1  0
  8  9  1  0
  9 10  1  0
 10 11  1  0
 11 12  2  0
 12 13  1  0
 13 14  2  0
 14 15  1  0
 14 16  1  0
 16 17  2  0
 17 18  1  0
 18 19  2  0
 19 20  1  0
 20 21  1  0
 19 22  1  0
 22 23  2  0
 13 24  1  0
 24 25  1  0
 25 26  1  0
 26 27  1  0
 23 11  1  0
 27 12  1  0
 23 16  1  0
  1 28  1  0
  1 29  1  0
  1 30  1  0
  2 31  1  0
  2 32  1  0
  3 33  1  0
  4 34  1  0
  4 35  1  0
  5 36  1  0
  5 37  1  0
  6 38  1  0
  6 39  1  0
  7 40  1  0
  7 41  1  0
  8 42  1  0
  8 43  1  0
  9 44  1  0
  9 45  1  0
 10 46  1  0
 10 47  1  0
 15 48  1  0
 15 49  1  0
 15 50  1  0
 17 51  1  0
 18 52  1  0
 21 53  1  0
 21 54  1  0
 21 55  1  0
 22 56  1  0
 24 57  1  0
 24 58  1  0
 25 59  1  0
 25 60  1  0
 26 61  1  0
 26 62  1  0
 27 63  1  0
 27 64  1  0
M  CHG  2  10   1  14   1
M  END
>  <UniqueID>  (10) 
10

>  <SMILES>  (10) 
CCNCCCCCC[NH2+]c1c2c([n+](C)c3ccc(OC)cc13)CCCC2

>  <Energy>  (10) 
82.05239799213467

>  <Genealogy>  (10) 
CCNCCCCCC[NH2+]c1c2c([n+](C)c3ccc(OC)cc13)CCCC2 (protonated)
CCNCCCCCC[NH2+]c1c2c([n+](C)c3ccc(OC)cc13)CCCC2 (3D coordinates assigned)
CCNCCCCCC[NH2+]c1c2c([n+](C)c3ccc(OC)cc13)CCCC2 (nonaromatic ring conformer: 82.05239799213467 kcal/mol)

>  <smiles>  (10) 
CCNCCCCCCNc1c2c([n+](C)c3ccc(OC)cc13)CCCC2

>  <score_type>  (10) 
oracle

>  <origin>  (10) 
adg

>  <m_score__min__energy>  (10) 
-4.8099999999999996

>  <m_primary>  (10) 
energy

$$$$
10:0
     RDKit          3D

 42 44  0  0  0  0  0  0  0  0999 V2000
   59.2590   34.7020   44.9420 C   0  0  0  0  0  0  0  0  0  0  0  0
   58.2840   34.5310   46.1050 C   0  0  0  0  0  0  0  0  0  0  0  0
   57.4580   33.2430   45.9840 C   0  0  0  0  0  0  0  0  0  0  0  0
   58.3240   32.0640   45.9000 N   0  0  0  0  0  0  0  0  0  0  0  0
   58.4690   31.2010   44.8580 C   0  0  0  0  0  0  0  0  0  0  0  0
   57.5510   31.3020   43.3160 S   0  0  0  0  0  0  0  0  0  0  0  0
   57.0040   29.5620   43.3570 C   0  0  0  0  0  0  0  0  0  0  0  0
   55.9460   29.3640   44.4090 C   0  0  0  0  0  0  0  0  0  0  0  0
   55.1450   30.3050   44.6410 O   0  0  0  0  0  0  0  0  0  0  0  0
   55.8970   28.1980   45.2450 N   0  0  0  0  0  0  0  0  0  0  0  0
   57.0060   27.4030   45.6840 C   0  0  0  0  0  0  0  0  0  0  0  0
   57.2830   26.1460   45.1190 C   0  0  0  0  0  0  0  0  0  0  0  0
   58.3730   25.3980   45.5730 C   0  0  0  0  0  0  0  0  0  0  0  0
   59.1750   25.8840   46.6090 C   0  0  0  0  0  0  0  0  0  0  0  0
   58.8730   27.1090   47.2090 C   0  0  0  0  0  0  0  0  0  0  0  0
   57.7810   27.8570   46.7590 C   0  0  0  0  0  0  0  0  0  0  0  0
   59.3810   30.2290   45.1060 N   0  0  0  0  0  0  0  0  0  0  0  0
   59.8130   30.4910   46.3500 C   0  0  0  0  0  0  0  0  0  0  0  0
   60.7320   29.7730   47.1100 C   0  0  0  0  0  0  0  0  0  0  0  0
   61.0050   30.2360   48.4110 C   0  0  0  0  0  0  0  0  0  0  0  0
   60.3590   31.3900   48.9100 C   0  0  0  0  0  0  0  0  0  0  0  0
   59.4330   32.0910   48.1160 C   0  0  0  0  0  0  0  0  0  0  0  0
   59.1850   31.6050   46.8310 C   0  0  0  0  0  0  0  0  0  0  0  0
   60.2710   34.8795   45.3350 H   0  0  0  0  0  0  0  0  0  0  0  0
   59.2593   33.7902   44.3267 H   0  0  0  0  0  0  0  0  0  0  0  0
   58.9490   35.5595   44.3267 H   0  0  0  0  0  0  0  0  0  0  0  0
   58.8553   34.4986   47.0445 H   0  0  0  0  0  0  0  0  0  0  0  0
   57.5871   35.3820   46.0896 H   0  0  0  0  0  0  0  0  0  0  0  0
   56.8086   33.1490   46.8668 H   0  0  0  0  0  0  0  0  0  0  0  0
   56.8569   33.2998   45.0645 H   0  0  0  0  0  0  0  0  0  0  0  0
   56.5921   29.2893   42.3742 H   0  0  0  0  0  0  0  0  0  0  0  0
   57.8674   28.9244   43.5979 H   0  0  0  0  0  0  0  0  0  0  0  0
   56.6409   25.7504   44.3183 H   0  0  0  0  0  0  0  0  0  0  0  0
   58.6000   24.4246   45.1137 H   0  0  0  0  0  0  0  0  0  0  0  0
   60.0435   25.3025   46.9519 H   0  0  0  0  0  0  0  0  0  0  0  0
   59.4943   27.4849   48.0353 H   0  0  0  0  0  0  0  0  0  0  0  0
   57.5289   28.8075   47.2519 H   0  0  0  0  0  0  0  0  0  0  0  0
   59.6630   29.4420   44.4810 H   0  0  0  0  0  0  0  0  0  0  0  0
   61.2269   28.8764   46.7085 H   0  0  0  0  0  0  0  0  0  0  0  0
   61.7255   29.6964   49.0432 H   0  0  0  0  0  0  0  0  0  0  0  0
   60.5822   31.7429   49.9277 H   0  0  0  0  0  0  0  0  0  0  0  0
   58.9230   32.9893   48.4939 H   0  0  0  0  0  0  0  0  0  0  0  0
  1  2  1  0
  2  3  1  0
  3  4  1  0
  4  5  1  0
  5  6  1  0
  6  7  1  0
  7  8  1  0
  8  9  2  0
  8 10  1  0
 10 11  1  0
 11 12  2  0
 12 13  1  0
 13 14  2  0
 14 15  1  0
 15 16  2  0
  5 17  2  0
 17 18  1  0
 18 19  2  0
 19 20  1  0
 20 21  2  0
 21 22  1  0
 22 23  2  0
 23  4  1  0
 16 11  1  0
 23 18  1  0
  1 24  1  0
  1 25  1  0
  1 26  1  0
  2 27  1  0
  2 28  1  0
  3 29  1  0
  3 30  1  0
  7 31  1  0
  7 32  1  0
 12 33  1  0
 13 34  1  0
 14 35  1  0
 15 36  1  0
 16 37  1  0
 17 38  1  0
 19 39  1  0
 20 40  1  0
 21 41  1  0
 22 42  1  0
M  CHG  2  10  -1  17   1
M  END
>  <UniqueID>  (11) 
11

>  <SMILES>  (11) 
CCCn1c(SCC(=O)[N-]c2ccccc2)[nH+]c2ccccc21

>  <Energy>  (11) 
73.60674211356589

>  <Genealogy>  (11) 
CCCn1c(SCC(=O)[N-]c2ccccc2)[nH+]c2ccccc21 (protonated)
CCCn1c(SCC(=O)[N-]c2ccccc2)[nH+]c2ccccc21 (3D coordinates assigned)
CCCn1c(SCC(=O)[N-]c2ccccc2)[nH+]c2ccccc21 (optimized conformer: 73.60674211356589 kcal/mol)

>  <smiles>  (11) 
CCCn1c(SCC(=O)Nc2ccccc2)nc2ccccc21

>  <score_type>  (11) 
oracle

>  <origin>  (11) 
adg

>  <m_score__min__energy>  (11) 
-7.9199999999999999

>  <m_primary>  (11) 
energy

$$$$
11:0
     RDKit          3D

 72 77  0  0  0  0  0  0  0  0999 V2000
   61.8950   28.2810   43.8910 H   0  0  0  0  0  0  0  0  0  0  0  0
   61.6360   28.9130   44.6400 O   0  0  0  0  0  0  0  0  0  0  0  0
   60.3260   28.9980   45.1090 C   0  0  0  0  0  0  0  0  0  0  0  0
   59.2880   28.4420   44.3460 C   0  0  0  0  0  0  0  0  0  0  0  0
   59.5108   27.9881   43.3691 H   0  0  0  0  0  0  0  0  0  0  0  0
   57.9750   28.4610   44.8180 C   0  0  0  0  0  0  0  0  0  0  0  0
   57.1671   28.0239   44.2128 H   0  0  0  0  0  0  0  0  0  0  0  0
   57.6860   29.0340   46.0570 C   0  0  0  0  0  0  0  0  0  0  0  0
   56.6520   29.0399   46.4322 H   0  0  0  0  0  0  0  0  0  0  0  0
   58.7090   29.6000   46.8210 C   0  0  0  0  0  0  0  0  0  0  0  0
   58.4744   30.0440   47.7997 H   0  0  0  0  0  0  0  0  0  0  0  0
   60.0350   29.6090   46.3540 C   0  0  0  0  0  0  0  0  0  0  0  0
   61.0650   30.2260   47.2260 C   0  0  0  0  0  0  0  0  0  0  0  0
   61.7339   29.5556   47.7855 H   0  0  0  0  0  0  0  0  0  0  0  0
   61.2330   31.5470   47.3760 C   0  0  0  0  0  0  0  0  0  0  0  0
   60.4661   32.2332   46.9874 H   0  0  0  0  0  0  0  0  0  0  0  0
   62.4240   32.1040   48.0510 C   0  0  0  0  0  0  0  0  0  0  0  0
   62.9350   31.6110   49.2020 N   0  0  0  0  0  0  0  0  0  0  0  0
   62.3810   30.5600   50.0570 C   0  0  0  0  0  0  0  0  0  0  0  0
   61.5500   30.0651   49.5331 H   0  0  0  0  0  0  0  0  0  0  0  0
   63.1695   29.8273   50.2839 H   0  0  0  0  0  0  0  0  0  0  0  0
   61.8750   31.1540   51.3440 C   0  0  0  0  0  0  0  0  0  0  0  0
   61.8130   32.5400   51.5170 C   0  0  0  0  0  0  0  0  0  0  0  0
   62.1143   33.2103   50.6985 H   0  0  0  0  0  0  0  0  0  0  0  0
   61.3700   33.0720   52.7250 C   0  0  0  0  0  0  0  0  0  0  0  0
   61.3340   34.1616   52.8718 H   0  0  0  0  0  0  0  0  0  0  0  0
   60.9720   32.2100   53.7480 C   0  0  0  0  0  0  0  0  0  0  0  0
   60.6380   32.6249   54.7105 H   0  0  0  0  0  0  0  0  0  0  0  0
   60.9930   30.8550   53.5660 N   0  0  0  0  0  0  0  0  0  0  0  0
   60.5220   29.9670   54.6410 C   0  0  0  0  0  0  0  0  0  0  0  0
   60.4543   28.9418   54.2481 H   0  0  0  0  0  0  0  0  0  0  0  0
   61.2412   30.0341   55.4706 H   0  0  0  0  0  0  0  0  0  0  0  0
   59.1390   30.3820   55.1830 C   0  0  0  0  0  0  0  0  0  0  0  0
   58.9820   29.8780   56.1481 H   0  0  0  0  0  0  0  0  0  0  0  0
   59.1511   31.4785   55.2698 H   0  0  0  0  0  0  0  0  0  0  0  0
   57.9600   30.0260   54.2550 C   0  0  0  0  0  0  0  0  0  0  0  0
   57.9630   28.9387   54.0885 H   0  0  0  0  0  0  0  0  0  0  0  0
   57.0400   30.3672   54.7522 H   0  0  0  0  0  0  0  0  0  0  0  0
   58.0250   30.7160   52.9140 C   0  0  0  0  0  0  0  0  0  0  0  0
   58.2920   29.9800   51.7500 C   0  0  0  0  0  0  0  0  0  0  0  0
   58.3823   28.8851   51.8044 H   0  0  0  0  0  0  0  0  0  0  0  0
   58.4440   30.6290   50.5220 C   0  0  0  0  0  0  0  0  0  0  0  0
   58.6623   30.0422   49.6176 H   0  0  0  0  0  0  0  0  0  0  0  0
   58.3200   32.0260   50.4340 C   0  0  0  0  0  0  0  0  0  0  0  0
   58.5730   32.7350   49.1590 C   0  0  0  0  0  0  0  0  0  0  0  0
   57.9530   32.4120   47.9950 N   0  0  0  0  0  0  0  0  0  0  0  0
   58.3320   33.2380   46.9870 C   0  0  0  0  0  0  0  0  0  0  0  0
   57.8600   33.1500   45.6760 C   0  0  0  0  0  0  0  0  0  0  0  0
   57.1360   32.3723   45.3914 H   0  0  0  0  0  0  0  0  0  0  0  0
   58.3290   34.0760   44.7260 C   0  0  0  0  0  0  0  0  0  0  0  0
   57.9709   34.0218   43.6873 H   0  0  0  0  0  0  0  0  0  0  0  0
   59.2540   35.0720   45.0960 C   0  0  0  0  0  0  0  0  0  0  0  0
   59.6122   35.7922   44.3456 H   0  0  0  0  0  0  0  0  0  0  0  0
   59.7210   35.1500   46.4180 C   0  0  0  0  0  0  0  0  0  0  0  0
   60.4433   35.9233   46.7186 H   0  0  0  0  0  0  0  0  0  0  0  0
   59.2430   34.2200   47.3370 C   0  0  0  0  0  0  0  0  0  0  0  0
   59.6090   34.0690   48.9660 S   0  0  0  0  0  0  0  0  0  0  0  0
   57.9810   32.7530   51.5880 C   0  0  0  0  0  0  0  0  0  0  0  0
   57.8376   33.8418   51.5254 H   0  0  0  0  0  0  0  0  0  0  0  0
   57.8250   32.1020   52.8140 C   0  0  0  0  0  0  0  0  0  0  0  0
   57.5436   32.6792   53.7071 H   0  0  0  0  0  0  0  0  0  0  0  0
   61.4690   30.3220   52.3990 C   0  0  0  0  0  0  0  0  0  0  0  0
   61.5342   29.2297   52.2865 H   0  0  0  0  0  0  0  0  0  0  0  0
   63.9990   32.3870   49.4940 C   0  0  0  0  0  0  0  0  0  0  0  0
   64.6444   32.2855   50.3790 H   0  0  0  0  0  0  0  0  0  0  0  0
   64.1420   33.3290   48.4970 C   0  0  0  0  0  0  0  0  0  0  0  0
   64.9216   34.1037   48.4514 H   0  0  0  0  0  0  0  0  0  0  0  0
   63.1650   33.1400   47.5880 N   0  0  0  0  0  0  0  0  0  0  0  0
   62.9800   33.9240   46.3680 C   0  0  0  0  0  0  0  0  0  0  0  0
   62.7348   34.9630   46.6335 H   0  0  0  0  0  0  0  0  0  0  0  0
   63.9071   33.9057   45.7763 H   0  0  0  0  0  0  0  0  0  0  0  0
   62.1588   33.4932   45.7763 H   0  0  0  0  0  0  0  0  0  0  0  0
  1  2  1  0
  2  3  1  0
  3  4  2  0
  4  5  1  0
  4  6  1  0
  6  7  1  0
  6  8  2  0
  8  9  1  0
  8 10  1  0
 10 11  1  0
 10 12  2  0
 12 13  1  0
 13 14  1  0
 13 15  2  0
 15 16  1  0
 15 17  1  0
 17 18  1  0
 18 19  1  0
 19 20  1  0
 19 21  1  0
 19 22  1  0
 22 23  2  0
 23 24  1  0
 23 25  1  0
 25 26  1  0
 25 27  2  0
 27 28  1  0
 27 29  1  0
 29 30  1  0
 30 31  1  0
 30 32  1  0
 30 33  1  0
 33 34  1  0
 33 35  1  0
 33 36  1  0
 36 37  1  0
 36 38  1  0
 36 39  1  0
 39 40  2  0
 40 41  1  0
 40 42  1  0
 42 43  1  0
 42 44  2  0
 44 45  1  0
 45 46  2  0
 46 47  1  0
 47 48  2  0
 48 49  1  0
 48 50  1  0
 50 51  1  0
 50 52  2  0
 52 53  1  0
 52 54  1  0
 54 55  1  0
 54 56  2  0
 56 57  1  0
 44 58  1  0
 58 59  1  0
 58 60  2  0
 60 61  1  0
 29 62  2  0
 62 63  1  0
 18 64  1  0
 64 65  1  0
 64 66  2  0
 66 67  1  0
 66 68  1  0
 68 69  1  0
 69 70  1  0
 69 71  1  0
 69 72  1  0
 12  3  1  0
 68 17  2  0
 62 22  1  0
 60 39  1  0
 57 45  1  0
 56 47  1  0
M  CHG  2  29   1  68   1
M  END
>  <UniqueID>  (12) 
12

>  <SMILES>  (12) 
C[n+]1ccn(Cc2ccc[n+](CCCc3ccc(-c4nc5ccccc5s4)cc3)c2)c1/C=C/c1ccccc1O

>  <Energy>  (12) 
144.9980751707458

>  <Genealogy>  (12) 
C[n+]1ccn(Cc2ccc[n+](CCCc3ccc(-c4nc5ccccc5s4)cc3)c2)c1/C=C/c1ccccc1O (cis-trans isomerization)
C[n+]1ccn(Cc2ccc[n+](CCCc3ccc(-c4nc5ccccc5s4)cc3)c2)c1/C=C/c1ccccc1O (3D coordinates assigned)
C[n+]1ccn(Cc2ccc[n+](CCCc3ccc(-c4nc5ccccc5s4)cc3)c2)c1/C=C/c1ccccc1O (optimized conformer: 144.9980751707458 kcal/mol)

>  <smiles>  (12) 
C[n+]1ccn(Cc2ccc[n+](CCCc3ccc(-c4nc5ccccc5s4)cc3)c2)c1C=Cc1ccccc1O

>  <score_type>  (12) 
oracle

>  <origin>  (12) 
adg

>  <m_score__min__energy>  (12) 
-8.9600000000000009

>  <m_primary>  (12) 
energy

$$$$
12:0
     RDKit          3D

 64 67  0  0  0  0  0  0  0  0999 V2000
   57.3940   32.6370   52.3260 C   0  0  0  0  0  0  0  0  0  0  0  0
   56.8490   31.2120   52.3310 C   0  0  0  0  0  0  0  0  0  0  0  0
   57.3950   30.4460   51.2020 N   0  0  0  0  0  0  0  0  0  0  0  0
   58.5510   29.6380   51.6100 C   0  0  0  0  0  0  0  0  0  0  0  0
   59.7830   30.0460   50.7990 C   0  0  0  0  0  0  0  0  0  0  0  0
   59.7050   29.5160   49.3660 C   0  0  0  0  0  0  0  0  0  0  0  0
   58.5450   30.0780   48.6790 N   0  0  0  0  0  0  0  0  0  0  0  0
   58.5820   30.3380   47.2660 C   0  0  0  0  0  0  0  0  0  0  0  0
   58.6310   29.2560   46.3690 C   0  0  0  0  0  0  0  0  0  0  0  0
   58.9040   27.9470   46.8200 C   0  0  0  0  0  0  0  0  0  0  0  0
   58.9980   26.8880   45.9200 C   0  0  0  0  0  0  0  0  0  0  0  0
   58.8280   27.1150   44.5600 C   0  0  0  0  0  0  0  0  0  0  0  0
   58.5280   28.3940   44.0950 C   0  0  0  0  0  0  0  0  0  0  0  0
   58.3810   29.4830   44.9930 C   0  0  0  0  0  0  0  0  0  0  0  0
   57.9850   30.7330   44.5630 N   0  0  0  0  0  0  0  0  0  0  0  0
   57.3740   30.8900   43.2220 C   0  0  0  0  0  0  0  0  0  0  0  0
   58.1400   31.8310   45.3900 C   0  0  0  0  0  0  0  0  0  0  0  0
   57.9790   33.1470   44.8940 C   0  0  0  0  0  0  0  0  0  0  0  0
   58.0990   34.2500   45.7270 C   0  0  0  0  0  0  0  0  0  0  0  0
   58.4530   34.0880   47.0560 C   0  0  0  0  0  0  0  0  0  0  0  0
   58.6950   32.8100   47.5880 C   0  0  0  0  0  0  0  0  0  0  0  0
   59.2980   32.7030   48.8960 N   0  0  0  0  0  0  0  0  0  0  0  0
   59.6410   33.8460   49.7490 C   0  0  0  0  0  0  0  0  0  0  0  0
   61.0990   33.7740   50.2120 C   0  0  0  0  0  0  0  0  0  0  0  0
   62.0030   33.4290   49.0600 C   0  0  0  0  0  0  0  0  0  0  0  0
   62.9380   32.3870   49.1780 C   0  0  0  0  0  0  0  0  0  0  0  0
   63.7550   32.0490   48.0940 C   0  0  0  0  0  0  0  0  0  0  0  0
   63.6380   32.7410   46.8850 C   0  0  0  0  0  0  0  0  0  0  0  0
   62.6990   33.7690   46.7570 C   0  0  0  0  0  0  0  0  0  0  0  0
   61.8810   34.1100   47.8370 C   0  0  0  0  0  0  0  0  0  0  0  0
   58.4790   31.6580   46.7660 C   0  0  0  0  0  0  0  0  0  0  0  0
   57.5262   32.9826   53.3619 H   0  0  0  0  0  0  0  0  0  0  0  0
   58.3633   32.6570   51.8063 H   0  0  0  0  0  0  0  0  0  0  0  0
   56.6855   33.2987   51.8063 H   0  0  0  0  0  0  0  0  0  0  0  0
   57.1327   30.7197   53.2729 H   0  0  0  0  0  0  0  0  0  0  0  0
   55.7537   31.2506   52.2370 H   0  0  0  0  0  0  0  0  0  0  0  0
   57.7290   31.1330   50.4840 H   0  0  0  0  0  0  0  0  0  0  0  0
   58.7490   29.7986   52.6801 H   0  0  0  0  0  0  0  0  0  0  0  0
   58.3328   28.5753   51.4280 H   0  0  0  0  0  0  0  0  0  0  0  0
   59.8470   31.1438   50.7721 H   0  0  0  0  0  0  0  0  0  0  0  0
   60.6738   29.6162   51.2804 H   0  0  0  0  0  0  0  0  0  0  0  0
   60.6196   29.7991   48.8243 H   0  0  0  0  0  0  0  0  0  0  0  0
   59.6072   28.4207   49.3949 H   0  0  0  0  0  0  0  0  0  0  0  0
   57.7770   30.4900   49.2540 H   0  0  0  0  0  0  0  0  0  0  0  0
   59.0442   27.7607   47.8950 H   0  0  0  0  0  0  0  0  0  0  0  0
   59.2068   25.8720   46.2861 H   0  0  0  0  0  0  0  0  0  0  0  0
   58.9305   26.2827   43.8481 H   0  0  0  0  0  0  0  0  0  0  0  0
   58.4032   28.5621   43.0151 H   0  0  0  0  0  0  0  0  0  0  0  0
   56.3139   31.1624   43.3317 H   0  0  0  0  0  0  0  0  0  0  0  0
   57.9008   31.6820   42.6695 H   0  0  0  0  0  0  0  0  0  0  0  0
   57.4538   29.9422   42.6695 H   0  0  0  0  0  0  0  0  0  0  0  0
   57.7545   33.2980   43.8278 H   0  0  0  0  0  0  0  0  0  0  0  0
   57.9120   35.2585   45.3297 H   0  0  0  0  0  0  0  0  0  0  0  0
   58.5460   34.9719   47.7042 H   0  0  0  0  0  0  0  0  0  0  0  0
   59.6480   31.7710   49.2090 H   0  0  0  0  0  0  0  0  0  0  0  0
   59.4906   34.7757   49.1806 H   0  0  0  0  0  0  0  0  0  0  0  0
   58.9922   33.8248   50.6370 H   0  0  0  0  0  0  0  0  0  0  0  0
   61.3958   34.7493   50.6252 H   0  0  0  0  0  0  0  0  0  0  0  0
   61.1892   32.9922   50.9806 H   0  0  0  0  0  0  0  0  0  0  0  0
   63.0278   31.8354   50.1255 H   0  0  0  0  0  0  0  0  0  0  0  0
   64.4908   31.2373   48.1931 H   0  0  0  0  0  0  0  0  0  0  0  0
   64.2843   32.4769   46.0349 H   0  0  0  0  0  0  0  0  0  0  0  0
   62.6041   34.3103   45.8041 H   0  0  0  0  0  0  0  0  0  0  0  0
   61.1387   34.9146   47.7295 H   0  0  0  0  0  0  0  0  0  0  0  0
  1  2  1  0
  2  3  1  0
  3  4  1  0
  4  5  1  0
  5  6  1  0
  6  7  1  0
  7  8  1  0
  8  9  2  0
  9 10  1  0
 10 11  2  0
 11 12  1  0
 12 13  2  0
 13 14  1  0
 14 15  2  0
 15 16  1  0
 15 17  1  0
 17 18  2  0
 18 19  1  0
 19 20  2  0
 20 21  1  0
 21 22  1  0
 22 23  1  0
 23 24  1  0
 24 25  1  0
 25 26  2  0
 26 27  1  0
 27 28  2  0
 28 29  1  0
 29 30  2  0
 21 31  2  0
 31  8  1  0
 14  9  1  0
 31 17  1  0
 30 25  1  0
  1 32  1  0
  1 33  1  0
  1 34  1  0
  2 35  1  0
  2 36  1  0
  3 37  1  0
  4 38  1  0
  4 39  1  0
  5 40  1  0
  5 41  1  0
  6 42  1  0
  6 43  1  0
  7 44  1  0
 10 45  1  0
 11 46  1  0
 12 47  1  0
 13 48  1  0
 16 49  1  0
 16 50  1  0
 16 51  1  0
 18 52  1  0
 19 53  1  0
 20 54  1  0
 22 55  1  0
 23 56  1  0
 23 57  1  0
 24 58  1  0
 24 59  1  0
 26 60  1  0
 27 61  1  0
 28 62  1  0
 29 63  1  0
 30 64  1  0
M  CHG  1  15   1
M  END
>  <UniqueID>  (13) 
13

>  <SMILES>  (13) 
CCNCCCNc1c2ccccc2[n+](C)c2cccc(NCCc3ccccc3)c12

>  <Energy>  (13) 
90.47025271221153

>  <Genealogy>  (13) 
CCNCCCNc1c2ccccc2[n+](C)c2cccc(NCCc3ccccc3)c12 (3D coordinates assigned)
CCNCCCNc1c2ccccc2[n+](C)c2cccc(NCCc3ccccc3)c12 (optimized conformer: 90.47025271221153 kcal/mol)

>  <smiles>  (13) 
CCNCCCNc1c2ccccc2[n+](C)c2cccc(NCCc3ccccc3)c12

>  <score_type>  (13) 
oracle

>  <origin>  (13) 
adg

>  <m_score__min__energy>  (13) 
-6.1900000000000004

>  <m_primary>  (13) 
energy

$$$$
13:0
     RDKit          3D

 77 81  0  0  0  0  0  0  0  0999 V2000
   60.6250   28.6530   51.4360 C   0  0  0  0  0  0  0  0  0  0  0  0
   61.0780   29.3920   50.1790 C   0  0  0  0  0  0  0  0  0  0  0  0
   59.9430   30.1390   49.5880 N   0  0  0  0  0  0  0  0  0  0  0  0
   59.3140   31.0330   50.5860 C   0  0  0  0  0  0  0  0  0  0  0  0
   58.3770   32.0190   49.8950 C   0  0  0  0  0  0  0  0  0  0  0  0
   58.9460   29.2160   48.9960 C   0  0  0  0  0  0  0  0  0  0  0  0
   59.4370   28.7060   47.6330 C   0  0  0  0  0  0  0  0  0  0  0  0
   60.3450   29.6860   46.9990 N   0  0  0  0  0  0  0  0  0  0  0  0
   59.6130   30.7720   46.3660 C   0  0  0  0  0  0  0  0  0  0  0  0
   58.6680   30.4700   45.3420 C   0  0  0  0  0  0  0  0  0  0  0  0
   58.5360   29.1660   44.7960 C   0  0  0  0  0  0  0  0  0  0  0  0
   57.6640   28.9060   43.7410 C   0  0  0  0  0  0  0  0  0  0  0  0
   56.9010   29.9300   43.2030 C   0  0  0  0  0  0  0  0  0  0  0  0
   56.9720   31.2080   43.7460 C   0  0  0  0  0  0  0  0  0  0  0  0
   57.8160   31.4910   44.8520 C   0  0  0  0  0  0  0  0  0  0  0  0
   57.8020   32.7260   45.4550 N   0  0  0  0  0  0  0  0  0  0  0  0
   56.6500   33.6330   45.2370 C   0  0  0  0  0  0  0  0  0  0  0  0
   58.8390   33.1070   46.2820 C   0  0  0  0  0  0  0  0  0  0  0  0
   58.9830   34.4660   46.6520 C   0  0  0  0  0  0  0  0  0  0  0  0
   59.9750   34.8790   47.5210 C   0  0  0  0  0  0  0  0  0  0  0  0
   60.8850   33.9680   48.0130 C   0  0  0  0  0  0  0  0  0  0  0  0
   60.8340   32.6170   47.6420 C   0  0  0  0  0  0  0  0  0  0  0  0
   61.9360   31.7990   48.0690 N   0  0  0  0  0  0  0  0  0  0  0  0
   63.2590   31.8460   47.4380 C   0  0  0  0  0  0  0  0  0  0  0  0
   63.9910   33.1600   47.7410 C   0  0  0  0  0  0  0  0  0  0  0  0
   64.8290   33.0440   49.0170 C   0  0  0  0  0  0  0  0  0  0  0  0
   63.9730   32.6810   50.1530 N   0  0  0  0  0  0  0  0  0  0  0  0
   64.2640   31.5670   50.8920 C   0  0  0  0  0  0  0  0  0  0  0  0
   63.4450   31.1820   51.9540 C   0  0  0  0  0  0  0  0  0  0  0  0
   62.3060   31.9350   52.2560 C   0  0  0  0  0  0  0  0  0  0  0  0
   61.4600   31.5710   53.3150 C   0  0  0  0  0  0  0  0  0  0  0  0
   60.3230   32.3350   53.5960 C   0  0  0  0  0  0  0  0  0  0  0  0
   60.0240   33.4630   52.8260 C   0  0  0  0  0  0  0  0  0  0  0  0
   60.8610   33.8340   51.7700 C   0  0  0  0  0  0  0  0  0  0  0  0
   62.0060   33.0750   51.4790 C   0  0  0  0  0  0  0  0  0  0  0  0
   62.8580   33.4260   50.4240 C   0  0  0  0  0  0  0  0  0  0  0  0
   59.7880   32.1450   46.7650 C   0  0  0  0  0  0  0  0  0  0  0  0
   60.9624   29.2034   52.3266 H   0  0  0  0  0  0  0  0  0  0  0  0
   59.5274   28.5810   51.4435 H   0  0  0  0  0  0  0  0  0  0  0  0
   61.0588   27.6422   51.4435 H   0  0  0  0  0  0  0  0  0  0  0  0
   61.8801   30.0975   50.4414 H   0  0  0  0  0  0  0  0  0  0  0  0
   61.4470   28.6600   49.4455 H   0  0  0  0  0  0  0  0  0  0  0  0
   58.7401   30.4289   51.3041 H   0  0  0  0  0  0  0  0  0  0  0  0
   60.1010   31.5941   51.1111 H   0  0  0  0  0  0  0  0  0  0  0  0
   57.8282   32.5965   50.6536 H   0  0  0  0  0  0  0  0  0  0  0  0
   58.9646   32.7044   49.2666 H   0  0  0  0  0  0  0  0  0  0  0  0
   57.6625   31.4670   49.2666 H   0  0  0  0  0  0  0  0  0  0  0  0
   58.7969   28.3607   49.6715 H   0  0  0  0  0  0  0  0  0  0  0  0
   57.9973   29.7549   48.8564 H   0  0  0  0  0  0  0  0  0  0  0  0
   59.9745   27.7569   47.7759 H   0  0  0  0  0  0  0  0  0  0  0  0
   58.5656   28.5591   46.9779 H   0  0  0  0  0  0  0  0  0  0  0  0
   60.9960   29.2380   46.3270 H   0  0  0  0  0  0  0  0  0  0  0  0
   61.0030   30.0650   47.7160 H   0  0  0  0  0  0  0  0  0  0  0  0
   59.1348   28.3438   45.2148 H   0  0  0  0  0  0  0  0  0  0  0  0
   57.5811   27.8871   43.3348 H   0  0  0  0  0  0  0  0  0  0  0  0
   56.2395   29.7319   42.3468 H   0  0  0  0  0  0  0  0  0  0  0  0
   56.3633   32.0143   43.3109 H   0  0  0  0  0  0  0  0  0  0  0  0
   56.2452   33.9517   46.2089 H   0  0  0  0  0  0  0  0  0  0  0  0
   56.9806   34.5159   44.6702 H   0  0  0  0  0  0  0  0  0  0  0  0
   55.8694   33.1045   44.6702 H   0  0  0  0  0  0  0  0  0  0  0  0
   58.2883   35.2114   46.2376 H   0  0  0  0  0  0  0  0  0  0  0  0
   60.0385   35.9356   47.8203 H   0  0  0  0  0  0  0  0  0  0  0  0
   61.6657   34.3073   48.7097 H   0  0  0  0  0  0  0  0  0  0  0  0
   61.6890   30.8970   48.5270 H   0  0  0  0  0  0  0  0  0  0  0  0
   63.8628   31.0074   47.8150 H   0  0  0  0  0  0  0  0  0  0  0  0
   63.1200   31.7765   46.3490 H   0  0  0  0  0  0  0  0  0  0  0  0
   64.6533   33.4048   46.8975 H   0  0  0  0  0  0  0  0  0  0  0  0
   63.2411   33.9514   47.8869 H   0  0  0  0  0  0  0  0  0  0  0  0
   65.5971   32.2689   48.8783 H   0  0  0  0  0  0  0  0  0  0  0  0
   65.3071   34.0131   49.2224 H   0  0  0  0  0  0  0  0  0  0  0  0
   65.1534   30.9683   50.6462 H   0  0  0  0  0  0  0  0  0  0  0  0
   63.6938   30.2916   52.5501 H   0  0  0  0  0  0  0  0  0  0  0  0
   61.6913   30.6847   53.9240 H   0  0  0  0  0  0  0  0  0  0  0  0
   59.6612   32.0473   54.4262 H   0  0  0  0  0  0  0  0  0  0  0  0
   59.1280   34.0598   53.0518 H   0  0  0  0  0  0  0  0  0  0  0  0
   60.6225   34.7218   51.1660 H   0  0  0  0  0  0  0  0  0  0  0  0
   62.6286   34.3081   49.8082 H   0  0  0  0  0  0  0  0  0  0  0  0
  1  2  1  0
  2  3  1  0
  3  4  1  0
  4  5  1  0
  3  6  1  0
  6  7  1  0
  7  8  1  0
  8  9  1  0
  9 10  2  0
 10 11  1  0
 11 12  2  0
 12 13  1  0
 13 14  2  0
 14 15  1  0
 15 16  2  0
 16 17  1  0
 16 18  1  0
 18 19  2  0
 19 20  1  0
 20 21  2  0
 21 22  1  0
 22 23  1  0
 23 24  1  0
 24 25  1  0
 25 26  1  0
 26 27  1  0
 27 28  2  0
 28 29  1  0
 29 30  2  0
 30 31  1  0
 31 32  2  0
 32 33  1  0
 33 34  2  0
 34 35  1  0
 35 36  2  0
 22 37  2  0
 37  9  1  0
 15 10  1  0
 37 18  1  0
 36 27  1  0
 35 30  1  0
  1 38  1  0
  1 39  1  0
  1 40  1  0
  2 41  1  0
  2 42  1  0
  4 43  1  0
  4 44  1  0
  5 45  1  0
  5 46  1  0
  5 47  1  0
  6 48  1  0
  6 49  1  0
  7 50  1  0
  7 51  1  0
  8 52  1  0
  8 53  1  0
 11 54  1  0
 12 55  1  0
 13 56  1  0
 14 57  1  0
 17 58  1  0
 17 59  1  0
 17 60  1  0
 19 61  1  0
 20 62  1  0
 21 63  1  0
 23 64  1  0
 24 65  1  0
 24 66  1  0
 25 67  1  0
 25 68  1  0
 26 69  1  0
 26 70  1  0
 28 71  1  0
 29 72  1  0
 31 73  1  0
 32 74  1  0
 33 75  1  0
 34 76  1  0
 36 77  1  0
M  CHG  3   8   1  16   1  27   1
M  END
>  <UniqueID>  (14) 
14

>  <SMILES>  (14) 
CCN(CC)CC[NH2+]c1c2ccccc2[n+](C)c2cccc(NCCC[n+]3ccc4ccccc4c3)c12

>  <Energy>  (14) 
120.85832844757718

>  <Genealogy>  (14) 
CCN(CC)CC[NH2+]c1c2ccccc2[n+](C)c2cccc(NCCC[n+]3ccc4ccccc4c3)c12 (protonated)
CCN(CC)CC[NH2+]c1c2ccccc2[n+](C)c2cccc(NCCC[n+]3ccc4ccccc4c3)c12 (3D coordinates assigned)
CCN(CC)CC[NH2+]c1c2ccccc2[n+](C)c2cccc(NCCC[n+]3ccc4ccccc4c3)c12 (optimized conformer: 120.85832844757718 kcal/mol)

>  <smiles>  (14) 
CCN(CC)CCNc1c2ccccc2[n+](C)c2cccc(NCCC[n+]3ccc4ccccc4c3)c12

>  <score_type>  (14) 
oracle

>  <origin>  (14) 
adg

>  <m_score__min__energy>  (14) 
-4.0599999999999996

>  <m_primary>  (14) 
energy

$$$$
14:0
     RDKit          3D

 65 67  0  0  0  0  0  0  0  0999 V2000
   65.3230   32.7030   49.7630 C   0  0  0  0  0  0  0  0  0  0  0  0
   63.8080   32.7740   50.0010 C   0  0  0  0  0  0  0  0  0  0  0  0
   62.9560   32.8880   48.7640 N   0  0  0  0  0  0  0  0  0  0  0  0
   63.7520   32.8310   47.4810 C   0  0  0  0  0  0  0  0  0  0  0  0
   63.3760   33.8350   46.3680 C   0  0  0  0  0  0  0  0  0  0  0  0
   62.1160   34.1530   48.8400 C   0  0  0  0  0  0  0  0  0  0  0  0
   60.7560   34.0950   49.5690 C   0  0  0  0  0  0  0  0  0  0  0  0
   61.9360   31.7720   48.7940 C   0  0  0  0  0  0  0  0  0  0  0  0
   61.7880   30.8980   47.5240 C   0  0  0  0  0  0  0  0  0  0  0  0
   60.7930   29.7400   47.7340 C   0  0  0  0  0  0  0  0  0  0  0  0
   59.4090   30.2290   47.8580 N   0  0  0  0  0  0  0  0  0  0  0  0
   58.8570   30.5250   46.5500 C   0  0  0  0  0  0  0  0  0  0  0  0
   58.7390   31.8570   46.0680 C   0  0  0  0  0  0  0  0  0  0  0  0
   58.1720   32.0820   44.7710 C   0  0  0  0  0  0  0  0  0  0  0  0
   57.8390   31.0090   43.9640 N   0  0  0  0  0  0  0  0  0  0  0  0
   57.3090   31.2270   42.6030 C   0  0  0  0  0  0  0  0  0  0  0  0
   57.9560   29.7350   44.4550 C   0  0  0  0  0  0  0  0  0  0  0  0
   58.4480   29.4820   45.7070 C   0  0  0  0  0  0  0  0  0  0  0  0
   58.4700   28.0250   46.0080 C   0  0  0  0  0  0  0  0  0  0  0  0
   57.8580   27.3630   44.7650 C   0  0  0  0  0  0  0  0  0  0  0  0
   57.5940   28.4760   43.7440 C   0  0  0  0  0  0  0  0  0  0  0  0
   58.0190   33.5040   44.2410 C   0  0  0  0  0  0  0  0  0  0  0  0
   58.0560   34.5760   45.3290 C   0  0  0  0  0  0  0  0  0  0  0  0
   59.2580   34.3500   46.2310 C   0  0  0  0  0  0  0  0  0  0  0  0
   59.1050   33.0260   46.9740 C   0  0  0  0  0  0  0  0  0  0  0  0
   65.8454   32.6785   50.7307 H   0  0  0  0  0  0  0  0  0  0  0  0
   65.5625   31.7926   49.1939 H   0  0  0  0  0  0  0  0  0  0  0  0
   65.6466   33.5870   49.1939 H   0  0  0  0  0  0  0  0  0  0  0  0
   63.5069   31.8610   50.5355 H   0  0  0  0  0  0  0  0  0  0  0  0
   63.6373   33.7007   50.5685 H   0  0  0  0  0  0  0  0  0  0  0  0
   64.8073   33.0037   47.7390 H   0  0  0  0  0  0  0  0  0  0  0  0
   63.5303   31.8414   47.0550 H   0  0  0  0  0  0  0  0  0  0  0  0
   63.0248   34.7727   46.8234 H   0  0  0  0  0  0  0  0  0  0  0  0
   64.2589   34.0385   45.7442 H   0  0  0  0  0  0  0  0  0  0  0  0
   62.5767   33.4085   45.7442 H   0  0  0  0  0  0  0  0  0  0  0  0
   62.7240   34.9158   49.3484 H   0  0  0  0  0  0  0  0  0  0  0  0
   61.8502   34.3615   47.7931 H   0  0  0  0  0  0  0  0  0  0  0  0
   60.9222   34.1021   50.6563 H   0  0  0  0  0  0  0  0  0  0  0  0
   60.1502   34.9681   49.2850 H   0  0  0  0  0  0  0  0  0  0  0  0
   60.2267   33.1735   49.2850 H   0  0  0  0  0  0  0  0  0  0  0  0
   62.2058   31.1025   49.6240 H   0  0  0  0  0  0  0  0  0  0  0  0
   60.9672   32.2833   48.8942 H   0  0  0  0  0  0  0  0  0  0  0  0
   61.4290   31.5295   46.6979 H   0  0  0  0  0  0  0  0  0  0  0  0
   62.7719   30.4635   47.2935 H   0  0  0  0  0  0  0  0  0  0  0  0
   60.8543   29.0565   46.8743 H   0  0  0  0  0  0  0  0  0  0  0  0
   61.0597   29.2227   48.6674 H   0  0  0  0  0  0  0  0  0  0  0  0
   59.3630   31.0670   48.4770 H   0  0  0  0  0  0  0  0  0  0  0  0
   58.8270   29.5010   48.3310 H   0  0  0  0  0  0  0  0  0  0  0  0
   56.2934   31.6447   42.6675 H   0  0  0  0  0  0  0  0  0  0  0  0
   57.9610   31.9300   42.0638 H   0  0  0  0  0  0  0  0  0  0  0  0
   57.2777   30.2687   42.0638 H   0  0  0  0  0  0  0  0  0  0  0  0
   59.5014   27.6766   46.1654 H   0  0  0  0  0  0  0  0  0  0  0  0
   57.9158   27.7805   46.9262 H   0  0  0  0  0  0  0  0  0  0  0  0
   58.5591   26.6259   44.3465 H   0  0  0  0  0  0  0  0  0  0  0  0
   56.9260   26.8376   45.0206 H   0  0  0  0  0  0  0  0  0  0  0  0
   58.2220   28.3404   42.8511 H   0  0  0  0  0  0  0  0  0  0  0  0
   56.5513   28.4808   43.3937 H   0  0  0  0  0  0  0  0  0  0  0  0
   58.8379   33.7001   43.5332 H   0  0  0  0  0  0  0  0  0  0  0  0
   57.0284   33.5637   43.7666 H   0  0  0  0  0  0  0  0  0  0  0  0
   58.1314   35.5688   44.8615 H   0  0  0  0  0  0  0  0  0  0  0  0
   57.1353   34.5184   45.9282 H   0  0  0  0  0  0  0  0  0  0  0  0
   60.1726   34.3226   45.6205 H   0  0  0  0  0  0  0  0  0  0  0  0
   59.3239   35.1705   46.9607 H   0  0  0  0  0  0  0  0  0  0  0  0
   60.0580   32.7947   47.4723 H   0  0  0  0  0  0  0  0  0  0  0  0
   58.2786   33.1510   47.6891 H   0  0  0  0  0  0  0  0  0  0  0  0
  1  2  1  0
  2  3  1  0
  3  4  1  0
  4  5  1  0
  3  6  1  0
  6  7  1  0
  3  8  1  0
  8  9  1  0
  9 10  1  0
 10 11  1  0
 11 12  1  0
 12 13  2  0
 13 14  1  0
 14 15  2  0
 15 16  1  0
 15 17  1  0
 17 18  2  0
 18 19  1  0
 19 20  1  0
 20 21  1  0
 14 22  1  0
 22 23  1  0
 23 24  1  0
 24 25  1  0
 18 12  1  0
 25 13  1  0
 21 17  1  0
  1 26  1  0
  1 27  1  0
  1 28  1  0
  2 29  1  0
  2 30  1  0
  4 31  1  0
  4 32  1  0
  5 33  1  0
  5 34  1  0
  5 35  1  0
  6 36  1  0
  6 37  1  0
  7 38  1  0
  7 39  1  0
  7 40  1  0
  8 41  1  0
  8 42  1  0
  9 43  1  0
  9 44  1  0
 10 45  1  0
 10 46  1  0
 11 47  1  0
 11 48  1  0
 16 49  1  0
 16 50  1  0
 16 51  1  0
 19 52  1  0
 19 53  1  0
 20 54  1  0
 20 55  1  0
 21 56  1  0
 21 57  1  0
 22 58  1  0
 22 59  1  0
 23 60  1  0
 23 61  1  0
 24 62  1  0
 24 63  1  0
 25 64  1  0
 25 65  1  0
M  CHG  3   3   1  11   1  15   1
M  END
>  <UniqueID>  (15) 
15

>  <SMILES>  (15) 
CC[N+](CC)(CC)CCC[NH2+]c1c2c([n+](C)c3c1CCC3)CCCC2

>  <Energy>  (15) 
106.93640099118574

>  <Genealogy>  (15) 
CC[N+](CC)(CC)CCC[NH2+]c1c2c([n+](C)c3c1CCC3)CCCC2 (protonated)
CC[N+](CC)(CC)CCC[NH2+]c1c2c([n+](C)c3c1CCC3)CCCC2 (3D coordinates assigned)
CC[N+](CC)(CC)CCC[NH2+]c1c2c([n+](C)c3c1CCC3)CCCC2 (nonaromatic ring conformer: 106.93640099118574 kcal/mol)

>  <smiles>  (15) 
CC[N+](CC)(CC)CCCNc1c2c([n+](C)c3c1CCC3)CCCC2

>  <score_type>  (15) 
oracle

>  <origin>  (15) 
adg

>  <m_score__min__energy>  (15) 
-3.29

>  <m_primary>  (15) 
energy

$$$$
15:0
     RDKit          3D

 50 53  0  0  0  0  0  0  0  0999 V2000
   58.1410   26.7460   42.2370 C   0  0  0  0  0  0  0  0  0  0  0  0
   58.2470   27.1080   43.7140 C   0  0  0  0  0  0  0  0  0  0  0  0
   58.1810   28.5660   43.8780 N   0  0  0  0  0  0  0  0  0  0  0  0
   56.9600   28.9710   44.5910 C   0  0  0  0  0  0  0  0  0  0  0  0
   56.5330   30.3860   44.1720 C   0  0  0  0  0  0  0  0  0  0  0  0
   57.7310   31.3340   44.0430 C   0  0  0  0  0  0  0  0  0  0  0  0
   58.8610   30.8740   44.8550 N   0  0  0  0  0  0  0  0  0  0  0  0
   59.2640   31.5400   46.0600 C   0  0  0  0  0  0  0  0  0  0  0  0
   59.3640   32.9520   46.1340 C   0  0  0  0  0  0  0  0  0  0  0  0
   58.9730   33.7630   45.0500 C   0  0  0  0  0  0  0  0  0  0  0  0
   59.1210   35.1470   45.1040 C   0  0  0  0  0  0  0  0  0  0  0  0
   59.6570   35.7490   46.2350 C   0  0  0  0  0  0  0  0  0  0  0  0
   60.0190   34.9780   47.3400 C   0  0  0  0  0  0  0  0  0  0  0  0
   59.8490   33.5710   47.3360 C   0  0  0  0  0  0  0  0  0  0  0  0
   60.1450   32.8030   48.4530 N   0  0  0  0  0  0  0  0  0  0  0  0
   60.5500   33.4300   49.7270 C   0  0  0  0  0  0  0  0  0  0  0  0
   60.0480   31.4390   48.3510 C   0  0  0  0  0  0  0  0  0  0  0  0
   60.3970   30.5340   49.3000 N   0  0  0  0  0  0  0  0  0  0  0  0
   60.1510   29.3320   48.7490 C   0  0  0  0  0  0  0  0  0  0  0  0
   60.3800   28.0870   49.3340 C   0  0  0  0  0  0  0  0  0  0  0  0
   60.0890   26.9370   48.5800 C   0  0  0  0  0  0  0  0  0  0  0  0
   59.5780   27.0520   47.2710 C   0  0  0  0  0  0  0  0  0  0  0  0
   59.2360   25.6080   46.3370 Cl  0  0  0  0  0  0  0  0  0  0  0  0
   59.3510   28.3190   46.7020 C   0  0  0  0  0  0  0  0  0  0  0  0
   59.6560   29.4500   47.4670 C   0  0  0  0  0  0  0  0  0  0  0  0
   59.5990   30.8120   47.2040 C   0  0  0  0  0  0  0  0  0  0  0  0
   57.8331   25.6946   42.1384 H   0  0  0  0  0  0  0  0  0  0  0  0
   57.3947   27.3935   41.7534 H   0  0  0  0  0  0  0  0  0  0  0  0
   59.1186   26.8887   41.7534 H   0  0  0  0  0  0  0  0  0  0  0  0
   57.4168   26.6412   44.2643 H   0  0  0  0  0  0  0  0  0  0  0  0
   59.2068   26.7426   44.1081 H   0  0  0  0  0  0  0  0  0  0  0  0
   58.1430   28.9910   42.9210 H   0  0  0  0  0  0  0  0  0  0  0  0
   56.1514   28.2642   44.3533 H   0  0  0  0  0  0  0  0  0  0  0  0
   57.1631   28.9675   45.6721 H   0  0  0  0  0  0  0  0  0  0  0  0
   56.0194   30.3288   43.2009 H   0  0  0  0  0  0  0  0  0  0  0  0
   55.8674   30.7845   44.9519 H   0  0  0  0  0  0  0  0  0  0  0  0
   58.0414   31.3784   42.9886 H   0  0  0  0  0  0  0  0  0  0  0  0
   57.4277   32.3291   44.4004 H   0  0  0  0  0  0  0  0  0  0  0  0
   59.4380   30.0770   44.5040 H   0  0  0  0  0  0  0  0  0  0  0  0
   58.5455   33.2973   44.1498 H   0  0  0  0  0  0  0  0  0  0  0  0
   58.8123   35.7652   44.2481 H   0  0  0  0  0  0  0  0  0  0  0  0
   59.7969   36.8398   46.2597 H   0  0  0  0  0  0  0  0  0  0  0  0
   60.4429   35.4697   48.2280 H   0  0  0  0  0  0  0  0  0  0  0  0
   60.1651   32.8340   50.5676 H   0  0  0  0  0  0  0  0  0  0  0  0
   61.6478   33.4742   49.7812 H   0  0  0  0  0  0  0  0  0  0  0  0
   60.1389   34.4488   49.7812 H   0  0  0  0  0  0  0  0  0  0  0  0
   60.8140   30.6920   50.2430 H   0  0  0  0  0  0  0  0  0  0  0  0
   60.7772   28.0072   50.3567 H   0  0  0  0  0  0  0  0  0  0  0  0
   60.2610   25.9410   49.0140 H   0  0  0  0  0  0  0  0  0  0  0  0
   58.9452   28.4173   45.6843 H   0  0  0  0  0  0  0  0  0  0  0  0
  1  2  1  0
  2  3  1  0
  3  4  1  0
  4  5  1  0
  5  6  1  0
  6  7  1  0
  7  8  1  0
  8  9  2  0
  9 10  1  0
 10 11  2  0
 11 12  1  0
 12 13  2  0
 13 14  1  0
 14 15  2  0
 15 16  1  0
 15 17  1  0
 17 18  1  0
 18 19  1  0
 19 20  2  0
 20 21  1  0
 21 22  2  0
 22 23  1  0
 22 24  1  0
 24 25  2  0
 25 26  1  0
 26  8  1  0
 14  9  1  0
 26 17  2  0
 25 19  1  0
  1 27  1  0
  1 28  1  0
  1 29  1  0
  2 30  1  0
  2 31  1  0
  3 32  1  0
  4 33  1  0
  4 34  1  0
  5 35  1  0
  5 36  1  0
  6 37  1  0
  6 38  1  0
  7 39  1  0
 10 40  1  0
 11 41  1  0
 12 42  1  0
 13 43  1  0
 16 44  1  0
 16 45  1  0
 16 46  1  0
 18 47  1  0
 20 48  1  0
 21 49  1  0
 24 50  1  0
M  CHG  1  15   1
M  END
>  <UniqueID>  (16) 
16

>  <SMILES>  (16) 
CCNCCCNc1c2ccccc2[n+](C)c2[nH]c3ccc(Cl)cc3c12

>  <Energy>  (16) 
103.41958726701199

>  <Genealogy>  (16) 
CCNCCCNc1c2ccccc2[n+](C)c2[nH]c3ccc(Cl)cc3c12 (3D coordinates assigned)
CCNCCCNc1c2ccccc2[n+](C)c2[nH]c3ccc(Cl)cc3c12 (optimized conformer: 103.41958726701199 kcal/mol)

>  <smiles>  (16) 
CCNCCCNc1c2ccccc2[n+](C)c2[nH]c3ccc(Cl)cc3c12

>  <score_type>  (16) 
oracle

>  <origin>  (16) 
adg

>  <m_score__min__energy>  (16) 
-6.2999999999999998

>  <m_primary>  (16) 
energy

$$$$
