0:0
     RDKit          3D

 54 57  0  0  0  0  0  0  0  0999 V2000
   62.3100   29.4386   51.7004 H   0  0  0  0  0  0  0  0  0  0  0  0
   61.7610   29.6320   50.7670 C   0  0  0  0  0  0  0  0  0  0  0  0
   60.7300   28.5530   49.9840 S   0  0  0  0  0  0  0  0  0  0  0  0
   60.3420   29.6430   48.7680 C   0  0  0  0  0  0  0  0  0  0  0  0
   59.5700   29.3020   47.6120 N   0  0  0  0  0  0  0  0  0  0  0  0
   58.7970   30.1020   46.9340 C   0  0  0  0  0  0  0  0  0  0  0  0
   58.5370   31.4430   47.1480 C   0  0  0  0  0  0  0  0  0  0  0  0
   58.9390   32.1670   48.0990 O   0  0  0  0  0  0  0  0  0  0  0  0
   57.7020   31.8520   46.1750 N   0  0  0  0  0  0  0  0  0  0  0  0
   57.0980   33.1700   46.0180 C   0  0  0  0  0  0  0  0  0  0  0  0
   56.5750   33.4438   46.9462 H   0  0  0  0  0  0  0  0  0  0  0  0
   56.3843   33.1424   45.1814 H   0  0  0  0  0  0  0  0  0  0  0  0
   58.1600   34.1910   45.7260 C   0  0  0  0  0  0  0  0  0  0  0  0
   58.0030   34.9640   44.7450 O   0  0  0  0  0  0  0  0  0  0  0  0
   59.3770   34.2740   46.4810 N   0  0  0  0  0  0  0  0  0  0  0  0
   60.7110   33.9200   46.0010 C   0  0  0  0  0  0  0  0  0  0  0  0
   61.0597   34.6953   45.3030 H   0  0  0  0  0  0  0  0  0  0  0  0
   60.6546   32.9444   45.4960 H   0  0  0  0  0  0  0  0  0  0  0  0
   61.6840   33.8130   47.1440 C   0  0  0  0  0  0  0  0  0  0  0  0
   61.3100   34.2110   48.4380 C   0  0  0  0  0  0  0  0  0  0  0  0
   60.3004   34.6097   48.6164 H   0  0  0  0  0  0  0  0  0  0  0  0
   62.2120   34.1040   49.5010 C   0  0  0  0  0  0  0  0  0  0  0  0
   61.9114   34.4247   50.5094 H   0  0  0  0  0  0  0  0  0  0  0  0
   63.5040   33.5870   49.2850 C   0  0  0  0  0  0  0  0  0  0  0  0
   64.4470   33.4670   50.3160 O   0  0  0  0  0  0  0  0  0  0  0  0
   65.6720   32.7490   50.2050 C   0  0  0  0  0  0  0  0  0  0  0  0
   66.0571   32.5233   51.2104 H   0  0  0  0  0  0  0  0  0  0  0  0
   65.4983   31.8097   49.6595 H   0  0  0  0  0  0  0  0  0  0  0  0
   66.4067   33.3594   49.6595 H   0  0  0  0  0  0  0  0  0  0  0  0
   63.8680   33.1730   47.9980 C   0  0  0  0  0  0  0  0  0  0  0  0
   64.8728   32.7619   47.8208 H   0  0  0  0  0  0  0  0  0  0  0  0
   62.9650   33.2780   46.9370 C   0  0  0  0  0  0  0  0  0  0  0  0
   63.2599   32.9392   45.9329 H   0  0  0  0  0  0  0  0  0  0  0  0
   57.4290   30.8060   45.4070 N   0  0  0  0  0  0  0  0  0  0  0  0
   58.0720   29.7320   45.8500 N   0  0  0  0  0  0  0  0  0  0  0  0
   57.9790   28.4360   45.2270 C   0  0  0  0  0  0  0  0  0  0  0  0
   57.5610   27.3050   45.9490 C   0  0  0  0  0  0  0  0  0  0  0  0
   57.3134   27.3989   47.0167 H   0  0  0  0  0  0  0  0  0  0  0  0
   57.4580   26.0620   45.3190 C   0  0  0  0  0  0  0  0  0  0  0  0
   57.1370   25.1832   45.8976 H   0  0  0  0  0  0  0  0  0  0  0  0
   57.7590   25.9240   43.9600 C   0  0  0  0  0  0  0  0  0  0  0  0
   57.6400   24.6540   43.3760 O   0  0  0  0  0  0  0  0  0  0  0  0
   56.4740   23.8400   43.4540 C   0  0  0  0  0  0  0  0  0  0  0  0
   56.2204   23.6629   44.5096 H   0  0  0  0  0  0  0  0  0  0  0  0
   55.6364   24.3506   42.9563 H   0  0  0  0  0  0  0  0  0  0  0  0
   56.6646   22.8777   42.9563 H   0  0  0  0  0  0  0  0  0  0  0  0
   58.1610   27.0580   43.2290 C   0  0  0  0  0  0  0  0  0  0  0  0
   58.3957   26.9650   42.1584 H   0  0  0  0  0  0  0  0  0  0  0  0
   58.2630   28.3020   43.8590 C   0  0  0  0  0  0  0  0  0  0  0  0
   58.5687   29.1840   43.2771 H   0  0  0  0  0  0  0  0  0  0  0  0
   61.0240   30.8010   48.9110 N   0  0  0  0  0  0  0  0  0  0  0  0
   61.0070   31.5850   48.2210 H   0  0  0  0  0  0  0  0  0  0  0  0
   61.7970   30.8090   50.0280 C   0  0  0  0  0  0  0  0  0  0  0  0
   62.4033   31.6777   50.3242 H   0  0  0  0  0  0  0  0  0  0  0  0
  1  2  1  0
  2  3  1  0
  3  4  1  0
  4  5  1  0
  5  6  2  0
  6  7  1  0
  7  8  2  0
  7  9  1  0
  9 10  1  0
 10 11  1  0
 10 12  1  0
 10 13  1  0
 13 14  2  0
 13 15  1  0
 15 16  1  0
 16 17  1  0
 16 18  1  0
 16 19  1  0
 19 20  2  0
 20 21  1  0
 20 22  1  0
 22 23  1  0
 22 24  2  0
 24 25  1  0
 25 26  1  0
 26 27  1  0
 26 28  1  0
 26 29  1  0
 24 30  1  0
 30 31  1  0
 30 32  2  0
 32 33  1  0
  9 34  1  0
 34 35  1  0
 35 36  1  0
 36 37  2  0
 37 38  1  0
 37 39  1  0
 39 40  1  0
 39 41  2  0
 41 42  1  0
 42 43  1  0
 43 44  1  0
 43 45  1  0
 43 46  1  0
 41 47  1  0
 47 48  1  0
 47 49  2  0
 49 50  1  0
  4 51  2  0
 51 52  1  0
 51 53  1  0
 53 54  1  0
 53  2  2  0
 35  6  1  0
 49 36  1  0
 32 19  1  0
M  CHG  3  15  -1  34  -1  51   1
M  END
>  <UniqueID>  (1) 
1

>  <SMILES>  (1) 
COc1ccc(C[N-]C(=O)Cn2[n-]n(-c3ccc(OC)cc3)/c(=N/c3[nH+]ccs3)c2=O)cc1

>  <Energy>  (1) 
135.73953029762194

>  <Genealogy>  (1) 
COc1ccc(C[N-]C(=O)Cn2[n-]n(-c3ccc(OC)cc3)c(=Nc3[nH+]ccs3)c2=O)cc1 (protonated)
COc1ccc(C[N-]C(=O)Cn2[n-]n(-c3ccc(OC)cc3)/c(=N/c3[nH+]ccs3)c2=O)cc1 (cis-trans isomerization)
COc1ccc(C[N-]C(=O)Cn2[n-]n(-c3ccc(OC)cc3)/c(=N/c3[nH+]ccs3)c2=O)cc1 (3D coordinates assigned)
COc1ccc(C[N-]C(=O)Cn2[n-]n(-c3ccc(OC)cc3)/c(=N/c3[nH+]ccs3)c2=O)cc1 (optimized conformer: 135.73953029762194 kcal/mol)

>  <smiles>  (1) 
COc1ccc(CNC(=O)Cn2[nH]n(-c3ccc(OC)cc3)c(=Nc3nccs3)c2=O)cc1

>  <score_type>  (1) 
oracle

>  <origin>  (1) 
adg

>  <m_score__min__energy>  (1) 
-9.1899999999999995

>  <m_primary>  (1) 
energy

$$$$
1:0
     RDKit          3D

 55 57  0  0  0  0  0  0  0  0999 V2000
   58.1350   25.7660   47.6820 C   0  0  0  0  0  0  0  0  0  0  0  0
   57.9660   26.9120   46.7700 N   0  0  0  0  0  0  0  0  0  0  0  0
   56.8310   27.0480   46.0000 C   0  0  0  0  0  0  0  0  0  0  0  0
   55.8310   26.0640   45.9510 O   0  0  0  0  0  0  0  0  0  0  0  0
   55.9410   24.8220   45.3040 C   0  0  0  0  0  0  0  0  0  0  0  0
   55.2080   23.7500   45.8300 C   0  0  0  0  0  0  0  0  0  0  0  0
   55.3180   22.4720   45.2770 C   0  0  0  0  0  0  0  0  0  0  0  0
   56.1510   22.2540   44.1770 C   0  0  0  0  0  0  0  0  0  0  0  0
   56.8630   23.3180   43.6190 C   0  0  0  0  0  0  0  0  0  0  0  0
   56.7520   24.6130   44.1570 C   0  0  0  0  0  0  0  0  0  0  0  0
   57.4070   25.6980   43.4890 N   0  0  0  0  0  0  0  0  0  0  0  0
   56.6430   28.1720   45.2640 N   0  0  0  0  0  0  0  0  0  0  0  0
   57.5720   29.1560   45.2130 C   0  0  0  0  0  0  0  0  0  0  0  0
   58.7700   29.0230   45.9170 C   0  0  0  0  0  0  0  0  0  0  0  0
   59.8210   30.1120   45.8270 C   0  0  0  0  0  0  0  0  0  0  0  0
   60.3040   30.5340   47.1680 N   0  0  1  0  0  0  0  0  0  0  0  0
   61.7310   30.9650   47.1150 C   0  0  0  0  0  0  0  0  0  0  0  0
   62.1940   31.8120   48.3250 C   0  0  0  0  0  0  0  0  0  0  0  0
   62.9990   33.0370   47.8820 C   0  0  0  0  0  0  0  0  0  0  0  0
   63.0370   33.1160   46.5000 F   0  0  0  0  0  0  0  0  0  0  0  0
   64.2930   32.9640   48.3740 F   0  0  0  0  0  0  0  0  0  0  0  0
   62.3980   34.1820   48.3770 F   0  0  0  0  0  0  0  0  0  0  0  0
   59.3980   31.5520   47.7670 C   0  0  0  0  0  0  0  0  0  0  0  0
   58.9900   32.6260   46.7830 C   0  0  0  0  0  0  0  0  0  0  0  0
   59.8470   33.7150   46.5220 C   0  0  0  0  0  0  0  0  0  0  0  0
   59.4840   34.6870   45.5840 C   0  0  0  0  0  0  0  0  0  0  0  0
   58.2590   34.5900   44.9140 C   0  0  0  0  0  0  0  0  0  0  0  0
   57.3910   33.5240   45.1850 C   0  0  0  0  0  0  0  0  0  0  0  0
   57.7540   32.5440   46.1130 C   0  0  0  0  0  0  0  0  0  0  0  0
   58.9530   27.8660   46.6970 C   0  0  0  0  0  0  0  0  0  0  0  0
   60.0330   27.7140   47.3340 O   0  0  0  0  0  0  0  0  0  0  0  0
   58.0834   26.1157   48.7237 H   0  0  0  0  0  0  0  0  0  0  0  0
   57.3353   25.0326   47.5014 H   0  0  0  0  0  0  0  0  0  0  0  0
   59.1124   25.2947   47.5014 H   0  0  0  0  0  0  0  0  0  0  0  0
   54.5391   23.9165   46.6872 H   0  0  0  0  0  0  0  0  0  0  0  0
   54.7478   21.6360   45.7083 H   0  0  0  0  0  0  0  0  0  0  0  0
   56.2461   21.2445   43.7504 H   0  0  0  0  0  0  0  0  0  0  0  0
   57.5161   23.1419   42.7515 H   0  0  0  0  0  0  0  0  0  0  0  0
   58.0130   25.5170   42.6580 H   0  0  0  0  0  0  0  0  0  0  0  0
   57.1710   26.6920   43.7030 H   0  0  0  0  0  0  0  0  0  0  0  0
   57.3824   30.0606   44.6165 H   0  0  0  0  0  0  0  0  0  0  0  0
   60.6746   29.7341   45.2451 H   0  0  0  0  0  0  0  0  0  0  0  0
   59.3629   30.9861   45.3410 H   0  0  0  0  0  0  0  0  0  0  0  0
   60.2830   29.6870   47.7880 H   0  0  0  0  0  0  0  0  0  0  0  0
   62.3599   30.0638   47.0663 H   0  0  0  0  0  0  0  0  0  0  0  0
   61.8294   31.6085   46.2283 H   0  0  0  0  0  0  0  0  0  0  0  0
   61.3087   32.1498   48.8837 H   0  0  0  0  0  0  0  0  0  0  0  0
   62.8415   31.1851   48.9556 H   0  0  0  0  0  0  0  0  0  0  0  0
   58.4916   31.0454   48.1300 H   0  0  0  0  0  0  0  0  0  0  0  0
   59.9465   32.0431   48.5843 H   0  0  0  0  0  0  0  0  0  0  0  0
   60.8039   33.8003   47.0577 H   0  0  0  0  0  0  0  0  0  0  0  0
   60.1613   35.5277   45.3729 H   0  0  0  0  0  0  0  0  0  0  0  0
   57.9770   35.3524   44.1729 H   0  0  0  0  0  0  0  0  0  0  0  0
   56.4229   33.4584   44.6669 H   0  0  0  0  0  0  0  0  0  0  0  0
   57.0722   31.7061   46.3207 H   0  0  0  0  0  0  0  0  0  0  0  0
  1  2  1  0
  2  3  1  0
  3  4  1  0
  4  5  1  0
  5  6  2  0
  6  7  1  0
  7  8  2  0
  8  9  1  0
  9 10  2  0
 10 11  1  0
  3 12  2  0
 12 13  1  0
 13 14  2  0
 14 15  1  0
 15 16  1  0
 16 17  1  0
 17 18  1  0
 18 19  1  0
 19 20  1  0
 19 21  1  0
 19 22  1  0
 16 23  1  0
 23 24  1  0
 24 25  2  0
 25 26  1  0
 26 27  2  0
 27 28  1  0
 28 29  2  0
 14 30  1  0
 30 31  2  0
 30  2  1  0
 10  5  1  0
 29 24  1  0
  1 32  1  0
  1 33  1  0
  1 34  1  0
  6 35  1  0
  7 36  1  0
  8 37  1  0
  9 38  1  0
 11 39  1  0
 11 40  1  0
 13 41  1  0
 15 42  1  0
 15 43  1  0
 16 44  1  1
 17 45  1  0
 17 46  1  0
 18 47  1  0
 18 48  1  0
 23 49  1  0
 23 50  1  0
 25 51  1  0
 26 52  1  0
 27 53  1  0
 28 54  1  0
 29 55  1  0
M  CHG  1  16   1
M  END
>  <UniqueID>  (2) 
2

>  <SMILES>  (2) 
Cn1c(Oc2ccccc2N)ncc(C[N@@H+](CCC(F)(F)F)Cc2ccccc2)c1=O

>  <Energy>  (2) 
75.67845313034708

>  <Genealogy>  (2) 
Cn1c(Oc2ccccc2N)ncc(C[NH+](CCC(F)(F)F)Cc2ccccc2)c1=O (protonated)
Cn1c(Oc2ccccc2N)ncc(C[N@@H+](CCC(F)(F)F)Cc2ccccc2)c1=O (chirality)
Cn1c(Oc2ccccc2N)ncc(C[N@@H+](CCC(F)(F)F)Cc2ccccc2)c1=O (3D coordinates assigned)
Cn1c(Oc2ccccc2N)ncc(C[N@@H+](CCC(F)(F)F)Cc2ccccc2)c1=O (optimized conformer: 75.67845313034708 kcal/mol)

>  <smiles>  (2) 
Cn1c(Oc2ccccc2N)ncc(CN(CCC(F)(F)F)Cc2ccccc2)c1=O

>  <score_type>  (2) 
oracle

>  <origin>  (2) 
adg

>  <m_score__min__energy>  (2) 
-6.4900000000000002

>  <m_primary>  (2) 
energy

$$$$
2:0
     RDKit          3D

 52 54  0  0  0  0  0  0  0  0999 V2000
   56.5130   30.4020   43.4710 C   0  0  0  0  0  0  0  0  0  0  0  0
   57.8830   30.8170   43.8260 N   0  0  2  0  0  0  0  0  0  0  0  0
   58.1940   30.5420   45.2540 C   0  0  0  0  0  0  0  0  0  0  0  0
   58.5890   29.0970   45.4880 C   0  0  0  0  0  0  0  0  0  0  0  0
   59.9480   28.7770   45.6530 C   0  0  0  0  0  0  0  0  0  0  0  0
   60.3430   27.4560   45.8820 C   0  0  0  0  0  0  0  0  0  0  0  0
   59.3850   26.4430   45.9560 C   0  0  0  0  0  0  0  0  0  0  0  0
   58.0310   26.7510   45.8060 C   0  0  0  0  0  0  0  0  0  0  0  0
   57.6290   28.0710   45.5780 C   0  0  0  0  0  0  0  0  0  0  0  0
   56.3080   28.3360   45.4420 F   0  0  0  0  0  0  0  0  0  0  0  0
   58.2700   32.1740   43.3260 C   0  0  0  0  0  0  0  0  0  0  0  0
   58.1350   33.4570   44.2300 C   0  0  0  0  0  0  0  0  0  0  0  0
   57.0150   33.5030   45.2970 C   0  0  0  0  0  0  0  0  0  0  0  0
   57.5760   33.2410   46.6980 C   0  0  0  0  0  0  0  0  0  0  0  0
   58.5700   34.2690   47.0880 N   0  0  0  0  0  0  0  0  0  0  0  0
   59.4140   33.8840   48.2430 C   0  0  0  0  0  0  0  0  0  0  0  0
   60.6970   33.1760   47.8570 C   0  0  0  0  0  0  0  0  0  0  0  0
   60.6800   31.8110   47.5150 C   0  0  0  0  0  0  0  0  0  0  0  0
   61.8590   31.1600   47.1420 C   0  0  0  0  0  0  0  0  0  0  0  0
   63.0680   31.8590   47.1190 C   0  0  0  0  0  0  0  0  0  0  0  0
   63.1030   33.2060   47.4850 C   0  0  0  0  0  0  0  0  0  0  0  0
   61.9260   33.8610   47.8630 C   0  0  0  0  0  0  0  0  0  0  0  0
   59.2950   34.9300   45.9750 C   0  0  0  0  0  0  0  0  0  0  0  0
   59.4860   34.0060   44.7630 C   0  0  0  0  0  0  0  0  0  0  0  0
   55.9335   30.2265   44.3893 H   0  0  0  0  0  0  0  0  0  0  0  0
   56.0315   31.1946   42.8794 H   0  0  0  0  0  0  0  0  0  0  0  0
   56.5522   29.4754   42.8794 H   0  0  0  0  0  0  0  0  0  0  0  0
   58.4800   30.1680   43.2550 H   0  0  0  0  0  0  0  0  0  0  0  0
   59.0252   31.1912   45.5666 H   0  0  0  0  0  0  0  0  0  0  0  0
   57.2857   30.7423   45.8413 H   0  0  0  0  0  0  0  0  0  0  0  0
   60.7062   29.5723   45.6015 H   0  0  0  0  0  0  0  0  0  0  0  0
   61.4092   27.2143   46.0040 H   0  0  0  0  0  0  0  0  0  0  0  0
   59.6965   25.4029   46.1324 H   0  0  0  0  0  0  0  0  0  0  0  0
   57.2775   25.9519   45.8675 H   0  0  0  0  0  0  0  0  0  0  0  0
   59.3298   32.1076   43.0388 H   0  0  0  0  0  0  0  0  0  0  0  0
   57.5201   32.3585   42.5427 H   0  0  0  0  0  0  0  0  0  0  0  0
   57.7545   34.1637   43.4778 H   0  0  0  0  0  0  0  0  0  0  0  0
   56.5427   34.4963   45.2793 H   0  0  0  0  0  0  0  0  0  0  0  0
   56.2784   32.7200   45.0639 H   0  0  0  0  0  0  0  0  0  0  0  0
   56.7480   33.2521   47.4221 H   0  0  0  0  0  0  0  0  0  0  0  0
   58.0778   32.2621   46.6905 H   0  0  0  0  0  0  0  0  0  0  0  0
   59.6756   34.7958   48.8000 H   0  0  0  0  0  0  0  0  0  0  0  0
   58.8269   33.1751   48.8453 H   0  0  0  0  0  0  0  0  0  0  0  0
   59.7325   31.2528   47.5414 H   0  0  0  0  0  0  0  0  0  0  0  0
   61.8348   30.0954   46.8661 H   0  0  0  0  0  0  0  0  0  0  0  0
   63.9928   31.3482   46.8125 H   0  0  0  0  0  0  0  0  0  0  0  0
   64.0573   33.7529   47.4761 H   0  0  0  0  0  0  0  0  0  0  0  0
   61.9616   34.9177   48.1667 H   0  0  0  0  0  0  0  0  0  0  0  0
   58.7224   35.8139   45.6573 H   0  0  0  0  0  0  0  0  0  0  0  0
   60.2938   35.2049   46.3449 H   0  0  0  0  0  0  0  0  0  0  0  0
   59.9808   34.5718   43.9599 H   0  0  0  0  0  0  0  0  0  0  0  0
   60.0979   33.1495   45.0824 H   0  0  0  0  0  0  0  0  0  0  0  0
  1  2  1  0
  2  3  1  0
  3  4  1  0
  4  5  2  0
  5  6  1  0
  6  7  2  0
  7  8  1  0
  8  9  2  0
  9 10  1  0
  2 11  1  0
 11 12  1  0
 12 13  1  0
 13 14  1  0
 14 15  1  0
 15 16  1  0
 16 17  1  0
 17 18  2  0
 18 19  1  0
 19 20  2  0
 20 21  1  0
 21 22  2  0
 15 23  1  0
 23 24  1  0
  9  4  1  0
 24 12  1  0
 22 17  1  0
  1 25  1  0
  1 26  1  0
  1 27  1  0
  2 28  1  6
  3 29  1  0
  3 30  1  0
  5 31  1  0
  6 32  1  0
  7 33  1  0
  8 34  1  0
 11 35  1  0
 11 36  1  0
 12 37  1  0
 13 38  1  0
 13 39  1  0
 14 40  1  0
 14 41  1  0
 16 42  1  0
 16 43  1  0
 18 44  1  0
 19 45  1  0
 20 46  1  0
 21 47  1  0
 22 48  1  0
 23 49  1  0
 23 50  1  0
 24 51  1  0
 24 52  1  0
M  CHG  1   2   1
M  END
>  <UniqueID>  (3) 
3

>  <SMILES>  (3) 
C[N@H+](Cc1ccccc1F)CC1CCN(Cc2ccccc2)CC1

>  <Energy>  (3) 
84.20193603926451

>  <Genealogy>  (3) 
C[NH+](Cc1ccccc1F)CC1CCN(Cc2ccccc2)CC1 (protonated)
C[N@H+](Cc1ccccc1F)CC1CCN(Cc2ccccc2)CC1 (chirality)
C[N@H+](Cc1ccccc1F)CC1CCN(Cc2ccccc2)CC1 (3D coordinates assigned)
C[N@H+](Cc1ccccc1F)CC1CCN(Cc2ccccc2)CC1 (nonaromatic ring conformer: 84.20193603926451 kcal/mol)

>  <smiles>  (3) 
CN(Cc1ccccc1F)CC1CCN(Cc2ccccc2)CC1

>  <score_type>  (3) 
oracle

>  <origin>  (3) 
adg

>  <m_score__min__energy>  (3) 
-6.9000000000000004

>  <m_primary>  (3) 
energy

$$$$
3:0
     RDKit          3D

 39 41  0  0  0  0  0  0  0  0999 V2000
   59.3790   33.1060   51.3100 C   0  0  0  0  0  0  0  0  0  0  0  0
   59.3720   34.0960   50.2870 O   0  0  0  0  0  0  0  0  0  0  0  0
   59.8590   33.9130   48.9830 C   0  0  0  0  0  0  0  0  0  0  0  0
   58.9920   33.9790   47.8720 C   0  0  0  0  0  0  0  0  0  0  0  0
   59.4750   33.8040   46.5700 C   0  0  0  0  0  0  0  0  0  0  0  0
   58.5300   33.8270   45.4000 C   0  0  0  0  0  0  0  0  0  0  0  0
   57.9860   32.4570   45.1630 C   0  0  0  0  0  0  0  0  0  0  0  0
   58.6920   31.3220   45.3090 N   0  0  0  0  0  0  0  0  0  0  0  0
   57.7800   30.3700   45.0320 C   0  0  0  0  0  0  0  0  0  0  0  0
   58.0560   28.9180   45.0120 C   0  0  0  0  0  0  0  0  0  0  0  0
   57.7670   28.1910   43.8450 C   0  0  0  0  0  0  0  0  0  0  0  0
   58.0300   26.8220   43.7760 C   0  0  0  0  0  0  0  0  0  0  0  0
   58.5710   26.1570   44.8780 C   0  0  0  0  0  0  0  0  0  0  0  0
   58.8420   26.8610   46.0530 C   0  0  0  0  0  0  0  0  0  0  0  0
   58.5830   28.2360   46.1340 C   0  0  0  0  0  0  0  0  0  0  0  0
   58.8490   29.0300   47.6830 Cl  0  0  0  0  0  0  0  0  0  0  0  0
   56.5840   30.9070   44.7170 N   0  0  0  0  0  0  0  0  0  0  0  0
   56.7480   32.1940   44.8180 O   0  0  0  0  0  0  0  0  0  0  0  0
   60.8330   33.5360   46.3710 C   0  0  0  0  0  0  0  0  0  0  0  0
   61.7060   33.4650   47.4570 C   0  0  0  0  0  0  0  0  0  0  0  0
   63.5560   33.0950   47.1260 Br  0  0  0  0  0  0  0  0  0  0  0  0
   61.2390   33.6530   48.7690 C   0  0  0  0  0  0  0  0  0  0  0  0
   62.1890   33.5690   49.8050 O   0  0  0  0  0  0  0  0  0  0  0  0
   63.0100   34.6240   50.2920 C   0  0  0  0  0  0  0  0  0  0  0  0
   59.3755   33.5962   52.2947 H   0  0  0  0  0  0  0  0  0  0  0  0
   58.4853   32.4720   51.2129 H   0  0  0  0  0  0  0  0  0  0  0  0
   60.2816   32.4847   51.2129 H   0  0  0  0  0  0  0  0  0  0  0  0
   57.9206   34.1708   48.0313 H   0  0  0  0  0  0  0  0  0  0  0  0
   57.7007   34.5174   45.6138 H   0  0  0  0  0  0  0  0  0  0  0  0
   59.0703   34.1637   44.5030 H   0  0  0  0  0  0  0  0  0  0  0  0
   59.7040   31.2210   45.5400 H   0  0  0  0  0  0  0  0  0  0  0  0
   57.3291   28.7058   42.9771 H   0  0  0  0  0  0  0  0  0  0  0  0
   57.8108   26.2664   42.8523 H   0  0  0  0  0  0  0  0  0  0  0  0
   58.7836   25.0793   44.8206 H   0  0  0  0  0  0  0  0  0  0  0  0
   59.2619   26.3325   46.9215 H   0  0  0  0  0  0  0  0  0  0  0  0
   61.2155   33.3801   45.3515 H   0  0  0  0  0  0  0  0  0  0  0  0
   63.0036   34.6157   51.3919 H   0  0  0  0  0  0  0  0  0  0  0  0
   64.0394   34.4844   49.9303 H   0  0  0  0  0  0  0  0  0  0  0  0
   62.6218   35.5876   49.9303 H   0  0  0  0  0  0  0  0  0  0  0  0
  1  2  1  0
  2  3  1  0
  3  4  2  0
  4  5  1  0
  5  6  1  0
  6  7  1  0
  7  8  2  0
  8  9  1  0
  9 10  1  0
 10 11  2  0
 11 12  1  0
 12 13  2  0
 13 14  1  0
 14 15  2  0
 15 16  1  0
  9 17  2  0
 17 18  1  0
  5 19  2  0
 19 20  1  0
 20 21  1  0
 20 22  2  0
 22 23  1  0
 23 24  1  0
 22  3  1  0
 18  7  1  0
 15 10  1  0
  1 25  1  0
  1 26  1  0
  1 27  1  0
  4 28  1  0
  6 29  1  0
  6 30  1  0
  8 31  1  0
 11 32  1  0
 12 33  1  0
 13 34  1  0
 14 35  1  0
 19 36  1  0
 24 37  1  0
 24 38  1  0
 24 39  1  0
M  CHG  1   8   1
M  END
>  <UniqueID>  (4) 
4

>  <SMILES>  (4) 
COc1cc(Cc2[nH+]c(-c3ccccc3Cl)no2)cc(Br)c1OC

>  <Energy>  (4) 
81.38598120978638

>  <Genealogy>  (4) 
COc1cc(Cc2[nH+]c(-c3ccccc3Cl)no2)cc(Br)c1OC (protonated)
COc1cc(Cc2[nH+]c(-c3ccccc3Cl)no2)cc(Br)c1OC (3D coordinates assigned)
COc1cc(Cc2[nH+]c(-c3ccccc3Cl)no2)cc(Br)c1OC (optimized conformer: 81.38598120978638 kcal/mol)

>  <smiles>  (4) 
COc1cc(Cc2nc(-c3ccccc3Cl)no2)cc(Br)c1OC

>  <score_type>  (4) 
oracle

>  <origin>  (4) 
adg

>  <m_score__min__energy>  (4) 
-6.9699999999999998

>  <m_primary>  (4) 
energy

$$$$
4:0
     RDKit          3D

 39 40  0  0  0  0  0  0  0  0999 V2000
   57.2411   27.0471   43.9395 H   0  0  0  0  0  0  0  0  0  0  0  0
   57.7280   27.8560   44.5040 C   0  0  0  0  0  0  0  0  0  0  0  0
   57.0560   29.1730   44.5150 C   0  0  0  0  0  0  0  0  0  0  0  0
   55.9650   29.3330   45.1260 O   0  0  0  0  0  0  0  0  0  0  0  0
   57.6240   30.2580   43.7690 N   0  0  0  0  0  0  0  0  0  0  0  0
   58.4680   30.0830   43.1780 H   0  0  0  0  0  0  0  0  0  0  0  0
   57.0550   31.6050   43.7820 C   0  0  0  0  0  0  0  0  0  0  0  0
   56.5703   31.7805   44.7537 H   0  0  0  0  0  0  0  0  0  0  0  0
   56.3233   31.6822   42.9643 H   0  0  0  0  0  0  0  0  0  0  0  0
   58.1400   32.6670   43.5650 C   0  0  0  0  0  0  0  0  0  0  0  0
   57.7326   33.4721   42.9359 H   0  0  0  0  0  0  0  0  0  0  0  0
   59.0012   32.1886   43.0755 H   0  0  0  0  0  0  0  0  0  0  0  0
   58.6020   33.2530   44.8740 C   0  0  0  0  0  0  0  0  0  0  0  0
   59.2350   34.5070   44.9050 C   0  0  0  0  0  0  0  0  0  0  0  0
   59.4256   35.0480   43.9664 H   0  0  0  0  0  0  0  0  0  0  0  0
   59.6230   35.0690   46.1230 C   0  0  0  0  0  0  0  0  0  0  0  0
   60.1193   36.0505   46.1405 H   0  0  0  0  0  0  0  0  0  0  0  0
   59.3830   34.3890   47.3190 C   0  0  0  0  0  0  0  0  0  0  0  0
   59.6839   34.8399   48.2762 H   0  0  0  0  0  0  0  0  0  0  0  0
   58.7590   33.1320   47.3030 C   0  0  0  0  0  0  0  0  0  0  0  0
   58.4590   32.4220   48.5900 C   0  0  0  0  0  0  0  0  0  0  0  0
   58.7320   33.0680   49.4374 H   0  0  0  0  0  0  0  0  0  0  0  0
   57.3852   32.1882   48.6381 H   0  0  0  0  0  0  0  0  0  0  0  0
   59.0398   31.4891   48.6381 H   0  0  0  0  0  0  0  0  0  0  0  0
   58.3530   32.5780   46.0790 C   0  0  0  0  0  0  0  0  0  0  0  0
   57.8357   31.6073   46.0641 H   0  0  0  0  0  0  0  0  0  0  0  0
   58.8810   27.5640   45.1240 C   0  0  0  0  0  0  0  0  0  0  0  0
   59.3851   26.6296   44.8363 H   0  0  0  0  0  0  0  0  0  0  0  0
   59.5310   28.3920   46.1610 C   0  0  0  0  0  0  0  0  0  0  0  0
   60.3960   29.4270   45.7720 C   0  0  0  0  0  0  0  0  0  0  0  0
   60.6107   29.5891   44.7054 H   0  0  0  0  0  0  0  0  0  0  0  0
   60.9860   30.2530   46.7340 C   0  0  0  0  0  0  0  0  0  0  0  0
   61.6760   31.0516   46.4239 H   0  0  0  0  0  0  0  0  0  0  0  0
   60.7000   30.0650   48.0880 C   0  0  0  0  0  0  0  0  0  0  0  0
   61.1709   30.7108   48.8438 H   0  0  0  0  0  0  0  0  0  0  0  0
   59.8160   29.0570   48.4840 C   0  0  0  0  0  0  0  0  0  0  0  0
   59.5867   28.9141   49.5503 H   0  0  0  0  0  0  0  0  0  0  0  0
   59.2230   28.2300   47.5240 C   0  0  0  0  0  0  0  0  0  0  0  0
   58.5130   27.4499   47.8362 H   0  0  0  0  0  0  0  0  0  0  0  0
  1  2  1  0
  2  3  1  0
  3  4  2  0
  3  5  1  0
  5  6  1  0
  5  7  1  0
  7  8  1  0
  7  9  1  0
  7 10  1  0
 10 11  1  0
 10 12  1  0
 10 13  1  0
 13 14  2  0
 14 15  1  0
 14 16  1  0
 16 17  1  0
 16 18  2  0
 18 19  1  0
 18 20  1  0
 20 21  1  0
 21 22  1  0
 21 23  1  0
 21 24  1  0
 20 25  2  0
 25 26  1  0
  2 27  2  0
 27 28  1  0
 27 29  1  0
 29 30  2  0
 30 31  1  0
 30 32  1  0
 32 33  1  0
 32 34  2  0
 34 35  1  0
 34 36  1  0
 36 37  1  0
 36 38  2  0
 38 39  1  0
 25 13  1  0
 38 29  1  0
M  END
>  <UniqueID>  (5) 
5

>  <SMILES>  (5) 
Cc1cccc(CCNC(=O)/C=C\c2ccccc2)c1

>  <Energy>  (5) 
39.940917638182874

>  <Genealogy>  (5) 
Cc1cccc(CCNC(=O)/C=C\c2ccccc2)c1 (cis-trans isomerization)
Cc1cccc(CCNC(=O)/C=C\c2ccccc2)c1 (3D coordinates assigned)
Cc1cccc(CCNC(=O)/C=C\c2ccccc2)c1 (optimized conformer: 39.940917638182874 kcal/mol)

>  <smiles>  (5) 
Cc1cccc(CCNC(=O)C=Cc2ccccc2)c1

>  <score_type>  (5) 
oracle

>  <origin>  (5) 
adg

>  <m_score__min__energy>  (5) 
-7.3300000000000001

>  <m_primary>  (5) 
energy

$$$$
5:0
     RDKit          3D

 33 34  0  0  0  0  0  0  0  0999 V2000
   63.7440   33.0680   47.4890 C   0  0  0  0  0  0  0  0  0  0  0  0
   62.4210   32.9660   47.3400 C   0  0  0  0  0  0  0  0  0  0  0  0
   61.6700   33.8370   46.3710 C   0  0  0  0  0  0  0  0  0  0  0  0
   60.2630   33.9990   46.7950 N   0  0  0  0  0  0  0  0  0  0  0  0
   60.2070   34.2470   48.2470 C   0  0  0  0  0  0  0  0  0  0  0  0
   59.6120   35.1020   46.0460 C   0  0  0  0  0  0  0  0  0  0  0  0
   58.6980   34.5650   44.9340 C   0  0  0  0  0  0  0  0  0  0  0  0
   57.1340   33.9110   45.6160 S   0  0  0  0  0  0  0  0  0  0  0  0
   57.5480   32.2120   45.2390 C   0  0  0  0  0  0  0  0  0  0  0  0
   58.7960   31.7070   45.4160 N   0  0  0  0  0  0  0  0  0  0  0  0
   58.6490   30.4350   45.0190 C   0  0  0  0  0  0  0  0  0  0  0  0
   59.6170   29.4340   44.9870 C   0  0  0  0  0  0  0  0  0  0  0  0
   59.2260   28.1620   44.5270 C   0  0  0  0  0  0  0  0  0  0  0  0
   57.8930   27.9280   44.1180 C   0  0  0  0  0  0  0  0  0  0  0  0
   56.9420   28.9650   44.1640 C   0  0  0  0  0  0  0  0  0  0  0  0
   57.3660   30.2110   44.6240 C   0  0  0  0  0  0  0  0  0  0  0  0
   56.6380   31.3280   44.7530 N   0  0  0  0  0  0  0  0  0  0  0  0
   64.2685   32.4184   48.2051 H   0  0  0  0  0  0  0  0  0  0  0  0
   64.3094   33.8017   46.8956 H   0  0  0  0  0  0  0  0  0  0  0  0
   61.8679   32.2281   47.9396 H   0  0  0  0  0  0  0  0  0  0  0  0
   62.1500   34.8258   46.3275 H   0  0  0  0  0  0  0  0  0  0  0  0
   61.6877   33.3599   45.3800 H   0  0  0  0  0  0  0  0  0  0  0  0
   60.4181   33.3122   48.7870 H   0  0  0  0  0  0  0  0  0  0  0  0
   60.9567   35.0047   48.5187 H   0  0  0  0  0  0  0  0  0  0  0  0
   59.2045   34.6091   48.5187 H   0  0  0  0  0  0  0  0  0  0  0  0
   59.0103   35.7020   46.7446 H   0  0  0  0  0  0  0  0  0  0  0  0
   60.3984   35.7143   45.5806 H   0  0  0  0  0  0  0  0  0  0  0  0
   58.4694   35.3813   44.2330 H   0  0  0  0  0  0  0  0  0  0  0  0
   59.2218   33.7453   44.4204 H   0  0  0  0  0  0  0  0  0  0  0  0
   60.6502   29.6302   45.3096 H   0  0  0  0  0  0  0  0  0  0  0  0
   59.9620   27.3455   44.4856 H   0  0  0  0  0  0  0  0  0  0  0  0
   57.5973   26.9301   43.7619 H   0  0  0  0  0  0  0  0  0  0  0  0
   55.9016   28.7982   43.8483 H   0  0  0  0  0  0  0  0  0  0  0  0
  1  2  2  0
  2  3  1  0
  3  4  1  0
  4  5  1  0
  4  6  1  0
  6  7  1  0
  7  8  1  0
  8  9  1  0
  9 10  2  0
 10 11  1  0
 11 12  2  0
 12 13  1  0
 13 14  2  0
 14 15  1  0
 15 16  2  0
 16 17  1  0
 17  9  1  0
 16 11  1  0
  1 18  1  0
  1 19  1  0
  2 20  1  0
  3 21  1  0
  3 22  1  0
  5 23  1  0
  5 24  1  0
  5 25  1  0
  6 26  1  0
  6 27  1  0
  7 28  1  0
  7 29  1  0
 12 30  1  0
 13 31  1  0
 14 32  1  0
 15 33  1  0
M  CHG  1  17  -1
M  END
>  <UniqueID>  (6) 
6

>  <SMILES>  (6) 
C=CCN(C)CCSc1nc2ccccc2[n-]1

>  <Energy>  (6) 
62.87349474285683

>  <Genealogy>  (6) 
C=CCN(C)CCSc1nc2ccccc2[n-]1 (protonated)
C=CCN(C)CCSc1nc2ccccc2[n-]1 (3D coordinates assigned)
C=CCN(C)CCSc1nc2ccccc2[n-]1 (optimized conformer: 62.87349474285683 kcal/mol)

>  <smiles>  (6) 
C=CCN(C)CCSc1nc2ccccc2[nH]1

>  <score_type>  (6) 
oracle

>  <origin>  (6) 
adg

>  <m_score__min__energy>  (6) 
-7.2800000000000002

>  <m_primary>  (6) 
energy

$$$$
6:0
     RDKit          3D

 40 40  0  0  0  0  0  0  0  0999 V2000
   59.8068   30.0079   44.6003 H   0  0  0  0  0  0  0  0  0  0  0  0
   59.4370   29.6380   45.5680 C   0  0  0  0  0  0  0  0  0  0  0  0
   56.3750   29.6660   44.4970 C   0  0  0  0  0  0  0  0  0  0  0  0
   55.2160   29.3500   44.8850 O   0  0  0  0  0  0  0  0  0  0  0  0
   56.6110   30.9420   43.9770 O   0  0  0  0  0  0  0  0  0  0  0  0
   57.0290   31.1660   42.6350 C   0  0  0  0  0  0  0  0  0  0  0  0
   56.1623   31.4618   42.0257 H   0  0  0  0  0  0  0  0  0  0  0  0
   57.4654   30.2419   42.2281 H   0  0  0  0  0  0  0  0  0  0  0  0
   58.0700   32.2730   42.6060 C   0  0  0  0  0  0  0  0  0  0  0  0
   58.3347   32.5545   43.6359 H   0  0  0  0  0  0  0  0  0  0  0  0
   58.9687   31.9176   42.0806 H   0  0  0  0  0  0  0  0  0  0  0  0
   57.6601   33.1481   42.0806 H   0  0  0  0  0  0  0  0  0  0  0  0
   58.3940   28.5850   45.5470 C   0  0  0  0  0  0  0  0  0  0  0  0
   59.9630   30.1730   46.6790 C   0  0  0  0  0  0  0  0  0  0  0  0
   61.0587   30.1949   46.7743 H   0  0  0  0  0  0  0  0  0  0  0  0
   57.4500   28.6550   44.5880 C   0  0  0  0  0  0  0  0  0  0  0  0
   57.4822   27.8887   43.7995 H   0  0  0  0  0  0  0  0  0  0  0  0
   59.1550   30.7370   47.7870 C   0  0  0  0  0  0  0  0  0  0  0  0
   58.6389   30.0388   48.4623 H   0  0  0  0  0  0  0  0  0  0  0  0
   59.0190   32.0570   48.0110 C   0  0  0  0  0  0  0  0  0  0  0  0
   58.6870   32.9630   46.8880 C   0  0  0  0  0  0  0  0  0  0  0  0
   57.4020   32.9870   46.4420 N   0  0  0  0  0  0  0  0  0  0  0  0
   57.0190   33.7990   45.4250 C   0  0  0  0  0  0  0  0  0  0  0  0
   55.9734   33.7954   45.0834 H   0  0  0  0  0  0  0  0  0  0  0  0
   57.9230   34.6150   44.8290 N   0  0  0  0  0  0  0  0  0  0  0  0
   59.2220   34.6230   45.2230 C   0  0  0  0  0  0  0  0  0  0  0  0
   59.9391   35.2962   44.7305 H   0  0  0  0  0  0  0  0  0  0  0  0
   59.6540   33.7780   46.2540 C   0  0  0  0  0  0  0  0  0  0  0  0
   61.1050   33.7830   46.6530 C   0  0  0  0  0  0  0  0  0  0  0  0
   61.1836   33.7833   47.7502 H   0  0  0  0  0  0  0  0  0  0  0  0
   61.5991   32.8866   46.2502 H   0  0  0  0  0  0  0  0  0  0  0  0
   61.5929   34.6828   46.2502 H   0  0  0  0  0  0  0  0  0  0  0  0
   59.2960   32.6720   49.3590 C   0  0  0  0  0  0  0  0  0  0  0  0
   58.9825   31.9760   50.1510 H   0  0  0  0  0  0  0  0  0  0  0  0
   60.3727   32.8756   49.4549 H   0  0  0  0  0  0  0  0  0  0  0  0
   58.7349   33.6133   49.4549 H   0  0  0  0  0  0  0  0  0  0  0  0
   58.5070   27.4220   46.4990 C   0  0  0  0  0  0  0  0  0  0  0  0
   58.4711   27.7911   47.5346 H   0  0  0  0  0  0  0  0  0  0  0  0
   57.6722   26.7262   46.3286 H   0  0  0  0  0  0  0  0  0  0  0  0
   59.4601   26.8999   46.3286 H   0  0  0  0  0  0  0  0  0  0  0  0
  1  2  1  0
  2  3  1  0
  3  4  2  0
  3  5  1  0
  5  6  1  0
  6  7  1  0
  6  8  1  0
  6  9  1  0
  9 10  1  0
  9 11  1  0
  9 12  1  0
  2 13  2  0
 13 14  1  0
 14 15  1  0
 14 16  2  0
 16 17  1  0
 16 18  1  0
 18 19  1  0
 18 20  2  0
 20 21  1  0
 21 22  2  0
 22 23  1  0
 23 24  1  0
 23 25  2  0
 25 26  1  0
 26 27  1  0
 26 28  2  0
 28 29  1  0
 29 30  1  0
 29 31  1  0
 29 32  1  0
 20 33  1  0
 33 34  1  0
 33 35  1  0
 33 36  1  0
 13 37  1  0
 37 38  1  0
 37 39  1  0
 37 40  1  0
 28 21  1  0
M  END
>  <UniqueID>  (7) 
7

>  <SMILES>  (7) 
CCOC(=O)C=C(C)/C=C\C=C(/C)c1ncncc1C

>  <Energy>  (7) 
45.38846032290637

>  <Genealogy>  (7) 
CCOC(=O)C=C(C)/C=C\C=C(/C)c1ncncc1C (cis-trans isomerization)
CCOC(=O)C=C(C)/C=C\C=C(/C)c1ncncc1C (3D coordinates assigned)
CCOC(=O)C=C(C)/C=C\C=C(/C)c1ncncc1C (optimized conformer: 45.38846032290637 kcal/mol)

>  <smiles>  (7) 
CCOC(=O)C=C(C)C=CC=C(C)c1ncncc1C

>  <score_type>  (7) 
oracle

>  <origin>  (7) 
adg

>  <m_score__min__energy>  (7) 
-6.7699999999999996

>  <m_primary>  (7) 
energy

$$$$
7:0
     RDKit          3D

 44 46  0  0  0  0  0  0  0  0999 V2000
   63.5638   32.9463   47.8435 H   0  0  0  0  0  0  0  0  0  0  0  0
   62.4730   33.0150   47.9680 C   0  0  0  0  0  0  0  0  0  0  0  0
   61.6310   32.2230   47.1800 C   0  0  0  0  0  0  0  0  0  0  0  0
   62.0646   31.5355   46.4389 H   0  0  0  0  0  0  0  0  0  0  0  0
   60.2350   32.2990   47.3280 C   0  0  0  0  0  0  0  0  0  0  0  0
   59.3350   31.4640   46.4930 C   0  0  0  0  0  0  0  0  0  0  0  0
   58.8900   30.2240   46.9570 C   0  0  0  0  0  0  0  0  0  0  0  0
   59.2044   29.8776   47.9526 H   0  0  0  0  0  0  0  0  0  0  0  0
   58.0520   29.4120   46.1820 C   0  0  0  0  0  0  0  0  0  0  0  0
   57.8080   28.2300   46.6910 N   0  0  0  0  0  0  0  0  0  0  0  0
   58.3320   26.8980   46.4110 C   0  0  0  0  0  0  0  0  0  0  0  0
   59.4162   26.9612   46.2366 H   0  0  0  0  0  0  0  0  0  0  0  0
   58.1330   26.2409   47.2704 H   0  0  0  0  0  0  0  0  0  0  0  0
   57.6490   26.3240   45.1660 C   0  0  0  0  0  0  0  0  0  0  0  0
   57.5221   27.1328   44.4314 H   0  0  0  0  0  0  0  0  0  0  0  0
   58.2900   25.5171   44.7814 H   0  0  0  0  0  0  0  0  0  0  0  0
   56.2720   25.7140   45.4650 C   0  0  0  0  0  0  0  0  0  0  0  0
   55.8428   25.3194   44.5322 H   0  0  0  0  0  0  0  0  0  0  0  0
   56.3979   24.9071   46.2020 H   0  0  0  0  0  0  0  0  0  0  0  0
   55.3670   26.7160   46.0210 N   0  0  0  0  0  0  0  0  0  0  0  0
   55.1810   27.4350   45.2830 H   0  0  0  0  0  0  0  0  0  0  0  0
   55.8720   27.2080   46.7940 H   0  0  0  0  0  0  0  0  0  0  0  0
   57.5930   29.9120   44.9170 C   0  0  0  0  0  0  0  0  0  0  0  0
   56.6460   29.2670   44.0810 C   0  0  0  0  0  0  0  0  0  0  0  0
   56.1900   28.3222   44.4117 H   0  0  0  0  0  0  0  0  0  0  0  0
   56.2810   29.8080   42.8460 C   0  0  0  0  0  0  0  0  0  0  0  0
   55.5575   29.2773   42.2096 H   0  0  0  0  0  0  0  0  0  0  0  0
   56.8250   31.0110   42.4160 C   0  0  0  0  0  0  0  0  0  0  0  0
   56.5481   31.4207   41.4334 H   0  0  0  0  0  0  0  0  0  0  0  0
   57.7200   31.6970   43.2290 C   0  0  0  0  0  0  0  0  0  0  0  0
   58.1362   32.6578   42.8919 H   0  0  0  0  0  0  0  0  0  0  0  0
   58.0980   31.1740   44.4780 C   0  0  0  0  0  0  0  0  0  0  0  0
   58.9440   31.8970   45.2650 N   0  0  0  0  0  0  0  0  0  0  0  0
   59.3100   32.8100   44.9120 H   0  0  0  0  0  0  0  0  0  0  0  0
   59.6990   33.1860   48.2780 C   0  0  0  0  0  0  0  0  0  0  0  0
   58.6085   33.2589   48.4029 H   0  0  0  0  0  0  0  0  0  0  0  0
   60.5420   33.9760   49.0650 C   0  0  0  0  0  0  0  0  0  0  0  0
   60.1091   34.6644   49.8058 H   0  0  0  0  0  0  0  0  0  0  0  0
   61.9310   33.8990   48.9190 C   0  0  0  0  0  0  0  0  0  0  0  0
   62.7330   34.7120   49.7320 O   0  0  0  0  0  0  0  0  0  0  0  0
   63.3890   34.2680   50.9160 C   0  0  0  0  0  0  0  0  0  0  0  0
   62.8440   34.6369   51.7974 H   0  0  0  0  0  0  0  0  0  0  0  0
   63.4113   33.1684   50.9324 H   0  0  0  0  0  0  0  0  0  0  0  0
   64.4182   34.6559   50.9324 H   0  0  0  0  0  0  0  0  0  0  0  0
  1  2  1  0
  2  3  2  0
  3  4  1  0
  3  5  1  0
  5  6  1  0
  6  7  2  0
  7  8  1  0
  7  9  1  0
  9 10  2  0
 10 11  1  0
 11 12  1  0
 11 13  1  0
 11 14  1  0
 14 15  1  0
 14 16  1  0
 14 17  1  0
 17 18  1  0
 17 19  1  0
 17 20  1  0
 20 21  1  0
 20 22  1  0
  9 23  1  0
 23 24  2  0
 24 25  1  0
 24 26  1  0
 26 27  1  0
 26 28  2  0
 28 29  1  0
 28 30  1  0
 30 31  1  0
 30 32  2  0
 32 33  1  0
 33 34  1  0
  5 35  2  0
 35 36  1  0
 35 37  1  0
 37 38  1  0
 37 39  2  0
 39 40  1  0
 40 41  1  0
 41 42  1  0
 41 43  1  0
 41 44  1  0
 39  2  1  0
 33  6  1  0
 32 23  1  0
M  END
>  <UniqueID>  (8) 
8

>  <SMILES>  (8) 
COc1ccc(-c2c/c(=N/CCCN)c3ccccc3[nH]2)cc1

>  <Energy>  (8) 
63.79930203221858

>  <Genealogy>  (8) 
COc1ccc(-c2c/c(=N/CCCN)c3ccccc3[nH]2)cc1 (cis-trans isomerization)
COc1ccc(-c2c/c(=N/CCCN)c3ccccc3[nH]2)cc1 (3D coordinates assigned)
COc1ccc(-c2c/c(=N/CCCN)c3ccccc3[nH]2)cc1 (optimized conformer: 63.79930203221858 kcal/mol)

>  <smiles>  (8) 
COc1ccc(-c2cc(=NCCCN)c3ccccc3[nH]2)cc1

>  <score_type>  (8) 
oracle

>  <origin>  (8) 
adg

>  <m_score__min__energy>  (8) 
-7.1900000000000004

>  <m_primary>  (8) 
energy

$$$$
8:0
     RDKit          3D

 54 57  0  0  0  0  0  0  0  0999 V2000
   55.7940   23.3730   47.8600 C   0  0  0  0  0  0  0  0  0  0  0  0
   55.5280   24.4030   46.9100 O   0  0  0  0  0  0  0  0  0  0  0  0
   56.4790   25.3290   46.4560 C   0  0  0  0  0  0  0  0  0  0  0  0
   57.8280   24.9550   46.4610 C   0  0  0  0  0  0  0  0  0  0  0  0
   58.8120   25.8420   46.0190 C   0  0  0  0  0  0  0  0  0  0  0  0
   58.4590   27.1150   45.5670 C   0  0  0  0  0  0  0  0  0  0  0  0
   57.1120   27.5110   45.5500 C   0  0  0  0  0  0  0  0  0  0  0  0
   56.7390   28.8550   45.0660 C   0  0  0  0  0  0  0  0  0  0  0  0
   57.6370   29.8210   44.7810 N   0  0  0  0  0  0  0  0  0  0  0  0
   56.8630   30.8490   44.3830 C   0  0  0  0  0  0  0  0  0  0  0  0
   57.3940   32.1940   43.9700 C   0  0  0  0  0  0  0  0  0  0  0  0
   57.9180   32.9610   45.1260 N   0  0  0  0  0  0  0  0  0  0  0  0
   58.2080   32.0730   46.2970 C   0  0  0  0  0  0  0  0  0  0  0  0
   59.7010   31.9380   46.6270 C   0  0  0  0  0  0  0  0  0  0  0  0
   60.2980   33.2670   46.7520 N   0  0  0  0  0  0  0  0  0  0  0  0
   61.3850   33.4830   47.6590 C   0  0  0  0  0  0  0  0  0  0  0  0
   62.7050   33.3380   47.2090 C   0  0  0  0  0  0  0  0  0  0  0  0
   63.7730   33.5580   48.0810 C   0  0  0  0  0  0  0  0  0  0  0  0
   63.5280   33.9220   49.4070 C   0  0  0  0  0  0  0  0  0  0  0  0
   62.2140   34.0670   49.8640 C   0  0  0  0  0  0  0  0  0  0  0  0
   61.1290   33.8480   48.9920 C   0  0  0  0  0  0  0  0  0  0  0  0
   59.7940   33.9810   49.4090 O   0  0  0  0  0  0  0  0  0  0  0  0
   59.2890   33.5060   50.6520 C   0  0  0  0  0  0  0  0  0  0  0  0
   59.8550   34.3520   45.8760 C   0  0  0  0  0  0  0  0  0  0  0  0
   59.0760   33.7800   44.6870 C   0  0  0  0  0  0  0  0  0  0  0  0
   55.5400   30.4820   44.4440 C   0  0  0  0  0  0  0  0  0  0  0  0
   55.4980   29.2440   44.8660 O   0  0  0  0  0  0  0  0  0  0  0  0
   56.1250   26.6130   45.9980 C   0  0  0  0  0  0  0  0  0  0  0  0
   55.6897   23.7771   48.8778 H   0  0  0  0  0  0  0  0  0  0  0  0
   55.0791   22.5492   47.7175 H   0  0  0  0  0  0  0  0  0  0  0  0
   56.8184   22.9984   47.7175 H   0  0  0  0  0  0  0  0  0  0  0  0
   58.1153   23.9543   46.8160 H   0  0  0  0  0  0  0  0  0  0  0  0
   59.8687   25.5367   46.0270 H   0  0  0  0  0  0  0  0  0  0  0  0
   59.2390   27.8102   45.2230 H   0  0  0  0  0  0  0  0  0  0  0  0
   58.2063   32.0475   43.2429 H   0  0  0  0  0  0  0  0  0  0  0  0
   56.5649   32.7667   43.5288 H   0  0  0  0  0  0  0  0  0  0  0  0
   57.1730   33.6400   45.4180 H   0  0  0  0  0  0  0  0  0  0  0  0
   57.6954   32.4854   47.1785 H   0  0  0  0  0  0  0  0  0  0  0  0
   57.8504   31.0679   46.0289 H   0  0  0  0  0  0  0  0  0  0  0  0
   59.8185   31.3933   47.5754 H   0  0  0  0  0  0  0  0  0  0  0  0
   60.2049   31.3856   45.8202 H   0  0  0  0  0  0  0  0  0  0  0  0
   62.8998   33.0499   46.1654 H   0  0  0  0  0  0  0  0  0  0  0  0
   64.8072   33.4447   47.7238 H   0  0  0  0  0  0  0  0  0  0  0  0
   64.3701   34.0950   50.0933 H   0  0  0  0  0  0  0  0  0  0  0  0
   62.0267   34.3534   50.9094 H   0  0  0  0  0  0  0  0  0  0  0  0
   59.8187   34.0042   51.4774 H   0  0  0  0  0  0  0  0  0  0  0  0
   58.2137   33.7276   50.7196 H   0  0  0  0  0  0  0  0  0  0  0  0
   59.4444   32.4191   50.7196 H   0  0  0  0  0  0  0  0  0  0  0  0
   59.2053   35.0354   46.4424 H   0  0  0  0  0  0  0  0  0  0  0  0
   60.7346   34.8972   45.5030 H   0  0  0  0  0  0  0  0  0  0  0  0
   58.7088   34.6125   44.0688 H   0  0  0  0  0  0  0  0  0  0  0  0
   59.7553   33.1308   44.1150 H   0  0  0  0  0  0  0  0  0  0  0  0
   54.6762   31.1123   44.1859 H   0  0  0  0  0  0  0  0  0  0  0  0
   55.0678   26.9167   45.9903 H   0  0  0  0  0  0  0  0  0  0  0  0
  1  2  1  0
  2  3  1  0
  3  4  2  0
  4  5  1  0
  5  6  2  0
  6  7  1  0
  7  8  1  0
  8  9  2  0
  9 10  1  0
 10 11  1  0
 11 12  1  0
 12 13  1  0
 13 14  1  0
 14 15  1  0
 15 16  1  0
 16 17  2  0
 17 18  1  0
 18 19  2  0
 19 20  1  0
 20 21  2  0
 21 22  1  0
 22 23  1  0
 15 24  1  0
 24 25  1  0
 10 26  2  0
 26 27  1  0
  7 28  2  0
 28  3  1  0
 27  8  1  0
 25 12  1  0
 21 16  1  0
  1 29  1  0
  1 30  1  0
  1 31  1  0
  4 32  1  0
  5 33  1  0
  6 34  1  0
 11 35  1  0
 11 36  1  0
 12 37  1  0
 13 38  1  0
 13 39  1  0
 14 40  1  0
 14 41  1  0
 17 42  1  0
 18 43  1  0
 19 44  1  0
 20 45  1  0
 23 46  1  0
 23 47  1  0
 23 48  1  0
 24 49  1  0
 24 50  1  0
 25 51  1  0
 25 52  1  0
 26 53  1  0
 28 54  1  0
M  CHG  1  12   1
M  END
>  <UniqueID>  (9) 
9

>  <SMILES>  (9) 
COc1cccc(-c2nc(C[NH+]3CCN(c4ccccc4OC)CC3)co2)c1

>  <Energy>  (9) 
98.97705462689107

>  <Genealogy>  (9) 
COc1cccc(-c2nc(C[NH+]3CCN(c4ccccc4OC)CC3)co2)c1 (protonated)
COc1cccc(-c2nc(C[NH+]3CCN(c4ccccc4OC)CC3)co2)c1 (3D coordinates assigned)
COc1cccc(-c2nc(C[NH+]3CCN(c4ccccc4OC)CC3)co2)c1 (nonaromatic ring conformer: 98.97705462689107 kcal/mol)

>  <smiles>  (9) 
COc1cccc(-c2nc(CN3CCN(c4ccccc4OC)CC3)co2)c1

>  <score_type>  (9) 
oracle

>  <origin>  (9) 
adg

>  <m_score__min__energy>  (9) 
-6.9299999999999997

>  <m_primary>  (9) 
energy

$$$$
9:0
     RDKit          3D

 40 44  0  0  0  0  0  0  0  0999 V2000
   59.8140   34.1770   47.2140 C   0  0  0  0  0  0  0  0  0  0  0  0
   59.9690   32.8070   47.5680 O   0  0  0  0  0  0  0  0  0  0  0  0
   59.3060   31.7430   46.9390 C   0  0  0  0  0  0  0  0  0  0  0  0
   59.5300   30.3950   47.2990 C   0  0  0  0  0  0  0  0  0  0  0  0
   58.8480   29.3460   46.6450 C   0  0  0  0  0  0  0  0  0  0  0  0
   59.0450   28.0000   46.9920 O   0  0  0  0  0  0  0  0  0  0  0  0
   60.2760   27.2990   46.8570 C   0  0  0  0  0  0  0  0  0  0  0  0
   57.9410   29.6590   45.6170 C   0  0  0  0  0  0  0  0  0  0  0  0
   57.7130   31.0170   45.2740 C   0  0  0  0  0  0  0  0  0  0  0  0
   58.3910   32.0450   45.9240 C   0  0  0  0  0  0  0  0  0  0  0  0
   56.6910   31.2370   44.1680 C   0  0  1  0  0  0  0  0  0  0  0  0
   57.0850   30.3480   43.0000 C   0  0  0  0  0  0  0  0  0  0  0  0
   56.2380   29.3430   43.7750 C   0  0  2  0  0  0  0  0  0  0  0  0
   55.6060   30.3900   44.4820 O   0  0  0  0  0  0  0  0  0  0  0  0
   57.1320   28.6010   44.8310 C   0  0  2  0  0  0  0  0  0  0  0  0
   56.2990   27.8470   45.7230 O   0  0  0  0  0  0  0  0  0  0  0  0
   56.5990   26.4930   45.6360 C   0  0  0  0  0  0  0  0  0  0  0  0
   56.0040   25.4540   46.3500 C   0  0  0  0  0  0  0  0  0  0  0  0
   56.4660   24.1450   46.1270 C   0  0  0  0  0  0  0  0  0  0  0  0
   57.5050   23.9030   45.2040 C   0  0  0  0  0  0  0  0  0  0  0  0
   58.0880   24.9690   44.4970 C   0  0  0  0  0  0  0  0  0  0  0  0
   57.6040   26.2530   44.7380 C   0  0  0  0  0  0  0  0  0  0  0  0
   57.9980   27.5360   44.1990 C   0  0  0  0  0  0  0  0  0  0  0  0
   58.9250   27.7240   43.3670 O   0  0  0  0  0  0  0  0  0  0  0  0
   59.7451   34.7862   48.1273 H   0  0  0  0  0  0  0  0  0  0  0  0
   60.6810   34.5027   46.6206 H   0  0  0  0  0  0  0  0  0  0  0  0
   58.8961   34.3008   46.6206 H   0  0  0  0  0  0  0  0  0  0  0  0
   60.2460   30.1596   48.1002 H   0  0  0  0  0  0  0  0  0  0  0  0
   60.6787   27.0697   47.8546 H   0  0  0  0  0  0  0  0  0  0  0  0
   60.1060   26.3622   46.3060 H   0  0  0  0  0  0  0  0  0  0  0  0
   60.9949   27.9232   46.3060 H   0  0  0  0  0  0  0  0  0  0  0  0
   58.2079   33.0919   45.6404 H   0  0  0  0  0  0  0  0  0  0  0  0
   56.5589   32.3191   44.0210 H   0  0  0  0  0  0  0  0  0  0  0  0
   56.6965   30.6468   42.0152 H   0  0  0  0  0  0  0  0  0  0  0  0
   58.1174   30.1730   42.6629 H   0  0  0  0  0  0  0  0  0  0  0  0
   55.6767   28.5743   43.2236 H   0  0  0  0  0  0  0  0  0  0  0  0
   55.1950   25.6529   47.0683 H   0  0  0  0  0  0  0  0  0  0  0  0
   56.0148   23.3049   46.6753 H   0  0  0  0  0  0  0  0  0  0  0  0
   57.8606   22.8756   45.0368 H   0  0  0  0  0  0  0  0  0  0  0  0
   58.9006   24.7949   43.7763 H   0  0  0  0  0  0  0  0  0  0  0  0
  1  2  1  0
  2  3  1  0
  3  4  2  0
  4  5  1  0
  5  6  1  0
  6  7  1  0
  5  8  2  0
  8  9  1  0
  9 10  2  0
  9 11  1  0
 11 12  1  0
 12 13  1  0
 13 14  1  0
 13 15  1  0
 15 16  1  1
 16 17  1  0
 17 18  2  0
 18 19  1  0
 19 20  2  0
 20 21  1  0
 21 22  2  0
 22 23  1  0
 23 24  2  0
 10  3  1  0
 14 11  1  0
 23 15  1  0
 15  8  1  0
 22 17  1  0
  1 25  1  0
  1 26  1  0
  1 27  1  0
  4 28  1  0
  7 29  1  0
  7 30  1  0
  7 31  1  0
 10 32  1  0
 11 33  1  6
 12 34  1  0
 12 35  1  0
 13 36  1  6
 18 37  1  0
 19 38  1  0
 20 39  1  0
 21 40  1  0
M  END
>  <UniqueID>  (10) 
10

>  <SMILES>  (10) 
COc1cc(OC)c2c(c1)[C@H]1C[C@H](O1)C21Oc2ccccc2C1=O

>  <Energy>  (10) 
163.39881586945395

>  <Genealogy>  (10) 
COc1cc(OC)c2c(c1)[C@H]1C[C@H](O1)C21Oc2ccccc2C1=O (chirality)
COc1cc(OC)c2c(c1)[C@H]1C[C@H](O1)C21Oc2ccccc2C1=O (3D coordinates assigned)
COc1cc(OC)c2c(c1)[C@H]1C[C@H](O1)C21Oc2ccccc2C1=O (nonaromatic ring conformer: 163.39881586945395 kcal/mol)

>  <smiles>  (10) 
COc1cc(OC)c2c(c1)C1CC(O1)C21Oc2ccccc2C1=O

>  <score_type>  (10) 
oracle

>  <origin>  (10) 
adg

>  <m_score__min__energy>  (10) 
-7.2999999999999998

>  <m_primary>  (10) 
energy

$$$$
10:0
     RDKit          3D

 64 68  0  0  0  0  0  0  0  0999 V2000
   61.8810   33.4120   53.3420 C   0  0  0  0  0  0  0  0  0  0  0  0
   62.0170   33.8150   51.9780 O   0  0  0  0  0  0  0  0  0  0  0  0
   63.1170   33.4670   51.1800 C   0  0  0  0  0  0  0  0  0  0  0  0
   64.3270   33.0370   51.7550 C   0  0  0  0  0  0  0  0  0  0  0  0
   65.4060   32.6610   50.9480 C   0  0  0  0  0  0  0  0  0  0  0  0
   65.2980   32.7170   49.5570 C   0  0  0  0  0  0  0  0  0  0  0  0
   64.1090   33.1490   48.9660 C   0  0  0  0  0  0  0  0  0  0  0  0
   63.9950   33.1610   47.6120 N   0  0  0  0  0  0  0  0  0  0  0  0
   62.8430   33.5220   46.9920 C   0  0  0  0  0  0  0  0  0  0  0  0
   61.7240   33.9100   47.7430 C   0  0  0  0  0  0  0  0  0  0  0  0
   60.4710   34.1840   47.0870 N   0  0  0  0  0  0  0  0  0  0  0  0
   60.3320   33.8570   45.6660 C   0  0  0  0  0  0  0  0  0  0  0  0
   58.8580   33.8260   45.2250 C   0  0  0  0  0  0  0  0  0  0  0  0
   57.9450   33.1490   46.1960 N   0  0  0  0  0  0  0  0  0  0  0  0
   57.7470   31.6980   45.8810 C   0  0  0  0  0  0  0  0  0  0  0  0
   58.5850   30.7630   46.8020 C   0  0  0  0  0  0  0  0  0  0  0  0
   59.8890   30.2450   46.1650 C   0  0  0  0  0  0  0  0  0  0  0  0
   59.7530   29.7570   44.7630 N   0  0  0  0  0  0  0  0  0  0  0  0
   60.2320   28.3650   44.6220 C   0  0  0  0  0  0  0  0  0  0  0  0
   59.2530   27.3870   45.2320 C   0  0  0  0  0  0  0  0  0  0  0  0
   59.3280   27.1310   46.6120 C   0  0  0  0  0  0  0  0  0  0  0  0
   58.4340   26.2460   47.2220 C   0  0  0  0  0  0  0  0  0  0  0  0
   57.4610   25.5990   46.4560 C   0  0  0  0  0  0  0  0  0  0  0  0
   56.3440   24.4870   47.2210 Cl  0  0  0  0  0  0  0  0  0  0  0  0
   57.3860   25.8320   45.0790 C   0  0  0  0  0  0  0  0  0  0  0  0
   58.2730   26.7210   44.4600 C   0  0  0  0  0  0  0  0  0  0  0  0
   58.1140   26.9680   42.7200 Cl  0  0  0  0  0  0  0  0  0  0  0  0
   58.3950   29.9130   44.1980 C   0  0  0  0  0  0  0  0  0  0  0  0
   57.9080   31.3490   44.3790 C   0  0  0  0  0  0  0  0  0  0  0  0
   58.2370   33.4230   47.6370 C   0  0  0  0  0  0  0  0  0  0  0  0
   59.2710   34.5300   47.8460 C   0  0  0  0  0  0  0  0  0  0  0  0
   61.8200   33.9240   49.1430 C   0  0  0  0  0  0  0  0  0  0  0  0
   63.0130   33.5370   49.7740 C   0  0  0  0  0  0  0  0  0  0  0  0
   62.1627   34.2467   54.0008 H   0  0  0  0  0  0  0  0  0  0  0  0
   60.8368   33.1267   53.5377 H   0  0  0  0  0  0  0  0  0  0  0  0
   62.5388   32.5523   53.5377 H   0  0  0  0  0  0  0  0  0  0  0  0
   64.4255   32.9961   52.8498 H   0  0  0  0  0  0  0  0  0  0  0  0
   66.3435   32.3198   51.4112 H   0  0  0  0  0  0  0  0  0  0  0  0
   66.1495   32.4208   48.9268 H   0  0  0  0  0  0  0  0  0  0  0  0
   62.7866   33.5102   45.8935 H   0  0  0  0  0  0  0  0  0  0  0  0
   60.8646   34.6151   45.0730 H   0  0  0  0  0  0  0  0  0  0  0  0
   60.7571   32.8555   45.5038 H   0  0  0  0  0  0  0  0  0  0  0  0
   58.5149   34.8628   45.0933 H   0  0  0  0  0  0  0  0  0  0  0  0
   58.8178   33.2437   44.2926 H   0  0  0  0  0  0  0  0  0  0  0  0
   57.0150   33.5940   46.0070 H   0  0  0  0  0  0  0  0  0  0  0  0
   56.6889   31.5024   46.1093 H   0  0  0  0  0  0  0  0  0  0  0  0
   58.8453   31.3210   47.7135 H   0  0  0  0  0  0  0  0  0  0  0  0
   57.9614   29.8796   47.0037 H   0  0  0  0  0  0  0  0  0  0  0  0
   60.6217   31.0655   46.1715 H   0  0  0  0  0  0  0  0  0  0  0  0
   60.2011   29.3771   46.7644 H   0  0  0  0  0  0  0  0  0  0  0  0
   60.3525   28.1332   43.5535 H   0  0  0  0  0  0  0  0  0  0  0  0
   61.1929   28.2715   45.1491 H   0  0  0  0  0  0  0  0  0  0  0  0
   60.0975   27.6318   47.2179 H   0  0  0  0  0  0  0  0  0  0  0  0
   58.4966   26.0592   48.3042 H   0  0  0  0  0  0  0  0  0  0  0  0
   56.6247   25.3131   44.4780 H   0  0  0  0  0  0  0  0  0  0  0  0
   58.4180   29.6700   43.1254 H   0  0  0  0  0  0  0  0  0  0  0  0
   57.7083   29.2331   44.7235 H   0  0  0  0  0  0  0  0  0  0  0  0
   58.6385   32.0359   43.9268 H   0  0  0  0  0  0  0  0  0  0  0  0
   56.9281   31.4502   43.8896 H   0  0  0  0  0  0  0  0  0  0  0  0
   57.3012   33.7217   48.1320 H   0  0  0  0  0  0  0  0  0  0  0  0
   58.6569   32.5007   48.0649 H   0  0  0  0  0  0  0  0  0  0  0  0
   58.8676   35.4887   47.4879 H   0  0  0  0  0  0  0  0  0  0  0  0
   59.5125   34.6271   48.9147 H   0  0  0  0  0  0  0  0  0  0  0  0
   60.9573   34.2394   49.7483 H   0  0  0  0  0  0  0  0  0  0  0  0
  1  2  1  0
  2  3  1  0
  3  4  2  0
  4  5  1  0
  5  6  2  0
  6  7  1  0
  7  8  2  0
  8  9  1  0
  9 10  2  0
 10 11  1  0
 11 12  1  0
 12 13  1  0
 13 14  1  0
 14 15  1  0
 15 16  1  0
 16 17  1  0
 17 18  1  0
 18 19  1  0
 19 20  1  0
 20 21  2  0
 21 22  1  0
 22 23  2  0
 23 24  1  0
 23 25  1  0
 25 26  2  0
 26 27  1  0
 18 28  1  0
 28 29  1  0
 14 30  1  0
 30 31  1  0
 10 32  1  0
 32 33  2  0
 33  3  1  0
 33  7  1  0
 31 11  1  0
 29 15  1  0
 26 20  1  0
  1 34  1  0
  1 35  1  0
  1 36  1  0
  4 37  1  0
  5 38  1  0
  6 39  1  0
  9 40  1  0
 12 41  1  0
 12 42  1  0
 13 43  1  0
 13 44  1  0
 14 45  1  0
 15 46  1  0
 16 47  1  0
 16 48  1  0
 17 49  1  0
 17 50  1  0
 19 51  1  0
 19 52  1  0
 21 53  1  0
 22 54  1  0
 25 55  1  0
 28 56  1  0
 28 57  1  0
 29 58  1  0
 29 59  1  0
 30 60  1  0
 30 61  1  0
 31 62  1  0
 31 63  1  0
 32 64  1  0
M  CHG  1  14   1
M  END
>  <UniqueID>  (11) 
11

>  <SMILES>  (11) 
COc1cccc2ncc(N3CC[NH+](C4CCN(Cc5ccc(Cl)cc5Cl)CC4)CC3)cc12

>  <Energy>  (11) 
103.79071032810904

>  <Genealogy>  (11) 
COc1cccc2ncc(N3CC[NH+](C4CCN(Cc5ccc(Cl)cc5Cl)CC4)CC3)cc12 (protonated)
COc1cccc2ncc(N3CC[NH+](C4CCN(Cc5ccc(Cl)cc5Cl)CC4)CC3)cc12 (3D coordinates assigned)
COc1cccc2ncc(N3CC[NH+](C4CCN(Cc5ccc(Cl)cc5Cl)CC4)CC3)cc12 (nonaromatic ring conformer: 103.79071032810904 kcal/mol)

>  <smiles>  (11) 
COc1cccc2ncc(N3CCN(C4CCN(Cc5ccc(Cl)cc5Cl)CC4)CC3)cc12

>  <score_type>  (11) 
oracle

>  <origin>  (11) 
adg

>  <m_score__min__energy>  (11) 
-7.5599999999999996

>  <m_primary>  (11) 
energy

$$$$
11:0
     RDKit          3D

 27 29  0  0  0  0  0  0  0  0999 V2000
   54.3430   27.7670   53.6750 O   0  0  0  0  0  0  0  0  0  0  0  0
   54.6170   28.8200   53.0380 C   0  0  0  0  0  0  0  0  0  0  0  0
   55.9540   29.1270   52.7640 C   0  0  0  0  0  0  0  0  0  0  0  0
   56.2810   30.3010   52.0530 C   0  0  0  0  0  0  0  0  0  0  0  0
   57.6900   30.6920   51.7250 C   0  0  0  0  0  0  0  0  0  0  0  0
   58.7540   29.7600   51.6990 C   0  0  0  0  0  0  0  0  0  0  0  0
   60.0550   30.1690   51.3870 C   0  0  0  0  0  0  0  0  0  0  0  0
   60.3210   31.5060   51.0960 C   0  0  0  0  0  0  0  0  0  0  0  0
   59.2870   32.4410   51.1160 C   0  0  0  0  0  0  0  0  0  0  0  0
   57.9840   32.0410   51.4260 C   0  0  0  0  0  0  0  0  0  0  0  0
   55.2660   31.1170   51.6460 N   0  0  0  0  0  0  0  0  0  0  0  0
   53.9570   30.8500   51.8940 C   0  0  0  0  0  0  0  0  0  0  0  0
   52.9680   31.7320   51.4460 C   0  0  0  0  0  0  0  0  0  0  0  0
   51.6190   31.4620   51.6990 C   0  0  0  0  0  0  0  0  0  0  0  0
   50.6400   32.3410   51.2520 O   0  0  0  0  0  0  0  0  0  0  0  0
   51.2560   30.3090   52.4010 C   0  0  0  0  0  0  0  0  0  0  0  0
   52.2380   29.4210   52.8530 C   0  0  0  0  0  0  0  0  0  0  0  0
   53.5980   29.6840   52.6030 C   0  0  0  0  0  0  0  0  0  0  0  0
   56.7526   28.4512   53.1038 H   0  0  0  0  0  0  0  0  0  0  0  0
   58.5562   28.7021   51.9266 H   0  0  0  0  0  0  0  0  0  0  0  0
   60.8717   29.4322   51.3713 H   0  0  0  0  0  0  0  0  0  0  0  0
   61.3454   31.8230   50.8509 H   0  0  0  0  0  0  0  0  0  0  0  0
   59.4971   33.4962   50.8872 H   0  0  0  0  0  0  0  0  0  0  0  0
   57.1760   32.7873   51.4373 H   0  0  0  0  0  0  0  0  0  0  0  0
   53.2517   32.6399   50.8935 H   0  0  0  0  0  0  0  0  0  0  0  0
   50.1945   30.0992   52.5987 H   0  0  0  0  0  0  0  0  0  0  0  0
   51.9467   28.5152   53.4050 H   0  0  0  0  0  0  0  0  0  0  0  0
  1  2  2  0
  2  3  1  0
  3  4  2  0
  4  5  1  0
  5  6  2  0
  6  7  1  0
  7  8  2  0
  8  9  1  0
  9 10  2  0
  4 11  1  0
 11 12  1  0
 12 13  2  0
 13 14  1  0
 14 15  1  0
 14 16  2  0
 16 17  1  0
 17 18  2  0
 18  2  1  0
 10  5  1  0
 18 12  1  0
  3 19  1  0
  6 20  1  0
  7 21  1  0
  8 22  1  0
  9 23  1  0
 10 24  1  0
 13 25  1  0
 16 26  1  0
 17 27  1  0
M  CHG  2  11  -1  15  -1
M  END
>  <UniqueID>  (12) 
12

>  <SMILES>  (12) 
O=c1cc(-c2ccccc2)[n-]c2cc([O-])ccc12

>  <Energy>  (12) 
39.55605692342795

>  <Genealogy>  (12) 
O=c1cc(-c2ccccc2)[n-]c2cc([O-])ccc12 (protonated)
O=c1cc(-c2ccccc2)[n-]c2cc([O-])ccc12 (3D coordinates assigned)
O=c1cc(-c2ccccc2)[n-]c2cc([O-])ccc12 (optimized conformer: 39.55605692342795 kcal/mol)

>  <smiles>  (12) 
O=c1cc(-c2ccccc2)[nH]c2cc(O)ccc12

>  <score_type>  (12) 
oracle

>  <origin>  (12) 
adg

>  <m_score__min__energy>  (12) 
-10.460000000000001

>  <m_primary>  (12) 
energy

$$$$
12:0
     RDKit          3D

 30 30  0  0  0  0  0  0  0  0999 V2000
   60.4030   28.9580   44.8950 C   0  0  0  0  0  0  0  0  0  0  0  0
   59.1800   28.4290   44.9870 C   0  0  0  0  0  0  0  0  0  0  0  0
   58.4920   27.8130   43.7960 C   0  0  0  0  0  0  0  0  0  0  0  0
   57.3930   28.6680   43.3230 N   0  0  0  0  0  0  0  0  0  0  0  0
   56.7360   29.3390   44.4560 C   0  0  0  0  0  0  0  0  0  0  0  0
   56.3220   30.7770   44.1030 C   0  0  0  0  0  0  0  0  0  0  0  0
   57.5160   31.6630   43.8470 C   0  0  0  0  0  0  0  0  0  0  0  0
   58.1270   31.5240   42.7530 O   0  0  0  0  0  0  0  0  0  0  0  0
   58.0090   32.6610   44.8390 C   0  0  0  0  0  0  0  0  0  0  0  0
   57.7860   32.5070   46.2240 C   0  0  0  0  0  0  0  0  0  0  0  0
   58.2640   33.4590   47.1310 C   0  0  0  0  0  0  0  0  0  0  0  0
   58.9660   34.5740   46.6730 C   0  0  0  0  0  0  0  0  0  0  0  0
   59.1930   34.7410   45.3070 C   0  0  0  0  0  0  0  0  0  0  0  0
   58.7200   33.7950   44.3950 C   0  0  0  0  0  0  0  0  0  0  0  0
   60.8790   29.4005   45.7825 H   0  0  0  0  0  0  0  0  0  0  0  0
   60.9342   28.9512   43.9318 H   0  0  0  0  0  0  0  0  0  0  0  0
   58.6616   28.4433   45.9571 H   0  0  0  0  0  0  0  0  0  0  0  0
   59.2233   27.6850   42.9843 H   0  0  0  0  0  0  0  0  0  0  0  0
   58.0755   26.8400   44.0958 H   0  0  0  0  0  0  0  0  0  0  0  0
   56.6900   28.0800   42.8160 H   0  0  0  0  0  0  0  0  0  0  0  0
   57.7800   29.3880   42.6690 H   0  0  0  0  0  0  0  0  0  0  0  0
   55.8384   28.7683   44.7365 H   0  0  0  0  0  0  0  0  0  0  0  0
   57.4517   29.3832   45.2902 H   0  0  0  0  0  0  0  0  0  0  0  0
   55.6963   30.7544   43.1986 H   0  0  0  0  0  0  0  0  0  0  0  0
   55.7695   31.1910   44.9593 H   0  0  0  0  0  0  0  0  0  0  0  0
   57.2319   31.6315   46.5934 H   0  0  0  0  0  0  0  0  0  0  0  0
   58.0857   33.3278   48.2085 H   0  0  0  0  0  0  0  0  0  0  0  0
   59.3402   35.3209   47.3886 H   0  0  0  0  0  0  0  0  0  0  0  0
   59.7464   35.6208   44.9468 H   0  0  0  0  0  0  0  0  0  0  0  0
   58.9039   33.9358   43.3197 H   0  0  0  0  0  0  0  0  0  0  0  0
  1  2  2  0
  2  3  1  0
  3  4  1  0
  4  5  1  0
  5  6  1  0
  6  7  1  0
  7  8  2  0
  7  9  1  0
  9 10  2  0
 10 11  1  0
 11 12  2  0
 12 13  1  0
 13 14  2  0
 14  9  1  0
  1 15  1  0
  1 16  1  0
  2 17  1  0
  3 18  1  0
  3 19  1  0
  4 20  1  0
  4 21  1  0
  5 22  1  0
  5 23  1  0
  6 24  1  0
  6 25  1  0
 10 26  1  0
 11 27  1  0
 12 28  1  0
 13 29  1  0
 14 30  1  0
M  CHG  1   4   1
M  END
>  <UniqueID>  (13) 
13

>  <SMILES>  (13) 
C=CC[NH2+]CCC(=O)c1ccccc1

>  <Energy>  (13) 
23.652338919604937

>  <Genealogy>  (13) 
C=CC[NH2+]CCC(=O)c1ccccc1 (protonated)
C=CC[NH2+]CCC(=O)c1ccccc1 (3D coordinates assigned)
C=CC[NH2+]CCC(=O)c1ccccc1 (optimized conformer: 23.652338919604937 kcal/mol)

>  <smiles>  (13) 
C=CCNCCC(=O)c1ccccc1

>  <score_type>  (13) 
oracle

>  <origin>  (13) 
adg

>  <m_score__min__energy>  (13) 
-4.4500000000000002

>  <m_primary>  (13) 
energy

$$$$
13:0
     RDKit          3D

 27 27  0  0  0  0  0  0  0  0999 V2000
   56.3040   29.8630   42.6630 C   0  0  0  0  0  0  0  0  0  0  0  0
   55.6970   30.2630   44.0110 C   0  0  0  0  0  0  0  0  0  0  0  0
   55.9460   29.2650   45.0630 N   0  0  0  0  0  0  0  0  0  0  0  0
   57.2720   28.6460   44.9380 C   0  0  0  0  0  0  0  0  0  0  0  0
   58.3270   29.6590   45.2540 C   0  0  0  0  0  0  0  0  0  0  0  0
   59.5250   29.4260   44.9350 O   0  0  0  0  0  0  0  0  0  0  0  0
   57.9730   30.8800   45.9220 N   0  0  0  0  0  0  0  0  0  0  0  0
   58.9370   31.8170   46.4310 C   0  0  0  0  0  0  0  0  0  0  0  0
   60.0320   31.3710   47.1950 C   0  0  0  0  0  0  0  0  0  0  0  0
   60.9510   32.2850   47.7150 C   0  0  0  0  0  0  0  0  0  0  0  0
   60.7850   33.6520   47.4890 C   0  0  0  0  0  0  0  0  0  0  0  0
   59.6940   34.1090   46.7450 C   0  0  0  0  0  0  0  0  0  0  0  0
   58.7670   33.2020   46.2200 C   0  0  0  0  0  0  0  0  0  0  0  0
   57.3060   33.8870   45.1850 Br  0  0  0  0  0  0  0  0  0  0  0  0
   57.2115   29.2650   42.8325 H   0  0  0  0  0  0  0  0  0  0  0  0
   55.5740   29.2684   42.0941 H   0  0  0  0  0  0  0  0  0  0  0  0
   56.5624   30.7683   42.0941 H   0  0  0  0  0  0  0  0  0  0  0  0
   56.1359   31.2218   44.3242 H   0  0  0  0  0  0  0  0  0  0  0  0
   54.6080   30.3396   43.8760 H   0  0  0  0  0  0  0  0  0  0  0  0
   55.8690   29.7230   46.0010 H   0  0  0  0  0  0  0  0  0  0  0  0
   57.3509   27.8031   45.6404 H   0  0  0  0  0  0  0  0  0  0  0  0
   57.4107   28.2806   43.9098 H   0  0  0  0  0  0  0  0  0  0  0  0
   56.9580   31.1170   45.9970 H   0  0  0  0  0  0  0  0  0  0  0  0
   60.1647   30.2955   47.3837 H   0  0  0  0  0  0  0  0  0  0  0  0
   61.8079   31.9264   48.3042 H   0  0  0  0  0  0  0  0  0  0  0  0
   61.5126   34.3694   47.8963 H   0  0  0  0  0  0  0  0  0  0  0  0
   59.5633   35.1873   46.5712 H   0  0  0  0  0  0  0  0  0  0  0  0
  1  2  1  0
  2  3  1  0
  3  4  1  0
  4  5  1  0
  5  6  2  0
  5  7  1  0
  7  8  1  0
  8  9  2  0
  9 10  1  0
 10 11  2  0
 11 12  1  0
 12 13  2  0
 13 14  1  0
 13  8  1  0
  1 15  1  0
  1 16  1  0
  1 17  1  0
  2 18  1  0
  2 19  1  0
  3 20  1  0
  4 21  1  0
  4 22  1  0
  7 23  1  0
  9 24  1  0
 10 25  1  0
 11 26  1  0
 12 27  1  0
M  END
>  <UniqueID>  (14) 
14

>  <SMILES>  (14) 
CCNCC(=O)Nc1ccccc1Br

>  <Energy>  (14) 
25.968985121235807

>  <Genealogy>  (14) 
CCNCC(=O)Nc1ccccc1Br (3D coordinates assigned)
CCNCC(=O)Nc1ccccc1Br (optimized conformer: 25.968985121235807 kcal/mol)

>  <smiles>  (14) 
CCNCC(=O)Nc1ccccc1Br

>  <score_type>  (14) 
oracle

>  <origin>  (14) 
adg

>  <m_score__min__energy>  (14) 
-5.9100000000000001

>  <m_primary>  (14) 
energy

$$$$
14:0
     RDKit          3D

 46 47  0  0  0  0  0  0  0  0999 V2000
   59.6460   33.3970   49.2000 C   0  0  0  0  0  0  0  0  0  0  0  0
   60.6850   34.2210   48.4300 C   0  0  0  0  0  0  0  0  0  0  0  0
   61.0250   33.6370   47.1060 N   0  0  0  0  0  0  0  0  0  0  0  0
   62.4590   33.8050   46.7370 C   0  0  0  0  0  0  0  0  0  0  0  0
   63.3900   32.7080   47.2740 C   0  0  0  0  0  0  0  0  0  0  0  0
   60.1380   34.1750   46.0390 C   0  0  0  0  0  0  0  0  0  0  0  0
   59.0490   33.1860   45.5810 C   0  0  0  0  0  0  0  0  0  0  0  0
   58.8760   32.1330   46.5300 O   0  0  0  0  0  0  0  0  0  0  0  0
   59.3790   30.8360   46.3580 C   0  0  0  0  0  0  0  0  0  0  0  0
   60.6240   30.6330   46.3500 O   0  0  0  0  0  0  0  0  0  0  0  0
   58.4430   29.7040   46.1810 C   0  0  0  0  0  0  0  0  0  0  0  0
   58.5840   28.5390   46.9540 C   0  0  0  0  0  0  0  0  0  0  0  0
   57.6990   27.4680   46.7920 C   0  0  0  0  0  0  0  0  0  0  0  0
   56.6480   27.5510   45.8640 C   0  0  0  0  0  0  0  0  0  0  0  0
   55.7310   26.4670   45.6500 N   0  0  0  0  0  0  0  0  0  0  0  0
   55.9230   25.0980   46.0290 C   0  0  0  0  0  0  0  0  0  0  0  0
   55.7070   24.7210   47.2130 O   0  0  0  0  0  0  0  0  0  0  0  0
   56.3230   24.1150   45.0140 C   0  0  0  0  0  0  0  0  0  0  0  0
   55.7830   23.9860   43.7400 C   0  0  0  0  0  0  0  0  0  0  0  0
   56.3670   22.9540   42.9940 C   0  0  0  0  0  0  0  0  0  0  0  0
   57.3630   22.2680   43.6770 C   0  0  0  0  0  0  0  0  0  0  0  0
   57.5190   22.9470   45.2070 S   0  0  0  0  0  0  0  0  0  0  0  0
   56.5210   28.7000   45.0760 C   0  0  0  0  0  0  0  0  0  0  0  0
   57.4040   29.7720   45.2360 C   0  0  0  0  0  0  0  0  0  0  0  0
   59.8056   33.5236   50.2810 H   0  0  0  0  0  0  0  0  0  0  0  0
   58.6355   33.7419   48.9357 H   0  0  0  0  0  0  0  0  0  0  0  0
   59.7516   32.3345   48.9357 H   0  0  0  0  0  0  0  0  0  0  0  0
   60.2837   35.2332   48.2739 H   0  0  0  0  0  0  0  0  0  0  0  0
   61.6064   34.2324   49.0307 H   0  0  0  0  0  0  0  0  0  0  0  0
   60.8740   32.6040   47.1660 H   0  0  0  0  0  0  0  0  0  0  0  0
   62.5325   33.8105   45.6395 H   0  0  0  0  0  0  0  0  0  0  0  0
   62.7907   34.7479   47.1963 H   0  0  0  0  0  0  0  0  0  0  0  0
   63.3776   32.7226   48.3738 H   0  0  0  0  0  0  0  0  0  0  0  0
   63.0448   31.7267   46.9164 H   0  0  0  0  0  0  0  0  0  0  0  0
   64.4144   32.8890   46.9164 H   0  0  0  0  0  0  0  0  0  0  0  0
   59.6454   35.0812   46.4212 H   0  0  0  0  0  0  0  0  0  0  0  0
   60.7742   34.3795   45.1653 H   0  0  0  0  0  0  0  0  0  0  0  0
   58.0978   33.7268   45.4676 H   0  0  0  0  0  0  0  0  0  0  0  0
   59.3603   32.7440   44.6230 H   0  0  0  0  0  0  0  0  0  0  0  0
   59.3965   28.4688   47.6921 H   0  0  0  0  0  0  0  0  0  0  0  0
   57.8268   26.5564   47.3943 H   0  0  0  0  0  0  0  0  0  0  0  0
   54.9779   24.6296   43.3559 H   0  0  0  0  0  0  0  0  0  0  0  0
   56.0653   22.7101   41.9647 H   0  0  0  0  0  0  0  0  0  0  0  0
   57.9495   21.4245   43.2840 H   0  0  0  0  0  0  0  0  0  0  0  0
   55.7200   28.7604   44.3245 H   0  0  0  0  0  0  0  0  0  0  0  0
   57.2852   30.6746   44.6186 H   0  0  0  0  0  0  0  0  0  0  0  0
  1  2  1  0
  2  3  1  0
  3  4  1  0
  4  5  1  0
  3  6  1  0
  6  7  1  0
  7  8  1  0
  8  9  1  0
  9 10  2  0
  9 11  1  0
 11 12  2  0
 12 13  1  0
 13 14  2  0
 14 15  1  0
 15 16  1  0
 16 17  2  0
 16 18  1  0
 18 19  2  0
 19 20  1  0
 20 21  2  0
 21 22  1  0
 14 23  1  0
 23 24  2  0
 24 11  1  0
 22 18  1  0
  1 25  1  0
  1 26  1  0
  1 27  1  0
  2 28  1  0
  2 29  1  0
  3 30  1  0
  4 31  1  0
  4 32  1  0
  5 33  1  0
  5 34  1  0
  5 35  1  0
  6 36  1  0
  6 37  1  0
  7 38  1  0
  7 39  1  0
 12 40  1  0
 13 41  1  0
 19 42  1  0
 20 43  1  0
 21 44  1  0
 23 45  1  0
 24 46  1  0
M  CHG  2   3   1  15  -1
M  END
>  <UniqueID>  (15) 
15

>  <SMILES>  (15) 
CC[NH+](CC)CCOC(=O)c1ccc([N-]C(=O)c2cccs2)cc1

>  <Energy>  (15) 
76.78162612457108

>  <Genealogy>  (15) 
CC[NH+](CC)CCOC(=O)c1ccc([N-]C(=O)c2cccs2)cc1 (protonated)
CC[NH+](CC)CCOC(=O)c1ccc([N-]C(=O)c2cccs2)cc1 (3D coordinates assigned)
CC[NH+](CC)CCOC(=O)c1ccc([N-]C(=O)c2cccs2)cc1 (optimized conformer: 76.78162612457108 kcal/mol)

>  <smiles>  (15) 
CCN(CC)CCOC(=O)c1ccc(NC(=O)c2cccs2)cc1

>  <score_type>  (15) 
oracle

>  <origin>  (15) 
adg

>  <m_score__min__energy>  (15) 
-7.0300000000000002

>  <m_primary>  (15) 
energy

$$$$
15:0
     RDKit          3D

 46 49  0  0  0  0  0  0  0  0999 V2000
   66.5550   33.2860   52.3670 C   0  0  0  0  0  0  0  0  0  0  0  0
   67.1860   32.6500   51.2790 C   0  0  0  0  0  0  0  0  0  0  0  0
   66.5460   32.5290   50.0800 N   0  0  0  0  0  0  0  0  0  0  0  0
   65.2920   33.0310   49.9530 C   0  0  0  0  0  0  0  0  0  0  0  0
   64.5500   32.9880   48.8300 N   0  0  0  0  0  0  0  0  0  0  0  0
   63.3990   33.6100   49.1960 C   0  0  0  0  0  0  0  0  0  0  0  0
   62.2580   33.8220   48.2730 C   0  0  0  0  0  0  0  0  0  0  0  0
   60.9950   34.2200   48.7500 C   0  0  0  0  0  0  0  0  0  0  0  0
   59.9340   34.4290   47.8640 C   0  0  0  0  0  0  0  0  0  0  0  0
   60.1120   34.2470   46.4830 C   0  0  0  0  0  0  0  0  0  0  0  0
   59.0240   34.4940   45.5660 N   0  0  0  0  0  0  0  0  0  0  0  0
   57.7260   34.0860   46.1330 C   0  0  0  0  0  0  0  0  0  0  0  0
   57.0400   32.9640   45.3300 C   0  0  0  0  0  0  0  0  0  0  0  0
   58.0390   32.1000   44.6590 N   0  0  0  0  0  0  0  0  0  0  0  0
   58.5190   31.0010   45.5320 C   0  0  0  0  0  0  0  0  0  0  0  0
   57.7000   29.7050   45.3560 C   0  0  0  0  0  0  0  0  0  0  0  0
   56.3940   29.9990   44.9050 O   0  0  0  0  0  0  0  0  0  0  0  0
   56.4410   30.5030   43.5810 C   0  0  0  0  0  0  0  0  0  0  0  0
   57.5420   31.5700   43.3750 C   0  0  0  0  0  0  0  0  0  0  0  0
   61.3680   33.8370   46.0070 C   0  0  0  0  0  0  0  0  0  0  0  0
   62.4280   33.6270   46.8910 C   0  0  0  0  0  0  0  0  0  0  0  0
   63.4770   34.0140   50.5290 C   0  0  0  0  0  0  0  0  0  0  0  0
   64.6810   33.6370   50.9780 N   0  0  0  0  0  0  0  0  0  0  0  0
   65.2600   33.7910   52.1930 C   0  0  0  0  0  0  0  0  0  0  0  0
   67.0696   33.3840   53.3343 H   0  0  0  0  0  0  0  0  0  0  0  0
   68.2030   32.2478   51.3974 H   0  0  0  0  0  0  0  0  0  0  0  0
   60.8415   34.3679   49.8291 H   0  0  0  0  0  0  0  0  0  0  0  0
   58.9522   34.7384   48.2516 H   0  0  0  0  0  0  0  0  0  0  0  0
   58.9920   35.5010   45.2850 H   0  0  0  0  0  0  0  0  0  0  0  0
   59.1930   33.9390   44.6930 H   0  0  0  0  0  0  0  0  0  0  0  0
   57.8895   33.7307   47.1611 H   0  0  0  0  0  0  0  0  0  0  0  0
   57.0640   34.9638   46.1003 H   0  0  0  0  0  0  0  0  0  0  0  0
   56.4362   32.3501   46.0145 H   0  0  0  0  0  0  0  0  0  0  0  0
   56.4037   33.4247   44.5601 H   0  0  0  0  0  0  0  0  0  0  0  0
   59.5704   30.7897   45.2871 H   0  0  0  0  0  0  0  0  0  0  0  0
   58.4045   31.3293   46.5756 H   0  0  0  0  0  0  0  0  0  0  0  0
   58.1998   29.0588   44.6194 H   0  0  0  0  0  0  0  0  0  0  0  0
   57.6327   29.1936   46.3276 H   0  0  0  0  0  0  0  0  0  0  0  0
   56.6329   29.6653   42.8944 H   0  0  0  0  0  0  0  0  0  0  0  0
   55.4740   30.9875   43.3806 H   0  0  0  0  0  0  0  0  0  0  0  0
   58.3814   31.1146   42.8291 H   0  0  0  0  0  0  0  0  0  0  0  0
   57.1066   32.4049   42.8063 H   0  0  0  0  0  0  0  0  0  0  0  0
   61.5179   33.6800   44.9286 H   0  0  0  0  0  0  0  0  0  0  0  0
   63.4057   33.3058   46.5025 H   0  0  0  0  0  0  0  0  0  0  0  0
   62.6992   34.5409   51.1012 H   0  0  0  0  0  0  0  0  0  0  0  0
   64.7312   34.2955   53.0151 H   0  0  0  0  0  0  0  0  0  0  0  0
  1  2  1  0
  2  3  2  0
  3  4  1  0
  4  5  2  0
  5  6  1  0
  6  7  1  0
  7  8  2  0
  8  9  1  0
  9 10  2  0
 10 11  1  0
 11 12  1  0
 12 13  1  0
 13 14  1  0
 14 15  1  0
 15 16  1  0
 16 17  1  0
 17 18  1  0
 18 19  1  0
 10 20  1  0
 20 21  2  0
  6 22  2  0
 22 23  1  0
 23 24  1  0
 24  1  2  0
 23  4  1  0
 21  7  1  0
 19 14  1  0
  1 25  1  0
  2 26  1  0
  8 27  1  0
  9 28  1  0
 11 29  1  0
 11 30  1  0
 12 31  1  0
 12 32  1  0
 13 33  1  0
 13 34  1  0
 15 35  1  0
 15 36  1  0
 16 37  1  0
 16 38  1  0
 18 39  1  0
 18 40  1  0
 19 41  1  0
 19 42  1  0
 20 43  1  0
 21 44  1  0
 22 45  1  0
 24 46  1  0
M  CHG  1  11   1
M  END
>  <UniqueID>  (16) 
16

>  <SMILES>  (16) 
c1cnc2nc(-c3ccc([NH2+]CCN4CCOCC4)cc3)cn2c1

>  <Energy>  (16) 
98.68014248776086

>  <Genealogy>  (16) 
c1cnc2nc(-c3ccc([NH2+]CCN4CCOCC4)cc3)cn2c1 (protonated)
c1cnc2nc(-c3ccc([NH2+]CCN4CCOCC4)cc3)cn2c1 (3D coordinates assigned)
c1cnc2nc(-c3ccc([NH2+]CCN4CCOCC4)cc3)cn2c1 (nonaromatic ring conformer: 98.68014248776086 kcal/mol)

>  <smiles>  (16) 
c1cnc2nc(-c3ccc(NCCN4CCOCC4)cc3)cn2c1

>  <score_type>  (16) 
oracle

>  <origin>  (16) 
adg

>  <m_score__min__energy>  (16) 
-5.7300000000000004

>  <m_primary>  (16) 
energy

$$$$
16:0
     RDKit          3D

 57 61  0  0  0  0  0  0  0  0999 V2000
   63.0690   32.5310   47.1430 C   0  0  0  0  0  0  0  0  0  0  0  0
   62.4930   32.9840   48.4570 C   0  0  0  0  0  0  0  0  0  0  0  0
   63.3640   33.4060   49.4750 C   0  0  0  0  0  0  0  0  0  0  0  0
   62.8600   33.8340   50.7060 C   0  0  0  0  0  0  0  0  0  0  0  0
   61.4830   33.8420   50.9350 C   0  0  0  0  0  0  0  0  0  0  0  0
   60.6060   33.4070   49.9390 C   0  0  0  0  0  0  0  0  0  0  0  0
   61.0990   32.9540   48.7060 C   0  0  0  0  0  0  0  0  0  0  0  0
   60.1710   32.4860   47.7050 N   0  0  0  0  0  0  0  0  0  0  0  0
   59.5440   31.2650   47.8340 C   0  0  0  0  0  0  0  0  0  0  0  0
   59.7410   30.4090   49.0310 C   0  0  0  0  0  0  0  0  0  0  0  0
   60.7600   29.4420   49.0370 C   0  0  0  0  0  0  0  0  0  0  0  0
   60.9510   28.6290   50.1580 C   0  0  0  0  0  0  0  0  0  0  0  0
   60.1180   28.7630   51.2710 C   0  0  0  0  0  0  0  0  0  0  0  0
   59.0860   29.7070   51.2620 C   0  0  0  0  0  0  0  0  0  0  0  0
   58.8930   30.5230   50.1440 C   0  0  0  0  0  0  0  0  0  0  0  0
   58.7280   30.8090   46.8410 N   0  0  0  0  0  0  0  0  0  0  0  0
   58.4910   31.5540   45.7250 C   0  0  0  0  0  0  0  0  0  0  0  0
   57.6510   31.1030   44.6900 C   0  0  0  0  0  0  0  0  0  0  0  0
   56.9800   29.8340   44.7770 N   0  0  0  0  0  0  0  0  0  0  0  0
   55.6030   29.7860   44.2780 C   0  0  0  0  0  0  0  0  0  0  0  0
   57.7820   28.5950   44.8050 C   0  0  0  0  0  0  0  0  0  0  0  0
   57.7300   27.8960   46.1610 C   0  0  0  0  0  0  0  0  0  0  0  0
   59.0070   27.0700   46.2470 C   0  0  0  0  0  0  0  0  0  0  0  0
   59.9940   27.6830   45.2560 C   0  0  0  0  0  0  0  0  0  0  0  0
   59.2740   28.8480   44.5880 C   0  0  0  0  0  0  0  0  0  0  0  0
   57.4730   31.8800   43.5870 N   0  0  0  0  0  0  0  0  0  0  0  0
   58.0840   33.0860   43.4670 C   0  0  0  0  0  0  0  0  0  0  0  0
   58.8940   33.5410   44.4580 N   0  0  0  0  0  0  0  0  0  0  0  0
   59.1080   32.8010   45.5800 C   0  0  0  0  0  0  0  0  0  0  0  0
   59.9540   33.2560   46.5920 C   0  0  0  0  0  0  0  0  0  0  0  0
   60.5270   34.3750   46.4650 O   0  0  0  0  0  0  0  0  0  0  0  0
   63.9213   31.8607   47.3279 H   0  0  0  0  0  0  0  0  0  0  0  0
   62.2982   31.9946   46.5702 H   0  0  0  0  0  0  0  0  0  0  0  0
   63.4086   33.4065   46.5702 H   0  0  0  0  0  0  0  0  0  0  0  0
   64.4503   33.3995   49.3020 H   0  0  0  0  0  0  0  0  0  0  0  0
   63.5498   34.1653   51.4962 H   0  0  0  0  0  0  0  0  0  0  0  0
   61.0884   34.1912   51.9006 H   0  0  0  0  0  0  0  0  0  0  0  0
   59.5215   33.4196   50.1224 H   0  0  0  0  0  0  0  0  0  0  0  0
   61.4095   29.3242   48.1570 H   0  0  0  0  0  0  0  0  0  0  0  0
   61.7588   27.8824   50.1635 H   0  0  0  0  0  0  0  0  0  0  0  0
   60.2735   28.1263   52.1544 H   0  0  0  0  0  0  0  0  0  0  0  0
   58.4255   29.8073   52.1359 H   0  0  0  0  0  0  0  0  0  0  0  0
   58.0738   31.2571   50.1361 H   0  0  0  0  0  0  0  0  0  0  0  0
   58.2720   29.8760   46.9510 H   0  0  0  0  0  0  0  0  0  0  0  0
   54.9055   29.7617   45.1283 H   0  0  0  0  0  0  0  0  0  0  0  0
   55.4036   30.6777   43.6656 H   0  0  0  0  0  0  0  0  0  0  0  0
   55.4662   28.8825   43.6656 H   0  0  0  0  0  0  0  0  0  0  0  0
   57.3407   27.9895   43.9996 H   0  0  0  0  0  0  0  0  0  0  0  0
   57.6967   28.6367   46.9735 H   0  0  0  0  0  0  0  0  0  0  0  0
   56.8323   27.2681   46.2604 H   0  0  0  0  0  0  0  0  0  0  0  0
   59.4179   27.1123   47.2665 H   0  0  0  0  0  0  0  0  0  0  0  0
   58.8118   26.0140   46.0089 H   0  0  0  0  0  0  0  0  0  0  0  0
   60.8887   28.0430   45.7850 H   0  0  0  0  0  0  0  0  0  0  0  0
   60.3222   26.9412   44.5130 H   0  0  0  0  0  0  0  0  0  0  0  0
   59.5726   29.7996   45.0520 H   0  0  0  0  0  0  0  0  0  0  0  0
   59.5216   28.9173   43.5185 H   0  0  0  0  0  0  0  0  0  0  0  0
   57.9230   33.6959   42.5658 H   0  0  0  0  0  0  0  0  0  0  0  0
  1  2  1  0
  2  3  2  0
  3  4  1  0
  4  5  2  0
  5  6  1  0
  6  7  2  0
  7  8  1  0
  8  9  1  0
  9 10  1  0
 10 11  2  0
 11 12  1  0
 12 13  2  0
 13 14  1  0
 14 15  2  0
  9 16  2  0
 16 17  1  0
 17 18  2  0
 18 19  1  0
 19 20  1  0
 19 21  1  0
 21 22  1  0
 22 23  1  0
 23 24  1  0
 24 25  1  0
 18 26  1  0
 26 27  2  0
 27 28  1  0
 28 29  2  0
 29 30  1  0
 30 31  2  0
  7  2  1  0
 30  8  1  0
 15 10  1  0
 29 17  1  0
 25 21  1  0
  1 32  1  0
  1 33  1  0
  1 34  1  0
  3 35  1  0
  4 36  1  0
  5 37  1  0
  6 38  1  0
 11 39  1  0
 12 40  1  0
 13 41  1  0
 14 42  1  0
 15 43  1  0
 16 44  1  0
 20 45  1  0
 20 46  1  0
 20 47  1  0
 21 48  1  0
 22 49  1  0
 22 50  1  0
 23 51  1  0
 23 52  1  0
 24 53  1  0
 24 54  1  0
 25 55  1  0
 25 56  1  0
 27 57  1  0
M  CHG  1  16   1
M  END
>  <UniqueID>  (17) 
17

>  <SMILES>  (17) 
Cc1ccccc1-n1c(-c2ccccc2)[nH+]c2c(N(C)C3CCCC3)ncnc2c1=O

>  <Energy>  (17) 
88.54127603606045

>  <Genealogy>  (17) 
Cc1ccccc1-n1c(-c2ccccc2)[nH+]c2c(N(C)C3CCCC3)ncnc2c1=O (protonated)
Cc1ccccc1-n1c(-c2ccccc2)[nH+]c2c(N(C)C3CCCC3)ncnc2c1=O (3D coordinates assigned)
Cc1ccccc1-n1c(-c2ccccc2)[nH+]c2c(N(C)C3CCCC3)ncnc2c1=O (nonaromatic ring conformer: 88.54127603606045 kcal/mol)

>  <smiles>  (17) 
Cc1ccccc1-n1c(-c2ccccc2)nc2c(N(C)C3CCCC3)ncnc2c1=O

>  <score_type>  (17) 
oracle

>  <origin>  (17) 
adg

>  <m_score__min__energy>  (17) 
-7.25

>  <m_primary>  (17) 
energy

$$$$
17:0
     RDKit          3D

 53 56  0  0  0  0  0  0  0  0999 V2000
   66.2060   34.4200   51.6450 C   0  0  0  0  0  0  0  0  0  0  0  0
   64.6870   34.5650   51.6260 C   0  0  0  0  0  0  0  0  0  0  0  0
   64.0790   33.5010   50.8290 N   0  0  0  0  0  0  0  0  0  0  0  0
   63.0980   33.7650   49.8130 C   0  0  0  0  0  0  0  0  0  0  0  0
   62.8070   34.9580   49.5220 O   0  0  0  0  0  0  0  0  0  0  0  0
   62.4290   32.6600   49.0840 C   0  0  0  0  0  0  0  0  0  0  0  0
   62.8430   32.2760   47.7970 C   0  0  0  0  0  0  0  0  0  0  0  0
   62.2050   31.2300   47.1260 C   0  0  0  0  0  0  0  0  0  0  0  0
   61.1440   30.5360   47.7310 C   0  0  0  0  0  0  0  0  0  0  0  0
   60.4660   29.4240   47.0180 C   0  0  0  0  0  0  0  0  0  0  0  0
   60.3710   29.4280   45.6140 C   0  0  0  0  0  0  0  0  0  0  0  0
   59.7250   28.3870   44.9400 C   0  0  0  0  0  0  0  0  0  0  0  0
   59.1650   27.3290   45.6590 C   0  0  0  0  0  0  0  0  0  0  0  0
   58.5300   26.3180   45.0100 N   0  0  0  0  0  0  0  0  0  0  0  0
   57.9760   25.2780   45.6930 C   0  0  0  0  0  0  0  0  0  0  0  0
   57.3030   24.2170   44.9850 N   0  0  0  0  0  0  0  0  0  0  0  0
   57.2640   24.2220   43.5170 C   0  0  0  0  0  0  0  0  0  0  0  0
   56.1600   23.2920   42.9960 C   0  0  0  0  0  0  0  0  0  0  0  0
   56.2530   21.9170   43.5420 N   0  0  0  0  0  0  0  0  0  0  0  0
   56.9870   21.0300   42.6270 C   0  0  0  0  0  0  0  0  0  0  0  0
   56.7980   21.8240   44.9210 C   0  0  0  0  0  0  0  0  0  0  0  0
   56.6390   23.1270   45.7100 C   0  0  0  0  0  0  0  0  0  0  0  0
   58.0600   25.2470   47.0530 N   0  0  0  0  0  0  0  0  0  0  0  0
   58.6850   26.2330   47.7460 C   0  0  0  0  0  0  0  0  0  0  0  0
   59.2560   27.3100   47.0630 C   0  0  0  0  0  0  0  0  0  0  0  0
   59.9050   28.3540   47.7380 C   0  0  0  0  0  0  0  0  0  0  0  0
   60.7370   30.9100   49.0220 C   0  0  0  0  0  0  0  0  0  0  0  0
   61.3750   31.9580   49.6920 C   0  0  0  0  0  0  0  0  0  0  0  0
   66.5581   34.3864   52.6866 H   0  0  0  0  0  0  0  0  0  0  0  0
   66.4921   33.4905   51.1311 H   0  0  0  0  0  0  0  0  0  0  0  0
   66.6628   35.2786   51.1311 H   0  0  0  0  0  0  0  0  0  0  0  0
   64.3054   34.5082   52.6561 H   0  0  0  0  0  0  0  0  0  0  0  0
   64.4288   35.5358   51.1778 H   0  0  0  0  0  0  0  0  0  0  0  0
   64.3930   32.5220   51.0100 H   0  0  0  0  0  0  0  0  0  0  0  0
   63.6777   32.8044   47.3132 H   0  0  0  0  0  0  0  0  0  0  0  0
   62.5361   30.9475   46.1158 H   0  0  0  0  0  0  0  0  0  0  0  0
   60.8093   30.2584   45.0410 H   0  0  0  0  0  0  0  0  0  0  0  0
   59.6579   28.4015   43.8421 H   0  0  0  0  0  0  0  0  0  0  0  0
   57.0684   25.2457   43.1653 H   0  0  0  0  0  0  0  0  0  0  0  0
   58.2329   23.8645   43.1382 H   0  0  0  0  0  0  0  0  0  0  0  0
   55.1842   23.7151   43.2769 H   0  0  0  0  0  0  0  0  0  0  0  0
   56.2789   23.2206   41.9048 H   0  0  0  0  0  0  0  0  0  0  0  0
   57.5814   20.3117   43.2108 H   0  0  0  0  0  0  0  0  0  0  0  0
   56.2724   20.4848   41.9929 H   0  0  0  0  0  0  0  0  0  0  0  0
   57.6563   21.6300   41.9929 H   0  0  0  0  0  0  0  0  0  0  0  0
   56.2674   21.0223   45.4555 H   0  0  0  0  0  0  0  0  0  0  0  0
   57.8749   21.6155   44.8386 H   0  0  0  0  0  0  0  0  0  0  0  0
   55.5699   23.3593   45.8242 H   0  0  0  0  0  0  0  0  0  0  0  0
   57.0956   23.0139   46.7043 H   0  0  0  0  0  0  0  0  0  0  0  0
   58.7418   26.1841   48.8434 H   0  0  0  0  0  0  0  0  0  0  0  0
   59.9756   28.3359   48.8356 H   0  0  0  0  0  0  0  0  0  0  0  0
   59.9096   30.3740   49.5099 H   0  0  0  0  0  0  0  0  0  0  0  0
   61.0485   32.2356   50.7051 H   0  0  0  0  0  0  0  0  0  0  0  0
  1  2  1  0
  2  3  1  0
  3  4  1  0
  4  5  2  0
  4  6  1  0
  6  7  2  0
  7  8  1  0
  8  9  2  0
  9 10  1  0
 10 11  2  0
 11 12  1  0
 12 13  2  0
 13 14  1  0
 14 15  2  0
 15 16  1  0
 16 17  1  0
 17 18  1  0
 18 19  1  0
 19 20  1  0
 19 21  1  0
 21 22  1  0
 15 23  1  0
 23 24  2  0
 24 25  1  0
 25 26  2  0
  9 27  1  0
 27 28  2  0
 28  6  1  0
 26 10  1  0
 25 13  1  0
 22 16  1  0
  1 29  1  0
  1 30  1  0
  1 31  1  0
  2 32  1  0
  2 33  1  0
  3 34  1  0
  7 35  1  0
  8 36  1  0
 11 37  1  0
 12 38  1  0
 17 39  1  0
 17 40  1  0
 18 41  1  0
 18 42  1  0
 20 43  1  0
 20 44  1  0
 20 45  1  0
 21 46  1  0
 21 47  1  0
 22 48  1  0
 22 49  1  0
 24 50  1  0
 26 51  1  0
 27 52  1  0
 28 53  1  0
M  END
>  <UniqueID>  (18) 
18

>  <SMILES>  (18) 
CCNC(=O)c1ccc(-c2ccc3nc(N4CCN(C)CC4)ncc3c2)cc1

>  <Energy>  (18) 
69.76516763526969

>  <Genealogy>  (18) 
CCNC(=O)c1ccc(-c2ccc3nc(N4CCN(C)CC4)ncc3c2)cc1 (3D coordinates assigned)
CCNC(=O)c1ccc(-c2ccc3nc(N4CCN(C)CC4)ncc3c2)cc1 (nonaromatic ring conformer: 69.76516763526969 kcal/mol)

>  <smiles>  (18) 
CCNC(=O)c1ccc(-c2ccc3nc(N4CCN(C)CC4)ncc3c2)cc1

>  <score_type>  (18) 
oracle

>  <origin>  (18) 
adg

>  <m_score__min__energy>  (18) 
-6.96

>  <m_primary>  (18) 
energy

$$$$
18:0
     RDKit          3D

 38 40  0  0  0  0  0  0  0  0999 V2000
   63.3330   32.6740   47.1950 C   0  0  0  0  0  0  0  0  0  0  0  0
   62.2060   33.5230   47.1640 O   0  0  0  0  0  0  0  0  0  0  0  0
   61.1310   32.9370   47.8710 C   0  0  0  0  0  0  0  0  0  0  0  0
   59.9170   32.8310   46.9980 C   0  0  0  0  0  0  0  0  0  0  0  0
   58.9930   33.7440   46.9430 N   0  0  0  0  0  0  0  0  0  0  0  0
   57.9460   33.2610   46.0230 C   0  0  1  0  0  0  0  0  0  0  0  0
   57.7840   34.2110   44.8420 C   0  0  0  0  0  0  0  0  0  0  0  0
   58.4640   31.9730   45.5820 N   0  0  0  0  0  0  0  0  0  0  0  0
   57.8550   30.7870   45.3990 C   0  0  0  0  0  0  0  0  0  0  0  0
   56.6760   30.6610   44.9730 O   0  0  0  0  0  0  0  0  0  0  0  0
   58.6470   29.7600   45.8030 N   0  0  0  0  0  0  0  0  0  0  0  0
   58.3530   28.3510   45.8530 C   0  0  0  0  0  0  0  0  0  0  0  0
   59.3870   27.3990   45.8460 C   0  0  0  0  0  0  0  0  0  0  0  0
   59.0900   26.0360   45.8910 C   0  0  0  0  0  0  0  0  0  0  0  0
   57.7610   25.6050   45.9420 C   0  0  0  0  0  0  0  0  0  0  0  0
   56.7130   26.5450   45.9470 C   0  0  0  0  0  0  0  0  0  0  0  0
   55.3640   26.1660   45.9970 O   0  0  0  0  0  0  0  0  0  0  0  0
   54.8730   24.8870   45.6110 C   0  0  0  0  0  0  0  0  0  0  0  0
   57.0190   27.9120   45.8990 C   0  0  0  0  0  0  0  0  0  0  0  0
   59.7240   30.4050   46.3210 C   0  0  0  0  0  0  0  0  0  0  0  0
   60.6400   29.8470   46.9810 O   0  0  0  0  0  0  0  0  0  0  0  0
   59.6140   31.7370   46.1530 N   0  0  0  0  0  0  0  0  0  0  0  0
   63.6076   32.4671   48.2399 H   0  0  0  0  0  0  0  0  0  0  0  0
   63.0945   31.7292   46.6846 H   0  0  0  0  0  0  0  0  0  0  0  0
   64.1753   33.1639   46.6846 H   0  0  0  0  0  0  0  0  0  0  0  0
   61.4244   31.9308   48.2050 H   0  0  0  0  0  0  0  0  0  0  0  0
   60.8896   33.5715   48.7365 H   0  0  0  0  0  0  0  0  0  0  0  0
   56.9536   33.1923   46.4926 H   0  0  0  0  0  0  0  0  0  0  0  0
   57.6100   35.2316   45.2136 H   0  0  0  0  0  0  0  0  0  0  0  0
   58.6979   34.1945   44.2301 H   0  0  0  0  0  0  0  0  0  0  0  0
   56.9272   33.8925   44.2301 H   0  0  0  0  0  0  0  0  0  0  0  0
   60.4353   27.7297   45.8049 H   0  0  0  0  0  0  0  0  0  0  0  0
   59.9053   25.2975   45.8863 H   0  0  0  0  0  0  0  0  0  0  0  0
   57.5338   24.5293   45.9783 H   0  0  0  0  0  0  0  0  0  0  0  0
   54.6457   24.2950   46.5098 H   0  0  0  0  0  0  0  0  0  0  0  0
   53.9584   25.0107   45.0124 H   0  0  0  0  0  0  0  0  0  0  0  0
   55.6354   24.3669   45.0124 H   0  0  0  0  0  0  0  0  0  0  0  0
   56.2041   28.6509   45.8973 H   0  0  0  0  0  0  0  0  0  0  0  0
  1  2  1  0
  2  3  1  0
  3  4  1  0
  4  5  2  0
  5  6  1  0
  6  7  1  0
  6  8  1  0
  8  9  1  0
  9 10  2  0
  9 11  1  0
 11 12  1  0
 12 13  2  0
 13 14  1  0
 14 15  2  0
 15 16  1  0
 16 17  1  0
 17 18  1  0
 16 19  2  0
 11 20  1  0
 20 21  2  0
 20 22  1  0
 22  4  1  0
 22  8  1  0
 19 12  1  0
  1 23  1  0
  1 24  1  0
  1 25  1  0
  3 26  1  0
  3 27  1  0
  6 28  1  1
  7 29  1  0
  7 30  1  0
  7 31  1  0
 13 32  1  0
 14 33  1  0
 15 34  1  0
 18 35  1  0
 18 36  1  0
 18 37  1  0
 19 38  1  0
M  END
>  <UniqueID>  (19) 
19

>  <SMILES>  (19) 
COCC1=N[C@@H](C)n2c(=O)n(-c3cccc(OC)c3)c(=O)n21

>  <Energy>  (19) 
128.52896758412004

>  <Genealogy>  (19) 
COCC1=N[C@@H](C)n2c(=O)n(-c3cccc(OC)c3)c(=O)n21 (chirality)
COCC1=N[C@@H](C)n2c(=O)n(-c3cccc(OC)c3)c(=O)n21 (3D coordinates assigned)
COCC1=N[C@@H](C)n2c(=O)n(-c3cccc(OC)c3)c(=O)n21 (nonaromatic ring conformer: 128.52896758412004 kcal/mol)

>  <smiles>  (19) 
COCC1=NC(C)n2c(=O)n(-c3cccc(OC)c3)c(=O)n21

>  <score_type>  (19) 
oracle

>  <origin>  (19) 
adg

>  <m_score__min__energy>  (19) 
-7.0099999999999998

>  <m_primary>  (19) 
energy

$$$$
19:0
     RDKit          3D

 31 32  0  0  0  0  0  0  0  0999 V2000
   62.1440   33.8230   46.9350 C   0  0  0  0  0  0  0  0  0  0  0  0
   60.6620   33.7750   46.7960 C   0  0  0  0  0  0  0  0  0  0  0  0
   60.0250   33.7590   45.6050 N   0  0  0  0  0  0  0  0  0  0  0  0
   58.6730   33.7760   45.7550 C   0  0  0  0  0  0  0  0  0  0  0  0
   57.7480   33.7020   44.5750 C   0  0  0  0  0  0  0  0  0  0  0  0
   57.6160   32.2630   44.0810 C   0  0  0  0  0  0  0  0  0  0  0  0
   56.6050   31.5560   44.8710 N   0  0  0  0  0  0  0  0  0  0  0  0
   56.4480   29.9090   44.3440 S   0  0  0  0  0  0  0  0  0  0  0  0
   55.1520   29.3460   44.8560 O   0  0  0  0  0  0  0  0  0  0  0  0
   56.4350   29.8490   42.8410 O   0  0  0  0  0  0  0  0  0  0  0  0
   57.7860   28.9590   44.9840 C   0  0  0  0  0  0  0  0  0  0  0  0
   57.5440   27.8100   45.7520 C   0  0  0  0  0  0  0  0  0  0  0  0
   58.6150   27.0510   46.2360 C   0  0  0  0  0  0  0  0  0  0  0  0
   59.9290   27.4360   45.9570 C   0  0  0  0  0  0  0  0  0  0  0  0
   60.9660   26.6980   46.4260 F   0  0  0  0  0  0  0  0  0  0  0  0
   60.1750   28.5750   45.1850 C   0  0  0  0  0  0  0  0  0  0  0  0
   59.1060   29.3340   44.6970 C   0  0  0  0  0  0  0  0  0  0  0  0
   58.2240   33.8040   47.0740 C   0  0  0  0  0  0  0  0  0  0  0  0
   59.5730   33.8300   48.0750 S   0  0  0  0  0  0  0  0  0  0  0  0
   62.4121   33.8317   48.0018 H   0  0  0  0  0  0  0  0  0  0  0  0
   62.5863   32.9387   46.4529 H   0  0  0  0  0  0  0  0  0  0  0  0
   62.5282   34.7341   46.4529 H   0  0  0  0  0  0  0  0  0  0  0  0
   56.7560   34.0748   44.8700 H   0  0  0  0  0  0  0  0  0  0  0  0
   58.1615   34.3179   43.7628 H   0  0  0  0  0  0  0  0  0  0  0  0
   57.3153   32.2666   43.0229 H   0  0  0  0  0  0  0  0  0  0  0  0
   58.5840   31.7520   44.1904 H   0  0  0  0  0  0  0  0  0  0  0  0
   56.5106   27.5055   45.9739 H   0  0  0  0  0  0  0  0  0  0  0  0
   58.4224   26.1500   46.8369 H   0  0  0  0  0  0  0  0  0  0  0  0
   61.2095   28.8746   44.9611 H   0  0  0  0  0  0  0  0  0  0  0  0
   59.3017   30.2277   44.0863 H   0  0  0  0  0  0  0  0  0  0  0  0
   57.1738   33.8083   47.4013 H   0  0  0  0  0  0  0  0  0  0  0  0
  1  2  1  0
  2  3  2  0
  3  4  1  0
  4  5  1  0
  5  6  1  0
  6  7  1  0
  7  8  1  0
  8  9  2  0
  8 10  2  0
  8 11  1  0
 11 12  2  0
 12 13  1  0
 13 14  2  0
 14 15  1  0
 14 16  1  0
 16 17  2  0
  4 18  2  0
 18 19  1  0
 19  2  1  0
 17 11  1  0
  1 20  1  0
  1 21  1  0
  1 22  1  0
  5 23  1  0
  5 24  1  0
  6 25  1  0
  6 26  1  0
 12 27  1  0
 13 28  1  0
 16 29  1  0
 17 30  1  0
 18 31  1  0
M  CHG  1   7  -1
M  END
>  <UniqueID>  (20) 
20

>  <SMILES>  (20) 
Cc1nc(CC[N-]S(=O)(=O)c2ccc(F)cc2)cs1

>  <Energy>  (20) 
51.28041920782553

>  <Genealogy>  (20) 
Cc1nc(CC[N-]S(=O)(=O)c2ccc(F)cc2)cs1 (protonated)
Cc1nc(CC[N-]S(=O)(=O)c2ccc(F)cc2)cs1 (3D coordinates assigned)
Cc1nc(CC[N-]S(=O)(=O)c2ccc(F)cc2)cs1 (optimized conformer: 51.28041920782553 kcal/mol)

>  <smiles>  (20) 
Cc1nc(CCNS(=O)(=O)c2ccc(F)cc2)cs1

>  <score_type>  (20) 
oracle

>  <origin>  (20) 
adg

>  <m_score__min__energy>  (20) 
-8.6799999999999997

>  <m_primary>  (20) 
energy

$$$$
20:0
     RDKit          3D

 41 41  0  0  0  0  0  0  0  0999 V2000
   63.0110   34.2110   50.7980 C   0  0  0  0  0  0  0  0  0  0  0  0
   64.4990   33.8490   50.8750 C   0  0  0  0  0  0  0  0  0  0  0  0
   64.8940   32.7810   49.9180 N   0  0  0  0  0  0  0  0  0  0  0  0
   66.1910   32.1270   50.2580 C   0  0  0  0  0  0  0  0  0  0  0  0
   67.3780   33.0820   50.4820 C   0  0  0  0  0  0  0  0  0  0  0  0
   63.8160   31.8040   49.5940 C   0  0  0  0  0  0  0  0  0  0  0  0
   63.3410   31.8130   48.1320 C   0  0  0  0  0  0  0  0  0  0  0  0
   63.8400   33.0210   47.4600 N   0  0  0  0  0  0  0  0  0  0  0  0
   62.7540   33.7560   46.7960 C   0  0  0  0  0  0  0  0  0  0  0  0
   61.6290   34.0570   47.7910 C   0  0  0  0  0  0  0  0  0  0  0  0
   60.2850   33.9500   47.1200 C   0  0  0  0  0  0  0  0  0  0  0  0
   60.0280   34.6580   45.9350 C   0  0  0  0  0  0  0  0  0  0  0  0
   58.7700   34.5830   45.3280 C   0  0  0  0  0  0  0  0  0  0  0  0
   57.7590   33.8100   45.9060 C   0  0  0  0  0  0  0  0  0  0  0  0
   58.0030   33.1130   47.0920 C   0  0  0  0  0  0  0  0  0  0  0  0
   59.2600   33.1850   47.7020 C   0  0  0  0  0  0  0  0  0  0  0  0
   62.6046   34.3099   51.8154 H   0  0  0  0  0  0  0  0  0  0  0  0
   62.8928   35.1641   50.2617 H   0  0  0  0  0  0  0  0  0  0  0  0
   62.4682   33.4187   50.2617 H   0  0  0  0  0  0  0  0  0  0  0  0
   65.0897   34.7506   50.6555 H   0  0  0  0  0  0  0  0  0  0  0  0
   64.6895   33.4658   51.8883 H   0  0  0  0  0  0  0  0  0  0  0  0
   65.0770   33.2730   49.0100 H   0  0  0  0  0  0  0  0  0  0  0  0
   66.0455   31.5455   51.1803 H   0  0  0  0  0  0  0  0  0  0  0  0
   66.4578   31.5145   49.3842 H   0  0  0  0  0  0  0  0  0  0  0  0
   67.5431   33.2148   51.5614 H   0  0  0  0  0  0  0  0  0  0  0  0
   68.2824   32.6569   50.0223 H   0  0  0  0  0  0  0  0  0  0  0  0
   67.1564   34.0565   50.0223 H   0  0  0  0  0  0  0  0  0  0  0  0
   64.1906   30.7956   49.8237 H   0  0  0  0  0  0  0  0  0  0  0  0
   62.9458   32.0984   50.1991 H   0  0  0  0  0  0  0  0  0  0  0  0
   63.7265   30.9212   47.6161 H   0  0  0  0  0  0  0  0  0  0  0  0
   62.2414   31.8071   48.1047 H   0  0  0  0  0  0  0  0  0  0  0  0
   64.5170   32.7150   46.7220 H   0  0  0  0  0  0  0  0  0  0  0  0
   63.1477   34.7022   46.3965 H   0  0  0  0  0  0  0  0  0  0  0  0
   62.3526   33.1393   45.9783 H   0  0  0  0  0  0  0  0  0  0  0  0
   61.6774   33.3360   48.6203 H   0  0  0  0  0  0  0  0  0  0  0  0
   61.7556   35.0819   48.1699 H   0  0  0  0  0  0  0  0  0  0  0  0
   60.8190   35.2740   45.4823 H   0  0  0  0  0  0  0  0  0  0  0  0
   58.5762   35.1327   44.3951 H   0  0  0  0  0  0  0  0  0  0  0  0
   56.7707   33.7504   45.4268 H   0  0  0  0  0  0  0  0  0  0  0  0
   57.2057   32.5068   47.5468 H   0  0  0  0  0  0  0  0  0  0  0  0
   59.4465   32.6412   48.6398 H   0  0  0  0  0  0  0  0  0  0  0  0
  1  2  1  0
  2  3  1  0
  3  4  1  0
  4  5  1  0
  3  6  1  0
  6  7  1  0
  7  8  1  0
  8  9  1  0
  9 10  1  0
 10 11  1  0
 11 12  2  0
 12 13  1  0
 13 14  2  0
 14 15  1  0
 15 16  2  0
 16 11  1  0
  1 17  1  0
  1 18  1  0
  1 19  1  0
  2 20  1  0
  2 21  1  0
  3 22  1  0
  4 23  1  0
  4 24  1  0
  5 25  1  0
  5 26  1  0
  5 27  1  0
  6 28  1  0
  6 29  1  0
  7 30  1  0
  7 31  1  0
  8 32  1  0
  9 33  1  0
  9 34  1  0
 10 35  1  0
 10 36  1  0
 12 37  1  0
 13 38  1  0
 14 39  1  0
 15 40  1  0
 16 41  1  0
M  CHG  1   3   1
M  END
>  <UniqueID>  (21) 
21

>  <SMILES>  (21) 
CC[NH+](CC)CCNCCc1ccccc1

>  <Energy>  (21) 
42.1112633172434

>  <Genealogy>  (21) 
CC[NH+](CC)CCNCCc1ccccc1 (protonated)
CC[NH+](CC)CCNCCc1ccccc1 (3D coordinates assigned)
CC[NH+](CC)CCNCCc1ccccc1 (optimized conformer: 42.1112633172434 kcal/mol)

>  <smiles>  (21) 
CCN(CC)CCNCCc1ccccc1

>  <score_type>  (21) 
oracle

>  <origin>  (21) 
adg

>  <m_score__min__energy>  (21) 
-4.0099999999999998

>  <m_primary>  (21) 
energy

$$$$
21:0
     RDKit          3D

 32 33  0  0  0  0  0  0  0  0999 V2000
   55.6770   29.9430   43.7780 C   0  0  0  0  0  0  0  0  0  0  0  0
   56.5820   30.3410   42.6190 C   0  0  0  0  0  0  0  0  0  0  0  0
   57.5630   31.3480   43.0510 N   0  0  0  0  0  0  0  0  0  0  0  0
   58.1050   32.3140   42.0860 C   0  0  0  0  0  0  0  0  0  0  0  0
   57.2780   32.3500   40.8020 C   0  0  0  0  0  0  0  0  0  0  0  0
   58.2820   31.1250   44.2770 C   0  0  0  0  0  0  0  0  0  0  0  0
   58.8210   29.8540   44.5260 C   0  0  0  0  0  0  0  0  0  0  0  0
   59.5420   29.6050   45.6940 C   0  0  0  0  0  0  0  0  0  0  0  0
   59.7390   30.6200   46.6300 C   0  0  0  0  0  0  0  0  0  0  0  0
   59.2130   31.9000   46.4030 C   0  0  0  0  0  0  0  0  0  0  0  0
   59.4120   32.9220   47.3440 C   0  0  0  0  0  0  0  0  0  0  0  0
   58.8850   34.1950   47.1210 C   0  0  0  0  0  0  0  0  0  0  0  0
   58.1570   34.4600   45.9610 C   0  0  0  0  0  0  0  0  0  0  0  0
   57.9500   33.4530   45.0150 C   0  0  0  0  0  0  0  0  0  0  0  0
   58.4760   32.1630   45.2180 C   0  0  0  0  0  0  0  0  0  0  0  0
   56.1814   30.1648   44.7300 H   0  0  0  0  0  0  0  0  0  0  0  0
   54.7365   30.5105   43.7204 H   0  0  0  0  0  0  0  0  0  0  0  0
   55.4596   28.8662   43.7204 H   0  0  0  0  0  0  0  0  0  0  0  0
   57.1147   29.4505   42.2539 H   0  0  0  0  0  0  0  0  0  0  0  0
   55.9634   30.7696   41.8167 H   0  0  0  0  0  0  0  0  0  0  0  0
   58.1003   33.3151   42.5419 H   0  0  0  0  0  0  0  0  0  0  0  0
   59.1286   32.0050   41.8276 H   0  0  0  0  0  0  0  0  0  0  0  0
   56.2087   32.3965   41.0558 H   0  0  0  0  0  0  0  0  0  0  0  0
   57.5540   33.2370   40.2128 H   0  0  0  0  0  0  0  0  0  0  0  0
   57.4759   31.4424   40.2128 H   0  0  0  0  0  0  0  0  0  0  0  0
   58.6738   29.0465   43.7937 H   0  0  0  0  0  0  0  0  0  0  0  0
   59.9572   28.6031   45.8777 H   0  0  0  0  0  0  0  0  0  0  0  0
   60.3085   30.4160   47.5487 H   0  0  0  0  0  0  0  0  0  0  0  0
   59.9853   32.7190   48.2606 H   0  0  0  0  0  0  0  0  0  0  0  0
   59.0442   34.9919   47.8624 H   0  0  0  0  0  0  0  0  0  0  0  0
   57.7445   35.4654   45.7905 H   0  0  0  0  0  0  0  0  0  0  0  0
   57.3717   33.6697   44.1047 H   0  0  0  0  0  0  0  0  0  0  0  0
  1  2  1  0
  2  3  1  0
  3  4  1  0
  4  5  1  0
  3  6  1  0
  6  7  2  0
  7  8  1  0
  8  9  2  0
  9 10  1  0
 10 11  2  0
 11 12  1  0
 12 13  2  0
 13 14  1  0
 14 15  2  0
 15  6  1  0
 15 10  1  0
  1 16  1  0
  1 17  1  0
  1 18  1  0
  2 19  1  0
  2 20  1  0
  4 21  1  0
  4 22  1  0
  5 23  1  0
  5 24  1  0
  5 25  1  0
  7 26  1  0
  8 27  1  0
  9 28  1  0
 11 29  1  0
 12 30  1  0
 13 31  1  0
 14 32  1  0
M  END
>  <UniqueID>  (22) 
22

>  <SMILES>  (22) 
CCN(CC)c1cccc2ccccc12

>  <Energy>  (22) 
35.233188704400234

>  <Genealogy>  (22) 
CCN(CC)c1cccc2ccccc12 (3D coordinates assigned)
CCN(CC)c1cccc2ccccc12 (optimized conformer: 35.233188704400234 kcal/mol)

>  <smiles>  (22) 
CCN(CC)c1cccc2ccccc12

>  <score_type>  (22) 
oracle

>  <origin>  (22) 
adg

>  <m_score__min__energy>  (22) 
-5.7699999999999996

>  <m_primary>  (22) 
energy

$$$$
22:0
     RDKit          3D

 33 34  0  0  0  0  0  0  0  0999 V2000
   55.8740   23.6050   43.5670 C   0  0  0  0  0  0  0  0  0  0  0  0
   56.7030   23.5850   44.7770 N   0  0  0  0  0  0  0  0  0  0  0  0
   58.0600   23.0290   44.7270 C   0  0  0  0  0  0  0  0  0  0  0  0
   56.1650   24.1330   46.0010 C   0  0  0  0  0  0  0  0  0  0  0  0
   55.0240   24.6720   45.9940 O   0  0  0  0  0  0  0  0  0  0  0  0
   56.9210   24.0800   47.3040 C   0  0  0  0  0  0  0  0  0  0  0  0
   57.7100   25.2970   47.5000 N   0  0  0  0  0  0  0  0  0  0  0  0
   57.8320   26.3570   46.5320 C   0  0  0  0  0  0  0  0  0  0  0  0
   59.0610   26.6670   45.9160 C   0  0  0  0  0  0  0  0  0  0  0  0
   59.1450   27.7070   44.9860 C   0  0  0  0  0  0  0  0  0  0  0  0
   58.0040   28.4480   44.6560 C   0  0  0  0  0  0  0  0  0  0  0  0
   56.7770   28.1470   45.2630 C   0  0  0  0  0  0  0  0  0  0  0  0
   56.6960   27.1160   46.2040 C   0  0  0  0  0  0  0  0  0  0  0  0
   55.6370   28.8970   44.9450 O   0  0  0  0  0  0  0  0  0  0  0  0
   55.5500   29.7280   43.7840 C   0  0  0  0  0  0  0  0  0  0  0  0
   56.8960   30.2610   43.3810 C   0  0  0  0  0  0  0  0  0  0  0  0
   56.9770   31.2960   42.6680 O   0  0  0  0  0  0  0  0  0  0  0  0
   58.0810   29.5460   43.7400 N   0  0  0  0  0  0  0  0  0  0  0  0
   54.8116   23.6306   43.8508 H   0  0  0  0  0  0  0  0  0  0  0  0
   56.1161   24.4976   42.9714 H   0  0  0  0  0  0  0  0  0  0  0  0
   56.0727   22.7018   42.9714 H   0  0  0  0  0  0  0  0  0  0  0  0
   58.4318   22.8767   45.7510 H   0  0  0  0  0  0  0  0  0  0  0  0
   58.0422   22.0657   44.1963 H   0  0  0  0  0  0  0  0  0  0  0  0
   58.7233   23.7279   44.1963 H   0  0  0  0  0  0  0  0  0  0  0  0
   56.2043   23.9781   48.1323 H   0  0  0  0  0  0  0  0  0  0  0  0
   57.6044   23.2184   47.2790 H   0  0  0  0  0  0  0  0  0  0  0  0
   58.1980   25.4050   48.4180 H   0  0  0  0  0  0  0  0  0  0  0  0
   59.9605   26.0864   46.1689 H   0  0  0  0  0  0  0  0  0  0  0  0
   60.1093   27.9437   44.5126 H   0  0  0  0  0  0  0  0  0  0  0  0
   55.7346   26.8972   46.6917 H   0  0  0  0  0  0  0  0  0  0  0  0
   55.1368   29.1376   42.9529 H   0  0  0  0  0  0  0  0  0  0  0  0
   54.8994   30.5826   44.0215 H   0  0  0  0  0  0  0  0  0  0  0  0
   59.0050   29.8470   43.3540 H   0  0  0  0  0  0  0  0  0  0  0  0
  1  2  1  0
  2  3  1  0
  2  4  1  0
  4  5  2  0
  4  6  1  0
  6  7  1  0
  7  8  1  0
  8  9  2  0
  9 10  1  0
 10 11  2  0
 11 12  1  0
 12 13  2  0
 12 14  1  0
 14 15  1  0
 15 16  1  0
 16 17  2  0
 16 18  1  0
 13  8  1  0
 18 11  1  0
  1 19  1  0
  1 20  1  0
  1 21  1  0
  3 22  1  0
  3 23  1  0
  3 24  1  0
  6 25  1  0
  6 26  1  0
  7 27  1  0
  9 28  1  0
 10 29  1  0
 13 30  1  0
 15 31  1  0
 15 32  1  0
 18 33  1  0
M  END
>  <UniqueID>  (23) 
23

>  <SMILES>  (23) 
CN(C)C(=O)CNc1ccc2c(c1)OCC(=O)N2

>  <Energy>  (23) 
30.590078768914676

>  <Genealogy>  (23) 
CN(C)C(=O)CNc1ccc2c(c1)OCC(=O)N2 (3D coordinates assigned)
CN(C)C(=O)CNc1ccc2c(c1)OCC(=O)N2 (nonaromatic ring conformer: 30.590078768914676 kcal/mol)

>  <smiles>  (23) 
CN(C)C(=O)CNc1ccc2c(c1)OCC(=O)N2

>  <score_type>  (23) 
oracle

>  <origin>  (23) 
adg

>  <m_score__min__energy>  (23) 
-6.1299999999999999

>  <m_primary>  (23) 
energy

$$$$
23:0
     RDKit          3D

 47 51  0  0  0  0  0  0  0  0999 V2000
   59.6280   35.3390   46.2210 C   0  0  0  0  0  0  0  0  0  0  0  0
   58.4430   34.5480   46.2180 O   0  0  0  0  0  0  0  0  0  0  0  0
   58.3880   33.1740   45.9330 C   0  0  0  0  0  0  0  0  0  0  0  0
   57.7280   32.7080   44.7860 C   0  0  0  0  0  0  0  0  0  0  0  0
   57.6840   31.3470   44.4780 C   0  0  0  0  0  0  0  0  0  0  0  0
   58.2880   30.4130   45.3390 C   0  0  0  0  0  0  0  0  0  0  0  0
   58.8780   30.8530   46.5500 C   0  0  0  0  0  0  0  0  0  0  0  0
   59.0090   32.2440   46.8050 C   0  0  0  0  0  0  0  0  0  0  0  0
   59.8000   32.6420   47.9010 O   0  0  0  0  0  0  0  0  0  0  0  0
   59.3920   33.4230   49.0200 C   0  0  0  0  0  0  0  0  0  0  0  0
   59.4340   29.8170   47.4760 C   0  0  0  0  0  0  0  0  0  0  0  0
   59.5080   30.0130   48.8790 C   0  0  0  0  0  0  0  0  0  0  0  0
   60.0550   29.0000   49.6600 C   0  0  0  0  0  0  0  0  0  0  0  0
   60.4840   27.8310   49.1250 C   0  0  0  0  0  0  0  0  0  0  0  0
   60.3820   27.5630   47.7660 C   0  0  0  0  0  0  0  0  0  0  0  0
   59.8170   28.5560   46.9350 C   0  0  0  0  0  0  0  0  0  0  0  0
   59.5910   28.2780   45.4730 C   0  0  0  0  0  0  0  0  0  0  0  0
   58.2560   28.9170   45.0120 C   0  0  2  0  0  0  0  0  0  0  0  0
   57.9920   28.6660   43.5640 N   0  0  1  0  0  0  0  0  0  0  0  0
   57.7720   27.2300   43.2870 C   0  0  0  0  0  0  0  0  0  0  0  0
   56.8010   29.4240   43.1260 C   0  0  0  0  0  0  0  0  0  0  0  0
   57.0690   30.9270   43.1730 C   0  0  0  0  0  0  0  0  0  0  0  0
   60.9710   27.0160   50.1270 O   0  0  0  0  0  0  0  0  0  0  0  0
   60.8370   27.7180   51.3720 C   0  0  0  0  0  0  0  0  0  0  0  0
   60.2450   28.9770   51.0270 O   0  0  0  0  0  0  0  0  0  0  0  0
   59.9311   35.5414   47.2589 H   0  0  0  0  0  0  0  0  0  0  0  0
   60.4325   34.7962   45.7032 H   0  0  0  0  0  0  0  0  0  0  0  0
   59.4352   36.2902   45.7032 H   0  0  0  0  0  0  0  0  0  0  0  0
   57.2358   33.4288   44.1165 H   0  0  0  0  0  0  0  0  0  0  0  0
   59.6642   32.9019   49.9497 H   0  0  0  0  0  0  0  0  0  0  0  0
   59.8944   34.4010   48.9873 H   0  0  0  0  0  0  0  0  0  0  0  0
   58.3023   33.5693   48.9873 H   0  0  0  0  0  0  0  0  0  0  0  0
   59.1419   30.9431   49.3381 H   0  0  0  0  0  0  0  0  0  0  0  0
   60.7306   26.6065   47.3493 H   0  0  0  0  0  0  0  0  0  0  0  0
   60.4198   28.7043   44.8888 H   0  0  0  0  0  0  0  0  0  0  0  0
   59.5441   27.1904   45.3153 H   0  0  0  0  0  0  0  0  0  0  0  0
   57.4219   28.4482   45.5547 H   0  0  0  0  0  0  0  0  0  0  0  0
   58.8180   28.9790   42.9980 H   0  0  0  0  0  0  0  0  0  0  0  0
   57.6880   26.6820   44.2371 H   0  0  0  0  0  0  0  0  0  0  0  0
   56.8444   27.1060   42.7090 H   0  0  0  0  0  0  0  0  0  0  0  0
   58.6199   26.8340   42.7090 H   0  0  0  0  0  0  0  0  0  0  0  0
   56.5479   29.1346   42.0954 H   0  0  0  0  0  0  0  0  0  0  0  0
   55.9661   29.1927   43.8038 H   0  0  0  0  0  0  0  0  0  0  0  0
   57.7555   31.1914   42.3552 H   0  0  0  0  0  0  0  0  0  0  0  0
   56.1060   31.4480   43.0672 H   0  0  0  0  0  0  0  0  0  0  0  0
   60.1859   27.1608   52.0617 H   0  0  0  0  0  0  0  0  0  0  0  0
   61.8037   27.8423   51.8820 H   0  0  0  0  0  0  0  0  0  0  0  0
  1  2  1  0
  2  3  1  0
  3  4  2  0
  4  5  1  0
  5  6  2  0
  6  7  1  0
  7  8  2  0
  8  9  1  0
  9 10  1  0
  7 11  1  0
 11 12  2  0
 12 13  1  0
 13 14  2  0
 14 15  1  0
 15 16  2  0
 16 17  1  0
 17 18  1  0
 18 19  1  0
 19 20  1  0
 19 21  1  0
 21 22  1  0
 14 23  1  0
 23 24  1  0
 24 25  1  0
  8  3  1  0
 16 11  1  0
 22  5  1  0
 18  6  1  0
 25 13  1  0
  1 26  1  0
  1 27  1  0
  1 28  1  0
  4 29  1  0
 10 30  1  0
 10 31  1  0
 10 32  1  0
 12 33  1  0
 15 34  1  0
 17 35  1  0
 17 36  1  0
 18 37  1  1
 19 38  1  6
 20 39  1  0
 20 40  1  0
 20 41  1  0
 21 42  1  0
 21 43  1  0
 22 44  1  0
 22 45  1  0
 24 46  1  0
 24 47  1  0
M  CHG  1  19   1
M  END
>  <UniqueID>  (24) 
24

>  <SMILES>  (24) 
COc1cc2c3c(c1OC)-c1cc4c(cc1C[C@@H]3[N@@H+](C)CC2)OCO4

>  <Energy>  (24) 
97.99518137321625

>  <Genealogy>  (24) 
COc1cc2c3c(c1OC)-c1cc4c(cc1CC3[NH+](C)CC2)OCO4 (protonated)
COc1cc2c3c(c1OC)-c1cc4c(cc1C[C@@H]3[N@@H+](C)CC2)OCO4 (chirality)
COc1cc2c3c(c1OC)-c1cc4c(cc1C[C@@H]3[N@@H+](C)CC2)OCO4 (3D coordinates assigned)
COc1cc2c3c(c1OC)-c1cc4c(cc1C[C@@H]3[N@@H+](C)CC2)OCO4 (nonaromatic ring conformer: 97.99518137321625 kcal/mol)

>  <smiles>  (24) 
COc1cc2c3c(c1OC)-c1cc4c(cc1CC3N(C)CC2)OCO4

>  <score_type>  (24) 
oracle

>  <origin>  (24) 
adg

>  <m_score__min__energy>  (24) 
-5.5

>  <m_primary>  (24) 
energy

$$$$
24:0
     RDKit          3D

 54 56  0  0  0  0  0  0  0  0999 V2000
   60.1420   34.1850   48.7640 C   0  0  0  0  0  0  0  0  0  0  0  0
   59.4740   34.2560   47.7620 C   0  0  0  0  0  0  0  0  0  0  0  0
   58.6650   34.3420   46.5420 C   0  0  0  0  0  0  0  0  0  0  0  0
   57.4310   33.5690   46.7100 N   0  0  0  0  0  0  0  0  0  0  0  0
   57.0050   33.0030   45.4220 C   0  0  0  0  0  0  0  0  0  0  0  0
   58.2110   32.3900   44.6700 C   0  0  1  0  0  0  0  0  0  0  0  0
   59.0030   31.4000   45.5760 C   0  0  0  0  0  0  0  0  0  0  0  0
   58.8750   29.9250   45.1520 C   0  0  0  0  0  0  0  0  0  0  0  0
   57.4230   29.5860   44.7400 C   0  0  2  0  0  0  0  0  0  0  0  0
   57.2230   28.1190   44.5420 N   0  0  1  0  0  0  0  0  0  0  0  0
   58.1520   27.5810   43.5160 C   0  0  0  0  0  0  0  0  0  0  0  0
   57.7690   26.1450   43.0960 C   0  0  0  0  0  0  0  0  0  0  0  0
   57.1080   25.3530   44.2430 C   0  0  1  0  0  0  0  0  0  0  0  0
   57.2920   23.8580   44.0560 C   0  0  0  0  0  0  0  0  0  0  0  0
   58.3210   23.1540   44.7180 C   0  0  0  0  0  0  0  0  0  0  0  0
   58.4900   21.7830   44.5060 C   0  0  0  0  0  0  0  0  0  0  0  0
   57.6530   21.1020   43.6170 C   0  0  0  0  0  0  0  0  0  0  0  0
   56.6500   21.7930   42.9340 C   0  0  0  0  0  0  0  0  0  0  0  0
   56.4710   23.1630   43.1490 C   0  0  0  0  0  0  0  0  0  0  0  0
   57.6160   25.8470   45.6070 C   0  0  0  0  0  0  0  0  0  0  0  0
   57.2590   27.3340   45.8120 C   0  0  0  0  0  0  0  0  0  0  0  0
   56.9550   30.4570   43.5310 C   0  0  0  0  0  0  0  0  0  0  0  0
   57.7900   31.7350   43.3340 C   0  0  0  0  0  0  0  0  0  0  0  0
   60.7511   34.1203   49.6777 H   0  0  0  0  0  0  0  0  0  0  0  0
   58.4129   35.3943   46.3443 H   0  0  0  0  0  0  0  0  0  0  0  0
   59.2377   33.9333   45.6964 H   0  0  0  0  0  0  0  0  0  0  0  0
   56.6770   34.2210   47.0350 H   0  0  0  0  0  0  0  0  0  0  0  0
   56.2550   32.2188   45.6022 H   0  0  0  0  0  0  0  0  0  0  0  0
   56.5751   33.8069   44.8065 H   0  0  0  0  0  0  0  0  0  0  0  0
   58.8894   33.2179   44.4161 H   0  0  0  0  0  0  0  0  0  0  0  0
   58.6284   31.4979   46.6056 H   0  0  0  0  0  0  0  0  0  0  0  0
   60.0664   31.6664   45.4855 H   0  0  0  0  0  0  0  0  0  0  0  0
   59.1681   29.2824   45.9953 H   0  0  0  0  0  0  0  0  0  0  0  0
   59.5321   29.7527   44.2868 H   0  0  0  0  0  0  0  0  0  0  0  0
   56.7623   29.8545   45.5775 H   0  0  0  0  0  0  0  0  0  0  0  0
   56.2570   28.0130   44.1430 H   0  0  0  0  0  0  0  0  0  0  0  0
   59.1718   27.5719   43.9281 H   0  0  0  0  0  0  0  0  0  0  0  0
   58.0920   28.2260   42.6270 H   0  0  0  0  0  0  0  0  0  0  0  0
   58.6794   25.6149   42.7796 H   0  0  0  0  0  0  0  0  0  0  0  0
   57.0397   26.2188   42.2758 H   0  0  0  0  0  0  0  0  0  0  0  0
   56.0240   25.5379   44.2175 H   0  0  0  0  0  0  0  0  0  0  0  0
   58.9940   23.6879   45.4050 H   0  0  0  0  0  0  0  0  0  0  0  0
   59.2831   21.2387   45.0396 H   0  0  0  0  0  0  0  0  0  0  0  0
   57.7845   20.0219   43.4556 H   0  0  0  0  0  0  0  0  0  0  0  0
   55.9997   21.2587   42.2257 H   0  0  0  0  0  0  0  0  0  0  0  0
   55.6817   23.7020   42.6045 H   0  0  0  0  0  0  0  0  0  0  0  0
   58.7087   25.7280   45.6508 H   0  0  0  0  0  0  0  0  0  0  0  0
   57.1371   25.2542   46.4003 H   0  0  0  0  0  0  0  0  0  0  0  0
   58.0101   27.7837   46.4780 H   0  0  0  0  0  0  0  0  0  0  0  0
   56.2469   27.3673   46.2415 H   0  0  0  0  0  0  0  0  0  0  0  0
   55.9072   30.7480   43.6967 H   0  0  0  0  0  0  0  0  0  0  0  0
   57.0806   29.8461   42.6249 H   0  0  0  0  0  0  0  0  0  0  0  0
   57.1931   32.4595   42.7606 H   0  0  0  0  0  0  0  0  0  0  0  0
   58.7095   31.4501   42.8016 H   0  0  0  0  0  0  0  0  0  0  0  0
  1  2  3  0
  2  3  1  0
  3  4  1  0
  4  5  1  0
  5  6  1  0
  6  7  1  0
  7  8  1  0
  8  9  1  0
  9 10  1  0
 10 11  1  0
 11 12  1  0
 12 13  1  0
 13 14  1  0
 14 15  2  0
 15 16  1  0
 16 17  2  0
 17 18  1  0
 18 19  2  0
 13 20  1  0
 20 21  1  0
  9 22  1  0
 22 23  1  0
 23  6  1  0
 21 10  1  0
 19 14  1  0
  1 24  1  0
  3 25  1  0
  3 26  1  0
  4 27  1  0
  5 28  1  0
  5 29  1  0
  6 30  1  6
  7 31  1  0
  7 32  1  0
  8 33  1  0
  8 34  1  0
  9 35  1  1
 10 36  1  6
 11 37  1  0
 11 38  1  0
 12 39  1  0
 12 40  1  0
 13 41  1  1
 15 42  1  0
 16 43  1  0
 17 44  1  0
 18 45  1  0
 19 46  1  0
 20 47  1  0
 20 48  1  0
 21 49  1  0
 21 50  1  0
 22 51  1  0
 22 52  1  0
 23 53  1  0
 23 54  1  0
M  CHG  1  10   1
M  END
>  <UniqueID>  (25) 
25

>  <SMILES>  (25) 
C#CCNCC1CCC([NH+]2CCC(c3ccccc3)CC2)CC1

>  <Energy>  (25) 
66.19821808442126

>  <Genealogy>  (25) 
C#CCNCC1CCC([NH+]2CCC(c3ccccc3)CC2)CC1 (protonated)
C#CCNCC1CCC([NH+]2CCC(c3ccccc3)CC2)CC1 (3D coordinates assigned)
C#CCNCC1CCC([NH+]2CCC(c3ccccc3)CC2)CC1 (nonaromatic ring conformer: 66.19821808442126 kcal/mol)

>  <smiles>  (25) 
C#CCNCC1CCC(N2CCC(c3ccccc3)CC2)CC1

>  <score_type>  (25) 
oracle

>  <origin>  (25) 
adg

>  <m_score__min__energy>  (25) 
-6.8799999999999999

>  <m_primary>  (25) 
energy

$$$$
25:0
     RDKit          3D

 38 40  0  0  0  0  0  0  0  0999 V2000
   56.6470   30.1550   43.5780 C   0  0  0  0  0  0  0  0  0  0  0  0
   56.6450   30.7860   44.8540 O   0  0  0  0  0  0  0  0  0  0  0  0
   57.6250   31.6890   45.2920 C   0  0  0  0  0  0  0  0  0  0  0  0
   57.4240   33.0540   45.0560 C   0  0  0  0  0  0  0  0  0  0  0  0
   58.3710   33.9940   45.4730 C   0  0  0  0  0  0  0  0  0  0  0  0
   59.5390   33.5800   46.1320 C   0  0  0  0  0  0  0  0  0  0  0  0
   60.5450   34.5940   46.6140 C   0  0  0  0  0  0  0  0  0  0  0  0
   61.6000   33.9370   47.4150 N   0  0  0  0  0  0  0  0  0  0  0  0
   62.7930   33.5840   46.8320 C   0  0  0  0  0  0  0  0  0  0  0  0
   63.0170   33.8470   45.6180 O   0  0  0  0  0  0  0  0  0  0  0  0
   63.7550   32.9510   47.5550 N   0  0  0  0  0  0  0  0  0  0  0  0
   63.5670   32.6420   48.8660 C   0  0  0  0  0  0  0  0  0  0  0  0
   64.5730   31.9850   49.5930 C   0  0  0  0  0  0  0  0  0  0  0  0
   64.3740   31.6560   50.9410 C   0  0  0  0  0  0  0  0  0  0  0  0
   65.4660   30.9900   51.7250 C   0  0  0  0  0  0  0  0  0  0  0  0
   63.1730   32.0150   51.5710 C   0  0  0  0  0  0  0  0  0  0  0  0
   62.1680   32.6680   50.8540 C   0  0  0  0  0  0  0  0  0  0  0  0
   62.3570   32.9850   49.4950 C   0  0  0  0  0  0  0  0  0  0  0  0
   61.3730   33.6410   48.7360 C   0  0  0  0  0  0  0  0  0  0  0  0
   60.2770   33.9590   49.2800 O   0  0  0  0  0  0  0  0  0  0  0  0
   59.7420   32.2120   46.3720 C   0  0  0  0  0  0  0  0  0  0  0  0
   58.7940   31.2720   45.9550 C   0  0  0  0  0  0  0  0  0  0  0  0
   56.6505   29.0628   43.7090 H   0  0  0  0  0  0  0  0  0  0  0  0
   55.7479   30.4544   43.0195 H   0  0  0  0  0  0  0  0  0  0  0  0
   57.5442   30.4601   43.0195 H   0  0  0  0  0  0  0  0  0  0  0  0
   56.5134   33.3898   44.5382 H   0  0  0  0  0  0  0  0  0  0  0  0
   58.1998   35.0640   45.2836 H   0  0  0  0  0  0  0  0  0  0  0  0
   61.0049   35.0885   45.7457 H   0  0  0  0  0  0  0  0  0  0  0  0
   60.0298   35.3345   47.2435 H   0  0  0  0  0  0  0  0  0  0  0  0
   64.6550   32.6970   47.0840 H   0  0  0  0  0  0  0  0  0  0  0  0
   65.5228   31.7270   49.1017 H   0  0  0  0  0  0  0  0  0  0  0  0
   65.2702   31.1094   52.8008 H   0  0  0  0  0  0  0  0  0  0  0  0
   65.4966   29.9193   51.4745 H   0  0  0  0  0  0  0  0  0  0  0  0
   66.4319   31.4529   51.4745 H   0  0  0  0  0  0  0  0  0  0  0  0
   63.0221   31.7810   52.6352 H   0  0  0  0  0  0  0  0  0  0  0  0
   61.2249   32.9358   51.3529 H   0  0  0  0  0  0  0  0  0  0  0  0
   60.6522   31.8772   46.8912 H   0  0  0  0  0  0  0  0  0  0  0  0
   58.9630   30.2020   46.1462 H   0  0  0  0  0  0  0  0  0  0  0  0
  1  2  1  0
  2  3  1  0
  3  4  2  0
  4  5  1  0
  5  6  2  0
  6  7  1  0
  7  8  1  0
  8  9  1  0
  9 10  2  0
  9 11  1  0
 11 12  1  0
 12 13  2  0
 13 14  1  0
 14 15  1  0
 14 16  2  0
 16 17  1  0
 17 18  2  0
 18 19  1  0
 19 20  2  0
  6 21  1  0
 21 22  2  0
 22  3  1  0
 19  8  1  0
 18 12  1  0
  1 23  1  0
  1 24  1  0
  1 25  1  0
  4 26  1  0
  5 27  1  0
  7 28  1  0
  7 29  1  0
 11 30  1  0
 13 31  1  0
 15 32  1  0
 15 33  1  0
 15 34  1  0
 16 35  1  0
 17 36  1  0
 21 37  1  0
 22 38  1  0
M  END
>  <UniqueID>  (26) 
26

>  <SMILES>  (26) 
COc1ccc(Cn2c(=O)[nH]c3cc(C)ccc3c2=O)cc1

>  <Energy>  (26) 
46.911661961292225

>  <Genealogy>  (26) 
COc1ccc(Cn2c(=O)[nH]c3cc(C)ccc3c2=O)cc1 (3D coordinates assigned)
COc1ccc(Cn2c(=O)[nH]c3cc(C)ccc3c2=O)cc1 (optimized conformer: 46.911661961292225 kcal/mol)

>  <smiles>  (26) 
COc1ccc(Cn2c(=O)[nH]c3cc(C)ccc3c2=O)cc1

>  <score_type>  (26) 
oracle

>  <origin>  (26) 
adg

>  <m_score__min__energy>  (26) 
-7.5599999999999996

>  <m_primary>  (26) 
energy

$$$$
26:0
     RDKit          3D

 28 30  0  0  0  0  0  0  0  0999 V2000
   54.1480   29.0720   44.5230 H   0  0  0  0  0  0  0  0  0  0  0  0
   55.0050   29.3420   43.9880 N   0  0  0  0  0  0  0  0  0  0  0  0
   56.0620   29.8190   44.5640 C   0  0  0  0  0  0  0  0  0  0  0  0
   56.3100   31.1520   44.5000 N   0  0  0  0  0  0  0  0  0  0  0  0
   57.3990   31.7150   45.0870 C   0  0  0  0  0  0  0  0  0  0  0  0
   57.5930   33.0980   44.9970 C   0  0  0  0  0  0  0  0  0  0  0  0
   56.8763   33.7170   44.4375 H   0  0  0  0  0  0  0  0  0  0  0  0
   58.6930   33.6940   45.6150 C   0  0  0  0  0  0  0  0  0  0  0  0
   58.8445   34.7807   45.5364 H   0  0  0  0  0  0  0  0  0  0  0  0
   59.6020   32.9140   46.3330 C   0  0  0  0  0  0  0  0  0  0  0  0
   60.9730   33.6730   47.1220 Cl  0  0  0  0  0  0  0  0  0  0  0  0
   59.4210   31.5290   46.4280 C   0  0  0  0  0  0  0  0  0  0  0  0
   60.1374   30.9216   47.0005 H   0  0  0  0  0  0  0  0  0  0  0  0
   58.3240   30.9080   45.7930 C   0  0  0  0  0  0  0  0  0  0  0  0
   58.0970   29.5110   45.8550 C   0  0  0  0  0  0  0  0  0  0  0  0
   59.0340   28.5820   46.5260 C   0  0  0  0  0  0  0  0  0  0  0  0
   59.7400   27.6210   45.7810 C   0  0  0  0  0  0  0  0  0  0  0  0
   59.6094   27.5688   44.6900 H   0  0  0  0  0  0  0  0  0  0  0  0
   60.6070   26.7320   46.4220 C   0  0  0  0  0  0  0  0  0  0  0  0
   61.1645   25.9884   45.8336 H   0  0  0  0  0  0  0  0  0  0  0  0
   60.7670   26.7860   47.8090 C   0  0  0  0  0  0  0  0  0  0  0  0
   61.4519   26.0870   48.3113 H   0  0  0  0  0  0  0  0  0  0  0  0
   60.0570   27.7280   48.5580 C   0  0  0  0  0  0  0  0  0  0  0  0
   60.1804   27.7664   49.6504 H   0  0  0  0  0  0  0  0  0  0  0  0
   59.1900   28.6220   47.9220 C   0  0  0  0  0  0  0  0  0  0  0  0
   58.6287   29.3584   48.5159 H   0  0  0  0  0  0  0  0  0  0  0  0
   56.9510   28.9780   45.2460 C   0  0  0  0  0  0  0  0  0  0  0  0
   56.7502   27.8981   45.3041 H   0  0  0  0  0  0  0  0  0  0  0  0
  1  2  1  0
  2  3  2  0
  3  4  1  0
  4  5  1  0
  5  6  2  0
  6  7  1  0
  6  8  1  0
  8  9  1  0
  8 10  2  0
 10 11  1  0
 10 12  1  0
 12 13  1  0
 12 14  2  0
 14 15  1  0
 15 16  1  0
 16 17  2  0
 17 18  1  0
 17 19  1  0
 19 20  1  0
 19 21  2  0
 21 22  1  0
 21 23  1  0
 23 24  1  0
 23 25  2  0
 25 26  1  0
 15 27  2  0
 27 28  1  0
 27  3  1  0
 14  5  1  0
 25 16  1  0
M  CHG  1   4  -1
M  END
>  <UniqueID>  (27) 
27

>  <SMILES>  (27) 
[H]/N=c1\cc(-c2ccccc2)c2cc(Cl)ccc2[n-]1

>  <Energy>  (27) 
42.869906936809834

>  <Genealogy>  (27) 
N=c1cc(-c2ccccc2)c2cc(Cl)ccc2[n-]1 (protonated)
[H]/N=c1\cc(-c2ccccc2)c2cc(Cl)ccc2[n-]1 (cis-trans isomerization)
[H]/N=c1\cc(-c2ccccc2)c2cc(Cl)ccc2[n-]1 (3D coordinates assigned)
[H]/N=c1\cc(-c2ccccc2)c2cc(Cl)ccc2[n-]1 (optimized conformer: 42.869906936809834 kcal/mol)

>  <smiles>  (27) 
N=c1cc(-c2ccccc2)c2cc(Cl)ccc2[nH]1

>  <score_type>  (27) 
oracle

>  <origin>  (27) 
adg

>  <m_score__min__energy>  (27) 
-9.0899999999999999

>  <m_primary>  (27) 
energy

$$$$
27:0
     RDKit          3D

 31 32  0  0  0  0  0  0  0  0999 V2000
   57.7760   32.1220   42.0780 C   0  0  0  0  0  0  0  0  0  0  0  0
   57.0540   30.9600   42.7520 C   0  0  0  0  0  0  0  0  0  0  0  0
   56.9570   31.1810   44.2370 C   0  0  0  0  0  0  0  0  0  0  0  0
   56.0370   30.5920   44.8660 O   0  0  0  0  0  0  0  0  0  0  0  0
   57.9070   32.0140   44.9400 N   0  0  0  0  0  0  0  0  0  0  0  0
   57.8760   33.3630   45.0220 C   0  0  0  0  0  0  0  0  0  0  0  0
   58.9540   33.7880   45.7700 C   0  0  0  0  0  0  0  0  0  0  0  0
   59.2900   35.2150   46.0760 C   0  0  0  0  0  0  0  0  0  0  0  0
   59.6730   32.7100   46.1490 N   0  0  0  0  0  0  0  0  0  0  0  0
   60.8860   32.7080   46.9230 C   0  0  0  0  0  0  0  0  0  0  0  0
   61.9800   33.4930   46.5280 C   0  0  0  0  0  0  0  0  0  0  0  0
   63.1550   33.4960   47.2850 C   0  0  0  0  0  0  0  0  0  0  0  0
   63.2460   32.7140   48.4410 C   0  0  0  0  0  0  0  0  0  0  0  0
   64.7220   32.7180   49.3890 Cl  0  0  0  0  0  0  0  0  0  0  0  0
   62.1590   31.9300   48.8410 C   0  0  0  0  0  0  0  0  0  0  0  0
   60.9820   31.9270   48.0850 C   0  0  0  0  0  0  0  0  0  0  0  0
   59.0130   31.6430   45.6390 C   0  0  0  0  0  0  0  0  0  0  0  0
   59.5480   30.0920   45.7860 S   0  0  0  0  0  0  0  0  0  0  0  0
   58.1915   32.7907   42.8463 H   0  0  0  0  0  0  0  0  0  0  0  0
   58.5915   31.7327   41.4508 H   0  0  0  0  0  0  0  0  0  0  0  0
   57.0658   32.6807   41.4508 H   0  0  0  0  0  0  0  0  0  0  0  0
   56.0405   30.8734   42.3332 H   0  0  0  0  0  0  0  0  0  0  0  0
   57.6237   30.0370   42.5692 H   0  0  0  0  0  0  0  0  0  0  0  0
   57.1157   34.0148   44.5668 H   0  0  0  0  0  0  0  0  0  0  0  0
   59.3237   35.3581   47.1661 H   0  0  0  0  0  0  0  0  0  0  0  0
   60.2708   35.4617   45.6433 H   0  0  0  0  0  0  0  0  0  0  0  0
   58.5223   35.8734   45.6433 H   0  0  0  0  0  0  0  0  0  0  0  0
   61.9126   34.1085   45.6188 H   0  0  0  0  0  0  0  0  0  0  0  0
   64.0091   34.1141   46.9712 H   0  0  0  0  0  0  0  0  0  0  0  0
   62.2297   31.3154   49.7506 H   0  0  0  0  0  0  0  0  0  0  0  0
   60.1284   31.3101   48.4026 H   0  0  0  0  0  0  0  0  0  0  0  0
  1  2  1  0
  2  3  1  0
  3  4  2  0
  3  5  1  0
  5  6  1  0
  6  7  2  0
  7  8  1  0
  7  9  1  0
  9 10  1  0
 10 11  2  0
 11 12  1  0
 12 13  2  0
 13 14  1  0
 13 15  1  0
 15 16  2  0
  9 17  1  0
 17 18  2  0
 17  5  1  0
 16 10  1  0
  1 19  1  0
  1 20  1  0
  1 21  1  0
  2 22  1  0
  2 23  1  0
  6 24  1  0
  8 25  1  0
  8 26  1  0
  8 27  1  0
 11 28  1  0
 12 29  1  0
 15 30  1  0
 16 31  1  0
M  END
>  <UniqueID>  (28) 
28

>  <SMILES>  (28) 
CCC(=O)n1cc(C)n(-c2ccc(Cl)cc2)c1=S

>  <Energy>  (28) 
68.4070236009795

>  <Genealogy>  (28) 
CCC(=O)n1cc(C)n(-c2ccc(Cl)cc2)c1=S (3D coordinates assigned)
CCC(=O)n1cc(C)n(-c2ccc(Cl)cc2)c1=S (optimized conformer: 68.4070236009795 kcal/mol)

>  <smiles>  (28) 
CCC(=O)n1cc(C)n(-c2ccc(Cl)cc2)c1=S

>  <score_type>  (28) 
oracle

>  <origin>  (28) 
adg

>  <m_score__min__energy>  (28) 
-7.21

>  <m_primary>  (28) 
energy

$$$$
28:0
     RDKit          3D

 56 58  0  0  0  0  0  0  0  0999 V2000
   54.6450   24.4430   45.5770 C   0  0  0  0  0  0  0  0  0  0  0  0
   55.1550   25.6110   46.2110 O   0  0  0  0  0  0  0  0  0  0  0  0
   56.4310   26.1450   45.9810 C   0  0  0  0  0  0  0  0  0  0  0  0
   57.5380   25.3020   46.1230 C   0  0  0  0  0  0  0  0  0  0  0  0
   58.8290   25.7860   45.9070 C   0  0  0  0  0  0  0  0  0  0  0  0
   59.0280   27.1210   45.5470 C   0  0  0  0  0  0  0  0  0  0  0  0
   57.9320   27.9900   45.3980 C   0  0  0  0  0  0  0  0  0  0  0  0
   58.1440   29.4090   45.0130 C   0  0  0  0  0  0  0  0  0  0  0  0
   58.5040   30.4490   45.8520 C   0  0  0  0  0  0  0  0  0  0  0  0
   58.6010   31.5750   45.1150 N   0  0  0  0  0  0  0  0  0  0  0  0
   58.9530   32.8930   45.5820 C   0  0  0  0  0  0  0  0  0  0  0  0
   58.8970   33.9990   44.7130 C   0  0  0  0  0  0  0  0  0  0  0  0
   59.2460   35.2730   45.1660 C   0  0  0  0  0  0  0  0  0  0  0  0
   59.6570   35.4620   46.4860 C   0  0  0  0  0  0  0  0  0  0  0  0
   59.7260   34.3730   47.3680 C   0  0  0  0  0  0  0  0  0  0  0  0
   60.1830   34.5730   48.8000 C   0  0  0  0  0  0  0  0  0  0  0  0
   61.2780   33.6610   49.2060 N   0  0  0  0  0  0  0  0  0  0  0  0
   62.4160   34.3880   49.7970 C   0  0  0  0  0  0  0  0  0  0  0  0
   60.8030   32.5660   50.0820 C   0  0  0  0  0  0  0  0  0  0  0  0
   61.3870   31.2100   49.6560 C   0  0  0  0  0  0  0  0  0  0  0  0
   60.7760   30.7240   48.3980 N   0  0  0  0  0  0  0  0  0  0  0  0
   60.3600   29.3160   48.5190 C   0  0  0  0  0  0  0  0  0  0  0  0
   61.7330   30.8590   47.2890 C   0  0  0  0  0  0  0  0  0  0  0  0
   59.3640   33.0940   46.9120 C   0  0  0  0  0  0  0  0  0  0  0  0
   58.3030   31.2080   43.8490 C   0  0  0  0  0  0  0  0  0  0  0  0
   58.0180   29.8950   43.7610 N   0  0  0  0  0  0  0  0  0  0  0  0
   56.6330   27.4910   45.6180 C   0  0  0  0  0  0  0  0  0  0  0  0
   54.3288   23.7188   46.3422 H   0  0  0  0  0  0  0  0  0  0  0  0
   53.7829   24.7132   44.9494 H   0  0  0  0  0  0  0  0  0  0  0  0
   55.4292   23.9944   44.9494 H   0  0  0  0  0  0  0  0  0  0  0  0
   57.3899   24.2497   46.4071 H   0  0  0  0  0  0  0  0  0  0  0  0
   59.6926   25.1142   46.0206 H   0  0  0  0  0  0  0  0  0  0  0  0
   60.0487   27.4952   45.3789 H   0  0  0  0  0  0  0  0  0  0  0  0
   58.6809   30.3710   46.9349 H   0  0  0  0  0  0  0  0  0  0  0  0
   58.5762   33.8588   43.6702 H   0  0  0  0  0  0  0  0  0  0  0  0
   59.1967   36.1310   44.4795 H   0  0  0  0  0  0  0  0  0  0  0  0
   59.9280   36.4688   46.8365 H   0  0  0  0  0  0  0  0  0  0  0  0
   60.5343   35.6094   48.9114 H   0  0  0  0  0  0  0  0  0  0  0  0
   59.3218   34.3513   49.4474 H   0  0  0  0  0  0  0  0  0  0  0  0
   62.3487   34.3450   50.8941 H   0  0  0  0  0  0  0  0  0  0  0  0
   63.3578   33.9239   49.4690 H   0  0  0  0  0  0  0  0  0  0  0  0
   62.3908   35.4376   49.4690 H   0  0  0  0  0  0  0  0  0  0  0  0
   61.1095   32.7778   51.1170 H   0  0  0  0  0  0  0  0  0  0  0  0
   59.7074   32.5104   50.0015 H   0  0  0  0  0  0  0  0  0  0  0  0
   62.4714   31.3193   49.5071 H   0  0  0  0  0  0  0  0  0  0  0  0
   61.1709   30.4783   50.4484 H   0  0  0  0  0  0  0  0  0  0  0  0
   60.2806   29.0472   49.5827 H   0  0  0  0  0  0  0  0  0  0  0  0
   59.3831   29.1792   48.0323 H   0  0  0  0  0  0  0  0  0  0  0  0
   61.1057   28.6702   48.0323 H   0  0  0  0  0  0  0  0  0  0  0  0
   62.7457   31.0019   47.6940 H   0  0  0  0  0  0  0  0  0  0  0  0
   61.7099   29.9487   46.6719 H   0  0  0  0  0  0  0  0  0  0  0  0
   61.4590   31.7274   46.6719 H   0  0  0  0  0  0  0  0  0  0  0  0
   59.4025   32.2396   47.6037 H   0  0  0  0  0  0  0  0  0  0  0  0
   58.2943   31.8990   42.9932 H   0  0  0  0  0  0  0  0  0  0  0  0
   57.7730   29.3780   42.8890 H   0  0  0  0  0  0  0  0  0  0  0  0
   55.7670   28.1598   45.5051 H   0  0  0  0  0  0  0  0  0  0  0  0
  1  2  1  0
  2  3  1  0
  3  4  2  0
  4  5  1  0
  5  6  2  0
  6  7  1  0
  7  8  1  0
  8  9  2  0
  9 10  1  0
 10 11  1  0
 11 12  2  0
 12 13  1  0
 13 14  2  0
 14 15  1  0
 15 16  1  0
 16 17  1  0
 17 18  1  0
 17 19  1  0
 19 20  1  0
 20 21  1  0
 21 22  1  0
 21 23  1  0
 15 24  2  0
 10 25  1  0
 25 26  2  0
  7 27  2  0
 27  3  1  0
 26  8  1  0
 24 11  1  0
  1 28  1  0
  1 29  1  0
  1 30  1  0
  4 31  1  0
  5 32  1  0
  6 33  1  0
  9 34  1  0
 12 35  1  0
 13 36  1  0
 14 37  1  0
 16 38  1  0
 16 39  1  0
 18 40  1  0
 18 41  1  0
 18 42  1  0
 19 43  1  0
 19 44  1  0
 20 45  1  0
 20 46  1  0
 22 47  1  0
 22 48  1  0
 22 49  1  0
 23 50  1  0
 23 51  1  0
 23 52  1  0
 24 53  1  0
 25 54  1  0
 26 55  1  0
 27 56  1  0
M  CHG  1  26   1
M  END
>  <UniqueID>  (29) 
29

>  <SMILES>  (29) 
COc1cccc(-c2cn(-c3cccc(CN(C)CCN(C)C)c3)c[nH+]2)c1

>  <Energy>  (29) 
94.93356734226401

>  <Genealogy>  (29) 
COc1cccc(-c2cn(-c3cccc(CN(C)CCN(C)C)c3)c[nH+]2)c1 (protonated)
COc1cccc(-c2cn(-c3cccc(CN(C)CCN(C)C)c3)c[nH+]2)c1 (3D coordinates assigned)
COc1cccc(-c2cn(-c3cccc(CN(C)CCN(C)C)c3)c[nH+]2)c1 (optimized conformer: 94.93356734226401 kcal/mol)

>  <smiles>  (29) 
COc1cccc(-c2cn(-c3cccc(CN(C)CCN(C)C)c3)cn2)c1

>  <score_type>  (29) 
oracle

>  <origin>  (29) 
adg

>  <m_score__min__energy>  (29) 
-6.7400000000000002

>  <m_primary>  (29) 
energy

$$$$
29:0
     RDKit          3D

 45 46  0  0  0  0  0  0  0  0999 V2000
   56.5930   30.4190   44.0050 C   0  0  0  0  0  0  0  0  0  0  0  0
   57.8480   30.4230   44.8720 C   0  0  0  0  0  0  0  0  0  0  0  0
   57.7200   31.3550   45.9450 O   0  0  0  0  0  0  0  0  0  0  0  0
   58.2550   32.6560   45.9710 C   0  0  0  0  0  0  0  0  0  0  0  0
   58.5800   33.3630   44.7960 C   0  0  0  0  0  0  0  0  0  0  0  0
   59.1080   34.6540   44.8720 C   0  0  0  0  0  0  0  0  0  0  0  0
   59.3140   35.2520   46.1150 C   0  0  0  0  0  0  0  0  0  0  0  0
   58.9930   34.5640   47.2860 C   0  0  0  0  0  0  0  0  0  0  0  0
   58.4600   33.2620   47.2220 C   0  0  0  0  0  0  0  0  0  0  0  0
   58.1270   32.5360   48.3760 O   0  0  0  0  0  0  0  0  0  0  0  0
   58.9420   32.4520   49.5420 C   0  0  0  0  0  0  0  0  0  0  0  0
   59.8270   31.1940   49.4540 C   0  0  0  0  0  0  0  0  0  0  0  0
   59.7280   30.4360   48.1740 N   0  0  2  0  0  0  0  0  0  0  0  0
   59.0460   29.1340   48.2970 C   0  0  0  0  0  0  0  0  0  0  0  0
   61.0080   30.3500   47.4220 C   0  0  0  0  0  0  0  0  0  0  0  0
   61.8910   31.5730   47.5440 C   0  0  0  0  0  0  0  0  0  0  0  0
   62.9710   31.5870   48.4430 C   0  0  0  0  0  0  0  0  0  0  0  0
   63.7740   32.7260   48.5630 C   0  0  0  0  0  0  0  0  0  0  0  0
   63.5120   33.8530   47.7800 C   0  0  0  0  0  0  0  0  0  0  0  0
   62.4540   33.8420   46.8700 C   0  0  0  0  0  0  0  0  0  0  0  0
   61.6490   32.7050   46.7450 C   0  0  0  0  0  0  0  0  0  0  0  0
   55.7019   30.4162   44.6499 H   0  0  0  0  0  0  0  0  0  0  0  0
   56.5832   31.3171   43.3700 H   0  0  0  0  0  0  0  0  0  0  0  0
   56.5889   29.5208   43.3700 H   0  0  0  0  0  0  0  0  0  0  0  0
   58.0035   29.4158   45.2859 H   0  0  0  0  0  0  0  0  0  0  0  0
   58.7056   30.7179   44.2494 H   0  0  0  0  0  0  0  0  0  0  0  0
   58.4170   32.8956   43.8137 H   0  0  0  0  0  0  0  0  0  0  0  0
   59.3615   35.1993   43.9509 H   0  0  0  0  0  0  0  0  0  0  0  0
   59.7305   36.2685   46.1725 H   0  0  0  0  0  0  0  0  0  0  0  0
   59.1571   35.0409   48.2636 H   0  0  0  0  0  0  0  0  0  0  0  0
   59.5795   33.3459   49.6101 H   0  0  0  0  0  0  0  0  0  0  0  0
   58.3028   32.3916   50.4352 H   0  0  0  0  0  0  0  0  0  0  0  0
   60.8740   31.5047   49.5853 H   0  0  0  0  0  0  0  0  0  0  0  0
   59.4686   30.5132   50.2402 H   0  0  0  0  0  0  0  0  0  0  0  0
   59.1020   31.0120   47.5610 H   0  0  0  0  0  0  0  0  0  0  0  0
   58.9166   28.8869   49.3611 H   0  0  0  0  0  0  0  0  0  0  0  0
   58.0608   29.1888   47.8108 H   0  0  0  0  0  0  0  0  0  0  0  0
   59.6520   28.3553   47.8108 H   0  0  0  0  0  0  0  0  0  0  0  0
   61.5695   29.4820   47.7977 H   0  0  0  0  0  0  0  0  0  0  0  0
   60.7407   30.2619   46.3586 H   0  0  0  0  0  0  0  0  0  0  0  0
   63.1858   30.6985   49.0549 H   0  0  0  0  0  0  0  0  0  0  0  0
   64.6127   32.7344   49.2747 H   0  0  0  0  0  0  0  0  0  0  0  0
   64.1404   34.7502   47.8809 H   0  0  0  0  0  0  0  0  0  0  0  0
   62.2529   34.7284   46.2504 H   0  0  0  0  0  0  0  0  0  0  0  0
   60.8230   32.6961   46.0186 H   0  0  0  0  0  0  0  0  0  0  0  0
  1  2  1  0
  2  3  1  0
  3  4  1  0
  4  5  2  0
  5  6  1  0
  6  7  2  0
  7  8  1  0
  8  9  2  0
  9 10  1  0
 10 11  1  0
 11 12  1  0
 12 13  1  0
 13 14  1  0
 13 15  1  0
 15 16  1  0
 16 17  2  0
 17 18  1  0
 18 19  2  0
 19 20  1  0
 20 21  2  0
  9  4  1  0
 21 16  1  0
  1 22  1  0
  1 23  1  0
  1 24  1  0
  2 25  1  0
  2 26  1  0
  5 27  1  0
  6 28  1  0
  7 29  1  0
  8 30  1  0
 11 31  1  0
 11 32  1  0
 12 33  1  0
 12 34  1  0
 13 35  1  6
 14 36  1  0
 14 37  1  0
 14 38  1  0
 15 39  1  0
 15 40  1  0
 17 41  1  0
 18 42  1  0
 19 43  1  0
 20 44  1  0
 21 45  1  0
M  CHG  1  13   1
M  END
>  <UniqueID>  (30) 
30

>  <SMILES>  (30) 
CCOc1ccccc1OCC[N@H+](C)Cc1ccccc1

>  <Energy>  (30) 
48.725565439075844

>  <Genealogy>  (30) 
CCOc1ccccc1OCC[NH+](C)Cc1ccccc1 (protonated)
CCOc1ccccc1OCC[N@H+](C)Cc1ccccc1 (chirality)
CCOc1ccccc1OCC[N@H+](C)Cc1ccccc1 (3D coordinates assigned)
CCOc1ccccc1OCC[N@H+](C)Cc1ccccc1 (optimized conformer: 48.725565439075844 kcal/mol)

>  <smiles>  (30) 
CCOc1ccccc1OCCN(C)Cc1ccccc1

>  <score_type>  (30) 
oracle

>  <origin>  (30) 
adg

>  <m_score__min__energy>  (30) 
-4.9299999999999997

>  <m_primary>  (30) 
energy

$$$$
30:0
     RDKit          3D

 44 44  0  0  0  0  0  0  0  0999 V2000
   63.3370   33.8600   46.3620 C   0  0  0  0  0  0  0  0  0  0  0  0
   62.9920   32.5890   47.1360 C   0  0  0  0  0  0  0  0  0  0  0  0
   62.3810   32.9220   48.4440 N   0  0  0  0  0  0  0  0  0  0  0  0
   63.3730   33.4510   49.4100 C   0  0  0  0  0  0  0  0  0  0  0  0
   64.7210   32.7170   49.3760 C   0  0  0  0  0  0  0  0  0  0  0  0
   61.1920   33.8000   48.3320 C   0  0  0  0  0  0  0  0  0  0  0  0
   60.0860   33.1290   47.5280 C   0  0  0  0  0  0  0  0  0  0  0  0
   59.8020   31.7520   47.7160 C   0  0  0  0  0  0  0  0  0  0  0  0
   60.4790   30.9790   48.7240 N   0  0  0  0  0  0  0  0  0  0  0  0
   60.0570   29.6290   49.0810 C   0  0  0  0  0  0  0  0  0  0  0  0
   58.8180   31.1330   46.9400 C   0  0  0  0  0  0  0  0  0  0  0  0
   58.0610   31.8540   46.0100 C   0  0  0  0  0  0  0  0  0  0  0  0
   57.0630   31.2290   45.2390 O   0  0  0  0  0  0  0  0  0  0  0  0
   57.2820   30.5940   43.9830 C   0  0  0  0  0  0  0  0  0  0  0  0
   58.2910   33.2330   45.8460 C   0  0  0  0  0  0  0  0  0  0  0  0
   57.4250   34.0130   44.8790 C   0  0  0  0  0  0  0  0  0  0  0  0
   59.3500   33.8660   46.5520 C   0  0  0  0  0  0  0  0  0  0  0  0
   59.6360   35.3390   46.3170 C   0  0  0  0  0  0  0  0  0  0  0  0
   63.5575   34.6722   47.0703 H   0  0  0  0  0  0  0  0  0  0  0  0
   64.2178   33.6762   45.7292 H   0  0  0  0  0  0  0  0  0  0  0  0
   62.4842   34.1468   45.7292 H   0  0  0  0  0  0  0  0  0  0  0  0
   62.2816   31.9896   46.5477 H   0  0  0  0  0  0  0  0  0  0  0  0
   63.9169   32.0202   47.3123 H   0  0  0  0  0  0  0  0  0  0  0  0
   63.5497   34.5121   49.1801 H   0  0  0  0  0  0  0  0  0  0  0  0
   62.9523   33.3033   50.4156 H   0  0  0  0  0  0  0  0  0  0  0  0
   65.0631   32.5307   50.4047 H   0  0  0  0  0  0  0  0  0  0  0  0
   64.6034   31.7584   48.8495 H   0  0  0  0  0  0  0  0  0  0  0  0
   65.4624   33.3360   48.8495 H   0  0  0  0  0  0  0  0  0  0  0  0
   60.8160   34.0254   49.3409 H   0  0  0  0  0  0  0  0  0  0  0  0
   61.4885   34.7237   47.8134 H   0  0  0  0  0  0  0  0  0  0  0  0
   61.3200   31.3710   49.2020 H   0  0  0  0  0  0  0  0  0  0  0  0
   60.0267   29.5319   50.1763 H   0  0  0  0  0  0  0  0  0  0  0  0
   59.0558   29.4365   48.6680 H   0  0  0  0  0  0  0  0  0  0  0  0
   60.7703   28.9006   48.6680 H   0  0  0  0  0  0  0  0  0  0  0  0
   58.6347   30.0554   47.0631 H   0  0  0  0  0  0  0  0  0  0  0  0
   57.6365   29.5660   44.1488 H   0  0  0  0  0  0  0  0  0  0  0  0
   56.3402   30.5700   43.4151 H   0  0  0  0  0  0  0  0  0  0  0  0
   58.0384   31.1556   43.4151 H   0  0  0  0  0  0  0  0  0  0  0  0
   56.7233   34.6450   45.4430 H   0  0  0  0  0  0  0  0  0  0  0  0
   58.0624   34.6476   44.2458 H   0  0  0  0  0  0  0  0  0  0  0  0
   56.8603   33.3129   44.2458 H   0  0  0  0  0  0  0  0  0  0  0  0
   59.7356   35.8521   47.2849 H   0  0  0  0  0  0  0  0  0  0  0  0
   60.5714   35.4447   45.7480 H   0  0  0  0  0  0  0  0  0  0  0  0
   58.8081   35.7870   45.7480 H   0  0  0  0  0  0  0  0  0  0  0  0
  1  2  1  0
  2  3  1  0
  3  4  1  0
  4  5  1  0
  3  6  1  0
  6  7  1  0
  7  8  2  0
  8  9  1  0
  9 10  1  0
  8 11  1  0
 11 12  2  0
 12 13  1  0
 13 14  1  0
 12 15  1  0
 15 16  1  0
 15 17  2  0
 17 18  1  0
 17  7  1  0
  1 19  1  0
  1 20  1  0
  1 21  1  0
  2 22  1  0
  2 23  1  0
  4 24  1  0
  4 25  1  0
  5 26  1  0
  5 27  1  0
  5 28  1  0
  6 29  1  0
  6 30  1  0
  9 31  1  0
 10 32  1  0
 10 33  1  0
 10 34  1  0
 11 35  1  0
 14 36  1  0
 14 37  1  0
 14 38  1  0
 16 39  1  0
 16 40  1  0
 16 41  1  0
 18 42  1  0
 18 43  1  0
 18 44  1  0
M  END
>  <UniqueID>  (31) 
31

>  <SMILES>  (31) 
CCN(CC)Cc1c(NC)cc(OC)c(C)c1C

>  <Energy>  (31) 
50.067324445759326

>  <Genealogy>  (31) 
CCN(CC)Cc1c(NC)cc(OC)c(C)c1C (3D coordinates assigned)
CCN(CC)Cc1c(NC)cc(OC)c(C)c1C (optimized conformer: 50.067324445759326 kcal/mol)

>  <smiles>  (31) 
CCN(CC)Cc1c(NC)cc(OC)c(C)c1C

>  <score_type>  (31) 
oracle

>  <origin>  (31) 
adg

>  <m_score__min__energy>  (31) 
-5.5700000000000003

>  <m_primary>  (31) 
energy

$$$$
31:0
     RDKit          3D

 29 30  0  0  0  0  0  0  0  0999 V2000
   57.4070   25.4100   46.8530 C   0  0  0  0  0  0  0  0  0  0  0  0
   56.5070   26.7640   46.0380 S   0  0  0  0  0  0  0  0  0  0  0  0
   57.9950   27.7160   45.6790 C   0  0  0  0  0  0  0  0  0  0  0  0
   59.2350   27.1070   45.8880 C   0  0  0  0  0  0  0  0  0  0  0  0
   60.4120   27.7970   45.6070 C   0  0  0  0  0  0  0  0  0  0  0  0
   60.3400   29.1010   45.1250 C   0  0  0  0  0  0  0  0  0  0  0  0
   59.1310   29.6920   44.9280 N   0  0  0  0  0  0  0  0  0  0  0  0
   57.9550   29.0410   45.1830 C   0  0  0  0  0  0  0  0  0  0  0  0
   56.6730   29.7450   44.9370 C   0  0  0  0  0  0  0  0  0  0  0  0
   55.5840   29.1500   45.1510 O   0  0  0  0  0  0  0  0  0  0  0  0
   56.6290   31.1270   44.5530 N   0  0  0  0  0  0  0  0  0  0  0  0
   57.5000   32.1780   45.0010 C   0  0  0  0  0  0  0  0  0  0  0  0
   58.0480   33.1230   44.1120 C   0  0  0  0  0  0  0  0  0  0  0  0
   58.8780   34.1410   44.5910 C   0  0  0  0  0  0  0  0  0  0  0  0
   59.1550   34.2350   45.9570 C   0  0  0  0  0  0  0  0  0  0  0  0
   58.5950   33.3150   46.8480 C   0  0  0  0  0  0  0  0  0  0  0  0
   58.8550   33.4120   48.1750 F   0  0  0  0  0  0  0  0  0  0  0  0
   57.7650   32.2950   46.3720 C   0  0  0  0  0  0  0  0  0  0  0  0
   57.3312   25.5241   47.9444 H   0  0  0  0  0  0  0  0  0  0  0  0
   56.9691   24.4463   46.5538 H   0  0  0  0  0  0  0  0  0  0  0  0
   58.4651   25.4407   46.5538 H   0  0  0  0  0  0  0  0  0  0  0  0
   59.2820   26.0787   46.2759 H   0  0  0  0  0  0  0  0  0  0  0  0
   61.3888   27.3162   45.7644 H   0  0  0  0  0  0  0  0  0  0  0  0
   61.2639   29.6552   44.9028 H   0  0  0  0  0  0  0  0  0  0  0  0
   59.1200   30.6800   44.5870 H   0  0  0  0  0  0  0  0  0  0  0  0
   57.8222   33.0599   43.0373 H   0  0  0  0  0  0  0  0  0  0  0  0
   59.3137   34.8692   43.8910 H   0  0  0  0  0  0  0  0  0  0  0  0
   59.8135   35.0327   46.3313 H   0  0  0  0  0  0  0  0  0  0  0  0
   57.3174   31.5802   47.0782 H   0  0  0  0  0  0  0  0  0  0  0  0
  1  2  1  0
  2  3  1  0
  3  4  2  0
  4  5  1  0
  5  6  2  0
  6  7  1  0
  7  8  2  0
  8  9  1  0
  9 10  2  0
  9 11  1  0
 11 12  1  0
 12 13  2  0
 13 14  1  0
 14 15  2  0
 15 16  1  0
 16 17  1  0
 16 18  2  0
  8  3  1  0
 18 12  1  0
  1 19  1  0
  1 20  1  0
  1 21  1  0
  4 22  1  0
  5 23  1  0
  6 24  1  0
  7 25  1  0
 13 26  1  0
 14 27  1  0
 15 28  1  0
 18 29  1  0
M  CHG  2   7   1  11  -1
M  END
>  <UniqueID>  (32) 
32

>  <SMILES>  (32) 
CSc1ccc[nH+]c1C(=O)[N-]c1cccc(F)c1

>  <Energy>  (32) 
34.1549563509675

>  <Genealogy>  (32) 
CSc1ccc[nH+]c1C(=O)[N-]c1cccc(F)c1 (protonated)
CSc1ccc[nH+]c1C(=O)[N-]c1cccc(F)c1 (3D coordinates assigned)
CSc1ccc[nH+]c1C(=O)[N-]c1cccc(F)c1 (optimized conformer: 34.1549563509675 kcal/mol)

>  <smiles>  (32) 
CSc1cccnc1C(=O)Nc1cccc(F)c1

>  <score_type>  (32) 
oracle

>  <origin>  (32) 
adg

>  <m_score__min__energy>  (32) 
-6.3799999999999999

>  <m_primary>  (32) 
energy

$$$$
32:0
     RDKit          3D

 40 42  0  0  0  0  0  0  0  0999 V2000
   56.5980   30.8210   42.0580 F   0  0  0  0  0  0  0  0  0  0  0  0
   56.4540   29.7550   42.9300 C   0  0  0  0  0  0  0  0  0  0  0  0
   56.7290   28.5890   42.2350 F   0  0  0  0  0  0  0  0  0  0  0  0
   55.1470   29.7130   43.3780 F   0  0  0  0  0  0  0  0  0  0  0  0
   57.3800   29.9030   44.1110 C   0  0  0  0  0  0  0  0  0  0  0  0
   58.2770   28.8740   44.4440 C   0  0  0  0  0  0  0  0  0  0  0  0
   59.1690   29.0280   45.5100 C   0  0  0  0  0  0  0  0  0  0  0  0
   59.1960   30.2200   46.2530 C   0  0  0  0  0  0  0  0  0  0  0  0
   60.1520   30.3590   47.3770 C   0  0  0  0  0  0  0  0  0  0  0  0
   60.0110   29.8540   48.6610 C   0  0  0  0  0  0  0  0  0  0  0  0
   61.1440   30.2390   49.3460 C   0  0  0  0  0  0  0  0  0  0  0  0
   61.9070   30.9470   48.4390 C   0  0  0  0  0  0  0  0  0  0  0  0
   63.2230   31.6010   48.7230 C   0  0  0  0  0  0  0  0  0  0  0  0
   63.6780   32.3660   47.5510 N   0  0  0  0  0  0  0  0  0  0  0  0
   63.2960   33.7860   47.6380 C   0  0  0  0  0  0  0  0  0  0  0  0
   61.7990   33.9730   47.5640 C   0  0  0  0  0  0  0  0  0  0  0  0
   61.1490   33.9840   46.3220 C   0  0  0  0  0  0  0  0  0  0  0  0
   59.7660   34.1780   46.2700 C   0  0  0  0  0  0  0  0  0  0  0  0
   59.0590   34.3600   47.4170 N   0  0  0  0  0  0  0  0  0  0  0  0
   59.6650   34.3580   48.6340 C   0  0  0  0  0  0  0  0  0  0  0  0
   61.0450   34.1660   48.7310 C   0  0  0  0  0  0  0  0  0  0  0  0
   61.2920   31.0060   47.2820 O   0  0  0  0  0  0  0  0  0  0  0  0
   58.3180   31.2600   45.9000 C   0  0  0  0  0  0  0  0  0  0  0  0
   57.4260   31.1050   44.8340 C   0  0  0  0  0  0  0  0  0  0  0  0
   58.2776   27.9406   43.8620 H   0  0  0  0  0  0  0  0  0  0  0  0
   59.8556   28.2085   45.7690 H   0  0  0  0  0  0  0  0  0  0  0  0
   59.1677   29.2664   49.0528 H   0  0  0  0  0  0  0  0  0  0  0  0
   61.3891   30.0262   50.3970 H   0  0  0  0  0  0  0  0  0  0  0  0
   63.1122   32.2819   49.5798 H   0  0  0  0  0  0  0  0  0  0  0  0
   63.9663   30.8233   48.9526 H   0  0  0  0  0  0  0  0  0  0  0  0
   64.7180   32.2820   47.4520 H   0  0  0  0  0  0  0  0  0  0  0  0
   63.2330   31.9650   46.6920 H   0  0  0  0  0  0  0  0  0  0  0  0
   63.6584   34.1937   48.5932 H   0  0  0  0  0  0  0  0  0  0  0  0
   63.7476   34.3130   46.7846 H   0  0  0  0  0  0  0  0  0  0  0  0
   61.7235   33.8409   45.3949 H   0  0  0  0  0  0  0  0  0  0  0  0
   59.2485   34.1835   45.2994 H   0  0  0  0  0  0  0  0  0  0  0  0
   59.0668   34.5080   49.5448 H   0  0  0  0  0  0  0  0  0  0  0  0
   61.5368   34.1661   49.7149 H   0  0  0  0  0  0  0  0  0  0  0  0
   58.3328   32.2027   46.4666 H   0  0  0  0  0  0  0  0  0  0  0  0
   56.7548   31.9322   44.5599 H   0  0  0  0  0  0  0  0  0  0  0  0
  1  2  1  0
  2  3  1  0
  2  4  1  0
  2  5  1  0
  5  6  2  0
  6  7  1  0
  7  8  2  0
  8  9  1  0
  9 10  2  0
 10 11  1  0
 11 12  2  0
 12 13  1  0
 13 14  1  0
 14 15  1  0
 15 16  1  0
 16 17  2  0
 17 18  1  0
 18 19  2  0
 19 20  1  0
 20 21  2  0
 12 22  1  0
  8 23  1  0
 23 24  2  0
 24  5  1  0
 22  9  1  0
 21 16  1  0
  6 25  1  0
  7 26  1  0
 10 27  1  0
 11 28  1  0
 13 29  1  0
 13 30  1  0
 14 31  1  0
 14 32  1  0
 15 33  1  0
 15 34  1  0
 17 35  1  0
 18 36  1  0
 20 37  1  0
 21 38  1  0
 23 39  1  0
 24 40  1  0
M  CHG  1  14   1
M  END
>  <UniqueID>  (33) 
33

>  <SMILES>  (33) 
FC(F)(F)c1ccc(-c2ccc(C[NH2+]Cc3ccncc3)o2)cc1

>  <Energy>  (33) 
69.28137292247607

>  <Genealogy>  (33) 
FC(F)(F)c1ccc(-c2ccc(C[NH2+]Cc3ccncc3)o2)cc1 (protonated)
FC(F)(F)c1ccc(-c2ccc(C[NH2+]Cc3ccncc3)o2)cc1 (3D coordinates assigned)
FC(F)(F)c1ccc(-c2ccc(C[NH2+]Cc3ccncc3)o2)cc1 (optimized conformer: 69.28137292247607 kcal/mol)

>  <smiles>  (33) 
FC(F)(F)c1ccc(-c2ccc(CNCc3ccncc3)o2)cc1

>  <score_type>  (33) 
oracle

>  <origin>  (33) 
adg

>  <m_score__min__energy>  (33) 
-4.96

>  <m_primary>  (33) 
energy

$$$$
33:0
     RDKit          3D

 53 56  0  0  0  0  0  0  0  0999 V2000
   57.9940   33.8190   45.8040 C   0  0  0  0  0  0  0  0  0  0  0  0
   57.9530   32.3150   45.7310 C   0  0  0  0  0  0  0  0  0  0  0  0
   57.0670   31.7010   44.8290 C   0  0  0  0  0  0  0  0  0  0  0  0
   57.0170   30.3010   44.7060 C   0  0  0  0  0  0  0  0  0  0  0  0
   56.0940   29.6470   43.7470 C   0  0  0  0  0  0  0  0  0  0  0  0
   56.4930   29.3590   42.4030 N   0  0  0  0  0  0  0  0  0  0  0  0
   54.9250   29.3460   44.1110 O   0  0  0  0  0  0  0  0  0  0  0  0
   57.8790   29.5190   45.4910 C   0  0  0  0  0  0  0  0  0  0  0  0
   58.7470   30.1180   46.4050 C   0  0  0  0  0  0  0  0  0  0  0  0
   58.7760   31.5120   46.5520 C   0  0  0  0  0  0  0  0  0  0  0  0
   59.6620   32.0910   47.5220 N   0  0  0  0  0  0  0  0  0  0  0  0
   60.9530   32.4340   47.3210 C   0  0  0  0  0  0  0  0  0  0  0  0
   61.5300   32.9250   48.5020 C   0  0  0  0  0  0  0  0  0  0  0  0
   62.9690   33.4130   48.6830 C   0  0  0  0  0  0  0  0  0  0  0  0
   63.8710   32.2880   49.2440 C   0  0  0  0  0  0  0  0  0  0  0  0
   63.5490   33.8500   47.3230 C   0  0  0  0  0  0  0  0  0  0  0  0
   63.0040   34.5880   49.6810 C   0  0  0  0  0  0  0  0  0  0  0  0
   60.5090   32.8430   49.4540 C   0  0  0  0  0  0  0  0  0  0  0  0
   60.4530   33.1490   50.8160 C   0  0  0  0  0  0  0  0  0  0  0  0
   59.2440   32.9090   51.5070 C   0  0  0  0  0  0  0  0  0  0  0  0
   59.1290   33.2150   52.9560 C   0  0  0  0  0  0  0  0  0  0  0  0
   59.2980   34.5270   53.4310 C   0  0  0  0  0  0  0  0  0  0  0  0
   59.1900   34.8000   54.7960 C   0  0  0  0  0  0  0  0  0  0  0  0
   58.9100   33.7590   55.6810 C   0  0  0  0  0  0  0  0  0  0  0  0
   58.7460   32.4930   55.2130 N   0  0  0  0  0  0  0  0  0  0  0  0
   58.8490   32.2010   53.8890 C   0  0  0  0  0  0  0  0  0  0  0  0
   58.1450   32.3630   50.7960 C   0  0  0  0  0  0  0  0  0  0  0  0
   58.2470   32.0790   49.4660 N   0  0  0  0  0  0  0  0  0  0  0  0
   59.4100   32.3330   48.8170 C   0  0  0  0  0  0  0  0  0  0  0  0
   58.0026   34.1349   46.8576 H   0  0  0  0  0  0  0  0  0  0  0  0
   58.9025   34.1857   45.3038 H   0  0  0  0  0  0  0  0  0  0  0  0
   57.1069   34.2347   45.3038 H   0  0  0  0  0  0  0  0  0  0  0  0
   56.4038   32.3240   44.2109 H   0  0  0  0  0  0  0  0  0  0  0  0
   57.3830   29.7270   42.0040 H   0  0  0  0  0  0  0  0  0  0  0  0
   55.8450   28.8430   41.7670 H   0  0  0  0  0  0  0  0  0  0  0  0
   57.8702   28.4242   45.3847 H   0  0  0  0  0  0  0  0  0  0  0  0
   59.4140   29.4912   47.0152 H   0  0  0  0  0  0  0  0  0  0  0  0
   61.4810   32.3409   46.3605 H   0  0  0  0  0  0  0  0  0  0  0  0
   63.8495   32.3148   50.3435 H   0  0  0  0  0  0  0  0  0  0  0  0
   63.5016   31.3129   48.8937 H   0  0  0  0  0  0  0  0  0  0  0  0
   64.9031   32.4365   48.8937 H   0  0  0  0  0  0  0  0  0  0  0  0
   64.4176   34.5044   47.4881 H   0  0  0  0  0  0  0  0  0  0  0  0
   63.8621   32.9613   46.7553 H   0  0  0  0  0  0  0  0  0  0  0  0
   62.7811   34.3960   46.7553 H   0  0  0  0  0  0  0  0  0  0  0  0
   62.9923   34.1965   50.7089 H   0  0  0  0  0  0  0  0  0  0  0  0
   63.9201   35.1761   49.5230 H   0  0  0  0  0  0  0  0  0  0  0  0
   62.1246   35.2296   49.5230 H   0  0  0  0  0  0  0  0  0  0  0  0
   61.3275   33.5660   51.3370 H   0  0  0  0  0  0  0  0  0  0  0  0
   59.5161   35.3417   52.7248 H   0  0  0  0  0  0  0  0  0  0  0  0
   59.3244   35.8258   55.1697 H   0  0  0  0  0  0  0  0  0  0  0  0
   58.8218   33.9624   56.7584 H   0  0  0  0  0  0  0  0  0  0  0  0
   58.7124   31.1649   53.5456 H   0  0  0  0  0  0  0  0  0  0  0  0
   57.1998   32.1664   51.3232 H   0  0  0  0  0  0  0  0  0  0  0  0
  1  2  1  0
  2  3  2  0
  3  4  1  0
  4  5  1  0
  5  6  1  0
  5  7  2  0
  4  8  2  0
  8  9  1  0
  9 10  2  0
 10 11  1  0
 11 12  1  0
 12 13  2  0
 13 14  1  0
 14 15  1  0
 14 16  1  0
 14 17  1  0
 13 18  1  0
 18 19  2  0
 19 20  1  0
 20 21  1  0
 21 22  2  0
 22 23  1  0
 23 24  2  0
 24 25  1  0
 25 26  2  0
 20 27  2  0
 27 28  1  0
 28 29  2  0
 10  2  1  0
 29 11  1  0
 29 18  1  0
 26 21  1  0
  1 30  1  0
  1 31  1  0
  1 32  1  0
  3 33  1  0
  6 34  1  0
  6 35  1  0
  8 36  1  0
  9 37  1  0
 12 38  1  0
 15 39  1  0
 15 40  1  0
 15 41  1  0
 16 42  1  0
 16 43  1  0
 16 44  1  0
 17 45  1  0
 17 46  1  0
 17 47  1  0
 19 48  1  0
 22 49  1  0
 23 50  1  0
 24 51  1  0
 26 52  1  0
 27 53  1  0
M  END
>  <UniqueID>  (34) 
34

>  <SMILES>  (34) 
Cc1cc(C(N)=O)ccc1-n1cc(C(C)(C)C)c2cc(-c3cccnc3)cnc21

>  <Energy>  (34) 
104.7051807830209

>  <Genealogy>  (34) 
Cc1cc(C(N)=O)ccc1-n1cc(C(C)(C)C)c2cc(-c3cccnc3)cnc21 (3D coordinates assigned)
Cc1cc(C(N)=O)ccc1-n1cc(C(C)(C)C)c2cc(-c3cccnc3)cnc21 (optimized conformer: 104.7051807830209 kcal/mol)

>  <smiles>  (34) 
Cc1cc(C(N)=O)ccc1-n1cc(C(C)(C)C)c2cc(-c3cccnc3)cnc21

>  <score_type>  (34) 
oracle

>  <origin>  (34) 
adg

>  <m_score__min__energy>  (34) 
-9.1699999999999999

>  <m_primary>  (34) 
energy

$$$$
34:0
     RDKit          3D

 30 32  0  0  0  0  0  0  0  0999 V2000
   58.7980   28.9760   45.5040 C   0  0  0  0  0  0  0  0  0  0  0  0
   57.9690   30.1660   45.1600 C   0  0  0  0  0  0  0  0  0  0  0  0
   56.6540   30.1140   44.8790 N   0  0  0  0  0  0  0  0  0  0  0  0
   56.2870   31.3550   44.5970 N   0  0  0  0  0  0  0  0  0  0  0  0
   57.3950   32.1100   44.7130 C   0  0  0  0  0  0  0  0  0  0  0  0
   57.4360   33.5850   44.4720 C   0  0  0  0  0  0  0  0  0  0  0  0
   57.7970   34.2780   45.6670 O   0  0  0  0  0  0  0  0  0  0  0  0
   58.9030   33.9750   46.4780 C   0  0  0  0  0  0  0  0  0  0  0  0
   58.6630   33.5760   47.7970 C   0  0  0  0  0  0  0  0  0  0  0  0
   59.7200   33.2660   48.6560 C   0  0  0  0  0  0  0  0  0  0  0  0
   61.0440   33.3520   48.2030 C   0  0  0  0  0  0  0  0  0  0  0  0
   62.1140   33.0470   49.0570 C   0  0  0  0  0  0  0  0  0  0  0  0
   63.4310   33.1360   48.5940 C   0  0  0  0  0  0  0  0  0  0  0  0
   64.8840   32.7190   49.7610 Br  0  0  0  0  0  0  0  0  0  0  0  0
   63.6860   33.5300   47.2760 C   0  0  0  0  0  0  0  0  0  0  0  0
   62.6280   33.8370   46.4160 C   0  0  0  0  0  0  0  0  0  0  0  0
   61.3020   33.7520   46.8700 C   0  0  0  0  0  0  0  0  0  0  0  0
   60.2320   34.0580   46.0150 C   0  0  0  0  0  0  0  0  0  0  0  0
   58.4340   31.3870   45.0570 O   0  0  0  0  0  0  0  0  0  0  0  0
   58.8651   28.8797   46.5977 H   0  0  0  0  0  0  0  0  0  0  0  0
   58.3334   28.0717   45.0841 H   0  0  0  0  0  0  0  0  0  0  0  0
   59.8073   29.0985   45.0841 H   0  0  0  0  0  0  0  0  0  0  0  0
   58.1773   33.8032   43.6892 H   0  0  0  0  0  0  0  0  0  0  0  0
   56.4380   33.9210   44.1541 H   0  0  0  0  0  0  0  0  0  0  0  0
   57.6280   33.5054   48.1627 H   0  0  0  0  0  0  0  0  0  0  0  0
   59.5131   32.9537   49.6902 H   0  0  0  0  0  0  0  0  0  0  0  0
   61.9170   32.7369   50.0938 H   0  0  0  0  0  0  0  0  0  0  0  0
   64.7229   33.5984   46.9153 H   0  0  0  0  0  0  0  0  0  0  0  0
   62.8346   34.1460   45.3807 H   0  0  0  0  0  0  0  0  0  0  0  0
   60.4315   34.3644   44.9775 H   0  0  0  0  0  0  0  0  0  0  0  0
  1  2  1  0
  2  3  2  0
  3  4  1  0
  4  5  2  0
  5  6  1  0
  6  7  1  0
  7  8  1  0
  8  9  2  0
  9 10  1  0
 10 11  2  0
 11 12  1  0
 12 13  2  0
 13 14  1  0
 13 15  1  0
 15 16  2  0
 16 17  1  0
 17 18  2  0
  5 19  1  0
 19  2  1  0
 18  8  1  0
 17 11  1  0
  1 20  1  0
  1 21  1  0
  1 22  1  0
  6 23  1  0
  6 24  1  0
  9 25  1  0
 10 26  1  0
 12 27  1  0
 15 28  1  0
 16 29  1  0
 18 30  1  0
M  END
>  <UniqueID>  (35) 
35

>  <SMILES>  (35) 
Cc1nnc(COc2ccc3cc(Br)ccc3c2)o1

>  <Energy>  (35) 
67.20996141602386

>  <Genealogy>  (35) 
Cc1nnc(COc2ccc3cc(Br)ccc3c2)o1 (3D coordinates assigned)
Cc1nnc(COc2ccc3cc(Br)ccc3c2)o1 (optimized conformer: 67.20996141602386 kcal/mol)

>  <smiles>  (35) 
Cc1nnc(COc2ccc3cc(Br)ccc3c2)o1

>  <score_type>  (35) 
oracle

>  <origin>  (35) 
adg

>  <m_score__min__energy>  (35) 
-7.5599999999999996

>  <m_primary>  (35) 
energy

$$$$
35:0
     RDKit          3D

 41 44  0  0  0  0  0  0  0  0999 V2000
   64.7767   32.9035   47.6296 H   0  0  0  0  0  0  0  0  0  0  0  0
   63.7340   33.2130   47.7940 C   0  0  0  0  0  0  0  0  0  0  0  0
   63.2440   33.3530   49.0940 C   0  0  0  0  0  0  0  0  0  0  0  0
   63.9035   33.1602   49.9530 H   0  0  0  0  0  0  0  0  0  0  0  0
   61.9160   33.7380   49.3060 C   0  0  0  0  0  0  0  0  0  0  0  0
   61.5368   33.8548   50.3320 H   0  0  0  0  0  0  0  0  0  0  0  0
   61.0650   33.9760   48.2150 C   0  0  0  0  0  0  0  0  0  0  0  0
   59.6440   34.4250   48.4410 C   0  0  0  0  0  0  0  0  0  0  0  0
   59.4633   35.3460   47.8673 H   0  0  0  0  0  0  0  0  0  0  0  0
   59.5026   34.6039   49.5171 H   0  0  0  0  0  0  0  0  0  0  0  0
   58.6910   33.4020   48.0130 N   0  0  0  0  0  0  0  0  0  0  0  0
   58.4050   33.1150   46.7770 C   0  0  0  0  0  0  0  0  0  0  0  0
   58.2640   31.8110   46.3720 N   0  0  0  0  0  0  0  0  0  0  0  0
   57.9730   31.5630   45.0720 C   0  0  0  0  0  0  0  0  0  0  0  0
   57.7760   32.5460   44.1630 C   0  0  0  0  0  0  0  0  0  0  0  0
   57.4080   31.9900   42.9970 N   0  0  0  0  0  0  0  0  0  0  0  0
   57.3850   30.6740   43.2170 N   0  0  0  0  0  0  0  0  0  0  0  0
   57.7270   30.3880   44.4720 N   0  0  0  0  0  0  0  0  0  0  0  0
   57.7610   29.0600   45.0250 C   0  0  0  0  0  0  0  0  0  0  0  0
   58.9910   28.4820   45.3810 C   0  0  0  0  0  0  0  0  0  0  0  0
   59.9230   29.0481   45.2364 H   0  0  0  0  0  0  0  0  0  0  0  0
   59.0380   27.1940   45.9170 C   0  0  0  0  0  0  0  0  0  0  0  0
   60.0066   26.7460   46.1835 H   0  0  0  0  0  0  0  0  0  0  0  0
   57.8580   26.4720   46.1160 C   0  0  0  0  0  0  0  0  0  0  0  0
   57.9009   25.4552   46.5334 H   0  0  0  0  0  0  0  0  0  0  0  0
   56.6160   27.0420   45.7840 C   0  0  0  0  0  0  0  0  0  0  0  0
   55.4030   26.3650   45.9760 O   0  0  0  0  0  0  0  0  0  0  0  0
   55.1630   25.0160   45.5880 C   0  0  0  0  0  0  0  0  0  0  0  0
   55.0517   24.3905   46.4860 H   0  0  0  0  0  0  0  0  0  0  0  0
   54.2417   24.9651   44.9892 H   0  0  0  0  0  0  0  0  0  0  0  0
   56.0102   24.6504   44.9892 H   0  0  0  0  0  0  0  0  0  0  0  0
   56.5760   28.3340   45.2450 C   0  0  0  0  0  0  0  0  0  0  0  0
   55.6063   28.7867   44.9905 H   0  0  0  0  0  0  0  0  0  0  0  0
   57.8980   33.8850   44.5080 C   0  0  0  0  0  0  0  0  0  0  0  0
   57.7445   34.6854   43.7692 H   0  0  0  0  0  0  0  0  0  0  0  0
   58.2270   34.1720   45.8460 C   0  0  0  0  0  0  0  0  0  0  0  0
   58.3463   35.2162   46.1707 H   0  0  0  0  0  0  0  0  0  0  0  0
   61.5720   33.8550   46.9090 C   0  0  0  0  0  0  0  0  0  0  0  0
   60.9223   34.0669   46.0470 H   0  0  0  0  0  0  0  0  0  0  0  0
   62.9000   33.4660   46.7020 C   0  0  0  0  0  0  0  0  0  0  0  0
   63.2879   33.3592   45.6782 H   0  0  0  0  0  0  0  0  0  0  0  0
  1  2  1  0
  2  3  2  0
  3  4  1  0
  3  5  1  0
  5  6  1  0
  5  7  2  0
  7  8  1  0
  8  9  1  0
  8 10  1  0
  8 11  1  0
 11 12  2  0
 12 13  1  0
 13 14  1  0
 14 15  2  0
 15 16  1  0
 16 17  2  0
 17 18  1  0
 18 19  1  0
 19 20  2  0
 20 21  1  0
 20 22  1  0
 22 23  1  0
 22 24  2  0
 24 25  1  0
 24 26  1  0
 26 27  1  0
 27 28  1  0
 28 29  1  0
 28 30  1  0
 28 31  1  0
 26 32  2  0
 32 33  1  0
 15 34  1  0
 34 35  1  0
 34 36  2  0
 36 37  1  0
  7 38  1  0
 38 39  1  0
 38 40  2  0
 40 41  1  0
 40  2  1  0
 36 12  1  0
 18 14  1  0
 32 19  1  0
M  CHG  1  13  -1
M  END
>  <UniqueID>  (36) 
36

>  <SMILES>  (36) 
COc1cccc(-n2nnc3cc/c(=N/Cc4ccccc4)[n-]c32)c1

>  <Energy>  (36) 
93.25797532582764

>  <Genealogy>  (36) 
COc1cccc(-n2nnc3ccc(=NCc4ccccc4)[n-]c32)c1 (protonated)
COc1cccc(-n2nnc3cc/c(=N/Cc4ccccc4)[n-]c32)c1 (cis-trans isomerization)
COc1cccc(-n2nnc3cc/c(=N/Cc4ccccc4)[n-]c32)c1 (3D coordinates assigned)
COc1cccc(-n2nnc3cc/c(=N/Cc4ccccc4)[n-]c32)c1 (optimized conformer: 93.25797532582764 kcal/mol)

>  <smiles>  (36) 
COc1cccc(-n2nnc3ccc(=NCc4ccccc4)[nH]c32)c1

>  <score_type>  (36) 
oracle

>  <origin>  (36) 
adg

>  <m_score__min__energy>  (36) 
-9.9700000000000006

>  <m_primary>  (36) 
energy

$$$$
36:0
     RDKit          3D

 45 47  0  0  0  0  0  0  0  0999 V2000
   58.7100   32.7180   49.1780 C   0  0  0  0  0  0  0  0  0  0  0  0
   58.7010   33.2540   47.7780 C   0  0  0  0  0  0  0  0  0  0  0  0
   59.3190   34.4760   47.4760 C   0  0  0  0  0  0  0  0  0  0  0  0
   59.2910   34.9730   46.1720 C   0  0  0  0  0  0  0  0  0  0  0  0
   58.6530   34.2530   45.1580 C   0  0  0  0  0  0  0  0  0  0  0  0
   58.0340   33.0230   45.4420 C   0  0  0  0  0  0  0  0  0  0  0  0
   57.3650   32.2660   44.3570 C   0  0  0  0  0  0  0  0  0  0  0  0
   57.4960   32.6530   43.1660 O   0  0  0  0  0  0  0  0  0  0  0  0
   56.5270   31.1300   44.6170 N   0  0  0  0  0  0  0  0  0  0  0  0
   56.8980   29.7460   44.5400 C   0  0  0  0  0  0  0  0  0  0  0  0
   57.4310   29.1830   43.3660 C   0  0  0  0  0  0  0  0  0  0  0  0
   57.7760   27.8310   43.3300 C   0  0  0  0  0  0  0  0  0  0  0  0
   57.5690   27.0230   44.4500 C   0  0  0  0  0  0  0  0  0  0  0  0
   57.0120   27.5650   45.6220 C   0  0  0  0  0  0  0  0  0  0  0  0
   56.7400   26.7440   46.7690 N   0  0  0  0  0  0  0  0  0  0  0  0
   57.7090   25.8820   47.3830 C   0  0  0  0  0  0  0  0  0  0  0  0
   57.3400   24.7750   47.8530 O   0  0  0  0  0  0  0  0  0  0  0  0
   59.0930   26.2470   47.4670 N   0  0  0  0  0  0  0  0  0  0  0  0
   59.6090   27.5860   47.4930 C   0  0  0  0  0  0  0  0  0  0  0  0
   59.7140   28.3140   48.6910 C   0  0  0  0  0  0  0  0  0  0  0  0
   60.2680   29.5970   48.6910 C   0  0  0  0  0  0  0  0  0  0  0  0
   60.7440   30.1680   47.4970 C   0  0  0  0  0  0  0  0  0  0  0  0
   61.3410   31.4780   47.4960 N   0  0  0  0  0  0  0  0  0  0  0  0
   61.2380   32.2230   46.4990 O   0  0  0  0  0  0  0  0  0  0  0  0
   62.0340   31.9330   48.5940 O   0  0  0  0  0  0  0  0  0  0  0  0
   60.6410   29.4330   46.3030 C   0  0  0  0  0  0  0  0  0  0  0  0
   60.0840   28.1510   46.3050 C   0  0  0  0  0  0  0  0  0  0  0  0
   56.6670   28.9240   45.6500 C   0  0  0  0  0  0  0  0  0  0  0  0
   58.0430   32.5410   46.7640 C   0  0  0  0  0  0  0  0  0  0  0  0
   58.6959   33.5553   49.8913 H   0  0  0  0  0  0  0  0  0  0  0  0
   57.8223   32.0876   49.3350 H   0  0  0  0  0  0  0  0  0  0  0  0
   59.6183   32.1178   49.3350 H   0  0  0  0  0  0  0  0  0  0  0  0
   59.8272   35.0444   48.2689 H   0  0  0  0  0  0  0  0  0  0  0  0
   59.7727   35.9347   45.9415 H   0  0  0  0  0  0  0  0  0  0  0  0
   58.6351   34.6507   44.1326 H   0  0  0  0  0  0  0  0  0  0  0  0
   57.5763   29.8100   42.4740 H   0  0  0  0  0  0  0  0  0  0  0  0
   58.2123   27.4006   42.4165 H   0  0  0  0  0  0  0  0  0  0  0  0
   57.8428   25.9582   44.4153 H   0  0  0  0  0  0  0  0  0  0  0  0
   55.7660   26.7250   47.1480 H   0  0  0  0  0  0  0  0  0  0  0  0
   59.3583   27.8715   49.6332 H   0  0  0  0  0  0  0  0  0  0  0  0
   60.3322   30.1642   49.6313 H   0  0  0  0  0  0  0  0  0  0  0  0
   61.0015   29.8701   45.3601 H   0  0  0  0  0  0  0  0  0  0  0  0
   60.0188   27.5824   45.3656 H   0  0  0  0  0  0  0  0  0  0  0  0
   56.2092   29.3496   46.5552 H   0  0  0  0  0  0  0  0  0  0  0  0
   57.5303   31.5980   47.0045 H   0  0  0  0  0  0  0  0  0  0  0  0
  1  2  1  0
  2  3  2  0
  3  4  1  0
  4  5  2  0
  5  6  1  0
  6  7  1  0
  7  8  2  0
  7  9  1  0
  9 10  1  0
 10 11  2  0
 11 12  1  0
 12 13  2  0
 13 14  1  0
 14 15  1  0
 15 16  1  0
 16 17  2  0
 16 18  1  0
 18 19  1  0
 19 20  2  0
 20 21  1  0
 21 22  2  0
 22 23  1  0
 23 24  2  0
 23 25  1  0
 22 26  1  0
 26 27  2  0
 14 28  2  0
  6 29  2  0
 29  2  1  0
 28 10  1  0
 27 19  1  0
  1 30  1  0
  1 31  1  0
  1 32  1  0
  3 33  1  0
  4 34  1  0
  5 35  1  0
 11 36  1  0
 12 37  1  0
 13 38  1  0
 15 39  1  0
 20 40  1  0
 21 41  1  0
 26 42  1  0
 27 43  1  0
 28 44  1  0
 29 45  1  0
M  CHG  4   9  -1  18  -1  23   1  25  -1
M  END
>  <UniqueID>  (37) 
37

>  <SMILES>  (37) 
Cc1cccc(C(=O)[N-]c2cccc(NC(=O)[N-]c3ccc([N+](=O)[O-])cc3)c2)c1

>  <Energy>  (37) 
59.7199139441008

>  <Genealogy>  (37) 
Cc1cccc(C(=O)[N-]c2cccc(NC(=O)[N-]c3ccc([N+](=O)[O-])cc3)c2)c1 (protonated)
Cc1cccc(C(=O)[N-]c2cccc(NC(=O)[N-]c3ccc([N+](=O)[O-])cc3)c2)c1 (3D coordinates assigned)
Cc1cccc(C(=O)[N-]c2cccc(NC(=O)[N-]c3ccc([N+](=O)[O-])cc3)c2)c1 (optimized conformer: 59.7199139441008 kcal/mol)

>  <smiles>  (37) 
Cc1cccc(C(=O)Nc2cccc(NC(=O)Nc3ccc([N+](=O)[O-])cc3)c2)c1

>  <score_type>  (37) 
oracle

>  <origin>  (37) 
adg

>  <m_score__min__energy>  (37) 
-12.52

>  <m_primary>  (37) 
energy

$$$$
37:0
     RDKit          3D

 35 37  0  0  0  0  0  0  0  0999 V2000
   59.5786   27.5526   46.5571 H   0  0  0  0  0  0  0  0  0  0  0  0
   58.6490   26.9760   46.4410 C   0  0  0  0  0  0  0  0  0  0  0  0
   58.6290   25.6480   46.7230 N   0  0  0  0  0  0  0  0  0  0  0  0
   57.4970   24.9090   46.5910 C   0  0  0  0  0  0  0  0  0  0  0  0
   57.5028   23.8361   46.8336 H   0  0  0  0  0  0  0  0  0  0  0  0
   56.3170   25.5290   46.1410 C   0  0  0  0  0  0  0  0  0  0  0  0
   55.1990   24.8810   45.9840 N   0  0  0  0  0  0  0  0  0  0  0  0
   55.0190   23.4350   46.0860 C   0  0  0  0  0  0  0  0  0  0  0  0
   55.3010   23.0997   47.0950 H   0  0  0  0  0  0  0  0  0  0  0  0
   53.9654   23.1804   45.8988 H   0  0  0  0  0  0  0  0  0  0  0  0
   55.8900   22.7540   45.0690 C   0  0  0  0  0  0  0  0  0  0  0  0
   55.8120   23.1070   43.7140 C   0  0  0  0  0  0  0  0  0  0  0  0
   55.1303   23.9081   43.3923 H   0  0  0  0  0  0  0  0  0  0  0  0
   56.6000   22.4410   42.7740 C   0  0  0  0  0  0  0  0  0  0  0  0
   56.5506   22.7189   41.7108 H   0  0  0  0  0  0  0  0  0  0  0  0
   57.4520   21.4180   43.1970 C   0  0  0  0  0  0  0  0  0  0  0  0
   58.0800   20.8892   42.4649 H   0  0  0  0  0  0  0  0  0  0  0  0
   57.5070   21.0740   44.5120 N   0  0  0  0  0  0  0  0  0  0  0  0
   58.1430   20.3020   44.8120 H   0  0  0  0  0  0  0  0  0  0  0  0
   56.7470   21.7100   45.4460 C   0  0  0  0  0  0  0  0  0  0  0  0
   56.8056   21.4035   46.5008 H   0  0  0  0  0  0  0  0  0  0  0  0
   56.3470   26.8580   45.8590 N   0  0  0  0  0  0  0  0  0  0  0  0
   57.4750   27.6090   46.0000 C   0  0  0  0  0  0  0  0  0  0  0  0
   57.4360   29.0570   45.6690 C   0  0  0  0  0  0  0  0  0  0  0  0
   56.6510   29.5470   44.6070 C   0  0  0  0  0  0  0  0  0  0  0  0
   56.0467   28.8498   44.0081 H   0  0  0  0  0  0  0  0  0  0  0  0
   56.6340   30.9140   44.3080 C   0  0  0  0  0  0  0  0  0  0  0  0
   56.0141   31.2867   43.4793 H   0  0  0  0  0  0  0  0  0  0  0  0
   57.4030   31.8070   45.0600 C   0  0  0  0  0  0  0  0  0  0  0  0
   57.3850   33.2130   44.7510 C   0  0  0  0  0  0  0  0  0  0  0  0
   57.3710   34.3430   44.5020 N   0  0  0  0  0  0  0  0  0  0  0  0
   58.1950   31.3300   46.1100 C   0  0  0  0  0  0  0  0  0  0  0  0
   58.8038   32.0304   46.7005 H   0  0  0  0  0  0  0  0  0  0  0  0
   58.2140   29.9650   46.4100 C   0  0  0  0  0  0  0  0  0  0  0  0
   58.8435   29.5971   47.2336 H   0  0  0  0  0  0  0  0  0  0  0  0
  1  2  1  0
  2  3  1  0
  3  4  2  0
  4  5  1  0
  4  6  1  0
  6  7  2  0
  7  8  1  0
  8  9  1  0
  8 10  1  0
  8 11  1  0
 11 12  2  0
 12 13  1  0
 12 14  1  0
 14 15  1  0
 14 16  2  0
 16 17  1  0
 16 18  1  0
 18 19  1  0
 18 20  2  0
 20 21  1  0
  6 22  1  0
 22 23  1  0
 23 24  1  0
 24 25  2  0
 25 26  1  0
 25 27  1  0
 27 28  1  0
 27 29  2  0
 29 30  1  0
 30 31  3  0
 29 32  1  0
 32 33  1  0
 32 34  2  0
 34 35  1  0
 23  2  2  0
 34 24  1  0
 20 11  1  0
M  CHG  2  18   1  22  -1
M  END
>  <UniqueID>  (38) 
38

>  <SMILES>  (38) 
N#Cc1ccc(-c2cnc/c(=N\Cc3ccc[nH+]c3)[n-]2)cc1

>  <Energy>  (38) 
43.4348653672362

>  <Genealogy>  (38) 
N#Cc1ccc(-c2cncc(=NCc3ccc[nH+]c3)[n-]2)cc1 (protonated)
N#Cc1ccc(-c2cnc/c(=N\Cc3ccc[nH+]c3)[n-]2)cc1 (cis-trans isomerization)
N#Cc1ccc(-c2cnc/c(=N\Cc3ccc[nH+]c3)[n-]2)cc1 (3D coordinates assigned)
N#Cc1ccc(-c2cnc/c(=N\Cc3ccc[nH+]c3)[n-]2)cc1 (optimized conformer: 43.4348653672362 kcal/mol)

>  <smiles>  (38) 
N#Cc1ccc(-c2cncc(=NCc3cccnc3)[nH]2)cc1

>  <score_type>  (38) 
oracle

>  <origin>  (38) 
adg

>  <m_score__min__energy>  (38) 
-7.9199999999999999

>  <m_primary>  (38) 
energy

$$$$
38:0
     RDKit          3D

 54 56  0  0  0  0  0  0  0  0999 V2000
   60.9280   34.1830   49.1900 C   0  0  0  0  0  0  0  0  0  0  0  0
   62.4430   34.3850   49.2600 C   0  0  0  0  0  0  0  0  0  0  0  0
   63.2380   33.2170   48.8100 N   0  0  0  0  0  0  0  0  0  0  0  0
   63.7480   33.3160   47.4200 C   0  0  0  0  0  0  0  0  0  0  0  0
   62.7120   33.8020   46.3930 C   0  0  0  0  0  0  0  0  0  0  0  0
   64.1940   32.6600   49.7940 C   0  0  0  0  0  0  0  0  0  0  0  0
   63.5100   32.2150   51.0970 C   0  0  0  0  0  0  0  0  0  0  0  0
   62.2120   31.4280   50.8340 C   0  0  0  0  0  0  0  0  0  0  0  0
   62.2680   30.6550   49.5790 N   0  0  0  0  0  0  0  0  0  0  0  0
   60.9310   30.2480   49.1090 C   0  0  0  0  0  0  0  0  0  0  0  0
   60.7600   30.5310   47.6330 C   0  0  0  0  0  0  0  0  0  0  0  0
   61.7810   30.8220   46.9520 O   0  0  0  0  0  0  0  0  0  0  0  0
   59.4620   30.4740   46.9970 N   0  0  0  0  0  0  0  0  0  0  0  0
   58.8070   31.6700   46.5210 C   0  0  0  0  0  0  0  0  0  0  0  0
   58.5750   32.7630   47.3730 C   0  0  0  0  0  0  0  0  0  0  0  0
   57.7950   33.8400   46.9390 C   0  0  0  0  0  0  0  0  0  0  0  0
   57.2180   33.8220   45.6660 C   0  0  0  0  0  0  0  0  0  0  0  0
   57.4220   32.7290   44.8190 C   0  0  0  0  0  0  0  0  0  0  0  0
   58.2210   31.6610   45.2390 C   0  0  0  0  0  0  0  0  0  0  0  0
   58.5450   30.2790   44.1360 S   0  0  0  0  0  0  0  0  0  0  0  0
   58.2300   29.0550   45.4150 C   0  0  0  0  0  0  0  0  0  0  0  0
   57.4430   27.9320   45.1440 C   0  0  0  0  0  0  0  0  0  0  0  0
   57.2540   26.9580   46.1310 C   0  0  0  0  0  0  0  0  0  0  0  0
   56.2790   25.5410   45.7880 Cl  0  0  0  0  0  0  0  0  0  0  0  0
   57.8380   27.1180   47.3930 C   0  0  0  0  0  0  0  0  0  0  0  0
   58.6070   28.2520   47.6730 C   0  0  0  0  0  0  0  0  0  0  0  0
   58.8170   29.2240   46.6820 C   0  0  0  0  0  0  0  0  0  0  0  0
   60.5179   34.1283   50.2092 H   0  0  0  0  0  0  0  0  0  0  0  0
   60.4697   35.0280   48.6552 H   0  0  0  0  0  0  0  0  0  0  0  0
   60.7071   33.2475   48.6552 H   0  0  0  0  0  0  0  0  0  0  0  0
   62.7052   35.2446   48.6257 H   0  0  0  0  0  0  0  0  0  0  0  0
   62.6900   34.5433   50.3202 H   0  0  0  0  0  0  0  0  0  0  0  0
   64.5938   34.0193   47.4138 H   0  0  0  0  0  0  0  0  0  0  0  0
   64.0329   32.2973   47.1184 H   0  0  0  0  0  0  0  0  0  0  0  0
   61.8378   34.2121   46.9199 H   0  0  0  0  0  0  0  0  0  0  0  0
   63.1600   34.5839   45.7622 H   0  0  0  0  0  0  0  0  0  0  0  0
   62.3971   32.9577   45.7622 H   0  0  0  0  0  0  0  0  0  0  0  0
   64.6954   31.7902   49.3445 H   0  0  0  0  0  0  0  0  0  0  0  0
   64.9106   33.4548   50.0487 H   0  0  0  0  0  0  0  0  0  0  0  0
   64.2044   31.5746   51.6607 H   0  0  0  0  0  0  0  0  0  0  0  0
   63.2472   33.1190   51.6660 H   0  0  0  0  0  0  0  0  0  0  0  0
   62.0447   30.7329   51.6700 H   0  0  0  0  0  0  0  0  0  0  0  0
   61.3913   32.1549   50.7440 H   0  0  0  0  0  0  0  0  0  0  0  0
   62.7520   31.2190   48.8410 H   0  0  0  0  0  0  0  0  0  0  0  0
   62.8370   29.7950   49.7610 H   0  0  0  0  0  0  0  0  0  0  0  0
   60.8018   29.1699   49.2849 H   0  0  0  0  0  0  0  0  0  0  0  0
   60.1764   30.8249   49.6638 H   0  0  0  0  0  0  0  0  0  0  0  0
   59.0080   32.7717   48.3842 H   0  0  0  0  0  0  0  0  0  0  0  0
   57.6352   34.7035   47.6014 H   0  0  0  0  0  0  0  0  0  0  0  0
   56.6023   34.6695   45.3302 H   0  0  0  0  0  0  0  0  0  0  0  0
   56.9547   32.7090   43.8234 H   0  0  0  0  0  0  0  0  0  0  0  0
   56.9730   27.8140   44.1565 H   0  0  0  0  0  0  0  0  0  0  0  0
   57.6917   26.3497   48.1665 H   0  0  0  0  0  0  0  0  0  0  0  0
   59.0484   28.3827   48.6721 H   0  0  0  0  0  0  0  0  0  0  0  0
  1  2  1  0
  2  3  1  0
  3  4  1  0
  4  5  1  0
  3  6  1  0
  6  7  1  0
  7  8  1  0
  8  9  1  0
  9 10  1  0
 10 11  1  0
 11 12  2  0
 11 13  1  0
 13 14  1  0
 14 15  2  0
 15 16  1  0
 16 17  2  0
 17 18  1  0
 18 19  2  0
 19 20  1  0
 20 21  1  0
 21 22  2  0
 22 23  1  0
 23 24  1  0
 23 25  2  0
 25 26  1  0
 26 27  2  0
 27 13  1  0
 19 14  1  0
 27 21  1  0
  1 28  1  0
  1 29  1  0
  1 30  1  0
  2 31  1  0
  2 32  1  0
  4 33  1  0
  4 34  1  0
  5 35  1  0
  5 36  1  0
  5 37  1  0
  6 38  1  0
  6 39  1  0
  7 40  1  0
  7 41  1  0
  8 42  1  0
  8 43  1  0
  9 44  1  0
  9 45  1  0
 10 46  1  0
 10 47  1  0
 15 48  1  0
 16 49  1  0
 17 50  1  0
 18 51  1  0
 22 52  1  0
 25 53  1  0
 26 54  1  0
M  CHG  1   9   1
M  END
>  <UniqueID>  (39) 
39

>  <SMILES>  (39) 
CCN(CC)CCC[NH2+]CC(=O)N1c2ccccc2Sc2cc(Cl)ccc21

>  <Energy>  (39) 
81.28317843990538

>  <Genealogy>  (39) 
CCN(CC)CCC[NH2+]CC(=O)N1c2ccccc2Sc2cc(Cl)ccc21 (protonated)
CCN(CC)CCC[NH2+]CC(=O)N1c2ccccc2Sc2cc(Cl)ccc21 (3D coordinates assigned)
CCN(CC)CCC[NH2+]CC(=O)N1c2ccccc2Sc2cc(Cl)ccc21 (nonaromatic ring conformer: 81.28317843990538 kcal/mol)

>  <smiles>  (39) 
CCN(CC)CCCNCC(=O)N1c2ccccc2Sc2cc(Cl)ccc21

>  <score_type>  (39) 
oracle

>  <origin>  (39) 
adg

>  <m_score__min__energy>  (39) 
-5.8499999999999996

>  <m_primary>  (39) 
energy

$$$$
39:0
     RDKit          3D

 64 68  0  0  0  0  0  0  0  0999 V2000
   59.0220   33.5310   52.5000 C   0  0  0  0  0  0  0  0  0  0  0  0
   60.4390   33.4420   52.3770 O   0  0  0  0  0  0  0  0  0  0  0  0
   61.1410   33.5230   51.1620 C   0  0  0  0  0  0  0  0  0  0  0  0
   62.5360   33.4840   51.2080 C   0  0  0  0  0  0  0  0  0  0  0  0
   63.2860   33.5520   50.0340 C   0  0  0  0  0  0  0  0  0  0  0  0
   62.6510   33.6540   48.7880 C   0  0  0  0  0  0  0  0  0  0  0  0
   63.4200   33.7250   47.6200 C   0  0  0  0  0  0  0  0  0  0  0  0
   62.7850   33.8240   46.3890 C   0  0  0  0  0  0  0  0  0  0  0  0
   61.4320   33.8420   46.3220 N   0  0  0  0  0  0  0  0  0  0  0  0
   60.6320   33.7800   47.4240 C   0  0  0  0  0  0  0  0  0  0  0  0
   59.1420   33.7950   47.1700 C   0  0  0  0  0  0  0  0  0  0  0  0
   58.7420   32.6360   46.3600 N   0  0  0  0  0  0  0  0  0  0  0  0
   58.0290   32.6410   45.1990 C   0  0  0  0  0  0  0  0  0  0  0  0
   57.4820   33.8710   44.5390 C   0  0  0  0  0  0  0  0  0  0  0  0
   57.8210   31.3340   44.7490 C   0  0  0  0  0  0  0  0  0  0  0  0
   57.0360   30.9090   43.5430 C   0  0  0  0  0  0  0  0  0  0  0  0
   58.4380   30.5190   45.6800 C   0  0  0  0  0  0  0  0  0  0  0  0
   58.5460   29.1280   45.7460 C   0  0  0  0  0  0  0  0  0  0  0  0
   59.1990   28.5650   46.8580 C   0  0  0  0  0  0  0  0  0  0  0  0
   59.3250   27.1070   46.9710 C   0  0  0  0  0  0  0  0  0  0  0  0
   60.4440   26.5710   46.7720 O   0  0  0  0  0  0  0  0  0  0  0  0
   58.2060   26.2830   47.3140 N   0  0  0  0  0  0  0  0  0  0  0  0
   56.8720   26.3880   46.7240 C   0  0  0  0  0  0  0  0  0  0  0  0
   56.7160   25.4220   45.5710 C   0  0  0  0  0  0  0  0  0  0  0  0
   57.5370   25.5670   44.4410 C   0  0  0  0  0  0  0  0  0  0  0  0
   57.3850   24.7240   43.3430 C   0  0  0  0  0  0  0  0  0  0  0  0
   56.4170   23.7190   43.3620 C   0  0  0  0  0  0  0  0  0  0  0  0
   55.6070   23.5480   44.4850 C   0  0  0  0  0  0  0  0  0  0  0  0
   55.7540   24.3860   45.6060 C   0  0  0  0  0  0  0  0  0  0  0  0
   54.9640   24.2200   46.7550 O   0  0  0  0  0  0  0  0  0  0  0  0
   55.2530   23.3140   47.8140 C   0  0  0  0  0  0  0  0  0  0  0  0
   59.7490   29.4010   47.8560 C   0  0  0  0  0  0  0  0  0  0  0  0
   59.6410   30.7980   47.7570 C   0  0  0  0  0  0  0  0  0  0  0  0
   58.9740   31.3330   46.6460 C   0  0  0  0  0  0  0  0  0  0  0  0
   61.2330   33.6880   48.7120 C   0  0  0  0  0  0  0  0  0  0  0  0
   60.4930   33.6360   49.9160 C   0  0  0  0  0  0  0  0  0  0  0  0
   58.7468   33.5483   53.5649 H   0  0  0  0  0  0  0  0  0  0  0  0
   58.6690   34.4531   52.0150 H   0  0  0  0  0  0  0  0  0  0  0  0
   58.5565   32.6603   52.0150 H   0  0  0  0  0  0  0  0  0  0  0  0
   63.0477   33.3990   52.1780 H   0  0  0  0  0  0  0  0  0  0  0  0
   64.3844   33.5254   50.0860 H   0  0  0  0  0  0  0  0  0  0  0  0
   64.5183   33.7025   47.6771 H   0  0  0  0  0  0  0  0  0  0  0  0
   63.3814   33.8879   45.4669 H   0  0  0  0  0  0  0  0  0  0  0  0
   58.6111   33.7632   48.1329 H   0  0  0  0  0  0  0  0  0  0  0  0
   58.8855   34.7144   46.6232 H   0  0  0  0  0  0  0  0  0  0  0  0
   57.1627   34.5890   45.3088 H   0  0  0  0  0  0  0  0  0  0  0  0
   58.2616   34.3282   43.9120 H   0  0  0  0  0  0  0  0  0  0  0  0
   56.6203   33.5983   43.9120 H   0  0  0  0  0  0  0  0  0  0  0  0
   56.1111   30.4083   43.8653 H   0  0  0  0  0  0  0  0  0  0  0  0
   56.7831   31.7934   42.9398 H   0  0  0  0  0  0  0  0  0  0  0  0
   57.6383   30.2138   42.9398 H   0  0  0  0  0  0  0  0  0  0  0  0
   58.1321   28.4904   44.9509 H   0  0  0  0  0  0  0  0  0  0  0  0
   56.1190   26.1572   47.4920 H   0  0  0  0  0  0  0  0  0  0  0  0
   56.7335   27.4119   46.3467 H   0  0  0  0  0  0  0  0  0  0  0  0
   58.3065   26.3529   44.4230 H   0  0  0  0  0  0  0  0  0  0  0  0
   58.0286   24.8504   42.4599 H   0  0  0  0  0  0  0  0  0  0  0  0
   56.2924   23.0603   42.4899 H   0  0  0  0  0  0  0  0  0  0  0  0
   54.8477   22.7521   44.4943 H   0  0  0  0  0  0  0  0  0  0  0  0
   55.0930   23.8157   48.7797 H   0  0  0  0  0  0  0  0  0  0  0  0
   54.5890   22.4401   47.7404 H   0  0  0  0  0  0  0  0  0  0  0  0
   56.3004   22.9860   47.7404 H   0  0  0  0  0  0  0  0  0  0  0  0
   60.2661   28.9538   48.7177 H   0  0  0  0  0  0  0  0  0  0  0  0
   60.0680   31.4541   48.5298 H   0  0  0  0  0  0  0  0  0  0  0  0
   59.3947   33.6845   49.8792 H   0  0  0  0  0  0  0  0  0  0  0  0
  1  2  1  0
  2  3  1  0
  3  4  2  0
  4  5  1  0
  5  6  2  0
  6  7  1  0
  7  8  2  0
  8  9  1  0
  9 10  2  0
 10 11  1  0
 11 12  1  0
 12 13  1  0
 13 14  1  0
 13 15  2  0
 15 16  1  0
 15 17  1  0
 17 18  2  0
 18 19  1  0
 19 20  1  0
 20 21  2  0
 20 22  1  0
 22 23  1  0
 23 24  1  0
 24 25  2  0
 25 26  1  0
 26 27  2  0
 27 28  1  0
 28 29  2  0
 29 30  1  0
 30 31  1  0
 19 32  2  0
 32 33  1  0
 33 34  2  0
 10 35  1  0
 35 36  2  0
 36  3  1  0
 35  6  1  0
 34 12  1  0
 34 17  1  0
 29 24  1  0
  1 37  1  0
  1 38  1  0
  1 39  1  0
  4 40  1  0
  5 41  1  0
  7 42  1  0
  8 43  1  0
 11 44  1  0
 11 45  1  0
 14 46  1  0
 14 47  1  0
 14 48  1  0
 16 49  1  0
 16 50  1  0
 16 51  1  0
 18 52  1  0
 23 53  1  0
 23 54  1  0
 25 55  1  0
 26 56  1  0
 27 57  1  0
 28 58  1  0
 31 59  1  0
 31 60  1  0
 31 61  1  0
 32 62  1  0
 33 63  1  0
 36 64  1  0
M  CHG  1  22  -1
M  END
>  <UniqueID>  (40) 
40

>  <SMILES>  (40) 
COc1ccc2ccnc(Cn3c(C)c(C)c4cc(C(=O)[N-]Cc5ccccc5OC)ccc43)c2c1

>  <Energy>  (40) 
108.01627791053433

>  <Genealogy>  (40) 
COc1ccc2ccnc(Cn3c(C)c(C)c4cc(C(=O)[N-]Cc5ccccc5OC)ccc43)c2c1 (protonated)
COc1ccc2ccnc(Cn3c(C)c(C)c4cc(C(=O)[N-]Cc5ccccc5OC)ccc43)c2c1 (3D coordinates assigned)
COc1ccc2ccnc(Cn3c(C)c(C)c4cc(C(=O)[N-]Cc5ccccc5OC)ccc43)c2c1 (optimized conformer: 108.01627791053433 kcal/mol)

>  <smiles>  (40) 
COc1ccc2ccnc(Cn3c(C)c(C)c4cc(C(=O)NCc5ccccc5OC)ccc43)c2c1

>  <score_type>  (40) 
oracle

>  <origin>  (40) 
adg

>  <m_score__min__energy>  (40) 
-11.44

>  <m_primary>  (40) 
energy

$$$$
40:0
     RDKit          3D

 52 55  0  0  0  0  0  0  0  0999 V2000
   61.2695   32.2259   46.1373 H   0  0  0  0  0  0  0  0  0  0  0  0
   60.7710   31.4660   46.7570 C   0  0  0  0  0  0  0  0  0  0  0  0
   60.7790   30.1290   46.3520 C   0  0  0  0  0  0  0  0  0  0  0  0
   61.2875   29.8436   45.4193 H   0  0  0  0  0  0  0  0  0  0  0  0
   60.1420   29.1470   47.1280 C   0  0  0  0  0  0  0  0  0  0  0  0
   60.1830   27.7630   46.7300 N   0  0  0  0  0  0  0  0  0  0  0  0
   60.6140   27.1880   47.4890 H   0  0  0  0  0  0  0  0  0  0  0  0
   60.7740   27.6430   45.8740 H   0  0  0  0  0  0  0  0  0  0  0  0
   58.8460   27.3030   46.4710 C   0  0  0  0  0  0  0  0  0  0  0  0
   57.9180   28.1670   45.9470 N   0  0  0  0  0  0  0  0  0  0  0  0
   56.6340   27.8130   45.6360 C   0  0  0  0  0  0  0  0  0  0  0  0
   55.8690   28.7580   45.1410 N   0  0  0  0  0  0  0  0  0  0  0  0
   55.9300   29.9460   44.2690 C   0  0  0  0  0  0  0  0  0  0  0  0
   54.9517   30.3173   44.6083 H   0  0  0  0  0  0  0  0  0  0  0  0
   56.5920   29.7960   42.9170 C   0  0  0  0  0  0  0  0  0  0  0  0
   56.9797   28.8171   42.5984 H   0  0  0  0  0  0  0  0  0  0  0  0
   56.3059   30.0184   41.8784 H   0  0  0  0  0  0  0  0  0  0  0  0
   57.2900   30.5710   44.0470 C   0  0  0  0  0  0  0  0  0  0  0  0
   58.1783   30.1480   44.5389 H   0  0  0  0  0  0  0  0  0  0  0  0
   57.7129   31.5806   44.1563 H   0  0  0  0  0  0  0  0  0  0  0  0
   56.2750   26.4640   45.8820 C   0  0  0  0  0  0  0  0  0  0  0  0
   55.1180   25.8090   45.6610 N   0  0  0  0  0  0  0  0  0  0  0  0
   55.3710   24.5370   46.0590 C   0  0  0  0  0  0  0  0  0  0  0  0
   54.6318   23.7241   46.0054 H   0  0  0  0  0  0  0  0  0  0  0  0
   56.6270   24.3750   46.5280 N   0  0  0  0  0  0  0  0  0  0  0  0
   57.2460   23.1300   46.9700 C   0  0  0  0  0  0  0  0  0  0  0  0
   57.2617   23.0984   48.0694 H   0  0  0  0  0  0  0  0  0  0  0  0
   56.6673   22.2766   46.5869 H   0  0  0  0  0  0  0  0  0  0  0  0
   58.2757   23.0763   46.5869 H   0  0  0  0  0  0  0  0  0  0  0  0
   57.1920   25.5860   46.4030 C   0  0  0  0  0  0  0  0  0  0  0  0
   58.4940   25.9620   46.7060 C   0  0  0  0  0  0  0  0  0  0  0  0
   59.2191   25.2416   47.1125 H   0  0  0  0  0  0  0  0  0  0  0  0
   59.5080   29.5260   48.3240 C   0  0  0  0  0  0  0  0  0  0  0  0
   59.0171   28.7639   48.9471 H   0  0  0  0  0  0  0  0  0  0  0  0
   59.4970   30.8640   48.7270 C   0  0  0  0  0  0  0  0  0  0  0  0
   58.9883   31.1497   49.6595 H   0  0  0  0  0  0  0  0  0  0  0  0
   60.1330   31.8490   47.9470 C   0  0  0  0  0  0  0  0  0  0  0  0
   60.1470   33.2360   48.3400 N   0  0  0  0  0  0  0  0  0  0  0  0
   60.8450   33.5310   49.0590 H   0  0  0  0  0  0  0  0  0  0  0  0
   59.2590   34.2450   47.7550 C   0  0  0  0  0  0  0  0  0  0  0  0
   59.8249   34.8304   47.0154 H   0  0  0  0  0  0  0  0  0  0  0  0
   58.8884   34.8852   48.5691 H   0  0  0  0  0  0  0  0  0  0  0  0
   58.0420   33.6070   47.0590 C   0  0  0  0  0  0  0  0  0  0  0  0
   57.1385   34.1546   47.3653 H   0  0  0  0  0  0  0  0  0  0  0  0
   58.0111   32.5503   47.3632 H   0  0  0  0  0  0  0  0  0  0  0  0
   58.1320   33.6350   45.5240 C   0  0  0  0  0  0  0  0  0  0  0  0
   57.1468   33.9138   45.1220 H   0  0  0  0  0  0  0  0  0  0  0  0
   58.4450   32.6319   45.1986 H   0  0  0  0  0  0  0  0  0  0  0  0
   59.1690   34.6250   44.9950 C   0  0  0  0  0  0  0  0  0  0  0  0
   59.6775   35.1104   45.8410 H   0  0  0  0  0  0  0  0  0  0  0  0
   59.9082   34.0890   44.3816 H   0  0  0  0  0  0  0  0  0  0  0  0
   58.6678   35.3882   44.3816 H   0  0  0  0  0  0  0  0  0  0  0  0
  1  2  1  0
  2  3  2  0
  3  4  1  0
  3  5  1  0
  5  6  1  0
  6  7  1  0
  6  8  1  0
  6  9  1  0
  9 10  1  0
 10 11  1  0
 11 12  2  0
 12 13  1  0
 13 14  1  0
 13 15  1  0
 15 16  1  0
 15 17  1  0
 15 18  1  0
 18 19  1  0
 18 20  1  0
 11 21  1  0
 21 22  1  0
 22 23  2  0
 23 24  1  0
 23 25  1  0
 25 26  1  0
 26 27  1  0
 26 28  1  0
 26 29  1  0
 25 30  1  0
 30 31  1  0
 31 32  1  0
  5 33  2  0
 33 34  1  0
 33 35  1  0
 35 36  1  0
 35 37  2  0
 37 38  1  0
 38 39  1  0
 38 40  1  0
 40 41  1  0
 40 42  1  0
 40 43  1  0
 43 44  1  0
 43 45  1  0
 43 46  1  0
 46 47  1  0
 46 48  1  0
 46 49  1  0
 49 50  1  0
 49 51  1  0
 49 52  1  0
 37  2  1  0
 31  9  2  0
 18 13  1  0
 30 21  2  0
M  CHG  2   6   1  10  -1
M  END
>  <UniqueID>  (41) 
41

>  <SMILES>  (41) 
CCCCNc1ccc([NH2+]c2cc3c(ncn3C)/c(=N\C3CC3)[n-]2)cc1

>  <Energy>  (41) 
377.58154654012606

>  <Genealogy>  (41) 
CCCCNc1ccc([NH2+]c2cc3c(ncn3C)c(=NC3CC3)[n-]2)cc1 (protonated)
CCCCNc1ccc([NH2+]c2cc3c(ncn3C)/c(=N\C3CC3)[n-]2)cc1 (cis-trans isomerization)
CCCCNc1ccc([NH2+]c2cc3c(ncn3C)/c(=N\C3CC3)[n-]2)cc1 (3D coordinates assigned)
CCCCNc1ccc([NH2+]c2cc3c(ncn3C)/c(=N\C3CC3)[n-]2)cc1 (nonaromatic ring conformer: 377.58154654012606 kcal/mol)

>  <smiles>  (41) 
CCCCNc1ccc(Nc2cc3c(ncn3C)c(=NC3CC3)[nH]2)cc1

>  <score_type>  (41) 
oracle

>  <origin>  (41) 
adg

>  <m_score__min__energy>  (41) 
-7.3499999999999996

>  <m_primary>  (41) 
energy

$$$$
41:0
     RDKit          3D

 40 41  0  0  0  0  0  0  0  0999 V2000
   56.3140   29.7220   43.1790 C   0  0  0  0  0  0  0  0  0  0  0  0
   57.2370   29.8960   44.3810 C   0  0  0  0  0  0  0  0  0  0  0  0
   56.9400   31.1070   45.0780 O   0  0  0  0  0  0  0  0  0  0  0  0
   57.8490   32.1480   45.3430 C   0  0  0  0  0  0  0  0  0  0  0  0
   58.3490   32.3950   46.6360 C   0  0  0  0  0  0  0  0  0  0  0  0
   59.2300   33.4630   46.8770 C   0  0  0  0  0  0  0  0  0  0  0  0
   59.7490   33.7410   48.2760 C   0  0  0  0  0  0  0  0  0  0  0  0
   61.1120   33.2090   48.5490 N   0  0  0  0  0  0  0  0  0  0  0  0
   61.3420   31.8830   47.9200 C   0  0  0  0  0  0  0  0  0  0  0  0
   62.8390   31.5450   47.8880 C   0  0  0  0  0  0  0  0  0  0  0  0
   63.6010   32.5110   47.0720 N   0  0  0  0  0  0  0  0  0  0  0  0
   62.9870   33.8500   47.0000 C   0  0  0  0  0  0  0  0  0  0  0  0
   62.1980   34.1910   48.2750 C   0  0  0  0  0  0  0  0  0  0  0  0
   59.6670   34.2410   45.7940 C   0  0  0  0  0  0  0  0  0  0  0  0
   59.1910   33.9950   44.5070 C   0  0  0  0  0  0  0  0  0  0  0  0
   58.2750   32.9580   44.2730 C   0  0  0  0  0  0  0  0  0  0  0  0
   57.7630   32.7040   42.8830 C   0  0  0  0  0  0  0  0  0  0  0  0
   55.2891   29.5288   43.5286 H   0  0  0  0  0  0  0  0  0  0  0  0
   56.3273   30.6385   42.5708 H   0  0  0  0  0  0  0  0  0  0  0  0
   56.6600   28.8733   42.5708 H   0  0  0  0  0  0  0  0  0  0  0  0
   57.1033   29.0445   45.0645 H   0  0  0  0  0  0  0  0  0  0  0  0
   58.2764   29.9409   44.0236 H   0  0  0  0  0  0  0  0  0  0  0  0
   58.0459   31.7432   47.4686 H   0  0  0  0  0  0  0  0  0  0  0  0
   59.7703   34.8308   48.4236 H   0  0  0  0  0  0  0  0  0  0  0  0
   59.0685   33.2246   48.9690 H   0  0  0  0  0  0  0  0  0  0  0  0
   61.1330   33.0390   49.5840 H   0  0  0  0  0  0  0  0  0  0  0  0
   60.8110   31.1128   48.4987 H   0  0  0  0  0  0  0  0  0  0  0  0
   60.9662   31.9139   46.8866 H   0  0  0  0  0  0  0  0  0  0  0  0
   63.2298   31.5608   48.9161 H   0  0  0  0  0  0  0  0  0  0  0  0
   62.9554   30.5487   47.4365 H   0  0  0  0  0  0  0  0  0  0  0  0
   64.5570   32.6050   47.4910 H   0  0  0  0  0  0  0  0  0  0  0  0
   63.7816   34.5982   46.8633 H   0  0  0  0  0  0  0  0  0  0  0  0
   62.2845   33.8567   46.1536 H   0  0  0  0  0  0  0  0  0  0  0  0
   62.8917   34.1982   49.1287 H   0  0  0  0  0  0  0  0  0  0  0  0
   61.7309   35.1760   48.1277 H   0  0  0  0  0  0  0  0  0  0  0  0
   60.3912   35.0518   45.9620 H   0  0  0  0  0  0  0  0  0  0  0  0
   59.5360   34.6183   43.6688 H   0  0  0  0  0  0  0  0  0  0  0  0
   56.7788   32.2158   42.9383 H   0  0  0  0  0  0  0  0  0  0  0  0
   57.6686   33.6597   42.3467 H   0  0  0  0  0  0  0  0  0  0  0  0
   58.4669   32.0506   42.3467 H   0  0  0  0  0  0  0  0  0  0  0  0
  1  2  1  0
  2  3  1  0
  3  4  1  0
  4  5  2  0
  5  6  1  0
  6  7  1  0
  7  8  1  0
  8  9  1  0
  9 10  1  0
 10 11  1  0
 11 12  1  0
 12 13  1  0
  6 14  2  0
 14 15  1  0
 15 16  2  0
 16 17  1  0
 16  4  1  0
 13  8  1  0
  1 18  1  0
  1 19  1  0
  1 20  1  0
  2 21  1  0
  2 22  1  0
  5 23  1  0
  7 24  1  0
  7 25  1  0
  8 26  1  0
  9 27  1  0
  9 28  1  0
 10 29  1  0
 10 30  1  0
 11 31  1  0
 12 32  1  0
 12 33  1  0
 13 34  1  0
 13 35  1  0
 14 36  1  0
 15 37  1  0
 17 38  1  0
 17 39  1  0
 17 40  1  0
M  CHG  1   8   1
M  END
>  <UniqueID>  (42) 
42

>  <SMILES>  (42) 
CCOc1cc(C[NH+]2CCNCC2)ccc1C

>  <Energy>  (42) 
49.384409897422024

>  <Genealogy>  (42) 
CCOc1cc(C[NH+]2CCNCC2)ccc1C (protonated)
CCOc1cc(C[NH+]2CCNCC2)ccc1C (3D coordinates assigned)
CCOc1cc(C[NH+]2CCNCC2)ccc1C (nonaromatic ring conformer: 49.384409897422024 kcal/mol)

>  <smiles>  (42) 
CCOc1cc(CN2CCNCC2)ccc1C

>  <score_type>  (42) 
oracle

>  <origin>  (42) 
adg

>  <m_score__min__energy>  (42) 
-5.2599999999999998

>  <m_primary>  (42) 
energy

$$$$
42:0
     RDKit          3D

 69 72  0  0  0  0  0  0  0  0999 V2000
   55.0730   24.9280   45.6150 C   0  0  0  0  0  0  0  0  0  0  0  0
   55.1920   26.3130   45.9240 O   0  0  0  0  0  0  0  0  0  0  0  0
   56.4090   27.0080   45.9890 C   0  0  0  0  0  0  0  0  0  0  0  0
   56.6390   28.1950   45.2670 C   0  0  0  0  0  0  0  0  0  0  0  0
   57.8680   28.8550   45.3700 C   0  0  0  0  0  0  0  0  0  0  0  0
   58.8790   28.3460   46.1980 C   0  0  0  0  0  0  0  0  0  0  0  0
   60.2090   29.0450   46.2870 C   0  0  0  0  0  0  0  0  0  0  0  0
   60.0650   30.3960   46.9920 C   0  0  0  0  0  0  0  0  0  0  0  0
   59.6760   31.4230   46.0320 N   0  0  0  0  0  0  0  0  0  0  0  0
   58.7830   32.5000   46.3400 C   0  0  0  0  0  0  0  0  0  0  0  0
   57.7440   32.6830   45.6480 O   0  0  0  0  0  0  0  0  0  0  0  0
   59.1080   33.4430   47.4640 C   0  0  2  0  0  0  0  0  0  0  0  0
   60.3360   34.3070   47.1230 C   0  0  0  0  0  0  0  0  0  0  0  0
   61.6030   33.7380   47.7110 C   0  0  0  0  0  0  0  0  0  0  0  0
   62.0950   34.2160   48.9370 C   0  0  0  0  0  0  0  0  0  0  0  0
   63.2500   33.6620   49.4970 C   0  0  0  0  0  0  0  0  0  0  0  0
   63.9230   32.6300   48.8390 C   0  0  0  0  0  0  0  0  0  0  0  0
   63.4340   32.1410   47.6230 C   0  0  0  0  0  0  0  0  0  0  0  0
   62.2780   32.6910   47.0600 C   0  0  0  0  0  0  0  0  0  0  0  0
   59.3660   32.6720   48.6820 N   0  0  0  0  0  0  0  0  0  0  0  0
   59.3160   33.2680   49.9870 C   0  0  0  0  0  0  0  0  0  0  0  0
   59.2890   34.5220   50.1120 O   0  0  0  0  0  0  0  0  0  0  0  0
   59.2160   32.4060   51.2180 C   0  0  1  0  0  0  0  0  0  0  0  0
   58.3560   33.0910   52.3110 C   0  0  0  0  0  0  0  0  0  0  0  0
   57.1130   32.2150   52.5340 C   0  0  0  0  0  0  0  0  0  0  0  0
   57.3710   31.0310   51.6910 C   0  0  0  0  0  0  0  0  0  0  0  0
   56.6090   30.0290   51.6440 O   0  0  0  0  0  0  0  0  0  0  0  0
   58.5500   31.1450   50.9180 N   0  0  0  0  0  0  0  0  0  0  0  0
   59.1130   30.0800   50.0870 C   0  0  0  0  0  0  0  0  0  0  0  0
   60.4640   29.6780   50.6070 C   0  0  0  0  0  0  0  0  0  0  0  0
   61.5830   30.4960   50.3770 C   0  0  0  0  0  0  0  0  0  0  0  0
   62.8350   30.1350   50.8850 C   0  0  0  0  0  0  0  0  0  0  0  0
   62.9770   28.9600   51.6290 C   0  0  0  0  0  0  0  0  0  0  0  0
   61.8670   28.1460   51.8700 C   0  0  0  0  0  0  0  0  0  0  0  0
   60.6130   28.5040   51.3660 C   0  0  0  0  0  0  0  0  0  0  0  0
   58.6550   27.1550   46.9070 C   0  0  0  0  0  0  0  0  0  0  0  0
   57.4260   26.4970   46.8050 C   0  0  0  0  0  0  0  0  0  0  0  0
   55.0231   24.3472   46.5478 H   0  0  0  0  0  0  0  0  0  0  0  0
   54.1571   24.7604   45.0292 H   0  0  0  0  0  0  0  0  0  0  0  0
   55.9468   24.6066   45.0292 H   0  0  0  0  0  0  0  0  0  0  0  0
   55.8495   28.6046   44.6198 H   0  0  0  0  0  0  0  0  0  0  0  0
   58.0425   29.7784   44.7983 H   0  0  0  0  0  0  0  0  0  0  0  0
   60.9106   28.4151   46.8536 H   0  0  0  0  0  0  0  0  0  0  0  0
   60.5868   29.2166   45.2683 H   0  0  0  0  0  0  0  0  0  0  0  0
   59.2950   30.3183   47.7737 H   0  0  0  0  0  0  0  0  0  0  0  0
   61.0297   30.6715   47.4431 H   0  0  0  0  0  0  0  0  0  0  0  0
   58.2505   34.1142   47.6199 H   0  0  0  0  0  0  0  0  0  0  0  0
   60.4427   34.3579   46.0294 H   0  0  0  0  0  0  0  0  0  0  0  0
   60.1795   35.3076   47.5524 H   0  0  0  0  0  0  0  0  0  0  0  0
   61.5693   35.0295   49.4585 H   0  0  0  0  0  0  0  0  0  0  0  0
   63.6296   34.0397   50.4579 H   0  0  0  0  0  0  0  0  0  0  0  0
   64.8369   32.2021   49.2767 H   0  0  0  0  0  0  0  0  0  0  0  0
   63.9595   31.3227   47.1089 H   0  0  0  0  0  0  0  0  0  0  0  0
   61.8957   32.3029   46.1044 H   0  0  0  0  0  0  0  0  0  0  0  0
   59.3750   31.6280   48.6120 H   0  0  0  0  0  0  0  0  0  0  0  0
   60.2471   32.2436   51.5650 H   0  0  0  0  0  0  0  0  0  0  0  0
   58.9308   33.1728   53.2453 H   0  0  0  0  0  0  0  0  0  0  0  0
   58.0656   34.1048   51.9980 H   0  0  0  0  0  0  0  0  0  0  0  0
   57.0168   31.9309   53.5923 H   0  0  0  0  0  0  0  0  0  0  0  0
   56.1749   32.7284   52.2765 H   0  0  0  0  0  0  0  0  0  0  0  0
   58.4414   29.2090   50.1077 H   0  0  0  0  0  0  0  0  0  0  0  0
   59.2192   30.4468   49.0554 H   0  0  0  0  0  0  0  0  0  0  0  0
   61.4739   31.4233   49.7955 H   0  0  0  0  0  0  0  0  0  0  0  0
   63.7091   30.7764   50.6989 H   0  0  0  0  0  0  0  0  0  0  0  0
   63.9632   28.6760   52.0250 H   0  0  0  0  0  0  0  0  0  0  0  0
   61.9800   27.2225   52.4569 H   0  0  0  0  0  0  0  0  0  0  0  0
   59.7399   27.8649   51.5640 H   0  0  0  0  0  0  0  0  0  0  0  0
   59.4489   26.7386   47.5445 H   0  0  0  0  0  0  0  0  0  0  0  0
   57.2561   25.5692   47.3709 H   0  0  0  0  0  0  0  0  0  0  0  0
  1  2  1  0
  2  3  1  0
  3  4  2  0
  4  5  1  0
  5  6  2  0
  6  7  1  0
  7  8  1  0
  8  9  1  0
  9 10  1  0
 10 11  2  0
 10 12  1  0
 12 13  1  0
 13 14  1  0
 14 15  2  0
 15 16  1  0
 16 17  2  0
 17 18  1  0
 18 19  2  0
 12 20  1  0
 20 21  1  0
 21 22  2  0
 21 23  1  0
 23 24  1  0
 24 25  1  0
 25 26  1  0
 26 27  2  0
 26 28  1  0
 28 29  1  0
 29 30  1  0
 30 31  2  0
 31 32  1  0
 32 33  2  0
 33 34  1  0
 34 35  2  0
  6 36  1  0
 36 37  2  0
 37  3  1  0
 19 14  1  0
 28 23  1  0
 35 30  1  0
  1 38  1  0
  1 39  1  0
  1 40  1  0
  4 41  1  0
  5 42  1  0
  7 43  1  0
  7 44  1  0
  8 45  1  0
  8 46  1  0
 12 47  1  1
 13 48  1  0
 13 49  1  0
 15 50  1  0
 16 51  1  0
 17 52  1  0
 18 53  1  0
 19 54  1  0
 20 55  1  0
 23 56  1  1
 24 57  1  0
 24 58  1  0
 25 59  1  0
 25 60  1  0
 29 61  1  0
 29 62  1  0
 31 63  1  0
 32 64  1  0
 33 65  1  0
 34 66  1  0
 35 67  1  0
 36 68  1  0
 37 69  1  0
M  CHG  1   9  -1
M  END
>  <UniqueID>  (43) 
43

>  <SMILES>  (43) 
COc1ccc(CC[N-]C(=O)[C@H](Cc2ccccc2)NC(=O)[C@H]2CCC(=O)N2Cc2ccccc2)cc1

>  <Energy>  (43) 
64.52253479032422

>  <Genealogy>  (43) 
COc1ccc(CC[N-]C(=O)C(Cc2ccccc2)NC(=O)C2CCC(=O)N2Cc2ccccc2)cc1 (protonated)
COc1ccc(CC[N-]C(=O)[C@H](Cc2ccccc2)NC(=O)[C@H]2CCC(=O)N2Cc2ccccc2)cc1 (chirality)
COc1ccc(CC[N-]C(=O)[C@H](Cc2ccccc2)NC(=O)[C@H]2CCC(=O)N2Cc2ccccc2)cc1 (3D coordinates assigned)
COc1ccc(CC[N-]C(=O)[C@H](Cc2ccccc2)NC(=O)[C@H]2CCC(=O)N2Cc2ccccc2)cc1 (nonaromatic ring conformer: 64.52253479032422 kcal/mol)

>  <smiles>  (43) 
COc1ccc(CCNC(=O)C(Cc2ccccc2)NC(=O)C2CCC(=O)N2Cc2ccccc2)cc1

>  <score_type>  (43) 
oracle

>  <origin>  (43) 
adg

>  <m_score__min__energy>  (43) 
-10.69

>  <m_primary>  (43) 
energy

$$$$
43:0
     RDKit          3D

 38 40  0  0  0  0  0  0  0  0999 V2000
   57.0700   34.4720   44.8720 C   0  0  0  0  0  0  0  0  0  0  0  0
   58.0940   33.4960   45.3950 C   0  0  0  0  0  0  0  0  0  0  0  0
   59.2030   33.9860   46.1030 C   0  0  0  0  0  0  0  0  0  0  0  0
   60.1700   33.1010   46.6020 C   0  0  0  0  0  0  0  0  0  0  0  0
   61.3230   33.5870   47.3140 N   0  0  0  0  0  0  0  0  0  0  0  0
   61.1800   34.0040   48.7120 C   0  0  0  0  0  0  0  0  0  0  0  0
   62.5580   34.1960   49.3690 C   0  0  0  0  0  0  0  0  0  0  0  0
   63.5360   33.1840   48.9060 N   0  0  0  0  0  0  0  0  0  0  0  0
   63.1600   31.8260   49.3490 C   0  0  0  0  0  0  0  0  0  0  0  0
   63.7680   33.2340   47.4350 C   0  0  0  0  0  0  0  0  0  0  0  0
   62.5970   33.8400   46.6350 C   0  0  0  0  0  0  0  0  0  0  0  0
   60.0380   31.7680   46.3680 N   0  0  0  0  0  0  0  0  0  0  0  0
   58.9850   31.2490   45.6860 C   0  0  0  0  0  0  0  0  0  0  0  0
   58.9060   29.8660   45.4870 C   0  0  0  0  0  0  0  0  0  0  0  0
   57.8280   29.3190   44.7890 C   0  0  0  0  0  0  0  0  0  0  0  0
   56.8250   30.1490   44.2860 C   0  0  0  0  0  0  0  0  0  0  0  0
   56.8920   31.5320   44.4780 C   0  0  0  0  0  0  0  0  0  0  0  0
   57.9750   32.1030   45.1800 C   0  0  0  0  0  0  0  0  0  0  0  0
   56.5607   34.9574   45.7176 H   0  0  0  0  0  0  0  0  0  0  0  0
   57.5709   35.2354   44.2585 H   0  0  0  0  0  0  0  0  0  0  0  0
   56.3315   33.9351   44.2585 H   0  0  0  0  0  0  0  0  0  0  0  0
   59.3139   35.0680   46.2670 H   0  0  0  0  0  0  0  0  0  0  0  0
   60.6269   34.9541   48.7501 H   0  0  0  0  0  0  0  0  0  0  0  0
   60.6347   33.2210   49.2593 H   0  0  0  0  0  0  0  0  0  0  0  0
   62.9360   35.1977   49.1165 H   0  0  0  0  0  0  0  0  0  0  0  0
   62.4366   34.0807   50.4562 H   0  0  0  0  0  0  0  0  0  0  0  0
   64.4450   33.4060   49.3780 H   0  0  0  0  0  0  0  0  0  0  0  0
   63.1497   31.7887   50.4483 H   0  0  0  0  0  0  0  0  0  0  0  0
   62.1596   31.5787   48.9643 H   0  0  0  0  0  0  0  0  0  0  0  0
   63.8907   31.0994   48.9643 H   0  0  0  0  0  0  0  0  0  0  0  0
   64.6659   33.8409   47.2470 H   0  0  0  0  0  0  0  0  0  0  0  0
   63.8807   32.1939   47.0953 H   0  0  0  0  0  0  0  0  0  0  0  0
   62.7471   34.9256   46.5407 H   0  0  0  0  0  0  0  0  0  0  0  0
   62.5676   33.3722   45.6399 H   0  0  0  0  0  0  0  0  0  0  0  0
   59.6949   29.2087   45.8814 H   0  0  0  0  0  0  0  0  0  0  0  0
   57.7689   28.2314   44.6351 H   0  0  0  0  0  0  0  0  0  0  0  0
   55.9780   29.7129   43.7360 H   0  0  0  0  0  0  0  0  0  0  0  0
   56.0963   32.1787   44.0798 H   0  0  0  0  0  0  0  0  0  0  0  0
  1  2  1  0
  2  3  2  0
  3  4  1  0
  4  5  1  0
  5  6  1  0
  6  7  1  0
  7  8  1  0
  8  9  1  0
  8 10  1  0
 10 11  1  0
  4 12  2  0
 12 13  1  0
 13 14  2  0
 14 15  1  0
 15 16  2  0
 16 17  1  0
 17 18  2  0
 18  2  1  0
 11  5  1  0
 18 13  1  0
  1 19  1  0
  1 20  1  0
  1 21  1  0
  3 22  1  0
  6 23  1  0
  6 24  1  0
  7 25  1  0
  7 26  1  0
  8 27  1  0
  9 28  1  0
  9 29  1  0
  9 30  1  0
 10 31  1  0
 10 32  1  0
 11 33  1  0
 11 34  1  0
 14 35  1  0
 15 36  1  0
 16 37  1  0
 17 38  1  0
M  CHG  1   8   1
M  END
>  <UniqueID>  (44) 
44

>  <SMILES>  (44) 
Cc1cc(N2CC[NH+](C)CC2)nc2ccccc12

>  <Energy>  (44) 
54.197884075761166

>  <Genealogy>  (44) 
Cc1cc(N2CC[NH+](C)CC2)nc2ccccc12 (protonated)
Cc1cc(N2CC[NH+](C)CC2)nc2ccccc12 (3D coordinates assigned)
Cc1cc(N2CC[NH+](C)CC2)nc2ccccc12 (nonaromatic ring conformer: 54.197884075761166 kcal/mol)

>  <smiles>  (44) 
Cc1cc(N2CCN(C)CC2)nc2ccccc12

>  <score_type>  (44) 
oracle

>  <origin>  (44) 
adg

>  <m_score__min__energy>  (44) 
-5.2699999999999996

>  <m_primary>  (44) 
energy

$$$$
44:0
     RDKit          3D

 36 38  0  0  0  0  0  0  0  0999 V2000
   55.9030   30.5670   44.2780 N   0  0  0  0  0  0  0  0  0  0  0  0
   56.8550   30.9940   44.7810 C   0  0  0  0  0  0  0  0  0  0  0  0
   58.0390   31.5240   45.4090 C   0  0  0  0  0  0  0  0  0  0  0  0
   58.2470   32.9070   45.4180 C   0  0  0  0  0  0  0  0  0  0  0  0
   59.3560   33.4420   46.0770 C   0  0  0  0  0  0  0  0  0  0  0  0
   59.6480   35.3290   46.1010 Br  0  0  0  0  0  0  0  0  0  0  0  0
   60.2420   32.5840   46.7300 C   0  0  0  0  0  0  0  0  0  0  0  0
   60.0280   31.2420   46.7100 N   0  0  0  0  0  0  0  0  0  0  0  0
   58.9650   30.6870   46.0640 C   0  0  0  0  0  0  0  0  0  0  0  0
   58.8040   29.2590   46.0830 N   0  0  0  0  0  0  0  0  0  0  0  0
   58.6740   28.5800   47.3770 C   0  0  0  0  0  0  0  0  0  0  0  0
   57.8040   27.3250   47.2340 C   0  0  0  0  0  0  0  0  0  0  0  0
   58.1620   26.5520   46.0350 N   0  0  0  0  0  0  0  0  0  0  0  0
   57.3420   25.4390   45.6410 C   0  0  0  0  0  0  0  0  0  0  0  0
   57.9420   24.2290   45.2560 C   0  0  0  0  0  0  0  0  0  0  0  0
   57.1520   23.1450   44.8600 C   0  0  0  0  0  0  0  0  0  0  0  0
   55.7600   23.2620   44.8460 C   0  0  0  0  0  0  0  0  0  0  0  0
   55.1550   24.4620   45.2310 C   0  0  0  0  0  0  0  0  0  0  0  0
   55.9400   25.5500   45.6280 C   0  0  0  0  0  0  0  0  0  0  0  0
   55.3330   26.6940   46.0280 F   0  0  0  0  0  0  0  0  0  0  0  0
   59.2630   26.9980   45.1720 C   0  0  0  0  0  0  0  0  0  0  0  0
   59.1040   28.4890   44.8650 C   0  0  0  0  0  0  0  0  0  0  0  0
   57.5371   33.5733   44.9060 H   0  0  0  0  0  0  0  0  0  0  0  0
   61.1138   32.9940   47.2610 H   0  0  0  0  0  0  0  0  0  0  0  0
   59.6723   28.2905   47.7369 H   0  0  0  0  0  0  0  0  0  0  0  0
   58.1990   29.2651   48.0947 H   0  0  0  0  0  0  0  0  0  0  0  0
   57.9431   26.6911   48.1222 H   0  0  0  0  0  0  0  0  0  0  0  0
   56.7551   27.6424   47.1384 H   0  0  0  0  0  0  0  0  0  0  0  0
   59.0378   24.1335   45.2660 H   0  0  0  0  0  0  0  0  0  0  0  0
   57.6271   22.1995   44.5593 H   0  0  0  0  0  0  0  0  0  0  0  0
   55.1397   22.4096   44.5319 H   0  0  0  0  0  0  0  0  0  0  0  0
   54.0587   24.5511   45.2218 H   0  0  0  0  0  0  0  0  0  0  0  0
   60.2213   26.8302   45.6853 H   0  0  0  0  0  0  0  0  0  0  0  0
   59.2438   26.4276   44.2316 H   0  0  0  0  0  0  0  0  0  0  0  0
   60.0391   28.8655   44.4248 H   0  0  0  0  0  0  0  0  0  0  0  0
   58.2656   28.6105   44.1633 H   0  0  0  0  0  0  0  0  0  0  0  0
  1  2  3  0
  2  3  1  0
  3  4  2  0
  4  5  1  0
  5  6  1  0
  5  7  2  0
  7  8  1  0
  8  9  2  0
  9 10  1  0
 10 11  1  0
 11 12  1  0
 12 13  1  0
 13 14  1  0
 14 15  2  0
 15 16  1  0
 16 17  2  0
 17 18  1  0
 18 19  2  0
 19 20  1  0
 13 21  1  0
 21 22  1  0
  9  3  1  0
 22 10  1  0
 19 14  1  0
  4 23  1  0
  7 24  1  0
 11 25  1  0
 11 26  1  0
 12 27  1  0
 12 28  1  0
 15 29  1  0
 16 30  1  0
 17 31  1  0
 18 32  1  0
 21 33  1  0
 21 34  1  0
 22 35  1  0
 22 36  1  0
M  END
>  <UniqueID>  (45) 
45

>  <SMILES>  (45) 
N#Cc1cc(Br)cnc1N1CCN(c2ccccc2F)CC1

>  <Energy>  (45) 
48.39935169895256

>  <Genealogy>  (45) 
N#Cc1cc(Br)cnc1N1CCN(c2ccccc2F)CC1 (3D coordinates assigned)
N#Cc1cc(Br)cnc1N1CCN(c2ccccc2F)CC1 (nonaromatic ring conformer: 48.39935169895256 kcal/mol)

>  <smiles>  (45) 
N#Cc1cc(Br)cnc1N1CCN(c2ccccc2F)CC1

>  <score_type>  (45) 
oracle

>  <origin>  (45) 
adg

>  <m_score__min__energy>  (45) 
-6.8799999999999999

>  <m_primary>  (45) 
energy

$$$$
45:0
     RDKit          3D

 45 48  0  0  0  0  0  0  0  0999 V2000
   57.7750   27.8150   43.2370 C   0  0  0  0  0  0  0  0  0  0  0  0
   57.1130   28.6900   44.1440 O   0  0  0  0  0  0  0  0  0  0  0  0
   57.5400   29.9910   44.4510 C   0  0  0  0  0  0  0  0  0  0  0  0
   56.9850   31.1240   43.8220 C   0  0  0  0  0  0  0  0  0  0  0  0
   57.4490   32.4040   44.1310 C   0  0  0  0  0  0  0  0  0  0  0  0
   58.4700   32.5720   45.0680 C   0  0  0  0  0  0  0  0  0  0  0  0
   59.0260   31.4590   45.7010 C   0  0  0  0  0  0  0  0  0  0  0  0
   58.5670   30.1660   45.4030 C   0  0  0  0  0  0  0  0  0  0  0  0
   59.1400   29.0360   46.0840 N   0  0  0  0  0  0  0  0  0  0  0  0
   60.0220   28.1090   45.3630 C   0  0  0  0  0  0  0  0  0  0  0  0
   59.9940   26.7240   46.0150 C   0  0  0  0  0  0  0  0  0  0  0  0
   58.6210   26.4350   46.4710 N   0  0  0  0  0  0  0  0  0  0  0  0
   58.4580   25.0120   46.8260 C   0  0  0  0  0  0  0  0  0  0  0  0
   57.8140   24.2600   45.6920 C   0  0  0  0  0  0  0  0  0  0  0  0
   56.8200   24.8960   44.8970 C   0  0  0  0  0  0  0  0  0  0  0  0
   56.2160   24.2170   43.8200 C   0  0  0  0  0  0  0  0  0  0  0  0
   56.6340   22.9140   43.5720 C   0  0  0  0  0  0  0  0  0  0  0  0
   56.2260   22.0610   42.6170 N   0  0  0  0  0  0  0  0  0  0  0  0
   56.9340   20.9770   42.8230 O   0  0  0  0  0  0  0  0  0  0  0  0
   57.7590   21.0740   43.8340 N   0  0  0  0  0  0  0  0  0  0  0  0
   57.5820   22.3050   44.3250 C   0  0  0  0  0  0  0  0  0  0  0  0
   58.2070   22.9320   45.3980 C   0  0  0  0  0  0  0  0  0  0  0  0
   58.2470   27.3010   47.6150 C   0  0  0  0  0  0  0  0  0  0  0  0
   58.7790   28.7440   47.4760 C   0  0  0  0  0  0  0  0  0  0  0  0
   58.3442   27.0627   43.8027 H   0  0  0  0  0  0  0  0  0  0  0  0
   57.0299   27.3112   42.6037 H   0  0  0  0  0  0  0  0  0  0  0  0
   58.4624   28.3950   42.6037 H   0  0  0  0  0  0  0  0  0  0  0  0
   56.1805   30.9987   43.0824 H   0  0  0  0  0  0  0  0  0  0  0  0
   57.0092   33.2819   43.6351 H   0  0  0  0  0  0  0  0  0  0  0  0
   58.8363   33.5812   45.3075 H   0  0  0  0  0  0  0  0  0  0  0  0
   59.8300   31.5960   46.4391 H   0  0  0  0  0  0  0  0  0  0  0  0
   59.6832   28.0247   44.3199 H   0  0  0  0  0  0  0  0  0  0  0  0
   61.0505   28.4975   45.3980 H   0  0  0  0  0  0  0  0  0  0  0  0
   60.3066   25.9652   45.2825 H   0  0  0  0  0  0  0  0  0  0  0  0
   60.6824   26.7032   46.8727 H   0  0  0  0  0  0  0  0  0  0  0  0
   59.4454   24.5753   47.0363 H   0  0  0  0  0  0  0  0  0  0  0  0
   57.8150   24.9369   47.7153 H   0  0  0  0  0  0  0  0  0  0  0  0
   56.5197   25.9292   45.1256 H   0  0  0  0  0  0  0  0  0  0  0  0
   55.4449   24.6982   43.2004 H   0  0  0  0  0  0  0  0  0  0  0  0
   58.4120   20.3310   44.1680 H   0  0  0  0  0  0  0  0  0  0  0  0
   58.9751   22.4171   45.9937 H   0  0  0  0  0  0  0  0  0  0  0  0
   57.1498   27.3367   47.6841 H   0  0  0  0  0  0  0  0  0  0  0  0
   58.7004   26.8678   48.5187 H   0  0  0  0  0  0  0  0  0  0  0  0
   57.9993   29.4484   47.8014 H   0  0  0  0  0  0  0  0  0  0  0  0
   59.6772   28.8498   48.1021 H   0  0  0  0  0  0  0  0  0  0  0  0
  1  2  1  0
  2  3  1  0
  3  4  2  0
  4  5  1  0
  5  6  2  0
  6  7  1  0
  7  8  2  0
  8  9  1  0
  9 10  1  0
 10 11  1  0
 11 12  1  0
 12 13  1  0
 13 14  1  0
 14 15  1  0
 15 16  2  0
 16 17  1  0
 17 18  2  0
 18 19  1  0
 19 20  1  0
 20 21  2  0
 21 22  1  0
 12 23  1  0
 23 24  1  0
  8  3  1  0
 24  9  1  0
 22 14  2  0
 21 17  1  0
  1 25  1  0
  1 26  1  0
  1 27  1  0
  4 28  1  0
  5 29  1  0
  6 30  1  0
  7 31  1  0
 10 32  1  0
 10 33  1  0
 11 34  1  0
 11 35  1  0
 13 36  1  0
 13 37  1  0
 15 38  1  0
 16 39  1  0
 20 40  1  0
 22 41  1  0
 23 42  1  0
 23 43  1  0
 24 44  1  0
 24 45  1  0
M  CHG  1  20   1
M  END
>  <UniqueID>  (46) 
46

>  <SMILES>  (46) 
COc1ccccc1N1CCN(Cc2ccc3no[nH+]c3c2)CC1

>  <Energy>  (46) 
102.71255130698002

>  <Genealogy>  (46) 
COc1ccccc1N1CCN(Cc2ccc3no[nH+]c3c2)CC1 (protonated)
COc1ccccc1N1CCN(Cc2ccc3no[nH+]c3c2)CC1 (3D coordinates assigned)
COc1ccccc1N1CCN(Cc2ccc3no[nH+]c3c2)CC1 (nonaromatic ring conformer: 102.71255130698002 kcal/mol)

>  <smiles>  (46) 
COc1ccccc1N1CCN(Cc2ccc3nonc3c2)CC1

>  <score_type>  (46) 
oracle

>  <origin>  (46) 
adg

>  <m_score__min__energy>  (46) 
-7.0899999999999999

>  <m_primary>  (46) 
energy

$$$$
46:0
     RDKit          3D

 42 44  0  0  1  0  0  0  0  0999 V2000
   66.9130   32.6010   50.3930 C   0  0  0  0  0  0  0  0  0  0  0  0
   65.7680   33.4000   50.1910 O   0  0  0  0  0  0  0  0  0  0  0  0
   64.6310   32.9510   49.5460 C   0  0  0  0  0  0  0  0  0  0  0  0
   63.7860   32.0300   50.1230 C   0  0  0  0  0  0  0  0  0  0  0  0
   62.6820   31.6450   49.4020 C   0  0  0  0  0  0  0  0  0  0  0  0
   62.3870   32.1350   48.1410 C   0  0  0  0  0  0  0  0  0  0  0  0
   61.2000   31.6940   47.4160 C   0  0  0  0  0  0  0  0  0  0  0  0
   61.1040   30.5000   46.7240 C   0  0  0  0  0  0  0  0  0  0  0  0
   59.8610   30.4600   46.1940 N   0  0  0  0  0  0  0  0  0  0  0  0
   59.1770   31.5720   46.5210 C   0  0  0  0  0  0  0  0  0  0  0  0
   57.7790   31.9560   46.1590 C   0  0  1  0  0  0  0  0  0  0  0  0
   57.6050   33.4630   46.2400 C   0  0  0  0  0  0  0  0  0  0  0  0
   57.8080   34.0140   44.8630 C   0  0  0  0  0  0  0  0  0  0  0  0
   58.2470   32.8030   44.0650 C   0  0  0  0  0  0  0  0  0  0  0  0
   57.5260   31.7400   44.7450 N   0  0  0  0  0  0  0  0  0  0  0  0
   56.7510   30.7270   44.1110 C   0  0  0  0  0  0  0  0  0  0  0  0
   56.0120   30.0380   44.8830 O   0  0  0  0  0  0  0  0  0  0  0  0
   56.8020   30.4940   42.6690 C   0  0  0  0  0  0  0  0  0  0  0  0
   56.3230   29.1190   42.4570 N   0  0  0  0  0  0  0  0  0  0  0  0
   60.0120   32.3170   47.2690 N   0  0  0  0  0  0  0  0  0  0  0  0
   63.2470   33.0580   47.5780 C   0  0  0  0  0  0  0  0  0  0  0  0
   62.9940   33.5630   46.3460 F   0  0  0  0  0  0  0  0  0  0  0  0
   64.3650   33.4600   48.2870 C   0  0  0  0  0  0  0  0  0  0  0  0
   67.0888   32.4783   51.4719 H   0  0  0  0  0  0  0  0  0  0  0  0
   66.7575   31.6143   49.9323 H   0  0  0  0  0  0  0  0  0  0  0  0
   67.7855   33.0874   49.9323 H   0  0  0  0  0  0  0  0  0  0  0  0
   63.9872   31.6182   51.1230 H   0  0  0  0  0  0  0  0  0  0  0  0
   61.9971   30.9096   49.8494 H   0  0  0  0  0  0  0  0  0  0  0  0
   61.8862   29.7330   46.6245 H   0  0  0  0  0  0  0  0  0  0  0  0
   59.5200   29.6790   45.6290 H   0  0  0  0  0  0  0  0  0  0  0  0
   57.1352   31.3725   46.8336 H   0  0  0  0  0  0  0  0  0  0  0  0
   56.5929   33.7056   46.5962 H   0  0  0  0  0  0  0  0  0  0  0  0
   58.3300   33.8995   46.9428 H   0  0  0  0  0  0  0  0  0  0  0  0
   56.8719   34.4312   44.4634 H   0  0  0  0  0  0  0  0  0  0  0  0
   58.5364   34.8377   44.8317 H   0  0  0  0  0  0  0  0  0  0  0  0
   57.9451   32.8842   43.0104 H   0  0  0  0  0  0  0  0  0  0  0  0
   59.3367   32.6575   44.0282 H   0  0  0  0  0  0  0  0  0  0  0  0
   56.1517   31.2093   42.1441 H   0  0  0  0  0  0  0  0  0  0  0  0
   57.8213   30.6277   42.2776 H   0  0  0  0  0  0  0  0  0  0  0  0
   56.4400   28.5660   43.3200 H   0  0  0  0  0  0  0  0  0  0  0  0
   55.3030   29.1280   42.1870 H   0  0  0  0  0  0  0  0  0  0  0  0
   65.0526   34.1951   47.8433 H   0  0  0  0  0  0  0  0  0  0  0  0
  1  2  1  0
  2  3  1  0
  3  4  2  0
  4  5  1  0
  5  6  2  0
  6  7  1  0
  7  8  2  0
  8  9  1  0
  9 10  1  0
 10 11  1  0
 11 12  1  0
 12 13  1  0
 13 14  1  0
 14 15  1  0
 15 16  1  0
 16 17  2  0
 16 18  1  0
 18 19  1  0
 10 20  2  0
  6 21  1  0
 21 22  1  0
 21 23  2  0
 23  3  1  0
 20  7  1  0
 15 11  1  0
  1 24  1  0
  1 25  1  0
  1 26  1  0
  4 27  1  0
  5 28  1  0
  8 29  1  0
  9 30  1  0
 11 31  1  1
 12 32  1  0
 12 33  1  0
 13 34  1  0
 13 35  1  0
 14 36  1  0
 14 37  1  0
 18 38  1  0
 18 39  1  0
 19 40  1  0
 19 41  1  0
 23 42  1  0
M  END
>  <smiles>  (47) 
COc1ccc(-c2c[nH]c(C3CCCN3C(=O)CN)n2)c(F)c1

>  <score_type>  (47) 
oracle

>  <origin>  (47) 
adg

>  <m_score__min__energy>  (47) 
-7.21

>  <m_primary>  (47) 
energy

$$$$
47:0
     RDKit          3D

 32 33  0  0  0  0  0  0  0  0999 V2000
   57.4420   32.0390   42.3650 C   0  0  0  0  0  0  0  0  0  0  0  0
   57.4550   31.0270   43.4790 C   0  0  0  0  0  0  0  0  0  0  0  0
   57.0140   29.7180   43.2260 C   0  0  0  0  0  0  0  0  0  0  0  0
   57.0200   28.7570   44.2380 C   0  0  0  0  0  0  0  0  0  0  0  0
   57.4620   29.0880   45.5270 C   0  0  0  0  0  0  0  0  0  0  0  0
   57.4930   28.1520   46.5720 O   0  0  0  0  0  0  0  0  0  0  0  0
   58.0850   26.8830   46.5030 C   0  0  0  0  0  0  0  0  0  0  0  0
   59.0040   26.6360   45.6770 O   0  0  0  0  0  0  0  0  0  0  0  0
   57.6060   25.8080   47.4220 C   0  0  0  0  0  0  0  0  0  0  0  0
   56.6210   24.9730   46.7360 N   0  0  0  0  0  0  0  0  0  0  0  0
   55.5330   25.3920   46.0630 C   0  0  0  0  0  0  0  0  0  0  0  0
   55.1380   26.7210   45.9690 O   0  0  0  0  0  0  0  0  0  0  0  0
   54.8770   24.3310   45.4720 C   0  0  0  0  0  0  0  0  0  0  0  0
   55.6120   23.2020   45.7900 C   0  0  0  0  0  0  0  0  0  0  0  0
   56.6740   23.6390   46.5560 C   0  0  0  0  0  0  0  0  0  0  0  0
   57.6760   22.8230   47.0680 O   0  0  0  0  0  0  0  0  0  0  0  0
   57.9280   30.3820   45.7800 C   0  0  0  0  0  0  0  0  0  0  0  0
   57.9340   31.3590   44.7690 C   0  0  0  0  0  0  0  0  0  0  0  0
   58.4300   32.7460   45.0860 C   0  0  0  0  0  0  0  0  0  0  0  0
   57.4290   33.0531   42.7910 H   0  0  0  0  0  0  0  0  0  0  0  0
   58.3418   31.9133   41.7449 H   0  0  0  0  0  0  0  0  0  0  0  0
   56.5457   31.8902   41.7449 H   0  0  0  0  0  0  0  0  0  0  0  0
   56.6603   29.4474   42.2202 H   0  0  0  0  0  0  0  0  0  0  0  0
   56.6762   27.7344   44.0234 H   0  0  0  0  0  0  0  0  0  0  0  0
   58.4587   25.1864   47.7328 H   0  0  0  0  0  0  0  0  0  0  0  0
   57.1403   26.2670   48.3065 H   0  0  0  0  0  0  0  0  0  0  0  0
   53.9570   24.3740   44.8705 H   0  0  0  0  0  0  0  0  0  0  0  0
   55.3939   22.1657   45.4924 H   0  0  0  0  0  0  0  0  0  0  0  0
   58.2952   30.6392   46.7845 H   0  0  0  0  0  0  0  0  0  0  0  0
   58.4772   32.8781   46.1770 H   0  0  0  0  0  0  0  0  0  0  0  0
   59.4331   32.8838   44.6562 H   0  0  0  0  0  0  0  0  0  0  0  0
   57.7417   33.4887   44.6562 H   0  0  0  0  0  0  0  0  0  0  0  0
  1  2  1  0
  2  3  2  0
  3  4  1  0
  4  5  2  0
  5  6  1  0
  6  7  1  0
  7  8  2  0
  7  9  1  0
  9 10  1  0
 10 11  1  0
 11 12  1  0
 11 13  2  0
 13 14  1  0
 14 15  2  0
 15 16  1  0
  5 17  1  0
 17 18  2  0
 18 19  1  0
 18  2  1  0
 15 10  1  0
  1 20  1  0
  1 21  1  0
  1 22  1  0
  3 23  1  0
  4 24  1  0
  9 25  1  0
  9 26  1  0
 13 27  1  0
 14 28  1  0
 17 29  1  0
 19 30  1  0
 19 31  1  0
 19 32  1  0
M  CHG  2  12  -1  16  -1
M  END
>  <UniqueID>  (48) 
47

>  <SMILES>  (48) 
Cc1ccc(OC(=O)Cn2c([O-])ccc2[O-])cc1C

>  <Energy>  (48) 
62.66633138454884

>  <Genealogy>  (48) 
Cc1ccc(OC(=O)Cn2c([O-])ccc2[O-])cc1C (protonated)
Cc1ccc(OC(=O)Cn2c([O-])ccc2[O-])cc1C (3D coordinates assigned)
Cc1ccc(OC(=O)Cn2c([O-])ccc2[O-])cc1C (optimized conformer: 62.66633138454884 kcal/mol)

>  <smiles>  (48) 
Cc1ccc(OC(=O)Cn2c(O)ccc2O)cc1C

>  <score_type>  (48) 
oracle

>  <origin>  (48) 
adg

>  <m_score__min__energy>  (48) 
-11.57

>  <m_primary>  (48) 
energy

$$$$
48:0
     RDKit          3D

 42 43  0  0  0  0  0  0  0  0999 V2000
   63.3810   33.7890   46.8060 C   0  0  0  0  0  0  0  0  0  0  0  0
   62.2990   32.4200   47.3270 S   0  0  0  0  0  0  0  0  0  0  0  0
   61.6710   33.2830   48.8050 C   0  0  0  0  0  0  0  0  0  0  0  0
   60.2640   33.7470   48.5550 C   0  0  0  0  0  0  0  0  0  0  0  0
   59.5840   34.1260   49.5000 O   0  0  0  0  0  0  0  0  0  0  0  0
   59.7020   33.7240   47.2150 N   0  0  2  0  0  0  0  0  0  0  0  0
   60.0150   35.0130   46.5480 C   0  0  0  0  0  0  0  0  0  0  0  0
   59.2680   35.2160   45.2210 C   0  0  0  0  0  0  0  0  0  0  0  0
   59.2650   34.0040   44.2750 C   0  0  0  0  0  0  0  0  0  0  0  0
   58.4820   32.8490   44.7690 N   0  0  0  0  0  0  0  0  0  0  0  0
   57.8090   32.1260   43.6680 C   0  0  0  0  0  0  0  0  0  0  0  0
   57.2090   30.8470   44.1670 C   0  0  0  0  0  0  0  0  0  0  0  0
   55.8720   30.4970   44.1770 C   0  0  0  0  0  0  0  0  0  0  0  0
   55.7350   29.3010   44.7830 N   0  0  0  0  0  0  0  0  0  0  0  0
   56.9430   28.8940   45.1420 N   0  0  0  0  0  0  0  0  0  0  0  0
   57.1960   27.6750   45.8980 C   0  0  0  0  0  0  0  0  0  0  0  0
   57.8630   29.8150   44.8030 C   0  0  0  0  0  0  0  0  0  0  0  0
   57.5620   33.1140   45.9060 C   0  0  0  0  0  0  0  0  0  0  0  0
   58.2540   33.3430   47.2710 C   0  0  0  0  0  0  0  0  0  0  0  0
   63.7828   34.2974   47.6948 H   0  0  0  0  0  0  0  0  0  0  0  0
   64.2115   33.3913   46.2042 H   0  0  0  0  0  0  0  0  0  0  0  0
   62.8022   34.5052   46.2042 H   0  0  0  0  0  0  0  0  0  0  0  0
   61.6831   32.5956   49.6636 H   0  0  0  0  0  0  0  0  0  0  0  0
   62.3102   34.1517   49.0212 H   0  0  0  0  0  0  0  0  0  0  0  0
   60.2030   32.9770   46.6790 H   0  0  0  0  0  0  0  0  0  0  0  0
   59.7424   35.8324   47.2294 H   0  0  0  0  0  0  0  0  0  0  0  0
   61.0900   35.0029   46.3148 H   0  0  0  0  0  0  0  0  0  0  0  0
   58.2228   35.4670   45.4546 H   0  0  0  0  0  0  0  0  0  0  0  0
   59.8056   36.0148   44.6892 H   0  0  0  0  0  0  0  0  0  0  0  0
   58.8412   34.3206   43.3105 H   0  0  0  0  0  0  0  0  0  0  0  0
   60.3084   33.6657   44.1924 H   0  0  0  0  0  0  0  0  0  0  0  0
   57.0128   32.7608   43.2520 H   0  0  0  0  0  0  0  0  0  0  0  0
   58.5520   31.8904   42.8918 H   0  0  0  0  0  0  0  0  0  0  0  0
   55.0516   31.0980   43.7577 H   0  0  0  0  0  0  0  0  0  0  0  0
   57.1503   27.8952   46.9748 H   0  0  0  0  0  0  0  0  0  0  0  0
   56.4350   26.9221   45.6451 H   0  0  0  0  0  0  0  0  0  0  0  0
   58.1938   27.2871   45.6451 H   0  0  0  0  0  0  0  0  0  0  0  0
   58.9438   29.7548   44.9986 H   0  0  0  0  0  0  0  0  0  0  0  0
   56.9747   34.0128   45.6667 H   0  0  0  0  0  0  0  0  0  0  0  0
   56.9491   32.2079   46.0216 H   0  0  0  0  0  0  0  0  0  0  0  0
   57.7138   34.1472   47.7920 H   0  0  0  0  0  0  0  0  0  0  0  0
   58.2214   32.3725   47.7877 H   0  0  0  0  0  0  0  0  0  0  0  0
  1  2  1  0
  2  3  1  0
  3  4  1  0
  4  5  2  0
  4  6  1  0
  6  7  1  0
  7  8  1  0
  8  9  1  0
  9 10  1  0
 10 11  1  0
 11 12  1  0
 12 13  1  0
 13 14  2  0
 14 15  1  0
 15 16  1  0
 15 17  1  0
 10 18  1  0
 18 19  1  0
 19  6  1  0
 17 12  2  0
  1 20  1  0
  1 21  1  0
  1 22  1  0
  3 23  1  0
  3 24  1  0
  6 25  1  6
  7 26  1  0
  7 27  1  0
  8 28  1  0
  8 29  1  0
  9 30  1  0
  9 31  1  0
 11 32  1  0
 11 33  1  0
 13 34  1  0
 16 35  1  0
 16 36  1  0
 16 37  1  0
 17 38  1  0
 18 39  1  0
 18 40  1  0
 19 41  1  0
 19 42  1  0
M  CHG  1   6   1
M  END
>  <UniqueID>  (49) 
48

>  <SMILES>  (49) 
CSCC(=O)[N@@H+]1CCCN(Cc2cnn(C)c2)CC1

>  <Energy>  (49) 
85.68645087185958

>  <Genealogy>  (49) 
CSCC(=O)[NH+]1CCCN(Cc2cnn(C)c2)CC1 (protonated)
CSCC(=O)[N@@H+]1CCCN(Cc2cnn(C)c2)CC1 (chirality)
CSCC(=O)[N@@H+]1CCCN(Cc2cnn(C)c2)CC1 (3D coordinates assigned)
CSCC(=O)[N@@H+]1CCCN(Cc2cnn(C)c2)CC1 (nonaromatic ring conformer: 85.68645087185958 kcal/mol)

>  <smiles>  (49) 
CSCC(=O)N1CCCN(Cc2cnn(C)c2)CC1

>  <score_type>  (49) 
oracle

>  <origin>  (49) 
adg

>  <m_score__min__energy>  (49) 
-2.9900000000000002

>  <m_primary>  (49) 
energy

$$$$
