0:0
     RDKit          3D

 29 30  0  0  0  0  0  0  0  0999 V2000
   54.6420   29.6030   45.3490 H   0  0  0  0  0  0  0  0  0  0  0  0
   61.2620   32.7680   47.6950 N   0  0  0  0  0  0  0  0  0  0  0  0
   60.4220   33.2410   46.8150 C   0  0  0  0  0  0  0  0  0  0  0  0
   56.2500   30.3080   42.8850 N   0  0  0  0  0  0  0  0  0  0  0  0
   57.0220   31.2180   42.2340 C   0  0  0  0  0  0  0  0  0  0  0  0
   56.9995   31.2703   41.1355 H   0  0  0  0  0  0  0  0  0  0  0  0
   57.8430   32.0860   42.9550 C   0  0  0  0  0  0  0  0  0  0  0  0
   58.4680   32.8218   42.4278 H   0  0  0  0  0  0  0  0  0  0  0  0
   57.8670   32.0150   44.3590 C   0  0  0  0  0  0  0  0  0  0  0  0
   58.7290   32.9290   45.1520 C   0  0  0  0  0  0  0  0  0  0  0  0
   58.6610   34.3170   44.9510 C   0  0  0  0  0  0  0  0  0  0  0  0
   57.9642   34.7349   44.2095 H   0  0  0  0  0  0  0  0  0  0  0  0
   59.4800   35.1610   45.6950 C   0  0  0  0  0  0  0  0  0  0  0  0
   59.4293   36.2496   45.5456 H   0  0  0  0  0  0  0  0  0  0  0  0
   57.0580   31.0640   45.0030 C   0  0  0  0  0  0  0  0  0  0  0  0
   57.0589   30.9903   46.1005 H   0  0  0  0  0  0  0  0  0  0  0  0
   56.2510   30.2110   44.2420 C   0  0  0  0  0  0  0  0  0  0  0  0
   55.5070   29.3300   44.8300 N   0  0  0  0  0  0  0  0  0  0  0  0
   62.6500   32.3650   47.4710 C   0  0  0  0  0  0  0  0  0  0  0  0
   63.1270   32.1615   48.4411 H   0  0  0  0  0  0  0  0  0  0  0  0
   62.6570   31.4621   46.8427 H   0  0  0  0  0  0  0  0  0  0  0  0
   63.4270   33.4650   46.7530 C   0  0  0  0  0  0  0  0  0  0  0  0
   63.8952   34.1278   47.4957 H   0  0  0  0  0  0  0  0  0  0  0  0
   64.2065   33.0118   46.1229 H   0  0  0  0  0  0  0  0  0  0  0  0
   62.7393   34.0482   46.1229 H   0  0  0  0  0  0  0  0  0  0  0  0
   59.6010   32.4260   46.0780 N   0  0  0  0  0  0  0  0  0  0  0  0
   59.6070   31.3950   46.2340 H   0  0  0  0  0  0  0  0  0  0  0  0
   60.3640   34.6260   46.6290 C   0  0  0  0  0  0  0  0  0  0  0  0
   61.0138   35.2900   47.2179 H   0  0  0  0  0  0  0  0  0  0  0  0
  1  2  1  0
  2  3  2  0
  3  4  1  0
  4  5  1  0
  5  6  1  0
  5  7  2  0
  7  8  1  0
  7  9  1  0
  9 10  1  0
 10 11  2  0
 11 12  1  0
 11 13  1  0
 13 14  1  0
 13 15  2  0
 15 16  1  0
 15 17  1  0
 17 18  2  0
 18 19  1  0
 19 20  1  0
 19 21  1  0
 19 22  1  0
 22 23  1  0
 22 24  1  0
 22 25  1  0
 17 26  1  0
 26 27  1  0
  9 28  2  0
 28 29  1  0
 28  3  1  0
 26 10  1  0
M  CHG  1   4  -1
M  END
>  <UniqueID>  (1) 
1

>  <SMILES>  (1) 
[H]/N=c1/cc(-c2ccc/c(=N/CC)[nH]2)cc[n-]1

>  <Energy>  (1) 
34.41856289694371

>  <Genealogy>  (1) 
CCN=c1cccc(-c2cc[n-]c(=N)c2)[nH]1 (protonated)
[H]/N=c1/cc(-c2ccc/c(=N/CC)[nH]2)cc[n-]1 (cis-trans isomerization)
[H]/N=c1/cc(-c2ccc/c(=N/CC)[nH]2)cc[n-]1 (3D coordinates assigned)
[H]/N=c1/cc(-c2ccc/c(=N/CC)[nH]2)cc[n-]1 (optimized conformer: 34.41856289694371 kcal/mol)

>  <smiles>  (1) 
CCN=c1cccc(-c2cc[nH]c(=N)c2)[nH]1

>  <score_type>  (1) 
oracle

>  <origin>  (1) 
adg

>  <m_score__min__energy>  (1) 
-9.0800000000000001

>  <m_primary>  (1) 
energy

$$$$
1:0
     RDKit          3D

 52 54  0  0  0  0  0  0  0  0999 V2000
   62.8400   33.7870   48.9820 C   0  0  0  0  0  0  0  0  0  0  0  0
   63.5700   33.1250   47.8880 N   0  0  0  0  0  0  0  0  0  0  0  0
   63.3850   33.8390   46.6150 C   0  0  0  0  0  0  0  0  0  0  0  0
   63.2720   31.6780   47.7880 C   0  0  0  0  0  0  0  0  0  0  0  0
   62.0700   31.2160   48.6360 C   0  0  0  0  0  0  0  0  0  0  0  0
   60.7890   31.4950   47.9080 C   0  0  0  0  0  0  0  0  0  0  0  0
   59.8140   30.7060   48.0490 O   0  0  0  0  0  0  0  0  0  0  0  0
   60.6490   32.7040   47.1440 N   0  0  0  0  0  0  0  0  0  0  0  0
   59.5360   32.9900   46.2800 C   0  0  0  0  0  0  0  0  0  0  0  0
   59.2170   34.3250   45.9900 C   0  0  0  0  0  0  0  0  0  0  0  0
   58.1550   34.6300   45.1380 C   0  0  0  0  0  0  0  0  0  0  0  0
   57.4110   33.6050   44.5480 C   0  0  0  0  0  0  0  0  0  0  0  0
   57.7330   32.2630   44.8010 C   0  0  0  0  0  0  0  0  0  0  0  0
   56.9440   31.1650   44.1370 C   0  0  0  0  0  0  0  0  0  0  0  0
   57.7950   29.9980   43.8920 N   0  0  0  0  0  0  0  0  0  0  0  0
   57.9890   28.9230   44.8310 C   0  0  0  0  0  0  0  0  0  0  0  0
   59.2260   28.7090   45.4680 C   0  0  0  0  0  0  0  0  0  0  0  0
   59.3840   27.6570   46.3740 C   0  0  0  0  0  0  0  0  0  0  0  0
   58.3170   26.7920   46.6520 C   0  0  0  0  0  0  0  0  0  0  0  0
   57.0690   27.0090   46.0330 C   0  0  0  0  0  0  0  0  0  0  0  0
   56.9130   28.0710   45.1290 C   0  0  0  0  0  0  0  0  0  0  0  0
   55.9510   26.0970   46.3490 C   0  0  0  0  0  0  0  0  0  0  0  0
   54.7780   26.3460   45.9660 O   0  0  0  0  0  0  0  0  0  0  0  0
   56.2100   24.9250   47.1240 N   0  0  0  0  0  0  0  0  0  0  0  0
   57.5830   24.4970   47.3780 C   0  0  0  0  0  0  0  0  0  0  0  0
   58.4740   25.7060   47.6930 C   0  0  0  0  0  0  0  0  0  0  0  0
   58.7960   31.9600   45.6690 C   0  0  0  0  0  0  0  0  0  0  0  0
   63.2290   33.4342   49.9485 H   0  0  0  0  0  0  0  0  0  0  0  0
   62.9761   34.8760   48.9074 H   0  0  0  0  0  0  0  0  0  0  0  0
   61.7695   33.5454   48.9074 H   0  0  0  0  0  0  0  0  0  0  0  0
   63.1138   34.8856   46.8177 H   0  0  0  0  0  0  0  0  0  0  0  0
   64.3209   33.8079   46.0378 H   0  0  0  0  0  0  0  0  0  0  0  0
   62.5820   33.3573   46.0378 H   0  0  0  0  0  0  0  0  0  0  0  0
   63.0610   31.4420   46.7345 H   0  0  0  0  0  0  0  0  0  0  0  0
   64.1537   31.1479   48.1774 H   0  0  0  0  0  0  0  0  0  0  0  0
   62.1526   30.1357   48.8263 H   0  0  0  0  0  0  0  0  0  0  0  0
   62.0695   31.7647   49.5894 H   0  0  0  0  0  0  0  0  0  0  0  0
   61.3540   33.4580   47.3010 H   0  0  0  0  0  0  0  0  0  0  0  0
   59.8085   35.1373   46.4376 H   0  0  0  0  0  0  0  0  0  0  0  0
   57.9028   35.6803   44.9302 H   0  0  0  0  0  0  0  0  0  0  0  0
   56.5700   33.8510   43.8830 H   0  0  0  0  0  0  0  0  0  0  0  0
   56.1088   30.8732   44.7907 H   0  0  0  0  0  0  0  0  0  0  0  0
   56.5608   31.5344   43.1743 H   0  0  0  0  0  0  0  0  0  0  0  0
   58.3510   29.9940   43.0070 H   0  0  0  0  0  0  0  0  0  0  0  0
   60.0743   29.3747   45.2510 H   0  0  0  0  0  0  0  0  0  0  0  0
   60.3529   27.5067   46.8726 H   0  0  0  0  0  0  0  0  0  0  0  0
   55.9376   28.2379   44.6487 H   0  0  0  0  0  0  0  0  0  0  0  0
   57.5942   23.8064   48.2341 H   0  0  0  0  0  0  0  0  0  0  0  0
   57.9706   23.9943   46.4796 H   0  0  0  0  0  0  0  0  0  0  0  0
   58.1944   26.1102   48.6771 H   0  0  0  0  0  0  0  0  0  0  0  0
   59.5226   25.3736   47.6918 H   0  0  0  0  0  0  0  0  0  0  0  0
   59.0518   30.9097   45.8726 H   0  0  0  0  0  0  0  0  0  0  0  0
  1  2  1  0
  2  3  1  0
  2  4  1  0
  4  5  1  0
  5  6  1  0
  6  7  2  0
  6  8  1  0
  8  9  1  0
  9 10  2  0
 10 11  1  0
 11 12  2  0
 12 13  1  0
 13 14  1  0
 14 15  1  0
 15 16  1  0
 16 17  2  0
 17 18  1  0
 18 19  2  0
 19 20  1  0
 20 21  2  0
 20 22  1  0
 22 23  2  0
 22 24  1  0
 24 25  1  0
 25 26  1  0
 13 27  2  0
 27  9  1  0
 21 16  1  0
 26 19  1  0
  1 28  1  0
  1 29  1  0
  1 30  1  0
  3 31  1  0
  3 32  1  0
  3 33  1  0
  4 34  1  0
  4 35  1  0
  5 36  1  0
  5 37  1  0
  8 38  1  0
 10 39  1  0
 11 40  1  0
 12 41  1  0
 14 42  1  0
 14 43  1  0
 15 44  1  0
 17 45  1  0
 18 46  1  0
 21 47  1  0
 25 48  1  0
 25 49  1  0
 26 50  1  0
 26 51  1  0
 27 52  1  0
M  CHG  1  24  -1
M  END
>  <UniqueID>  (2) 
2

>  <SMILES>  (2) 
CN(C)CCC(=O)Nc1cccc(CNc2ccc3c(c2)C(=O)[N-]CC3)c1

>  <Energy>  (2) 
56.29621118618051

>  <Genealogy>  (2) 
CN(C)CCC(=O)Nc1cccc(CNc2ccc3c(c2)C(=O)[N-]CC3)c1 (protonated)
CN(C)CCC(=O)Nc1cccc(CNc2ccc3c(c2)C(=O)[N-]CC3)c1 (3D coordinates assigned)
CN(C)CCC(=O)Nc1cccc(CNc2ccc3c(c2)C(=O)[N-]CC3)c1 (nonaromatic ring conformer: 56.29621118618051 kcal/mol)

>  <smiles>  (2) 
CN(C)CCC(=O)Nc1cccc(CNc2ccc3c(c2)C(=O)NCC3)c1

>  <score_type>  (2) 
oracle

>  <origin>  (2) 
adg

>  <m_score__min__energy>  (2) 
-10.5

>  <m_primary>  (2) 
energy

$$$$
2:0
     RDKit          3D

 37 38  0  0  0  0  0  0  0  0999 V2000
   56.8520   28.5750   45.1820 C   0  0  0  0  0  0  0  0  0  0  0  0
   55.5330   28.9740   44.8790 O   0  0  0  0  0  0  0  0  0  0  0  0
   55.5080   29.7160   43.6750 C   0  0  0  0  0  0  0  0  0  0  0  0
   56.6780   30.7030   43.6380 C   0  0  0  0  0  0  0  0  0  0  0  0
   56.6440   31.5680   44.7730 O   0  0  0  0  0  0  0  0  0  0  0  0
   57.7340   32.3030   45.2700 C   0  0  0  0  0  0  0  0  0  0  0  0
   58.6960   31.6260   46.0280 C   0  0  0  0  0  0  0  0  0  0  0  0
   59.8030   32.3050   46.5440 C   0  0  0  0  0  0  0  0  0  0  0  0
   59.9680   33.6750   46.3120 C   0  0  0  0  0  0  0  0  0  0  0  0
   61.1030   34.3070   46.8470 O   0  0  0  0  0  0  0  0  0  0  0  0
   62.4400   33.8150   46.7550 C   0  0  0  0  0  0  0  0  0  0  0  0
   63.0140   33.5620   48.1250 C   0  0  0  0  0  0  0  0  0  0  0  0
   64.0950   32.6800   48.2950 C   0  0  0  0  0  0  0  0  0  0  0  0
   64.6270   32.4550   49.5690 C   0  0  0  0  0  0  0  0  0  0  0  0
   64.0920   33.1160   50.6780 C   0  0  0  0  0  0  0  0  0  0  0  0
   63.0250   34.0050   50.5150 C   0  0  0  0  0  0  0  0  0  0  0  0
   62.4890   34.2310   49.2430 C   0  0  0  0  0  0  0  0  0  0  0  0
   58.9980   34.3640   45.5590 C   0  0  0  0  0  0  0  0  0  0  0  0
   57.8910   33.6840   45.0430 C   0  0  0  0  0  0  0  0  0  0  0  0
   56.9816   28.5358   46.2736 H   0  0  0  0  0  0  0  0  0  0  0  0
   57.0413   27.5794   44.7543 H   0  0  0  0  0  0  0  0  0  0  0  0
   57.5614   29.2987   44.7543 H   0  0  0  0  0  0  0  0  0  0  0  0
   55.5871   29.0265   42.8215 H   0  0  0  0  0  0  0  0  0  0  0  0
   54.5633   30.2767   43.6184 H   0  0  0  0  0  0  0  0  0  0  0  0
   57.6241   30.1418   43.6398 H   0  0  0  0  0  0  0  0  0  0  0  0
   56.5979   31.3127   42.7259 H   0  0  0  0  0  0  0  0  0  0  0  0
   58.5797   30.5491   46.2195 H   0  0  0  0  0  0  0  0  0  0  0  0
   60.5506   31.7581   47.1373 H   0  0  0  0  0  0  0  0  0  0  0  0
   62.4393   32.8741   46.1852 H   0  0  0  0  0  0  0  0  0  0  0  0
   63.0588   34.5700   46.2481 H   0  0  0  0  0  0  0  0  0  0  0  0
   64.5243   32.1648   47.4231 H   0  0  0  0  0  0  0  0  0  0  0  0
   65.4674   31.7570   49.6981 H   0  0  0  0  0  0  0  0  0  0  0  0
   64.5104   32.9369   51.6794 H   0  0  0  0  0  0  0  0  0  0  0  0
   62.6067   34.5272   51.3881 H   0  0  0  0  0  0  0  0  0  0  0  0
   61.6533   34.9352   49.1177 H   0  0  0  0  0  0  0  0  0  0  0  0
   59.1119   35.4427   45.3759 H   0  0  0  0  0  0  0  0  0  0  0  0
   57.1382   34.2308   44.4562 H   0  0  0  0  0  0  0  0  0  0  0  0
  1  2  1  0
  2  3  1  0
  3  4  1  0
  4  5  1  0
  5  6  1  0
  6  7  2  0
  7  8  1  0
  8  9  2  0
  9 10  1  0
 10 11  1  0
 11 12  1  0
 12 13  2  0
 13 14  1  0
 14 15  2  0
 15 16  1  0
 16 17  2  0
  9 18  1  0
 18 19  2  0
 19  6  1  0
 17 12  1  0
  1 20  1  0
  1 21  1  0
  1 22  1  0
  3 23  1  0
  3 24  1  0
  4 25  1  0
  4 26  1  0
  7 27  1  0
  8 28  1  0
 11 29  1  0
 11 30  1  0
 13 31  1  0
 14 32  1  0
 15 33  1  0
 16 34  1  0
 17 35  1  0
 18 36  1  0
 19 37  1  0
M  END
>  <UniqueID>  (3) 
3

>  <SMILES>  (3) 
COCCOc1ccc(OCc2ccccc2)cc1

>  <Energy>  (3) 
37.243902396087186

>  <Genealogy>  (3) 
COCCOc1ccc(OCc2ccccc2)cc1 (3D coordinates assigned)
COCCOc1ccc(OCc2ccccc2)cc1 (optimized conformer: 37.243902396087186 kcal/mol)

>  <smiles>  (3) 
COCCOc1ccc(OCc2ccccc2)cc1

>  <score_type>  (3) 
oracle

>  <origin>  (3) 
adg

>  <m_score__min__energy>  (3) 
-6.5

>  <m_primary>  (3) 
energy

$$$$
3:0
     RDKit          3D

 34 37  0  0  0  0  0  0  0  0999 V2000
   56.6340   30.4660   42.2400 C   0  0  0  0  0  0  0  0  0  0  0  0
   56.4840   29.9230   43.5190 C   0  0  0  0  0  0  0  0  0  0  0  0
   57.0500   30.5650   44.6240 C   0  0  0  0  0  0  0  0  0  0  0  0
   57.7740   31.7620   44.4610 C   0  0  0  0  0  0  0  0  0  0  0  0
   58.3760   32.4450   45.6350 C   0  0  0  0  0  0  0  0  0  0  0  0
   58.3240   33.8470   45.7490 C   0  0  0  0  0  0  0  0  0  0  0  0
   58.8870   34.4920   46.8520 C   0  0  0  0  0  0  0  0  0  0  0  0
   59.4980   33.7450   47.8620 C   0  0  0  0  0  0  0  0  0  0  0  0
   59.5930   32.3440   47.7520 C   0  0  0  0  0  0  0  0  0  0  0  0
   59.0190   31.7010   46.6410 C   0  0  0  0  0  0  0  0  0  0  0  0
   60.3380   31.5970   48.7440 N   0  0  0  0  0  0  0  0  0  0  0  0
   61.6360   32.2080   48.9360 C   0  0  0  0  0  0  0  0  0  0  0  0
   62.8160   31.4500   48.8440 C   0  0  0  0  0  0  0  0  0  0  0  0
   64.0640   32.0740   48.9440 C   0  0  0  0  0  0  0  0  0  0  0  0
   64.1440   33.4580   49.1270 C   0  0  0  0  0  0  0  0  0  0  0  0
   62.9780   34.2220   49.2270 C   0  0  0  0  0  0  0  0  0  0  0  0
   61.7280   33.5980   49.1560 C   0  0  0  0  0  0  0  0  0  0  0  0
   60.2160   34.5580   49.2940 S   0  0  0  0  0  0  0  0  0  0  0  0
   57.9180   32.2990   43.1680 C   0  0  0  0  0  0  0  0  0  0  0  0
   57.3500   31.6520   42.0660 C   0  0  0  0  0  0  0  0  0  0  0  0
   56.1884   29.9595   41.3712 H   0  0  0  0  0  0  0  0  0  0  0  0
   55.9196   28.9889   43.6563 H   0  0  0  0  0  0  0  0  0  0  0  0
   56.9291   30.1323   45.6281 H   0  0  0  0  0  0  0  0  0  0  0  0
   57.8353   34.4400   44.9619 H   0  0  0  0  0  0  0  0  0  0  0  0
   58.8494   35.5889   46.9257 H   0  0  0  0  0  0  0  0  0  0  0  0
   59.0733   30.6055   46.5577 H   0  0  0  0  0  0  0  0  0  0  0  0
   60.4420   30.5960   48.4510 H   0  0  0  0  0  0  0  0  0  0  0  0
   59.8150   31.6180   49.6490 H   0  0  0  0  0  0  0  0  0  0  0  0
   62.7579   30.3620   48.6928 H   0  0  0  0  0  0  0  0  0  0  0  0
   64.9842   31.4748   48.8786 H   0  0  0  0  0  0  0  0  0  0  0  0
   65.1273   33.9467   49.1924 H   0  0  0  0  0  0  0  0  0  0  0  0
   63.0431   35.3118   49.3613 H   0  0  0  0  0  0  0  0  0  0  0  0
   58.4806   33.2331   43.0234 H   0  0  0  0  0  0  0  0  0  0  0  0
   57.4677   32.0787   41.0590 H   0  0  0  0  0  0  0  0  0  0  0  0
  1  2  2  0
  2  3  1  0
  3  4  2  0
  4  5  1  0
  5  6  2  0
  6  7  1  0
  7  8  2  0
  8  9  1  0
  9 10  2  0
  9 11  1  0
 11 12  1  0
 12 13  2  0
 13 14  1  0
 14 15  2  0
 15 16  1  0
 16 17  2  0
 17 18  1  0
  4 19  1  0
 19 20  2  0
 20  1  1  0
 10  5  1  0
 17 12  1  0
 18  8  1  0
  1 21  1  0
  2 22  1  0
  3 23  1  0
  6 24  1  0
  7 25  1  0
 10 26  1  0
 11 27  1  0
 11 28  1  0
 13 29  1  0
 14 30  1  0
 15 31  1  0
 16 32  1  0
 19 33  1  0
 20 34  1  0
M  CHG  1  11   1
M  END
>  <UniqueID>  (4) 
4

>  <SMILES>  (4) 
c1ccc(-c2ccc3c(c2)[NH2+]c2ccccc2S3)cc1

>  <Energy>  (4) 
57.58972896994878

>  <Genealogy>  (4) 
c1ccc(-c2ccc3c(c2)[NH2+]c2ccccc2S3)cc1 (protonated)
c1ccc(-c2ccc3c(c2)[NH2+]c2ccccc2S3)cc1 (3D coordinates assigned)
c1ccc(-c2ccc3c(c2)[NH2+]c2ccccc2S3)cc1 (nonaromatic ring conformer: 57.58972896994878 kcal/mol)

>  <smiles>  (4) 
c1ccc(-c2ccc3c(c2)Nc2ccccc2S3)cc1

>  <score_type>  (4) 
oracle

>  <origin>  (4) 
adg

>  <m_score__min__energy>  (4) 
-6.21

>  <m_primary>  (4) 
energy

$$$$
4:0
     RDKit          3D

 54 57  0  0  0  0  0  0  0  0999 V2000
   64.5050   33.0930   49.6400 C   0  0  0  0  0  0  0  0  0  0  0  0
   63.1180   33.0190   49.9490 O   0  0  0  0  0  0  0  0  0  0  0  0
   62.2580   31.9930   49.5260 C   0  0  0  0  0  0  0  0  0  0  0  0
   62.2520   30.7310   50.1510 C   0  0  0  0  0  0  0  0  0  0  0  0
   61.4040   29.7190   49.7010 C   0  0  0  0  0  0  0  0  0  0  0  0
   60.5580   29.9360   48.6070 C   0  0  0  0  0  0  0  0  0  0  0  0
   59.6870   28.8780   48.1670 N   0  0  0  0  0  0  0  0  0  0  0  0
   59.6390   28.3930   46.8150 C   0  0  0  0  0  0  0  0  0  0  0  0
   60.5790   28.6520   46.0150 O   0  0  0  0  0  0  0  0  0  0  0  0
   58.5180   27.5530   46.3570 C   0  0  0  0  0  0  0  0  0  0  0  0
   57.1700   27.8700   46.3900 C   0  0  0  0  0  0  0  0  0  0  0  0
   56.5200   26.7860   45.8430 C   0  0  0  0  0  0  0  0  0  0  0  0
   55.1460   26.7080   45.6490 O   0  0  0  0  0  0  0  0  0  0  0  0
   57.3960   25.8240   45.4820 N   0  0  0  0  0  0  0  0  0  0  0  0
   57.1020   24.5510   44.8770 C   0  0  0  0  0  0  0  0  0  0  0  0
   56.6460   24.4750   43.5480 C   0  0  0  0  0  0  0  0  0  0  0  0
   56.3550   23.2350   42.9690 C   0  0  0  0  0  0  0  0  0  0  0  0
   56.5130   22.0620   43.7100 C   0  0  0  0  0  0  0  0  0  0  0  0
   56.2310   20.8610   43.1460 F   0  0  0  0  0  0  0  0  0  0  0  0
   56.9590   22.1250   45.0320 C   0  0  0  0  0  0  0  0  0  0  0  0
   57.2490   23.3620   45.6160 C   0  0  0  0  0  0  0  0  0  0  0  0
   58.6230   26.2940   45.7880 C   0  0  0  0  0  0  0  0  0  0  0  0
   60.5400   31.2000   47.9960 C   0  0  0  0  0  0  0  0  0  0  0  0
   61.3800   32.2280   48.4490 C   0  0  0  0  0  0  0  0  0  0  0  0
   61.3360   33.7880   47.6130 S   0  0  0  0  0  0  0  0  0  0  0  0
   62.3900   33.8440   46.5420 O   0  0  0  0  0  0  0  0  0  0  0  0
   61.6230   34.8750   48.6110 O   0  0  0  0  0  0  0  0  0  0  0  0
   59.7560   34.0470   46.9150 N   0  0  0  0  0  0  0  0  0  0  0  0
   58.7130   33.5300   47.8210 C   0  0  0  0  0  0  0  0  0  0  0  0
   57.3900   33.3320   47.0610 C   0  0  0  0  0  0  0  0  0  0  0  0
   57.4720   32.4380   45.9570 O   0  0  0  0  0  0  0  0  0  0  0  0
   58.7970   32.2110   45.5000 C   0  0  0  0  0  0  0  0  0  0  0  0
   59.6720   33.4760   45.5510 C   0  0  0  0  0  0  0  0  0  0  0  0
   65.0873   33.1241   50.5727 H   0  0  0  0  0  0  0  0  0  0  0  0
   64.7978   32.2092   49.0542 H   0  0  0  0  0  0  0  0  0  0  0  0
   64.7021   34.0029   49.0542 H   0  0  0  0  0  0  0  0  0  0  0  0
   62.9225   30.5415   51.0022 H   0  0  0  0  0  0  0  0  0  0  0  0
   61.4000   28.7435   50.2094 H   0  0  0  0  0  0  0  0  0  0  0  0
   59.1380   28.3670   48.8950 H   0  0  0  0  0  0  0  0  0  0  0  0
   56.7138   28.7947   46.7732 H   0  0  0  0  0  0  0  0  0  0  0  0
   56.5175   25.3962   42.9607 H   0  0  0  0  0  0  0  0  0  0  0  0
   56.0013   23.1840   41.9287 H   0  0  0  0  0  0  0  0  0  0  0  0
   57.0823   21.2002   45.6147 H   0  0  0  0  0  0  0  0  0  0  0  0
   57.5942   23.4062   46.6595 H   0  0  0  0  0  0  0  0  0  0  0  0
   59.5669   25.7573   45.6119 H   0  0  0  0  0  0  0  0  0  0  0  0
   59.8593   31.3863   47.1523 H   0  0  0  0  0  0  0  0  0  0  0  0
   59.0399   32.5653   48.2364 H   0  0  0  0  0  0  0  0  0  0  0  0
   58.5530   34.2566   48.6312 H   0  0  0  0  0  0  0  0  0  0  0  0
   56.6437   32.9387   47.7670 H   0  0  0  0  0  0  0  0  0  0  0  0
   57.1160   34.3143   46.6486 H   0  0  0  0  0  0  0  0  0  0  0  0
   59.2591   31.4386   46.1324 H   0  0  0  0  0  0  0  0  0  0  0  0
   58.7343   31.8947   44.4483 H   0  0  0  0  0  0  0  0  0  0  0  0
   60.6864   33.2183   45.2123 H   0  0  0  0  0  0  0  0  0  0  0  0
   59.2100   34.2311   44.8980 H   0  0  0  0  0  0  0  0  0  0  0  0
  1  2  1  0
  2  3  1  0
  3  4  2  0
  4  5  1  0
  5  6  2  0
  6  7  1  0
  7  8  1  0
  8  9  2  0
  8 10  1  0
 10 11  1  0
 11 12  2  0
 12 13  1  0
 12 14  1  0
 14 15  1  0
 15 16  2  0
 16 17  1  0
 17 18  2  0
 18 19  1  0
 18 20  1  0
 20 21  2  0
 14 22  1  0
  6 23  1  0
 23 24  2  0
 24 25  1  0
 25 26  2  0
 25 27  2  0
 25 28  1  0
 28 29  1  0
 29 30  1  0
 30 31  1  0
 31 32  1  0
 32 33  1  0
 24  3  1  0
 33 28  1  0
 22 10  2  0
 21 15  1  0
  1 34  1  0
  1 35  1  0
  1 36  1  0
  4 37  1  0
  5 38  1  0
  7 39  1  0
 11 40  1  0
 16 41  1  0
 17 42  1  0
 20 43  1  0
 21 44  1  0
 22 45  1  0
 23 46  1  0
 29 47  1  0
 29 48  1  0
 30 49  1  0
 30 50  1  0
 32 51  1  0
 32 52  1  0
 33 53  1  0
 33 54  1  0
M  CHG  1  13  -1
M  END
>  <UniqueID>  (5) 
5

>  <SMILES>  (5) 
COc1ccc(NC(=O)c2cc([O-])n(-c3ccc(F)cc3)c2)cc1S(=O)(=O)N1CCOCC1

>  <Energy>  (5) 
105.02822235052102

>  <Genealogy>  (5) 
COc1ccc(NC(=O)c2cc([O-])n(-c3ccc(F)cc3)c2)cc1S(=O)(=O)N1CCOCC1 (protonated)
COc1ccc(NC(=O)c2cc([O-])n(-c3ccc(F)cc3)c2)cc1S(=O)(=O)N1CCOCC1 (3D coordinates assigned)
COc1ccc(NC(=O)c2cc([O-])n(-c3ccc(F)cc3)c2)cc1S(=O)(=O)N1CCOCC1 (nonaromatic ring conformer: 105.02822235052102 kcal/mol)

>  <smiles>  (5) 
COc1ccc(NC(=O)c2cc(O)n(-c3ccc(F)cc3)c2)cc1S(=O)(=O)N1CCOCC1

>  <score_type>  (5) 
oracle

>  <origin>  (5) 
adg

>  <m_score__min__energy>  (5) 
-10.84

>  <m_primary>  (5) 
energy

$$$$
5:0
     RDKit          3D

 58 61  0  0  0  0  0  0  0  0999 V2000
   62.4120   31.3770   47.5300 C   0  0  0  0  0  0  0  0  0  0  0  0
   61.2280   32.3010   47.3810 C   0  0  0  0  0  0  0  0  0  0  0  0
   61.3680   33.5900   47.9060 C   0  0  0  0  0  0  0  0  0  0  0  0
   60.3850   34.5410   47.6950 C   0  0  0  0  0  0  0  0  0  0  0  0
   59.2890   34.2450   46.9580 N   0  0  0  0  0  0  0  0  0  0  0  0
   59.0720   32.9950   46.4330 C   0  0  0  0  0  0  0  0  0  0  0  0
   60.0180   31.9540   46.6970 C   0  0  0  0  0  0  0  0  0  0  0  0
   59.7120   30.6410   46.2470 C   0  0  0  0  0  0  0  0  0  0  0  0
   60.4600   29.4910   46.6650 N   0  0  0  0  0  0  0  0  0  0  0  0
   59.8050   28.3080   47.2270 C   0  0  0  0  0  0  0  0  0  0  0  0
   60.1200   28.1710   48.6930 C   0  0  0  0  0  0  0  0  0  0  0  0
   60.9590   27.2950   49.0370 O   0  0  0  0  0  0  0  0  0  0  0  0
   59.5280   29.0360   49.6930 N   0  0  0  0  0  0  0  0  0  0  0  0
   60.0010   28.9640   51.0870 C   0  0  0  0  0  0  0  0  0  0  0  0
   58.8840   29.2730   52.1130 C   0  0  0  0  0  0  0  0  0  0  0  0
   57.7120   29.9610   51.5270 N   0  0  0  0  0  0  0  0  0  0  0  0
   56.9140   30.6180   52.5820 C   0  0  0  0  0  0  0  0  0  0  0  0
   55.4730   30.1890   52.4960 C   0  0  0  0  0  0  0  0  0  0  0  0
   55.0110   29.1170   53.2780 C   0  0  0  0  0  0  0  0  0  0  0  0
   53.6790   28.7010   53.1870 C   0  0  0  0  0  0  0  0  0  0  0  0
   52.8000   29.3520   52.3180 C   0  0  0  0  0  0  0  0  0  0  0  0
   53.2510   30.4200   51.5380 C   0  0  0  0  0  0  0  0  0  0  0  0
   54.5820   30.8380   51.6240 C   0  0  0  0  0  0  0  0  0  0  0  0
   58.1320   30.9200   50.4910 C   0  0  0  0  0  0  0  0  0  0  0  0
   58.6350   30.1330   49.2850 C   0  0  0  0  0  0  0  0  0  0  0  0
   58.5630   30.4290   45.4870 C   0  0  0  0  0  0  0  0  0  0  0  0
   57.7020   31.4750   45.1940 C   0  0  0  0  0  0  0  0  0  0  0  0
   56.6730   31.2230   44.5060 O   0  0  0  0  0  0  0  0  0  0  0  0
   57.9510   32.7430   45.6580 N   0  0  0  0  0  0  0  0  0  0  0  0
   57.0110   33.8330   45.3250 C   0  0  0  0  0  0  0  0  0  0  0  0
   62.6189   31.2155   48.5982 H   0  0  0  0  0  0  0  0  0  0  0  0
   62.1874   30.4130   47.0502 H   0  0  0  0  0  0  0  0  0  0  0  0
   63.2926   31.8291   47.0502 H   0  0  0  0  0  0  0  0  0  0  0  0
   62.2638   33.8490   48.4894 H   0  0  0  0  0  0  0  0  0  0  0  0
   60.4953   35.5454   48.1297 H   0  0  0  0  0  0  0  0  0  0  0  0
   58.6080   35.0250   46.8270 H   0  0  0  0  0  0  0  0  0  0  0  0
   61.5030   29.5280   46.5980 H   0  0  0  0  0  0  0  0  0  0  0  0
   58.7166   28.4028   47.0989 H   0  0  0  0  0  0  0  0  0  0  0  0
   60.1750   27.4156   46.7010 H   0  0  0  0  0  0  0  0  0  0  0  0
   60.3830   27.9501   51.2772 H   0  0  0  0  0  0  0  0  0  0  0  0
   60.7862   29.7243   51.2113 H   0  0  0  0  0  0  0  0  0  0  0  0
   58.5450   28.3239   52.5538 H   0  0  0  0  0  0  0  0  0  0  0  0
   59.3148   29.9534   52.8623 H   0  0  0  0  0  0  0  0  0  0  0  0
   57.3166   30.3395   53.5671 H   0  0  0  0  0  0  0  0  0  0  0  0
   56.9700   31.7079   52.4444 H   0  0  0  0  0  0  0  0  0  0  0  0
   55.6998   28.6029   53.9645 H   0  0  0  0  0  0  0  0  0  0  0  0
   53.3230   27.8602   53.8004 H   0  0  0  0  0  0  0  0  0  0  0  0
   51.7525   29.0237   52.2478 H   0  0  0  0  0  0  0  0  0  0  0  0
   52.5575   30.9326   50.8552 H   0  0  0  0  0  0  0  0  0  0  0  0
   54.9335   31.6780   51.0069 H   0  0  0  0  0  0  0  0  0  0  0  0
   57.2775   31.5467   50.1960 H   0  0  0  0  0  0  0  0  0  0  0  0
   58.9298   31.5708   50.8782 H   0  0  0  0  0  0  0  0  0  0  0  0
   57.7726   29.7113   48.7480 H   0  0  0  0  0  0  0  0  0  0  0  0
   59.2020   30.8177   48.6372 H   0  0  0  0  0  0  0  0  0  0  0  0
   58.3366   29.4188   45.1150 H   0  0  0  0  0  0  0  0  0  0  0  0
   56.6250   34.2806   46.2528 H   0  0  0  0  0  0  0  0  0  0  0  0
   57.5342   34.6016   44.7372 H   0  0  0  0  0  0  0  0  0  0  0  0
   56.1739   33.4285   44.7372 H   0  0  0  0  0  0  0  0  0  0  0  0
  1  2  1  0
  2  3  2  0
  3  4  1  0
  4  5  2  0
  5  6  1  0
  6  7  2  0
  7  8  1  0
  8  9  1  0
  9 10  1  0
 10 11  1  0
 11 12  2  0
 11 13  1  0
 13 14  1  0
 14 15  1  0
 15 16  1  0
 16 17  1  0
 17 18  1  0
 18 19  2  0
 19 20  1  0
 20 21  2  0
 21 22  1  0
 22 23  2  0
 16 24  1  0
 24 25  1  0
  8 26  2  0
 26 27  1  0
 27 28  2  0
 27 29  1  0
 29 30  1  0
  7  2  1  0
 25 13  1  0
 29  6  1  0
 23 18  1  0
  1 31  1  0
  1 32  1  0
  1 33  1  0
  3 34  1  0
  4 35  1  0
  5 36  1  0
  9 37  1  0
 10 38  1  0
 10 39  1  0
 14 40  1  0
 14 41  1  0
 15 42  1  0
 15 43  1  0
 17 44  1  0
 17 45  1  0
 19 46  1  0
 20 47  1  0
 21 48  1  0
 22 49  1  0
 23 50  1  0
 24 51  1  0
 24 52  1  0
 25 53  1  0
 25 54  1  0
 26 55  1  0
 30 56  1  0
 30 57  1  0
 30 58  1  0
M  CHG  1   5   1
M  END
>  <UniqueID>  (6) 
6

>  <SMILES>  (6) 
Cc1cc[nH+]c2c1c(NCC(=O)N1CCN(Cc3ccccc3)CC1)cc(=O)n2C

>  <Energy>  (6) 
87.78518095904236

>  <Genealogy>  (6) 
Cc1cc[nH+]c2c1c(NCC(=O)N1CCN(Cc3ccccc3)CC1)cc(=O)n2C (protonated)
Cc1cc[nH+]c2c1c(NCC(=O)N1CCN(Cc3ccccc3)CC1)cc(=O)n2C (3D coordinates assigned)
Cc1cc[nH+]c2c1c(NCC(=O)N1CCN(Cc3ccccc3)CC1)cc(=O)n2C (nonaromatic ring conformer: 87.78518095904236 kcal/mol)

>  <smiles>  (6) 
Cc1ccnc2c1c(NCC(=O)N1CCN(Cc3ccccc3)CC1)cc(=O)n2C

>  <score_type>  (6) 
oracle

>  <origin>  (6) 
adg

>  <m_score__min__energy>  (6) 
-7.4500000000000002

>  <m_primary>  (6) 
energy

$$$$
6:0
     RDKit          3D

 55 58  0  0  0  0  0  0  0  0999 V2000
   68.2970   27.4640   49.4610 C   0  0  0  0  0  0  0  0  0  0  0  0
   67.5650   27.8050   50.7190 C   0  0  0  0  0  0  0  0  0  0  0  0
   67.0570   26.8810   51.4120 O   0  0  0  0  0  0  0  0  0  0  0  0
   67.4100   29.1770   51.1060 N   0  0  0  0  0  0  0  0  0  0  0  0
   66.7820   29.5890   52.3620 C   0  0  0  0  0  0  0  0  0  0  0  0
   66.1960   30.9990   52.2290 C   0  0  2  0  0  0  0  0  0  0  0  0
   64.7630   31.0120   51.6230 C   0  0  0  0  0  0  0  0  0  0  0  0
   64.8310   31.9380   50.4960 N   0  0  0  0  0  0  0  0  0  0  0  0
   63.7100   32.3820   49.7050 C   0  0  0  0  0  0  0  0  0  0  0  0
   63.5700   31.9540   48.3740 C   0  0  0  0  0  0  0  0  0  0  0  0
   62.4810   32.3720   47.6050 C   0  0  0  0  0  0  0  0  0  0  0  0
   61.5080   33.2180   48.1530 C   0  0  0  0  0  0  0  0  0  0  0  0
   60.3970   33.6510   47.3490 N   0  0  0  0  0  0  0  0  0  0  0  0
   60.6310   34.0600   45.9540 C   0  0  0  0  0  0  0  0  0  0  0  0
   59.3080   34.2430   45.2010 C   0  0  0  0  0  0  0  0  0  0  0  0
   58.4050   33.1240   45.5080 N   0  0  0  0  0  0  0  0  0  0  0  0
   57.8250   32.3370   44.4510 C   0  0  0  0  0  0  0  0  0  0  0  0
   57.0520   31.2010   44.7500 C   0  0  0  0  0  0  0  0  0  0  0  0
   56.4790   30.4460   43.7230 C   0  0  0  0  0  0  0  0  0  0  0  0
   56.6680   30.8170   42.3900 C   0  0  0  0  0  0  0  0  0  0  0  0
   57.4290   31.9480   42.0820 C   0  0  0  0  0  0  0  0  0  0  0  0
   58.0030   32.7080   43.1060 C   0  0  0  0  0  0  0  0  0  0  0  0
   58.1490   32.7570   46.9100 C   0  0  0  0  0  0  0  0  0  0  0  0
   59.0280   33.5660   47.8730 C   0  0  0  0  0  0  0  0  0  0  0  0
   61.6310   33.6350   49.4890 C   0  0  0  0  0  0  0  0  0  0  0  0
   60.6770   34.4100   50.0620 F   0  0  0  0  0  0  0  0  0  0  0  0
   62.7210   33.2150   50.2580 C   0  0  0  0  0  0  0  0  0  0  0  0
   66.1890   32.3160   50.3580 C   0  0  0  0  0  0  0  0  0  0  0  0
   66.6380   33.0140   49.4110 O   0  0  0  0  0  0  0  0  0  0  0  0
   66.9890   31.7740   51.3360 O   0  0  0  0  0  0  0  0  0  0  0  0
   69.2677   27.0118   49.7127 H   0  0  0  0  0  0  0  0  0  0  0  0
   67.7017   26.7505   48.8723 H   0  0  0  0  0  0  0  0  0  0  0  0
   68.4602   28.3788   48.8723 H   0  0  0  0  0  0  0  0  0  0  0  0
   67.8260   29.9200   50.4990 H   0  0  0  0  0  0  0  0  0  0  0  0
   65.9760   28.8837   52.6127 H   0  0  0  0  0  0  0  0  0  0  0  0
   67.5423   29.5921   53.1569 H   0  0  0  0  0  0  0  0  0  0  0  0
   66.1758   31.4030   53.2519 H   0  0  0  0  0  0  0  0  0  0  0  0
   64.4808   30.0060   51.2789 H   0  0  0  0  0  0  0  0  0  0  0  0
   64.0076   31.3187   52.3615 H   0  0  0  0  0  0  0  0  0  0  0  0
   64.3238   31.2845   47.9340 H   0  0  0  0  0  0  0  0  0  0  0  0
   62.3869   32.0346   46.5623 H   0  0  0  0  0  0  0  0  0  0  0  0
   61.1827   35.0116   45.9467 H   0  0  0  0  0  0  0  0  0  0  0  0
   61.2114   33.2716   45.4523 H   0  0  0  0  0  0  0  0  0  0  0  0
   58.8381   35.1879   45.5114 H   0  0  0  0  0  0  0  0  0  0  0  0
   59.5046   34.2666   44.1190 H   0  0  0  0  0  0  0  0  0  0  0  0
   56.8975   30.9050   45.7981 H   0  0  0  0  0  0  0  0  0  0  0  0
   55.8777   29.5573   43.9652 H   0  0  0  0  0  0  0  0  0  0  0  0
   56.2183   30.2196   41.5832 H   0  0  0  0  0  0  0  0  0  0  0  0
   57.5768   32.2410   41.0321 H   0  0  0  0  0  0  0  0  0  0  0  0
   58.5966   33.6003   42.8584 H   0  0  0  0  0  0  0  0  0  0  0  0
   57.0916   32.9510   47.1428 H   0  0  0  0  0  0  0  0  0  0  0  0
   58.3889   31.6910   47.0369 H   0  0  0  0  0  0  0  0  0  0  0  0
   58.6147   34.5798   47.9795 H   0  0  0  0  0  0  0  0  0  0  0  0
   59.0459   33.0666   48.8529 H   0  0  0  0  0  0  0  0  0  0  0  0
   62.8056   33.5394   51.3057 H   0  0  0  0  0  0  0  0  0  0  0  0
  1  2  1  0
  2  3  2  0
  2  4  1  0
  4  5  1  0
  5  6  1  0
  6  7  1  0
  7  8  1  0
  8  9  1  0
  9 10  2  0
 10 11  1  0
 11 12  2  0
 12 13  1  0
 13 14  1  0
 14 15  1  0
 15 16  1  0
 16 17  1  0
 17 18  2  0
 18 19  1  0
 19 20  2  0
 20 21  1  0
 21 22  2  0
 16 23  1  0
 23 24  1  0
 12 25  1  0
 25 26  1  0
 25 27  2  0
  8 28  1  0
 28 29  2  0
 28 30  1  0
 30  6  1  0
 27  9  1  0
 24 13  1  0
 22 17  1  0
  1 31  1  0
  1 32  1  0
  1 33  1  0
  4 34  1  0
  5 35  1  0
  5 36  1  0
  6 37  1  1
  7 38  1  0
  7 39  1  0
 10 40  1  0
 11 41  1  0
 14 42  1  0
 14 43  1  0
 15 44  1  0
 15 45  1  0
 18 46  1  0
 19 47  1  0
 20 48  1  0
 21 49  1  0
 22 50  1  0
 23 51  1  0
 23 52  1  0
 24 53  1  0
 24 54  1  0
 27 55  1  0
M  END
>  <UniqueID>  (7) 
7

>  <SMILES>  (7) 
CC(=O)NC[C@@H]1CN(c2ccc(N3CCN(c4ccccc4)CC3)c(F)c2)C(=O)O1

>  <Energy>  (7) 
81.45222321095181

>  <Genealogy>  (7) 
CC(=O)NC[C@@H]1CN(c2ccc(N3CCN(c4ccccc4)CC3)c(F)c2)C(=O)O1 (chirality)
CC(=O)NC[C@@H]1CN(c2ccc(N3CCN(c4ccccc4)CC3)c(F)c2)C(=O)O1 (3D coordinates assigned)
CC(=O)NC[C@@H]1CN(c2ccc(N3CCN(c4ccccc4)CC3)c(F)c2)C(=O)O1 (nonaromatic ring conformer: 81.45222321095181 kcal/mol)

>  <smiles>  (7) 
CC(=O)NCC1CN(c2ccc(N3CCN(c4ccccc4)CC3)c(F)c2)C(=O)O1

>  <score_type>  (7) 
oracle

>  <origin>  (7) 
adg

>  <m_score__min__energy>  (7) 
-7.7999999999999998

>  <m_primary>  (7) 
energy

$$$$
7:0
     RDKit          3D

 57 61  0  0  0  0  0  0  0  0999 V2000
   57.9480   33.0190   52.1560 C   0  0  0  0  0  0  0  0  0  0  0  0
   57.4440   31.9120   51.2390 C   0  0  0  0  0  0  0  0  0  0  0  0
   58.5180   30.9680   50.9530 N   0  0  0  0  0  0  0  0  0  0  0  0
   59.6410   30.8080   51.6780 C   0  0  0  0  0  0  0  0  0  0  0  0
   60.4470   29.9000   51.0210 C   0  0  0  0  0  0  0  0  0  0  0  0
   61.7870   29.4290   51.4430 C   0  0  0  0  0  0  0  0  0  0  0  0
   61.9650   28.0640   51.7210 C   0  0  0  0  0  0  0  0  0  0  0  0
   63.2320   27.5800   52.0440 C   0  0  0  0  0  0  0  0  0  0  0  0
   64.2970   28.4210   52.0850 N   0  0  0  0  0  0  0  0  0  0  0  0
   64.1600   29.7500   51.8390 C   0  0  0  0  0  0  0  0  0  0  0  0
   62.9020   30.2960   51.5420 C   0  0  0  0  0  0  0  0  0  0  0  0
   62.7890   31.7650   51.3970 C   0  0  0  0  0  0  0  0  0  0  0  0
   62.4850   32.4520   52.4090 O   0  0  0  0  0  0  0  0  0  0  0  0
   62.9690   32.4080   50.1180 N   0  0  0  0  0  0  0  0  0  0  0  0
   63.3060   33.8300   50.0330 C   0  0  0  0  0  0  0  0  0  0  0  0
   62.1770   34.5730   49.3140 C   0  0  0  0  0  0  0  0  0  0  0  0
   61.7130   33.8970   48.0770 N   0  0  0  0  0  0  0  0  0  0  0  0
   59.9740   33.6880   48.0400 S   0  0  0  0  0  0  0  0  0  0  0  0
   59.4790   33.3900   49.4270 O   0  0  0  0  0  0  0  0  0  0  0  0
   59.3310   34.9650   47.5800 O   0  0  0  0  0  0  0  0  0  0  0  0
   59.4740   32.3840   46.9730 C   0  0  0  0  0  0  0  0  0  0  0  0
   58.4520   32.4570   46.0290 C   0  0  0  0  0  0  0  0  0  0  0  0
   58.2930   31.2560   45.3310 C   0  0  0  0  0  0  0  0  0  0  0  0
   57.3500   31.0030   44.3310 C   0  0  0  0  0  0  0  0  0  0  0  0
   57.3110   29.7270   43.7450 C   0  0  0  0  0  0  0  0  0  0  0  0
   58.2120   28.7230   44.1570 C   0  0  0  0  0  0  0  0  0  0  0  0
   58.1420   27.1320   43.4260 Cl  0  0  0  0  0  0  0  0  0  0  0  0
   59.1630   28.9930   45.1560 C   0  0  0  0  0  0  0  0  0  0  0  0
   59.1810   30.2650   45.7210 C   0  0  0  0  0  0  0  0  0  0  0  0
   60.1930   30.8520   46.9240 S   0  0  0  0  0  0  0  0  0  0  0  0
   62.4430   32.6670   47.7000 C   0  0  0  0  0  0  0  0  0  0  0  0
   62.6400   31.6960   48.8770 C   0  0  0  0  0  0  0  0  0  0  0  0
   59.7310   29.5370   49.8910 C   0  0  0  0  0  0  0  0  0  0  0  0
   58.5640   30.2120   49.8680 N   0  0  0  0  0  0  0  0  0  0  0  0
   57.8106   32.7173   53.2048 H   0  0  0  0  0  0  0  0  0  0  0  0
   59.0161   33.1974   51.9627 H   0  0  0  0  0  0  0  0  0  0  0  0
   57.3813   33.9417   51.9627 H   0  0  0  0  0  0  0  0  0  0  0  0
   56.6153   31.3816   51.7309 H   0  0  0  0  0  0  0  0  0  0  0  0
   57.0966   32.3576   50.2952 H   0  0  0  0  0  0  0  0  0  0  0  0
   59.8752   31.3122   52.6272 H   0  0  0  0  0  0  0  0  0  0  0  0
   61.1061   27.3777   51.6840 H   0  0  0  0  0  0  0  0  0  0  0  0
   63.3694   26.5116   52.2667 H   0  0  0  0  0  0  0  0  0  0  0  0
   65.2410   28.0400   52.3190 H   0  0  0  0  0  0  0  0  0  0  0  0
   65.0436   30.4043   51.8730 H   0  0  0  0  0  0  0  0  0  0  0  0
   63.4294   34.2400   51.0462 H   0  0  0  0  0  0  0  0  0  0  0  0
   64.2450   33.9544   49.4737 H   0  0  0  0  0  0  0  0  0  0  0  0
   61.3242   34.6602   50.0032 H   0  0  0  0  0  0  0  0  0  0  0  0
   62.5759   35.5536   49.0150 H   0  0  0  0  0  0  0  0  0  0  0  0
   57.8413   33.3549   45.8533 H   0  0  0  0  0  0  0  0  0  0  0  0
   56.6510   31.7888   44.0087 H   0  0  0  0  0  0  0  0  0  0  0  0
   56.5726   29.5092   42.9593 H   0  0  0  0  0  0  0  0  0  0  0  0
   59.8740   28.2198   45.4826 H   0  0  0  0  0  0  0  0  0  0  0  0
   61.8752   32.1508   46.9119 H   0  0  0  0  0  0  0  0  0  0  0  0
   63.4424   32.9717   47.3561 H   0  0  0  0  0  0  0  0  0  0  0  0
   61.7115   31.1260   49.0283 H   0  0  0  0  0  0  0  0  0  0  0  0
   63.4779   31.0263   48.6330 H   0  0  0  0  0  0  0  0  0  0  0  0
   60.0626   28.8125   49.1326 H   0  0  0  0  0  0  0  0  0  0  0  0
  1  2  1  0
  2  3  1  0
  3  4  1  0
  4  5  2  0
  5  6  1  0
  6  7  2  0
  7  8  1  0
  8  9  2  0
  9 10  1  0
 10 11  2  0
 11 12  1  0
 12 13  2  0
 12 14  1  0
 14 15  1  0
 15 16  1  0
 16 17  1  0
 17 18  1  0
 18 19  2  0
 18 20  2  0
 18 21  1  0
 21 22  2  0
 22 23  1  0
 23 24  2  0
 24 25  1  0
 25 26  2  0
 26 27  1  0
 26 28  1  0
 28 29  2  0
 29 30  1  0
 17 31  1  0
 31 32  1  0
  5 33  1  0
 33 34  2  0
 34  3  1  0
 11  6  1  0
 32 14  1  0
 30 21  1  0
 29 23  1  0
  1 35  1  0
  1 36  1  0
  1 37  1  0
  2 38  1  0
  2 39  1  0
  4 40  1  0
  7 41  1  0
  8 42  1  0
  9 43  1  0
 10 44  1  0
 15 45  1  0
 15 46  1  0
 16 47  1  0
 16 48  1  0
 22 49  1  0
 24 50  1  0
 25 51  1  0
 28 52  1  0
 31 53  1  0
 31 54  1  0
 32 55  1  0
 32 56  1  0
 33 57  1  0
M  CHG  1   9   1
M  END
>  <UniqueID>  (8) 
8

>  <SMILES>  (8) 
CCn1cc(-c2cc[nH+]cc2C(=O)N2CCN(S(=O)(=O)c3cc4ccc(Cl)cc4s3)CC2)cn1

>  <Energy>  (8) 
132.0507901601879

>  <Genealogy>  (8) 
CCn1cc(-c2cc[nH+]cc2C(=O)N2CCN(S(=O)(=O)c3cc4ccc(Cl)cc4s3)CC2)cn1 (protonated)
CCn1cc(-c2cc[nH+]cc2C(=O)N2CCN(S(=O)(=O)c3cc4ccc(Cl)cc4s3)CC2)cn1 (3D coordinates assigned)
CCn1cc(-c2cc[nH+]cc2C(=O)N2CCN(S(=O)(=O)c3cc4ccc(Cl)cc4s3)CC2)cn1 (nonaromatic ring conformer: 132.0507901601879 kcal/mol)

>  <smiles>  (8) 
CCn1cc(-c2ccncc2C(=O)N2CCN(S(=O)(=O)c3cc4ccc(Cl)cc4s3)CC2)cn1

>  <score_type>  (8) 
oracle

>  <origin>  (8) 
adg

>  <m_score__min__energy>  (8) 
-7.2699999999999996

>  <m_primary>  (8) 
energy

$$$$
8:0
     RDKit          3D

 32 34  0  0  1  0  0  0  0  0999 V2000
   57.0290   30.8010   43.1910 C   0  0  0  0  0  0  0  0  0  0  0  0
   56.6170   31.1740   44.4890 O   0  0  0  0  0  0  0  0  0  0  0  0
   57.3940   32.0430   45.2460 C   0  0  0  0  0  0  0  0  0  0  0  0
   57.4000   33.4110   45.0550 C   0  0  0  0  0  0  0  0  0  0  0  0
   58.1970   34.2490   45.8380 C   0  0  0  0  0  0  0  0  0  0  0  0
   58.9980   33.6620   46.8340 C   0  0  0  0  0  0  0  0  0  0  0  0
   59.8380   34.4180   47.6010 N   0  0  0  0  0  0  0  0  0  0  0  0
   60.7970   34.0670   48.3380 C   0  0  0  0  0  0  0  0  0  0  0  0
   60.5650   33.9670   49.7020 C   0  0  0  0  0  0  0  0  0  0  0  0
   61.5720   33.5860   50.5880 C   0  0  0  0  0  0  0  0  0  0  0  0
   61.3420   33.4750   52.0510 C   0  0  0  0  0  0  0  0  0  0  0  0
   62.7700   33.3280   50.0140 N   0  0  0  0  0  0  0  0  0  0  0  0
   62.9580   33.4350   48.6930 C   0  0  0  0  0  0  0  0  0  0  0  0
   64.0770   33.2140   47.9840 N   0  0  0  0  0  0  0  0  0  0  0  0
   63.7710   33.4510   46.7050 C   0  0  0  0  0  0  0  0  0  0  0  0
   62.4530   33.8230   46.5970 N   0  0  0  0  0  0  0  0  0  0  0  0
   61.9860   33.8040   47.8240 N   0  0  0  0  0  0  0  0  0  0  0  0
   58.9790   32.2690   47.0160 C   0  0  0  0  0  0  0  0  0  0  0  0
   58.1850   31.4540   46.2320 C   0  0  0  0  0  0  0  0  0  0  0  0
   57.8427   30.0643   43.2621 H   0  0  0  0  0  0  0  0  0  0  0  0
   56.1798   30.3583   42.6498 H   0  0  0  0  0  0  0  0  0  0  0  0
   57.3854   31.6899   42.6498 H   0  0  0  0  0  0  0  0  0  0  0  0
   56.7647   33.8489   44.2710 H   0  0  0  0  0  0  0  0  0  0  0  0
   58.1982   35.3376   45.6802 H   0  0  0  0  0  0  0  0  0  0  0  0
   59.5626   34.1937   50.0940 H   0  0  0  0  0  0  0  0  0  0  0  0
   62.2053   33.8916   52.5905 H   0  0  0  0  0  0  0  0  0  0  0  0
   60.4348   34.0344   52.3230 H   0  0  0  0  0  0  0  0  0  0  0  0
   61.2155   32.4167   52.3230 H   0  0  0  0  0  0  0  0  0  0  0  0
   64.4719   33.3613   45.8620 H   0  0  0  0  0  0  0  0  0  0  0  0
   62.0730   34.0370   45.6810 H   0  0  0  0  0  0  0  0  0  0  0  0
   59.6083   31.8185   47.7977 H   0  0  0  0  0  0  0  0  0  0  0  0
   58.1770   30.3644   46.3823 H   0  0  0  0  0  0  0  0  0  0  0  0
  1  2  1  0
  2  3  1  0
  3  4  2  0
  4  5  1  0
  5  6  2  0
  6  7  1  0
  7  8  2  0
  8  9  1  0
  9 10  2  0
 10 11  1  0
 10 12  1  0
 12 13  2  0
 13 14  1  0
 14 15  2  0
 15 16  1  0
 16 17  1  0
  6 18  1  0
 18 19  2  0
 19  3  1  0
 17  8  1  0
 17 13  1  0
  1 20  1  0
  1 21  1  0
  1 22  1  0
  4 23  1  0
  5 24  1  0
  9 25  1  0
 11 26  1  0
 11 27  1  0
 11 28  1  0
 15 29  1  0
 16 30  1  0
 18 31  1  0
 19 32  1  0
M  END
>  <smiles>  (9) 
COc1ccc(N=c2cc(C)nc3nc[nH]n23)cc1

>  <score_type>  (9) 
oracle

>  <origin>  (9) 
adg

>  <m_score__min__energy>  (9) 
-7.0800000000000001

>  <m_primary>  (9) 
energy

$$$$
9:0
     RDKit          3D

 44 46  0  0  0  0  0  0  0  0999 V2000
   56.9880   32.6012   44.6422 H   0  0  0  0  0  0  0  0  0  0  0  0
   56.9870   31.5380   44.3600 C   0  0  0  0  0  0  0  0  0  0  0  0
   57.2750   30.5880   45.2900 N   0  0  0  0  0  0  0  0  0  0  0  0
   57.2750   29.2610   44.9830 C   0  0  0  0  0  0  0  0  0  0  0  0
   57.6460   28.2570   46.0330 C   0  0  0  0  0  0  0  0  0  0  0  0
   56.7311   27.8496   46.4880 H   0  0  0  0  0  0  0  0  0  0  0  0
   58.2572   28.7479   46.8047 H   0  0  0  0  0  0  0  0  0  0  0  0
   58.4130   27.1700   45.4300 N   0  0  0  0  0  0  0  0  0  0  0  0
   59.0360   27.4230   44.6310 H   0  0  0  0  0  0  0  0  0  0  0  0
   57.9430   25.8150   45.4800 C   0  0  0  0  0  0  0  0  0  0  0  0
   57.4520   25.2270   44.2630 N   0  0  0  0  0  0  0  0  0  0  0  0
   57.1170   25.8800   43.5200 H   0  0  0  0  0  0  0  0  0  0  0  0
   57.3800   23.8150   43.9960 C   0  0  0  0  0  0  0  0  0  0  0  0
   56.3690   23.3270   43.1540 C   0  0  0  0  0  0  0  0  0  0  0  0
   55.6312   24.0211   42.7253 H   0  0  0  0  0  0  0  0  0  0  0  0
   56.2950   21.9610   42.8570 C   0  0  0  0  0  0  0  0  0  0  0  0
   55.4933   21.5832   42.2054 H   0  0  0  0  0  0  0  0  0  0  0  0
   57.2380   21.0770   43.3870 C   0  0  0  0  0  0  0  0  0  0  0  0
   57.1752   20.0031   43.1573 H   0  0  0  0  0  0  0  0  0  0  0  0
   58.2610   21.5570   44.2090 C   0  0  0  0  0  0  0  0  0  0  0  0
   59.0059   20.8610   44.6222 H   0  0  0  0  0  0  0  0  0  0  0  0
   58.3390   22.9210   44.5070 C   0  0  0  0  0  0  0  0  0  0  0  0
   59.1536   23.2967   45.1436 H   0  0  0  0  0  0  0  0  0  0  0  0
   57.8500   25.1710   46.6170 N   0  0  0  0  0  0  0  0  0  0  0  0
   58.4950   25.4270   47.3970 H   0  0  0  0  0  0  0  0  0  0  0  0
   56.9720   24.0580   46.8670 C   0  0  0  0  0  0  0  0  0  0  0  0
   57.3740   23.1300   47.6210 O   0  0  0  0  0  0  0  0  0  0  0  0
   55.6060   23.9720   46.2950 C   0  0  0  0  0  0  0  0  0  0  0  0
   55.0070   22.7100   46.1310 C   0  0  0  0  0  0  0  0  0  0  0  0
   55.5487   21.8040   46.4404 H   0  0  0  0  0  0  0  0  0  0  0  0
   53.7290   22.5990   45.5780 C   0  0  0  0  0  0  0  0  0  0  0  0
   53.2728   21.6071   45.4441 H   0  0  0  0  0  0  0  0  0  0  0  0
   53.0300   23.7450   45.1950 C   0  0  0  0  0  0  0  0  0  0  0  0
   52.0263   23.6554   44.7538 H   0  0  0  0  0  0  0  0  0  0  0  0
   53.6050   25.0050   45.3720 C   0  0  0  0  0  0  0  0  0  0  0  0
   53.0505   25.9067   45.0729 H   0  0  0  0  0  0  0  0  0  0  0  0
   54.8830   25.1260   45.9280 C   0  0  0  0  0  0  0  0  0  0  0  0
   55.4140   26.3950   46.1290 O   0  0  0  0  0  0  0  0  0  0  0  0
   56.9930   28.8510   43.6720 C   0  0  0  0  0  0  0  0  0  0  0  0
   57.0056   27.7829   43.4093 H   0  0  0  0  0  0  0  0  0  0  0  0
   56.6960   29.8120   42.7030 C   0  0  0  0  0  0  0  0  0  0  0  0
   56.4675   29.5038   41.6721 H   0  0  0  0  0  0  0  0  0  0  0  0
   56.6900   31.1650   43.0470 C   0  0  0  0  0  0  0  0  0  0  0  0
   56.4539   31.9294   42.2920 H   0  0  0  0  0  0  0  0  0  0  0  0
  1  2  1  0
  2  3  2  0
  3  4  1  0
  4  5  1  0
  5  6  1  0
  5  7  1  0
  5  8  1  0
  8  9  1  0
  8 10  1  0
 10 11  1  0
 11 12  1  0
 11 13  1  0
 13 14  2  0
 14 15  1  0
 14 16  1  0
 16 17  1  0
 16 18  2  0
 18 19  1  0
 18 20  1  0
 20 21  1  0
 20 22  2  0
 22 23  1  0
 10 24  2  0
 24 25  1  0
 24 26  1  0
 26 27  2  0
 26 28  1  0
 28 29  2  0
 29 30  1  0
 29 31  1  0
 31 32  1  0
 31 33  2  0
 33 34  1  0
 33 35  1  0
 35 36  1  0
 35 37  2  0
 37 38  1  0
  4 39  2  0
 39 40  1  0
 39 41  1  0
 41 42  1  0
 41 43  2  0
 43 44  1  0
 43  2  1  0
 22 13  1  0
 37 28  1  0
M  CHG  2  24   1  38  -1
M  END
>  <UniqueID>  (10) 
9

>  <SMILES>  (10) 
O=C(/[NH+]=C(\NCc1ccccn1)Nc1ccccc1)c1ccccc1[O-]

>  <Energy>  (10) 
62.05249882105517

>  <Genealogy>  (10) 
O=C([NH+]=C(NCc1ccccn1)Nc1ccccc1)c1ccccc1[O-] (protonated)
O=C(/[NH+]=C(\NCc1ccccn1)Nc1ccccc1)c1ccccc1[O-] (cis-trans isomerization)
O=C(/[NH+]=C(\NCc1ccccn1)Nc1ccccc1)c1ccccc1[O-] (3D coordinates assigned)
O=C(/[NH+]=C(\NCc1ccccn1)Nc1ccccc1)c1ccccc1[O-] (optimized conformer: 62.05249882105517 kcal/mol)

>  <smiles>  (10) 
O=C(N=C(NCc1ccccn1)Nc1ccccc1)c1ccccc1O

>  <score_type>  (10) 
oracle

>  <origin>  (10) 
adg

>  <m_score__min__energy>  (10) 
-9.6300000000000008

>  <m_primary>  (10) 
energy

$$$$
10:0
     RDKit          3D

 48 51  0  0  0  0  0  0  0  0999 V2000
   56.2100   25.3840   45.9550 C   0  0  0  0  0  0  0  0  0  0  0  0
   57.1980   26.1640   45.2920 O   0  0  0  0  0  0  0  0  0  0  0  0
   58.0690   27.0590   45.9340 C   0  0  0  0  0  0  0  0  0  0  0  0
   58.6630   26.7650   47.1750 C   0  0  0  0  0  0  0  0  0  0  0  0
   59.5240   27.6810   47.7830 C   0  0  0  0  0  0  0  0  0  0  0  0
   59.8170   28.9090   47.1620 C   0  0  0  0  0  0  0  0  0  0  0  0
   60.7190   29.9030   47.7980 C   0  0  0  0  0  0  0  0  0  0  0  0
   61.0940   29.8100   49.1510 C   0  0  0  0  0  0  0  0  0  0  0  0
   61.9260   30.7410   49.6910 N   0  0  0  0  0  0  0  0  0  0  0  0
   62.4130   31.7680   48.9400 C   0  0  0  0  0  0  0  0  0  0  0  0
   63.2730   32.7290   49.4950 C   0  0  0  0  0  0  0  0  0  0  0  0
   63.7630   33.7700   48.6990 C   0  0  0  0  0  0  0  0  0  0  0  0
   63.3990   33.8570   47.3520 C   0  0  0  0  0  0  0  0  0  0  0  0
   62.5440   32.9030   46.7910 C   0  0  0  0  0  0  0  0  0  0  0  0
   62.0500   31.8590   47.5820 C   0  0  0  0  0  0  0  0  0  0  0  0
   61.2180   30.9260   47.0520 N   0  0  0  0  0  0  0  0  0  0  0  0
   59.2100   29.2050   45.9280 C   0  0  0  0  0  0  0  0  0  0  0  0
   58.3440   28.2890   45.3200 C   0  0  0  0  0  0  0  0  0  0  0  0
   57.7220   28.6290   44.0810 N   0  0  0  0  0  0  0  0  0  0  0  0
   56.5830   29.9280   43.9960 S   0  0  0  0  0  0  0  0  0  0  0  0
   56.0380   30.0330   42.6000 O   0  0  0  0  0  0  0  0  0  0  0  0
   55.4460   29.6490   44.9380 O   0  0  0  0  0  0  0  0  0  0  0  0
   57.3690   31.4370   44.4530 C   0  0  0  0  0  0  0  0  0  0  0  0
   57.5710   31.7520   45.8030 C   0  0  0  0  0  0  0  0  0  0  0  0
   58.2540   32.9180   46.1580 C   0  0  0  0  0  0  0  0  0  0  0  0
   58.7580   33.7730   45.1660 C   0  0  0  0  0  0  0  0  0  0  0  0
   59.4690   35.0380   45.5480 C   0  0  0  0  0  0  0  0  0  0  0  0
   58.5400   33.4650   43.8150 C   0  0  0  0  0  0  0  0  0  0  0  0
   57.8550   32.2990   43.4600 C   0  0  0  0  0  0  0  0  0  0  0  0
   56.3347   25.4825   47.0435 H   0  0  0  0  0  0  0  0  0  0  0  0
   55.2092   25.7382   45.6671 H   0  0  0  0  0  0  0  0  0  0  0  0
   56.3222   24.3283   45.6671 H   0  0  0  0  0  0  0  0  0  0  0  0
   58.4476   25.8066   47.6700 H   0  0  0  0  0  0  0  0  0  0  0  0
   59.9771   27.4403   48.7560 H   0  0  0  0  0  0  0  0  0  0  0  0
   60.7146   28.9849   49.7717 H   0  0  0  0  0  0  0  0  0  0  0  0
   62.1930   30.6510   50.6980 H   0  0  0  0  0  0  0  0  0  0  0  0
   63.5612   32.6635   50.5545 H   0  0  0  0  0  0  0  0  0  0  0  0
   64.4369   34.5225   49.1344 H   0  0  0  0  0  0  0  0  0  0  0  0
   63.7863   34.6785   46.7314 H   0  0  0  0  0  0  0  0  0  0  0  0
   62.2603   32.9728   45.7305 H   0  0  0  0  0  0  0  0  0  0  0  0
   59.4182   30.1665   45.4358 H   0  0  0  0  0  0  0  0  0  0  0  0
   57.1907   31.0793   46.5859 H   0  0  0  0  0  0  0  0  0  0  0  0
   58.3973   33.1669   47.2199 H   0  0  0  0  0  0  0  0  0  0  0  0
   59.5134   35.1169   46.6443 H   0  0  0  0  0  0  0  0  0  0  0  0
   60.4904   35.0221   45.1399 H   0  0  0  0  0  0  0  0  0  0  0  0
   58.9245   35.9022   45.1399 H   0  0  0  0  0  0  0  0  0  0  0  0
   58.9094   34.1434   43.0319 H   0  0  0  0  0  0  0  0  0  0  0  0
   57.6970   32.0573   42.3986 H   0  0  0  0  0  0  0  0  0  0  0  0
  1  2  1  0
  2  3  1  0
  3  4  2  0
  4  5  1  0
  5  6  2  0
  6  7  1  0
  7  8  2  0
  8  9  1  0
  9 10  2  0
 10 11  1  0
 11 12  2  0
 12 13  1  0
 13 14  2  0
 14 15  1  0
 15 16  2  0
  6 17  1  0
 17 18  2  0
 18 19  1  0
 19 20  1  0
 20 21  2  0
 20 22  2  0
 20 23  1  0
 23 24  2  0
 24 25  1  0
 25 26  2  0
 26 27  1  0
 26 28  1  0
 28 29  2  0
 18  3  1  0
 29 23  1  0
 16  7  1  0
 15 10  1  0
  1 30  1  0
  1 31  1  0
  1 32  1  0
  4 33  1  0
  5 34  1  0
  8 35  1  0
  9 36  1  0
 11 37  1  0
 12 38  1  0
 13 39  1  0
 14 40  1  0
 17 41  1  0
 24 42  1  0
 25 43  1  0
 27 44  1  0
 27 45  1  0
 27 46  1  0
 28 47  1  0
 29 48  1  0
M  CHG  2   9   1  19  -1
M  END
>  <UniqueID>  (11) 
10

>  <SMILES>  (11) 
COc1ccc(-c2c[nH+]c3ccccc3n2)cc1[N-]S(=O)(=O)c1ccc(C)cc1

>  <Energy>  (11) 
66.48551972459364

>  <Genealogy>  (11) 
COc1ccc(-c2c[nH+]c3ccccc3n2)cc1[N-]S(=O)(=O)c1ccc(C)cc1 (protonated)
COc1ccc(-c2c[nH+]c3ccccc3n2)cc1[N-]S(=O)(=O)c1ccc(C)cc1 (3D coordinates assigned)
COc1ccc(-c2c[nH+]c3ccccc3n2)cc1[N-]S(=O)(=O)c1ccc(C)cc1 (optimized conformer: 66.48551972459364 kcal/mol)

>  <smiles>  (11) 
COc1ccc(-c2cnc3ccccc3n2)cc1NS(=O)(=O)c1ccc(C)cc1

>  <score_type>  (11) 
oracle

>  <origin>  (11) 
adg

>  <m_score__min__energy>  (11) 
-9.3499999999999996

>  <m_primary>  (11) 
energy

$$$$
11:0
     RDKit          3D

 46 48  0  0  0  0  0  0  0  0999 V2000
   55.2739   28.8214   44.0527 H   0  0  0  0  0  0  0  0  0  0  0  0
   56.0490   29.4480   44.5180 C   0  0  0  0  0  0  0  0  0  0  0  0
   56.0600   30.7870   44.2990 N   0  0  0  0  0  0  0  0  0  0  0  0
   57.0110   31.5820   44.8630 C   0  0  0  0  0  0  0  0  0  0  0  0
   57.0280   32.8640   44.6470 N   0  0  0  0  0  0  0  0  0  0  0  0
   57.0900   33.8860   45.6910 C   0  0  0  0  0  0  0  0  0  0  0  0
   56.2913   33.7024   46.4247 H   0  0  0  0  0  0  0  0  0  0  0  0
   56.9605   34.8751   45.2275 H   0  0  0  0  0  0  0  0  0  0  0  0
   58.4240   33.8480   46.3910 C   0  0  0  0  0  0  0  0  0  0  0  0
   59.5850   34.2390   45.7090 C   0  0  0  0  0  0  0  0  0  0  0  0
   59.5219   34.5580   44.6582 H   0  0  0  0  0  0  0  0  0  0  0  0
   60.8220   34.2250   46.3590 C   0  0  0  0  0  0  0  0  0  0  0  0
   61.7273   34.5307   45.8140 H   0  0  0  0  0  0  0  0  0  0  0  0
   60.9200   33.8260   47.6960 C   0  0  0  0  0  0  0  0  0  0  0  0
   62.1840   33.8310   48.3040 O   0  0  0  0  0  0  0  0  0  0  0  0
   63.3410   33.2040   47.7600 C   0  0  0  0  0  0  0  0  0  0  0  0
   63.9873   32.8538   48.5784 H   0  0  0  0  0  0  0  0  0  0  0  0
   63.0368   32.3473   47.1407 H   0  0  0  0  0  0  0  0  0  0  0  0
   63.8927   33.9266   47.1407 H   0  0  0  0  0  0  0  0  0  0  0  0
   59.7530   33.4360   48.3830 C   0  0  0  0  0  0  0  0  0  0  0  0
   59.8160   33.1202   49.4348 H   0  0  0  0  0  0  0  0  0  0  0  0
   58.5160   33.4490   47.7330 C   0  0  0  0  0  0  0  0  0  0  0  0
   57.6093   33.1447   48.2765 H   0  0  0  0  0  0  0  0  0  0  0  0
   57.9610   31.0300   45.6620 N   0  0  0  0  0  0  0  0  0  0  0  0
   57.9840   29.6930   45.9240 C   0  0  0  0  0  0  0  0  0  0  0  0
   59.0260   29.1490   46.7580 N   0  0  0  0  0  0  0  0  0  0  0  0
   60.2220   29.9320   47.1010 C   0  0  0  0  0  0  0  0  0  0  0  0
   61.0892   29.5198   46.5644 H   0  0  0  0  0  0  0  0  0  0  0  0
   60.0539   30.9792   46.8091 H   0  0  0  0  0  0  0  0  0  0  0  0
   60.4930   29.8790   48.6130 C   0  0  0  0  0  0  0  0  0  0  0  0
   61.5674   30.0450   48.7804 H   0  0  0  0  0  0  0  0  0  0  0  0
   59.8732   30.6581   49.0808 H   0  0  0  0  0  0  0  0  0  0  0  0
   60.0970   28.5270   49.2650 C   0  0  0  0  0  0  0  0  0  0  0  0
   59.0960   28.6587   49.7017 H   0  0  0  0  0  0  0  0  0  0  0  0
   61.0680   28.1510   50.3900 C   0  0  0  0  0  0  0  0  0  0  0  0
   60.5905   28.3359   51.3636 H   0  0  0  0  0  0  0  0  0  0  0  0
   61.3308   27.0861   50.3069 H   0  0  0  0  0  0  0  0  0  0  0  0
   61.9795   28.7612   50.3069 H   0  0  0  0  0  0  0  0  0  0  0  0
   60.0060   27.3950   48.2240 C   0  0  0  0  0  0  0  0  0  0  0  0
   60.9844   27.2690   47.7373 H   0  0  0  0  0  0  0  0  0  0  0  0
   59.7168   26.4626   48.7310 H   0  0  0  0  0  0  0  0  0  0  0  0
   58.9510   27.7370   47.1620 C   0  0  0  0  0  0  0  0  0  0  0  0
   59.1164   27.1037   46.2779 H   0  0  0  0  0  0  0  0  0  0  0  0
   57.9562   27.5559   47.5951 H   0  0  0  0  0  0  0  0  0  0  0  0
   57.0190   28.8660   45.3320 C   0  0  0  0  0  0  0  0  0  0  0  0
   57.0273   27.7800   45.5065 H   0  0  0  0  0  0  0  0  0  0  0  0
  1  2  1  0
  2  3  1  0
  3  4  1  0
  4  5  2  0
  5  6  1  0
  6  7  1  0
  6  8  1  0
  6  9  1  0
  9 10  2  0
 10 11  1  0
 10 12  1  0
 12 13  1  0
 12 14  2  0
 14 15  1  0
 15 16  1  0
 16 17  1  0
 16 18  1  0
 16 19  1  0
 14 20  1  0
 20 21  1  0
 20 22  2  0
 22 23  1  0
  4 24  1  0
 24 25  2  0
 25 26  1  0
 26 27  1  0
 27 28  1  0
 27 29  1  0
 27 30  1  0
 30 31  1  0
 30 32  1  0
 30 33  1  0
 33 34  1  0
 33 35  1  0
 35 36  1  0
 35 37  1  0
 35 38  1  0
 33 39  1  0
 39 40  1  0
 39 41  1  0
 39 42  1  0
 42 43  1  0
 42 44  1  0
 25 45  1  0
 45 46  1  0
 45  2  2  0
 22  9  1  0
 42 26  1  0
M  CHG  1   3  -1
M  END
>  <UniqueID>  (12) 
11

>  <SMILES>  (12) 
COc1ccc(C/N=c2/nc(N3CCC(C)CC3)cc[n-]2)cc1

>  <Energy>  (12) 
49.298885981874335

>  <Genealogy>  (12) 
COc1ccc(CN=c2nc(N3CCC(C)CC3)cc[n-]2)cc1 (protonated)
COc1ccc(C/N=c2/nc(N3CCC(C)CC3)cc[n-]2)cc1 (cis-trans isomerization)
COc1ccc(C/N=c2/nc(N3CCC(C)CC3)cc[n-]2)cc1 (3D coordinates assigned)
COc1ccc(C/N=c2/nc(N3CCC(C)CC3)cc[n-]2)cc1 (nonaromatic ring conformer: 49.298885981874335 kcal/mol)

>  <smiles>  (12) 
COc1ccc(CN=c2nc(N3CCC(C)CC3)cc[nH]2)cc1

>  <score_type>  (12) 
oracle

>  <origin>  (12) 
adg

>  <m_score__min__energy>  (12) 
-9.6699999999999999

>  <m_primary>  (12) 
energy

$$$$
12:0
     RDKit          3D

 41 43  0  0  0  0  0  0  0  0999 V2000
   60.0950   28.9660   49.4790 O   0  0  0  0  0  0  0  0  0  0  0  0
   59.3270   29.8890   49.0930 C   0  0  0  0  0  0  0  0  0  0  0  0
   58.8470   29.8990   47.7390 N   0  0  0  0  0  0  0  0  0  0  0  0
   59.1620   28.8400   46.7800 C   0  0  0  0  0  0  0  0  0  0  0  0
   57.8830   28.1920   46.2440 C   0  0  0  0  0  0  0  0  0  0  0  0
   57.0220   29.1870   45.5310 C   0  0  0  0  0  0  0  0  0  0  0  0
   55.8850   28.8660   44.8860 N   0  0  0  0  0  0  0  0  0  0  0  0
   55.5130   30.0530   44.3720 C   0  0  0  0  0  0  0  0  0  0  0  0
   56.3780   31.0370   44.6770 N   0  0  0  0  0  0  0  0  0  0  0  0
   57.3350   30.4890   45.4060 N   0  0  0  0  0  0  0  0  0  0  0  0
   58.9330   30.9650   50.0350 C   0  0  0  0  0  0  0  0  0  0  0  0
   57.8330   30.7520   50.8860 C   0  0  0  0  0  0  0  0  0  0  0  0
   57.4410   31.7290   51.8030 C   0  0  0  0  0  0  0  0  0  0  0  0
   58.1470   32.9280   51.8920 C   0  0  0  0  0  0  0  0  0  0  0  0
   59.2430   33.1550   51.0600 C   0  0  0  0  0  0  0  0  0  0  0  0
   59.6340   32.1940   50.1160 C   0  0  0  0  0  0  0  0  0  0  0  0
   61.0830   32.5500   49.1030 S   0  0  0  0  0  0  0  0  0  0  0  0
   60.5260   34.2140   48.5860 C   0  0  0  0  0  0  0  0  0  0  0  0
   59.6080   34.1270   47.3980 C   0  0  0  0  0  0  0  0  0  0  0  0
   58.3630   33.4860   47.5150 C   0  0  0  0  0  0  0  0  0  0  0  0
   57.5200   33.3790   46.4040 C   0  0  0  0  0  0  0  0  0  0  0  0
   57.9140   33.9070   45.1710 C   0  0  0  0  0  0  0  0  0  0  0  0
   57.0960   33.7990   44.0950 F   0  0  0  0  0  0  0  0  0  0  0  0
   59.1520   34.5450   45.0470 C   0  0  0  0  0  0  0  0  0  0  0  0
   59.9970   34.6560   46.1560 C   0  0  0  0  0  0  0  0  0  0  0  0
   58.1250   30.6020   47.4600 H   0  0  0  0  0  0  0  0  0  0  0  0
   59.7270   29.2707   45.9402 H   0  0  0  0  0  0  0  0  0  0  0  0
   59.7597   28.0700   47.2897 H   0  0  0  0  0  0  0  0  0  0  0  0
   58.1556   27.3885   45.5440 H   0  0  0  0  0  0  0  0  0  0  0  0
   57.3149   27.7920   47.0968 H   0  0  0  0  0  0  0  0  0  0  0  0
   54.6042   30.2017   43.7704 H   0  0  0  0  0  0  0  0  0  0  0  0
   57.2758   29.8053   50.8282 H   0  0  0  0  0  0  0  0  0  0  0  0
   56.5738   31.5526   52.4563 H   0  0  0  0  0  0  0  0  0  0  0  0
   57.8396   33.6948   52.6183 H   0  0  0  0  0  0  0  0  0  0  0  0
   59.8060   34.0962   51.1448 H   0  0  0  0  0  0  0  0  0  0  0  0
   59.9908   34.6902   49.4207 H   0  0  0  0  0  0  0  0  0  0  0  0
   61.4079   34.8089   48.3061 H   0  0  0  0  0  0  0  0  0  0  0  0
   58.0505   33.0672   48.4830 H   0  0  0  0  0  0  0  0  0  0  0  0
   56.5452   32.8785   46.5006 H   0  0  0  0  0  0  0  0  0  0  0  0
   59.4616   34.9600   44.0765 H   0  0  0  0  0  0  0  0  0  0  0  0
   60.9699   35.1594   46.0554 H   0  0  0  0  0  0  0  0  0  0  0  0
  1  2  2  0
  2  3  1  0
  3  4  1  0
  4  5  1  0
  5  6  1  0
  6  7  1  0
  7  8  2  0
  8  9  1  0
  9 10  1  0
  2 11  1  0
 11 12  2  0
 12 13  1  0
 13 14  2  0
 14 15  1  0
 15 16  2  0
 16 17  1  0
 17 18  1  0
 18 19  1  0
 19 20  2  0
 20 21  1  0
 21 22  2  0
 22 23  1  0
 22 24  1  0
 24 25  2  0
 10  6  2  0
 16 11  1  0
 25 19  1  0
  3 26  1  0
  4 27  1  0
  4 28  1  0
  5 29  1  0
  5 30  1  0
  8 31  1  0
 12 32  1  0
 13 33  1  0
 14 34  1  0
 15 35  1  0
 18 36  1  0
 18 37  1  0
 20 38  1  0
 21 39  1  0
 24 40  1  0
 25 41  1  0
M  CHG  1   9  -1
M  END
>  <UniqueID>  (13) 
12

>  <SMILES>  (13) 
O=C(NCCc1nc[n-]n1)c1ccccc1SCc1ccc(F)cc1

>  <Energy>  (13) 
69.45671719277571

>  <Genealogy>  (13) 
O=C(NCCc1nc[n-]n1)c1ccccc1SCc1ccc(F)cc1 (protonated)
O=C(NCCc1nc[n-]n1)c1ccccc1SCc1ccc(F)cc1 (3D coordinates assigned)
O=C(NCCc1nc[n-]n1)c1ccccc1SCc1ccc(F)cc1 (optimized conformer: 69.45671719277571 kcal/mol)

>  <smiles>  (13) 
O=C(NCCc1nc[nH]n1)c1ccccc1SCc1ccc(F)cc1

>  <score_type>  (13) 
oracle

>  <origin>  (13) 
adg

>  <m_score__min__energy>  (13) 
-10.66

>  <m_primary>  (13) 
energy

$$$$
13:0
     RDKit          3D

 46 50  0  0  0  0  0  0  0  0999 V2000
   59.4140   35.0380   47.0480 O   0  0  0  0  0  0  0  0  0  0  0  0
   58.7170   34.1910   46.1970 C   0  0  0  0  0  0  0  0  0  0  0  0
   57.9320   34.5900   45.1260 C   0  0  0  0  0  0  0  0  0  0  0  0
   57.4700   33.4260   44.5250 C   0  0  0  0  0  0  0  0  0  0  0  0
   57.9530   32.3670   45.2020 N   0  0  0  0  0  0  0  0  0  0  0  0
   57.7800   31.0760   44.9280 N   0  0  0  0  0  0  0  0  0  0  0  0
   58.3980   30.1430   45.7180 C   0  0  0  0  0  0  0  0  0  0  0  0
   58.2560   28.6890   45.4580 C   0  0  0  0  0  0  0  0  0  0  0  0
   58.2630   28.2030   44.1390 C   0  0  0  0  0  0  0  0  0  0  0  0
   58.1220   26.8370   43.8910 C   0  0  0  0  0  0  0  0  0  0  0  0
   57.9660   25.9600   44.9640 C   0  0  0  0  0  0  0  0  0  0  0  0
   57.9440   26.4390   46.2340 N   0  0  0  0  0  0  0  0  0  0  0  0
   58.0830   27.7650   46.5050 C   0  0  0  0  0  0  0  0  0  0  0  0
   59.1500   30.5640   46.7800 N   0  0  0  0  0  0  0  0  0  0  0  0
   59.3160   31.8850   47.0680 C   0  0  0  0  0  0  0  0  0  0  0  0
   60.1000   32.2770   48.2100 N   0  0  0  0  0  0  0  0  0  0  0  0
   61.4850   32.6620   48.0490 C   0  0  0  0  0  0  0  0  0  0  0  0
   62.4530   32.2830   49.0000 C   0  0  0  0  0  0  0  0  0  0  0  0
   63.7870   32.6680   48.8430 C   0  0  0  0  0  0  0  0  0  0  0  0
   64.1720   33.4320   47.7400 C   0  0  0  0  0  0  0  0  0  0  0  0
   63.2210   33.8160   46.7900 C   0  0  0  0  0  0  0  0  0  0  0  0
   61.8850   33.4340   46.9430 C   0  0  0  0  0  0  0  0  0  0  0  0
   59.4320   32.4440   49.4790 C   0  0  0  0  0  0  0  0  0  0  0  0
   58.5170   31.4820   49.9420 C   0  0  0  0  0  0  0  0  0  0  0  0
   57.8830   31.6460   51.1770 C   0  0  0  0  0  0  0  0  0  0  0  0
   58.1590   32.7670   51.9630 C   0  0  0  0  0  0  0  0  0  0  0  0
   59.0710   33.7260   51.5150 C   0  0  0  0  0  0  0  0  0  0  0  0
   59.7080   33.5660   50.2800 C   0  0  0  0  0  0  0  0  0  0  0  0
   58.6970   32.8090   46.2240 C   0  0  0  0  0  0  0  0  0  0  0  0
   57.7177   35.6229   44.8142 H   0  0  0  0  0  0  0  0  0  0  0  0
   56.8169   33.3774   43.6412 H   0  0  0  0  0  0  0  0  0  0  0  0
   57.1670   30.7960   44.1300 H   0  0  0  0  0  0  0  0  0  0  0  0
   58.3802   28.9027   43.2984 H   0  0  0  0  0  0  0  0  0  0  0  0
   58.1338   26.4557   42.8593 H   0  0  0  0  0  0  0  0  0  0  0  0
   57.8608   24.8804   44.7813 H   0  0  0  0  0  0  0  0  0  0  0  0
   58.0600   28.1163   47.5472 H   0  0  0  0  0  0  0  0  0  0  0  0
   62.1568   31.6804   49.8713 H   0  0  0  0  0  0  0  0  0  0  0  0
   64.5360   32.3682   49.5908 H   0  0  0  0  0  0  0  0  0  0  0  0
   65.2233   33.7318   47.6184 H   0  0  0  0  0  0  0  0  0  0  0  0
   63.5242   34.4192   45.9215 H   0  0  0  0  0  0  0  0  0  0  0  0
   61.1407   33.7394   46.1928 H   0  0  0  0  0  0  0  0  0  0  0  0
   58.2988   30.5952   49.3288 H   0  0  0  0  0  0  0  0  0  0  0  0
   57.1655   30.8908   51.5304 H   0  0  0  0  0  0  0  0  0  0  0  0
   57.6586   32.8948   52.9342 H   0  0  0  0  0  0  0  0  0  0  0  0
   59.2885   34.6085   52.1346 H   0  0  0  0  0  0  0  0  0  0  0  0
   60.4284   34.3217   49.9338 H   0  0  0  0  0  0  0  0  0  0  0  0
  1  2  1  0
  2  3  1  0
  3  4  2  0
  4  5  1  0
  5  6  1  0
  6  7  2  0
  7  8  1  0
  8  9  2  0
  9 10  1  0
 10 11  2  0
 11 12  1  0
 12 13  2  0
  7 14  1  0
 14 15  2  0
 15 16  1  0
 16 17  1  0
 17 18  2  0
 18 19  1  0
 19 20  2  0
 20 21  1  0
 21 22  2  0
 16 23  1  0
 23 24  2  0
 24 25  1  0
 25 26  2  0
 26 27  1  0
 27 28  2  0
 15 29  1  0
 29  2  2  0
 29  5  1  0
 13  8  1  0
 22 17  1  0
 28 23  1  0
  3 30  1  0
  4 31  1  0
  6 32  1  0
  9 33  1  0
 10 34  1  0
 11 35  1  0
 13 36  1  0
 18 37  1  0
 19 38  1  0
 20 39  1  0
 21 40  1  0
 22 41  1  0
 24 42  1  0
 25 43  1  0
 26 44  1  0
 27 45  1  0
 28 46  1  0
M  CHG  2   1  -1   6   1
M  END
>  <UniqueID>  (14) 
13

>  <SMILES>  (14) 
[O-]c1ccn2[nH+]c(-c3cccnc3)nc(N(c3ccccc3)c3ccccc3)c12

>  <Energy>  (14) 
105.42005097574469

>  <Genealogy>  (14) 
[O-]c1ccn2[nH+]c(-c3cccnc3)nc(N(c3ccccc3)c3ccccc3)c12 (protonated)
[O-]c1ccn2[nH+]c(-c3cccnc3)nc(N(c3ccccc3)c3ccccc3)c12 (3D coordinates assigned)
[O-]c1ccn2[nH+]c(-c3cccnc3)nc(N(c3ccccc3)c3ccccc3)c12 (optimized conformer: 105.42005097574469 kcal/mol)

>  <smiles>  (14) 
Oc1ccn2nc(-c3cccnc3)nc(N(c3ccccc3)c3ccccc3)c12

>  <score_type>  (14) 
oracle

>  <origin>  (14) 
adg

>  <m_score__min__energy>  (14) 
-7.4900000000000002

>  <m_primary>  (14) 
energy

$$$$
14:0
     RDKit          3D

 43 46  0  0  0  0  0  0  0  0999 V2000
   61.9020   30.4780   49.4400 C   0  0  0  0  0  0  0  0  0  0  0  0
   60.8440   30.4520   48.4010 C   0  0  0  0  0  0  0  0  0  0  0  0
   59.5180   30.6130   48.7440 C   0  0  0  0  0  0  0  0  0  0  0  0
   58.5250   30.5920   47.7890 C   0  0  0  0  0  0  0  0  0  0  0  0
   58.8080   30.4070   46.4300 C   0  0  0  0  0  0  0  0  0  0  0  0
   57.7720   30.3810   45.4610 N   0  0  0  0  0  0  0  0  0  0  0  0
   57.2690   31.3560   44.6930 C   0  0  0  0  0  0  0  0  0  0  0  0
   57.5650   32.8040   44.6330 C   0  0  0  0  0  0  0  0  0  0  0  0
   57.9060   33.3850   45.8140 O   0  0  0  0  0  0  0  0  0  0  0  0
   59.0390   33.5570   46.4970 C   0  0  0  0  0  0  0  0  0  0  0  0
   58.9040   33.8650   47.8730 C   0  0  0  0  0  0  0  0  0  0  0  0
   59.9940   34.0640   48.6810 C   0  0  0  0  0  0  0  0  0  0  0  0
   61.2750   33.9760   48.2090 C   0  0  0  0  0  0  0  0  0  0  0  0
   61.4390   33.6770   46.8760 C   0  0  0  0  0  0  0  0  0  0  0  0
   62.8130   33.6360   46.6050 C   0  0  0  0  0  0  0  0  0  0  0  0
   63.4490   33.9140   47.7980 C   0  0  0  0  0  0  0  0  0  0  0  0
   62.5060   34.1130   48.7360 N   0  0  0  0  0  0  0  0  0  0  0  0
   62.7200   34.4350   50.1490 C   0  0  0  0  0  0  0  0  0  0  0  0
   60.3380   33.4770   46.0610 C   0  0  0  0  0  0  0  0  0  0  0  0
   56.3040   30.8080   43.8890 N   0  0  0  0  0  0  0  0  0  0  0  0
   56.2550   29.5390   44.1960 N   0  0  0  0  0  0  0  0  0  0  0  0
   57.1320   29.2110   45.1550 C   0  0  0  0  0  0  0  0  0  0  0  0
   57.3830   27.7390   45.8170 S   0  0  0  0  0  0  0  0  0  0  0  0
   60.1440   30.2490   46.1230 C   0  0  0  0  0  0  0  0  0  0  0  0
   61.1480   30.2680   47.0680 C   0  0  0  0  0  0  0  0  0  0  0  0
   61.4372   30.4666   50.4369 H   0  0  0  0  0  0  0  0  0  0  0  0
   62.5488   29.5955   49.3268 H   0  0  0  0  0  0  0  0  0  0  0  0
   62.5047   31.3912   49.3268 H   0  0  0  0  0  0  0  0  0  0  0  0
   59.2480   30.7610   49.8000 H   0  0  0  0  0  0  0  0  0  0  0  0
   57.4792   30.7244   48.1033 H   0  0  0  0  0  0  0  0  0  0  0  0
   58.3994   32.9497   43.9312 H   0  0  0  0  0  0  0  0  0  0  0  0
   56.6288   33.2889   44.3193 H   0  0  0  0  0  0  0  0  0  0  0  0
   57.8960   33.9469   48.3058 H   0  0  0  0  0  0  0  0  0  0  0  0
   59.8331   34.3020   49.7428 H   0  0  0  0  0  0  0  0  0  0  0  0
   63.2892   33.4247   45.6362 H   0  0  0  0  0  0  0  0  0  0  0  0
   64.5367   33.9640   47.9542 H   0  0  0  0  0  0  0  0  0  0  0  0
   62.2199   33.6825   50.7764 H   0  0  0  0  0  0  0  0  0  0  0  0
   63.7984   34.4350   50.3658 H   0  0  0  0  0  0  0  0  0  0  0  0
   62.3024   35.4293   50.3658 H   0  0  0  0  0  0  0  0  0  0  0  0
   60.5146   33.2400   45.0015 H   0  0  0  0  0  0  0  0  0  0  0  0
   55.6120   28.8390   43.7550 H   0  0  0  0  0  0  0  0  0  0  0  0
   60.4227   30.1001   45.0693 H   0  0  0  0  0  0  0  0  0  0  0  0
   62.1951   30.1360   46.7579 H   0  0  0  0  0  0  0  0  0  0  0  0
  1  2  1  0
  2  3  2  0
  3  4  1  0
  4  5  2  0
  5  6  1  0
  6  7  1  0
  7  8  1  0
  8  9  1  0
  9 10  1  0
 10 11  2  0
 11 12  1  0
 12 13  2  0
 13 14  1  0
 14 15  1  0
 15 16  2  0
 16 17  1  0
 17 18  1  0
 14 19  2  0
  7 20  2  0
 20 21  1  0
 21 22  1  0
 22 23  2  0
  5 24  1  0
 24 25  2  0
 25  2  1  0
 22  6  1  0
 19 10  1  0
 17 13  1  0
  1 26  1  0
  1 27  1  0
  1 28  1  0
  3 29  1  0
  4 30  1  0
  8 31  1  0
  8 32  1  0
 11 33  1  0
 12 34  1  0
 15 35  1  0
 16 36  1  0
 18 37  1  0
 18 38  1  0
 18 39  1  0
 19 40  1  0
 21 41  1  0
 24 42  1  0
 25 43  1  0
M  END
>  <smiles>  (15) 
Cc1ccc(-n2c(COc3ccc4c(ccn4C)c3)n[nH]c2=S)cc1

>  <score_type>  (15) 
oracle

>  <origin>  (15) 
adg

>  <m_score__min__energy>  (15) 
-7.3499999999999996

>  <m_primary>  (15) 
energy

$$$$
15:0
     RDKit          3D

 40 40  0  0  0  0  0  0  0  0999 V2000
   56.2190   23.0770   43.0010 C   0  0  0  0  0  0  0  0  0  0  0  0
   57.1310   21.8530   43.0010 C   0  0  0  0  0  0  0  0  0  0  0  0
   56.6420   20.7910   43.9960 C   0  0  0  0  0  0  0  0  0  0  0  0
   57.7150   20.4200   44.9290 N   0  0  0  0  0  0  0  0  0  0  0  0
   57.4880   21.0420   46.2040 C   0  0  0  0  0  0  0  0  0  0  0  0
   57.5760   20.3520   47.2590 O   0  0  0  0  0  0  0  0  0  0  0  0
   57.1120   22.4280   46.2700 N   0  0  0  0  0  0  0  0  0  0  0  0
   56.9070   23.1440   47.4990 C   0  0  0  0  0  0  0  0  0  0  0  0
   57.2260   22.6290   48.6050 O   0  0  0  0  0  0  0  0  0  0  0  0
   56.3430   24.5340   47.4780 C   0  0  0  0  0  0  0  0  0  0  0  0
   56.4060   25.0770   46.1610 O   0  0  0  0  0  0  0  0  0  0  0  0
   57.6060   25.4460   45.5350 C   0  0  0  0  0  0  0  0  0  0  0  0
   58.3610   24.5540   45.0610 O   0  0  0  0  0  0  0  0  0  0  0  0
   57.9780   26.8830   45.4560 C   0  0  0  0  0  0  0  0  0  0  0  0
   57.0400   27.7910   44.9250 C   0  0  0  0  0  0  0  0  0  0  0  0
   57.3400   29.1540   44.8210 C   0  0  0  0  0  0  0  0  0  0  0  0
   56.1350   30.2910   44.1300 S   0  0  0  0  0  0  0  0  0  0  0  0
   57.3880   31.2620   43.2360 C   0  0  0  0  0  0  0  0  0  0  0  0
   58.5770   29.6310   45.2560 C   0  0  0  0  0  0  0  0  0  0  0  0
   59.5200   28.7480   45.7810 C   0  0  0  0  0  0  0  0  0  0  0  0
   59.2380   27.3790   45.8820 C   0  0  0  0  0  0  0  0  0  0  0  0
   60.5230   26.3440   46.5050 Cl  0  0  0  0  0  0  0  0  0  0  0  0
   55.9999   23.3710   44.0381 H   0  0  0  0  0  0  0  0  0  0  0  0
   56.7201   23.9076   42.4825 H   0  0  0  0  0  0  0  0  0  0  0  0
   55.2797   22.8344   42.4825 H   0  0  0  0  0  0  0  0  0  0  0  0
   57.1457   21.4175   41.9910 H   0  0  0  0  0  0  0  0  0  0  0  0
   58.1395   22.1723   43.3028 H   0  0  0  0  0  0  0  0  0  0  0  0
   55.7917   21.1942   44.5655 H   0  0  0  0  0  0  0  0  0  0  0  0
   56.3357   19.8956   43.4353 H   0  0  0  0  0  0  0  0  0  0  0  0
   58.6400   20.7360   44.5540 H   0  0  0  0  0  0  0  0  0  0  0  0
   57.7350   19.3810   45.0500 H   0  0  0  0  0  0  0  0  0  0  0  0
   56.9600   22.9360   45.3690 H   0  0  0  0  0  0  0  0  0  0  0  0
   55.2940   24.5044   47.8079 H   0  0  0  0  0  0  0  0  0  0  0  0
   56.9345   25.1689   48.1540 H   0  0  0  0  0  0  0  0  0  0  0  0
   56.0595   27.4236   44.5880 H   0  0  0  0  0  0  0  0  0  0  0  0
   58.0431   31.7697   43.9592 H   0  0  0  0  0  0  0  0  0  0  0  0
   57.9893   30.5917   42.6042 H   0  0  0  0  0  0  0  0  0  0  0  0
   56.8890   32.0115   42.6042 H   0  0  0  0  0  0  0  0  0  0  0  0
   58.8084   30.7040   45.1848 H   0  0  0  0  0  0  0  0  0  0  0  0
   60.4947   29.1297   46.1191 H   0  0  0  0  0  0  0  0  0  0  0  0
  1  2  1  0
  2  3  1  0
  3  4  1  0
  4  5  1  0
  5  6  2  0
  5  7  1  0
  7  8  1  0
  8  9  2  0
  8 10  1  0
 10 11  1  0
 11 12  1  0
 12 13  2  0
 12 14  1  0
 14 15  2  0
 15 16  1  0
 16 17  1  0
 17 18  1  0
 16 19  2  0
 19 20  1  0
 20 21  2  0
 21 22  1  0
 21 14  1  0
  1 23  1  0
  1 24  1  0
  1 25  1  0
  2 26  1  0
  2 27  1  0
  3 28  1  0
  3 29  1  0
  4 30  1  0
  4 31  1  0
  7 32  1  0
 10 33  1  0
 10 34  1  0
 15 35  1  0
 18 36  1  0
 18 37  1  0
 18 38  1  0
 19 39  1  0
 20 40  1  0
M  CHG  1   4   1
M  END
>  <UniqueID>  (16) 
14

>  <SMILES>  (16) 
CCC[NH2+]C(=O)NC(=O)COC(=O)c1cc(SC)ccc1Cl

>  <Energy>  (16) 
29.523960370279198

>  <Genealogy>  (16) 
CCC[NH2+]C(=O)NC(=O)COC(=O)c1cc(SC)ccc1Cl (protonated)
CCC[NH2+]C(=O)NC(=O)COC(=O)c1cc(SC)ccc1Cl (3D coordinates assigned)
CCC[NH2+]C(=O)NC(=O)COC(=O)c1cc(SC)ccc1Cl (optimized conformer: 29.523960370279198 kcal/mol)

>  <smiles>  (16) 
CCCNC(=O)NC(=O)COC(=O)c1cc(SC)ccc1Cl

>  <score_type>  (16) 
oracle

>  <origin>  (16) 
adg

>  <m_score__min__energy>  (16) 
-6.2699999999999996

>  <m_primary>  (16) 
energy

$$$$
16:0
     RDKit          3D

 25 26  0  0  0  0  0  0  0  0999 V2000
   57.0690   26.9070   45.2930 O   0  0  0  0  0  0  0  0  0  0  0  0
   57.0150   28.1540   45.4650 C   0  0  0  0  0  0  0  0  0  0  0  0
   55.7900   28.8540   45.2140 N   0  0  0  0  0  0  0  0  0  0  0  0
   55.5650   29.6950   44.0450 C   0  0  0  0  0  0  0  0  0  0  0  0
   56.5270   30.8400   44.0410 C   0  0  0  0  0  0  0  0  0  0  0  0
   57.3410   31.2110   42.9910 C   0  0  0  0  0  0  0  0  0  0  0  0
   58.0620   32.2940   43.4460 C   0  0  0  0  0  0  0  0  0  0  0  0
   57.6420   32.5150   44.7440 C   0  0  0  0  0  0  0  0  0  0  0  0
   56.7280   31.6310   45.0700 O   0  0  0  0  0  0  0  0  0  0  0  0
   58.2140   28.8920   45.9270 C   0  0  0  0  0  0  0  0  0  0  0  0
   59.4450   28.7430   45.2600 C   0  0  0  0  0  0  0  0  0  0  0  0
   60.5760   29.4400   45.6950 C   0  0  0  0  0  0  0  0  0  0  0  0
   60.4930   30.2940   46.7980 C   0  0  0  0  0  0  0  0  0  0  0  0
   62.0400   31.2450   47.3900 Br  0  0  0  0  0  0  0  0  0  0  0  0
   59.2760   30.4500   47.4680 C   0  0  0  0  0  0  0  0  0  0  0  0
   58.1430   29.7560   47.0360 C   0  0  0  0  0  0  0  0  0  0  0  0
   55.7086   29.0964   43.1334 H   0  0  0  0  0  0  0  0  0  0  0  0
   54.5382   30.0884   44.0775 H   0  0  0  0  0  0  0  0  0  0  0  0
   57.4020   30.7409   41.9984 H   0  0  0  0  0  0  0  0  0  0  0  0
   58.8184   32.8664   42.8889 H   0  0  0  0  0  0  0  0  0  0  0  0
   58.0169   33.3111   45.4040 H   0  0  0  0  0  0  0  0  0  0  0  0
   59.5173   28.0733   44.3903 H   0  0  0  0  0  0  0  0  0  0  0  0
   61.5335   29.3159   45.1679 H   0  0  0  0  0  0  0  0  0  0  0  0
   59.2103   31.1207   48.3374 H   0  0  0  0  0  0  0  0  0  0  0  0
   57.1882   29.8858   47.5666 H   0  0  0  0  0  0  0  0  0  0  0  0
  1  2  2  0
  2  3  1  0
  3  4  1  0
  4  5  1  0
  5  6  2  0
  6  7  1  0
  7  8  2  0
  8  9  1  0
  2 10  1  0
 10 11  2  0
 11 12  1  0
 12 13  2  0
 13 14  1  0
 13 15  1  0
 15 16  2  0
  9  5  1  0
 16 10  1  0
  4 17  1  0
  4 18  1  0
  6 19  1  0
  7 20  1  0
  8 21  1  0
 11 22  1  0
 12 23  1  0
 15 24  1  0
 16 25  1  0
M  CHG  1   3  -1
M  END
>  <UniqueID>  (17) 
15

>  <SMILES>  (17) 
O=C([N-]Cc1ccco1)c1ccc(Br)cc1

>  <Energy>  (17) 
49.015008875382755

>  <Genealogy>  (17) 
O=C([N-]Cc1ccco1)c1ccc(Br)cc1 (protonated)
O=C([N-]Cc1ccco1)c1ccc(Br)cc1 (3D coordinates assigned)
O=C([N-]Cc1ccco1)c1ccc(Br)cc1 (optimized conformer: 49.015008875382755 kcal/mol)

>  <smiles>  (17) 
O=C(NCc1ccco1)c1ccc(Br)cc1

>  <score_type>  (17) 
oracle

>  <origin>  (17) 
adg

>  <m_score__min__energy>  (17) 
-8.7599999999999998

>  <m_primary>  (17) 
energy

$$$$
17:0
     RDKit          3D

 30 32  0  0  0  0  0  0  0  0999 V2000
   55.8880   28.3480   43.8040 H   0  0  0  0  0  0  0  0  0  0  0  0
   55.9530   29.3710   43.9630 N   0  0  0  0  0  0  0  0  0  0  0  0
   56.6690   30.0130   44.8410 C   0  0  0  0  0  0  0  0  0  0  0  0
   56.6800   31.3610   44.7410 N   0  0  0  0  0  0  0  0  0  0  0  0
   57.5010   32.1250   45.4900 C   0  0  0  0  0  0  0  0  0  0  0  0
   57.4180   33.7570   45.3110 S   0  0  0  0  0  0  0  0  0  0  0  0
   58.3810   31.5300   46.3480 N   0  0  0  0  0  0  0  0  0  0  0  0
   59.3130   32.3190   47.1170 C   0  0  0  0  0  0  0  0  0  0  0  0
   58.8760   33.0220   48.2480 C   0  0  0  0  0  0  0  0  0  0  0  0
   57.8182   32.9772   48.5465 H   0  0  0  0  0  0  0  0  0  0  0  0
   59.7800   33.7800   48.9980 C   0  0  0  0  0  0  0  0  0  0  0  0
   59.4308   34.3301   49.8842 H   0  0  0  0  0  0  0  0  0  0  0  0
   61.1370   33.8420   48.6230 C   0  0  0  0  0  0  0  0  0  0  0  0
   62.0830   34.5880   49.3400 O   0  0  0  0  0  0  0  0  0  0  0  0
   63.1070   34.0200   50.1510 C   0  0  0  0  0  0  0  0  0  0  0  0
   62.8542   34.1602   51.2123 H   0  0  0  0  0  0  0  0  0  0  0  0
   63.1931   32.9452   49.9335 H   0  0  0  0  0  0  0  0  0  0  0  0
   64.0644   34.5160   49.9335 H   0  0  0  0  0  0  0  0  0  0  0  0
   61.5660   33.1330   47.4930 C   0  0  0  0  0  0  0  0  0  0  0  0
   62.6234   33.1737   47.1925 H   0  0  0  0  0  0  0  0  0  0  0  0
   60.6620   32.3750   46.7450 C   0  0  0  0  0  0  0  0  0  0  0  0
   61.0107   31.8205   45.8613 H   0  0  0  0  0  0  0  0  0  0  0  0
   58.3610   30.1670   46.4950 C   0  0  0  0  0  0  0  0  0  0  0  0
   59.2390   29.5830   47.3560 N   0  0  0  0  0  0  0  0  0  0  0  0
   59.2200   28.2540   47.5750 C   0  0  0  0  0  0  0  0  0  0  0  0
   60.0520   27.7300   48.3600 O   0  0  0  0  0  0  0  0  0  0  0  0
   58.2870   27.4930   46.9690 N   0  0  0  0  0  0  0  0  0  0  0  0
   57.3960   28.0410   46.1090 C   0  0  0  0  0  0  0  0  0  0  0  0
   56.4850   27.2950   45.6660 O   0  0  0  0  0  0  0  0  0  0  0  0
   57.4620   29.3870   45.7900 N   0  0  0  0  0  0  0  0  0  0  0  0
  1  2  1  0
  2  3  2  0
  3  4  1  0
  4  5  1  0
  5  6  2  0
  5  7  1  0
  7  8  1  0
  8  9  2  0
  9 10  1  0
  9 11  1  0
 11 12  1  0
 11 13  2  0
 13 14  1  0
 14 15  1  0
 15 16  1  0
 15 17  1  0
 15 18  1  0
 13 19  1  0
 19 20  1  0
 19 21  2  0
 21 22  1  0
  7 23  1  0
 23 24  2  0
 24 25  1  0
 25 26  2  0
 25 27  1  0
 27 28  1  0
 28 29  2  0
 28 30  1  0
 30  3  1  0
 21  8  1  0
 30 23  1  0
M  CHG  2   4  -1  27  -1
M  END
>  <UniqueID>  (18) 
16

>  <SMILES>  (18) 
[H]/N=c1/[n-]c(=S)n(-c2ccc(OC)cc2)c2nc(=O)[n-]c(=O)n12

>  <Energy>  (18) 
60.60325613338965

>  <Genealogy>  (18) 
COc1ccc(-n2c(=S)[n-]c(=N)n3c(=O)[n-]c(=O)nc23)cc1 (protonated)
[H]/N=c1/[n-]c(=S)n(-c2ccc(OC)cc2)c2nc(=O)[n-]c(=O)n12 (cis-trans isomerization)
[H]/N=c1/[n-]c(=S)n(-c2ccc(OC)cc2)c2nc(=O)[n-]c(=O)n12 (3D coordinates assigned)
[H]/N=c1/[n-]c(=S)n(-c2ccc(OC)cc2)c2nc(=O)[n-]c(=O)n12 (optimized conformer: 60.60325613338965 kcal/mol)

>  <smiles>  (18) 
COc1ccc(-n2c(=S)[nH]c(=N)n3c(=O)[nH]c(=O)nc23)cc1

>  <score_type>  (18) 
oracle

>  <origin>  (18) 
adg

>  <m_score__min__energy>  (18) 
-8.8900000000000006

>  <m_primary>  (18) 
energy

$$$$
18:0
     RDKit          3D

 45 48  0  0  1  0  0  0  0  0999 V2000
   60.2030   35.3730   45.9960 O   0  0  0  0  0  0  0  0  0  0  0  0
   60.0890   34.1750   46.5340 C   0  0  0  0  0  0  0  0  0  0  0  0
   61.0490   33.8960   47.5430 C   0  0  0  0  0  0  0  0  0  0  0  0
   62.3980   33.8390   47.0830 C   0  0  0  0  0  0  0  0  0  0  0  0
   63.4170   33.5840   47.8870 N   0  0  0  0  0  0  0  0  0  0  0  0
   63.2290   33.3630   49.1990 C   0  0  0  0  0  0  0  0  0  0  0  0
   64.3630   33.0910   50.0250 N   0  0  0  0  0  0  0  0  0  0  0  0
   65.3150   31.9950   49.7840 C   0  0  0  0  0  0  0  0  0  0  0  0
   66.3040   32.1280   50.9260 C   0  0  0  0  0  0  0  0  0  0  0  0
   65.4570   32.7800   52.0260 C   0  0  0  0  0  0  0  0  0  0  0  0
   64.7570   33.8320   51.2040 C   0  0  0  0  0  0  0  0  0  0  0  0
   61.9760   33.4120   49.6500 N   0  0  0  0  0  0  0  0  0  0  0  0
   60.9020   33.6680   48.8710 C   0  0  0  0  0  0  0  0  0  0  0  0
   59.7710   33.7090   49.3940 N   0  0  0  0  0  0  0  0  0  0  0  0
   59.1050   32.7350   50.1160 C   0  0  0  0  0  0  0  0  0  0  0  0
   59.2270   31.3030   49.7670 C   0  0  0  0  0  0  0  0  0  0  0  0
   58.4980   31.1450   48.5640 F   0  0  0  0  0  0  0  0  0  0  0  0
   60.4730   30.8490   49.4650 F   0  0  0  0  0  0  0  0  0  0  0  0
   58.5210   30.5350   50.6690 F   0  0  0  0  0  0  0  0  0  0  0  0
   58.9990   33.4320   45.9770 C   0  0  0  0  0  0  0  0  0  0  0  0
   57.8060   34.1150   45.6030 C   0  0  0  0  0  0  0  0  0  0  0  0
   56.8970   33.2190   45.2020 N   0  0  0  0  0  0  0  0  0  0  0  0
   57.3990   31.9790   45.2810 C   0  0  0  0  0  0  0  0  0  0  0  0
   56.8720   30.7870   44.9640 N   0  0  0  0  0  0  0  0  0  0  0  0
   57.5860   29.6520   45.0920 C   0  0  0  0  0  0  0  0  0  0  0  0
   58.8700   29.7700   45.5570 C   0  0  0  0  0  0  0  0  0  0  0  0
   59.4290   30.9820   45.8880 C   0  0  0  0  0  0  0  0  0  0  0  0
   58.6960   32.1300   45.7580 C   0  0  0  0  0  0  0  0  0  0  0  0
   62.5992   34.0143   46.0159 H   0  0  0  0  0  0  0  0  0  0  0  0
   64.3800   33.5560   47.4820 H   0  0  0  0  0  0  0  0  0  0  0  0
   64.8076   31.0195   49.8148 H   0  0  0  0  0  0  0  0  0  0  0  0
   65.7925   32.0519   48.7947 H   0  0  0  0  0  0  0  0  0  0  0  0
   66.6786   31.1438   51.2438 H   0  0  0  0  0  0  0  0  0  0  0  0
   67.2015   32.7071   50.6630 H   0  0  0  0  0  0  0  0  0  0  0  0
   64.7474   32.0690   52.4742 H   0  0  0  0  0  0  0  0  0  0  0  0
   66.0210   33.1581   52.8914 H   0  0  0  0  0  0  0  0  0  0  0  0
   63.8804   34.2333   51.7336 H   0  0  0  0  0  0  0  0  0  0  0  0
   65.3843   34.7084   50.9840 H   0  0  0  0  0  0  0  0  0  0  0  0
   59.4454   32.8319   51.1575 H   0  0  0  0  0  0  0  0  0  0  0  0
   58.0501   32.9476   49.8879 H   0  0  0  0  0  0  0  0  0  0  0  0
   57.6563   35.2042   45.6383 H   0  0  0  0  0  0  0  0  0  0  0  0
   55.9260   33.4300   44.8710 H   0  0  0  0  0  0  0  0  0  0  0  0
   57.1570   28.6724   44.8344 H   0  0  0  0  0  0  0  0  0  0  0  0
   59.4770   28.8596   45.6698 H   0  0  0  0  0  0  0  0  0  0  0  0
   60.4643   31.0285   46.2569 H   0  0  0  0  0  0  0  0  0  0  0  0
  1  2  2  0
  2  3  1  0
  3  4  2  0
  4  5  1  0
  5  6  1  0
  6  7  1  0
  7  8  1  0
  8  9  1  0
  9 10  1  0
 10 11  1  0
  6 12  2  0
 12 13  1  0
 13 14  2  0
 14 15  1  0
 15 16  1  0
 16 17  1  0
 16 18  1  0
 16 19  1  0
  2 20  1  0
 20 21  2  0
 21 22  1  0
 22 23  1  0
 23 24  2  0
 24 25  1  0
 25 26  2  0
 26 27  1  0
 27 28  2  0
 13  3  1  0
 28 20  1  0
 11  7  1  0
 28 23  1  0
  4 29  1  0
  5 30  1  0
  8 31  1  0
  8 32  1  0
  9 33  1  0
  9 34  1  0
 10 35  1  0
 10 36  1  0
 11 37  1  0
 11 38  1  0
 15 39  1  0
 15 40  1  0
 21 41  1  0
 22 42  1  0
 25 43  1  0
 26 44  1  0
 27 45  1  0
M  END
>  <smiles>  (19) 
O=C(c1c[nH]c(N2CCCC2)nc1=NCC(F)(F)F)c1c[nH]c2ncccc12

>  <score_type>  (19) 
oracle

>  <origin>  (19) 
adg

>  <m_score__min__energy>  (19) 
-7.21

>  <m_primary>  (19) 
energy

$$$$
19:0
     RDKit          3D

 41 43  0  0  0  0  0  0  0  0999 V2000
   60.7650   26.7290   48.7000 C   0  0  0  0  0  0  0  0  0  0  0  0
   59.6210   27.0890   47.7970 C   0  0  0  0  0  0  0  0  0  0  0  0
   59.0990   28.3900   47.8020 C   0  0  0  0  0  0  0  0  0  0  0  0
   58.0460   28.7300   46.9480 C   0  0  0  0  0  0  0  0  0  0  0  0
   57.5160   27.7840   46.0630 C   0  0  0  0  0  0  0  0  0  0  0  0
   56.3940   28.1580   45.2500 N   0  0  0  0  0  0  0  0  0  0  0  0
   56.2080   29.4100   44.5780 C   0  0  0  0  0  0  0  0  0  0  0  0
   55.1810   30.1090   44.7870 O   0  0  0  0  0  0  0  0  0  0  0  0
   57.2390   29.8860   43.6100 C   0  0  0  0  0  0  0  0  0  0  0  0
   58.7460   30.3770   44.5140 S   0  0  0  0  0  0  0  0  0  0  0  0
   58.0570   31.8970   45.1830 C   0  0  0  0  0  0  0  0  0  0  0  0
   56.8190   32.3260   44.8760 N   0  0  0  0  0  0  0  0  0  0  0  0
   56.6530   33.4920   45.4820 N   0  0  0  0  0  0  0  0  0  0  0  0
   57.7920   33.7600   46.1480 C   0  0  0  0  0  0  0  0  0  0  0  0
   58.6960   32.7740   45.9880 N   0  0  0  0  0  0  0  0  0  0  0  0
   60.0130   32.7140   46.5680 C   0  0  0  0  0  0  0  0  0  0  0  0
   60.9240   33.7710   46.4060 C   0  0  0  0  0  0  0  0  0  0  0  0
   62.2100   33.6880   46.9520 C   0  0  0  0  0  0  0  0  0  0  0  0
   62.6050   32.5490   47.6640 C   0  0  0  0  0  0  0  0  0  0  0  0
   63.9940   32.4520   48.2220 C   0  0  0  0  0  0  0  0  0  0  0  0
   61.7110   31.4760   47.7970 C   0  0  0  0  0  0  0  0  0  0  0  0
   60.4260   31.5600   47.2570 C   0  0  0  0  0  0  0  0  0  0  0  0
   58.0410   26.4790   46.0570 C   0  0  0  0  0  0  0  0  0  0  0  0
   59.0970   26.1410   46.9070 C   0  0  0  0  0  0  0  0  0  0  0  0
   60.4494   26.8283   49.7491 H   0  0  0  0  0  0  0  0  0  0  0  0
   61.0723   25.6907   48.5063 H   0  0  0  0  0  0  0  0  0  0  0  0
   61.6115   27.4042   48.5063 H   0  0  0  0  0  0  0  0  0  0  0  0
   59.5198   29.1464   48.4808 H   0  0  0  0  0  0  0  0  0  0  0  0
   57.6309   29.7484   46.9716 H   0  0  0  0  0  0  0  0  0  0  0  0
   57.4817   29.0764   42.9060 H   0  0  0  0  0  0  0  0  0  0  0  0
   56.8475   30.7512   43.0550 H   0  0  0  0  0  0  0  0  0  0  0  0
   57.9626   34.6674   46.7459 H   0  0  0  0  0  0  0  0  0  0  0  0
   60.6247   34.6696   45.8465 H   0  0  0  0  0  0  0  0  0  0  0  0
   62.9145   34.5225   46.8210 H   0  0  0  0  0  0  0  0  0  0  0  0
   63.9487   32.4552   49.3211 H   0  0  0  0  0  0  0  0  0  0  0  0
   64.4634   31.5189   47.8771 H   0  0  0  0  0  0  0  0  0  0  0  0
   64.5885   33.3108   47.8771 H   0  0  0  0  0  0  0  0  0  0  0  0
   62.0235   30.5651   48.3287 H   0  0  0  0  0  0  0  0  0  0  0  0
   59.7304   30.7156   47.3717 H   0  0  0  0  0  0  0  0  0  0  0  0
   57.6184   25.7216   45.3804 H   0  0  0  0  0  0  0  0  0  0  0  0
   59.5195   25.1258   46.8778 H   0  0  0  0  0  0  0  0  0  0  0  0
  1  2  1  0
  2  3  2  0
  3  4  1  0
  4  5  2  0
  5  6  1  0
  6  7  1  0
  7  8  2  0
  7  9  1  0
  9 10  1  0
 10 11  1  0
 11 12  2  0
 12 13  1  0
 13 14  2  0
 14 15  1  0
 15 16  1  0
 16 17  2  0
 17 18  1  0
 18 19  2  0
 19 20  1  0
 19 21  1  0
 21 22  2  0
  5 23  1  0
 23 24  2  0
 24  2  1  0
 15 11  1  0
 22 16  1  0
  1 25  1  0
  1 26  1  0
  1 27  1  0
  3 28  1  0
  4 29  1  0
  9 30  1  0
  9 31  1  0
 14 32  1  0
 17 33  1  0
 18 34  1  0
 20 35  1  0
 20 36  1  0
 20 37  1  0
 21 38  1  0
 22 39  1  0
 23 40  1  0
 24 41  1  0
M  CHG  1   6  -1
M  END
>  <UniqueID>  (20) 
17

>  <SMILES>  (20) 
Cc1ccc([N-]C(=O)CSc2nncn2-c2ccc(C)cc2)cc1

>  <Energy>  (20) 
74.60782976704465

>  <Genealogy>  (20) 
Cc1ccc([N-]C(=O)CSc2nncn2-c2ccc(C)cc2)cc1 (protonated)
Cc1ccc([N-]C(=O)CSc2nncn2-c2ccc(C)cc2)cc1 (3D coordinates assigned)
Cc1ccc([N-]C(=O)CSc2nncn2-c2ccc(C)cc2)cc1 (optimized conformer: 74.60782976704465 kcal/mol)

>  <smiles>  (20) 
Cc1ccc(NC(=O)CSc2nncn2-c2ccc(C)cc2)cc1

>  <score_type>  (20) 
oracle

>  <origin>  (20) 
adg

>  <m_score__min__energy>  (20) 
-9.5700000000000003

>  <m_primary>  (20) 
energy

$$$$
20:0
     RDKit          3D

 47 49  0  0  0  0  0  0  0  0999 V2000
   57.4230   31.9140   41.9030 C   0  0  0  0  0  0  0  0  0  0  0  0
   57.3110   31.1120   43.1540 C   0  0  0  0  0  0  0  0  0  0  0  0
   56.1510   30.6660   43.7510 C   0  0  0  0  0  0  0  0  0  0  0  0
   56.5010   30.0270   44.8800 N   0  0  0  0  0  0  0  0  0  0  0  0
   57.8220   30.1070   44.9540 N   0  0  0  0  0  0  0  0  0  0  0  0
   58.6140   29.4810   46.0080 C   0  0  0  0  0  0  0  0  0  0  0  0
   59.1060   30.5200   47.0260 C   0  0  0  0  0  0  0  0  0  0  0  0
   59.5750   31.8320   46.3680 C   0  0  0  0  0  0  0  0  0  0  0  0
   58.8220   32.9970   46.8970 N   0  0  0  0  0  0  0  0  0  0  0  0
   57.3970   32.9010   46.5240 C   0  0  0  0  0  0  0  0  0  0  0  0
   57.1820   33.7200   45.2500 C   0  0  0  0  0  0  0  0  0  0  0  0
   58.4850   34.4640   45.0180 C   0  0  0  0  0  0  0  0  0  0  0  0
   59.2270   34.3040   46.3380 C   0  0  2  0  0  0  0  0  0  0  0  0
   60.7540   34.6160   46.3390 C   0  0  0  0  0  0  0  0  0  0  0  0
   61.4730   34.0530   47.4890 N   0  0  0  0  0  0  0  0  0  0  0  0
   62.6690   33.5000   47.4050 N   0  0  0  0  0  0  0  0  0  0  0  0
   62.9810   33.1040   48.6530 C   0  0  0  0  0  0  0  0  0  0  0  0
   64.2390   32.3830   48.9980 C   0  0  0  0  0  0  0  0  0  0  0  0
   62.0020   33.3660   49.5460 N   0  0  0  0  0  0  0  0  0  0  0  0
   61.0680   33.9590   48.7760 C   0  0  0  0  0  0  0  0  0  0  0  0
   59.7870   34.4960   49.3400 C   0  0  0  0  0  0  0  0  0  0  0  0
   58.3500   30.7620   43.9320 N   0  0  0  0  0  0  0  0  0  0  0  0
   57.5710   32.9736   42.1588 H   0  0  0  0  0  0  0  0  0  0  0  0
   58.2799   31.5560   41.3134 H   0  0  0  0  0  0  0  0  0  0  0  0
   56.5008   31.8044   41.3134 H   0  0  0  0  0  0  0  0  0  0  0  0
   55.1278   30.8072   43.3728 H   0  0  0  0  0  0  0  0  0  0  0  0
   57.9941   28.7355   46.5276 H   0  0  0  0  0  0  0  0  0  0  0  0
   59.4911   29.0035   45.5469 H   0  0  0  0  0  0  0  0  0  0  0  0
   58.2826   30.7498   47.7182 H   0  0  0  0  0  0  0  0  0  0  0  0
   59.9716   30.0856   47.5475 H   0  0  0  0  0  0  0  0  0  0  0  0
   60.6462   31.9737   46.5738 H   0  0  0  0  0  0  0  0  0  0  0  0
   59.3939   31.7628   45.2852 H   0  0  0  0  0  0  0  0  0  0  0  0
   57.1297   31.8498   46.3408 H   0  0  0  0  0  0  0  0  0  0  0  0
   56.7640   33.2875   47.3364 H   0  0  0  0  0  0  0  0  0  0  0  0
   56.9617   33.0573   44.4001 H   0  0  0  0  0  0  0  0  0  0  0  0
   56.3312   34.4103   45.3486 H   0  0  0  0  0  0  0  0  0  0  0  0
   59.0530   34.0133   44.1908 H   0  0  0  0  0  0  0  0  0  0  0  0
   58.3327   35.5167   44.7376 H   0  0  0  0  0  0  0  0  0  0  0  0
   58.9221   35.1121   47.0192 H   0  0  0  0  0  0  0  0  0  0  0  0
   61.1931   34.2025   45.4191 H   0  0  0  0  0  0  0  0  0  0  0  0
   60.8576   35.7094   46.4003 H   0  0  0  0  0  0  0  0  0  0  0  0
   64.3402   32.3250   50.0918 H   0  0  0  0  0  0  0  0  0  0  0  0
   64.2060   31.3667   48.5784 H   0  0  0  0  0  0  0  0  0  0  0  0
   65.0992   32.9252   48.5784 H   0  0  0  0  0  0  0  0  0  0  0  0
   59.8335   34.4765   50.4388 H   0  0  0  0  0  0  0  0  0  0  0  0
   59.6410   35.5311   48.9975 H   0  0  0  0  0  0  0  0  0  0  0  0
   58.9465   33.8745   48.9975 H   0  0  0  0  0  0  0  0  0  0  0  0
  1  2  1  0
  2  3  1  0
  3  4  2  0
  4  5  1  0
  5  6  1  0
  6  7  1  0
  7  8  1  0
  8  9  1  0
  9 10  1  0
 10 11  1  0
 11 12  1  0
 12 13  1  0
 13 14  1  0
 14 15  1  0
 15 16  1  0
 16 17  2  0
 17 18  1  0
 17 19  1  0
 19 20  2  0
 20 21  1  0
  5 22  1  0
 22  2  2  0
 13  9  1  0
 20 15  1  0
  1 23  1  0
  1 24  1  0
  1 25  1  0
  3 26  1  0
  6 27  1  0
  6 28  1  0
  7 29  1  0
  7 30  1  0
  8 31  1  0
  8 32  1  0
 10 33  1  0
 10 34  1  0
 11 35  1  0
 11 36  1  0
 12 37  1  0
 12 38  1  0
 13 39  1  1
 14 40  1  0
 14 41  1  0
 18 42  1  0
 18 43  1  0
 18 44  1  0
 21 45  1  0
 21 46  1  0
 21 47  1  0
M  END
>  <UniqueID>  (21) 
18

>  <SMILES>  (21) 
Cc1cnn(CCCN2CCC[C@@H]2Cn2nc(C)nc2C)n1

>  <Energy>  (21) 
117.08860177211321

>  <Genealogy>  (21) 
Cc1cnn(CCCN2CCC[C@@H]2Cn2nc(C)nc2C)n1 (chirality)
Cc1cnn(CCCN2CCC[C@@H]2Cn2nc(C)nc2C)n1 (3D coordinates assigned)
Cc1cnn(CCCN2CCC[C@@H]2Cn2nc(C)nc2C)n1 (nonaromatic ring conformer: 117.08860177211321 kcal/mol)

>  <smiles>  (21) 
Cc1cnn(CCCN2CCCC2Cn2nc(C)nc2C)n1

>  <score_type>  (21) 
oracle

>  <origin>  (21) 
adg

>  <m_score__min__energy>  (21) 
-7.5999999999999996

>  <m_primary>  (21) 
energy

$$$$
21:0
     RDKit          3D

 53 55  0  0  0  0  0  0  0  0999 V2000
   59.0650   34.5660   45.8160 C   0  0  0  0  0  0  0  0  0  0  0  0
   58.2130   33.4230   45.8340 O   0  0  0  0  0  0  0  0  0  0  0  0
   57.8600   32.6790   44.6950 C   0  0  0  0  0  0  0  0  0  0  0  0
   58.4380   33.0310   43.4710 C   0  0  0  0  0  0  0  0  0  0  0  0
   58.1230   32.3210   42.3060 C   0  0  0  0  0  0  0  0  0  0  0  0
   57.2330   31.2460   42.3600 C   0  0  0  0  0  0  0  0  0  0  0  0
   56.6540   30.8640   43.5820 C   0  0  0  0  0  0  0  0  0  0  0  0
   55.6900   29.7050   43.6420 C   0  0  0  0  0  0  0  0  0  0  0  0
   55.6430   29.1350   44.9890 N   0  0  0  0  0  0  0  0  0  0  0  0
   56.5900   28.2160   45.5520 C   0  0  0  0  0  0  0  0  0  0  0  0
   56.2080   27.0460   45.8230 O   0  0  0  0  0  0  0  0  0  0  0  0
   58.0290   28.5840   45.7870 C   0  0  0  0  0  0  0  0  0  0  0  0
   58.1290   29.5960   46.7900 O   0  0  0  0  0  0  0  0  0  0  0  0
   59.2550   30.4020   47.0330 C   0  0  0  0  0  0  0  0  0  0  0  0
   59.0970   31.5280   47.8520 C   0  0  0  0  0  0  0  0  0  0  0  0
   60.1860   32.3580   48.1430 C   0  0  0  0  0  0  0  0  0  0  0  0
   61.4510   32.0710   47.6160 C   0  0  0  0  0  0  0  0  0  0  0  0
   62.8170   33.1220   47.9980 S   0  0  0  0  0  0  0  0  0  0  0  0
   63.4030   33.6260   46.7050 O   0  0  0  0  0  0  0  0  0  0  0  0
   62.3360   34.2990   48.7970 O   0  0  0  0  0  0  0  0  0  0  0  0
   64.0280   32.2230   48.8940 N   0  0  0  0  0  0  0  0  0  0  0  0
   63.4080   31.2210   49.8010 C   0  0  0  0  0  0  0  0  0  0  0  0
   63.3430   31.7000   51.2610 C   0  0  0  0  0  0  0  0  0  0  0  0
   63.1360   33.0960   51.3070 O   0  0  0  0  0  0  0  0  0  0  0  0
   64.2950   33.7810   50.8460 C   0  0  0  0  0  0  0  0  0  0  0  0
   64.9530   33.1310   49.6040 C   0  0  0  0  0  0  0  0  0  0  0  0
   61.6170   30.9490   46.7910 C   0  0  0  0  0  0  0  0  0  0  0  0
   60.5300   30.1170   46.5020 C   0  0  0  0  0  0  0  0  0  0  0  0
   56.9540   31.5990   44.7460 C   0  0  0  0  0  0  0  0  0  0  0  0
   59.2919   34.8705   46.8484 H   0  0  0  0  0  0  0  0  0  0  0  0
   60.0003   34.3179   45.2929 H   0  0  0  0  0  0  0  0  0  0  0  0
   58.5601   35.3915   45.2929 H   0  0  0  0  0  0  0  0  0  0  0  0
   59.1454   33.8720   43.4232 H   0  0  0  0  0  0  0  0  0  0  0  0
   58.5772   32.6103   41.3468 H   0  0  0  0  0  0  0  0  0  0  0  0
   56.9839   30.6954   41.4409 H   0  0  0  0  0  0  0  0  0  0  0  0
   54.6855   30.0571   43.3645 H   0  0  0  0  0  0  0  0  0  0  0  0
   56.0309   28.9274   42.9427 H   0  0  0  0  0  0  0  0  0  0  0  0
   58.5817   27.6918   46.1165 H   0  0  0  0  0  0  0  0  0  0  0  0
   58.4555   28.9692   44.8491 H   0  0  0  0  0  0  0  0  0  0  0  0
   58.1070   31.7621   48.2705 H   0  0  0  0  0  0  0  0  0  0  0  0
   60.0475   33.2384   48.7877 H   0  0  0  0  0  0  0  0  0  0  0  0
   64.5930   31.7060   48.1820 H   0  0  0  0  0  0  0  0  0  0  0  0
   62.3850   31.0164   49.4522 H   0  0  0  0  0  0  0  0  0  0  0  0
   64.0354   30.3178   49.7759 H   0  0  0  0  0  0  0  0  0  0  0  0
   62.5125   31.1924   51.7734 H   0  0  0  0  0  0  0  0  0  0  0  0
   64.2938   31.4613   51.7599 H   0  0  0  0  0  0  0  0  0  0  0  0
   64.0090   34.8113   50.5876 H   0  0  0  0  0  0  0  0  0  0  0  0
   65.0353   33.7405   51.6586 H   0  0  0  0  0  0  0  0  0  0  0  0
   65.2687   33.9266   48.9130 H   0  0  0  0  0  0  0  0  0  0  0  0
   65.8120   32.5366   49.9487 H   0  0  0  0  0  0  0  0  0  0  0  0
   62.6071   30.7220   46.3689 H   0  0  0  0  0  0  0  0  0  0  0  0
   60.6705   29.2366   45.8577 H   0  0  0  0  0  0  0  0  0  0  0  0
   56.4787   31.3289   45.7006 H   0  0  0  0  0  0  0  0  0  0  0  0
  1  2  1  0
  2  3  1  0
  3  4  2  0
  4  5  1  0
  5  6  2  0
  6  7  1  0
  7  8  1  0
  8  9  1  0
  9 10  1  0
 10 11  2  0
 10 12  1  0
 12 13  1  0
 13 14  1  0
 14 15  2  0
 15 16  1  0
 16 17  2  0
 17 18  1  0
 18 19  2  0
 18 20  2  0
 18 21  1  0
 21 22  1  0
 22 23  1  0
 23 24  1  0
 24 25  1  0
 25 26  1  0
 17 27  1  0
 27 28  2  0
  7 29  2  0
 29  3  1  0
 28 14  1  0
 26 21  1  0
  1 30  1  0
  1 31  1  0
  1 32  1  0
  4 33  1  0
  5 34  1  0
  6 35  1  0
  8 36  1  0
  8 37  1  0
 12 38  1  0
 12 39  1  0
 15 40  1  0
 16 41  1  0
 21 42  1  0
 22 43  1  0
 22 44  1  0
 23 45  1  0
 23 46  1  0
 25 47  1  0
 25 48  1  0
 26 49  1  0
 26 50  1  0
 27 51  1  0
 28 52  1  0
 29 53  1  0
M  CHG  2   9  -1  21   1
M  END
>  <UniqueID>  (22) 
19

>  <SMILES>  (22) 
COc1cccc(C[N-]C(=O)COc2ccc(S(=O)(=O)[NH+]3CCOCC3)cc2)c1

>  <Energy>  (22) 
63.70497061158242

>  <Genealogy>  (22) 
COc1cccc(C[N-]C(=O)COc2ccc(S(=O)(=O)[NH+]3CCOCC3)cc2)c1 (protonated)
COc1cccc(C[N-]C(=O)COc2ccc(S(=O)(=O)[NH+]3CCOCC3)cc2)c1 (3D coordinates assigned)
COc1cccc(C[N-]C(=O)COc2ccc(S(=O)(=O)[NH+]3CCOCC3)cc2)c1 (nonaromatic ring conformer: 63.70497061158242 kcal/mol)

>  <smiles>  (22) 
COc1cccc(CNC(=O)COc2ccc(S(=O)(=O)N3CCOCC3)cc2)c1

>  <score_type>  (22) 
oracle

>  <origin>  (22) 
adg

>  <m_score__min__energy>  (22) 
-8.7799999999999994

>  <m_primary>  (22) 
energy

$$$$
22:0
     RDKit          3D

 41 42  0  0  0  0  0  0  0  0999 V2000
   55.1090   23.6660   43.8710 C   0  0  0  0  0  0  0  0  0  0  0  0
   56.4680   23.4480   43.3510 N   0  0  0  0  0  0  0  0  0  0  0  0
   56.6890   22.0300   43.0290 C   0  0  0  0  0  0  0  0  0  0  0  0
   57.5150   24.0020   44.2400 C   0  0  0  0  0  0  0  0  0  0  0  0
   57.4690   25.5100   44.3800 C   0  0  0  0  0  0  0  0  0  0  0  0
   57.0770   26.0980   45.5930 C   0  0  0  0  0  0  0  0  0  0  0  0
   57.0280   27.4890   45.7230 C   0  0  0  0  0  0  0  0  0  0  0  0
   57.3810   28.3200   44.6430 C   0  0  0  0  0  0  0  0  0  0  0  0
   57.3240   29.7970   44.7680 C   0  0  0  0  0  0  0  0  0  0  0  0
   56.2030   30.3700   44.8530 O   0  0  0  0  0  0  0  0  0  0  0  0
   58.5260   30.5850   44.7470 N   0  0  0  0  0  0  0  0  0  0  0  0
   58.6100   31.9260   45.2610 C   0  0  0  0  0  0  0  0  0  0  0  0
   57.7340   32.9060   44.7730 C   0  0  0  0  0  0  0  0  0  0  0  0
   57.8090   34.2190   45.2440 C   0  0  0  0  0  0  0  0  0  0  0  0
   58.7690   34.5670   46.1950 C   0  0  0  0  0  0  0  0  0  0  0  0
   59.6700   33.6130   46.6790 C   0  0  0  0  0  0  0  0  0  0  0  0
   60.6230   34.0250   47.6250 O   0  0  0  0  0  0  0  0  0  0  0  0
   61.9960   33.6380   47.6350 C   0  0  0  0  0  0  0  0  0  0  0  0
   62.0780   32.2790   47.8650 F   0  0  0  0  0  0  0  0  0  0  0  0
   62.5800   33.9200   46.4130 F   0  0  0  0  0  0  0  0  0  0  0  0
   62.6710   34.3030   48.6440 F   0  0  0  0  0  0  0  0  0  0  0  0
   59.5910   32.2890   46.2030 C   0  0  0  0  0  0  0  0  0  0  0  0
   57.7710   27.7260   43.4300 C   0  0  0  0  0  0  0  0  0  0  0  0
   57.8210   26.3350   43.3020 C   0  0  0  0  0  0  0  0  0  0  0  0
   55.1322   23.6623   44.9707 H   0  0  0  0  0  0  0  0  0  0  0  0
   54.7316   24.6362   43.5155 H   0  0  0  0  0  0  0  0  0  0  0  0
   54.4471   22.8625   43.5155 H   0  0  0  0  0  0  0  0  0  0  0  0
   56.7791   21.4522   43.9607 H   0  0  0  0  0  0  0  0  0  0  0  0
   55.8392   21.6504   42.4428 H   0  0  0  0  0  0  0  0  0  0  0  0
   57.6140   21.9270   42.4428 H   0  0  0  0  0  0  0  0  0  0  0  0
   57.3915   23.5578   45.2387 H   0  0  0  0  0  0  0  0  0  0  0  0
   58.4845   23.7539   43.7834 H   0  0  0  0  0  0  0  0  0  0  0  0
   56.8065   25.4597   46.4471 H   0  0  0  0  0  0  0  0  0  0  0  0
   56.7113   27.9375   46.6762 H   0  0  0  0  0  0  0  0  0  0  0  0
   59.3500   30.2090   44.2260 H   0  0  0  0  0  0  0  0  0  0  0  0
   56.9831   32.6393   44.0147 H   0  0  0  0  0  0  0  0  0  0  0  0
   57.1105   34.9794   44.8648 H   0  0  0  0  0  0  0  0  0  0  0  0
   58.8176   35.6009   46.5674 H   0  0  0  0  0  0  0  0  0  0  0  0
   60.3012   31.5335   46.5703 H   0  0  0  0  0  0  0  0  0  0  0  0
   58.0394   28.3619   42.5735 H   0  0  0  0  0  0  0  0  0  0  0  0
   58.1384   25.8847   42.3499 H   0  0  0  0  0  0  0  0  0  0  0  0
  1  2  1  0
  2  3  1  0
  2  4  1  0
  4  5  1  0
  5  6  2  0
  6  7  1  0
  7  8  2  0
  8  9  1  0
  9 10  2  0
  9 11  1  0
 11 12  1  0
 12 13  2  0
 13 14  1  0
 14 15  2  0
 15 16  1  0
 16 17  1  0
 17 18  1  0
 18 19  1  0
 18 20  1  0
 18 21  1  0
 16 22  2  0
  8 23  1  0
 23 24  2  0
 24  5  1  0
 22 12  1  0
  1 25  1  0
  1 26  1  0
  1 27  1  0
  3 28  1  0
  3 29  1  0
  3 30  1  0
  4 31  1  0
  4 32  1  0
  6 33  1  0
  7 34  1  0
 11 35  1  0
 13 36  1  0
 14 37  1  0
 15 38  1  0
 22 39  1  0
 23 40  1  0
 24 41  1  0
M  END
>  <UniqueID>  (23) 
20

>  <SMILES>  (23) 
CN(C)Cc1ccc(C(=O)Nc2cccc(OC(F)(F)F)c2)cc1

>  <Energy>  (23) 
48.761289444797576

>  <Genealogy>  (23) 
CN(C)Cc1ccc(C(=O)Nc2cccc(OC(F)(F)F)c2)cc1 (3D coordinates assigned)
CN(C)Cc1ccc(C(=O)Nc2cccc(OC(F)(F)F)c2)cc1 (optimized conformer: 48.761289444797576 kcal/mol)

>  <smiles>  (23) 
CN(C)Cc1ccc(C(=O)Nc2cccc(OC(F)(F)F)c2)cc1

>  <score_type>  (23) 
oracle

>  <origin>  (23) 
adg

>  <m_score__min__energy>  (23) 
-6.5899999999999999

>  <m_primary>  (23) 
energy

$$$$
23:0
     RDKit          3D

 30 30  0  0  0  0  0  0  0  0999 V2000
   55.3080   29.3750   44.7800 N   0  0  0  0  0  0  0  0  0  0  0  0
   55.7360   30.2140   43.6650 C   0  0  0  0  0  0  0  0  0  0  0  0
   57.0080   29.6530   43.0140 C   0  0  0  0  0  0  0  0  0  0  0  0
   57.2560   28.2610   43.4340 N   0  0  0  0  0  0  0  0  0  0  0  0
   58.6350   28.0630   43.9180 C   0  0  0  0  0  0  0  0  0  0  0  0
   59.1770   29.2980   44.6530 C   0  0  0  0  0  0  0  0  0  0  0  0
   58.1380   29.7000   46.1030 S   0  0  0  0  0  0  0  0  0  0  0  0
   58.2790   31.4820   45.9240 C   0  0  0  0  0  0  0  0  0  0  0  0
   58.2400   32.0670   44.6520 C   0  0  0  0  0  0  0  0  0  0  0  0
   58.3600   33.4540   44.5130 C   0  0  0  0  0  0  0  0  0  0  0  0
   58.5280   34.2570   45.6450 C   0  0  0  0  0  0  0  0  0  0  0  0
   58.5780   33.6750   46.9150 C   0  0  0  0  0  0  0  0  0  0  0  0
   58.4580   32.2890   47.0550 C   0  0  0  0  0  0  0  0  0  0  0  0
   54.3760   28.9700   44.5350 H   0  0  0  0  0  0  0  0  0  0  0  0
   55.1540   29.9900   45.6120 H   0  0  0  0  0  0  0  0  0  0  0  0
   54.9334   30.2515   42.9137 H   0  0  0  0  0  0  0  0  0  0  0  0
   55.9522   31.2226   44.0469 H   0  0  0  0  0  0  0  0  0  0  0  0
   56.8936   29.6823   41.9204 H   0  0  0  0  0  0  0  0  0  0  0  0
   57.8617   30.2691   43.3327 H   0  0  0  0  0  0  0  0  0  0  0  0
   57.0560   27.6060   42.6410 H   0  0  0  0  0  0  0  0  0  0  0  0
   56.6050   28.0260   44.2200 H   0  0  0  0  0  0  0  0  0  0  0  0
   58.6483   27.2064   44.6080 H   0  0  0  0  0  0  0  0  0  0  0  0
   59.2766   27.8834   43.0428 H   0  0  0  0  0  0  0  0  0  0  0  0
   60.2039   29.0946   44.9907 H   0  0  0  0  0  0  0  0  0  0  0  0
   59.1631   30.1535   43.9617 H   0  0  0  0  0  0  0  0  0  0  0  0
   58.1148   31.4348   43.7606 H   0  0  0  0  0  0  0  0  0  0  0  0
   58.3222   33.9123   43.5137 H   0  0  0  0  0  0  0  0  0  0  0  0
   58.6209   35.3477   45.5362 H   0  0  0  0  0  0  0  0  0  0  0  0
   58.7118   34.3078   47.8048 H   0  0  0  0  0  0  0  0  0  0  0  0
   58.5042   31.8318   48.0544 H   0  0  0  0  0  0  0  0  0  0  0  0
  1  2  1  0
  2  3  1  0
  3  4  1  0
  4  5  1  0
  5  6  1  0
  6  7  1  0
  7  8  1  0
  8  9  2  0
  9 10  1  0
 10 11  2  0
 11 12  1  0
 12 13  2  0
 13  8  1  0
  1 14  1  0
  1 15  1  0
  2 16  1  0
  2 17  1  0
  3 18  1  0
  3 19  1  0
  4 20  1  0
  4 21  1  0
  5 22  1  0
  5 23  1  0
  6 24  1  0
  6 25  1  0
  9 26  1  0
 10 27  1  0
 11 28  1  0
 12 29  1  0
 13 30  1  0
M  CHG  1   4   1
M  END
>  <UniqueID>  (24) 
21

>  <SMILES>  (24) 
NCC[NH2+]CCSc1ccccc1

>  <Energy>  (24) 
19.920576719441488

>  <Genealogy>  (24) 
NCC[NH2+]CCSc1ccccc1 (protonated)
NCC[NH2+]CCSc1ccccc1 (3D coordinates assigned)
NCC[NH2+]CCSc1ccccc1 (optimized conformer: 19.920576719441488 kcal/mol)

>  <smiles>  (24) 
NCCNCCSc1ccccc1

>  <score_type>  (24) 
oracle

>  <origin>  (24) 
adg

>  <m_score__min__energy>  (24) 
-4.4199999999999999

>  <m_primary>  (24) 
energy

$$$$
24:0
     RDKit          3D

 31 32  0  0  0  0  0  0  0  0999 V2000
   58.6660   33.7880   46.9610 C   0  0  0  0  0  0  0  0  0  0  0  0
   57.9100   33.2270   45.8360 N   0  0  0  0  0  0  0  0  0  0  0  0
   57.3150   34.1250   44.8390 C   0  0  0  0  0  0  0  0  0  0  0  0
   57.7670   31.7900   45.7340 C   0  0  0  0  0  0  0  0  0  0  0  0
   58.5530   30.9100   46.5020 C   0  0  0  0  0  0  0  0  0  0  0  0
   58.3790   29.5310   46.3670 C   0  0  0  0  0  0  0  0  0  0  0  0
   57.4270   29.0250   45.4750 C   0  0  0  0  0  0  0  0  0  0  0  0
   57.2520   27.5380   45.3120 C   0  0  0  0  0  0  0  0  0  0  0  0
   55.8890   27.1400   45.6640 N   0  0  0  0  0  0  0  0  0  0  0  0
   55.5370   25.9460   46.0390 C   0  0  0  0  0  0  0  0  0  0  0  0
   56.3290   25.2070   46.8670 N   0  0  0  0  0  0  0  0  0  0  0  0
   55.9610   23.9610   47.2610 C   0  0  0  0  0  0  0  0  0  0  0  0
   54.7570   23.4190   46.8160 C   0  0  0  0  0  0  0  0  0  0  0  0
   53.9580   24.1850   45.9680 C   0  0  0  0  0  0  0  0  0  0  0  0
   54.3610   25.4280   45.5970 N   0  0  0  0  0  0  0  0  0  0  0  0
   56.6640   29.9270   44.7240 C   0  0  0  0  0  0  0  0  0  0  0  0
   56.8500   31.2650   44.8710 N   0  0  0  0  0  0  0  0  0  0  0  0
   58.2163   33.4543   47.9078 H   0  0  0  0  0  0  0  0  0  0  0  0
   59.7095   33.4439   46.9094 H   0  0  0  0  0  0  0  0  0  0  0  0
   58.6391   34.8865   46.9094 H   0  0  0  0  0  0  0  0  0  0  0  0
   56.7773   34.9366   45.3511 H   0  0  0  0  0  0  0  0  0  0  0  0
   58.1096   34.5518   44.2094 H   0  0  0  0  0  0  0  0  0  0  0  0
   56.6122   33.5596   44.2094 H   0  0  0  0  0  0  0  0  0  0  0  0
   59.3004   31.3067   47.2049 H   0  0  0  0  0  0  0  0  0  0  0  0
   58.9925   28.8401   46.9640 H   0  0  0  0  0  0  0  0  0  0  0  0
   57.4504   27.2629   44.2656 H   0  0  0  0  0  0  0  0  0  0  0  0
   57.9568   27.0218   45.9805 H   0  0  0  0  0  0  0  0  0  0  0  0
   56.6124   23.3802   47.9306 H   0  0  0  0  0  0  0  0  0  0  0  0
   54.4443   22.4110   47.1262 H   0  0  0  0  0  0  0  0  0  0  0  0
   53.0025   23.7832   45.5999 H   0  0  0  0  0  0  0  0  0  0  0  0
   55.9125   29.5519   44.0136 H   0  0  0  0  0  0  0  0  0  0  0  0
  1  2  1  0
  2  3  1  0
  2  4  1  0
  4  5  2  0
  5  6  1  0
  6  7  2  0
  7  8  1  0
  8  9  1  0
  9 10  2  3
 10 11  1  0
 11 12  2  0
 12 13  1  0
 13 14  2  0
 14 15  1  0
  7 16  1  0
 16 17  2  0
 17  4  1  0
 15 10  1  0
  1 18  1  0
  1 19  1  0
  1 20  1  0
  3 21  1  0
  3 22  1  0
  3 23  1  0
  5 24  1  0
  6 25  1  0
  8 26  1  0
  8 27  1  0
 12 28  1  0
 13 29  1  0
 14 30  1  0
 16 31  1  0
M  CHG  1  15  -1
M  END
>  <UniqueID>  (25) 
22

>  <SMILES>  (25) 
CN(C)c1ccc(CN=c2nccc[n-]2)cn1

>  <Energy>  (25) 
31.295675405448982

>  <Genealogy>  (25) 
CN(C)c1ccc(CN=c2nccc[n-]2)cn1 (protonated)
CN(C)c1ccc(CN=c2nccc[n-]2)cn1 (3D coordinates assigned)
CN(C)c1ccc(CN=c2nccc[n-]2)cn1 (optimized conformer: 31.295675405448982 kcal/mol)

>  <smiles>  (25) 
CN(C)c1ccc(CN=c2nccc[nH]2)cn1

>  <score_type>  (25) 
oracle

>  <origin>  (25) 
adg

>  <m_score__min__energy>  (25) 
-7.6399999999999997

>  <m_primary>  (25) 
energy

$$$$
25:0
     RDKit          3D

 26 27  0  0  0  0  0  0  0  0999 V2000
   58.6660   29.6020   47.3690 C   0  0  0  0  0  0  0  0  0  0  0  0
   58.4260   30.3310   46.0800 C   0  0  0  0  0  0  0  0  0  0  0  0
   58.3660   29.6120   44.9310 N   0  0  0  0  0  0  0  0  0  0  0  0
   58.1600   30.1800   43.7460 N   0  0  0  0  0  0  0  0  0  0  0  0
   58.0000   31.5270   43.6180 C   0  0  0  0  0  0  0  0  0  0  0  0
   57.7760   32.1160   42.2490 C   0  0  0  0  0  0  0  0  0  0  0  0
   58.0750   32.3430   44.7690 C   0  0  0  0  0  0  0  0  0  0  0  0
   58.2490   31.7290   46.0280 C   0  0  0  0  0  0  0  0  0  0  0  0
   58.3500   32.5710   47.2880 C   0  0  0  0  0  0  0  0  0  0  0  0
   57.7630   33.9070   47.1270 N   0  0  0  0  0  0  0  0  0  0  0  0
   58.3140   34.5690   45.9420 C   0  0  0  0  0  0  0  0  0  0  0  0
   57.8840   33.8410   44.6660 C   0  0  0  0  0  0  0  0  0  0  0  0
   58.4460   30.2702   48.2146 H   0  0  0  0  0  0  0  0  0  0  0  0
   58.0109   28.7198   47.4188 H   0  0  0  0  0  0  0  0  0  0  0  0
   59.7171   29.2815   47.4188 H   0  0  0  0  0  0  0  0  0  0  0  0
   58.1240   29.5660   42.9020 H   0  0  0  0  0  0  0  0  0  0  0  0
   57.3866   33.1399   42.3496 H   0  0  0  0  0  0  0  0  0  0  0  0
   58.7284   32.1383   41.6991 H   0  0  0  0  0  0  0  0  0  0  0  0
   57.0495   31.4998   41.6991 H   0  0  0  0  0  0  0  0  0  0  0  0
   57.8229   32.0511   48.1015 H   0  0  0  0  0  0  0  0  0  0  0  0
   59.4184   32.7033   47.5136 H   0  0  0  0  0  0  0  0  0  0  0  0
   56.7250   33.8120   47.0180 H   0  0  0  0  0  0  0  0  0  0  0  0
   57.9499   35.6064   45.9059 H   0  0  0  0  0  0  0  0  0  0  0  0
   59.4120   34.5517   46.0059 H   0  0  0  0  0  0  0  0  0  0  0  0
   56.8202   34.0503   44.4804 H   0  0  0  0  0  0  0  0  0  0  0  0
   58.5142   34.2053   43.8413 H   0  0  0  0  0  0  0  0  0  0  0  0
  1  2  1  0
  2  3  2  0
  3  4  1  0
  4  5  2  0
  5  6  1  0
  5  7  1  0
  7  8  2  0
  8  9  1  0
  9 10  1  0
 10 11  1  0
 11 12  1  0
  8  2  1  0
 12  7  1  0
  1 13  1  0
  1 14  1  0
  1 15  1  0
  4 16  1  0
  6 17  1  0
  6 18  1  0
  6 19  1  0
  9 20  1  0
  9 21  1  0
 10 22  1  0
 11 23  1  0
 11 24  1  0
 12 25  1  0
 12 26  1  0
M  CHG  1   4   1
M  END
>  <UniqueID>  (26) 
23

>  <SMILES>  (26) 
Cc1n[nH+]c(C)c2c1CNCC2

>  <Energy>  (26) 
28.69715863345463

>  <Genealogy>  (26) 
Cc1n[nH+]c(C)c2c1CNCC2 (protonated)
Cc1n[nH+]c(C)c2c1CNCC2 (3D coordinates assigned)
Cc1n[nH+]c(C)c2c1CNCC2 (nonaromatic ring conformer: 28.69715863345463 kcal/mol)

>  <smiles>  (26) 
Cc1nnc(C)c2c1CCNC2

>  <score_type>  (26) 
oracle

>  <origin>  (26) 
adg

>  <m_score__min__energy>  (26) 
-4.3700000000000001

>  <m_primary>  (26) 
energy

$$$$
26:0
     RDKit          3D

 41 43  0  0  0  0  0  0  0  0999 V2000
   59.5680   33.4840   50.7490 C   0  0  0  0  0  0  0  0  0  0  0  0
   60.1710   34.1990   49.6740 O   0  0  0  0  0  0  0  0  0  0  0  0
   61.4120   33.8810   49.0980 C   0  0  0  0  0  0  0  0  0  0  0  0
   62.5570   33.6630   49.8920 C   0  0  0  0  0  0  0  0  0  0  0  0
   63.7860   33.3720   49.2980 C   0  0  0  0  0  0  0  0  0  0  0  0
   63.8900   33.2930   47.9110 C   0  0  0  0  0  0  0  0  0  0  0  0
   62.7670   33.5030   47.1120 C   0  0  0  0  0  0  0  0  0  0  0  0
   61.5170   33.7960   47.6900 C   0  0  0  0  0  0  0  0  0  0  0  0
   60.3620   33.9990   46.8510 N   0  0  0  0  0  0  0  0  0  0  0  0
   59.2590   33.2230   46.8040 C   0  0  0  0  0  0  0  0  0  0  0  0
   58.3970   33.7610   45.8740 C   0  0  0  0  0  0  0  0  0  0  0  0
   57.0340   33.2630   45.5020 C   0  0  0  0  0  0  0  0  0  0  0  0
   57.0470   31.7930   45.3940 N   0  0  0  0  0  0  0  0  0  0  0  0
   57.8720   31.3070   44.2690 C   0  0  0  0  0  0  0  0  0  0  0  0
   58.3410   29.8690   44.4930 C   0  0  0  0  0  0  0  0  0  0  0  0
   57.1920   28.9860   44.0310 C   0  0  0  0  0  0  0  0  0  0  0  0
   56.3810   29.8180   43.0400 C   0  0  0  0  0  0  0  0  0  0  0  0
   57.0220   31.2010   43.0020 C   0  0  0  0  0  0  0  0  0  0  0  0
   59.0310   34.8900   45.3980 C   0  0  0  0  0  0  0  0  0  0  0  0
   60.2280   35.0100   46.0030 N   0  0  0  0  0  0  0  0  0  0  0  0
   59.9172   33.8981   51.7064 H   0  0  0  0  0  0  0  0  0  0  0  0
   58.4741   33.5800   50.6853 H   0  0  0  0  0  0  0  0  0  0  0  0
   59.8472   32.4219   50.6853 H   0  0  0  0  0  0  0  0  0  0  0  0
   62.4809   33.7228   50.9877 H   0  0  0  0  0  0  0  0  0  0  0  0
   64.6736   33.2048   49.9258 H   0  0  0  0  0  0  0  0  0  0  0  0
   64.8600   33.0645   47.4454 H   0  0  0  0  0  0  0  0  0  0  0  0
   62.8585   33.4391   46.0177 H   0  0  0  0  0  0  0  0  0  0  0  0
   59.0795   32.3185   47.4038 H   0  0  0  0  0  0  0  0  0  0  0  0
   56.3121   33.5652   46.2751 H   0  0  0  0  0  0  0  0  0  0  0  0
   56.7441   33.6939   44.5323 H   0  0  0  0  0  0  0  0  0  0  0  0
   56.0590   31.4900   45.2220 H   0  0  0  0  0  0  0  0  0  0  0  0
   58.7106   32.0140   44.1864 H   0  0  0  0  0  0  0  0  0  0  0  0
   59.2450   29.6635   43.9009 H   0  0  0  0  0  0  0  0  0  0  0  0
   58.5972   29.6845   45.5467 H   0  0  0  0  0  0  0  0  0  0  0  0
   57.5807   28.0817   43.5400 H   0  0  0  0  0  0  0  0  0  0  0  0
   56.5725   28.6608   44.8798 H   0  0  0  0  0  0  0  0  0  0  0  0
   56.4141   29.3572   42.0417 H   0  0  0  0  0  0  0  0  0  0  0  0
   55.3258   29.8790   43.3448 H   0  0  0  0  0  0  0  0  0  0  0  0
   57.6543   31.3047   42.1079 H   0  0  0  0  0  0  0  0  0  0  0  0
   56.2627   31.9958   42.9587 H   0  0  0  0  0  0  0  0  0  0  0  0
   58.6241   35.5811   44.6452 H   0  0  0  0  0  0  0  0  0  0  0  0
  1  2  1  0
  2  3  1  0
  3  4  2  0
  4  5  1  0
  5  6  2  0
  6  7  1  0
  7  8  2  0
  8  9  1  0
  9 10  1  0
 10 11  2  0
 11 12  1  0
 12 13  1  0
 13 14  1  0
 14 15  1  0
 15 16  1  0
 16 17  1  0
 17 18  1  0
 11 19  1  0
 19 20  2  0
  8  3  1  0
 20  9  1  0
 18 14  1  0
  1 21  1  0
  1 22  1  0
  1 23  1  0
  4 24  1  0
  5 25  1  0
  6 26  1  0
  7 27  1  0
 10 28  1  0
 12 29  1  0
 12 30  1  0
 13 31  1  0
 14 32  1  0
 15 33  1  0
 15 34  1  0
 16 35  1  0
 16 36  1  0
 17 37  1  0
 17 38  1  0
 18 39  1  0
 18 40  1  0
 19 41  1  0
M  END
>  <UniqueID>  (27) 
24

>  <SMILES>  (27) 
COc1ccccc1-n1cc(CNC2CCCC2)cn1

>  <Energy>  (27) 
76.60217433659318

>  <Genealogy>  (27) 
COc1ccccc1-n1cc(CNC2CCCC2)cn1 (3D coordinates assigned)
COc1ccccc1-n1cc(CNC2CCCC2)cn1 (nonaromatic ring conformer: 76.60217433659318 kcal/mol)

>  <smiles>  (27) 
COc1ccccc1-n1cc(CNC2CCCC2)cn1

>  <score_type>  (27) 
oracle

>  <origin>  (27) 
adg

>  <m_score__min__energy>  (27) 
-7.46

>  <m_primary>  (27) 
energy

$$$$
27:0
     RDKit          3D

 36 39  0  0  0  0  0  0  0  0999 V2000
   55.1470   30.1180   44.1670 O   0  0  0  0  0  0  0  0  0  0  0  0
   56.0740   29.5960   44.8390 C   0  0  0  0  0  0  0  0  0  0  0  0
   55.9870   28.2980   45.2500 N   0  0  0  0  0  0  0  0  0  0  0  0
   56.9820   27.7010   45.9800 C   0  0  0  0  0  0  0  0  0  0  0  0
   58.1400   28.4200   46.3360 C   0  0  0  0  0  0  0  0  0  0  0  0
   58.2230   29.7510   45.9110 C   0  0  0  0  0  0  0  0  0  0  0  0
   57.2120   30.3190   45.1830 C   0  0  0  0  0  0  0  0  0  0  0  0
   57.6030   31.6140   44.9220 C   0  0  0  0  0  0  0  0  0  0  0  0
   58.8170   31.7910   45.4890 N   0  0  0  0  0  0  0  0  0  0  0  0
   59.2000   30.6720   46.0990 N   0  0  0  0  0  0  0  0  0  0  0  0
   60.5090   30.5310   46.7540 C   0  0  2  0  0  0  0  0  0  0  0  0
   60.3200   30.1120   48.2300 C   0  0  0  0  0  0  0  0  0  0  0  0
   60.1440   31.3050   49.1800 C   0  0  0  0  0  0  0  0  0  0  0  0
   61.4390   32.0180   49.5290 C   0  0  0  0  0  0  0  0  0  0  0  0
   61.5310   32.5960   50.8110 C   0  0  0  0  0  0  0  0  0  0  0  0
   62.6700   33.3010   51.2010 C   0  0  0  0  0  0  0  0  0  0  0  0
   63.7350   33.4500   50.3170 C   0  0  0  0  0  0  0  0  0  0  0  0
   63.6600   32.9060   49.0350 C   0  0  0  0  0  0  0  0  0  0  0  0
   62.5130   32.2090   48.6120 C   0  0  0  0  0  0  0  0  0  0  0  0
   62.5220   31.6170   47.2210 C   0  0  0  0  0  0  0  0  0  0  0  0
   61.2510   31.7280   46.6150 O   0  0  0  0  0  0  0  0  0  0  0  0
   56.8752   26.6512   46.2906 H   0  0  0  0  0  0  0  0  0  0  0  0
   58.9453   27.9548   46.9234 H   0  0  0  0  0  0  0  0  0  0  0  0
   57.0324   32.3653   44.3564 H   0  0  0  0  0  0  0  0  0  0  0  0
   59.3820   32.6690   45.4480 H   0  0  0  0  0  0  0  0  0  0  0  0
   61.0890   29.7341   46.2655 H   0  0  0  0  0  0  0  0  0  0  0  0
   59.4266   29.4742   48.3006 H   0  0  0  0  0  0  0  0  0  0  0  0
   61.2326   29.5808   48.5382 H   0  0  0  0  0  0  0  0  0  0  0  0
   59.4687   32.0300   48.7022 H   0  0  0  0  0  0  0  0  0  0  0  0
   59.7402   30.9034   50.1211 H   0  0  0  0  0  0  0  0  0  0  0  0
   60.6922   32.4897   51.5147 H   0  0  0  0  0  0  0  0  0  0  0  0
   62.7266   33.7396   52.2082 H   0  0  0  0  0  0  0  0  0  0  0  0
   64.6365   33.9973   50.6299 H   0  0  0  0  0  0  0  0  0  0  0  0
   64.5088   33.0233   48.3452 H   0  0  0  0  0  0  0  0  0  0  0  0
   63.2612   32.1524   46.6070 H   0  0  0  0  0  0  0  0  0  0  0  0
   62.7825   30.5509   47.2957 H   0  0  0  0  0  0  0  0  0  0  0  0
  1  2  2  0
  2  3  1  0
  3  4  1  0
  4  5  2  0
  5  6  1  0
  6  7  2  0
  7  8  1  0
  8  9  2  0
  9 10  1  0
 10 11  1  0
 11 12  1  0
 12 13  1  0
 13 14  1  0
 14 15  2  0
 15 16  1  0
 16 17  2  0
 17 18  1  0
 18 19  2  0
 19 20  1  0
 20 21  1  0
  7  2  1  0
 21 11  1  0
 10  6  1  0
 19 14  1  0
  4 22  1  0
  5 23  1  0
  8 24  1  0
  9 25  1  0
 11 26  1  6
 12 27  1  0
 12 28  1  0
 13 29  1  0
 13 30  1  0
 15 31  1  0
 16 32  1  0
 17 33  1  0
 18 34  1  0
 20 35  1  0
 20 36  1  0
M  CHG  2   3  -1   9   1
M  END
>  <UniqueID>  (28) 
25

>  <SMILES>  (28) 
O=c1[n-]ccc2c1c[nH+]n2[C@@H]1CCc2ccccc2CO1

>  <Energy>  (28) 
92.90501297529178

>  <Genealogy>  (28) 
O=c1[n-]ccc2c1c[nH+]n2C1CCc2ccccc2CO1 (protonated)
O=c1[n-]ccc2c1c[nH+]n2[C@@H]1CCc2ccccc2CO1 (chirality)
O=c1[n-]ccc2c1c[nH+]n2[C@@H]1CCc2ccccc2CO1 (3D coordinates assigned)
O=c1[n-]ccc2c1c[nH+]n2[C@@H]1CCc2ccccc2CO1 (nonaromatic ring conformer: 92.90501297529178 kcal/mol)

>  <smiles>  (28) 
O=c1[nH]ccc2c1cnn2C1CCc2ccccc2CO1

>  <score_type>  (28) 
oracle

>  <origin>  (28) 
adg

>  <m_score__min__energy>  (28) 
-5.3600000000000003

>  <m_primary>  (28) 
energy

$$$$
28:0
     RDKit          3D

 42 45  0  0  0  0  0  0  0  0999 V2000
   60.7960   30.0360   45.9830 O   0  0  0  0  0  0  0  0  0  0  0  0
   59.7660   30.5800   46.4660 C   0  0  0  0  0  0  0  0  0  0  0  0
   58.7430   29.7760   47.0740 N   0  0  0  0  0  0  0  0  0  0  0  0
   58.6460   28.3490   46.9210 C   0  0  0  0  0  0  0  0  0  0  0  0
   59.7920   27.5300   46.9340 C   0  0  0  0  0  0  0  0  0  0  0  0
   59.6760   26.1470   46.7550 C   0  0  0  0  0  0  0  0  0  0  0  0
   58.4210   25.5750   46.5450 C   0  0  0  0  0  0  0  0  0  0  0  0
   57.2750   26.3800   46.5390 C   0  0  0  0  0  0  0  0  0  0  0  0
   57.3880   27.7630   46.7020 C   0  0  0  0  0  0  0  0  0  0  0  0
   56.0230   25.7800   46.3660 O   0  0  0  0  0  0  0  0  0  0  0  0
   55.8630   24.3630   46.4750 C   0  0  0  0  0  0  0  0  0  0  0  0
   57.0630   23.6430   45.8450 C   0  0  0  0  0  0  0  0  0  0  0  0
   58.2860   24.1980   46.3350 O   0  0  0  0  0  0  0  0  0  0  0  0
   59.6250   32.0560   46.4210 C   0  0  0  0  0  0  0  0  0  0  0  0
   60.3610   32.8300   47.3370 C   0  0  0  0  0  0  0  0  0  0  0  0
   60.2060   34.2170   47.3850 C   0  0  0  0  0  0  0  0  0  0  0  0
   59.3140   34.8510   46.5230 C   0  0  0  0  0  0  0  0  0  0  0  0
   58.5820   34.1040   45.6000 C   0  0  0  0  0  0  0  0  0  0  0  0
   58.7320   32.7080   45.5270 C   0  0  0  0  0  0  0  0  0  0  0  0
   57.9910   31.9750   44.4730 C   0  0  0  0  0  0  0  0  0  0  0  0
   58.1230   32.3500   43.1250 C   0  0  0  0  0  0  0  0  0  0  0  0
   57.4350   31.6500   42.1280 C   0  0  0  0  0  0  0  0  0  0  0  0
   56.6180   30.5680   42.4690 C   0  0  0  0  0  0  0  0  0  0  0  0
   56.4910   30.1820   43.8070 C   0  0  0  0  0  0  0  0  0  0  0  0
   57.1770   30.8790   44.8060 C   0  0  0  0  0  0  0  0  0  0  0  0
   58.0960   30.2390   47.7520 H   0  0  0  0  0  0  0  0  0  0  0  0
   60.7841   27.9803   47.0858 H   0  0  0  0  0  0  0  0  0  0  0  0
   60.5735   25.5115   46.7799 H   0  0  0  0  0  0  0  0  0  0  0  0
   56.4889   28.3953   46.6587 H   0  0  0  0  0  0  0  0  0  0  0  0
   55.7902   24.0864   47.5372 H   0  0  0  0  0  0  0  0  0  0  0  0
   54.9468   24.0639   45.9448 H   0  0  0  0  0  0  0  0  0  0  0  0
   57.0208   22.5742   46.1015 H   0  0  0  0  0  0  0  0  0  0  0  0
   57.0241   23.7696   44.7530 H   0  0  0  0  0  0  0  0  0  0  0  0
   61.0660   32.3373   48.0227 H   0  0  0  0  0  0  0  0  0  0  0  0
   60.7893   34.8100   48.1048 H   0  0  0  0  0  0  0  0  0  0  0  0
   59.1867   35.9426   46.5703 H   0  0  0  0  0  0  0  0  0  0  0  0
   57.8803   34.6123   44.9224 H   0  0  0  0  0  0  0  0  0  0  0  0
   58.7697   33.1971   42.8528 H   0  0  0  0  0  0  0  0  0  0  0  0
   57.5370   31.9512   41.0750 H   0  0  0  0  0  0  0  0  0  0  0  0
   56.0750   30.0203   41.6847 H   0  0  0  0  0  0  0  0  0  0  0  0
   55.8503   29.3286   44.0739 H   0  0  0  0  0  0  0  0  0  0  0  0
   57.0792   30.5683   45.8567 H   0  0  0  0  0  0  0  0  0  0  0  0
  1  2  2  0
  2  3  1  0
  3  4  1  0
  4  5  2  0
  5  6  1  0
  6  7  2  0
  7  8  1  0
  8  9  2  0
  8 10  1  0
 10 11  1  0
 11 12  1  0
 12 13  1  0
  2 14  1  0
 14 15  2  0
 15 16  1  0
 16 17  2  0
 17 18  1  0
 18 19  2  0
 19 20  1  0
 20 21  2  0
 21 22  1  0
 22 23  2  0
 23 24  1  0
 24 25  2  0
  9  4  1  0
 19 14  1  0
 25 20  1  0
 13  7  1  0
  3 26  1  0
  5 27  1  0
  6 28  1  0
  9 29  1  0
 11 30  1  0
 11 31  1  0
 12 32  1  0
 12 33  1  0
 15 34  1  0
 16 35  1  0
 17 36  1  0
 18 37  1  0
 21 38  1  0
 22 39  1  0
 23 40  1  0
 24 41  1  0
 25 42  1  0
M  END
>  <UniqueID>  (29) 
26

>  <SMILES>  (29) 
O=C(Nc1ccc2c(c1)OCCO2)c1ccccc1-c1ccccc1

>  <Energy>  (29) 
61.81000529583349

>  <Genealogy>  (29) 
O=C(Nc1ccc2c(c1)OCCO2)c1ccccc1-c1ccccc1 (3D coordinates assigned)
O=C(Nc1ccc2c(c1)OCCO2)c1ccccc1-c1ccccc1 (nonaromatic ring conformer: 61.81000529583349 kcal/mol)

>  <smiles>  (29) 
O=C(Nc1ccc2c(c1)OCCO2)c1ccccc1-c1ccccc1

>  <score_type>  (29) 
oracle

>  <origin>  (29) 
adg

>  <m_score__min__energy>  (29) 
-8.0500000000000007

>  <m_primary>  (29) 
energy

$$$$
29:0
     RDKit          3D

 32 33  0  0  0  0  0  0  0  0999 V2000
   56.9360   24.4000   43.7830 C   0  0  0  0  0  0  0  0  0  0  0  0
   55.9700   24.5250   44.8190 O   0  0  0  0  0  0  0  0  0  0  0  0
   55.9240   25.6270   45.6770 C   0  0  0  0  0  0  0  0  0  0  0  0
   54.8170   26.1470   45.9890 O   0  0  0  0  0  0  0  0  0  0  0  0
   57.1790   26.1770   46.2120 C   0  0  0  0  0  0  0  0  0  0  0  0
   58.0400   25.5140   47.4950 S   0  0  0  0  0  0  0  0  0  0  0  0
   59.2800   26.6500   47.5080 C   0  0  0  0  0  0  0  0  0  0  0  0
   59.0350   27.5730   46.5010 C   0  0  0  0  0  0  0  0  0  0  0  0
   57.8680   27.3030   45.7640 C   0  0  0  0  0  0  0  0  0  0  0  0
   57.3880   28.1330   44.6970 N   0  0  0  0  0  0  0  0  0  0  0  0
   56.6750   29.3670   44.8510 C   0  0  0  0  0  0  0  0  0  0  0  0
   55.4170   29.3360   44.8810 O   0  0  0  0  0  0  0  0  0  0  0  0
   57.3710   30.6730   44.9210 C   0  0  0  0  0  0  0  0  0  0  0  0
   58.1930   30.9770   46.0180 C   0  0  0  0  0  0  0  0  0  0  0  0
   58.8500   32.2080   46.0950 C   0  0  0  0  0  0  0  0  0  0  0  0
   58.6870   33.1640   45.0750 C   0  0  0  0  0  0  0  0  0  0  0  0
   59.3260   34.4130   45.1030 O   0  0  0  0  0  0  0  0  0  0  0  0
   59.6680   35.1130   46.2960 C   0  0  0  0  0  0  0  0  0  0  0  0
   57.8550   32.8680   43.9900 C   0  0  0  0  0  0  0  0  0  0  0  0
   57.1980   31.6370   43.9130 C   0  0  0  0  0  0  0  0  0  0  0  0
   57.9344   24.2708   44.2263 H   0  0  0  0  0  0  0  0  0  0  0  0
   56.6952   23.5255   43.1607 H   0  0  0  0  0  0  0  0  0  0  0  0
   56.9257   25.3070   43.1607 H   0  0  0  0  0  0  0  0  0  0  0  0
   60.1379   26.6598   48.1964 H   0  0  0  0  0  0  0  0  0  0  0  0
   59.6904   28.4329   46.2987 H   0  0  0  0  0  0  0  0  0  0  0  0
   58.3210   30.2395   46.8241 H   0  0  0  0  0  0  0  0  0  0  0  0
   59.4971   32.4307   46.9562 H   0  0  0  0  0  0  0  0  0  0  0  0
   59.3748   34.5129   47.1701 H   0  0  0  0  0  0  0  0  0  0  0  0
   60.7536   35.2890   46.3195 H   0  0  0  0  0  0  0  0  0  0  0  0
   59.1396   36.0775   46.3195 H   0  0  0  0  0  0  0  0  0  0  0  0
   57.7167   33.6107   43.1905 H   0  0  0  0  0  0  0  0  0  0  0  0
   56.5410   31.4211   43.0576 H   0  0  0  0  0  0  0  0  0  0  0  0
  1  2  1  0
  2  3  1  0
  3  4  2  0
  3  5  1  0
  5  6  1  0
  6  7  1  0
  7  8  2  0
  8  9  1  0
  9 10  1  0
 10 11  1  0
 11 12  2  0
 11 13  1  0
 13 14  2  0
 14 15  1  0
 15 16  2  0
 16 17  1  0
 17 18  1  0
 16 19  1  0
 19 20  2  0
  9  5  2  0
 20 13  1  0
  1 21  1  0
  1 22  1  0
  1 23  1  0
  7 24  1  0
  8 25  1  0
 14 26  1  0
 15 27  1  0
 18 28  1  0
 18 29  1  0
 18 30  1  0
 19 31  1  0
 20 32  1  0
M  CHG  1  10  -1
M  END
>  <UniqueID>  (30) 
27

>  <SMILES>  (30) 
COC(=O)c1sccc1[N-]C(=O)c1ccc(OC)cc1

>  <Energy>  (30) 
61.51643439940903

>  <Genealogy>  (30) 
COC(=O)c1sccc1[N-]C(=O)c1ccc(OC)cc1 (protonated)
COC(=O)c1sccc1[N-]C(=O)c1ccc(OC)cc1 (3D coordinates assigned)
COC(=O)c1sccc1[N-]C(=O)c1ccc(OC)cc1 (optimized conformer: 61.51643439940903 kcal/mol)

>  <smiles>  (30) 
COC(=O)c1sccc1NC(=O)c1ccc(OC)cc1

>  <score_type>  (30) 
oracle

>  <origin>  (30) 
adg

>  <m_score__min__energy>  (30) 
-8.3699999999999992

>  <m_primary>  (30) 
energy

$$$$
30:0
     RDKit          3D

 44 46  0  0  0  0  0  0  0  0999 V2000
   57.3751   31.2241   41.8137 H   0  0  0  0  0  0  0  0  0  0  0  0
   57.3830   31.4860   42.8820 C   0  0  0  0  0  0  0  0  0  0  0  0
   57.8630   32.6820   43.2410 C   0  0  0  0  0  0  0  0  0  0  0  0
   58.6231   33.1654   42.6096 H   0  0  0  0  0  0  0  0  0  0  0  0
   57.3890   33.3860   44.4900 C   0  0  0  0  0  0  0  0  0  0  0  0
   56.5078   32.8533   44.8770 H   0  0  0  0  0  0  0  0  0  0  0  0
   57.1582   34.4241   44.2089 H   0  0  0  0  0  0  0  0  0  0  0  0
   58.4130   33.4410   45.5620 N   0  0  0  0  0  0  0  0  0  0  0  0
   59.0320   32.6080   45.4070 H   0  0  0  0  0  0  0  0  0  0  0  0
   59.2710   34.6490   45.4500 C   0  0  0  0  0  0  0  0  0  0  0  0
   58.6317   35.5106   45.2072 H   0  0  0  0  0  0  0  0  0  0  0  0
   60.0136   34.4506   44.6631 H   0  0  0  0  0  0  0  0  0  0  0  0
   60.0490   34.9650   46.7460 C   0  0  0  0  0  0  0  0  0  0  0  0
   59.5290   35.7669   47.2905 H   0  0  0  0  0  0  0  0  0  0  0  0
   61.0674   35.2792   46.4738 H   0  0  0  0  0  0  0  0  0  0  0  0
   60.1420   33.7810   47.6100 N   0  0  0  0  0  0  0  0  0  0  0  0
   61.3900   33.4300   48.2280 C   0  0  0  0  0  0  0  0  0  0  0  0
   61.8970   34.2150   49.2780 C   0  0  0  0  0  0  0  0  0  0  0  0
   61.3343   35.0943   49.6246 H   0  0  0  0  0  0  0  0  0  0  0  0
   63.1100   33.8850   49.8830 C   0  0  0  0  0  0  0  0  0  0  0  0
   63.5032   34.5073   50.7004 H   0  0  0  0  0  0  0  0  0  0  0  0
   63.8250   32.7670   49.4530 C   0  0  0  0  0  0  0  0  0  0  0  0
   64.7824   32.5107   49.9301 H   0  0  0  0  0  0  0  0  0  0  0  0
   63.3270   31.9720   48.4170 C   0  0  0  0  0  0  0  0  0  0  0  0
   63.8944   31.0913   48.0818 H   0  0  0  0  0  0  0  0  0  0  0  0
   62.1020   32.2930   47.8000 C   0  0  0  0  0  0  0  0  0  0  0  0
   61.5550   31.5000   46.7770 O   0  0  0  0  0  0  0  0  0  0  0  0
   60.7910   30.3190   46.9900 C   0  0  0  0  0  0  0  0  0  0  0  0
   60.6784   30.1450   48.0703 H   0  0  0  0  0  0  0  0  0  0  0  0
   59.7978   30.4373   46.5322 H   0  0  0  0  0  0  0  0  0  0  0  0
   61.3060   29.4616   46.5322 H   0  0  0  0  0  0  0  0  0  0  0  0
   58.9250   33.0320   47.9440 C   0  0  0  0  0  0  0  0  0  0  0  0
   58.5737   33.3387   48.9403 H   0  0  0  0  0  0  0  0  0  0  0  0
   59.1571   31.9568   47.9367 H   0  0  0  0  0  0  0  0  0  0  0  0
   57.8210   33.3070   46.9130 C   0  0  0  0  0  0  0  0  0  0  0  0
   57.3000   34.2392   47.1767 H   0  0  0  0  0  0  0  0  0  0  0  0
   57.1085   32.4689   46.9140 H   0  0  0  0  0  0  0  0  0  0  0  0
   56.8640   30.5020   43.8500 C   0  0  0  0  0  0  0  0  0  0  0  0
   57.5340   30.1470   44.9590 N   0  0  0  0  0  0  0  0  0  0  0  0
   56.7270   29.2420   45.5520 C   0  0  0  0  0  0  0  0  0  0  0  0
   56.9766   28.7414   46.4992 H   0  0  0  0  0  0  0  0  0  0  0  0
   55.5850   29.0100   44.8720 N   0  0  0  0  0  0  0  0  0  0  0  0
   55.6730   29.8080   43.7950 C   0  0  0  0  0  0  0  0  0  0  0  0
   54.9186   29.8940   42.9991 H   0  0  0  0  0  0  0  0  0  0  0  0
  1  2  1  0
  2  3  2  0
  3  4  1  0
  3  5  1  0
  5  6  1  0
  5  7  1  0
  5  8  1  0
  8  9  1  0
  8 10  1  0
 10 11  1  0
 10 12  1  0
 10 13  1  0
 13 14  1  0
 13 15  1  0
 13 16  1  0
 16 17  1  0
 17 18  2  0
 18 19  1  0
 18 20  1  0
 20 21  1  0
 20 22  2  0
 22 23  1  0
 22 24  1  0
 24 25  1  0
 24 26  2  0
 26 27  1  0
 27 28  1  0
 28 29  1  0
 28 30  1  0
 28 31  1  0
 16 32  1  0
 32 33  1  0
 32 34  1  0
 32 35  1  0
 35 36  1  0
 35 37  1  0
  2 38  1  0
 38 39  1  0
 39 40  2  0
 40 41  1  0
 40 42  1  0
 42 43  1  0
 43 44  1  0
 35  8  1  0
 43 38  2  0
 26 17  1  0
M  CHG  2   8   1  42  -1
M  END
>  <UniqueID>  (31) 
28

>  <SMILES>  (31) 
COc1ccccc1N1CC[NH+](C/C=C/c2c[n-]cn2)CC1

>  <Energy>  (31) 
83.9407464014023

>  <Genealogy>  (31) 
COc1ccccc1N1CC[NH+](CC=Cc2c[n-]cn2)CC1 (protonated)
COc1ccccc1N1CC[NH+](C/C=C/c2c[n-]cn2)CC1 (cis-trans isomerization)
COc1ccccc1N1CC[NH+](C/C=C/c2c[n-]cn2)CC1 (3D coordinates assigned)
COc1ccccc1N1CC[NH+](C/C=C/c2c[n-]cn2)CC1 (nonaromatic ring conformer: 83.9407464014023 kcal/mol)

>  <smiles>  (31) 
COc1ccccc1N1CCN(CC=Cc2c[nH]cn2)CC1

>  <score_type>  (31) 
oracle

>  <origin>  (31) 
adg

>  <m_score__min__energy>  (31) 
-7.3099999999999996

>  <m_primary>  (31) 
energy

$$$$
31:0
     RDKit          3D

 33 34  0  0  0  0  0  0  0  0999 V2000
   63.3230   33.8660   46.4180 C   0  0  0  0  0  0  0  0  0  0  0  0
   63.7770   32.9760   47.5710 C   0  0  0  0  0  0  0  0  0  0  0  0
   62.7140   31.9140   47.9030 C   0  0  0  0  0  0  0  0  0  0  0  0
   61.3360   32.4400   47.8300 N   0  0  0  0  0  0  0  0  0  0  0  0
   60.9950   33.4430   48.8620 C   0  0  0  0  0  0  0  0  0  0  0  0
   59.8850   34.4250   48.4430 C   0  0  0  0  0  0  0  0  0  0  0  0
   59.2670   34.0500   47.1280 C   0  0  0  0  0  0  0  0  0  0  0  0
   58.9440   34.9810   46.1440 C   0  0  0  0  0  0  0  0  0  0  0  0
   58.3170   34.1410   44.8310 S   0  0  0  0  0  0  0  0  0  0  0  0
   58.4850   32.6360   45.5660 C   0  0  0  0  0  0  0  0  0  0  0  0
   58.1200   31.3490   44.9620 C   0  0  0  0  0  0  0  0  0  0  0  0
   57.0520   31.1180   44.1010 C   0  0  0  0  0  0  0  0  0  0  0  0
   56.9560   29.7840   43.6870 C   0  0  0  0  0  0  0  0  0  0  0  0
   57.9440   28.9730   44.2240 C   0  0  0  0  0  0  0  0  0  0  0  0
   58.1520   27.1050   43.9020 Br  0  0  0  0  0  0  0  0  0  0  0  0
   58.9410   29.8990   45.2090 S   0  0  0  0  0  0  0  0  0  0  0  0
   59.0150   32.7530   46.8030 N   0  0  0  0  0  0  0  0  0  0  0  0
   62.8577   34.7781   46.8201 H   0  0  0  0  0  0  0  0  0  0  0  0
   64.1920   34.1389   45.8013 H   0  0  0  0  0  0  0  0  0  0  0  0
   62.5919   33.3227   45.8013 H   0  0  0  0  0  0  0  0  0  0  0  0
   64.7128   32.4715   47.2885 H   0  0  0  0  0  0  0  0  0  0  0  0
   63.9304   33.6063   48.4593 H   0  0  0  0  0  0  0  0  0  0  0  0
   62.8115   31.0839   47.1879 H   0  0  0  0  0  0  0  0  0  0  0  0
   62.8878   31.5842   48.9379 H   0  0  0  0  0  0  0  0  0  0  0  0
   61.1870   32.8550   46.8810 H   0  0  0  0  0  0  0  0  0  0  0  0
   60.6670   31.6400   47.9180 H   0  0  0  0  0  0  0  0  0  0  0  0
   60.6618   32.9100   49.7648 H   0  0  0  0  0  0  0  0  0  0  0  0
   61.9011   34.0429   49.0324 H   0  0  0  0  0  0  0  0  0  0  0  0
   59.1020   34.4259   49.2156 H   0  0  0  0  0  0  0  0  0  0  0  0
   60.3378   35.4214   48.3328 H   0  0  0  0  0  0  0  0  0  0  0  0
   59.0757   36.0708   46.2139 H   0  0  0  0  0  0  0  0  0  0  0  0
   56.3535   31.9040   43.7781 H   0  0  0  0  0  0  0  0  0  0  0  0
   56.1755   29.4165   43.0046 H   0  0  0  0  0  0  0  0  0  0  0  0
  1  2  1  0
  2  3  1  0
  3  4  1  0
  4  5  1  0
  5  6  1  0
  6  7  1  0
  7  8  2  0
  8  9  1  0
  9 10  1  0
 10 11  1  0
 11 12  2  0
 12 13  1  0
 13 14  2  0
 14 15  1  0
 14 16  1  0
 10 17  2  0
 17  7  1  0
 16 11  1  0
  1 18  1  0
  1 19  1  0
  1 20  1  0
  2 21  1  0
  2 22  1  0
  3 23  1  0
  3 24  1  0
  4 25  1  0
  4 26  1  0
  5 27  1  0
  5 28  1  0
  6 29  1  0
  6 30  1  0
  8 31  1  0
 12 32  1  0
 13 33  1  0
M  CHG  1   4   1
M  END
>  <UniqueID>  (32) 
29

>  <SMILES>  (32) 
CCC[NH2+]CCc1csc(-c2ccc(Br)s2)n1

>  <Energy>  (32) 
82.7383208157355

>  <Genealogy>  (32) 
CCC[NH2+]CCc1csc(-c2ccc(Br)s2)n1 (protonated)
CCC[NH2+]CCc1csc(-c2ccc(Br)s2)n1 (3D coordinates assigned)
CCC[NH2+]CCc1csc(-c2ccc(Br)s2)n1 (optimized conformer: 82.7383208157355 kcal/mol)

>  <smiles>  (32) 
CCCNCCc1csc(-c2ccc(Br)s2)n1

>  <score_type>  (32) 
oracle

>  <origin>  (32) 
adg

>  <m_score__min__energy>  (32) 
-5.2000000000000002

>  <m_primary>  (32) 
energy

$$$$
32:0
     RDKit          3D

 30 32  0  0  0  0  0  0  0  0999 V2000
   57.8450   33.9810   45.1580 C   0  0  0  0  0  0  0  0  0  0  0  0
   57.5020   33.4350   46.3970 C   0  0  0  0  0  0  0  0  0  0  0  0
   58.4140   33.4760   47.4570 C   0  0  0  0  0  0  0  0  0  0  0  0
   59.6770   34.0650   47.2820 C   0  0  0  0  0  0  0  0  0  0  0  0
   60.6800   34.0810   48.4050 C   0  0  0  0  0  0  0  0  0  0  0  0
   61.8770   33.3250   48.0290 N   0  0  0  0  0  0  0  0  0  0  0  0
   63.0970   33.8410   47.7900 C   0  0  0  0  0  0  0  0  0  0  0  0
   63.9060   32.9110   47.2560 N   0  0  0  0  0  0  0  0  0  0  0  0
   63.2190   31.7880   47.1220 N   0  0  0  0  0  0  0  0  0  0  0  0
   61.9850   32.0430   47.6030 C   0  0  0  0  0  0  0  0  0  0  0  0
   60.8950   31.0570   47.5590 C   0  0  0  0  0  0  0  0  0  0  0  0
   60.5060   30.3390   48.6980 C   0  0  0  0  0  0  0  0  0  0  0  0
   59.4990   29.4320   48.6060 N   0  0  0  0  0  0  0  0  0  0  0  0
   58.8650   29.2000   47.4280 C   0  0  0  0  0  0  0  0  0  0  0  0
   59.2670   29.8930   46.2860 C   0  0  0  0  0  0  0  0  0  0  0  0
   60.2750   30.8010   46.3750 N   0  0  0  0  0  0  0  0  0  0  0  0
   60.0140   34.6100   46.0320 C   0  0  0  0  0  0  0  0  0  0  0  0
   59.1000   34.5680   44.9760 C   0  0  0  0  0  0  0  0  0  0  0  0
   57.1270   33.9489   44.3253 H   0  0  0  0  0  0  0  0  0  0  0  0
   56.5142   32.9725   46.5394 H   0  0  0  0  0  0  0  0  0  0  0  0
   58.1408   33.0452   48.4316 H   0  0  0  0  0  0  0  0  0  0  0  0
   60.9621   35.1213   48.6247 H   0  0  0  0  0  0  0  0  0  0  0  0
   60.2286   33.6169   49.2943 H   0  0  0  0  0  0  0  0  0  0  0  0
   63.3907   34.8796   48.0024 H   0  0  0  0  0  0  0  0  0  0  0  0
   64.8980   33.0410   46.9590 H   0  0  0  0  0  0  0  0  0  0  0  0
   61.0125   30.5087   49.6596 H   0  0  0  0  0  0  0  0  0  0  0  0
   58.0419   28.4722   47.3746 H   0  0  0  0  0  0  0  0  0  0  0  0
   58.7725   29.7063   45.3213 H   0  0  0  0  0  0  0  0  0  0  0  0
   61.0014   35.0717   45.8839 H   0  0  0  0  0  0  0  0  0  0  0  0
   59.3688   34.9977   43.9997 H   0  0  0  0  0  0  0  0  0  0  0  0
  1  2  2  0
  2  3  1  0
  3  4  2  0
  4  5  1  0
  5  6  1  0
  6  7  1  0
  7  8  2  0
  8  9  1  0
  9 10  2  0
 10 11  1  0
 11 12  2  0
 12 13  1  0
 13 14  2  0
 14 15  1  0
 15 16  2  0
  4 17  1  0
 17 18  2  0
 18  1  1  0
 10  6  1  0
 16 11  1  0
  1 19  1  0
  2 20  1  0
  3 21  1  0
  5 22  1  0
  5 23  1  0
  7 24  1  0
  8 25  1  0
 12 26  1  0
 14 27  1  0
 15 28  1  0
 17 29  1  0
 18 30  1  0
M  CHG  1   8   1
M  END
>  <UniqueID>  (33) 
30

>  <SMILES>  (33) 
c1ccc(Cn2c[nH+]nc2-c2cnccn2)cc1

>  <Energy>  (33) 
72.55787695949681

>  <Genealogy>  (33) 
c1ccc(Cn2c[nH+]nc2-c2cnccn2)cc1 (protonated)
c1ccc(Cn2c[nH+]nc2-c2cnccn2)cc1 (3D coordinates assigned)
c1ccc(Cn2c[nH+]nc2-c2cnccn2)cc1 (optimized conformer: 72.55787695949681 kcal/mol)

>  <smiles>  (33) 
c1ccc(Cn2cnnc2-c2cnccn2)cc1

>  <score_type>  (33) 
oracle

>  <origin>  (33) 
adg

>  <m_score__min__energy>  (33) 
-5.0199999999999996

>  <m_primary>  (33) 
energy

$$$$
33:0
     RDKit          3D

 45 48  0  0  0  0  0  0  0  0999 V2000
   55.6640   24.6030   46.7930 O   0  0  0  0  0  0  0  0  0  0  0  0
   56.2240   25.6550   46.3880 C   0  0  0  0  0  0  0  0  0  0  0  0
   55.5270   26.7390   45.9600 N   0  0  0  0  0  0  0  0  0  0  0  0
   56.5110   27.5990   45.6340 C   0  0  0  0  0  0  0  0  0  0  0  0
   56.3780   28.8880   45.1250 C   0  0  0  0  0  0  0  0  0  0  0  0
   57.5600   29.6160   44.8530 C   0  0  0  0  0  0  0  0  0  0  0  0
   57.4720   30.9980   44.2600 C   0  0  0  0  0  0  0  0  0  0  0  0
   58.4650   31.9540   44.9310 C   0  0  0  0  0  0  0  0  0  0  0  0
   57.8110   33.2390   45.2740 N   0  0  0  0  0  0  0  0  0  0  0  0
   57.4350   33.3090   46.7020 C   0  0  0  0  0  0  0  0  0  0  0  0
   58.6780   33.3300   47.6090 C   0  0  0  0  0  0  0  0  0  0  0  0
   59.7460   34.1310   47.0010 N   0  0  0  0  0  0  0  0  0  0  0  0
   61.1150   33.9420   47.4110 C   0  0  0  0  0  0  0  0  0  0  0  0
   62.0990   33.5950   46.4670 C   0  0  0  0  0  0  0  0  0  0  0  0
   63.4240   33.3950   46.8690 C   0  0  0  0  0  0  0  0  0  0  0  0
   63.7770   33.5360   48.2130 C   0  0  0  0  0  0  0  0  0  0  0  0
   62.8050   33.8710   49.1610 C   0  0  0  0  0  0  0  0  0  0  0  0
   63.2490   34.0440   50.8490 Cl  0  0  0  0  0  0  0  0  0  0  0  0
   61.4780   34.0710   48.7620 C   0  0  0  0  0  0  0  0  0  0  0  0
   59.3880   35.1060   45.9670 C   0  0  0  0  0  0  0  0  0  0  0  0
   58.6030   34.4190   44.8310 C   0  0  0  0  0  0  0  0  0  0  0  0
   58.8270   29.0190   45.0860 C   0  0  0  0  0  0  0  0  0  0  0  0
   58.9200   27.7130   45.6000 C   0  0  0  0  0  0  0  0  0  0  0  0
   57.7330   27.0370   45.8630 C   0  0  0  0  0  0  0  0  0  0  0  0
   57.5700   25.7980   46.3430 N   0  0  0  0  0  0  0  0  0  0  0  0
   55.3860   29.3261   44.9404 H   0  0  0  0  0  0  0  0  0  0  0  0
   57.6984   30.9421   43.1850 H   0  0  0  0  0  0  0  0  0  0  0  0
   56.4543   31.3825   44.4228 H   0  0  0  0  0  0  0  0  0  0  0  0
   58.8484   31.4880   45.8507 H   0  0  0  0  0  0  0  0  0  0  0  0
   59.2888   32.1545   44.2302 H   0  0  0  0  0  0  0  0  0  0  0  0
   56.8509   34.2251   46.8739 H   0  0  0  0  0  0  0  0  0  0  0  0
   56.8416   32.4161   46.9481 H   0  0  0  0  0  0  0  0  0  0  0  0
   58.4083   33.7659   48.5822 H   0  0  0  0  0  0  0  0  0  0  0  0
   59.0386   32.2992   47.7412 H   0  0  0  0  0  0  0  0  0  0  0  0
   61.8251   33.4804   45.4078 H   0  0  0  0  0  0  0  0  0  0  0  0
   64.1889   33.1263   46.1255 H   0  0  0  0  0  0  0  0  0  0  0  0
   64.8204   33.3834   48.5261 H   0  0  0  0  0  0  0  0  0  0  0  0
   60.7151   34.3307   49.5107 H   0  0  0  0  0  0  0  0  0  0  0  0
   58.7648   35.8952   46.4128 H   0  0  0  0  0  0  0  0  0  0  0  0
   60.3090   35.5417   45.5523 H   0  0  0  0  0  0  0  0  0  0  0  0
   57.9128   35.1548   44.3926 H   0  0  0  0  0  0  0  0  0  0  0  0
   59.3448   34.0523   44.1063 H   0  0  0  0  0  0  0  0  0  0  0  0
   59.7445   29.5831   44.8624 H   0  0  0  0  0  0  0  0  0  0  0  0
   59.8967   27.2429   45.7873 H   0  0  0  0  0  0  0  0  0  0  0  0
   58.3040   25.1080   46.6160 H   0  0  0  0  0  0  0  0  0  0  0  0
  1  2  2  0
  2  3  1  0
  3  4  1  0
  4  5  2  0
  5  6  1  0
  6  7  1  0
  7  8  1  0
  8  9  1  0
  9 10  1  0
 10 11  1  0
 11 12  1  0
 12 13  1  0
 13 14  2  0
 14 15  1  0
 15 16  2  0
 16 17  1  0
 17 18  1  0
 17 19  2  0
 12 20  1  0
 20 21  1  0
  6 22  2  0
 22 23  1  0
 23 24  2  0
 24 25  1  0
 25  2  1  0
 24  4  1  0
 21  9  1  0
 19 13  1  0
  5 26  1  0
  7 27  1  0
  7 28  1  0
  8 29  1  0
  8 30  1  0
 10 31  1  0
 10 32  1  0
 11 33  1  0
 11 34  1  0
 14 35  1  0
 15 36  1  0
 16 37  1  0
 19 38  1  0
 20 39  1  0
 20 40  1  0
 21 41  1  0
 21 42  1  0
 22 43  1  0
 23 44  1  0
 25 45  1  0
M  CHG  1   3  -1
M  END
>  <UniqueID>  (34) 
31

>  <SMILES>  (34) 
O=c1[n-]c2cc(CCN3CCN(c4cccc(Cl)c4)CC3)ccc2[nH]1

>  <Energy>  (34) 
94.79057499962259

>  <Genealogy>  (34) 
O=c1[n-]c2cc(CCN3CCN(c4cccc(Cl)c4)CC3)ccc2[nH]1 (protonated)
O=c1[n-]c2cc(CCN3CCN(c4cccc(Cl)c4)CC3)ccc2[nH]1 (3D coordinates assigned)
O=c1[n-]c2cc(CCN3CCN(c4cccc(Cl)c4)CC3)ccc2[nH]1 (nonaromatic ring conformer: 94.79057499962259 kcal/mol)

>  <smiles>  (34) 
O=c1[nH]c2ccc(CCN3CCN(c4cccc(Cl)c4)CC3)cc2[nH]1

>  <score_type>  (34) 
oracle

>  <origin>  (34) 
adg

>  <m_score__min__energy>  (34) 
-11.02

>  <m_primary>  (34) 
energy

$$$$
34:0
     RDKit          3D

 42 44  0  0  0  0  0  0  0  0999 V2000
   56.3530   29.6340   43.5510 C   0  0  0  0  0  0  0  0  0  0  0  0
   56.9620   30.9680   43.8150 C   0  0  0  0  0  0  0  0  0  0  0  0
   57.0220   31.5310   45.0400 N   0  0  0  0  0  0  0  0  0  0  0  0
   57.6810   32.7220   45.0190 C   0  0  0  0  0  0  0  0  0  0  0  0
   57.8660   33.5500   46.2660 C   0  0  0  0  0  0  0  0  0  0  0  0
   59.1670   33.3240   46.9430 N   0  0  0  0  0  0  0  0  0  0  0  0
   60.3020   33.4340   46.0030 C   0  0  0  0  0  0  0  0  0  0  0  0
   61.6270   33.5620   46.7660 C   0  0  0  0  0  0  0  0  0  0  0  0
   61.6400   32.7530   48.0730 C   0  0  0  0  0  0  0  0  0  0  0  0
   60.6570   31.5710   48.0240 C   0  0  2  0  0  0  0  0  0  0  0  0
   61.0100   30.6710   46.9670 O   0  0  0  0  0  0  0  0  0  0  0  0
   60.1930   29.6620   46.4330 C   0  0  0  0  0  0  0  0  0  0  0  0
   60.3640   29.3130   45.0900 C   0  0  0  0  0  0  0  0  0  0  0  0
   59.5730   28.3160   44.5160 C   0  0  0  0  0  0  0  0  0  0  0  0
   58.6100   27.6760   45.2950 C   0  0  0  0  0  0  0  0  0  0  0  0
   58.4460   28.0260   46.5990 N   0  0  0  0  0  0  0  0  0  0  0  0
   59.2050   28.9940   47.1810 C   0  0  0  0  0  0  0  0  0  0  0  0
   59.2050   32.0900   47.7830 C   0  0  1  0  0  0  0  0  0  0  0  0
   58.5210   32.3700   49.1330 C   0  0  0  0  0  0  0  0  0  0  0  0
   58.1750   33.1010   43.7720 C   0  0  0  0  0  0  0  0  0  0  0  0
   57.7580   31.9040   42.6680 S   0  0  0  0  0  0  0  0  0  0  0  0
   56.1268   29.1386   44.5067 H   0  0  0  0  0  0  0  0  0  0  0  0
   55.4243   29.7623   42.9757 H   0  0  0  0  0  0  0  0  0  0  0  0
   57.0583   29.0163   42.9757 H   0  0  0  0  0  0  0  0  0  0  0  0
   57.7974   34.6128   45.9908 H   0  0  0  0  0  0  0  0  0  0  0  0
   57.0787   33.2485   46.9725 H   0  0  0  0  0  0  0  0  0  0  0  0
   60.3351   32.5350   45.3700 H   0  0  0  0  0  0  0  0  0  0  0  0
   60.1624   34.3320   45.3832 H   0  0  0  0  0  0  0  0  0  0  0  0
   62.4411   33.2006   46.1204 H   0  0  0  0  0  0  0  0  0  0  0  0
   61.7570   34.6219   47.0302 H   0  0  0  0  0  0  0  0  0  0  0  0
   62.6554   32.3647   48.2411 H   0  0  0  0  0  0  0  0  0  0  0  0
   61.3310   33.4205   48.8909 H   0  0  0  0  0  0  0  0  0  0  0  0
   60.7072   31.0419   48.9871 H   0  0  0  0  0  0  0  0  0  0  0  0
   61.1247   29.8259   44.4832 H   0  0  0  0  0  0  0  0  0  0  0  0
   59.7081   28.0383   43.4602 H   0  0  0  0  0  0  0  0  0  0  0  0
   57.9823   26.8873   44.8546 H   0  0  0  0  0  0  0  0  0  0  0  0
   59.0463   29.2550   48.2377 H   0  0  0  0  0  0  0  0  0  0  0  0
   58.6677   31.3015   47.2357 H   0  0  0  0  0  0  0  0  0  0  0  0
   59.1999   32.0921   49.9526 H   0  0  0  0  0  0  0  0  0  0  0  0
   58.2774   33.4402   49.2056 H   0  0  0  0  0  0  0  0  0  0  0  0
   57.5969   31.7778   49.2056 H   0  0  0  0  0  0  0  0  0  0  0  0
   58.7376   34.0198   43.5499 H   0  0  0  0  0  0  0  0  0  0  0  0
  1  2  1  0
  2  3  2  0
  3  4  1  0
  4  5  1  0
  5  6  1  0
  6  7  1  0
  7  8  1  0
  8  9  1  0
  9 10  1  0
 10 11  1  0
 11 12  1  0
 12 13  2  0
 13 14  1  0
 14 15  2  0
 15 16  1  0
 16 17  2  0
 10 18  1  0
 18 19  1  0
  4 20  2  0
 20 21  1  0
 21  2  1  0
 18  6  1  0
 17 12  1  0
  1 22  1  0
  1 23  1  0
  1 24  1  0
  5 25  1  0
  5 26  1  0
  7 27  1  0
  7 28  1  0
  8 29  1  0
  8 30  1  0
  9 31  1  0
  9 32  1  0
 10 33  1  1
 13 34  1  0
 14 35  1  0
 15 36  1  0
 17 37  1  0
 18 38  1  6
 19 39  1  0
 19 40  1  0
 19 41  1  0
 20 42  1  0
M  END
>  <UniqueID>  (35) 
32

>  <SMILES>  (35) 
Cc1nc(CN2CCC[C@H](Oc3cccnc3)[C@H]2C)cs1

>  <Energy>  (35) 
79.5447376290747

>  <Genealogy>  (35) 
Cc1nc(CN2CCC[C@H](Oc3cccnc3)[C@H]2C)cs1 (chirality)
Cc1nc(CN2CCC[C@H](Oc3cccnc3)[C@H]2C)cs1 (3D coordinates assigned)
Cc1nc(CN2CCC[C@H](Oc3cccnc3)[C@H]2C)cs1 (nonaromatic ring conformer: 79.5447376290747 kcal/mol)

>  <smiles>  (35) 
Cc1nc(CN2CCCC(Oc3cccnc3)C2C)cs1

>  <score_type>  (35) 
oracle

>  <origin>  (35) 
adg

>  <m_score__min__energy>  (35) 
-6.6799999999999997

>  <m_primary>  (35) 
energy

$$$$
35:0
     RDKit          3D

 51 54  0  0  0  0  0  0  0  0999 V2000
   57.3790   32.7120   40.6420 C   0  0  0  0  0  0  0  0  0  0  0  0
   57.5120   32.0790   41.9460 N   0  0  0  0  0  0  0  0  0  0  0  0
   57.0300   30.8690   42.2850 C   0  0  0  0  0  0  0  0  0  0  0  0
   57.2910   30.6730   43.6230 C   0  0  0  0  0  0  0  0  0  0  0  0
   56.9620   29.4660   44.4410 C   0  0  0  0  0  0  0  0  0  0  0  0
   57.6780   28.2970   43.9160 N   0  0  0  0  0  0  0  0  0  0  0  0
   58.7440   27.7730   44.8030 C   0  0  0  0  0  0  0  0  0  0  0  0
   58.2240   27.4610   46.2320 C   0  0  0  0  0  0  0  0  0  0  0  0
   58.8450   28.3530   47.3140 C   0  0  0  0  0  0  0  0  0  0  0  0
   58.9900   29.7230   46.7990 N   0  0  0  0  0  0  0  0  0  0  0  0
   59.2050   30.6920   47.8940 C   0  0  0  0  0  0  0  0  0  0  0  0
   59.6710   32.0200   47.3320 C   0  0  0  0  0  0  0  0  0  0  0  0
   58.6990   32.9590   46.9440 C   0  0  0  0  0  0  0  0  0  0  0  0
   59.0700   34.2220   46.4850 C   0  0  0  0  0  0  0  0  0  0  0  0
   60.4140   34.5780   46.4140 C   0  0  0  0  0  0  0  0  0  0  0  0
   61.4080   33.6670   46.7970 C   0  0  0  0  0  0  0  0  0  0  0  0
   62.7610   34.0390   46.7380 C   0  0  0  0  0  0  0  0  0  0  0  0
   63.7560   33.1420   47.1230 C   0  0  0  0  0  0  0  0  0  0  0  0
   63.4140   31.8620   47.5580 C   0  0  0  0  0  0  0  0  0  0  0  0
   62.0740   31.4730   47.6170 C   0  0  0  0  0  0  0  0  0  0  0  0
   61.0460   32.3700   47.2510 C   0  0  0  0  0  0  0  0  0  0  0  0
   60.0790   29.7890   45.8000 C   0  0  0  0  0  0  0  0  0  0  0  0
   60.0410   28.6240   44.7810 C   0  0  0  0  0  0  0  0  0  0  0  0
   57.9440   31.8160   44.0420 C   0  0  0  0  0  0  0  0  0  0  0  0
   58.0560   32.6660   43.0010 N   0  0  0  0  0  0  0  0  0  0  0  0
   57.1545   33.7807   40.7744 H   0  0  0  0  0  0  0  0  0  0  0  0
   58.3200   32.6015   40.0831 H   0  0  0  0  0  0  0  0  0  0  0  0
   56.5621   32.2322   40.0831 H   0  0  0  0  0  0  0  0  0  0  0  0
   56.5191   30.1631   41.6137 H   0  0  0  0  0  0  0  0  0  0  0  0
   57.2627   29.6396   45.4848 H   0  0  0  0  0  0  0  0  0  0  0  0
   55.8790   29.2795   44.3925 H   0  0  0  0  0  0  0  0  0  0  0  0
   58.1130   28.5600   43.0000 H   0  0  0  0  0  0  0  0  0  0  0  0
   59.0453   26.8044   44.3774 H   0  0  0  0  0  0  0  0  0  0  0  0
   57.1335   27.6044   46.2453 H   0  0  0  0  0  0  0  0  0  0  0  0
   58.5096   26.4240   46.4625 H   0  0  0  0  0  0  0  0  0  0  0  0
   58.1932   28.3618   48.2000 H   0  0  0  0  0  0  0  0  0  0  0  0
   59.8344   27.9591   47.5894 H   0  0  0  0  0  0  0  0  0  0  0  0
   58.2613   30.8392   48.4397 H   0  0  0  0  0  0  0  0  0  0  0  0
   59.9747   30.2999   48.5750 H   0  0  0  0  0  0  0  0  0  0  0  0
   57.6331   32.6939   47.0033 H   0  0  0  0  0  0  0  0  0  0  0  0
   58.2966   34.9412   46.1773 H   0  0  0  0  0  0  0  0  0  0  0  0
   60.6971   35.5787   46.0557 H   0  0  0  0  0  0  0  0  0  0  0  0
   63.0370   35.0439   46.3860 H   0  0  0  0  0  0  0  0  0  0  0  0
   64.8129   33.4443   47.0836 H   0  0  0  0  0  0  0  0  0  0  0  0
   64.2030   31.1558   47.8559 H   0  0  0  0  0  0  0  0  0  0  0  0
   61.8164   30.4574   47.9520 H   0  0  0  0  0  0  0  0  0  0  0  0
   59.9924   30.7378   45.2502 H   0  0  0  0  0  0  0  0  0  0  0  0
   61.0304   29.7148   46.3471 H   0  0  0  0  0  0  0  0  0  0  0  0
   60.1525   29.0493   43.7727 H   0  0  0  0  0  0  0  0  0  0  0  0
   60.8586   27.9440   45.0623 H   0  0  0  0  0  0  0  0  0  0  0  0
   58.3133   32.0028   45.0612 H   0  0  0  0  0  0  0  0  0  0  0  0
  1  2  1  0
  2  3  1  0
  3  4  2  0
  4  5  1  0
  5  6  1  0
  6  7  1  0
  7  8  1  0
  8  9  1  0
  9 10  1  0
 10 11  1  0
 11 12  1  0
 12 13  2  0
 13 14  1  0
 14 15  2  0
 15 16  1  0
 16 17  2  0
 17 18  1  0
 18 19  2  0
 19 20  1  0
 20 21  2  0
 10 22  1  0
 22 23  1  0
  4 24  1  0
 24 25  2  0
 25  2  1  0
 23  7  1  0
 21 12  1  0
 21 16  1  0
  1 26  1  0
  1 27  1  0
  1 28  1  0
  3 29  1  0
  5 30  1  0
  5 31  1  0
  6 32  1  0
  7 33  1  0
  8 34  1  0
  8 35  1  0
  9 36  1  0
  9 37  1  0
 11 38  1  0
 11 39  1  0
 13 40  1  0
 14 41  1  0
 15 42  1  0
 17 43  1  0
 18 44  1  0
 19 45  1  0
 20 46  1  0
 22 47  1  0
 22 48  1  0
 23 49  1  0
 23 50  1  0
 24 51  1  0
M  END
>  <UniqueID>  (36) 
33

>  <SMILES>  (36) 
Cn1cc(CNC2CCN(Cc3cccc4ccccc34)CC2)cn1

>  <Energy>  (36) 
95.65959489274505

>  <Genealogy>  (36) 
Cn1cc(CNC2CCN(Cc3cccc4ccccc34)CC2)cn1 (3D coordinates assigned)
Cn1cc(CNC2CCN(Cc3cccc4ccccc34)CC2)cn1 (nonaromatic ring conformer: 95.65959489274505 kcal/mol)

>  <smiles>  (36) 
Cn1cc(CNC2CCN(Cc3cccc4ccccc34)CC2)cn1

>  <score_type>  (36) 
oracle

>  <origin>  (36) 
adg

>  <m_score__min__energy>  (36) 
-8.5700000000000003

>  <m_primary>  (36) 
energy

$$$$
36:0
     RDKit          3D

 33 33  0  0  0  0  0  0  0  0999 V2000
   63.7480   32.9990   47.1410 C   0  0  0  0  0  0  0  0  0  0  0  0
   62.3900   33.4870   47.6490 C   0  0  0  0  0  0  0  0  0  0  0  0
   61.4170   33.8130   46.5020 C   0  0  0  0  0  0  0  0  0  0  0  0
   59.9760   34.1070   46.9810 C   0  0  0  0  0  0  0  0  0  0  0  0
   59.0180   34.5110   45.8450 C   0  0  0  0  0  0  0  0  0  0  0  0
   58.2180   33.3460   45.2390 C   0  0  0  0  0  0  0  0  0  0  0  0
   57.9690   32.2130   46.2460 C   0  0  0  0  0  0  0  0  0  0  0  0
   58.7840   31.0030   45.8830 C   0  0  0  0  0  0  0  0  0  0  0  0
   60.0630   30.8960   46.3310 N   0  0  0  0  0  0  0  0  0  0  0  0
   60.4950   29.4230   45.7330 S   0  0  0  0  0  0  0  0  0  0  0  0
   59.1670   28.8680   44.9320 N   0  0  0  0  0  0  0  0  0  0  0  0
   58.2910   29.8890   45.1250 C   0  0  0  0  0  0  0  0  0  0  0  0
   56.6740   29.7910   44.4310 S   0  0  0  0  0  0  0  0  0  0  0  0
   56.7720   29.2450   42.7930 N   0  0  0  0  0  0  0  0  0  0  0  0
   55.8620   28.8080   45.2250 O   0  0  0  0  0  0  0  0  0  0  0  0
   55.9930   31.1300   44.4880 O   0  0  0  0  0  0  0  0  0  0  0  0
   64.3976   32.7656   47.9975 H   0  0  0  0  0  0  0  0  0  0  0  0
   63.6077   32.0950   46.5301 H   0  0  0  0  0  0  0  0  0  0  0  0
   64.2152   33.7855   46.5301 H   0  0  0  0  0  0  0  0  0  0  0  0
   61.9448   32.7015   48.2773 H   0  0  0  0  0  0  0  0  0  0  0  0
   62.5581   34.4124   48.2193 H   0  0  0  0  0  0  0  0  0  0  0  0
   61.7933   34.6972   45.9667 H   0  0  0  0  0  0  0  0  0  0  0  0
   61.3685   32.9240   45.8560 H   0  0  0  0  0  0  0  0  0  0  0  0
   59.5793   33.2024   47.4650 H   0  0  0  0  0  0  0  0  0  0  0  0
   60.0342   34.9607   47.6722 H   0  0  0  0  0  0  0  0  0  0  0  0
   58.3042   35.2471   46.2434 H   0  0  0  0  0  0  0  0  0  0  0  0
   59.6453   34.9132   45.0358 H   0  0  0  0  0  0  0  0  0  0  0  0
   57.2468   33.7285   44.8919 H   0  0  0  0  0  0  0  0  0  0  0  0
   58.8103   32.9308   44.4103 H   0  0  0  0  0  0  0  0  0  0  0  0
   58.2535   32.5533   47.2526 H   0  0  0  0  0  0  0  0  0  0  0  0
   56.9024   31.9448   46.2259 H   0  0  0  0  0  0  0  0  0  0  0  0
   57.7750   29.3080   42.5090 H   0  0  0  0  0  0  0  0  0  0  0  0
   56.5210   28.2310   42.7840 H   0  0  0  0  0  0  0  0  0  0  0  0
  1  2  1  0
  2  3  1  0
  3  4  1  0
  4  5  1  0
  5  6  1  0
  6  7  1  0
  7  8  1  0
  8  9  2  0
  9 10  1  0
 10 11  1  0
 11 12  2  0
 12 13  1  0
 13 14  1  0
 13 15  2  0
 13 16  2  0
 12  8  1  0
  1 17  1  0
  1 18  1  0
  1 19  1  0
  2 20  1  0
  2 21  1  0
  3 22  1  0
  3 23  1  0
  4 24  1  0
  4 25  1  0
  5 26  1  0
  5 27  1  0
  6 28  1  0
  6 29  1  0
  7 30  1  0
  7 31  1  0
 14 32  1  0
 14 33  1  0
M  END
>  <UniqueID>  (37) 
34

>  <SMILES>  (37) 
CCCCCCCc1nsnc1S(N)(=O)=O

>  <Energy>  (37) 
56.48619892652179

>  <Genealogy>  (37) 
CCCCCCCc1nsnc1S(N)(=O)=O (3D coordinates assigned)
CCCCCCCc1nsnc1S(N)(=O)=O (optimized conformer: 56.48619892652179 kcal/mol)

>  <smiles>  (37) 
CCCCCCCc1nsnc1S(N)(=O)=O

>  <score_type>  (37) 
oracle

>  <origin>  (37) 
adg

>  <m_score__min__energy>  (37) 
-6.9800000000000004

>  <m_primary>  (37) 
energy

$$$$
37:0
     RDKit          3D

 20 21  0  0  0  0  0  0  0  0999 V2000
   55.1460   29.3540   44.8350 N   0  0  0  0  0  0  0  0  0  0  0  0
   56.5660   29.4450   44.9290 C   0  0  0  0  0  0  0  0  0  0  0  0
   57.2460   28.3940   45.0850 O   0  0  0  0  0  0  0  0  0  0  0  0
   57.2250   30.7610   44.8440 C   0  0  0  0  0  0  0  0  0  0  0  0
   57.4460   31.3850   43.6060 C   0  0  0  0  0  0  0  0  0  0  0  0
   58.0740   32.6320   43.5610 C   0  0  0  0  0  0  0  0  0  0  0  0
   58.4790   33.2510   44.7490 C   0  0  0  0  0  0  0  0  0  0  0  0
   59.1120   34.5030   44.7410 C   0  0  0  0  0  0  0  0  0  0  0  0
   59.5040   35.0950   45.9460 C   0  0  0  0  0  0  0  0  0  0  0  0
   59.2670   34.4430   47.1610 C   0  0  0  0  0  0  0  0  0  0  0  0
   58.6370   33.1940   47.1780 C   0  0  0  0  0  0  0  0  0  0  0  0
   58.2410   32.5940   45.9760 C   0  0  0  0  0  0  0  0  0  0  0  0
   57.6270   31.3800   45.9880 N   0  0  0  0  0  0  0  0  0  0  0  0
   54.5510   29.3380   45.6920 H   0  0  0  0  0  0  0  0  0  0  0  0
   57.1259   30.8940   42.6752 H   0  0  0  0  0  0  0  0  0  0  0  0
   58.2498   33.1262   42.5941 H   0  0  0  0  0  0  0  0  0  0  0  0
   59.2999   35.0187   43.7877 H   0  0  0  0  0  0  0  0  0  0  0  0
   60.0004   36.0766   45.9384 H   0  0  0  0  0  0  0  0  0  0  0  0
   59.5769   34.9138   48.1056 H   0  0  0  0  0  0  0  0  0  0  0  0
   58.4528   32.6835   48.1348 H   0  0  0  0  0  0  0  0  0  0  0  0
  1  2  1  0
  2  3  2  0
  2  4  1  0
  4  5  2  0
  5  6  1  0
  6  7  2  0
  7  8  1  0
  8  9  2  0
  9 10  1  0
 10 11  2  0
 11 12  1  0
 12 13  2  0
 13  4  1  0
 12  7  1  0
  1 14  1  0
  5 15  1  0
  6 16  1  0
  8 17  1  0
  9 18  1  0
 10 19  1  0
 11 20  1  0
M  CHG  1   1  -1
M  END
>  <UniqueID>  (38) 
35

>  <SMILES>  (38) 
[NH-]C(=O)c1ccc2ccccc2n1

>  <Energy>  (38) 
23.008112528279813

>  <Genealogy>  (38) 
[NH-]C(=O)c1ccc2ccccc2n1 (protonated)
[NH-]C(=O)c1ccc2ccccc2n1 (3D coordinates assigned)
[NH-]C(=O)c1ccc2ccccc2n1 (optimized conformer: 23.008112528279813 kcal/mol)

>  <smiles>  (38) 
NC(=O)c1ccc2ccccc2n1

>  <score_type>  (38) 
oracle

>  <origin>  (38) 
adg

>  <m_score__min__energy>  (38) 
-9.8200000000000003

>  <m_primary>  (38) 
energy

$$$$
38:0
     RDKit          3D

 31 33  0  0  0  0  0  0  0  0999 V2000
   59.5790   34.9640   47.6620 C   0  0  0  0  0  0  0  0  0  0  0  0
   59.0090   34.0800   46.5920 C   0  0  0  0  0  0  0  0  0  0  0  0
   58.3380   32.8980   46.9360 C   0  0  0  0  0  0  0  0  0  0  0  0
   57.7740   32.0930   45.9420 C   0  0  0  0  0  0  0  0  0  0  0  0
   57.8590   32.4610   44.5900 C   0  0  0  0  0  0  0  0  0  0  0  0
   57.2580   31.6120   43.5950 N   0  0  0  0  0  0  0  0  0  0  0  0
   56.6890   30.0010   43.9020 S   0  0  0  0  0  0  0  0  0  0  0  0
   56.3230   29.3530   42.5970 O   0  0  0  0  0  0  0  0  0  0  0  0
   55.4640   30.0780   44.7710 O   0  0  0  0  0  0  0  0  0  0  0  0
   57.9500   29.0400   44.6790 C   0  0  0  0  0  0  0  0  0  0  0  0
   59.3000   29.4080   44.5360 C   0  0  0  0  0  0  0  0  0  0  0  0
   60.3170   28.6610   45.1510 C   0  0  0  0  0  0  0  0  0  0  0  0
   60.0090   27.5280   45.9130 C   0  0  0  0  0  0  0  0  0  0  0  0
   58.6760   27.1440   46.0530 C   0  0  0  0  0  0  0  0  0  0  0  0
   58.3010   26.0520   46.7660 N   0  0  0  0  0  0  0  0  0  0  0  0
   56.6610   26.1180   46.5590 S   0  0  0  0  0  0  0  0  0  0  0  0
   56.3720   27.4460   45.6170 N   0  0  0  0  0  0  0  0  0  0  0  0
   57.6390   27.8980   45.4330 C   0  0  0  0  0  0  0  0  0  0  0  0
   58.5190   33.6570   44.2510 C   0  0  0  0  0  0  0  0  0  0  0  0
   59.0830   34.4620   45.2460 C   0  0  0  0  0  0  0  0  0  0  0  0
   59.3175   34.5585   48.6505 H   0  0  0  0  0  0  0  0  0  0  0  0
   60.6735   35.0041   47.5600 H   0  0  0  0  0  0  0  0  0  0  0  0
   59.1639   35.9775   47.5600 H   0  0  0  0  0  0  0  0  0  0  0  0
   58.2550   32.6029   47.9924 H   0  0  0  0  0  0  0  0  0  0  0  0
   57.2587   31.1624   46.2219 H   0  0  0  0  0  0  0  0  0  0  0  0
   57.1700   31.9640   42.6150 H   0  0  0  0  0  0  0  0  0  0  0  0
   59.5619   30.2915   43.9352 H   0  0  0  0  0  0  0  0  0  0  0  0
   61.3664   28.9691   45.0329 H   0  0  0  0  0  0  0  0  0  0  0  0
   60.8091   26.9475   46.3956 H   0  0  0  0  0  0  0  0  0  0  0  0
   58.5917   33.9607   43.1963 H   0  0  0  0  0  0  0  0  0  0  0  0
   59.5873   35.3999   44.9704 H   0  0  0  0  0  0  0  0  0  0  0  0
  1  2  1  0
  2  3  2  0
  3  4  1  0
  4  5  2  0
  5  6  1  0
  6  7  1  0
  7  8  2  0
  7  9  2  0
  7 10  1  0
 10 11  2  0
 11 12  1  0
 12 13  2  0
 13 14  1  0
 14 15  2  0
 15 16  1  0
 16 17  1  0
 17 18  2  0
  5 19  1  0
 19 20  2  0
 20  2  1  0
 18 10  1  0
 18 14  1  0
  1 21  1  0
  1 22  1  0
  1 23  1  0
  3 24  1  0
  4 25  1  0
  6 26  1  0
 11 27  1  0
 12 28  1  0
 13 29  1  0
 19 30  1  0
 20 31  1  0
M  END
>  <UniqueID>  (39) 
36

>  <SMILES>  (39) 
Cc1ccc(NS(=O)(=O)c2cccc3nsnc23)cc1

>  <Energy>  (39) 
73.83620834548972

>  <Genealogy>  (39) 
Cc1ccc(NS(=O)(=O)c2cccc3nsnc23)cc1 (3D coordinates assigned)
Cc1ccc(NS(=O)(=O)c2cccc3nsnc23)cc1 (optimized conformer: 73.83620834548972 kcal/mol)

>  <smiles>  (39) 
Cc1ccc(NS(=O)(=O)c2cccc3nsnc23)cc1

>  <score_type>  (39) 
oracle

>  <origin>  (39) 
adg

>  <m_score__min__energy>  (39) 
-8.1400000000000006

>  <m_primary>  (39) 
energy

$$$$
39:0
     RDKit          3D

 35 37  0  0  0  0  0  0  0  0999 V2000
   57.4590   33.2150   45.0750 N   0  0  0  0  0  0  0  0  0  0  0  0
   57.8360   32.3430   45.7370 C   0  0  0  0  0  0  0  0  0  0  0  0
   58.3060   31.2590   46.5650 C   0  0  0  0  0  0  0  0  0  0  0  0
   59.0890   31.5620   47.6880 C   0  0  0  0  0  0  0  0  0  0  0  0
   59.5440   30.5450   48.5260 C   0  0  0  0  0  0  0  0  0  0  0  0
   59.2150   29.2160   48.2550 C   0  0  0  0  0  0  0  0  0  0  0  0
   58.4350   28.9010   47.1400 C   0  0  0  0  0  0  0  0  0  0  0  0
   57.9850   29.9130   46.2760 C   0  0  0  0  0  0  0  0  0  0  0  0
   57.0070   29.4690   44.8680 S   0  0  0  0  0  0  0  0  0  0  0  0
   56.1780   30.6550   44.4610 O   0  0  0  0  0  0  0  0  0  0  0  0
   57.8840   29.0690   43.7140 O   0  0  0  0  0  0  0  0  0  0  0  0
   55.9440   28.1510   45.2460 N   0  0  0  0  0  0  0  0  0  0  0  0
   56.3470   26.8620   45.7290 C   0  0  0  0  0  0  0  0  0  0  0  0
   55.5530   26.2310   46.4770 O   0  0  0  0  0  0  0  0  0  0  0  0
   57.6620   26.2220   45.3500 C   0  0  1  0  0  0  0  0  0  0  0  0
   58.1680   25.3800   46.4940 C   0  0  0  0  0  0  0  0  0  0  0  0
   58.6970   25.9360   47.4930 O   0  0  0  0  0  0  0  0  0  0  0  0
   58.0070   23.9600   46.4890 N   0  0  0  0  0  0  0  0  0  0  0  0
   57.5260   23.2590   45.3410 C   0  0  0  0  0  0  0  0  0  0  0  0
   57.3400   21.8720   45.4060 C   0  0  0  0  0  0  0  0  0  0  0  0
   56.9010   21.1700   44.2810 C   0  0  0  0  0  0  0  0  0  0  0  0
   56.6520   21.8490   43.0860 C   0  0  0  0  0  0  0  0  0  0  0  0
   56.8390   23.2330   43.0120 C   0  0  0  0  0  0  0  0  0  0  0  0
   57.2720   23.9490   44.1420 C   0  0  0  0  0  0  0  0  0  0  0  0
   57.4760   25.4140   44.0890 C   0  0  0  0  0  0  0  0  0  0  0  0
   57.4460   26.0140   42.9800 O   0  0  0  0  0  0  0  0  0  0  0  0
   59.3458   32.6085   47.9091 H   0  0  0  0  0  0  0  0  0  0  0  0
   60.1629   30.7902   49.4017 H   0  0  0  0  0  0  0  0  0  0  0  0
   59.5705   28.4155   48.9205 H   0  0  0  0  0  0  0  0  0  0  0  0
   58.1711   27.8526   46.9370 H   0  0  0  0  0  0  0  0  0  0  0  0
   58.4198   26.9937   45.1497 H   0  0  0  0  0  0  0  0  0  0  0  0
   57.5400   21.3347   46.3448 H   0  0  0  0  0  0  0  0  0  0  0  0
   56.7513   20.0816   44.3362 H   0  0  0  0  0  0  0  0  0  0  0  0
   56.3080   21.2938   42.2009 H   0  0  0  0  0  0  0  0  0  0  0  0
   56.6468   23.7628   42.0673 H   0  0  0  0  0  0  0  0  0  0  0  0
  1  2  3  0
  2  3  1  0
  3  4  2  0
  4  5  1  0
  5  6  2  0
  6  7  1  0
  7  8  2  0
  8  9  1  0
  9 10  2  0
  9 11  2  0
  9 12  1  0
 12 13  1  0
 13 14  2  0
 13 15  1  0
 15 16  1  0
 16 17  2  0
 16 18  1  0
 18 19  1  0
 19 20  2  0
 20 21  1  0
 21 22  2  0
 22 23  1  0
 23 24  2  0
 24 25  1  0
 25 26  2  0
  8  3  1  0
 25 15  1  0
 24 19  1  0
  4 27  1  0
  5 28  1  0
  6 29  1  0
  7 30  1  0
 15 31  1  6
 20 32  1  0
 21 33  1  0
 22 34  1  0
 23 35  1  0
M  CHG  2  12  -1  18  -1
M  END
>  <UniqueID>  (40) 
37

>  <SMILES>  (40) 
N#Cc1ccccc1S(=O)(=O)[N-]C(=O)[C@H]1C(=O)[N-]c2ccccc2C1=O

>  <Energy>  (40) 
42.26050320283737

>  <Genealogy>  (40) 
N#Cc1ccccc1S(=O)(=O)[N-]C(=O)C1C(=O)[N-]c2ccccc2C1=O (protonated)
N#Cc1ccccc1S(=O)(=O)[N-]C(=O)[C@H]1C(=O)[N-]c2ccccc2C1=O (chirality)
N#Cc1ccccc1S(=O)(=O)[N-]C(=O)[C@H]1C(=O)[N-]c2ccccc2C1=O (3D coordinates assigned)
N#Cc1ccccc1S(=O)(=O)[N-]C(=O)[C@H]1C(=O)[N-]c2ccccc2C1=O (nonaromatic ring conformer: 42.26050320283737 kcal/mol)

>  <smiles>  (40) 
N#Cc1ccccc1S(=O)(=O)NC(=O)C1C(=O)Nc2ccccc2C1=O

>  <score_type>  (40) 
oracle

>  <origin>  (40) 
adg

>  <m_score__min__energy>  (40) 
-12.039999999999999

>  <m_primary>  (40) 
energy

$$$$
40:0
     RDKit          3D

 44 46  0  0  0  0  0  0  0  0999 V2000
   57.5010   27.8890   46.1770 C   0  0  0  0  0  0  0  0  0  0  0  0
   56.6280   28.9290   45.7470 O   0  0  0  0  0  0  0  0  0  0  0  0
   56.8520   29.7450   44.6250 C   0  0  0  0  0  0  0  0  0  0  0  0
   56.4660   29.3480   43.3300 C   0  0  0  0  0  0  0  0  0  0  0  0
   56.6550   30.2050   42.2420 C   0  0  0  0  0  0  0  0  0  0  0  0
   57.2240   31.4650   42.4310 C   0  0  0  0  0  0  0  0  0  0  0  0
   57.4460   32.5420   41.0650 Cl  0  0  0  0  0  0  0  0  0  0  0  0
   57.6170   31.8670   43.7100 C   0  0  0  0  0  0  0  0  0  0  0  0
   57.4590   31.0070   44.8080 C   0  0  0  0  0  0  0  0  0  0  0  0
   57.8700   31.4560   46.1090 N   0  0  0  0  0  0  0  0  0  0  0  0
   58.0430   32.8440   46.4520 C   0  0  0  0  0  0  0  0  0  0  0  0
   57.0560   33.9710   45.7650 S   0  0  0  0  0  0  0  0  0  0  0  0
   58.9600   33.2260   47.5020 N   0  0  0  0  0  0  0  0  0  0  0  0
   59.5110   34.5930   47.5560 C   0  0  0  0  0  0  0  0  0  0  0  0
   60.9840   34.5720   47.9890 C   0  0  0  0  0  0  0  0  0  0  0  0
   61.2140   33.6510   49.1110 N   0  0  0  0  0  0  0  0  0  0  0  0
   62.5580   33.4090   49.5670 C   0  0  0  0  0  0  0  0  0  0  0  0
   63.0740   34.1150   50.6680 C   0  0  0  0  0  0  0  0  0  0  0  0
   64.3750   33.8700   51.1190 C   0  0  0  0  0  0  0  0  0  0  0  0
   65.1700   32.9180   50.4770 C   0  0  0  0  0  0  0  0  0  0  0  0
   64.6650   32.2070   49.3860 C   0  0  0  0  0  0  0  0  0  0  0  0
   63.3640   32.4480   48.9320 C   0  0  0  0  0  0  0  0  0  0  0  0
   60.0840   32.9220   49.6950 C   0  0  0  0  0  0  0  0  0  0  0  0
   59.2700   32.2680   48.5770 C   0  0  0  0  0  0  0  0  0  0  0  0
   57.5244   27.8611   47.2764 H   0  0  0  0  0  0  0  0  0  0  0  0
   57.1385   26.9239   45.7933 H   0  0  0  0  0  0  0  0  0  0  0  0
   58.5143   28.0788   45.7933 H   0  0  0  0  0  0  0  0  0  0  0  0
   56.0132   28.3578   43.1739 H   0  0  0  0  0  0  0  0  0  0  0  0
   56.3542   29.8851   41.2335 H   0  0  0  0  0  0  0  0  0  0  0  0
   58.0538   32.8657   43.8577 H   0  0  0  0  0  0  0  0  0  0  0  0
   57.9570   30.7370   46.8600 H   0  0  0  0  0  0  0  0  0  0  0  0
   59.4349   35.0518   46.5592 H   0  0  0  0  0  0  0  0  0  0  0  0
   58.9363   35.1753   48.2912 H   0  0  0  0  0  0  0  0  0  0  0  0
   61.6007   34.2534   47.1357 H   0  0  0  0  0  0  0  0  0  0  0  0
   61.2559   35.5853   48.3195 H   0  0  0  0  0  0  0  0  0  0  0  0
   62.4507   34.8645   51.1777 H   0  0  0  0  0  0  0  0  0  0  0  0
   64.7724   34.4275   51.9800 H   0  0  0  0  0  0  0  0  0  0  0  0
   66.1941   32.7281   50.8307 H   0  0  0  0  0  0  0  0  0  0  0  0
   65.2916   31.4560   48.8827 H   0  0  0  0  0  0  0  0  0  0  0  0
   62.9699   31.8831   48.0744 H   0  0  0  0  0  0  0  0  0  0  0  0
   60.4610   32.1457   50.3770 H   0  0  0  0  0  0  0  0  0  0  0  0
   59.4450   33.6210   50.2546 H   0  0  0  0  0  0  0  0  0  0  0  0
   59.8487   31.4329   48.1554 H   0  0  0  0  0  0  0  0  0  0  0  0
   58.3214   31.9113   49.0048 H   0  0  0  0  0  0  0  0  0  0  0  0
  1  2  1  0
  2  3  1  0
  3  4  2  0
  4  5  1  0
  5  6  2  0
  6  7  1  0
  6  8  1  0
  8  9  2  0
  9 10  1  0
 10 11  1  0
 11 12  2  0
 11 13  1  0
 13 14  1  0
 14 15  1  0
 15 16  1  0
 16 17  1  0
 17 18  2  0
 18 19  1  0
 19 20  2  0
 20 21  1  0
 21 22  2  0
 16 23  1  0
 23 24  1  0
  9  3  1  0
 24 13  1  0
 22 17  1  0
  1 25  1  0
  1 26  1  0
  1 27  1  0
  4 28  1  0
  5 29  1  0
  8 30  1  0
 10 31  1  0
 14 32  1  0
 14 33  1  0
 15 34  1  0
 15 35  1  0
 18 36  1  0
 19 37  1  0
 20 38  1  0
 21 39  1  0
 22 40  1  0
 23 41  1  0
 23 42  1  0
 24 43  1  0
 24 44  1  0
M  END
>  <UniqueID>  (41) 
38

>  <SMILES>  (41) 
COc1ccc(Cl)cc1NC(=S)N1CCN(c2ccccc2)CC1

>  <Energy>  (41) 
58.02317082948512

>  <Genealogy>  (41) 
COc1ccc(Cl)cc1NC(=S)N1CCN(c2ccccc2)CC1 (3D coordinates assigned)
COc1ccc(Cl)cc1NC(=S)N1CCN(c2ccccc2)CC1 (nonaromatic ring conformer: 58.02317082948512 kcal/mol)

>  <smiles>  (41) 
COc1ccc(Cl)cc1NC(=S)N1CCN(c2ccccc2)CC1

>  <score_type>  (41) 
oracle

>  <origin>  (41) 
adg

>  <m_score__min__energy>  (41) 
-7.6100000000000003

>  <m_primary>  (41) 
energy

$$$$
41:0
     RDKit          3D

 39 42  0  0  0  0  0  0  0  0999 V2000
   54.9710   26.3550   45.9800 O   0  0  0  0  0  0  0  0  0  0  0  0
   56.3620   26.4070   46.0370 C   0  0  0  0  0  0  0  0  0  0  0  0
   57.1090   25.2960   45.6360 C   0  0  0  0  0  0  0  0  0  0  0  0
   58.5040   25.3330   45.6910 C   0  0  0  0  0  0  0  0  0  0  0  0
   59.1590   26.4800   46.1480 C   0  0  0  0  0  0  0  0  0  0  0  0
   58.4210   27.6080   46.5550 C   0  0  0  0  0  0  0  0  0  0  0  0
   59.1140   28.8290   47.0390 C   0  0  0  0  0  0  0  0  0  0  0  0
   58.9180   30.0620   46.3950 C   0  0  0  0  0  0  0  0  0  0  0  0
   59.5760   31.2100   46.8640 C   0  0  0  0  0  0  0  0  0  0  0  0
   59.4010   32.5330   46.2120 C   0  0  0  0  0  0  0  0  0  0  0  0
   58.4900   32.7140   45.1510 C   0  0  0  0  0  0  0  0  0  0  0  0
   58.3340   33.9710   44.5570 C   0  0  0  0  0  0  0  0  0  0  0  0
   59.0780   35.0600   45.0160 C   0  0  0  0  0  0  0  0  0  0  0  0
   59.9750   34.8970   46.0740 C   0  0  0  0  0  0  0  0  0  0  0  0
   60.1340   33.6440   46.6710 C   0  0  0  0  0  0  0  0  0  0  0  0
   60.4150   31.1030   47.9310 N   0  0  0  0  0  0  0  0  0  0  0  0
   60.6360   29.9290   48.5810 C   0  0  0  0  0  0  0  0  0  0  0  0
   61.5620   29.9180   49.7340 C   0  0  0  0  0  0  0  0  0  0  0  0
   61.6330   28.9780   50.7620 C   0  0  0  0  0  0  0  0  0  0  0  0
   62.6300   29.2580   51.7040 C   0  0  0  0  0  0  0  0  0  0  0  0
   63.3510   30.4120   51.4320 C   0  0  0  0  0  0  0  0  0  0  0  0
   62.7460   31.0830   50.0170 S   0  0  0  0  0  0  0  0  0  0  0  0
   59.9790   28.7690   48.1430 C   0  0  0  0  0  0  0  0  0  0  0  0
   57.0160   27.5600   46.4950 C   0  0  0  0  0  0  0  0  0  0  0  0
   54.3970   26.6890   46.7440 H   0  0  0  0  0  0  0  0  0  0  0  0
   56.5974   24.3910   45.2765 H   0  0  0  0  0  0  0  0  0  0  0  0
   59.0889   24.4570   45.3738 H   0  0  0  0  0  0  0  0  0  0  0  0
   60.2580   26.5017   46.1900 H   0  0  0  0  0  0  0  0  0  0  0  0
   58.2495   30.1279   45.5239 H   0  0  0  0  0  0  0  0  0  0  0  0
   57.8979   31.8610   44.7879 H   0  0  0  0  0  0  0  0  0  0  0  0
   57.6241   34.1018   43.7270 H   0  0  0  0  0  0  0  0  0  0  0  0
   58.9575   36.0463   44.5442 H   0  0  0  0  0  0  0  0  0  0  0  0
   60.5572   35.7565   46.4378 H   0  0  0  0  0  0  0  0  0  0  0  0
   60.8384   33.5243   47.5074 H   0  0  0  0  0  0  0  0  0  0  0  0
   60.9704   28.1023   50.8263 H   0  0  0  0  0  0  0  0  0  0  0  0
   62.8241   28.6214   52.5798 H   0  0  0  0  0  0  0  0  0  0  0  0
   64.1752   30.8166   52.0378 H   0  0  0  0  0  0  0  0  0  0  0  0
   60.1416   27.8140   48.6640 H   0  0  0  0  0  0  0  0  0  0  0  0
   56.4261   28.4335   46.8097 H   0  0  0  0  0  0  0  0  0  0  0  0
  1  2  1  0
  2  3  2  0
  3  4  1  0
  4  5  2  0
  5  6  1  0
  6  7  1  0
  7  8  2  0
  8  9  1  0
  9 10  1  0
 10 11  2  0
 11 12  1  0
 12 13  2  0
 13 14  1  0
 14 15  2  0
  9 16  2  0
 16 17  1  0
 17 18  1  0
 18 19  2  0
 19 20  1  0
 20 21  2  0
 21 22  1  0
 17 23  2  0
  6 24  2  0
 24  2  1  0
 23  7  1  0
 15 10  1  0
 22 18  1  0
  1 25  1  0
  3 26  1  0
  4 27  1  0
  5 28  1  0
  8 29  1  0
 11 30  1  0
 12 31  1  0
 13 32  1  0
 14 33  1  0
 15 34  1  0
 19 35  1  0
 20 36  1  0
 21 37  1  0
 23 38  1  0
 24 39  1  0
M  END
>  <UniqueID>  (42) 
39

>  <SMILES>  (42) 
Oc1cccc(-c2cc(-c3ccccc3)nc(-c3cccs3)c2)c1

>  <Energy>  (42) 
79.88064150361092

>  <Genealogy>  (42) 
Oc1cccc(-c2cc(-c3ccccc3)nc(-c3cccs3)c2)c1 (3D coordinates assigned)
Oc1cccc(-c2cc(-c3ccccc3)nc(-c3cccs3)c2)c1 (optimized conformer: 79.88064150361092 kcal/mol)

>  <smiles>  (42) 
Oc1cccc(-c2cc(-c3ccccc3)nc(-c3cccs3)c2)c1

>  <score_type>  (42) 
oracle

>  <origin>  (42) 
adg

>  <m_score__min__energy>  (42) 
-8.2899999999999991

>  <m_primary>  (42) 
energy

$$$$
42:0
     RDKit          3D

 33 34  0  0  0  0  0  0  0  0999 V2000
   59.9362   35.7841   46.6270 H   0  0  0  0  0  0  0  0  0  0  0  0
   59.8280   34.7950   47.0960 C   0  0  0  0  0  0  0  0  0  0  0  0
   60.4680   34.5880   48.2570 C   0  0  0  0  0  0  0  0  0  0  0  0
   60.0054   34.9869   49.1719 H   0  0  0  0  0  0  0  0  0  0  0  0
   61.7550   33.8600   48.3980 C   0  0  0  0  0  0  0  0  0  0  0  0
   62.5680   33.6800   47.2650 C   0  0  0  0  0  0  0  0  0  0  0  0
   62.2611   34.0971   46.2945 H   0  0  0  0  0  0  0  0  0  0  0  0
   63.7620   32.9730   47.3740 C   0  0  0  0  0  0  0  0  0  0  0  0
   64.4095   32.8435   46.4942 H   0  0  0  0  0  0  0  0  0  0  0  0
   64.1330   32.4310   48.6000 C   0  0  0  0  0  0  0  0  0  0  0  0
   65.0741   31.8696   48.6960 H   0  0  0  0  0  0  0  0  0  0  0  0
   63.3020   32.6050   49.7070 C   0  0  0  0  0  0  0  0  0  0  0  0
   63.5891   32.1689   50.6752 H   0  0  0  0  0  0  0  0  0  0  0  0
   62.1330   33.3120   49.6040 N   0  0  0  0  0  0  0  0  0  0  0  0
   61.2920   33.4680   50.7990 C   0  0  0  0  0  0  0  0  0  0  0  0
   61.9113   33.3531   51.7008 H   0  0  0  0  0  0  0  0  0  0  0  0
   60.8314   34.4669   50.7953 H   0  0  0  0  0  0  0  0  0  0  0  0
   60.5038   32.7007   50.7953 H   0  0  0  0  0  0  0  0  0  0  0  0
   58.9880   33.7970   46.3970 C   0  0  0  0  0  0  0  0  0  0  0  0
   57.8370   34.1730   45.6840 C   0  0  0  0  0  0  0  0  0  0  0  0
   57.5530   35.2340   45.6245 H   0  0  0  0  0  0  0  0  0  0  0  0
   57.0510   33.2070   45.0500 C   0  0  0  0  0  0  0  0  0  0  0  0
   56.1608   33.5136   44.4812 H   0  0  0  0  0  0  0  0  0  0  0  0
   57.3920   31.8430   45.1350 C   0  0  0  0  0  0  0  0  0  0  0  0
   56.6310   30.8440   44.5090 O   0  0  0  0  0  0  0  0  0  0  0  0
   56.7510   30.4800   43.1380 C   0  0  0  0  0  0  0  0  0  0  0  0
   57.0946   29.4377   43.0641 H   0  0  0  0  0  0  0  0  0  0  0  0
   55.7726   30.5793   42.6453 H   0  0  0  0  0  0  0  0  0  0  0  0
   57.4785   31.1417   42.6453 H   0  0  0  0  0  0  0  0  0  0  0  0
   58.5250   31.4670   45.8730 C   0  0  0  0  0  0  0  0  0  0  0  0
   59.0180   29.6250   46.0290 Br  0  0  0  0  0  0  0  0  0  0  0  0
   59.3100   32.4380   46.5060 C   0  0  0  0  0  0  0  0  0  0  0  0
   60.1874   32.1311   47.0942 H   0  0  0  0  0  0  0  0  0  0  0  0
  1  2  1  0
  2  3  2  0
  3  4  1  0
  3  5  1  0
  5  6  2  0
  6  7  1  0
  6  8  1  0
  8  9  1  0
  8 10  2  0
 10 11  1  0
 10 12  1  0
 12 13  1  0
 12 14  2  0
 14 15  1  0
 15 16  1  0
 15 17  1  0
 15 18  1  0
  2 19  1  0
 19 20  2  0
 20 21  1  0
 20 22  1  0
 22 23  1  0
 22 24  2  0
 24 25  1  0
 25 26  1  0
 26 27  1  0
 26 28  1  0
 26 29  1  0
 24 30  1  0
 30 31  1  0
 30 32  2  0
 32 33  1  0
 14  5  1  0
 32 19  1  0
M  CHG  1  14   1
M  END
>  <UniqueID>  (43) 
40

>  <SMILES>  (43) 
COc1ccc(/C=C\c2cccc[n+]2C)cc1Br

>  <Energy>  (43) 
45.103086507466436

>  <Genealogy>  (43) 
COc1ccc(/C=C\c2cccc[n+]2C)cc1Br (cis-trans isomerization)
COc1ccc(/C=C\c2cccc[n+]2C)cc1Br (3D coordinates assigned)
COc1ccc(/C=C\c2cccc[n+]2C)cc1Br (optimized conformer: 45.103086507466436 kcal/mol)

>  <smiles>  (43) 
COc1ccc(C=Cc2cccc[n+]2C)cc1Br

>  <score_type>  (43) 
oracle

>  <origin>  (43) 
adg

>  <m_score__min__energy>  (43) 
-5.71

>  <m_primary>  (43) 
energy

$$$$
43:0
     RDKit          3D

 38 39  0  0  0  0  0  0  0  0999 V2000
   61.6081   30.3603   46.7972 H   0  0  0  0  0  0  0  0  0  0  0  0
   60.5230   30.2260   46.6770 C   0  0  0  0  0  0  0  0  0  0  0  0
   59.7720   29.1280   45.6440 S   0  0  0  0  0  0  0  0  0  0  0  0
   58.2290   29.5910   46.1100 C   0  0  0  0  0  0  0  0  0  0  0  0
   57.1450   29.0640   45.6190 N   0  0  0  0  0  0  0  0  0  0  0  0
   56.3720   29.5130   44.4920 C   0  0  0  0  0  0  0  0  0  0  0  0
   55.1190   29.3830   44.5460 O   0  0  0  0  0  0  0  0  0  0  0  0
   57.0070   30.1250   43.2640 C   0  0  0  0  0  0  0  0  0  0  0  0
   57.9126   29.5521   43.0156 H   0  0  0  0  0  0  0  0  0  0  0  0
   56.2617   30.0876   42.4558 H   0  0  0  0  0  0  0  0  0  0  0  0
   57.3980   31.5970   43.4590 C   0  0  0  0  0  0  0  0  0  0  0  0
   58.4476   31.7340   43.1599 H   0  0  0  0  0  0  0  0  0  0  0  0
   56.7386   32.2222   42.8391 H   0  0  0  0  0  0  0  0  0  0  0  0
   57.2420   31.9950   44.8590 N   0  0  0  0  0  0  0  0  0  0  0  0
   56.8500   31.3200   45.5540 H   0  0  0  0  0  0  0  0  0  0  0  0
   57.6180   33.3020   45.3110 C   0  0  0  0  0  0  0  0  0  0  0  0
   58.1060   34.1390   44.5050 O   0  0  0  0  0  0  0  0  0  0  0  0
   57.4480   33.6690   46.7480 C   0  0  0  0  0  0  0  0  0  0  0  0
   57.8258   32.8533   47.3819 H   0  0  0  0  0  0  0  0  0  0  0  0
   58.0114   34.5896   46.9605 H   0  0  0  0  0  0  0  0  0  0  0  0
   56.3815   33.8346   46.9605 H   0  0  0  0  0  0  0  0  0  0  0  0
   58.2560   30.5700   47.0380 N   0  0  0  0  0  0  0  0  0  0  0  0
   59.5290   30.9370   47.3550 C   0  0  0  0  0  0  0  0  0  0  0  0
   59.7950   31.9720   48.3830 C   0  0  0  0  0  0  0  0  0  0  0  0
   59.0650   31.9350   49.5830 C   0  0  0  0  0  0  0  0  0  0  0  0
   58.3084   31.1512   49.7354 H   0  0  0  0  0  0  0  0  0  0  0  0
   59.2890   32.8810   50.5830 C   0  0  0  0  0  0  0  0  0  0  0  0
   58.7147   32.8364   51.5201 H   0  0  0  0  0  0  0  0  0  0  0  0
   60.2400   33.8830   50.3960 C   0  0  0  0  0  0  0  0  0  0  0  0
   60.4227   34.6219   51.1901 H   0  0  0  0  0  0  0  0  0  0  0  0
   60.9610   33.9500   49.2020 C   0  0  0  0  0  0  0  0  0  0  0  0
   61.7068   34.7459   49.0591 H   0  0  0  0  0  0  0  0  0  0  0  0
   60.7410   33.0060   48.1780 C   0  0  0  0  0  0  0  0  0  0  0  0
   61.4190   33.0890   46.9500 O   0  0  0  0  0  0  0  0  0  0  0  0
   62.7780   33.4840   46.8000 C   0  0  0  0  0  0  0  0  0  0  0  0
   63.2331   33.6163   47.7927 H   0  0  0  0  0  0  0  0  0  0  0  0
   63.3263   32.7081   46.2457 H   0  0  0  0  0  0  0  0  0  0  0  0
   62.8250   34.4330   46.2457 H   0  0  0  0  0  0  0  0  0  0  0  0
  1  2  1  0
  2  3  1  0
  3  4  1  0
  4  5  2  0
  5  6  1  0
  6  7  2  0
  6  8  1  0
  8  9  1  0
  8 10  1  0
  8 11  1  0
 11 12  1  0
 11 13  1  0
 11 14  1  0
 14 15  1  0
 14 16  1  0
 16 17  2  0
 16 18  1  0
 18 19  1  0
 18 20  1  0
 18 21  1  0
  4 22  1  0
 22 23  1  0
 23 24  1  0
 24 25  2  0
 25 26  1  0
 25 27  1  0
 27 28  1  0
 27 29  2  0
 29 30  1  0
 29 31  1  0
 31 32  1  0
 31 33  2  0
 33 34  1  0
 34 35  1  0
 35 36  1  0
 35 37  1  0
 35 38  1  0
 23  2  2  0
 33 24  1  0
M  CHG  1  22  -1
M  END
>  <UniqueID>  (44) 
41

>  <SMILES>  (44) 
COc1ccccc1-c1cs/c(=N/C(=O)CCNC(C)=O)[n-]1

>  <Energy>  (44) 
69.46110099876982

>  <Genealogy>  (44) 
COc1ccccc1-c1csc(=NC(=O)CCNC(C)=O)[n-]1 (protonated)
COc1ccccc1-c1cs/c(=N/C(=O)CCNC(C)=O)[n-]1 (cis-trans isomerization)
COc1ccccc1-c1cs/c(=N/C(=O)CCNC(C)=O)[n-]1 (3D coordinates assigned)
COc1ccccc1-c1cs/c(=N/C(=O)CCNC(C)=O)[n-]1 (optimized conformer: 69.46110099876982 kcal/mol)

>  <smiles>  (44) 
COc1ccccc1-c1csc(=NC(=O)CCNC(C)=O)[nH]1

>  <score_type>  (44) 
oracle

>  <origin>  (44) 
adg

>  <m_score__min__energy>  (44) 
-8.6699999999999999

>  <m_primary>  (44) 
energy

$$$$
44:0
     RDKit          3D

 29 29  0  0  0  0  0  0  0  0999 V2000
   57.7610   28.4540   44.1120 C   0  0  0  0  0  0  0  0  0  0  0  0
   56.5940   29.7670   43.8270 S   0  0  0  0  0  0  0  0  0  0  0  0
   55.5110   29.7050   44.8670 O   0  0  0  0  0  0  0  0  0  0  0  0
   55.9790   29.5840   42.4680 O   0  0  0  0  0  0  0  0  0  0  0  0
   57.4010   31.3640   43.8830 C   0  0  0  0  0  0  0  0  0  0  0  0
   58.0370   31.6480   45.2500 C   0  0  0  0  0  0  0  0  0  0  0  0
   57.4040   32.8240   45.8940 N   0  0  0  0  0  0  0  0  0  0  0  0
   57.8820   33.0920   47.2760 C   0  0  0  0  0  0  0  0  0  0  0  0
   58.9070   34.2410   47.3780 C   0  0  0  0  0  0  0  0  0  0  0  0
   59.7280   34.3690   46.0970 C   0  0  0  0  0  0  0  0  0  0  0  0
   58.8220   34.6460   44.8880 C   0  0  0  0  0  0  0  0  0  0  0  0
   57.4140   34.0290   45.0380 C   0  0  0  0  0  0  0  0  0  0  0  0
   57.8911   28.3076   45.1944 H   0  0  0  0  0  0  0  0  0  0  0  0
   57.3853   27.5247   43.6589 H   0  0  0  0  0  0  0  0  0  0  0  0
   58.7279   28.7181   43.6589 H   0  0  0  0  0  0  0  0  0  0  0  0
   58.1878   31.3898   43.1147 H   0  0  0  0  0  0  0  0  0  0  0  0
   56.6364   32.1337   43.7014 H   0  0  0  0  0  0  0  0  0  0  0  0
   57.9060   30.7687   45.8978 H   0  0  0  0  0  0  0  0  0  0  0  0
   59.1061   31.8610   45.1028 H   0  0  0  0  0  0  0  0  0  0  0  0
   57.0122   33.3492   47.8983 H   0  0  0  0  0  0  0  0  0  0  0  0
   58.3941   32.1799   47.6163 H   0  0  0  0  0  0  0  0  0  0  0  0
   58.3705   35.1848   47.5553 H   0  0  0  0  0  0  0  0  0  0  0  0
   59.5932   34.0207   48.2090 H   0  0  0  0  0  0  0  0  0  0  0  0
   60.4422   35.1981   46.2088 H   0  0  0  0  0  0  0  0  0  0  0  0
   60.2608   33.4219   45.9261 H   0  0  0  0  0  0  0  0  0  0  0  0
   58.7174   35.7346   44.7699 H   0  0  0  0  0  0  0  0  0  0  0  0
   59.2936   34.1823   44.0090 H   0  0  0  0  0  0  0  0  0  0  0  0
   56.7463   34.7815   45.4829 H   0  0  0  0  0  0  0  0  0  0  0  0
   57.0773   33.7256   44.0357 H   0  0  0  0  0  0  0  0  0  0  0  0
  1  2  1  0
  2  3  2  0
  2  4  2  0
  2  5  1  0
  5  6  1  0
  6  7  1  0
  7  8  1  0
  8  9  1  0
  9 10  1  0
 10 11  1  0
 11 12  1  0
 12  7  1  0
  1 13  1  0
  1 14  1  0
  1 15  1  0
  5 16  1  0
  5 17  1  0
  6 18  1  0
  6 19  1  0
  8 20  1  0
  8 21  1  0
  9 22  1  0
  9 23  1  0
 10 24  1  0
 10 25  1  0
 11 26  1  0
 11 27  1  0
 12 28  1  0
 12 29  1  0
M  END
>  <UniqueID>  (45) 
42

>  <SMILES>  (45) 
CS(=O)(=O)CCN1CCCCC1

>  <Energy>  (45) 
26.04951377703292

>  <Genealogy>  (45) 
CS(=O)(=O)CCN1CCCCC1 (3D coordinates assigned)
CS(=O)(=O)CCN1CCCCC1 (nonaromatic ring conformer: 26.04951377703292 kcal/mol)

>  <smiles>  (45) 
CS(=O)(=O)CCN1CCCCC1

>  <score_type>  (45) 
oracle

>  <origin>  (45) 
adg

>  <m_score__min__energy>  (45) 
-6.1699999999999999

>  <m_primary>  (45) 
energy

$$$$
45:0
     RDKit          3D

 26 27  0  0  0  0  0  0  0  0999 V2000
   61.2420   31.0210   48.5340 C   0  0  0  0  0  0  0  0  0  0  0  0
   62.1320   31.9760   47.8850 N   0  0  0  0  0  0  0  0  0  0  0  0
   63.3910   31.7650   47.4690 C   0  0  0  0  0  0  0  0  0  0  0  0
   63.9280   32.9090   47.0090 N   0  0  0  0  0  0  0  0  0  0  0  0
   63.0320   33.8750   47.1380 N   0  0  0  0  0  0  0  0  0  0  0  0
   61.9430   33.2960   47.6830 C   0  0  0  0  0  0  0  0  0  0  0  0
   60.4470   34.1970   48.1010 S   0  0  0  0  0  0  0  0  0  0  0  0
   60.0200   34.6020   46.3720 C   0  0  0  0  0  0  0  0  0  0  0  0
   59.1590   33.5290   45.7650 C   0  0  0  0  0  0  0  0  0  0  0  0
   58.5760   33.7150   44.4990 C   0  0  0  0  0  0  0  0  0  0  0  0
   57.8000   32.7030   43.9260 C   0  0  0  0  0  0  0  0  0  0  0  0
   57.6010   31.4990   44.6090 C   0  0  0  0  0  0  0  0  0  0  0  0
   56.5430   30.1180   43.8240 Br  0  0  0  0  0  0  0  0  0  0  0  0
   58.1820   31.3060   45.8680 C   0  0  0  0  0  0  0  0  0  0  0  0
   58.9590   32.3160   46.4430 C   0  0  0  0  0  0  0  0  0  0  0  0
   61.3329   31.1186   49.6259 H   0  0  0  0  0  0  0  0  0  0  0  0
   60.2037   31.2243   48.2329 H   0  0  0  0  0  0  0  0  0  0  0  0
   61.5178   29.9996   48.2329 H   0  0  0  0  0  0  0  0  0  0  0  0
   63.9091   30.7952   47.5000 H   0  0  0  0  0  0  0  0  0  0  0  0
   64.8900   33.0370   46.6240 H   0  0  0  0  0  0  0  0  0  0  0  0
   59.4740   35.5567   46.3503 H   0  0  0  0  0  0  0  0  0  0  0  0
   60.9500   34.6771   45.7893 H   0  0  0  0  0  0  0  0  0  0  0  0
   58.7310   34.6599   43.9576 H   0  0  0  0  0  0  0  0  0  0  0  0
   57.3451   32.8541   42.9359 H   0  0  0  0  0  0  0  0  0  0  0  0
   58.0270   30.3588   46.4053 H   0  0  0  0  0  0  0  0  0  0  0  0
   59.4158   32.1596   47.4313 H   0  0  0  0  0  0  0  0  0  0  0  0
  1  2  1  0
  2  3  1  0
  3  4  2  0
  4  5  1  0
  5  6  2  0
  6  7  1  0
  7  8  1  0
  8  9  1  0
  9 10  2  0
 10 11  1  0
 11 12  2  0
 12 13  1  0
 12 14  1  0
 14 15  2  0
  6  2  1  0
 15  9  1  0
  1 16  1  0
  1 17  1  0
  1 18  1  0
  3 19  1  0
  4 20  1  0
  8 21  1  0
  8 22  1  0
 10 23  1  0
 11 24  1  0
 14 25  1  0
 15 26  1  0
M  CHG  1   4   1
M  END
>  <UniqueID>  (46) 
43

>  <SMILES>  (46) 
Cn1c[nH+]nc1SCc1ccc(Br)cc1

>  <Energy>  (46) 
55.536532879372174

>  <Genealogy>  (46) 
Cn1c[nH+]nc1SCc1ccc(Br)cc1 (protonated)
Cn1c[nH+]nc1SCc1ccc(Br)cc1 (3D coordinates assigned)
Cn1c[nH+]nc1SCc1ccc(Br)cc1 (optimized conformer: 55.536532879372174 kcal/mol)

>  <smiles>  (46) 
Cn1cnnc1SCc1ccc(Br)cc1

>  <score_type>  (46) 
oracle

>  <origin>  (46) 
adg

>  <m_score__min__energy>  (46) 
-5.5599999999999996

>  <m_primary>  (46) 
energy

$$$$
46:0
     RDKit          3D

 39 41  0  0  0  0  0  0  0  0999 V2000
   63.2120   33.2980   47.8300 C   0  0  0  0  0  0  0  0  0  0  0  0
   62.5310   32.0110   47.4910 C   0  0  0  0  0  0  0  0  0  0  0  0
   63.2020   31.0670   46.9910 O   0  0  0  0  0  0  0  0  0  0  0  0
   61.1380   31.8400   47.7950 N   0  0  0  0  0  0  0  0  0  0  0  0
   60.3500   30.7230   47.3510 C   0  0  0  0  0  0  0  0  0  0  0  0
   59.2820   30.2760   48.1420 C   0  0  0  0  0  0  0  0  0  0  0  0
   58.5050   29.1900   47.7330 C   0  0  0  0  0  0  0  0  0  0  0  0
   58.7860   28.5320   46.5300 C   0  0  0  0  0  0  0  0  0  0  0  0
   58.0170   27.3770   46.1700 N   0  0  0  0  0  0  0  0  0  0  0  0
   56.6640   27.3820   45.6900 C   0  0  0  0  0  0  0  0  0  0  0  0
   56.0370   26.2930   45.6320 O   0  0  0  0  0  0  0  0  0  0  0  0
   56.0020   28.5860   45.2770 N   0  0  0  0  0  0  0  0  0  0  0  0
   56.5970   29.6820   44.5640 C   0  0  0  0  0  0  0  0  0  0  0  0
   56.4990   29.7150   43.1710 C   0  0  0  0  0  0  0  0  0  0  0  0
   57.0130   30.7970   42.4550 C   0  0  0  0  0  0  0  0  0  0  0  0
   57.6280   31.8550   43.1260 C   0  0  0  0  0  0  0  0  0  0  0  0
   57.7620   31.8290   44.5260 C   0  0  0  0  0  0  0  0  0  0  0  0
   58.3890   32.9550   45.2540 C   0  0  0  0  0  0  0  0  0  0  0  0
   58.2970   33.1210   46.5930 N   0  0  0  0  0  0  0  0  0  0  0  0
   58.9330   34.2450   47.0190 C   0  0  0  0  0  0  0  0  0  0  0  0
   59.5430   34.9930   46.0200 C   0  0  0  0  0  0  0  0  0  0  0  0
   59.2690   34.2130   44.5580 S   0  0  0  0  0  0  0  0  0  0  0  0
   57.2690   30.7190   45.2350 C   0  0  0  0  0  0  0  0  0  0  0  0
   59.8140   29.0170   45.7040 C   0  0  0  0  0  0  0  0  0  0  0  0
   60.5910   30.1040   46.1120 C   0  0  0  0  0  0  0  0  0  0  0  0
   63.2690   33.4058   48.9232 H   0  0  0  0  0  0  0  0  0  0  0  0
   64.2279   33.2975   47.4081 H   0  0  0  0  0  0  0  0  0  0  0  0
   62.6402   34.1376   47.4081 H   0  0  0  0  0  0  0  0  0  0  0  0
   60.6960   32.5260   48.4490 H   0  0  0  0  0  0  0  0  0  0  0  0
   59.0547   30.7840   49.0908 H   0  0  0  0  0  0  0  0  0  0  0  0
   57.6675   28.8498   48.3598 H   0  0  0  0  0  0  0  0  0  0  0  0
   56.0147   28.8847   42.6362 H   0  0  0  0  0  0  0  0  0  0  0  0
   56.9332   30.8160   41.3581 H   0  0  0  0  0  0  0  0  0  0  0  0
   58.0104   32.7148   42.5563 H   0  0  0  0  0  0  0  0  0  0  0  0
   58.9623   34.5405   48.0782 H   0  0  0  0  0  0  0  0  0  0  0  0
   60.1046   35.9282   46.1611 H   0  0  0  0  0  0  0  0  0  0  0  0
   57.4104   30.6615   46.3244 H   0  0  0  0  0  0  0  0  0  0  0  0
   60.0077   28.5390   44.7324 H   0  0  0  0  0  0  0  0  0  0  0  0
   61.3951   30.4773   45.4608 H   0  0  0  0  0  0  0  0  0  0  0  0
  1  2  1  0
  2  3  2  0
  2  4  1  0
  4  5  1  0
  5  6  2  0
  6  7  1  0
  7  8  2  0
  8  9  1  0
  9 10  1  0
 10 11  2  0
 10 12  1  0
 12 13  1  0
 13 14  2  0
 14 15  1  0
 15 16  2  0
 16 17  1  0
 17 18  1  0
 18 19  2  0
 19 20  1  0
 20 21  2  0
 21 22  1  0
 17 23  2  0
  8 24  1  0
 24 25  2  0
 25  5  1  0
 23 13  1  0
 22 18  1  0
  1 26  1  0
  1 27  1  0
  1 28  1  0
  4 29  1  0
  6 30  1  0
  7 31  1  0
 14 32  1  0
 15 33  1  0
 16 34  1  0
 20 35  1  0
 21 36  1  0
 23 37  1  0
 24 38  1  0
 25 39  1  0
M  CHG  2   9  -1  12  -1
M  END
>  <UniqueID>  (47) 
44

>  <SMILES>  (47) 
CC(=O)Nc1ccc([N-]C(=O)[N-]c2cccc(-c3nccs3)c2)cc1

>  <Energy>  (47) 
79.75944171755877

>  <Genealogy>  (47) 
CC(=O)Nc1ccc([N-]C(=O)[N-]c2cccc(-c3nccs3)c2)cc1 (protonated)
CC(=O)Nc1ccc([N-]C(=O)[N-]c2cccc(-c3nccs3)c2)cc1 (3D coordinates assigned)
CC(=O)Nc1ccc([N-]C(=O)[N-]c2cccc(-c3nccs3)c2)cc1 (optimized conformer: 79.75944171755877 kcal/mol)

>  <smiles>  (47) 
CC(=O)Nc1ccc(NC(=O)Nc2cccc(-c3nccs3)c2)cc1

>  <score_type>  (47) 
oracle

>  <origin>  (47) 
adg

>  <m_score__min__energy>  (47) 
-12.01

>  <m_primary>  (47) 
energy

$$$$
47:0
     RDKit          3D

 37 39  0  0  0  0  0  0  0  0999 V2000
   65.7360   32.5760   49.9590 C   0  0  0  0  0  0  0  0  0  0  0  0
   64.4370   33.0320   49.4840 N   0  0  0  0  0  0  0  0  0  0  0  0
   63.3210   33.1430   50.2350 C   0  0  0  0  0  0  0  0  0  0  0  0
   62.2990   33.5260   49.3960 C   0  0  0  0  0  0  0  0  0  0  0  0
   62.8560   33.5940   48.1490 C   0  0  0  0  0  0  0  0  0  0  0  0
   64.1650   33.2850   48.2110 N   0  0  0  0  0  0  0  0  0  0  0  0
   62.0790   33.8960   46.9100 C   0  0  0  0  0  0  0  0  0  0  0  0
   60.6540   34.1620   47.2120 N   0  0  0  0  0  0  0  0  0  0  0  0
   59.7430   34.2760   46.1010 C   0  0  0  0  0  0  0  0  0  0  0  0
   59.5560   35.4030   45.5650 O   0  0  0  0  0  0  0  0  0  0  0  0
   59.0260   33.1310   45.6120 N   0  0  0  0  0  0  0  0  0  0  0  0
   58.1500   33.1990   44.4440 C   0  0  0  0  0  0  0  0  0  0  0  0
   57.5470   31.8540   44.1670 C   0  0  0  0  0  0  0  0  0  0  0  0
   57.1620   31.5000   42.8660 C   0  0  0  0  0  0  0  0  0  0  0  0
   56.6220   30.2330   42.6320 C   0  0  0  0  0  0  0  0  0  0  0  0
   56.4760   29.3350   43.6910 C   0  0  0  0  0  0  0  0  0  0  0  0
   56.8740   29.7190   44.9730 C   0  0  0  0  0  0  0  0  0  0  0  0
   57.3970   30.9570   45.1810 N   0  0  0  0  0  0  0  0  0  0  0  0
   60.2180   34.5630   48.5690 C   0  0  0  0  0  0  0  0  0  0  0  0
   60.8440   33.6770   49.6600 C   0  0  0  0  0  0  0  0  0  0  0  0
   65.7439   32.5732   51.0590 H   0  0  0  0  0  0  0  0  0  0  0  0
   65.9251   31.5577   49.5884 H   0  0  0  0  0  0  0  0  0  0  0  0
   66.5201   33.2526   49.5884 H   0  0  0  0  0  0  0  0  0  0  0  0
   63.2426   32.9611   51.3170 H   0  0  0  0  0  0  0  0  0  0  0  0
   62.5125   34.7825   46.4239 H   0  0  0  0  0  0  0  0  0  0  0  0
   62.1327   33.0193   46.2477 H   0  0  0  0  0  0  0  0  0  0  0  0
   59.0730   32.2260   46.1300 H   0  0  0  0  0  0  0  0  0  0  0  0
   57.3459   33.9248   44.6352 H   0  0  0  0  0  0  0  0  0  0  0  0
   58.7411   33.5129   43.5710 H   0  0  0  0  0  0  0  0  0  0  0  0
   57.2840   32.2132   42.0375 H   0  0  0  0  0  0  0  0  0  0  0  0
   56.3129   29.9438   41.6167 H   0  0  0  0  0  0  0  0  0  0  0  0
   56.0517   28.3351   43.5171 H   0  0  0  0  0  0  0  0  0  0  0  0
   56.7645   29.0199   45.8151 H   0  0  0  0  0  0  0  0  0  0  0  0
   60.5170   35.6070   48.7442 H   0  0  0  0  0  0  0  0  0  0  0  0
   59.1254   34.4481   48.6230 H   0  0  0  0  0  0  0  0  0  0  0  0
   60.6959   34.1460   50.6439 H   0  0  0  0  0  0  0  0  0  0  0  0
   60.3635   32.6875   49.6515 H   0  0  0  0  0  0  0  0  0  0  0  0
  1  2  1  0
  2  3  1  0
  3  4  2  0
  4  5  1  0
  5  6  2  0
  5  7  1  0
  7  8  1  0
  8  9  1  0
  9 10  2  0
  9 11  1  0
 11 12  1  0
 12 13  1  0
 13 14  2  0
 14 15  1  0
 15 16  2  0
 16 17  1  0
 17 18  2  0
  8 19  1  0
 19 20  1  0
  6  2  1  0
 18 13  1  0
 20  4  1  0
  1 21  1  0
  1 22  1  0
  1 23  1  0
  3 24  1  0
  7 25  1  0
  7 26  1  0
 11 27  1  0
 12 28  1  0
 12 29  1  0
 14 30  1  0
 15 31  1  0
 16 32  1  0
 17 33  1  0
 19 34  1  0
 19 35  1  0
 20 36  1  0
 20 37  1  0
M  END
>  <UniqueID>  (48) 
45

>  <SMILES>  (48) 
Cn1cc2c(n1)CN(C(=O)NCc1ccccn1)CC2

>  <Energy>  (48) 
70.03020875309882

>  <Genealogy>  (48) 
Cn1cc2c(n1)CN(C(=O)NCc1ccccn1)CC2 (3D coordinates assigned)
Cn1cc2c(n1)CN(C(=O)NCc1ccccn1)CC2 (nonaromatic ring conformer: 70.03020875309882 kcal/mol)

>  <smiles>  (48) 
Cn1cc2c(n1)CN(C(=O)NCc1ccccn1)CC2

>  <score_type>  (48) 
oracle

>  <origin>  (48) 
adg

>  <m_score__min__energy>  (48) 
-7.0899999999999999

>  <m_primary>  (48) 
energy

$$$$
48:0
     RDKit          3D

 29 31  0  0  0  0  0  0  0  0999 V2000
   58.6768   33.2959   42.8580 H   0  0  0  0  0  0  0  0  0  0  0  0
   58.1500   33.0090   43.7800 C   0  0  0  0  0  0  0  0  0  0  0  0
   58.1320   33.9030   44.7830 C   0  0  0  0  0  0  0  0  0  0  0  0
   57.3607   34.6865   44.7472 H   0  0  0  0  0  0  0  0  0  0  0  0
   59.0640   33.9200   45.9310 C   0  0  0  0  0  0  0  0  0  0  0  0
   58.5850   33.9060   47.2510 C   0  0  0  0  0  0  0  0  0  0  0  0
   57.5022   33.9053   47.4449 H   0  0  0  0  0  0  0  0  0  0  0  0
   59.4850   33.8930   48.3140 C   0  0  0  0  0  0  0  0  0  0  0  0
   59.1146   33.9000   49.3497 H   0  0  0  0  0  0  0  0  0  0  0  0
   60.8610   33.8710   48.0620 C   0  0  0  0  0  0  0  0  0  0  0  0
   61.7900   33.8580   49.1130 C   0  0  0  0  0  0  0  0  0  0  0  0
   61.4404   33.8707   50.1559 H   0  0  0  0  0  0  0  0  0  0  0  0
   63.1590   33.8290   48.8360 C   0  0  0  0  0  0  0  0  0  0  0  0
   63.8852   33.8187   49.6621 H   0  0  0  0  0  0  0  0  0  0  0  0
   63.6090   33.8130   47.5130 C   0  0  0  0  0  0  0  0  0  0  0  0
   64.6881   33.7917   47.3006 H   0  0  0  0  0  0  0  0  0  0  0  0
   62.6900   33.8240   46.4580 C   0  0  0  0  0  0  0  0  0  0  0  0
   63.0484   33.8083   45.4181 H   0  0  0  0  0  0  0  0  0  0  0  0
   61.3120   33.8550   46.7230 C   0  0  0  0  0  0  0  0  0  0  0  0
   60.4080   33.8690   45.6990 N   0  0  0  0  0  0  0  0  0  0  0  0
   60.7510   33.8530   44.7110 H   0  0  0  0  0  0  0  0  0  0  0  0
   57.5210   31.6730   43.8130 C   0  0  0  0  0  0  0  0  0  0  0  0
   57.4610   30.9190   44.9800 C   0  0  0  0  0  0  0  0  0  0  0  0
   57.8176   31.2346   45.9716 H   0  0  0  0  0  0  0  0  0  0  0  0
   56.7490   29.4420   44.6120 S   0  0  0  0  0  0  0  0  0  0  0  0
   56.5310   29.7290   42.9720 C   0  0  0  0  0  0  0  0  0  0  0  0
   56.0793   29.0332   42.2496 H   0  0  0  0  0  0  0  0  0  0  0  0
   57.0190   30.9950   42.6860 C   0  0  0  0  0  0  0  0  0  0  0  0
   57.0143   31.4282   41.6749 H   0  0  0  0  0  0  0  0  0  0  0  0
  1  2  1  0
  2  3  2  0
  3  4  1  0
  3  5  1  0
  5  6  2  0
  6  7  1  0
  6  8  1  0
  8  9  1  0
  8 10  2  0
 10 11  1  0
 11 12  1  0
 11 13  2  0
 13 14  1  0
 13 15  1  0
 15 16  1  0
 15 17  2  0
 17 18  1  0
 17 19  1  0
 19 20  2  0
 20 21  1  0
  2 22  1  0
 22 23  2  0
 23 24  1  0
 23 25  1  0
 25 26  1  0
 26 27  1  0
 26 28  2  0
 28 29  1  0
 20  5  1  0
 28 22  1  0
 19 10  1  0
M  CHG  1  20   1
M  END
>  <UniqueID>  (49) 
46

>  <SMILES>  (49) 
C(=C\c1ccc2ccccc2[nH+]1)\c1ccsc1

>  <Energy>  (49) 
68.95685387446427

>  <Genealogy>  (49) 
C(=Cc1ccc2ccccc2[nH+]1)c1ccsc1 (protonated)
C(=C\c1ccc2ccccc2[nH+]1)\c1ccsc1 (cis-trans isomerization)
C(=C\c1ccc2ccccc2[nH+]1)\c1ccsc1 (3D coordinates assigned)
C(=C\c1ccc2ccccc2[nH+]1)\c1ccsc1 (optimized conformer: 68.95685387446427 kcal/mol)

>  <smiles>  (49) 
C(=Cc1ccc2ccccc2n1)c1ccsc1

>  <score_type>  (49) 
oracle

>  <origin>  (49) 
adg

>  <m_score__min__energy>  (49) 
-5.6699999999999999

>  <m_primary>  (49) 
energy

$$$$
49:0
     RDKit          3D

 41 43  0  0  1  0  0  0  0  0999 V2000
   57.9100   31.7440   43.2000 O   0  0  0  0  0  0  0  0  0  0  0  0
   57.6430   31.9180   44.4310 C   0  0  0  0  0  0  0  0  0  0  0  0
   57.8920   33.2330   45.0350 C   0  0  0  0  0  0  0  0  0  0  0  0
   58.6590   33.1710   46.2510 N   0  0  0  0  0  0  0  0  0  0  0  0
   58.3100   34.0760   47.2500 C   0  0  0  0  0  0  0  0  0  0  0  0
   59.5060   34.6540   47.9410 C   0  0  0  0  0  0  0  0  0  0  0  0
   60.3580   33.4600   48.3580 C   0  0  0  0  0  0  0  0  0  0  0  0
   60.9690   32.9080   47.0940 C   0  0  0  0  0  0  0  0  0  0  0  0
   62.1230   33.7930   46.7110 C   0  0  0  0  0  0  0  0  0  0  0  0
   63.2640   33.7540   47.6900 C   0  0  0  0  0  0  0  0  0  0  0  0
   63.7610   32.4010   47.7440 N   0  0  0  0  0  0  0  0  0  0  0  0
   62.7270   31.5540   48.2630 C   0  0  0  0  0  0  0  0  0  0  0  0
   61.5010   31.5240   47.3850 C   0  0  0  0  0  0  0  0  0  0  0  0
   59.9790   32.7900   45.9960 C   0  0  0  0  0  0  0  0  0  0  0  0
   57.1140   30.7990   45.1300 N   0  0  0  0  0  0  0  0  0  0  0  0
   57.6260   29.6580   44.9340 C   0  0  0  0  0  0  0  0  0  0  0  0
   58.1320   29.0690   43.8580 N   0  0  0  0  0  0  0  0  0  0  0  0
   58.5910   27.8830   43.9500 N   0  0  0  0  0  0  0  0  0  0  0  0
   58.6000   27.2000   45.0350 C   0  0  0  0  0  0  0  0  0  0  0  0
   57.8090   28.3970   46.2650 S   0  0  0  0  0  0  0  0  0  0  0  0
   58.4402   33.8513   44.3089 H   0  0  0  0  0  0  0  0  0  0  0  0
   56.9120   33.6612   45.2925 H   0  0  0  0  0  0  0  0  0  0  0  0
   57.7330   34.8960   46.7977 H   0  0  0  0  0  0  0  0  0  0  0  0
   57.7185   33.5332   48.0020 H   0  0  0  0  0  0  0  0  0  0  0  0
   60.0677   35.3053   47.2552 H   0  0  0  0  0  0  0  0  0  0  0  0
   59.2175   35.2691   48.8061 H   0  0  0  0  0  0  0  0  0  0  0  0
   61.1477   33.7809   49.0532 H   0  0  0  0  0  0  0  0  0  0  0  0
   59.7524   32.6993   48.8724 H   0  0  0  0  0  0  0  0  0  0  0  0
   62.4972   33.4703   45.7282 H   0  0  0  0  0  0  0  0  0  0  0  0
   61.7457   34.8262   46.6971 H   0  0  0  0  0  0  0  0  0  0  0  0
   64.0638   34.4322   47.3578 H   0  0  0  0  0  0  0  0  0  0  0  0
   62.9237   34.0754   48.6854 H   0  0  0  0  0  0  0  0  0  0  0  0
   64.1150   32.0980   46.8240 H   0  0  0  0  0  0  0  0  0  0  0  0
   63.1216   30.5310   48.3508 H   0  0  0  0  0  0  0  0  0  0  0  0
   62.4252   31.9600   49.2398 H   0  0  0  0  0  0  0  0  0  0  0  0
   61.7597   31.0372   46.4331 H   0  0  0  0  0  0  0  0  0  0  0  0
   60.7173   30.9684   47.9209 H   0  0  0  0  0  0  0  0  0  0  0  0
   60.3416   33.4094   45.1624 H   0  0  0  0  0  0  0  0  0  0  0  0
   59.9170   31.7092   45.8011 H   0  0  0  0  0  0  0  0  0  0  0  0
   58.1470   29.6110   42.9200 H   0  0  0  0  0  0  0  0  0  0  0  0
   58.9725   26.1792   45.2060 H   0  0  0  0  0  0  0  0  0  0  0  0
  1  2  2  0
  2  3  1  0
  3  4  1  0
  4  5  1  0
  5  6  1  0
  6  7  1  0
  7  8  1  0
  8  9  1  0
  9 10  1  0
 10 11  1  0
 11 12  1  0
 12 13  1  0
  8 14  1  0
  2 15  1  0
 15 16  2  0
 16 17  1  0
 17 18  1  0
 18 19  2  0
 19 20  1  0
 14  4  1  0
 20 16  1  0
 13  8  1  0
  3 21  1  0
  3 22  1  0
  5 23  1  0
  5 24  1  0
  6 25  1  0
  6 26  1  0
  7 27  1  0
  7 28  1  0
  9 29  1  0
  9 30  1  0
 10 31  1  0
 10 32  1  0
 11 33  1  0
 12 34  1  0
 12 35  1  0
 13 36  1  0
 13 37  1  0
 14 38  1  0
 14 39  1  0
 17 40  1  0
 19 41  1  0
M  END
>  <smiles>  (50) 
O=C(CN1CCCC2(CCNCC2)C1)N=c1[nH]ncs1

>  <score_type>  (50) 
oracle

>  <origin>  (50) 
adg

>  <m_score__min__energy>  (50) 
-8.6300000000000008

>  <m_primary>  (50) 
energy

$$$$
