0:0
     RDKit          3D

 62 64  0  0  0  0  0  0  0  0999 V2000
   59.3000   34.7090   47.1510 C   0  0  0  0  0  0  0  0  0  0  0  0
   59.3980   33.6520   46.0600 C   0  0  0  0  0  0  0  0  0  0  0  0
   58.3330   32.7430   46.1960 O   0  0  0  0  0  0  0  0  0  0  0  0
   58.6420   31.6780   45.4100 N   0  0  0  0  0  0  0  0  0  0  0  0
   58.0060   31.8940   44.1120 C   0  0  0  0  0  0  0  0  0  0  0  0
   56.6390   31.1980   44.0480 C   0  0  0  0  0  0  0  0  0  0  0  0
   56.7390   29.6740   44.1580 C   0  0  0  0  0  0  0  0  0  0  0  0
   56.7220   29.2880   45.5160 O   0  0  0  0  0  0  0  0  0  0  0  0
   57.5020   28.1210   45.7120 C   0  0  0  0  0  0  0  0  0  0  0  0
   58.9040   28.3370   45.1400 C   0  0  0  0  0  0  0  0  0  0  0  0
   59.6390   29.2320   45.9530 O   0  0  0  0  0  0  0  0  0  0  0  0
   59.7560   28.7550   47.2810 C   0  0  0  0  0  0  0  0  0  0  0  0
   59.0720   29.7320   48.2430 C   0  0  0  0  0  0  0  0  0  0  0  0
   59.2940   31.1270   47.8310 N   0  0  0  0  0  0  0  0  0  0  0  0
   60.0860   31.8290   48.8310 C   0  0  0  0  0  0  0  0  0  0  0  0
   61.4380   32.1810   48.5730 C   0  0  0  0  0  0  0  0  0  0  0  0
   62.1050   31.7610   47.3950 C   0  0  0  0  0  0  0  0  0  0  0  0
   63.3930   32.1990   47.1030 C   0  0  0  0  0  0  0  0  0  0  0  0
   64.0450   33.0670   47.9660 C   0  0  0  0  0  0  0  0  0  0  0  0
   63.4370   33.4550   49.1550 C   0  0  0  0  0  0  0  0  0  0  0  0
   62.1500   32.9750   49.5160 C   0  0  0  0  0  0  0  0  0  0  0  0
   61.5920   33.2700   50.7430 N   0  0  0  0  0  0  0  0  0  0  0  0
   62.4390   33.8190   51.8280 C   0  0  0  0  0  0  0  0  0  0  0  0
   60.2600   33.0000   50.9870 C   0  0  0  0  0  0  0  0  0  0  0  0
   59.6070   33.4970   52.1460 C   0  0  0  0  0  0  0  0  0  0  0  0
   58.2910   33.1500   52.4400 C   0  0  0  0  0  0  0  0  0  0  0  0
   57.5910   32.3060   51.5920 C   0  0  0  0  0  0  0  0  0  0  0  0
   58.1820   31.8420   50.4200 C   0  0  0  0  0  0  0  0  0  0  0  0
   59.5040   32.2180   50.0680 C   0  0  0  0  0  0  0  0  0  0  0  0
   59.3450   34.2235   48.1370 H   0  0  0  0  0  0  0  0  0  0  0  0
   60.1364   35.4166   47.0522 H   0  0  0  0  0  0  0  0  0  0  0  0
   58.3478   35.2508   47.0522 H   0  0  0  0  0  0  0  0  0  0  0  0
   59.3443   34.1360   45.0737 H   0  0  0  0  0  0  0  0  0  0  0  0
   60.3540   33.1157   46.1515 H   0  0  0  0  0  0  0  0  0  0  0  0
   58.2010   30.8350   45.8500 H   0  0  0  0  0  0  0  0  0  0  0  0
   57.8679   32.9738   43.9540 H   0  0  0  0  0  0  0  0  0  0  0  0
   58.6526   31.4703   43.3294 H   0  0  0  0  0  0  0  0  0  0  0  0
   56.0173   31.5694   44.8760 H   0  0  0  0  0  0  0  0  0  0  0  0
   56.1971   31.4293   43.0676 H   0  0  0  0  0  0  0  0  0  0  0  0
   55.8861   29.2140   43.6374 H   0  0  0  0  0  0  0  0  0  0  0  0
   57.6803   29.3387   43.6980 H   0  0  0  0  0  0  0  0  0  0  0  0
   57.5751   27.9064   46.7884 H   0  0  0  0  0  0  0  0  0  0  0  0
   57.0252   27.2732   45.1983 H   0  0  0  0  0  0  0  0  0  0  0  0
   59.4300   27.3719   45.0971 H   0  0  0  0  0  0  0  0  0  0  0  0
   58.8141   28.7654   44.1308 H   0  0  0  0  0  0  0  0  0  0  0  0
   59.2755   27.7686   47.3588 H   0  0  0  0  0  0  0  0  0  0  0  0
   60.8205   28.6693   47.5448 H   0  0  0  0  0  0  0  0  0  0  0  0
   57.9911   29.5284   48.2528 H   0  0  0  0  0  0  0  0  0  0  0  0
   59.5019   29.5922   49.2458 H   0  0  0  0  0  0  0  0  0  0  0  0
   59.7490   31.1580   46.8930 H   0  0  0  0  0  0  0  0  0  0  0  0
   58.3880   31.6150   47.6620 H   0  0  0  0  0  0  0  0  0  0  0  0
   61.5958   31.0772   46.6999 H   0  0  0  0  0  0  0  0  0  0  0  0
   63.8949   31.8562   46.1862 H   0  0  0  0  0  0  0  0  0  0  0  0
   65.0442   33.4490   47.7097 H   0  0  0  0  0  0  0  0  0  0  0  0
   63.9631   34.1471   49.8290 H   0  0  0  0  0  0  0  0  0  0  0  0
   62.0114   33.5418   52.8028 H   0  0  0  0  0  0  0  0  0  0  0  0
   63.4557   33.4077   51.7433 H   0  0  0  0  0  0  0  0  0  0  0  0
   62.4787   34.9150   51.7433 H   0  0  0  0  0  0  0  0  0  0  0  0
   60.1517   34.1695   52.8250 H   0  0  0  0  0  0  0  0  0  0  0  0
   57.8069   33.5456   53.3451 H   0  0  0  0  0  0  0  0  0  0  0  0
   56.5649   32.0018   51.8460 H   0  0  0  0  0  0  0  0  0  0  0  0
   57.6148   31.1730   49.7561 H   0  0  0  0  0  0  0  0  0  0  0  0
  1  2  1  0
  2  3  1  0
  3  4  1  0
  4  5  1  0
  5  6  1  0
  6  7  1  0
  7  8  1  0
  8  9  1  0
  9 10  1  0
 10 11  1  0
 11 12  1  0
 12 13  1  0
 13 14  1  0
 14 15  1  0
 15 16  2  0
 16 17  1  0
 17 18  2  0
 18 19  1  0
 19 20  2  0
 20 21  1  0
 21 22  2  0
 22 23  1  0
 22 24  1  0
 24 25  2  0
 25 26  1  0
 26 27  2  0
 27 28  1  0
 28 29  2  0
 29 15  1  0
 21 16  1  0
 29 24  1  0
  1 30  1  0
  1 31  1  0
  1 32  1  0
  2 33  1  0
  2 34  1  0
  4 35  1  0
  5 36  1  0
  5 37  1  0
  6 38  1  0
  6 39  1  0
  7 40  1  0
  7 41  1  0
  9 42  1  0
  9 43  1  0
 10 44  1  0
 10 45  1  0
 12 46  1  0
 12 47  1  0
 13 48  1  0
 13 49  1  0
 14 50  1  0
 14 51  1  0
 17 52  1  0
 18 53  1  0
 19 54  1  0
 20 55  1  0
 23 56  1  0
 23 57  1  0
 23 58  1  0
 25 59  1  0
 26 60  1  0
 27 61  1  0
 28 62  1  0
M  CHG  2  14   1  22   1
M  END
>  <UniqueID>  (1) 
1

>  <SMILES>  (1) 
CCONCCCOCCOCC[NH2+]c1c2ccccc2[n+](C)c2ccccc12

>  <Energy>  (1) 
83.84456792054117

>  <Genealogy>  (1) 
CCONCCCOCCOCC[NH2+]c1c2ccccc2[n+](C)c2ccccc12 (protonated)
CCONCCCOCCOCC[NH2+]c1c2ccccc2[n+](C)c2ccccc12 (3D coordinates assigned)
CCONCCCOCCOCC[NH2+]c1c2ccccc2[n+](C)c2ccccc12 (optimized conformer: 83.84456792054117 kcal/mol)

>  <smiles>  (1) 
CCONCCCOCCOCCNc1c2ccccc2[n+](C)c2ccccc12

>  <score_type>  (1) 
oracle

>  <origin>  (1) 
adg

>  <m_score__min__energy>  (1) 
-3.25

>  <m_primary>  (1) 
energy

$$$$
1:0
     RDKit          3D

 62 64  0  0  0  0  0  0  0  0999 V2000
   59.6600   33.4460   50.7070 C   0  0  0  0  0  0  0  0  0  0  0  0
   58.5690   32.9590   51.6570 C   0  0  0  0  0  0  0  0  0  0  0  0
   57.9950   31.7560   51.1770 O   0  0  0  0  0  0  0  0  0  0  0  0
   56.6570   31.6310   51.6190 C   0  0  0  0  0  0  0  0  0  0  0  0
   56.5330   30.3800   52.4900 C   0  0  0  0  0  0  0  0  0  0  0  0
   57.3200   29.3280   51.9600 O   0  0  0  0  0  0  0  0  0  0  0  0
   58.3050   28.9220   52.8920 C   0  0  0  0  0  0  0  0  0  0  0  0
   59.6950   29.0160   52.2530 C   0  0  0  0  0  0  0  0  0  0  0  0
   59.7190   29.8450   51.0350 N   0  0  0  0  0  0  0  0  0  0  0  0
   60.7410   29.3950   50.0710 C   0  0  0  0  0  0  0  0  0  0  0  0
   60.7250   30.2480   48.7950 C   0  0  0  0  0  0  0  0  0  0  0  0
   59.3870   30.7690   48.5130 N   0  0  0  0  0  0  0  0  0  0  0  0
   58.9730   31.0020   47.1600 C   0  0  0  0  0  0  0  0  0  0  0  0
   58.5750   29.9300   46.3490 C   0  0  0  0  0  0  0  0  0  0  0  0
   58.1920   30.1710   45.0180 C   0  0  0  0  0  0  0  0  0  0  0  0
   58.0690   31.4620   44.5470 N   0  0  0  0  0  0  0  0  0  0  0  0
   57.4000   31.7100   43.2540 C   0  0  0  0  0  0  0  0  0  0  0  0
   58.5600   32.5180   45.2930 C   0  0  0  0  0  0  0  0  0  0  0  0
   58.6600   33.8290   44.7610 C   0  0  0  0  0  0  0  0  0  0  0  0
   59.1250   34.8880   45.5390 C   0  0  0  0  0  0  0  0  0  0  0  0
   59.5080   34.6720   46.8600 C   0  0  0  0  0  0  0  0  0  0  0  0
   59.4510   33.3900   47.4050 C   0  0  0  0  0  0  0  0  0  0  0  0
   58.9970   32.3020   46.6280 C   0  0  0  0  0  0  0  0  0  0  0  0
   57.9070   28.9540   44.1520 C   0  0  0  0  0  0  0  0  0  0  0  0
   58.9170   27.8380   44.4510 C   0  0  0  0  0  0  0  0  0  0  0  0
   58.9840   27.4590   45.9440 C   0  0  0  0  0  0  0  0  0  0  0  0
   58.4140   28.5270   46.8950 C   0  0  0  0  0  0  0  0  0  0  0  0
   60.5115   33.8261   51.2906 H   0  0  0  0  0  0  0  0  0  0  0  0
   59.9935   32.6113   50.0729 H   0  0  0  0  0  0  0  0  0  0  0  0
   59.2613   34.2516   50.0729 H   0  0  0  0  0  0  0  0  0  0  0  0
   59.0069   32.7803   52.6501 H   0  0  0  0  0  0  0  0  0  0  0  0
   57.7842   33.7271   51.7217 H   0  0  0  0  0  0  0  0  0  0  0  0
   56.3787   32.5182   52.2067 H   0  0  0  0  0  0  0  0  0  0  0  0
   55.9862   31.5466   50.7513 H   0  0  0  0  0  0  0  0  0  0  0  0
   56.8773   30.6122   53.5086 H   0  0  0  0  0  0  0  0  0  0  0  0
   55.4801   30.0623   52.5095 H   0  0  0  0  0  0  0  0  0  0  0  0
   58.2641   29.5767   53.7750 H   0  0  0  0  0  0  0  0  0  0  0  0
   58.1133   27.8814   53.1927 H   0  0  0  0  0  0  0  0  0  0  0  0
   60.3884   29.4527   52.9869 H   0  0  0  0  0  0  0  0  0  0  0  0
   59.9901   27.9974   51.9610 H   0  0  0  0  0  0  0  0  0  0  0  0
   59.9330   30.8250   51.3300 H   0  0  0  0  0  0  0  0  0  0  0  0
   58.7750   29.8470   50.5800 H   0  0  0  0  0  0  0  0  0  0  0  0
   61.7331   29.4719   50.5399 H   0  0  0  0  0  0  0  0  0  0  0  0
   60.5188   28.3541   49.7931 H   0  0  0  0  0  0  0  0  0  0  0  0
   61.4179   31.0929   48.9215 H   0  0  0  0  0  0  0  0  0  0  0  0
   61.0317   29.6119   47.9516 H   0  0  0  0  0  0  0  0  0  0  0  0
   58.8020   31.1730   49.2800 H   0  0  0  0  0  0  0  0  0  0  0  0
   56.3825   32.0872   43.4340 H   0  0  0  0  0  0  0  0  0  0  0  0
   57.9718   32.4559   42.6824 H   0  0  0  0  0  0  0  0  0  0  0  0
   57.3474   30.7716   42.6824 H   0  0  0  0  0  0  0  0  0  0  0  0
   58.3657   34.0131   43.7172 H   0  0  0  0  0  0  0  0  0  0  0  0
   59.1896   35.8979   45.1078 H   0  0  0  0  0  0  0  0  0  0  0  0
   59.8564   35.5148   47.4751 H   0  0  0  0  0  0  0  0  0  0  0  0
   59.7618   33.2251   48.4472 H   0  0  0  0  0  0  0  0  0  0  0  0
   56.8907   28.5893   44.3621 H   0  0  0  0  0  0  0  0  0  0  0  0
   57.9938   29.2404   43.0935 H   0  0  0  0  0  0  0  0  0  0  0  0
   58.6302   26.9447   43.8767 H   0  0  0  0  0  0  0  0  0  0  0  0
   59.9108   28.2134   44.1656 H   0  0  0  0  0  0  0  0  0  0  0  0
   58.4145   26.5292   46.0893 H   0  0  0  0  0  0  0  0  0  0  0  0
   60.0498   27.3511   46.1941 H   0  0  0  0  0  0  0  0  0  0  0  0
   57.3430   28.3282   47.0484 H   0  0  0  0  0  0  0  0  0  0  0  0
   58.9739   28.4682   47.8400 H   0  0  0  0  0  0  0  0  0  0  0  0
  1  2  1  0
  2  3  1  0
  3  4  1  0
  4  5  1  0
  5  6  1  0
  6  7  1  0
  7  8  1  0
  8  9  1  0
  9 10  1  0
 10 11  1  0
 11 12  1  0
 12 13  1  0
 13 14  2  0
 14 15  1  0
 15 16  2  0
 16 17  1  0
 16 18  1  0
 18 19  2  0
 19 20  1  0
 20 21  2  0
 21 22  1  0
 22 23  2  0
 15 24  1  0
 24 25  1  0
 25 26  1  0
 26 27  1  0
 23 13  1  0
 27 14  1  0
 23 18  1  0
  1 28  1  0
  1 29  1  0
  1 30  1  0
  2 31  1  0
  2 32  1  0
  4 33  1  0
  4 34  1  0
  5 35  1  0
  5 36  1  0
  7 37  1  0
  7 38  1  0
  8 39  1  0
  8 40  1  0
  9 41  1  0
  9 42  1  0
 10 43  1  0
 10 44  1  0
 11 45  1  0
 11 46  1  0
 12 47  1  0
 17 48  1  0
 17 49  1  0
 17 50  1  0
 19 51  1  0
 20 52  1  0
 21 53  1  0
 22 54  1  0
 24 55  1  0
 24 56  1  0
 25 57  1  0
 25 58  1  0
 26 59  1  0
 26 60  1  0
 27 61  1  0
 27 62  1  0
M  CHG  2   9   1  16   1
M  END
>  <UniqueID>  (2) 
2

>  <SMILES>  (2) 
CCOCCOCC[NH2+]CCNc1c2c([n+](C)c3ccccc13)CCCC2

>  <Energy>  (2) 
84.36775796086573

>  <Genealogy>  (2) 
CCOCCOCC[NH2+]CCNc1c2c([n+](C)c3ccccc13)CCCC2 (protonated)
CCOCCOCC[NH2+]CCNc1c2c([n+](C)c3ccccc13)CCCC2 (3D coordinates assigned)
CCOCCOCC[NH2+]CCNc1c2c([n+](C)c3ccccc13)CCCC2 (nonaromatic ring conformer: 84.36775796086573 kcal/mol)

>  <smiles>  (2) 
CCOCCOCCNCCNc1c2c([n+](C)c3ccccc13)CCCC2

>  <score_type>  (2) 
oracle

>  <origin>  (2) 
adg

>  <m_score__min__energy>  (2) 
-3.3999999999999999

>  <m_primary>  (2) 
energy

$$$$
2:0
     RDKit          3D

 74 77  0  0  0  0  0  0  0  0999 V2000
   57.6040   31.9380   51.4920 C   0  0  0  0  0  0  0  0  0  0  0  0
   58.9150   32.5180   50.9880 C   0  0  0  0  0  0  0  0  0  0  0  0
   59.7470   31.4670   50.5450 O   0  0  0  0  0  0  0  0  0  0  0  0
   59.0240   30.2540   50.5710 C   0  0  0  0  0  0  0  0  0  0  0  0
   58.8670   29.7270   49.1480 C   0  0  0  0  0  0  0  0  0  0  0  0
   59.4560   30.6450   48.1740 N   0  0  0  0  0  0  0  0  0  0  0  0
   58.9840   30.6440   46.8200 C   0  0  0  0  0  0  0  0  0  0  0  0
   58.9060   29.4270   46.1240 C   0  0  0  0  0  0  0  0  0  0  0  0
   59.4370   28.2420   46.6790 C   0  0  0  0  0  0  0  0  0  0  0  0
   59.4010   27.0460   45.9680 C   0  0  0  0  0  0  0  0  0  0  0  0
   58.8510   27.0120   44.6920 C   0  0  0  0  0  0  0  0  0  0  0  0
   58.3060   28.1660   44.1320 C   0  0  0  0  0  0  0  0  0  0  0  0
   58.2900   29.3900   44.8490 C   0  0  0  0  0  0  0  0  0  0  0  0
   57.6960   30.5260   44.3370 N   0  0  0  0  0  0  0  0  0  0  0  0
   56.7810   30.4220   43.1770 C   0  0  0  0  0  0  0  0  0  0  0  0
   57.9400   31.7590   44.9180 C   0  0  0  0  0  0  0  0  0  0  0  0
   57.5730   32.9620   44.2690 C   0  0  0  0  0  0  0  0  0  0  0  0
   57.7720   34.1960   44.8730 C   0  0  0  0  0  0  0  0  0  0  0  0
   58.3820   34.2790   46.1140 C   0  0  0  0  0  0  0  0  0  0  0  0
   58.8280   33.1200   46.7740 C   0  0  0  0  0  0  0  0  0  0  0  0
   59.5440   33.2130   47.9830 O   0  0  0  0  0  0  0  0  0  0  0  0
   60.5030   34.2150   48.3250 C   0  0  0  0  0  0  0  0  0  0  0  0
   61.8780   33.8690   47.6970 C   0  0  0  0  0  0  0  0  0  0  0  0
   62.7350   32.8930   48.4550 N   0  0  0  0  0  0  0  0  0  0  0  0
   62.7210   31.5790   47.7530 C   0  0  0  0  0  0  0  0  0  0  0  0
   62.2570   32.7240   49.8720 C   0  0  0  0  0  0  0  0  0  0  0  0
   63.2450   33.2320   50.9410 C   0  0  0  0  0  0  0  0  0  0  0  0
   64.6080   32.6470   50.7940 N   0  0  0  0  0  0  0  0  0  0  0  0
   64.6010   31.2350   51.2600 C   0  0  0  0  0  0  0  0  0  0  0  0
   65.5260   33.4070   51.6790 C   0  0  0  0  0  0  0  0  0  0  0  0
   65.1020   32.7160   49.3770 C   0  0  0  0  0  0  0  0  0  0  0  0
   64.1320   33.4310   48.4100 C   0  0  0  0  0  0  0  0  0  0  0  0
   58.5850   31.8430   46.1870 C   0  0  0  0  0  0  0  0  0  0  0  0
   57.6022   31.9372   52.5920 H   0  0  0  0  0  0  0  0  0  0  0  0
   56.7670   32.5498   51.1244 H   0  0  0  0  0  0  0  0  0  0  0  0
   57.4938   30.9071   51.1244 H   0  0  0  0  0  0  0  0  0  0  0  0
   58.7161   33.2066   50.1536 H   0  0  0  0  0  0  0  0  0  0  0  0
   59.4134   33.0668   51.8007 H   0  0  0  0  0  0  0  0  0  0  0  0
   59.5681   29.5154   51.1779 H   0  0  0  0  0  0  0  0  0  0  0  0
   58.0305   30.4278   51.0101 H   0  0  0  0  0  0  0  0  0  0  0  0
   59.3687   28.7512   49.0698 H   0  0  0  0  0  0  0  0  0  0  0  0
   57.7932   29.6308   48.9296 H   0  0  0  0  0  0  0  0  0  0  0  0
   60.2890   31.2280   48.4170 H   0  0  0  0  0  0  0  0  0  0  0  0
   59.8838   28.2644   47.6839 H   0  0  0  0  0  0  0  0  0  0  0  0
   59.8079   26.1275   46.4160 H   0  0  0  0  0  0  0  0  0  0  0  0
   58.8459   26.0711   44.1222 H   0  0  0  0  0  0  0  0  0  0  0  0
   57.8815   28.1271   43.1180 H   0  0  0  0  0  0  0  0  0  0  0  0
   55.7474   30.3045   43.5347 H   0  0  0  0  0  0  0  0  0  0  0  0
   56.8566   31.3345   42.5674 H   0  0  0  0  0  0  0  0  0  0  0  0
   57.0594   29.5497   42.5674 H   0  0  0  0  0  0  0  0  0  0  0  0
   57.1215   32.9184   43.2669 H   0  0  0  0  0  0  0  0  0  0  0  0
   57.4433   35.1135   44.3630 H   0  0  0  0  0  0  0  0  0  0  0  0
   58.5190   35.2620   46.5883 H   0  0  0  0  0  0  0  0  0  0  0  0
   60.1634   35.1895   47.9441 H   0  0  0  0  0  0  0  0  0  0  0  0
   60.6062   34.2577   49.4193 H   0  0  0  0  0  0  0  0  0  0  0  0
   61.6926   33.4459   46.6987 H   0  0  0  0  0  0  0  0  0  0  0  0
   62.4432   34.8127   47.6953 H   0  0  0  0  0  0  0  0  0  0  0  0
   62.7123   30.7670   48.4950 H   0  0  0  0  0  0  0  0  0  0  0  0
   61.8221   31.5095   47.1229 H   0  0  0  0  0  0  0  0  0  0  0  0
   63.6183   31.4904   47.1229 H   0  0  0  0  0  0  0  0  0  0  0  0
   61.3129   33.2771   49.9852 H   0  0  0  0  0  0  0  0  0  0  0  0
   62.1423   31.6427   50.0383 H   0  0  0  0  0  0  0  0  0  0  0  0
   63.3214   34.3261   50.8570 H   0  0  0  0  0  0  0  0  0  0  0  0
   62.8570   32.9237   51.9230 H   0  0  0  0  0  0  0  0  0  0  0  0
   64.6009   31.2118   52.3598 H   0  0  0  0  0  0  0  0  0  0  0  0
   63.7003   30.7288   50.8825 H   0  0  0  0  0  0  0  0  0  0  0  0
   65.4966   30.7198   50.8825 H   0  0  0  0  0  0  0  0  0  0  0  0
   65.2765   33.2004   52.7302 H   0  0  0  0  0  0  0  0  0  0  0  0
   66.5636   33.1001   51.4813 H   0  0  0  0  0  0  0  0  0  0  0  0
   65.4181   34.4837   51.4813 H   0  0  0  0  0  0  0  0  0  0  0  0
   66.0596   33.2572   49.3700 H   0  0  0  0  0  0  0  0  0  0  0  0
   65.2002   31.6794   49.0222 H   0  0  0  0  0  0  0  0  0  0  0  0
   64.1021   34.4985   48.6737 H   0  0  0  0  0  0  0  0  0  0  0  0
   64.5099   33.2621   47.3909 H   0  0  0  0  0  0  0  0  0  0  0  0
  1  2  1  0
  2  3  1  0
  3  4  1  0
  4  5  1  0
  5  6  1  0
  6  7  1  0
  7  8  2  0
  8  9  1  0
  9 10  2  0
 10 11  1  0
 11 12  2  0
 12 13  1  0
 13 14  2  0
 14 15  1  0
 14 16  1  0
 16 17  2  0
 17 18  1  0
 18 19  2  0
 19 20  1  0
 20 21  1  0
 21 22  1  0
 22 23  1  0
 23 24  1  0
 24 25  1  0
 24 26  1  0
 26 27  1  0
 27 28  1  0
 28 29  1  0
 28 30  1  0
 28 31  1  0
 31 32  1  0
 20 33  2  0
 33  7  1  0
 13  8  1  0
 33 16  1  0
 32 24  1  0
  1 34  1  0
  1 35  1  0
  1 36  1  0
  2 37  1  0
  2 38  1  0
  4 39  1  0
  4 40  1  0
  5 41  1  0
  5 42  1  0
  6 43  1  0
  9 44  1  0
 10 45  1  0
 11 46  1  0
 12 47  1  0
 15 48  1  0
 15 49  1  0
 15 50  1  0
 17 51  1  0
 18 52  1  0
 19 53  1  0
 22 54  1  0
 22 55  1  0
 23 56  1  0
 23 57  1  0
 25 58  1  0
 25 59  1  0
 25 60  1  0
 26 61  1  0
 26 62  1  0
 27 63  1  0
 27 64  1  0
 29 65  1  0
 29 66  1  0
 29 67  1  0
 30 68  1  0
 30 69  1  0
 30 70  1  0
 31 71  1  0
 31 72  1  0
 32 73  1  0
 32 74  1  0
M  CHG  3  14   1  24   1  28   1
M  END
>  <UniqueID>  (3) 
3

>  <SMILES>  (3) 
CCOCCNc1c2ccccc2[n+](C)c2cccc(OCC[N+]3(C)CC[N+](C)(C)CC3)c12

>  <Energy>  (3) 
128.65287209504578

>  <Genealogy>  (3) 
CCOCCNc1c2ccccc2[n+](C)c2cccc(OCC[N+]3(C)CC[N+](C)(C)CC3)c12 (3D coordinates assigned)
CCOCCNc1c2ccccc2[n+](C)c2cccc(OCC[N+]3(C)CC[N+](C)(C)CC3)c12 (nonaromatic ring conformer: 128.65287209504578 kcal/mol)

>  <smiles>  (3) 
CCOCCNc1c2ccccc2[n+](C)c2cccc(OCC[N+]3(C)CC[N+](C)(C)CC3)c12

>  <score_type>  (3) 
oracle

>  <origin>  (3) 
adg

>  <m_score__min__energy>  (3) 
-3.7599999999999998

>  <m_primary>  (3) 
energy

$$$$
3:0
     RDKit          3D

 60 63  0  0  0  0  0  0  0  0999 V2000
   57.0650   30.9050   43.0170 C   0  0  0  0  0  0  0  0  0  0  0  0
   55.9460   30.0000   43.5040 C   0  0  0  0  0  0  0  0  0  0  0  0
   56.1430   29.7130   44.8730 O   0  0  0  0  0  0  0  0  0  0  0  0
   57.4580   29.2320   45.0640 C   0  0  0  0  0  0  0  0  0  0  0  0
   58.1250   30.0310   46.1750 C   0  0  0  0  0  0  0  0  0  0  0  0
   59.5290   29.9370   46.0300 O   0  0  0  0  0  0  0  0  0  0  0  0
   60.1510   29.7730   47.2910 C   0  0  0  0  0  0  0  0  0  0  0  0
   59.5490   28.5780   48.0230 C   0  0  0  0  0  0  0  0  0  0  0  0
   58.6720   29.0350   49.0290 O   0  0  0  0  0  0  0  0  0  0  0  0
   59.2370   30.1290   49.7270 C   0  0  0  0  0  0  0  0  0  0  0  0
   58.1680   30.9960   50.4170 C   0  0  0  0  0  0  0  0  0  0  0  0
   57.9500   32.2690   49.7180 N   0  0  0  0  0  0  0  0  0  0  0  0
   58.9750   32.8770   48.9140 C   0  0  0  0  0  0  0  0  0  0  0  0
   58.7510   33.1970   47.5540 C   0  0  0  0  0  0  0  0  0  0  0  0
   57.4530   33.1610   47.0080 C   0  0  0  0  0  0  0  0  0  0  0  0
   57.2320   33.4830   45.6710 C   0  0  0  0  0  0  0  0  0  0  0  0
   58.2940   33.8590   44.8560 C   0  0  0  0  0  0  0  0  0  0  0  0
   59.5890   33.9150   45.3680 C   0  0  0  0  0  0  0  0  0  0  0  0
   59.8560   33.5750   46.7170 C   0  0  0  0  0  0  0  0  0  0  0  0
   61.1420   33.6130   47.2350 N   0  0  0  0  0  0  0  0  0  0  0  0
   62.3090   33.8830   46.3730 C   0  0  0  0  0  0  0  0  0  0  0  0
   61.3060   33.4350   48.5840 C   0  0  0  0  0  0  0  0  0  0  0  0
   62.4440   33.6500   49.2910 N   0  0  0  0  0  0  0  0  0  0  0  0
   62.0970   33.4610   50.5790 C   0  0  0  0  0  0  0  0  0  0  0  0
   62.9080   33.6610   51.6960 C   0  0  0  0  0  0  0  0  0  0  0  0
   62.3250   33.5250   52.9670 C   0  0  0  0  0  0  0  0  0  0  0  0
   60.9520   33.2210   53.0960 C   0  0  0  0  0  0  0  0  0  0  0  0
   60.1520   33.0370   51.9550 C   0  0  0  0  0  0  0  0  0  0  0  0
   60.7630   33.1300   50.7030 C   0  0  0  0  0  0  0  0  0  0  0  0
   60.2580   33.0910   49.4150 C   0  0  0  0  0  0  0  0  0  0  0  0
   57.5935   31.3324   43.8818 H   0  0  0  0  0  0  0  0  0  0  0  0
   57.7706   30.3205   42.4083 H   0  0  0  0  0  0  0  0  0  0  0  0
   56.6410   31.7172   42.4083 H   0  0  0  0  0  0  0  0  0  0  0  0
   54.9787   30.5062   43.3698 H   0  0  0  0  0  0  0  0  0  0  0  0
   55.9497   29.0641   42.9260 H   0  0  0  0  0  0  0  0  0  0  0  0
   57.4241   28.1689   45.3444 H   0  0  0  0  0  0  0  0  0  0  0  0
   58.0319   29.3431   44.1322 H   0  0  0  0  0  0  0  0  0  0  0  0
   57.8169   31.0848   46.1076 H   0  0  0  0  0  0  0  0  0  0  0  0
   57.8245   29.6292   47.1539 H   0  0  0  0  0  0  0  0  0  0  0  0
   61.2284   29.6052   47.1458 H   0  0  0  0  0  0  0  0  0  0  0  0
   59.9902   30.6804   47.8916 H   0  0  0  0  0  0  0  0  0  0  0  0
   58.9934   27.9526   47.3088 H   0  0  0  0  0  0  0  0  0  0  0  0
   60.3545   27.9851   48.4808 H   0  0  0  0  0  0  0  0  0  0  0  0
   59.9269   29.7426   50.4917 H   0  0  0  0  0  0  0  0  0  0  0  0
   59.7619   30.7606   48.9952 H   0  0  0  0  0  0  0  0  0  0  0  0
   57.2204   30.4380   50.4404 H   0  0  0  0  0  0  0  0  0  0  0  0
   58.5231   31.2250   51.4326 H   0  0  0  0  0  0  0  0  0  0  0  0
   57.0020   32.7060   49.7520 H   0  0  0  0  0  0  0  0  0  0  0  0
   56.6033   32.8750   47.6454 H   0  0  0  0  0  0  0  0  0  0  0  0
   56.2133   33.4397   45.2582 H   0  0  0  0  0  0  0  0  0  0  0  0
   58.1111   34.1136   43.8016 H   0  0  0  0  0  0  0  0  0  0  0  0
   60.4166   34.2281   44.7145 H   0  0  0  0  0  0  0  0  0  0  0  0
   63.1891   34.0866   47.0006 H   0  0  0  0  0  0  0  0  0  0  0  0
   62.5063   33.0068   45.7379 H   0  0  0  0  0  0  0  0  0  0  0  0
   62.1014   34.7568   45.7379 H   0  0  0  0  0  0  0  0  0  0  0  0
   63.3740   33.9830   48.9540 H   0  0  0  0  0  0  0  0  0  0  0  0
   63.9719   33.9175   51.5851 H   0  0  0  0  0  0  0  0  0  0  0  0
   62.9423   33.6562   53.8679 H   0  0  0  0  0  0  0  0  0  0  0  0
   60.5052   33.1275   54.0968 H   0  0  0  0  0  0  0  0  0  0  0  0
   59.0763   32.8259   52.0458 H   0  0  0  0  0  0  0  0  0  0  0  0
  1  2  1  0
  2  3  1  0
  3  4  1  0
  4  5  1  0
  5  6  1  0
  6  7  1  0
  7  8  1  0
  8  9  1  0
  9 10  1  0
 10 11  1  0
 11 12  1  0
 12 13  1  0
 13 14  2  0
 14 15  1  0
 15 16  2  0
 16 17  1  0
 17 18  2  0
 18 19  1  0
 19 20  2  0
 20 21  1  0
 20 22  1  0
 22 23  1  0
 23 24  1  0
 24 25  2  0
 25 26  1  0
 26 27  2  0
 27 28  1  0
 28 29  2  0
 29 30  1  0
 30 13  1  0
 19 14  1  0
 30 22  2  0
 29 24  1  0
  1 31  1  0
  1 32  1  0
  1 33  1  0
  2 34  1  0
  2 35  1  0
  4 36  1  0
  4 37  1  0
  5 38  1  0
  5 39  1  0
  7 40  1  0
  7 41  1  0
  8 42  1  0
  8 43  1  0
 10 44  1  0
 10 45  1  0
 11 46  1  0
 11 47  1  0
 12 48  1  0
 15 49  1  0
 16 50  1  0
 17 51  1  0
 18 52  1  0
 21 53  1  0
 21 54  1  0
 21 55  1  0
 23 56  1  0
 25 57  1  0
 26 58  1  0
 27 59  1  0
 28 60  1  0
M  CHG  1  20   1
M  END
>  <UniqueID>  (4) 
4

>  <SMILES>  (4) 
CCOCCOCCOCCNc1c2ccccc2[n+](C)c2[nH]c3ccccc3c12

>  <Energy>  (4) 
119.34234552138894

>  <Genealogy>  (4) 
CCOCCOCCOCCNc1c2ccccc2[n+](C)c2[nH]c3ccccc3c12 (3D coordinates assigned)
CCOCCOCCOCCNc1c2ccccc2[n+](C)c2[nH]c3ccccc3c12 (optimized conformer: 119.34234552138894 kcal/mol)

>  <smiles>  (4) 
CCOCCOCCOCCNc1c2ccccc2[n+](C)c2[nH]c3ccccc3c12

>  <score_type>  (4) 
oracle

>  <origin>  (4) 
adg

>  <m_score__min__energy>  (4) 
-5.9000000000000004

>  <m_primary>  (4) 
energy

$$$$
4:0
     RDKit          3D

 52 54  0  0  0  0  0  0  0  0999 V2000
   59.2880   34.8260   45.2370 C   0  0  0  0  0  0  0  0  0  0  0  0
   57.8860   34.2340   45.3470 C   0  0  0  0  0  0  0  0  0  0  0  0
   57.9360   32.7310   45.4030 C   0  0  0  0  0  0  0  0  0  0  0  0
   56.9110   31.9600   44.8320 C   0  0  0  0  0  0  0  0  0  0  0  0
   56.9700   30.6010   44.8730 N   0  0  0  0  0  0  0  0  0  0  0  0
   58.0110   29.9530   45.4610 C   0  0  0  0  0  0  0  0  0  0  0  0
   59.0630   30.6750   46.0280 C   0  0  0  0  0  0  0  0  0  0  0  0
   59.0270   32.0750   45.9950 C   0  0  0  0  0  0  0  0  0  0  0  0
   60.2370   29.9100   46.5780 C   0  0  0  0  0  0  0  0  0  0  0  0
   59.8210   28.6850   47.3140 N   0  0  0  0  0  0  0  0  0  0  0  0
   59.8920   28.8250   48.7840 C   0  0  0  0  0  0  0  0  0  0  0  0
   59.2900   30.1180   49.2790 C   0  0  0  0  0  0  0  0  0  0  0  0
   58.1490   30.1120   49.8150 O   0  0  0  0  0  0  0  0  0  0  0  0
   60.0090   31.3510   49.1310 N   0  0  0  0  0  0  0  0  0  0  0  0
   59.3730   32.6370   49.4120 C   0  0  0  0  0  0  0  0  0  0  0  0
   60.2680   33.8070   48.9450 C   0  0  0  0  0  0  0  0  0  0  0  0
   61.5710   33.3940   48.3750 N   0  0  0  0  0  0  0  0  0  0  0  0
   61.7540   33.8390   46.9810 C   0  0  0  0  0  0  0  0  0  0  0  0
   63.2020   33.6020   46.5110 C   0  0  0  0  0  0  0  0  0  0  0  0
   63.8300   32.6150   47.3070 O   0  0  0  0  0  0  0  0  0  0  0  0
   64.0080   33.0990   48.6300 C   0  0  0  0  0  0  0  0  0  0  0  0
   62.7310   33.7410   49.2140 C   0  0  0  0  0  0  0  0  0  0  0  0
   58.5750   28.0010   46.8610 C   0  0  0  0  0  0  0  0  0  0  0  0
   58.0800   28.4610   45.4820 C   0  0  0  0  0  0  0  0  0  0  0  0
   59.6938   34.9973   46.2450 H   0  0  0  0  0  0  0  0  0  0  0  0
   59.9398   34.1263   44.6934 H   0  0  0  0  0  0  0  0  0  0  0  0
   59.2411   35.7811   44.6934 H   0  0  0  0  0  0  0  0  0  0  0  0
   57.4071   34.6120   46.2623 H   0  0  0  0  0  0  0  0  0  0  0  0
   57.3101   34.5318   44.4584 H   0  0  0  0  0  0  0  0  0  0  0  0
   56.0564   32.4566   44.3493 H   0  0  0  0  0  0  0  0  0  0  0  0
   59.8510   32.6585   46.4316 H   0  0  0  0  0  0  0  0  0  0  0  0
   60.8897   29.6159   45.7428 H   0  0  0  0  0  0  0  0  0  0  0  0
   60.7621   30.5659   47.2879 H   0  0  0  0  0  0  0  0  0  0  0  0
   59.3488   27.9860   49.2435 H   0  0  0  0  0  0  0  0  0  0  0  0
   60.9554   28.8261   49.0653 H   0  0  0  0  0  0  0  0  0  0  0  0
   60.9880   31.3230   48.7660 H   0  0  0  0  0  0  0  0  0  0  0  0
   58.4101   32.6862   48.8824 H   0  0  0  0  0  0  0  0  0  0  0  0
   59.2185   32.7236   50.4977 H   0  0  0  0  0  0  0  0  0  0  0  0
   59.7207   34.3727   48.1766 H   0  0  0  0  0  0  0  0  0  0  0  0
   60.4936   34.4049   49.8403 H   0  0  0  0  0  0  0  0  0  0  0  0
   61.0681   33.2761   46.3308 H   0  0  0  0  0  0  0  0  0  0  0  0
   61.5399   34.9166   46.9263 H   0  0  0  0  0  0  0  0  0  0  0  0
   63.1916   33.2681   45.4630 H   0  0  0  0  0  0  0  0  0  0  0  0
   63.7635   34.5432   46.6056 H   0  0  0  0  0  0  0  0  0  0  0  0
   64.3037   32.2578   49.2742 H   0  0  0  0  0  0  0  0  0  0  0  0
   64.7819   33.8798   48.5936 H   0  0  0  0  0  0  0  0  0  0  0  0
   62.5682   33.3667   50.2355 H   0  0  0  0  0  0  0  0  0  0  0  0
   62.8505   34.8343   49.2352 H   0  0  0  0  0  0  0  0  0  0  0  0
   58.7702   26.9194   46.8160 H   0  0  0  0  0  0  0  0  0  0  0  0
   57.7879   28.2578   47.5852 H   0  0  0  0  0  0  0  0  0  0  0  0
   58.7772   28.1134   44.7054 H   0  0  0  0  0  0  0  0  0  0  0  0
   57.0823   28.0408   45.2869 H   0  0  0  0  0  0  0  0  0  0  0  0
  1  2  1  0
  2  3  1  0
  3  4  2  0
  4  5  1  0
  5  6  2  0
  6  7  1  0
  7  8  2  0
  7  9  1  0
  9 10  1  0
 10 11  1  0
 11 12  1  0
 12 13  2  0
 12 14  1  0
 14 15  1  0
 15 16  1  0
 16 17  1  0
 17 18  1  0
 18 19  1  0
 19 20  1  0
 20 21  1  0
 21 22  1  0
 10 23  1  0
 23 24  1  0
  8  3  1  0
 22 17  1  0
 24  6  1  0
  1 25  1  0
  1 26  1  0
  1 27  1  0
  2 28  1  0
  2 29  1  0
  4 30  1  0
  8 31  1  0
  9 32  1  0
  9 33  1  0
 11 34  1  0
 11 35  1  0
 14 36  1  0
 15 37  1  0
 15 38  1  0
 16 39  1  0
 16 40  1  0
 18 41  1  0
 18 42  1  0
 19 43  1  0
 19 44  1  0
 21 45  1  0
 21 46  1  0
 22 47  1  0
 22 48  1  0
 23 49  1  0
 23 50  1  0
 24 51  1  0
 24 52  1  0
M  END
>  <UniqueID>  (5) 
5

>  <SMILES>  (5) 
CCc1cnc2c(c1)CN(CC(=O)NCCN1CCOCC1)CC2

>  <Energy>  (5) 
68.41361085026021

>  <Genealogy>  (5) 
CCc1cnc2c(c1)CN(CC(=O)NCCN1CCOCC1)CC2 (3D coordinates assigned)
CCc1cnc2c(c1)CN(CC(=O)NCCN1CCOCC1)CC2 (nonaromatic ring conformer: 68.41361085026021 kcal/mol)

>  <smiles>  (5) 
CCc1cnc2c(c1)CN(CC(=O)NCCN1CCOCC1)CC2

>  <score_type>  (5) 
oracle

>  <origin>  (5) 
adg

>  <m_score__min__energy>  (5) 
-7.6200000000000001

>  <m_primary>  (5) 
energy

$$$$
5:0
     RDKit          3D

 49 51  0  0  0  0  0  0  0  0999 V2000
   56.6400   30.6010   42.6530 C   0  0  0  0  0  0  0  0  0  0  0  0
   56.1050   30.8180   44.0630 C   0  0  0  0  0  0  0  0  0  0  0  0
   56.5760   29.7470   44.9490 N   0  0  0  0  0  0  0  0  0  0  0  0
   57.4080   28.7700   44.2300 C   0  0  0  0  0  0  0  0  0  0  0  0
   58.1460   27.8460   45.1760 C   0  0  0  0  0  0  0  0  0  0  0  0
   59.0410   28.1940   46.1960 C   0  0  0  0  0  0  0  0  0  0  0  0
   59.4500   29.5510   46.6310 C   0  0  0  0  0  0  0  0  0  0  0  0
   60.8060   29.8880   46.7410 C   0  0  0  0  0  0  0  0  0  0  0  0
   61.1640   31.1700   47.1510 C   0  0  0  0  0  0  0  0  0  0  0  0
   60.1610   32.0930   47.4460 C   0  0  0  0  0  0  0  0  0  0  0  0
   60.5760   33.7510   47.9770 S   0  0  0  0  0  0  0  0  0  0  0  0
   59.1570   34.5130   47.1110 C   0  0  0  0  0  0  0  0  0  0  0  0
   59.3850   34.5510   45.5920 C   0  0  0  0  0  0  0  0  0  0  0  0
   58.1600   34.1930   44.8430 N   0  0  0  0  0  0  0  0  0  0  0  0
   58.4550   33.1070   43.8940 C   0  0  0  0  0  0  0  0  0  0  0  0
   57.0810   33.7670   45.7510 C   0  0  0  0  0  0  0  0  0  0  0  0
   58.8600   31.7250   47.3240 N   0  0  0  0  0  0  0  0  0  0  0  0
   58.5180   30.4970   46.9300 N   0  0  0  0  0  0  0  0  0  0  0  0
   59.5310   27.0670   46.7700 N   0  0  0  0  0  0  0  0  0  0  0  0
   58.9370   26.0700   46.0910 C   0  0  0  0  0  0  0  0  0  0  0  0
   59.1360   24.7090   46.3140 C   0  0  0  0  0  0  0  0  0  0  0  0
   58.4430   23.8030   45.4970 C   0  0  0  0  0  0  0  0  0  0  0  0
   57.5790   24.2740   44.4900 C   0  0  0  0  0  0  0  0  0  0  0  0
   56.6400   23.0430   43.3740 Br  0  0  0  0  0  0  0  0  0  0  0  0
   57.4160   25.6560   44.3110 C   0  0  0  0  0  0  0  0  0  0  0  0
   58.1050   26.5010   45.1270 N   0  0  0  0  0  0  0  0  0  0  0  0
   57.6581   30.1880   42.7067 H   0  0  0  0  0  0  0  0  0  0  0  0
   55.9865   29.8969   42.1172 H   0  0  0  0  0  0  0  0  0  0  0  0
   56.6616   31.5614   42.1172 H   0  0  0  0  0  0  0  0  0  0  0  0
   56.4606   31.7874   44.4423 H   0  0  0  0  0  0  0  0  0  0  0  0
   55.0053   30.8080   44.0374 H   0  0  0  0  0  0  0  0  0  0  0  0
   57.1350   30.1740   45.7250 H   0  0  0  0  0  0  0  0  0  0  0  0
   56.7614   28.1660   43.5764 H   0  0  0  0  0  0  0  0  0  0  0  0
   58.1564   29.3262   43.6465 H   0  0  0  0  0  0  0  0  0  0  0  0
   61.5822   29.1451   46.5051 H   0  0  0  0  0  0  0  0  0  0  0  0
   62.2238   31.4508   47.2409 H   0  0  0  0  0  0  0  0  0  0  0  0
   58.2509   33.9263   47.3228 H   0  0  0  0  0  0  0  0  0  0  0  0
   59.0446   35.5463   47.4712 H   0  0  0  0  0  0  0  0  0  0  0  0
   59.6945   35.5664   45.3038 H   0  0  0  0  0  0  0  0  0  0  0  0
   60.1641   33.8149   45.3448 H   0  0  0  0  0  0  0  0  0  0  0  0
   58.7037   32.1913   44.4504 H   0  0  0  0  0  0  0  0  0  0  0  0
   57.5741   32.9237   43.2612 H   0  0  0  0  0  0  0  0  0  0  0  0
   59.3076   33.3945   43.2612 H   0  0  0  0  0  0  0  0  0  0  0  0
   57.4070   33.8957   46.7937 H   0  0  0  0  0  0  0  0  0  0  0  0
   56.1853   34.3790   45.5687 H   0  0  0  0  0  0  0  0  0  0  0  0
   56.8450   32.7082   45.5687 H   0  0  0  0  0  0  0  0  0  0  0  0
   59.8144   24.3564   47.1049 H   0  0  0  0  0  0  0  0  0  0  0  0
   58.5752   22.7209   45.6437 H   0  0  0  0  0  0  0  0  0  0  0  0
   56.7476   26.0477   43.5301 H   0  0  0  0  0  0  0  0  0  0  0  0
  1  2  1  0
  2  3  1  0
  3  4  1  0
  4  5  1  0
  5  6  2  0
  6  7  1  0
  7  8  2  0
  8  9  1  0
  9 10  2  0
 10 11  1  0
 11 12  1  0
 12 13  1  0
 13 14  1  0
 14 15  1  0
 14 16  1  0
 10 17  1  0
 17 18  2  0
  6 19  1  0
 19 20  2  0
 20 21  1  0
 21 22  2  0
 22 23  1  0
 23 24  1  0
 23 25  2  0
 25 26  1  0
 26  5  1  0
 18  7  1  0
 26 20  1  0
  1 27  1  0
  1 28  1  0
  1 29  1  0
  2 30  1  0
  2 31  1  0
  3 32  1  0
  4 33  1  0
  4 34  1  0
  8 35  1  0
  9 36  1  0
 12 37  1  0
 12 38  1  0
 13 39  1  0
 13 40  1  0
 15 41  1  0
 15 42  1  0
 15 43  1  0
 16 44  1  0
 16 45  1  0
 16 46  1  0
 21 47  1  0
 22 48  1  0
 25 49  1  0
M  END
>  <UniqueID>  (6) 
6

>  <SMILES>  (6) 
CCNCc1c(-c2ccc(SCCN(C)C)nn2)nc2ccc(Br)cn12

>  <Energy>  (6) 
81.50777586670345

>  <Genealogy>  (6) 
CCNCc1c(-c2ccc(SCCN(C)C)nn2)nc2ccc(Br)cn12 (3D coordinates assigned)
CCNCc1c(-c2ccc(SCCN(C)C)nn2)nc2ccc(Br)cn12 (optimized conformer: 81.50777586670345 kcal/mol)

>  <smiles>  (6) 
CCNCc1c(-c2ccc(SCCN(C)C)nn2)nc2ccc(Br)cn12

>  <score_type>  (6) 
oracle

>  <origin>  (6) 
adg

>  <m_score__min__energy>  (6) 
-8.0899999999999999

>  <m_primary>  (6) 
energy

$$$$
6:0
     RDKit          3D

 69 73  0  0  0  0  0  0  0  0999 V2000
   58.2150   21.4870   43.7610 C   0  0  0  0  0  0  0  0  0  0  0  0
   56.7460   21.2490   44.1500 C   0  0  0  0  0  0  0  0  0  0  0  0
   56.6410   20.9120   45.6350 C   0  0  0  0  0  0  0  0  0  0  0  0
   55.9160   22.4420   43.8710 N   0  0  0  0  0  0  0  0  0  0  0  0
   56.5710   23.4190   42.9850 C   0  0  0  0  0  0  0  0  0  0  0  0
   57.1920   24.5600   43.7530 C   0  0  0  0  0  0  0  0  0  0  0  0
   57.3370   24.4800   45.1420 C   0  0  0  0  0  0  0  0  0  0  0  0
   57.9030   25.5400   45.8560 C   0  0  0  0  0  0  0  0  0  0  0  0
   58.3300   26.7010   45.1910 C   0  0  0  0  0  0  0  0  0  0  0  0
   58.8810   27.8510   45.9450 C   0  0  0  0  0  0  0  0  0  0  0  0
   59.8400   28.6980   45.3690 C   0  0  0  0  0  0  0  0  0  0  0  0
   60.3690   29.7510   46.1160 C   0  0  0  0  0  0  0  0  0  0  0  0
   59.9470   29.9570   47.4380 C   0  0  0  0  0  0  0  0  0  0  0  0
   60.4280   31.0050   48.2470 C   0  0  0  0  0  0  0  0  0  0  0  0
   61.4210   31.9250   47.7620 N   0  0  0  0  0  0  0  0  0  0  0  0
   60.9440   33.1110   47.0330 C   0  0  0  0  0  0  0  0  0  0  0  0
   62.0840   33.9120   46.3980 C   0  0  0  0  0  0  0  0  0  0  0  0
   63.2330   33.8910   47.2190 O   0  0  0  0  0  0  0  0  0  0  0  0
   63.7680   32.5860   47.2040 C   0  0  0  0  0  0  0  0  0  0  0  0
   62.8510   31.6050   47.9620 C   0  0  1  0  0  0  0  0  0  0  0  0
   63.1920   31.5970   49.4590 C   0  0  0  0  0  0  0  0  0  0  0  0
   59.9400   31.1550   49.5100 N   0  0  0  0  0  0  0  0  0  0  0  0
   59.0000   30.3040   50.0130 C   0  0  0  0  0  0  0  0  0  0  0  0
   58.4740   30.4970   51.3390 N   0  0  0  0  0  0  0  0  0  0  0  0
   58.5660   29.4130   52.3250 C   0  0  0  0  0  0  0  0  0  0  0  0
   58.4820   29.9920   53.7460 C   0  0  0  0  0  0  0  0  0  0  0  0
   57.3500   30.8350   53.8790 O   0  0  0  0  0  0  0  0  0  0  0  0
   57.4970   31.9640   53.0360 C   0  0  0  0  0  0  0  0  0  0  0  0
   57.4650   31.5350   51.5690 C   0  0  0  0  0  0  0  0  0  0  0  0
   58.5270   29.2870   49.2410 N   0  0  0  0  0  0  0  0  0  0  0  0
   58.9770   29.0940   47.9770 C   0  0  0  0  0  0  0  0  0  0  0  0
   58.4830   28.0700   47.2300 N   0  0  0  0  0  0  0  0  0  0  0  0
   58.2070   26.7670   43.7960 C   0  0  0  0  0  0  0  0  0  0  0  0
   57.6400   25.7070   43.0830 C   0  0  0  0  0  0  0  0  0  0  0  0
   58.8241   21.5857   44.6717 H   0  0  0  0  0  0  0  0  0  0  0  0
   58.5794   20.6362   43.1666 H   0  0  0  0  0  0  0  0  0  0  0  0
   58.2921   22.4093   43.1666 H   0  0  0  0  0  0  0  0  0  0  0  0
   56.3761   20.4076   43.5458 H   0  0  0  0  0  0  0  0  0  0  0  0
   56.9159   21.7944   46.2316 H   0  0  0  0  0  0  0  0  0  0  0  0
   55.6082   20.6166   45.8718 H   0  0  0  0  0  0  0  0  0  0  0  0
   57.3232   20.0822   45.8718 H   0  0  0  0  0  0  0  0  0  0  0  0
   55.5960   22.9150   44.7480 H   0  0  0  0  0  0  0  0  0  0  0  0
   57.3590   22.9064   42.4138 H   0  0  0  0  0  0  0  0  0  0  0  0
   55.8024   23.8392   42.3197 H   0  0  0  0  0  0  0  0  0  0  0  0
   57.0037   23.5776   45.6755 H   0  0  0  0  0  0  0  0  0  0  0  0
   58.0149   25.4642   46.9477 H   0  0  0  0  0  0  0  0  0  0  0  0
   60.1731   28.5327   44.3338 H   0  0  0  0  0  0  0  0  0  0  0  0
   61.1179   30.4205   45.6678 H   0  0  0  0  0  0  0  0  0  0  0  0
   60.2586   32.7831   46.2376 H   0  0  0  0  0  0  0  0  0  0  0  0
   60.4408   33.7670   47.7586 H   0  0  0  0  0  0  0  0  0  0  0  0
   62.3318   33.4728   45.4204 H   0  0  0  0  0  0  0  0  0  0  0  0
   61.7564   34.9553   46.2785 H   0  0  0  0  0  0  0  0  0  0  0  0
   63.8699   32.2508   46.1613 H   0  0  0  0  0  0  0  0  0  0  0  0
   64.7495   32.6035   47.7003 H   0  0  0  0  0  0  0  0  0  0  0  0
   63.0289   30.6010   47.5494 H   0  0  0  0  0  0  0  0  0  0  0  0
   62.2625   31.6188   50.0469 H   0  0  0  0  0  0  0  0  0  0  0  0
   63.7578   30.6853   49.7013 H   0  0  0  0  0  0  0  0  0  0  0  0
   63.7999   32.4811   49.7013 H   0  0  0  0  0  0  0  0  0  0  0  0
   60.2790   31.9560   50.0890 H   0  0  0  0  0  0  0  0  0  0  0  0
   57.7374   28.7065   52.1691 H   0  0  0  0  0  0  0  0  0  0  0  0
   59.5266   28.8913   52.2020 H   0  0  0  0  0  0  0  0  0  0  0  0
   58.4036   29.1660   54.4681 H   0  0  0  0  0  0  0  0  0  0  0  0
   59.3882   30.5846   53.9399 H   0  0  0  0  0  0  0  0  0  0  0  0
   56.6746   32.6692   53.2264 H   0  0  0  0  0  0  0  0  0  0  0  0
   58.4623   32.4470   53.2478 H   0  0  0  0  0  0  0  0  0  0  0  0
   56.4687   31.1377   51.3253 H   0  0  0  0  0  0  0  0  0  0  0  0
   57.6813   32.4033   50.9293 H   0  0  0  0  0  0  0  0  0  0  0  0
   58.5594   27.6597   43.2586 H   0  0  0  0  0  0  0  0  0  0  0  0
   57.5447   25.7732   41.9891 H   0  0  0  0  0  0  0  0  0  0  0  0
  1  2  1  0
  2  3  1  0
  2  4  1  0
  4  5  1  0
  5  6  1  0
  6  7  2  0
  7  8  1  0
  8  9  2  0
  9 10  1  0
 10 11  2  0
 11 12  1  0
 12 13  2  0
 13 14  1  0
 14 15  1  0
 15 16  1  0
 16 17  1  0
 17 18  1  0
 18 19  1  0
 19 20  1  0
 20 21  1  0
 14 22  2  0
 22 23  1  0
 23 24  1  0
 24 25  1  0
 25 26  1  0
 26 27  1  0
 27 28  1  0
 28 29  1  0
 23 30  2  0
 30 31  1  0
 31 32  2  0
  9 33  1  0
 33 34  2  0
 34  6  1  0
 32 10  1  0
 31 13  1  0
 20 15  1  0
 29 24  1  0
  1 35  1  0
  1 36  1  0
  1 37  1  0
  2 38  1  0
  3 39  1  0
  3 40  1  0
  3 41  1  0
  4 42  1  0
  5 43  1  0
  5 44  1  0
  7 45  1  0
  8 46  1  0
 11 47  1  0
 12 48  1  0
 16 49  1  0
 16 50  1  0
 17 51  1  0
 17 52  1  0
 19 53  1  0
 19 54  1  0
 20 55  1  6
 21 56  1  0
 21 57  1  0
 21 58  1  0
 22 59  1  0
 25 60  1  0
 25 61  1  0
 26 62  1  0
 26 63  1  0
 28 64  1  0
 28 65  1  0
 29 66  1  0
 29 67  1  0
 33 68  1  0
 34 69  1  0
M  CHG  1  22   1
M  END
>  <UniqueID>  (7) 
7

>  <SMILES>  (7) 
CC(C)NCc1ccc(-c2ccc3c(N4CCOC[C@H]4C)[nH+]c(N4CCOCC4)nc3n2)cc1

>  <Energy>  (7) 
90.28717546016009

>  <Genealogy>  (7) 
CC(C)NCc1ccc(-c2ccc3c(N4CCOCC4C)[nH+]c(N4CCOCC4)nc3n2)cc1 (protonated)
CC(C)NCc1ccc(-c2ccc3c(N4CCOC[C@H]4C)[nH+]c(N4CCOCC4)nc3n2)cc1 (chirality)
CC(C)NCc1ccc(-c2ccc3c(N4CCOC[C@H]4C)[nH+]c(N4CCOCC4)nc3n2)cc1 (3D coordinates assigned)
CC(C)NCc1ccc(-c2ccc3c(N4CCOC[C@H]4C)[nH+]c(N4CCOCC4)nc3n2)cc1 (nonaromatic ring conformer: 90.28717546016009 kcal/mol)

>  <smiles>  (7) 
CC(C)NCc1ccc(-c2ccc3c(N4CCOCC4C)nc(N4CCOCC4)nc3n2)cc1

>  <score_type>  (7) 
oracle

>  <origin>  (7) 
adg

>  <m_score__min__energy>  (7) 
-7.1600000000000001

>  <m_primary>  (7) 
energy

$$$$
7:0
     RDKit          3D

 70 72  0  0  0  0  0  0  0  0999 V2000
   55.5580   29.7390   44.3700 C   0  0  0  0  0  0  0  0  0  0  0  0
   56.9860   29.5170   44.8680 C   0  0  0  0  0  0  0  0  0  0  0  0
   58.0080   30.4600   44.2070 C   0  0  0  0  0  0  0  0  0  0  0  0
   57.4820   31.2200   42.9750 C   0  0  0  0  0  0  0  0  0  0  0  0
   58.0500   32.6450   42.8670 C   0  0  0  0  0  0  0  0  0  0  0  0
   57.8000   33.4660   44.1400 C   0  0  0  0  0  0  0  0  0  0  0  0
   58.9800   34.2510   44.5160 N   0  0  0  0  0  0  0  0  0  0  0  0
   59.5650   34.2220   45.8330 C   0  0  0  0  0  0  0  0  0  0  0  0
   58.7990   34.6210   46.9240 C   0  0  0  0  0  0  0  0  0  0  0  0
   59.3040   34.5310   48.2160 C   0  0  0  0  0  0  0  0  0  0  0  0
   60.6040   34.0320   48.4650 C   0  0  0  0  0  0  0  0  0  0  0  0
   61.0710   33.7940   49.7880 C   0  0  0  0  0  0  0  0  0  0  0  0
   60.1290   33.8010   50.9060 N   0  0  0  0  0  0  0  0  0  0  0  0
   59.5940   32.4590   51.2170 C   0  0  0  0  0  0  0  0  0  0  0  0
   59.2980   31.5860   49.9750 C   0  0  0  0  0  0  0  0  0  0  0  0
   60.4810   30.8890   49.4100 N   0  0  0  0  0  0  0  0  0  0  0  0
   60.1880   30.4880   48.0090 C   0  0  0  0  0  0  0  0  0  0  0  0
   58.8870   31.1140   47.5230 C   0  0  0  0  0  0  0  0  0  0  0  0
   60.8530   29.7000   50.2120 C   0  0  0  0  0  0  0  0  0  0  0  0
   62.2160   29.9090   50.8700 C   0  0  0  0  0  0  0  0  0  0  0  0
   62.4460   33.4570   49.9690 C   0  0  0  0  0  0  0  0  0  0  0  0
   63.0500   33.3790   51.2510 C   0  0  0  0  0  0  0  0  0  0  0  0
   64.3750   32.9790   51.4020 C   0  0  0  0  0  0  0  0  0  0  0  0
   65.1210   32.6090   50.2960 C   0  0  0  0  0  0  0  0  0  0  0  0
   64.5760   32.7200   49.0240 C   0  0  0  0  0  0  0  0  0  0  0  0
   63.2630   33.2210   48.8240 C   0  0  0  0  0  0  0  0  0  0  0  0
   62.7830   33.4720   47.5530 N   0  0  0  0  0  0  0  0  0  0  0  0
   63.7210   33.5080   46.4050 C   0  0  0  0  0  0  0  0  0  0  0  0
   61.4510   33.7680   47.3570 C   0  0  0  0  0  0  0  0  0  0  0  0
   60.8860   33.8000   46.0530 C   0  0  0  0  0  0  0  0  0  0  0  0
   54.8816   29.8442   45.2310 H   0  0  0  0  0  0  0  0  0  0  0  0
   55.5204   30.6538   43.7603 H   0  0  0  0  0  0  0  0  0  0  0  0
   55.2444   28.8788   43.7603 H   0  0  0  0  0  0  0  0  0  0  0  0
   57.0078   29.6834   45.9551 H   0  0  0  0  0  0  0  0  0  0  0  0
   57.2699   28.4876   44.6039 H   0  0  0  0  0  0  0  0  0  0  0  0
   58.3252   31.2003   44.9562 H   0  0  0  0  0  0  0  0  0  0  0  0
   58.8314   29.8237   43.8504 H   0  0  0  0  0  0  0  0  0  0  0  0
   57.7625   30.6603   42.0705 H   0  0  0  0  0  0  0  0  0  0  0  0
   56.3903   31.3055   43.0796 H   0  0  0  0  0  0  0  0  0  0  0  0
   59.1343   32.5821   42.6931 H   0  0  0  0  0  0  0  0  0  0  0  0
   57.5400   33.1500   42.0334 H   0  0  0  0  0  0  0  0  0  0  0  0
   56.9572   34.1505   43.9636 H   0  0  0  0  0  0  0  0  0  0  0  0
   57.5746   32.7689   44.9605 H   0  0  0  0  0  0  0  0  0  0  0  0
   59.4050   34.8930   43.8080 H   0  0  0  0  0  0  0  0  0  0  0  0
   57.7835   35.0116   46.7624 H   0  0  0  0  0  0  0  0  0  0  0  0
   58.6799   34.8544   49.0621 H   0  0  0  0  0  0  0  0  0  0  0  0
   59.3370   34.4430   50.6800 H   0  0  0  0  0  0  0  0  0  0  0  0
   60.5080   34.1910   51.7870 H   0  0  0  0  0  0  0  0  0  0  0  0
   60.3302   31.9312   51.8411 H   0  0  0  0  0  0  0  0  0  0  0  0
   58.6323   32.6149   51.7278 H   0  0  0  0  0  0  0  0  0  0  0  0
   58.5560   30.8255   50.2597 H   0  0  0  0  0  0  0  0  0  0  0  0
   58.9380   32.2706   49.1929 H   0  0  0  0  0  0  0  0  0  0  0  0
   61.0116   30.8203   47.3599 H   0  0  0  0  0  0  0  0  0  0  0  0
   60.0857   29.3934   47.9717 H   0  0  0  0  0  0  0  0  0  0  0  0
   58.2757   31.4081   48.3889 H   0  0  0  0  0  0  0  0  0  0  0  0
   59.1124   32.0023   46.9146 H   0  0  0  0  0  0  0  0  0  0  0  0
   58.3335   30.3836   46.9146 H   0  0  0  0  0  0  0  0  0  0  0  0
   60.0948   29.5368   50.9920 H   0  0  0  0  0  0  0  0  0  0  0  0
   60.9065   28.8239   49.5490 H   0  0  0  0  0  0  0  0  0  0  0  0
   62.1016   29.8915   51.9639 H   0  0  0  0  0  0  0  0  0  0  0  0
   62.9000   29.1052   50.5599 H   0  0  0  0  0  0  0  0  0  0  0  0
   62.6277   30.8808   50.5599 H   0  0  0  0  0  0  0  0  0  0  0  0
   62.4601   33.6395   52.1422 H   0  0  0  0  0  0  0  0  0  0  0  0
   64.8305   32.9569   52.4030 H   0  0  0  0  0  0  0  0  0  0  0  0
   66.1446   32.2274   50.4250 H   0  0  0  0  0  0  0  0  0  0  0  0
   65.1740   32.4134   48.1531 H   0  0  0  0  0  0  0  0  0  0  0  0
   64.7552   33.5477   46.7776 H   0  0  0  0  0  0  0  0  0  0  0  0
   63.5862   32.6040   45.7929 H   0  0  0  0  0  0  0  0  0  0  0  0
   63.5174   34.3990   45.7929 H   0  0  0  0  0  0  0  0  0  0  0  0
   61.4988   33.4864   45.1950 H   0  0  0  0  0  0  0  0  0  0  0  0
  1  2  1  0
  2  3  1  0
  3  4  1  0
  4  5  1  0
  5  6  1  0
  6  7  1  0
  7  8  1  0
  8  9  2  0
  9 10  1  0
 10 11  2  0
 11 12  1  0
 12 13  1  0
 13 14  1  0
 14 15  1  0
 15 16  1  0
 16 17  1  0
 17 18  1  0
 16 19  1  0
 19 20  1  0
 12 21  2  0
 21 22  1  0
 22 23  2  0
 23 24  1  0
 24 25  2  0
 25 26  1  0
 26 27  2  0
 27 28  1  0
 27 29  1  0
 29 30  2  0
 30  8  1  0
 29 11  1  0
 26 21  1  0
  1 31  1  0
  1 32  1  0
  1 33  1  0
  2 34  1  0
  2 35  1  0
  3 36  1  0
  3 37  1  0
  4 38  1  0
  4 39  1  0
  5 40  1  0
  5 41  1  0
  6 42  1  0
  6 43  1  0
  7 44  1  0
  9 45  1  0
 10 46  1  0
 13 47  1  0
 13 48  1  0
 14 49  1  0
 14 50  1  0
 15 51  1  0
 15 52  1  0
 17 53  1  0
 17 54  1  0
 18 55  1  0
 18 56  1  0
 18 57  1  0
 19 58  1  0
 19 59  1  0
 20 60  1  0
 20 61  1  0
 20 62  1  0
 22 63  1  0
 23 64  1  0
 24 65  1  0
 25 66  1  0
 28 67  1  0
 28 68  1  0
 28 69  1  0
 30 70  1  0
M  CHG  2  13   1  27   1
M  END
>  <UniqueID>  (8) 
8

>  <SMILES>  (8) 
CCCCCCNc1ccc2c([NH2+]CCN(CC)CC)c3ccccc3[n+](C)c2c1

>  <Energy>  (8) 
93.92918683064255

>  <Genealogy>  (8) 
CCCCCCNc1ccc2c([NH2+]CCN(CC)CC)c3ccccc3[n+](C)c2c1 (protonated)
CCCCCCNc1ccc2c([NH2+]CCN(CC)CC)c3ccccc3[n+](C)c2c1 (3D coordinates assigned)
CCCCCCNc1ccc2c([NH2+]CCN(CC)CC)c3ccccc3[n+](C)c2c1 (optimized conformer: 93.92918683064255 kcal/mol)

>  <smiles>  (8) 
CCCCCCNc1ccc2c(NCCN(CC)CC)c3ccccc3[n+](C)c2c1

>  <score_type>  (8) 
oracle

>  <origin>  (8) 
adg

>  <m_score__min__energy>  (8) 
-4.79

>  <m_primary>  (8) 
energy

$$$$
8:0
     RDKit          3D

 47 49  0  0  0  0  0  0  0  0999 V2000
   55.5170   30.0920   44.0800 C   0  0  0  0  0  0  0  0  0  0  0  0
   56.3200   29.6210   42.8660 C   0  0  0  0  0  0  0  0  0  0  0  0
   57.3360   28.6130   43.2180 N   0  0  0  0  0  0  0  0  0  0  0  0
   57.6700   28.5990   44.6610 C   0  0  0  0  0  0  0  0  0  0  0  0
   59.1090   29.0660   44.9480 C   0  0  0  0  0  0  0  0  0  0  0  0
   59.1380   30.3220   45.7830 C   0  0  0  0  0  0  0  0  0  0  0  0
   59.6490   30.4940   47.0750 C   0  0  0  0  0  0  0  0  0  0  0  0
   60.3810   29.4450   47.8660 C   0  0  0  0  0  0  0  0  0  0  0  0
   59.5140   31.7910   47.4680 N   0  0  0  0  0  0  0  0  0  0  0  0
   60.0200   32.3910   48.7100 C   0  0  0  0  0  0  0  0  0  0  0  0
   61.4670   32.7770   48.5570 C   0  0  0  0  0  0  0  0  0  0  0  0
   62.3290   32.7740   49.6670 C   0  0  0  0  0  0  0  0  0  0  0  0
   63.6760   33.1140   49.5140 C   0  0  0  0  0  0  0  0  0  0  0  0
   64.1730   33.4580   48.2540 C   0  0  0  0  0  0  0  0  0  0  0  0
   63.3230   33.4650   47.1460 C   0  0  0  0  0  0  0  0  0  0  0  0
   61.9750   33.1260   47.2940 C   0  0  0  0  0  0  0  0  0  0  0  0
   58.9160   32.4340   46.4390 C   0  0  0  0  0  0  0  0  0  0  0  0
   58.5780   33.7910   46.3390 C   0  0  0  0  0  0  0  0  0  0  0  0
   57.9810   34.2410   45.1490 C   0  0  0  0  0  0  0  0  0  0  0  0
   57.7390   33.3470   44.0870 C   0  0  0  0  0  0  0  0  0  0  0  0
   58.0900   31.9920   44.2050 C   0  0  0  0  0  0  0  0  0  0  0  0
   58.6730   31.5660   45.4010 C   0  0  0  0  0  0  0  0  0  0  0  0
   56.0344   29.7885   45.0021 H   0  0  0  0  0  0  0  0  0  0  0  0
   55.4240   31.1878   44.0554 H   0  0  0  0  0  0  0  0  0  0  0  0
   54.5152   29.6384   44.0554 H   0  0  0  0  0  0  0  0  0  0  0  0
   55.6268   29.1823   42.1332 H   0  0  0  0  0  0  0  0  0  0  0  0
   56.8452   30.4949   42.4531 H   0  0  0  0  0  0  0  0  0  0  0  0
   56.9410   27.6760   42.9660 H   0  0  0  0  0  0  0  0  0  0  0  0
   58.1820   28.7470   42.6190 H   0  0  0  0  0  0  0  0  0  0  0  0
   56.9727   29.2660   45.1891 H   0  0  0  0  0  0  0  0  0  0  0  0
   57.5850   27.5590   45.0092 H   0  0  0  0  0  0  0  0  0  0  0  0
   59.6406   28.2683   45.4874 H   0  0  0  0  0  0  0  0  0  0  0  0
   59.5939   29.2859   43.9854 H   0  0  0  0  0  0  0  0  0  0  0  0
   60.2473   29.6366   48.9409 H   0  0  0  0  0  0  0  0  0  0  0  0
   59.9790   28.4516   47.6178 H   0  0  0  0  0  0  0  0  0  0  0  0
   61.4521   29.4796   47.6178 H   0  0  0  0  0  0  0  0  0  0  0  0
   59.4289   33.2882   48.9457 H   0  0  0  0  0  0  0  0  0  0  0  0
   59.9319   31.6549   49.5226 H   0  0  0  0  0  0  0  0  0  0  0  0
   61.9419   32.5029   50.6603 H   0  0  0  0  0  0  0  0  0  0  0  0
   64.3458   33.1108   50.3865 H   0  0  0  0  0  0  0  0  0  0  0  0
   65.2339   33.7233   48.1350 H   0  0  0  0  0  0  0  0  0  0  0  0
   63.7149   33.7378   46.1550 H   0  0  0  0  0  0  0  0  0  0  0  0
   61.3092   33.1324   46.4184 H   0  0  0  0  0  0  0  0  0  0  0  0
   58.7748   34.4848   47.1696 H   0  0  0  0  0  0  0  0  0  0  0  0
   57.7004   35.2996   45.0458 H   0  0  0  0  0  0  0  0  0  0  0  0
   57.2725   33.7123   43.1602 H   0  0  0  0  0  0  0  0  0  0  0  0
   57.9111   31.2869   43.3798 H   0  0  0  0  0  0  0  0  0  0  0  0
  1  2  1  0
  2  3  1  0
  3  4  1  0
  4  5  1  0
  5  6  1  0
  6  7  2  0
  7  8  1  0
  7  9  1  0
  9 10  1  0
 10 11  1  0
 11 12  2  0
 12 13  1  0
 13 14  2  0
 14 15  1  0
 15 16  2  0
  9 17  1  0
 17 18  2  0
 18 19  1  0
 19 20  2  0
 20 21  1  0
 21 22  2  0
 22  6  1  0
 16 11  1  0
 22 17  1  0
  1 23  1  0
  1 24  1  0
  1 25  1  0
  2 26  1  0
  2 27  1  0
  3 28  1  0
  3 29  1  0
  4 30  1  0
  4 31  1  0
  5 32  1  0
  5 33  1  0
  8 34  1  0
  8 35  1  0
  8 36  1  0
 10 37  1  0
 10 38  1  0
 12 39  1  0
 13 40  1  0
 14 41  1  0
 15 42  1  0
 16 43  1  0
 18 44  1  0
 19 45  1  0
 20 46  1  0
 21 47  1  0
M  CHG  1   3   1
M  END
>  <UniqueID>  (9) 
9

>  <SMILES>  (9) 
CC[NH2+]CCc1c(C)n(Cc2ccccc2)c2ccccc12

>  <Energy>  (9) 
79.50895279130567

>  <Genealogy>  (9) 
CC[NH2+]CCc1c(C)n(Cc2ccccc2)c2ccccc12 (protonated)
CC[NH2+]CCc1c(C)n(Cc2ccccc2)c2ccccc12 (3D coordinates assigned)
CC[NH2+]CCc1c(C)n(Cc2ccccc2)c2ccccc12 (optimized conformer: 79.50895279130567 kcal/mol)

>  <smiles>  (9) 
CCNCCc1c(C)n(Cc2ccccc2)c2ccccc12

>  <score_type>  (9) 
oracle

>  <origin>  (9) 
adg

>  <m_score__min__energy>  (9) 
-6.3899999999999997

>  <m_primary>  (9) 
energy

$$$$
9:0
     RDKit          3D

 60 62  0  0  0  0  0  0  0  0999 V2000
   60.6410   28.9650   45.0530 C   0  0  0  0  0  0  0  0  0  0  0  0
   60.4090   29.9270   46.2080 C   0  0  0  0  0  0  0  0  0  0  0  0
   59.0250   30.1730   46.3380 O   0  0  0  0  0  0  0  0  0  0  0  0
   58.3710   29.0430   46.8870 C   0  0  0  0  0  0  0  0  0  0  0  0
   57.3180   28.5170   45.9150 C   0  0  0  0  0  0  0  0  0  0  0  0
   56.7300   29.6090   45.2430 O   0  0  0  0  0  0  0  0  0  0  0  0
   57.0170   29.5320   43.8610 C   0  0  0  0  0  0  0  0  0  0  0  0
   56.6710   30.8630   43.1870 C   0  0  0  0  0  0  0  0  0  0  0  0
   57.7250   31.9670   43.4210 C   0  0  0  0  0  0  0  0  0  0  0  0
   58.0060   32.2240   44.8460 N   0  0  0  0  0  0  0  0  0  0  0  0
   57.5440   33.5390   45.3230 C   0  0  0  0  0  0  0  0  0  0  0  0
   58.1390   33.8900   46.6970 C   0  0  0  0  0  0  0  0  0  0  0  0
   58.7780   32.7320   47.3240 N   0  0  0  0  0  0  0  0  0  0  0  0
   59.7360   32.9150   48.3750 C   0  0  0  0  0  0  0  0  0  0  0  0
   59.3790   32.6750   49.7110 C   0  0  0  0  0  0  0  0  0  0  0  0
   58.0960   32.1880   50.0380 C   0  0  0  0  0  0  0  0  0  0  0  0
   57.7570   31.9070   51.3590 C   0  0  0  0  0  0  0  0  0  0  0  0
   58.6940   32.0830   52.3690 C   0  0  0  0  0  0  0  0  0  0  0  0
   59.9700   32.5610   52.0700 C   0  0  0  0  0  0  0  0  0  0  0  0
   60.3340   32.8940   50.7400 C   0  0  0  0  0  0  0  0  0  0  0  0
   61.5860   33.3940   50.4310 N   0  0  0  0  0  0  0  0  0  0  0  0
   62.4750   33.8830   51.5080 C   0  0  0  0  0  0  0  0  0  0  0  0
   61.9990   33.4570   49.1120 C   0  0  0  0  0  0  0  0  0  0  0  0
   63.3510   33.7040   48.7610 C   0  0  0  0  0  0  0  0  0  0  0  0
   63.7390   33.8200   47.4270 C   0  0  0  0  0  0  0  0  0  0  0  0
   62.8000   33.6850   46.4100 C   0  0  0  0  0  0  0  0  0  0  0  0
   61.4730   33.4010   46.7210 C   0  0  0  0  0  0  0  0  0  0  0  0
   61.0630   33.2560   48.0630 C   0  0  0  0  0  0  0  0  0  0  0  0
   60.8816   27.9675   45.4493 H   0  0  0  0  0  0  0  0  0  0  0  0
   59.7315   28.9053   44.4372 H   0  0  0  0  0  0  0  0  0  0  0  0
   61.4777   29.3265   44.4372 H   0  0  0  0  0  0  0  0  0  0  0  0
   60.7926   29.4834   47.1386 H   0  0  0  0  0  0  0  0  0  0  0  0
   60.9351   30.8729   46.0117 H   0  0  0  0  0  0  0  0  0  0  0  0
   59.1120   28.2536   47.0815 H   0  0  0  0  0  0  0  0  0  0  0  0
   57.8776   29.3357   47.8255 H   0  0  0  0  0  0  0  0  0  0  0  0
   57.7927   27.8459   45.1841 H   0  0  0  0  0  0  0  0  0  0  0  0
   56.5466   27.9601   46.4670 H   0  0  0  0  0  0  0  0  0  0  0  0
   58.0870   29.3186   43.7211 H   0  0  0  0  0  0  0  0  0  0  0  0
   56.4177   28.7280   43.4087 H   0  0  0  0  0  0  0  0  0  0  0  0
   56.5816   30.6915   42.1041 H   0  0  0  0  0  0  0  0  0  0  0  0
   55.7298   31.2157   43.6339 H   0  0  0  0  0  0  0  0  0  0  0  0
   58.6618   31.6625   42.9314 H   0  0  0  0  0  0  0  0  0  0  0  0
   57.3157   32.8974   43.0005 H   0  0  0  0  0  0  0  0  0  0  0  0
   57.5750   31.4780   45.4410 H   0  0  0  0  0  0  0  0  0  0  0  0
   57.8472   34.3077   44.5969 H   0  0  0  0  0  0  0  0  0  0  0  0
   56.4494   33.5004   45.4244 H   0  0  0  0  0  0  0  0  0  0  0  0
   58.8891   34.6842   46.5679 H   0  0  0  0  0  0  0  0  0  0  0  0
   57.3189   34.2234   47.3499 H   0  0  0  0  0  0  0  0  0  0  0  0
   58.7260   31.7890   46.8780 H   0  0  0  0  0  0  0  0  0  0  0  0
   57.3552   32.0285   49.2406 H   0  0  0  0  0  0  0  0  0  0  0  0
   56.7470   31.5456   51.6027 H   0  0  0  0  0  0  0  0  0  0  0  0
   58.4287   31.8444   53.4095 H   0  0  0  0  0  0  0  0  0  0  0  0
   60.7058   32.6817   52.8787 H   0  0  0  0  0  0  0  0  0  0  0  0
   62.0339   33.6404   52.4860 H   0  0  0  0  0  0  0  0  0  0  0  0
   63.4589   33.3991   51.4193 H   0  0  0  0  0  0  0  0  0  0  0  0
   62.5931   34.9730   51.4193 H   0  0  0  0  0  0  0  0  0  0  0  0
   64.1059   33.8057   49.5546 H   0  0  0  0  0  0  0  0  0  0  0  0
   64.7918   34.0190   47.1779 H   0  0  0  0  0  0  0  0  0  0  0  0
   63.1058   33.8026   45.3599 H   0  0  0  0  0  0  0  0  0  0  0  0
   60.7365   33.2885   45.9118 H   0  0  0  0  0  0  0  0  0  0  0  0
  1  2  1  0
  2  3  1  0
  3  4  1  0
  4  5  1  0
  5  6  1  0
  6  7  1  0
  7  8  1  0
  8  9  1  0
  9 10  1  0
 10 11  1  0
 11 12  1  0
 12 13  1  0
 13 14  1  0
 14 15  2  0
 15 16  1  0
 16 17  2  0
 17 18  1  0
 18 19  2  0
 19 20  1  0
 20 21  2  0
 21 22  1  0
 21 23  1  0
 23 24  2  0
 24 25  1  0
 25 26  2  0
 26 27  1  0
 27 28  2  0
 28 14  1  0
 20 15  1  0
 28 23  1  0
  1 29  1  0
  1 30  1  0
  1 31  1  0
  2 32  1  0
  2 33  1  0
  4 34  1  0
  4 35  1  0
  5 36  1  0
  5 37  1  0
  7 38  1  0
  7 39  1  0
  8 40  1  0
  8 41  1  0
  9 42  1  0
  9 43  1  0
 10 44  1  0
 11 45  1  0
 11 46  1  0
 12 47  1  0
 12 48  1  0
 13 49  1  0
 16 50  1  0
 17 51  1  0
 18 52  1  0
 19 53  1  0
 22 54  1  0
 22 55  1  0
 22 56  1  0
 24 57  1  0
 25 58  1  0
 26 59  1  0
 27 60  1  0
M  CHG  1  21   1
M  END
>  <UniqueID>  (10) 
10

>  <SMILES>  (10) 
CCOCCOCCCNCCNc1c2ccccc2[n+](C)c2ccccc12

>  <Energy>  (10) 
81.56650075359977

>  <Genealogy>  (10) 
CCOCCOCCCNCCNc1c2ccccc2[n+](C)c2ccccc12 (3D coordinates assigned)
CCOCCOCCCNCCNc1c2ccccc2[n+](C)c2ccccc12 (optimized conformer: 81.56650075359977 kcal/mol)

>  <smiles>  (10) 
CCOCCOCCCNCCNc1c2ccccc2[n+](C)c2ccccc12

>  <score_type>  (10) 
oracle

>  <origin>  (10) 
adg

>  <m_score__min__energy>  (10) 
-6.2000000000000002

>  <m_primary>  (10) 
energy

$$$$
10:0
     RDKit          3D

 73 76  0  0  0  0  0  0  0  0999 V2000
   61.5120   32.1480   52.8690 C   0  0  0  0  0  0  0  0  0  0  0  0
   60.9950   33.5650   52.6530 C   0  0  0  0  0  0  0  0  0  0  0  0
   60.0540   33.5900   51.5960 O   0  0  0  0  0  0  0  0  0  0  0  0
   58.7330   33.7550   52.0810 C   0  0  0  0  0  0  0  0  0  0  0  0
   57.8130   32.6500   51.5490 C   0  0  0  0  0  0  0  0  0  0  0  0
   58.5840   31.3550   51.2530 C   0  0  0  0  0  0  0  0  0  0  0  0
   59.5880   31.5730   50.1980 N   0  0  0  0  0  0  0  0  0  0  0  0
   59.5860   30.4770   49.2420 C   0  0  0  0  0  0  0  0  0  0  0  0
   60.1270   29.2170   49.6400 C   0  0  0  0  0  0  0  0  0  0  0  0
   60.8050   29.0460   50.8770 C   0  0  0  0  0  0  0  0  0  0  0  0
   61.2990   27.8050   51.2690 C   0  0  0  0  0  0  0  0  0  0  0  0
   61.1540   26.7070   50.4400 C   0  0  0  0  0  0  0  0  0  0  0  0
   60.5250   26.8430   49.2080 C   0  0  0  0  0  0  0  0  0  0  0  0
   60.0010   28.0930   48.7810 C   0  0  0  0  0  0  0  0  0  0  0  0
   59.4060   28.2290   47.5490 N   0  0  0  0  0  0  0  0  0  0  0  0
   59.1610   27.0370   46.7060 C   0  0  0  0  0  0  0  0  0  0  0  0
   59.0910   29.4720   47.0590 C   0  0  0  0  0  0  0  0  0  0  0  0
   58.7560   29.5870   45.7450 N   0  0  0  0  0  0  0  0  0  0  0  0
   58.4410   30.7510   45.1470 C   0  0  0  0  0  0  0  0  0  0  0  0
   58.1410   30.7650   43.7780 C   0  0  0  0  0  0  0  0  0  0  0  0
   57.8180   31.9660   43.1450 C   0  0  0  0  0  0  0  0  0  0  0  0
   57.7970   33.1540   43.8750 C   0  0  0  0  0  0  0  0  0  0  0  0
   58.0910   33.1430   45.2420 C   0  0  0  0  0  0  0  0  0  0  0  0
   58.4080   31.9330   45.8990 C   0  0  0  0  0  0  0  0  0  0  0  0
   58.6860   31.8760   47.2850 C   0  0  0  0  0  0  0  0  0  0  0  0
   58.4620   33.0740   48.0420 N   0  0  0  0  0  0  0  0  0  0  0  0
   59.3300   34.2380   47.8370 C   0  0  0  0  0  0  0  0  0  0  0  0
   60.5000   34.2760   48.8410 C   0  0  0  0  0  0  0  0  0  0  0  0
   61.3140   33.0400   48.7470 N   0  0  0  0  0  0  0  0  0  0  0  0
   61.7870   32.8170   47.3600 C   0  0  0  0  0  0  0  0  0  0  0  0
   62.2390   31.3690   47.1780 C   0  0  0  0  0  0  0  0  0  0  0  0
   62.4510   33.0730   49.6950 C   0  0  0  0  0  0  0  0  0  0  0  0
   63.7160   33.5570   48.9910 C   0  0  0  0  0  0  0  0  0  0  0  0
   59.1150   30.6350   47.8890 C   0  0  0  0  0  0  0  0  0  0  0  0
   61.5860   31.9451   53.9476 H   0  0  0  0  0  0  0  0  0  0  0  0
   60.8179   31.4301   52.4077 H   0  0  0  0  0  0  0  0  0  0  0  0
   62.5053   32.0458   52.4077 H   0  0  0  0  0  0  0  0  0  0  0  0
   60.5131   33.9199   53.5760 H   0  0  0  0  0  0  0  0  0  0  0  0
   61.8411   34.2184   52.3937 H   0  0  0  0  0  0  0  0  0  0  0  0
   58.7453   33.7152   53.1802 H   0  0  0  0  0  0  0  0  0  0  0  0
   58.3507   34.7270   51.7360 H   0  0  0  0  0  0  0  0  0  0  0  0
   57.0390   32.4388   52.3016 H   0  0  0  0  0  0  0  0  0  0  0  0
   57.3658   33.0028   50.6080 H   0  0  0  0  0  0  0  0  0  0  0  0
   59.0913   31.0199   52.1697 H   0  0  0  0  0  0  0  0  0  0  0  0
   57.8711   30.5914   50.9085 H   0  0  0  0  0  0  0  0  0  0  0  0
   60.5310   31.7440   50.5870 H   0  0  0  0  0  0  0  0  0  0  0  0
   59.4100   32.4850   49.7240 H   0  0  0  0  0  0  0  0  0  0  0  0
   60.9425   29.9134   51.5394 H   0  0  0  0  0  0  0  0  0  0  0  0
   61.8055   27.6972   52.2395 H   0  0  0  0  0  0  0  0  0  0  0  0
   61.5368   25.7254   50.7561 H   0  0  0  0  0  0  0  0  0  0  0  0
   60.4310   25.9660   48.5507 H   0  0  0  0  0  0  0  0  0  0  0  0
   58.9814   26.1633   47.3497 H   0  0  0  0  0  0  0  0  0  0  0  0
   58.2800   27.2118   46.0709 H   0  0  0  0  0  0  0  0  0  0  0  0
   60.0395   26.8502   46.0709 H   0  0  0  0  0  0  0  0  0  0  0  0
   58.1602   29.8282   43.2018 H   0  0  0  0  0  0  0  0  0  0  0  0
   57.5802   31.9756   42.0711 H   0  0  0  0  0  0  0  0  0  0  0  0
   57.5487   34.1015   43.3745 H   0  0  0  0  0  0  0  0  0  0  0  0
   58.0753   34.0844   45.8107 H   0  0  0  0  0  0  0  0  0  0  0  0
   57.8270   33.0250   48.8670 H   0  0  0  0  0  0  0  0  0  0  0  0
   59.7397   34.1992   46.8169 H   0  0  0  0  0  0  0  0  0  0  0  0
   58.7236   35.1428   47.9906 H   0  0  0  0  0  0  0  0  0  0  0  0
   61.1370   35.1451   48.6200 H   0  0  0  0  0  0  0  0  0  0  0  0
   60.0894   34.3516   49.8587 H   0  0  0  0  0  0  0  0  0  0  0  0
   60.9673   33.0318   46.6586 H   0  0  0  0  0  0  0  0  0  0  0  0
   62.6387   33.4843   47.1617 H   0  0  0  0  0  0  0  0  0  0  0  0
   62.3843   30.9036   48.1640 H   0  0  0  0  0  0  0  0  0  0  0  0
   61.4717   30.8128   46.6195 H   0  0  0  0  0  0  0  0  0  0  0  0
   63.1864   31.3481   46.6195 H   0  0  0  0  0  0  0  0  0  0  0  0
   62.2128   33.7566   50.5232 H   0  0  0  0  0  0  0  0  0  0  0  0
   62.6235   32.0576   50.0812 H   0  0  0  0  0  0  0  0  0  0  0  0
   64.4666   33.8442   49.7421 H   0  0  0  0  0  0  0  0  0  0  0  0
   64.1174   32.7490   48.3618 H   0  0  0  0  0  0  0  0  0  0  0  0
   63.4756   34.4266   48.3618 H   0  0  0  0  0  0  0  0  0  0  0  0
  1  2  1  0
  2  3  1  0
  3  4  1  0
  4  5  1  0
  5  6  1  0
  6  7  1  0
  7  8  1  0
  8  9  2  0
  9 10  1  0
 10 11  2  0
 11 12  1  0
 12 13  2  0
 13 14  1  0
 14 15  2  0
 15 16  1  0
 15 17  1  0
 17 18  2  0
 18 19  1  0
 19 20  2  0
 20 21  1  0
 21 22  2  0
 22 23  1  0
 23 24  2  0
 24 25  1  0
 25 26  1  0
 26 27  1  0
 27 28  1  0
 28 29  1  0
 29 30  1  0
 30 31  1  0
 29 32  1  0
 32 33  1  0
 25 34  2  0
 34  8  1  0
 14  9  1  0
 34 17  1  0
 24 19  1  0
  1 35  1  0
  1 36  1  0
  1 37  1  0
  2 38  1  0
  2 39  1  0
  4 40  1  0
  4 41  1  0
  5 42  1  0
  5 43  1  0
  6 44  1  0
  6 45  1  0
  7 46  1  0
  7 47  1  0
 10 48  1  0
 11 49  1  0
 12 50  1  0
 13 51  1  0
 16 52  1  0
 16 53  1  0
 16 54  1  0
 20 55  1  0
 21 56  1  0
 22 57  1  0
 23 58  1  0
 26 59  1  0
 27 60  1  0
 27 61  1  0
 28 62  1  0
 28 63  1  0
 30 64  1  0
 30 65  1  0
 31 66  1  0
 31 67  1  0
 31 68  1  0
 32 69  1  0
 32 70  1  0
 33 71  1  0
 33 72  1  0
 33 73  1  0
M  CHG  2   7   1  15   1
M  END
>  <UniqueID>  (11) 
11

>  <SMILES>  (11) 
CCOCCC[NH2+]c1c2ccccc2[n+](C)c2nc3ccccc3c(NCCN(CC)CC)c12

>  <Energy>  (11) 
112.69360894546146

>  <Genealogy>  (11) 
CCOCCC[NH2+]c1c2ccccc2[n+](C)c2nc3ccccc3c(NCCN(CC)CC)c12 (protonated)
CCOCCC[NH2+]c1c2ccccc2[n+](C)c2nc3ccccc3c(NCCN(CC)CC)c12 (3D coordinates assigned)
CCOCCC[NH2+]c1c2ccccc2[n+](C)c2nc3ccccc3c(NCCN(CC)CC)c12 (optimized conformer: 112.69360894546146 kcal/mol)

>  <smiles>  (11) 
CCOCCCNc1c2ccccc2[n+](C)c2nc3ccccc3c(NCCN(CC)CC)c12

>  <score_type>  (11) 
oracle

>  <origin>  (11) 
adg

>  <m_score__min__energy>  (11) 
-5.0599999999999996

>  <m_primary>  (11) 
energy

$$$$
11:0
     RDKit          3D

 37 39  0  0  0  0  0  0  0  0999 V2000
   60.2510   27.7020   45.9590 C   0  0  0  0  0  0  0  0  0  0  0  0
   59.7170   28.1700   47.3120 C   0  0  0  0  0  0  0  0  0  0  0  0
   59.9770   29.6150   47.5060 N   0  0  0  0  0  0  0  0  0  0  0  0
   60.7510   30.1590   46.3730 C   0  0  0  0  0  0  0  0  0  0  0  0
   58.7070   30.3580   47.6680 C   0  0  0  0  0  0  0  0  0  0  0  0
   58.4540   31.2750   46.4730 C   0  0  0  0  0  0  0  0  0  0  0  0
   57.8030   30.7560   45.3160 C   0  0  0  0  0  0  0  0  0  0  0  0
   57.2990   29.4340   45.2460 C   0  0  0  0  0  0  0  0  0  0  0  0
   56.6800   28.9660   44.0840 C   0  0  0  0  0  0  0  0  0  0  0  0
   56.5460   29.7980   42.9750 C   0  0  0  0  0  0  0  0  0  0  0  0
   57.0240   31.1070   43.0230 C   0  0  0  0  0  0  0  0  0  0  0  0
   57.6430   31.5900   44.1810 C   0  0  0  0  0  0  0  0  0  0  0  0
   58.0850   32.8680   44.2060 N   0  0  0  0  0  0  0  0  0  0  0  0
   58.6730   33.4130   45.2970 C   0  0  0  0  0  0  0  0  0  0  0  0
   59.0810   34.7510   45.2450 C   0  0  0  0  0  0  0  0  0  0  0  0
   59.6620   35.3530   46.3590 C   0  0  0  0  0  0  0  0  0  0  0  0
   59.8320   34.6250   47.5330 C   0  0  0  0  0  0  0  0  0  0  0  0
   59.4350   33.2860   47.5990 C   0  0  0  0  0  0  0  0  0  0  0  0
   58.8610   32.6430   46.4740 C   0  0  0  0  0  0  0  0  0  0  0  0
   61.0698   26.9844   46.1163 H   0  0  0  0  0  0  0  0  0  0  0  0
   59.4419   27.2169   45.3934 H   0  0  0  0  0  0  0  0  0  0  0  0
   60.6258   28.5678   45.3934 H   0  0  0  0  0  0  0  0  0  0  0  0
   58.6328   27.9893   47.3544 H   0  0  0  0  0  0  0  0  0  0  0  0
   60.2288   27.6087   48.1076 H   0  0  0  0  0  0  0  0  0  0  0  0
   61.5946   30.7519   46.7563 H   0  0  0  0  0  0  0  0  0  0  0  0
   61.1341   29.3305   45.7592 H   0  0  0  0  0  0  0  0  0  0  0  0
   60.1012   30.8001   45.7592 H   0  0  0  0  0  0  0  0  0  0  0  0
   57.8781   29.6398   47.7523 H   0  0  0  0  0  0  0  0  0  0  0  0
   58.7752   30.9755   48.5758 H   0  0  0  0  0  0  0  0  0  0  0  0
   57.3960   28.7683   46.1163 H   0  0  0  0  0  0  0  0  0  0  0  0
   56.2967   27.9357   44.0449 H   0  0  0  0  0  0  0  0  0  0  0  0
   56.0629   29.4223   42.0610 H   0  0  0  0  0  0  0  0  0  0  0  0
   56.9139   31.7627   42.1467 H   0  0  0  0  0  0  0  0  0  0  0  0
   58.9422   35.3300   44.3200 H   0  0  0  0  0  0  0  0  0  0  0  0
   59.9862   36.4030   46.3107 H   0  0  0  0  0  0  0  0  0  0  0  0
   60.2814   35.1060   48.4143 H   0  0  0  0  0  0  0  0  0  0  0  0
   59.5698   32.7248   48.5354 H   0  0  0  0  0  0  0  0  0  0  0  0
  1  2  1  0
  2  3  1  0
  3  4  1  0
  3  5  1  0
  5  6  1  0
  6  7  2  0
  7  8  1  0
  8  9  2  0
  9 10  1  0
 10 11  2  0
 11 12  1  0
 12 13  2  0
 13 14  1  0
 14 15  2  0
 15 16  1  0
 16 17  2  0
 17 18  1  0
 18 19  2  0
 19  6  1  0
 12  7  1  0
 19 14  1  0
  1 20  1  0
  1 21  1  0
  1 22  1  0
  2 23  1  0
  2 24  1  0
  4 25  1  0
  4 26  1  0
  4 27  1  0
  5 28  1  0
  5 29  1  0
  8 30  1  0
  9 31  1  0
 10 32  1  0
 11 33  1  0
 15 34  1  0
 16 35  1  0
 17 36  1  0
 18 37  1  0
M  END
>  <UniqueID>  (12) 
12

>  <SMILES>  (12) 
CCN(C)Cc1c2ccccc2nc2ccccc12

>  <Energy>  (12) 
51.860106278691994

>  <Genealogy>  (12) 
CCN(C)Cc1c2ccccc2nc2ccccc12 (3D coordinates assigned)
CCN(C)Cc1c2ccccc2nc2ccccc12 (optimized conformer: 51.860106278691994 kcal/mol)

>  <smiles>  (12) 
CCN(C)Cc1c2ccccc2nc2ccccc12

>  <score_type>  (12) 
oracle

>  <origin>  (12) 
adg

>  <m_score__min__energy>  (12) 
-6.8300000000000001

>  <m_primary>  (12) 
energy

$$$$
12:0
     RDKit          3D

 52 54  0  0  0  0  0  0  0  0999 V2000
   62.1530   32.0840   47.5450 C   0  0  0  0  0  0  0  0  0  0  0  0
   61.0590   31.3120   46.8110 C   0  0  0  0  0  0  0  0  0  0  0  0
   60.2190   30.5690   47.7630 N   0  0  0  0  0  0  0  0  0  0  0  0
   60.0980   31.0260   49.1520 C   0  0  0  0  0  0  0  0  0  0  0  0
   59.5080   29.3850   47.3430 C   0  0  0  0  0  0  0  0  0  0  0  0
   58.7420   29.4020   46.1650 C   0  0  0  0  0  0  0  0  0  0  0  0
   58.0290   28.2580   45.7810 C   0  0  0  0  0  0  0  0  0  0  0  0
   57.1520   28.2740   44.5570 C   0  0  0  0  0  0  0  0  0  0  0  0
   55.8790   28.9440   44.8520 N   0  0  0  0  0  0  0  0  0  0  0  0
   55.4760   29.8320   43.7540 C   0  0  0  0  0  0  0  0  0  0  0  0
   56.5020   30.9160   43.5810 C   0  0  0  0  0  0  0  0  0  0  0  0
   57.0210   31.1970   42.3100 C   0  0  0  0  0  0  0  0  0  0  0  0
   57.9950   32.1850   42.1710 C   0  0  0  0  0  0  0  0  0  0  0  0
   58.4460   32.8560   43.2630 N   0  0  0  0  0  0  0  0  0  0  0  0
   57.9800   32.6000   44.5170 C   0  0  0  0  0  0  0  0  0  0  0  0
   58.5040   33.3440   45.6350 N   0  0  0  0  0  0  0  0  0  0  0  0
   58.0380   33.1490   46.9970 C   0  0  0  0  0  0  0  0  0  0  0  0
   58.9440   34.0070   47.8700 C   0  0  0  0  0  0  0  0  0  0  0  0
   59.6310   34.9870   46.9240 C   0  0  0  0  0  0  0  0  0  0  0  0
   59.5280   34.3710   45.5360 C   0  0  0  0  0  0  0  0  0  0  0  0
   56.9960   31.6120   44.6940 C   0  0  0  0  0  0  0  0  0  0  0  0
   58.0940   27.1110   46.5800 C   0  0  0  0  0  0  0  0  0  0  0  0
   58.8720   27.1240   47.7380 C   0  0  0  0  0  0  0  0  0  0  0  0
   59.5540   28.2450   48.0950 N   0  0  0  0  0  0  0  0  0  0  0  0
   62.0084   31.9819   48.6307 H   0  0  0  0  0  0  0  0  0  0  0  0
   63.1372   31.6793   47.2665 H   0  0  0  0  0  0  0  0  0  0  0  0
   62.1015   33.1469   47.2665 H   0  0  0  0  0  0  0  0  0  0  0  0
   60.4305   32.0204   46.2514 H   0  0  0  0  0  0  0  0  0  0  0  0
   61.5322   30.5959   46.1231 H   0  0  0  0  0  0  0  0  0  0  0  0
   60.3191   30.1911   49.8333 H   0  0  0  0  0  0  0  0  0  0  0  0
   60.8103   31.8446   49.3320 H   0  0  0  0  0  0  0  0  0  0  0  0
   59.0739   31.3849   49.3320 H   0  0  0  0  0  0  0  0  0  0  0  0
   58.7021   30.3105   45.5461 H   0  0  0  0  0  0  0  0  0  0  0  0
   57.6671   28.8131   43.7483 H   0  0  0  0  0  0  0  0  0  0  0  0
   56.9485   27.2379   44.2486 H   0  0  0  0  0  0  0  0  0  0  0  0
   55.1450   28.2040   44.9460 H   0  0  0  0  0  0  0  0  0  0  0  0
   55.3967   29.2509   42.8234 H   0  0  0  0  0  0  0  0  0  0  0  0
   54.5016   30.2850   43.9890 H   0  0  0  0  0  0  0  0  0  0  0  0
   56.6631   30.6430   41.4297 H   0  0  0  0  0  0  0  0  0  0  0  0
   58.3990   32.4216   41.1756 H   0  0  0  0  0  0  0  0  0  0  0  0
   56.9917   33.4741   47.0945 H   0  0  0  0  0  0  0  0  0  0  0  0
   58.0758   32.0897   47.2910 H   0  0  0  0  0  0  0  0  0  0  0  0
   58.3500   34.5510   48.6191 H   0  0  0  0  0  0  0  0  0  0  0  0
   59.6754   33.3943   48.4174 H   0  0  0  0  0  0  0  0  0  0  0  0
   59.1225   35.9621   46.9483 H   0  0  0  0  0  0  0  0  0  0  0  0
   60.6786   35.1587   47.2123 H   0  0  0  0  0  0  0  0  0  0  0  0
   59.2361   35.1336   44.7989 H   0  0  0  0  0  0  0  0  0  0  0  0
   60.4904   33.9534   45.2053 H   0  0  0  0  0  0  0  0  0  0  0  0
   56.6151   31.3857   45.7008 H   0  0  0  0  0  0  0  0  0  0  0  0
   57.5360   26.2062   46.2972 H   0  0  0  0  0  0  0  0  0  0  0  0
   58.9341   26.2227   48.3656 H   0  0  0  0  0  0  0  0  0  0  0  0
   60.1380   28.2090   48.9590 H   0  0  0  0  0  0  0  0  0  0  0  0
  1  2  1  0
  2  3  1  0
  3  4  1  0
  3  5  1  0
  5  6  2  0
  6  7  1  0
  7  8  1  0
  8  9  1  0
  9 10  1  0
 10 11  1  0
 11 12  2  0
 12 13  1  0
 13 14  2  0
 14 15  1  0
 15 16  1  0
 16 17  1  0
 17 18  1  0
 18 19  1  0
 19 20  1  0
 15 21  2  0
  7 22  2  0
 22 23  1  0
 23 24  2  0
 24  5  1  0
 21 11  1  0
 20 16  1  0
  1 25  1  0
  1 26  1  0
  1 27  1  0
  2 28  1  0
  2 29  1  0
  4 30  1  0
  4 31  1  0
  4 32  1  0
  6 33  1  0
  8 34  1  0
  8 35  1  0
  9 36  1  0
 10 37  1  0
 10 38  1  0
 12 39  1  0
 13 40  1  0
 17 41  1  0
 17 42  1  0
 18 43  1  0
 18 44  1  0
 19 45  1  0
 19 46  1  0
 20 47  1  0
 20 48  1  0
 21 49  1  0
 22 50  1  0
 23 51  1  0
 24 52  1  0
M  CHG  1  24   1
M  END
>  <UniqueID>  (13) 
13

>  <SMILES>  (13) 
CCN(C)c1cc(CNCc2ccnc(N3CCCC3)c2)cc[nH+]1

>  <Energy>  (13) 
50.35360836017449

>  <Genealogy>  (13) 
CCN(C)c1cc(CNCc2ccnc(N3CCCC3)c2)cc[nH+]1 (protonated)
CCN(C)c1cc(CNCc2ccnc(N3CCCC3)c2)cc[nH+]1 (3D coordinates assigned)
CCN(C)c1cc(CNCc2ccnc(N3CCCC3)c2)cc[nH+]1 (nonaromatic ring conformer: 50.35360836017449 kcal/mol)

>  <smiles>  (13) 
CCN(C)c1cc(CNCc2ccnc(N3CCCC3)c2)ccn1

>  <score_type>  (13) 
oracle

>  <origin>  (13) 
adg

>  <m_score__min__energy>  (13) 
-6.4299999999999997

>  <m_primary>  (13) 
energy

$$$$
13:0
     RDKit          3D

 50 52  0  0  0  0  0  0  0  0999 V2000
   56.1520   30.3860   44.0240 C   0  0  0  0  0  0  0  0  0  0  0  0
   56.8850   30.5800   45.2300 O   0  0  0  0  0  0  0  0  0  0  0  0
   58.1760   30.0800   45.4610 C   0  0  0  0  0  0  0  0  0  0  0  0
   58.8120   29.1930   44.5730 C   0  0  0  0  0  0  0  0  0  0  0  0
   60.1010   28.7280   44.8470 C   0  0  0  0  0  0  0  0  0  0  0  0
   60.7650   29.1380   46.0040 C   0  0  0  0  0  0  0  0  0  0  0  0
   60.1400   30.0160   46.9030 C   0  0  0  0  0  0  0  0  0  0  0  0
   60.8650   30.4890   48.1410 C   0  0  0  0  0  0  0  0  0  0  0  0
   61.4290   31.8470   47.9520 N   0  0  2  0  0  0  0  0  0  0  0  0
   62.6500   31.8270   47.1300 C   0  0  0  0  0  0  0  0  0  0  0  0
   63.4750   33.0390   47.5250 C   0  0  0  0  0  0  0  0  0  0  0  0
   62.9720   33.4430   48.9000 C   0  0  0  0  0  0  0  0  0  0  0  0
   61.8330   32.4680   49.2300 C   0  0  1  0  0  0  0  0  0  0  0  0
   60.6400   33.1770   49.9290 C   0  0  0  0  0  0  0  0  0  0  0  0
   59.4360   33.2670   49.0840 N   0  0  0  0  0  0  0  0  0  0  0  0
   59.4080   34.4900   48.2720 C   0  0  0  0  0  0  0  0  0  0  0  0
   58.9020   34.1600   46.8960 C   0  0  0  0  0  0  0  0  0  0  0  0
   57.5750   33.7390   46.7100 C   0  0  0  0  0  0  0  0  0  0  0  0
   57.0960   33.4670   45.4240 C   0  0  0  0  0  0  0  0  0  0  0  0
   57.9340   33.6250   44.3170 C   0  0  0  0  0  0  0  0  0  0  0  0
   59.2500   34.0590   44.4920 C   0  0  0  0  0  0  0  0  0  0  0  0
   59.7340   34.3320   45.7760 C   0  0  0  0  0  0  0  0  0  0  0  0
   58.8480   30.4870   46.6200 C   0  0  0  0  0  0  0  0  0  0  0  0
   55.1146   30.1114   44.2656 H   0  0  0  0  0  0  0  0  0  0  0  0
   56.1579   31.3166   43.4376 H   0  0  0  0  0  0  0  0  0  0  0  0
   56.6175   29.5801   43.4376 H   0  0  0  0  0  0  0  0  0  0  0  0
   58.2930   28.8646   43.6604 H   0  0  0  0  0  0  0  0  0  0  0  0
   60.5941   28.0363   44.1482 H   0  0  0  0  0  0  0  0  0  0  0  0
   61.7812   28.7719   46.2120 H   0  0  0  0  0  0  0  0  0  0  0  0
   60.1584   30.5090   48.9838 H   0  0  0  0  0  0  0  0  0  0  0  0
   61.6941   29.7949   48.3431 H   0  0  0  0  0  0  0  0  0  0  0  0
   60.7220   32.4590   47.4740 H   0  0  0  0  0  0  0  0  0  0  0  0
   63.2186   30.9050   47.3215 H   0  0  0  0  0  0  0  0  0  0  0  0
   62.4010   31.8555   46.0589 H   0  0  0  0  0  0  0  0  0  0  0  0
   64.5431   32.7795   47.5675 H   0  0  0  0  0  0  0  0  0  0  0  0
   63.3722   33.8570   46.7968 H   0  0  0  0  0  0  0  0  0  0  0  0
   63.7780   33.3567   49.6436 H   0  0  0  0  0  0  0  0  0  0  0  0
   62.6286   34.4879   48.9153 H   0  0  0  0  0  0  0  0  0  0  0  0
   62.1731   31.7055   49.9462 H   0  0  0  0  0  0  0  0  0  0  0  0
   60.3856   32.6151   50.8398 H   0  0  0  0  0  0  0  0  0  0  0  0
   60.9587   34.2062   50.1508 H   0  0  0  0  0  0  0  0  0  0  0  0
   59.3760   32.4350   48.4540 H   0  0  0  0  0  0  0  0  0  0  0  0
   58.7411   35.2280   48.7417 H   0  0  0  0  0  0  0  0  0  0  0  0
   60.4226   34.9091   48.2013 H   0  0  0  0  0  0  0  0  0  0  0  0
   56.9100   33.6227   47.5785 H   0  0  0  0  0  0  0  0  0  0  0  0
   56.0588   33.1285   45.2841 H   0  0  0  0  0  0  0  0  0  0  0  0
   57.5569   33.4074   43.3068 H   0  0  0  0  0  0  0  0  0  0  0  0
   59.9069   34.1864   43.6189 H   0  0  0  0  0  0  0  0  0  0  0  0
   60.7682   34.6821   45.9095 H   0  0  0  0  0  0  0  0  0  0  0  0
   58.3583   31.1835   47.3165 H   0  0  0  0  0  0  0  0  0  0  0  0
  1  2  1  0
  2  3  1  0
  3  4  2  0
  4  5  1  0
  5  6  2  0
  6  7  1  0
  7  8  1  0
  8  9  1  0
  9 10  1  0
 10 11  1  0
 11 12  1  0
 12 13  1  0
 13 14  1  0
 14 15  1  0
 15 16  1  0
 16 17  1  0
 17 18  2  0
 18 19  1  0
 19 20  2  0
 20 21  1  0
 21 22  2  0
  7 23  2  0
 23  3  1  0
 13  9  1  0
 22 17  1  0
  1 24  1  0
  1 25  1  0
  1 26  1  0
  4 27  1  0
  5 28  1  0
  6 29  1  0
  8 30  1  0
  8 31  1  0
  9 32  1  6
 10 33  1  0
 10 34  1  0
 11 35  1  0
 11 36  1  0
 12 37  1  0
 12 38  1  0
 13 39  1  1
 14 40  1  0
 14 41  1  0
 15 42  1  0
 16 43  1  0
 16 44  1  0
 18 45  1  0
 19 46  1  0
 20 47  1  0
 21 48  1  0
 22 49  1  0
 23 50  1  0
M  CHG  1   9   1
M  END
>  <UniqueID>  (14) 
14

>  <SMILES>  (14) 
COc1cccc(C[N@@H+]2CCC[C@H]2CNCc2ccccc2)c1

>  <Energy>  (14) 
53.43267655752097

>  <Genealogy>  (14) 
COc1cccc(C[NH+]2CCCC2CNCc2ccccc2)c1 (protonated)
COc1cccc(C[N@@H+]2CCC[C@H]2CNCc2ccccc2)c1 (chirality)
COc1cccc(C[N@@H+]2CCC[C@H]2CNCc2ccccc2)c1 (3D coordinates assigned)
COc1cccc(C[N@@H+]2CCC[C@H]2CNCc2ccccc2)c1 (nonaromatic ring conformer: 53.43267655752097 kcal/mol)

>  <smiles>  (14) 
COc1cccc(CN2CCCC2CNCc2ccccc2)c1

>  <score_type>  (14) 
oracle

>  <origin>  (14) 
adg

>  <m_score__min__energy>  (14) 
-5.8799999999999999

>  <m_primary>  (14) 
energy

$$$$
14:0
     RDKit          3D

 59 62  0  0  0  0  0  0  0  0999 V2000
   56.6460   29.3500   42.8350 C   0  0  0  0  0  0  0  0  0  0  0  0
   56.2410   29.7500   44.2600 C   0  0  0  0  0  0  0  0  0  0  0  0
   56.9320   28.8150   45.2660 C   0  0  0  0  0  0  0  0  0  0  0  0
   56.6100   31.1620   44.4900 N   0  0  0  0  0  0  0  0  0  0  0  0
   57.5330   31.7390   43.4920 C   0  0  0  0  0  0  0  0  0  0  0  0
   58.1110   33.1050   43.9060 C   0  0  0  0  0  0  0  0  0  0  0  0
   57.5790   33.5200   45.2090 N   0  0  0  0  0  0  0  0  0  0  0  0
   58.6150   34.2000   45.9930 C   0  0  0  0  0  0  0  0  0  0  0  0
   59.6240   33.1760   46.5220 C   0  0  0  0  0  0  0  0  0  0  0  0
   59.1190   31.8090   46.3830 N   0  0  0  0  0  0  0  0  0  0  0  0
   59.2780   30.7940   47.3900 C   0  0  0  0  0  0  0  0  0  0  0  0
   58.9690   31.0470   48.7280 C   0  0  0  0  0  0  0  0  0  0  0  0
   59.2260   30.1000   49.7050 C   0  0  0  0  0  0  0  0  0  0  0  0
   59.8670   28.9190   49.4220 N   0  0  0  0  0  0  0  0  0  0  0  0
   60.4190   28.0970   50.5110 C   0  0  0  0  0  0  0  0  0  0  0  0
   60.0380   28.5630   48.0940 C   0  0  0  0  0  0  0  0  0  0  0  0
   60.4590   27.2630   47.7210 C   0  0  0  0  0  0  0  0  0  0  0  0
   60.6590   26.9300   46.3820 C   0  0  0  0  0  0  0  0  0  0  0  0
   60.4330   27.8710   45.3820 C   0  0  0  0  0  0  0  0  0  0  0  0
   59.9870   29.1490   45.7100 C   0  0  0  0  0  0  0  0  0  0  0  0
   59.7750   29.5130   47.0560 C   0  0  0  0  0  0  0  0  0  0  0  0
   58.8060   30.6590   50.9960 C   0  0  0  0  0  0  0  0  0  0  0  0
   58.6470   30.0680   52.2590 C   0  0  0  0  0  0  0  0  0  0  0  0
   58.1410   30.8480   53.3110 C   0  0  0  0  0  0  0  0  0  0  0  0
   57.7600   32.1830   53.0870 C   0  0  0  0  0  0  0  0  0  0  0  0
   57.8600   32.7400   51.8040 C   0  0  0  0  0  0  0  0  0  0  0  0
   58.3780   31.9560   50.7720 C   0  0  0  0  0  0  0  0  0  0  0  0
   58.4260   32.3150   49.3220 C   0  0  0  0  0  0  0  0  0  0  0  0
   57.4280   28.5777   42.8792 H   0  0  0  0  0  0  0  0  0  0  0  0
   55.7690   28.9538   42.3021 H   0  0  0  0  0  0  0  0  0  0  0  0
   57.0313   30.2318   42.3021 H   0  0  0  0  0  0  0  0  0  0  0  0
   55.1536   29.6519   44.3939 H   0  0  0  0  0  0  0  0  0  0  0  0
   56.6935   29.1378   46.2902 H   0  0  0  0  0  0  0  0  0  0  0  0
   56.5762   27.7853   45.1138 H   0  0  0  0  0  0  0  0  0  0  0  0
   58.0208   28.8529   45.1138 H   0  0  0  0  0  0  0  0  0  0  0  0
   57.0600   31.2510   45.4320 H   0  0  0  0  0  0  0  0  0  0  0  0
   58.3679   31.0382   43.3441 H   0  0  0  0  0  0  0  0  0  0  0  0
   56.9538   31.8990   42.5707 H   0  0  0  0  0  0  0  0  0  0  0  0
   59.2064   33.0289   43.9709 H   0  0  0  0  0  0  0  0  0  0  0  0
   57.8244   33.8533   43.1524 H   0  0  0  0  0  0  0  0  0  0  0  0
   57.2960   32.6560   45.7320 H   0  0  0  0  0  0  0  0  0  0  0  0
   59.1357   34.9292   45.3549 H   0  0  0  0  0  0  0  0  0  0  0  0
   58.1453   34.7180   46.8422 H   0  0  0  0  0  0  0  0  0  0  0  0
   60.5615   33.2709   45.9544 H   0  0  0  0  0  0  0  0  0  0  0  0
   59.7932   33.3761   47.5903 H   0  0  0  0  0  0  0  0  0  0  0  0
   58.4560   31.6210   45.5970 H   0  0  0  0  0  0  0  0  0  0  0  0
   60.1287   28.5293   51.4800 H   0  0  0  0  0  0  0  0  0  0  0  0
   60.0248   27.0730   50.4335 H   0  0  0  0  0  0  0  0  0  0  0  0
   61.5160   28.0744   50.4335 H   0  0  0  0  0  0  0  0  0  0  0  0
   60.6307   26.5049   48.4993 H   0  0  0  0  0  0  0  0  0  0  0  0
   60.9973   25.9180   46.1146 H   0  0  0  0  0  0  0  0  0  0  0  0
   60.6072   27.6046   44.3291 H   0  0  0  0  0  0  0  0  0  0  0  0
   59.7983   29.8816   44.9115 H   0  0  0  0  0  0  0  0  0  0  0  0
   58.9139   29.0133   52.4216 H   0  0  0  0  0  0  0  0  0  0  0  0
   58.0420   30.4124   54.3162 H   0  0  0  0  0  0  0  0  0  0  0  0
   57.3822   32.7925   53.9212 H   0  0  0  0  0  0  0  0  0  0  0  0
   57.5366   33.7742   51.6147 H   0  0  0  0  0  0  0  0  0  0  0  0
   57.4247   32.5475   48.9305 H   0  0  0  0  0  0  0  0  0  0  0  0
   59.0224   33.2115   49.0974 H   0  0  0  0  0  0  0  0  0  0  0  0
  1  2  1  0
  2  3  1  0
  2  4  1  0
  4  5  1  0
  5  6  1  0
  6  7  1  0
  7  8  1  0
  8  9  1  0
  9 10  1  0
 10 11  1  0
 11 12  2  0
 12 13  1  0
 13 14  2  0
 14 15  1  0
 14 16  1  0
 16 17  2  0
 17 18  1  0
 18 19  2  0
 19 20  1  0
 20 21  2  0
 13 22  1  0
 22 23  2  0
 23 24  1  0
 24 25  2  0
 25 26  1  0
 26 27  2  0
 27 28  1  0
 21 11  1  0
 27 22  1  0
 28 12  1  0
 21 16  1  0
  1 29  1  0
  1 30  1  0
  1 31  1  0
  2 32  1  0
  3 33  1  0
  3 34  1  0
  3 35  1  0
  4 36  1  0
  5 37  1  0
  5 38  1  0
  6 39  1  0
  6 40  1  0
  7 41  1  0
  8 42  1  0
  8 43  1  0
  9 44  1  0
  9 45  1  0
 10 46  1  0
 15 47  1  0
 15 48  1  0
 15 49  1  0
 17 50  1  0
 18 51  1  0
 19 52  1  0
 20 53  1  0
 23 54  1  0
 24 55  1  0
 25 56  1  0
 26 57  1  0
 28 58  1  0
 28 59  1  0
M  CHG  1  14   1
M  END
>  <UniqueID>  (15) 
15

>  <SMILES>  (15) 
CC(C)NCCNCCNc1c2c([n+](C)c3ccccc13)-c1ccccc1C2

>  <Energy>  (15) 
98.8582782425444

>  <Genealogy>  (15) 
CC(C)NCCNCCNc1c2c([n+](C)c3ccccc13)-c1ccccc1C2 (3D coordinates assigned)
CC(C)NCCNCCNc1c2c([n+](C)c3ccccc13)-c1ccccc1C2 (nonaromatic ring conformer: 98.8582782425444 kcal/mol)

>  <smiles>  (15) 
CC(C)NCCNCCNc1c2c([n+](C)c3ccccc13)-c1ccccc1C2

>  <score_type>  (15) 
oracle

>  <origin>  (15) 
adg

>  <m_score__min__energy>  (15) 
-6.7300000000000004

>  <m_primary>  (15) 
energy

$$$$
15:0
     RDKit          3D

 49 51  0  0  0  0  0  0  0  0999 V2000
   59.6259   25.4551   47.9278 H   0  0  0  0  0  0  0  0  0  0  0  0
   59.3310   26.3990   47.4460 C   0  0  0  0  0  0  0  0  0  0  0  0
   60.2080   27.4800   47.4400 C   0  0  0  0  0  0  0  0  0  0  0  0
   61.1897   27.3914   47.9283 H   0  0  0  0  0  0  0  0  0  0  0  0
   59.8470   28.6760   46.8170 C   0  0  0  0  0  0  0  0  0  0  0  0
   60.5455   29.5257   46.8269 H   0  0  0  0  0  0  0  0  0  0  0  0
   58.5960   28.8090   46.1740 C   0  0  0  0  0  0  0  0  0  0  0  0
   58.2050   30.0080   45.5190 C   0  0  0  0  0  0  0  0  0  0  0  0
   56.9040   30.1180   44.9820 C   0  0  0  0  0  0  0  0  0  0  0  0
   56.0320   29.0190   45.0170 C   0  0  0  0  0  0  0  0  0  0  0  0
   54.7690   29.1040   44.4380 O   0  0  0  0  0  0  0  0  0  0  0  0
   56.4220   27.8250   45.6250 C   0  0  0  0  0  0  0  0  0  0  0  0
   55.5310   26.7540   45.6440 O   0  0  0  0  0  0  0  0  0  0  0  0
   57.6940   27.7090   46.2120 C   0  0  0  0  0  0  0  0  0  0  0  0
   58.0790   26.5110   46.8420 C   0  0  0  0  0  0  0  0  0  0  0  0
   57.3869   25.6561   46.8582 H   0  0  0  0  0  0  0  0  0  0  0  0
   56.5010   31.3860   44.2640 C   0  0  0  0  0  0  0  0  0  0  0  0
   55.4065   31.4870   44.3064 H   0  0  0  0  0  0  0  0  0  0  0  0
   56.8509   31.3164   43.2235 H   0  0  0  0  0  0  0  0  0  0  0  0
   57.1380   32.6240   44.8990 C   0  0  0  0  0  0  0  0  0  0  0  0
   56.7029   32.7853   45.8963 H   0  0  0  0  0  0  0  0  0  0  0  0
   56.9428   33.4964   44.2581 H   0  0  0  0  0  0  0  0  0  0  0  0
   58.6320   32.4340   45.0310 C   0  0  0  0  0  0  0  0  0  0  0  0
   59.4890   33.4200   44.9260 N   0  0  0  0  0  0  0  0  0  0  0  0
   59.9580   33.5720   44.0040 H   0  0  0  0  0  0  0  0  0  0  0  0
   59.8390   34.3710   45.9860 C   0  0  0  0  0  0  0  0  0  0  0  0
   58.9574   34.9839   46.2250 H   0  0  0  0  0  0  0  0  0  0  0  0
   60.6640   35.0053   45.6295 H   0  0  0  0  0  0  0  0  0  0  0  0
   60.3000   33.6350   47.2570 C   0  0  0  0  0  0  0  0  0  0  0  0
   60.4151   32.5659   47.0251 H   0  0  0  0  0  0  0  0  0  0  0  0
   59.5394   33.7965   48.0351 H   0  0  0  0  0  0  0  0  0  0  0  0
   61.5830   34.1510   47.7650 N   0  0  0  0  0  0  0  0  0  0  0  0
   61.6330   34.0080   48.8010 H   0  0  0  0  0  0  0  0  0  0  0  0
   62.7430   33.5050   47.1310 C   0  0  0  0  0  0  0  0  0  0  0  0
   63.6365   34.1265   47.2902 H   0  0  0  0  0  0  0  0  0  0  0  0
   62.5475   33.3954   46.0541 H   0  0  0  0  0  0  0  0  0  0  0  0
   62.9760   32.1230   47.7370 C   0  0  0  0  0  0  0  0  0  0  0  0
   64.0396   32.0069   47.9926 H   0  0  0  0  0  0  0  0  0  0  0  0
   62.6923   31.3463   47.0115 H   0  0  0  0  0  0  0  0  0  0  0  0
   62.1920   31.9950   48.9040 O   0  0  0  0  0  0  0  0  0  0  0  0
   61.4730   30.7810   48.8580 C   0  0  0  0  0  0  0  0  0  0  0  0
   61.9779   30.0303   49.4837 H   0  0  0  0  0  0  0  0  0  0  0  0
   61.4269   30.4174   47.8208 H   0  0  0  0  0  0  0  0  0  0  0  0
   60.0640   31.0150   49.3810 C   0  0  0  0  0  0  0  0  0  0  0  0
   60.0761   31.0130   50.4809 H   0  0  0  0  0  0  0  0  0  0  0  0
   59.6956   31.9866   49.0201 H   0  0  0  0  0  0  0  0  0  0  0  0
   59.4013   30.2146   49.0201 H   0  0  0  0  0  0  0  0  0  0  0  0
   59.1110   31.1210   45.3660 N   0  0  0  0  0  0  0  0  0  0  0  0
   60.1420   30.9720   45.4060 H   0  0  0  0  0  0  0  0  0  0  0  0
  1  2  1  0
  2  3  2  0
  3  4  1  0
  3  5  1  0
  5  6  1  0
  5  7  2  0
  7  8  1  0
  8  9  2  0
  9 10  1  0
 10 11  1  0
 10 12  2  0
 12 13  1  0
 12 14  1  0
 14 15  2  0
 15 16  1  0
  9 17  1  0
 17 18  1  0
 17 19  1  0
 17 20  1  0
 20 21  1  0
 20 22  1  0
 20 23  1  0
 23 24  2  0
 24 25  1  0
 24 26  1  0
 26 27  1  0
 26 28  1  0
 26 29  1  0
 29 30  1  0
 29 31  1  0
 29 32  1  0
 32 33  1  0
 32 34  1  0
 34 35  1  0
 34 36  1  0
 34 37  1  0
 37 38  1  0
 37 39  1  0
 37 40  1  0
 40 41  1  0
 41 42  1  0
 41 43  1  0
 41 44  1  0
 44 45  1  0
 44 46  1  0
 44 47  1  0
 23 48  1  0
 48 49  1  0
 15  2  1  0
 14  7  1  0
 48  8  1  0
M  CHG  3  11  -1  13  -1  24   1
M  END
>  <UniqueID>  (16) 
16

>  <SMILES>  (16) 
CCOCCNCC/[NH+]=C1\CCc2c([O-])c([O-])c3ccccc3c2N1

>  <Energy>  (16) 
56.33354441500042

>  <Genealogy>  (16) 
CCOCCNCC[NH+]=C1CCc2c([O-])c([O-])c3ccccc3c2N1 (protonated)
CCOCCNCC/[NH+]=C1\CCc2c([O-])c([O-])c3ccccc3c2N1 (cis-trans isomerization)
CCOCCNCC/[NH+]=C1\CCc2c([O-])c([O-])c3ccccc3c2N1 (3D coordinates assigned)
CCOCCNCC/[NH+]=C1\CCc2c([O-])c([O-])c3ccccc3c2N1 (nonaromatic ring conformer: 56.33354441500042 kcal/mol)

>  <smiles>  (16) 
CCOCCNCCN=C1CCc2c(O)c(O)c3ccccc3c2N1

>  <score_type>  (16) 
oracle

>  <origin>  (16) 
adg

>  <m_score__min__energy>  (16) 
-11.06

>  <m_primary>  (16) 
energy

$$$$
16:0
     RDKit          3D

 54 55  0  0  0  0  0  0  0  0999 V2000
   59.2910   34.9650   47.2990 C   0  0  0  0  0  0  0  0  0  0  0  0
   59.6500   34.5590   45.8840 C   0  0  0  0  0  0  0  0  0  0  0  0
   59.1920   33.2440   45.6510 O   0  0  0  0  0  0  0  0  0  0  0  0
   57.7820   33.2050   45.5240 C   0  0  0  0  0  0  0  0  0  0  0  0
   57.3270   32.1020   44.5670 C   0  0  0  0  0  0  0  0  0  0  0  0
   57.3240   30.8600   45.2390 O   0  0  0  0  0  0  0  0  0  0  0  0
   56.8330   29.8380   44.3950 C   0  0  0  0  0  0  0  0  0  0  0  0
   57.8170   28.6620   44.3460 C   0  0  0  0  0  0  0  0  0  0  0  0
   58.4750   28.5210   45.5920 O   0  0  0  0  0  0  0  0  0  0  0  0
   59.8780   28.5270   45.4230 C   0  0  0  0  0  0  0  0  0  0  0  0
   60.4780   29.6670   46.2590 C   0  0  0  0  0  0  0  0  0  0  0  0
   59.4520   30.6140   46.7360 N   0  0  0  0  0  0  0  0  0  0  0  0
   59.7070   31.2910   48.0050 C   0  0  0  0  0  0  0  0  0  0  0  0
   58.8930   31.0920   49.1340 C   0  0  0  0  0  0  0  0  0  0  0  0
   59.1230   31.7980   50.3030 C   0  0  0  0  0  0  0  0  0  0  0  0
   60.1500   32.6890   50.4110 N   0  0  0  0  0  0  0  0  0  0  0  0
   60.2570   33.4370   51.6780 C   0  0  0  0  0  0  0  0  0  0  0  0
   58.8740   33.7570   52.2340 C   0  0  0  0  0  0  0  0  0  0  0  0
   61.0530   32.8320   49.3780 C   0  0  0  0  0  0  0  0  0  0  0  0
   62.1960   33.6590   49.4990 C   0  0  0  0  0  0  0  0  0  0  0  0
   63.1090   33.7810   48.4560 C   0  0  0  0  0  0  0  0  0  0  0  0
   62.9120   33.0840   47.2730 C   0  0  0  0  0  0  0  0  0  0  0  0
   61.7990   32.2590   47.1210 C   0  0  0  0  0  0  0  0  0  0  0  0
   60.8480   32.1250   48.1560 C   0  0  0  0  0  0  0  0  0  0  0  0
   59.8457   34.3377   48.0123 H   0  0  0  0  0  0  0  0  0  0  0  0
   59.5562   36.0210   47.4559 H   0  0  0  0  0  0  0  0  0  0  0  0
   58.2105   34.8311   47.4559 H   0  0  0  0  0  0  0  0  0  0  0  0
   59.1727   35.2472   45.1709 H   0  0  0  0  0  0  0  0  0  0  0  0
   60.7412   34.6005   45.7519 H   0  0  0  0  0  0  0  0  0  0  0  0
   57.3404   33.0211   46.5146 H   0  0  0  0  0  0  0  0  0  0  0  0
   57.4492   34.1704   45.1151 H   0  0  0  0  0  0  0  0  0  0  0  0
   56.3117   32.3257   44.2076 H   0  0  0  0  0  0  0  0  0  0  0  0
   58.0187   32.0525   43.7131 H   0  0  0  0  0  0  0  0  0  0  0  0
   55.8652   29.4843   44.7802 H   0  0  0  0  0  0  0  0  0  0  0  0
   56.7121   30.2430   43.3794 H   0  0  0  0  0  0  0  0  0  0  0  0
   57.2664   27.7371   44.1194 H   0  0  0  0  0  0  0  0  0  0  0  0
   58.5668   28.8545   43.5645 H   0  0  0  0  0  0  0  0  0  0  0  0
   60.2939   27.5655   45.7584 H   0  0  0  0  0  0  0  0  0  0  0  0
   60.1235   28.6761   44.3612 H   0  0  0  0  0  0  0  0  0  0  0  0
   60.9915   29.2340   47.1301 H   0  0  0  0  0  0  0  0  0  0  0  0
   61.1756   30.2237   45.6159 H   0  0  0  0  0  0  0  0  0  0  0  0
   58.5640   30.0680   46.8120 H   0  0  0  0  0  0  0  0  0  0  0  0
   59.3240   31.3480   46.0020 H   0  0  0  0  0  0  0  0  0  0  0  0
   58.0656   30.3686   49.0883 H   0  0  0  0  0  0  0  0  0  0  0  0
   58.4607   31.6361   51.1662 H   0  0  0  0  0  0  0  0  0  0  0  0
   60.8088   32.8294   52.4104 H   0  0  0  0  0  0  0  0  0  0  0  0
   60.7883   34.3811   51.4872 H   0  0  0  0  0  0  0  0  0  0  0  0
   58.9099   33.7487   53.3334 H   0  0  0  0  0  0  0  0  0  0  0  0
   58.5596   34.7516   51.8849 H   0  0  0  0  0  0  0  0  0  0  0  0
   58.1547   33.0016   51.8849 H   0  0  0  0  0  0  0  0  0  0  0  0
   62.3651   34.2144   50.4333 H   0  0  0  0  0  0  0  0  0  0  0  0
   63.9887   34.4315   48.5699 H   0  0  0  0  0  0  0  0  0  0  0  0
   63.6370   33.1828   46.4517 H   0  0  0  0  0  0  0  0  0  0  0  0
   61.6595   31.7044   46.1813 H   0  0  0  0  0  0  0  0  0  0  0  0
  1  2  1  0
  2  3  1  0
  3  4  1  0
  4  5  1  0
  5  6  1  0
  6  7  1  0
  7  8  1  0
  8  9  1  0
  9 10  1  0
 10 11  1  0
 11 12  1  0
 12 13  1  0
 13 14  2  0
 14 15  1  0
 15 16  2  0
 16 17  1  0
 17 18  1  0
 16 19  1  0
 19 20  2  0
 20 21  1  0
 21 22  2  0
 22 23  1  0
 23 24  2  0
 24 13  1  0
 24 19  1  0
  1 25  1  0
  1 26  1  0
  1 27  1  0
  2 28  1  0
  2 29  1  0
  4 30  1  0
  4 31  1  0
  5 32  1  0
  5 33  1  0
  7 34  1  0
  7 35  1  0
  8 36  1  0
  8 37  1  0
 10 38  1  0
 10 39  1  0
 11 40  1  0
 11 41  1  0
 12 42  1  0
 12 43  1  0
 14 44  1  0
 15 45  1  0
 17 46  1  0
 17 47  1  0
 18 48  1  0
 18 49  1  0
 18 50  1  0
 20 51  1  0
 21 52  1  0
 22 53  1  0
 23 54  1  0
M  CHG  2  12   1  16   1
M  END
>  <UniqueID>  (17) 
17

>  <SMILES>  (17) 
CCOCCOCCOCC[NH2+]c1cc[n+](CC)c2ccccc12

>  <Energy>  (17) 
62.321448414686955

>  <Genealogy>  (17) 
CCOCCOCCOCC[NH2+]c1cc[n+](CC)c2ccccc12 (protonated)
CCOCCOCCOCC[NH2+]c1cc[n+](CC)c2ccccc12 (3D coordinates assigned)
CCOCCOCCOCC[NH2+]c1cc[n+](CC)c2ccccc12 (optimized conformer: 62.321448414686955 kcal/mol)

>  <smiles>  (17) 
CCOCCOCCOCCNc1cc[n+](CC)c2ccccc12

>  <score_type>  (17) 
oracle

>  <origin>  (17) 
adg

>  <m_score__min__energy>  (17) 
-2.1200000000000001

>  <m_primary>  (17) 
energy

$$$$
17:0
     RDKit          3D

 55 58  0  0  0  0  0  0  0  0999 V2000
   57.3930   31.9780   41.6960 C   0  0  0  0  0  0  0  0  0  0  0  0
   58.2110   31.8770   42.9770 C   0  0  0  0  0  0  0  0  0  0  0  0
   57.4710   31.1960   43.9880 O   0  0  0  0  0  0  0  0  0  0  0  0
   58.0860   30.3930   44.9540 C   0  0  0  0  0  0  0  0  0  0  0  0
   58.6600   30.9720   46.1020 C   0  0  0  0  0  0  0  0  0  0  0  0
   58.6280   32.3950   46.3040 N   0  0  0  0  0  0  0  0  0  0  0  0
   57.3470   33.1130   46.2830 C   0  0  0  0  0  0  0  0  0  0  0  0
   57.3430   34.1840   45.1810 C   0  0  0  0  0  0  0  0  0  0  0  0
   58.7210   34.8480   44.9630 C   0  0  0  0  0  0  0  0  0  0  0  0
   59.6660   34.6460   46.1520 C   0  0  0  0  0  0  0  0  0  0  0  0
   59.8870   33.1480   46.4070 C   0  0  0  0  0  0  0  0  0  0  0  0
   59.2630   30.1420   47.0680 C   0  0  0  0  0  0  0  0  0  0  0  0
   59.3080   28.7510   46.8960 C   0  0  0  0  0  0  0  0  0  0  0  0
   58.7730   28.1730   45.7290 C   0  0  0  0  0  0  0  0  0  0  0  0
   58.1400   29.0030   44.8120 C   0  0  0  0  0  0  0  0  0  0  0  0
   57.4000   28.0680   43.6520 S   0  0  0  0  0  0  0  0  0  0  0  0
   57.8730   26.5710   44.2800 C   0  0  0  0  0  0  0  0  0  0  0  0
   57.4220   25.3980   43.6810 C   0  0  0  0  0  0  0  0  0  0  0  0
   57.4340   24.0710   44.1780 C   0  0  0  0  0  0  0  0  0  0  0  0
   56.7030   23.1330   43.5590 N   0  0  0  0  0  0  0  0  0  0  0  0
   55.3280   23.3900   43.0750 C   0  0  0  0  0  0  0  0  0  0  0  0
   57.2090   21.7620   43.3190 C   0  0  0  0  0  0  0  0  0  0  0  0
   58.2100   23.7110   45.3110 C   0  0  0  0  0  0  0  0  0  0  0  0
   59.1810   24.4260   46.0090 C   0  0  0  0  0  0  0  0  0  0  0  0
   59.4770   25.7910   46.0230 C   0  0  0  0  0  0  0  0  0  0  0  0
   60.6930   26.1740   46.6910 N   0  0  0  0  0  0  0  0  0  0  0  0
   61.7490   26.3430   46.0480 O   0  0  0  0  0  0  0  0  0  0  0  0
   60.6630   26.5100   48.0260 O   0  0  0  0  0  0  0  0  0  0  0  0
   58.6990   26.7830   45.3980 C   0  0  0  0  0  0  0  0  0  0  0  0
   56.3305   32.1092   41.9488 H   0  0  0  0  0  0  0  0  0  0  0  0
   57.7390   32.8403   41.1071 H   0  0  0  0  0  0  0  0  0  0  0  0
   57.5188   31.0575   41.1071 H   0  0  0  0  0  0  0  0  0  0  0  0
   59.1387   31.3227   42.7717 H   0  0  0  0  0  0  0  0  0  0  0  0
   58.4467   32.8917   43.3303 H   0  0  0  0  0  0  0  0  0  0  0  0
   56.5344   32.3964   46.0931 H   0  0  0  0  0  0  0  0  0  0  0  0
   57.2016   33.6057   47.2557 H   0  0  0  0  0  0  0  0  0  0  0  0
   57.0306   33.7121   44.2378 H   0  0  0  0  0  0  0  0  0  0  0  0
   56.6491   34.9753   45.5009 H   0  0  0  0  0  0  0  0  0  0  0  0
   59.1847   34.4115   44.0661 H   0  0  0  0  0  0  0  0  0  0  0  0
   58.5558   35.9294   44.8482 H   0  0  0  0  0  0  0  0  0  0  0  0
   60.6324   35.1235   45.9329 H   0  0  0  0  0  0  0  0  0  0  0  0
   59.2168   35.0995   47.0478 H   0  0  0  0  0  0  0  0  0  0  0  0
   60.5983   32.7594   45.6634 H   0  0  0  0  0  0  0  0  0  0  0  0
   60.2819   33.0248   47.4263 H   0  0  0  0  0  0  0  0  0  0  0  0
   59.7046   30.5915   47.9696 H   0  0  0  0  0  0  0  0  0  0  0  0
   59.7598   28.1136   47.6703 H   0  0  0  0  0  0  0  0  0  0  0  0
   56.9938   25.5189   42.6750 H   0  0  0  0  0  0  0  0  0  0  0  0
   54.6540   23.5160   43.9352 H   0  0  0  0  0  0  0  0  0  0  0  0
   55.3191   24.3054   42.4651 H   0  0  0  0  0  0  0  0  0  0  0  0
   54.9890   22.5397   42.4651 H   0  0  0  0  0  0  0  0  0  0  0  0
   57.3925   21.2649   44.2830 H   0  0  0  0  0  0  0  0  0  0  0  0
   56.4626   21.1904   42.7479 H   0  0  0  0  0  0  0  0  0  0  0  0
   58.1478   21.8124   42.7479 H   0  0  0  0  0  0  0  0  0  0  0  0
   58.0122   22.7020   45.7020 H   0  0  0  0  0  0  0  0  0  0  0  0
   59.8225   23.8122   46.6584 H   0  0  0  0  0  0  0  0  0  0  0  0
  1  2  1  0
  2  3  1  0
  3  4  1  0
  4  5  2  0
  5  6  1  0
  6  7  1  0
  7  8  1  0
  8  9  1  0
  9 10  1  0
 10 11  1  0
  5 12  1  0
 12 13  2  0
 13 14  1  0
 14 15  2  0
 15 16  1  0
 16 17  1  0
 17 18  2  0
 18 19  1  0
 19 20  2  3
 20 21  1  0
 20 22  1  0
 19 23  1  0
 23 24  2  0
 24 25  1  0
 25 26  1  0
 26 27  2  0
 26 28  1  0
 25 29  2  0
 15  4  1  0
 29 17  1  0
 11  6  1  0
 29 14  1  0
  1 30  1  0
  1 31  1  0
  1 32  1  0
  2 33  1  0
  2 34  1  0
  7 35  1  0
  7 36  1  0
  8 37  1  0
  8 38  1  0
  9 39  1  0
  9 40  1  0
 10 41  1  0
 10 42  1  0
 11 43  1  0
 11 44  1  0
 12 45  1  0
 13 46  1  0
 18 47  1  0
 21 48  1  0
 21 49  1  0
 21 50  1  0
 22 51  1  0
 22 52  1  0
 22 53  1  0
 23 54  1  0
 24 55  1  0
M  CHG  3  20   1  26   1  28  -1
M  END
>  <UniqueID>  (18) 
18

>  <SMILES>  (18) 
CCOc1c(N2CCCCC2)ccc2c1sc1cc(=[N+](C)C)ccc([N+](=O)[O-])c12

>  <Energy>  (18) 
145.54111159381358

>  <Genealogy>  (18) 
CCOc1c(N2CCCCC2)ccc2c1sc1cc(=[N+](C)C)ccc([N+](=O)[O-])c12 (3D coordinates assigned)
CCOc1c(N2CCCCC2)ccc2c1sc1cc(=[N+](C)C)ccc([N+](=O)[O-])c12 (nonaromatic ring conformer: 145.54111159381358 kcal/mol)

>  <smiles>  (18) 
CCOc1c(N2CCCCC2)ccc2c1sc1cc(=[N+](C)C)ccc([N+](=O)[O-])c12

>  <score_type>  (18) 
oracle

>  <origin>  (18) 
adg

>  <m_score__min__energy>  (18) 
-6.4699999999999998

>  <m_primary>  (18) 
energy

$$$$
18:0
     RDKit          3D

 43 45  0  0  0  0  0  0  0  0999 V2000
   61.1460   30.1190   49.2330 C   0  0  0  0  0  0  0  0  0  0  0  0
   61.2990   31.1660   50.3310 C   0  0  0  0  0  0  0  0  0  0  0  0
   61.4700   32.4670   49.7700 O   0  0  0  0  0  0  0  0  0  0  0  0
   60.8870   32.9310   48.5770 C   0  0  0  0  0  0  0  0  0  0  0  0
   59.5110   32.8030   48.3090 C   0  0  0  0  0  0  0  0  0  0  0  0
   58.9670   33.2830   47.1070 C   0  0  0  0  0  0  0  0  0  0  0  0
   59.8120   33.8760   46.1480 C   0  0  0  0  0  0  0  0  0  0  0  0
   61.1770   34.0240   46.4260 C   0  0  0  0  0  0  0  0  0  0  0  0
   61.7120   33.5520   47.6280 C   0  0  0  0  0  0  0  0  0  0  0  0
   63.4320   33.7450   47.9330 Cl  0  0  0  0  0  0  0  0  0  0  0  0
   59.2470   34.4470   44.8690 C   0  0  0  0  0  0  0  0  0  0  0  0
   57.9750   33.8040   44.4750 N   0  0  0  0  0  0  0  0  0  0  0  0
   58.1960   32.4470   43.9220 C   0  0  0  0  0  0  0  0  0  0  0  0
   56.9480   31.5680   44.0660 C   0  0  0  0  0  0  0  0  0  0  0  0
   57.2880   30.3180   44.7420 N   0  0  0  0  0  0  0  0  0  0  0  0
   58.6320   29.8810   45.0870 C   0  0  0  0  0  0  0  0  0  0  0  0
   58.4590   28.4790   45.7210 C   0  0  0  0  0  0  0  0  0  0  0  0
   57.0350   28.1630   45.6550 N   0  0  0  0  0  0  0  0  0  0  0  0
   56.3950   29.2760   45.0720 C   0  0  0  0  0  0  0  0  0  0  0  0
   55.1550   29.3240   44.8580 O   0  0  0  0  0  0  0  0  0  0  0  0
   57.0120   33.8510   45.5990 C   0  0  0  0  0  0  0  0  0  0  0  0
   57.4980   33.0760   46.8330 C   0  0  0  0  0  0  0  0  0  0  0  0
   61.0012   29.1283   49.6886 H   0  0  0  0  0  0  0  0  0  0  0  0
   60.2745   30.3666   48.6092 H   0  0  0  0  0  0  0  0  0  0  0  0
   62.0519   30.1068   48.6092 H   0  0  0  0  0  0  0  0  0  0  0  0
   60.3982   31.1610   50.9622 H   0  0  0  0  0  0  0  0  0  0  0  0
   62.1880   30.9209   50.9307 H   0  0  0  0  0  0  0  0  0  0  0  0
   58.8550   32.3217   49.0493 H   0  0  0  0  0  0  0  0  0  0  0  0
   61.8330   34.5156   45.6925 H   0  0  0  0  0  0  0  0  0  0  0  0
   59.0690   35.5231   45.0115 H   0  0  0  0  0  0  0  0  0  0  0  0
   59.9778   34.2605   44.0683 H   0  0  0  0  0  0  0  0  0  0  0  0
   58.4505   32.5334   42.8553 H   0  0  0  0  0  0  0  0  0  0  0  0
   59.0153   31.9757   44.4847 H   0  0  0  0  0  0  0  0  0  0  0  0
   56.1906   32.1057   44.6553 H   0  0  0  0  0  0  0  0  0  0  0  0
   56.5519   31.3394   43.0656 H   0  0  0  0  0  0  0  0  0  0  0  0
   59.2602   29.8210   44.1861 H   0  0  0  0  0  0  0  0  0  0  0  0
   59.1261   30.5827   45.7750 H   0  0  0  0  0  0  0  0  0  0  0  0
   59.0395   27.7336   45.1576 H   0  0  0  0  0  0  0  0  0  0  0  0
   58.8199   28.4667   46.7600 H   0  0  0  0  0  0  0  0  0  0  0  0
   56.8551   34.9019   45.8835 H   0  0  0  0  0  0  0  0  0  0  0  0
   56.0803   33.3771   45.2565 H   0  0  0  0  0  0  0  0  0  0  0  0
   56.9252   33.4138   47.7092 H   0  0  0  0  0  0  0  0  0  0  0  0
   57.3437   32.0049   46.6356 H   0  0  0  0  0  0  0  0  0  0  0  0
  1  2  1  0
  2  3  1  0
  3  4  1  0
  4  5  2  0
  5  6  1  0
  6  7  2  0
  7  8  1  0
  8  9  2  0
  9 10  1  0
  7 11  1  0
 11 12  1  0
 12 13  1  0
 13 14  1  0
 14 15  1  0
 15 16  1  0
 16 17  1  0
 17 18  1  0
 18 19  1  0
 19 20  2  0
 12 21  1  0
 21 22  1  0
  9  4  1  0
 19 15  1  0
 22  6  1  0
  1 23  1  0
  1 24  1  0
  1 25  1  0
  2 26  1  0
  2 27  1  0
  5 28  1  0
  8 29  1  0
 11 30  1  0
 11 31  1  0
 13 32  1  0
 13 33  1  0
 14 34  1  0
 14 35  1  0
 16 36  1  0
 16 37  1  0
 17 38  1  0
 17 39  1  0
 21 40  1  0
 21 41  1  0
 22 42  1  0
 22 43  1  0
M  CHG  1  18  -1
M  END
>  <UniqueID>  (19) 
19

>  <SMILES>  (19) 
CCOc1cc2c(cc1Cl)CN(CCN1CC[N-]C1=O)CC2

>  <Energy>  (19) 
58.21467326247234

>  <Genealogy>  (19) 
CCOc1cc2c(cc1Cl)CN(CCN1CC[N-]C1=O)CC2 (protonated)
CCOc1cc2c(cc1Cl)CN(CCN1CC[N-]C1=O)CC2 (3D coordinates assigned)
CCOc1cc2c(cc1Cl)CN(CCN1CC[N-]C1=O)CC2 (nonaromatic ring conformer: 58.21467326247234 kcal/mol)

>  <smiles>  (19) 
CCOc1cc2c(cc1Cl)CN(CCN1CCNC1=O)CC2

>  <score_type>  (19) 
oracle

>  <origin>  (19) 
adg

>  <m_score__min__energy>  (19) 
-8.9900000000000002

>  <m_primary>  (19) 
energy

$$$$
19:0
     RDKit          3D

 54 58  0  0  0  0  0  0  0  0999 V2000
   62.1480   33.8630   46.3630 C   0  0  0  0  0  0  0  0  0  0  0  0
   63.5830   33.8420   46.8850 C   0  0  0  0  0  0  0  0  0  0  0  0
   64.0020   32.4680   47.2090 N   0  0  0  0  0  0  0  0  0  0  0  0
   62.8600   31.5800   47.4930 C   0  0  0  0  0  0  0  0  0  0  0  0
   62.4650   31.5120   48.9850 C   0  0  0  0  0  0  0  0  0  0  0  0
   61.4930   30.3660   49.3200 C   0  0  0  0  0  0  0  0  0  0  0  0
   60.0960   30.7580   49.1250 N   0  0  0  0  0  0  0  0  0  0  0  0
   59.5140   30.7190   47.8180 C   0  0  0  0  0  0  0  0  0  0  0  0
   59.3090   29.5000   47.1870 C   0  0  0  0  0  0  0  0  0  0  0  0
   58.7150   29.4210   45.9390 C   0  0  0  0  0  0  0  0  0  0  0  0
   58.4060   30.5480   45.2180 N   0  0  0  0  0  0  0  0  0  0  0  0
   58.0650   30.4340   43.7910 C   0  0  0  0  0  0  0  0  0  0  0  0
   58.4960   31.7810   45.8460 C   0  0  0  0  0  0  0  0  0  0  0  0
   58.0010   32.9620   45.2420 C   0  0  0  0  0  0  0  0  0  0  0  0
   58.1490   34.2030   45.8620 C   0  0  0  0  0  0  0  0  0  0  0  0
   58.7830   34.3020   47.0960 C   0  0  0  0  0  0  0  0  0  0  0  0
   59.2470   33.1560   47.7400 C   0  0  0  0  0  0  0  0  0  0  0  0
   59.0870   31.8870   47.1500 C   0  0  0  0  0  0  0  0  0  0  0  0
   58.5450   27.9860   45.6020 C   0  0  0  0  0  0  0  0  0  0  0  0
   57.8390   27.3430   44.5610 C   0  0  0  0  0  0  0  0  0  0  0  0
   57.8130   25.9440   44.5960 C   0  0  0  0  0  0  0  0  0  0  0  0
   58.4010   25.2240   45.5970 C   0  0  0  0  0  0  0  0  0  0  0  0
   59.0600   25.8330   46.6680 C   0  0  0  0  0  0  0  0  0  0  0  0
   59.1070   27.2350   46.6440 C   0  0  0  0  0  0  0  0  0  0  0  0
   59.5960   28.1480   47.6610 C   0  0  0  0  0  0  0  0  0  0  0  0
   60.1340   27.8300   48.7540 O   0  0  0  0  0  0  0  0  0  0  0  0
   58.1970   23.8760   45.3720 O   0  0  0  0  0  0  0  0  0  0  0  0
   57.4390   23.7370   44.1610 C   0  0  0  0  0  0  0  0  0  0  0  0
   57.2120   25.0770   43.7040 O   0  0  0  0  0  0  0  0  0  0  0  0
   61.4490   33.8732   47.2123 H   0  0  0  0  0  0  0  0  0  0  0  0
   61.9938   34.7635   45.7504 H   0  0  0  0  0  0  0  0  0  0  0  0
   61.9675   32.9674   45.7504 H   0  0  0  0  0  0  0  0  0  0  0  0
   64.2530   34.2510   46.1144 H   0  0  0  0  0  0  0  0  0  0  0  0
   63.6342   34.4510   47.7996 H   0  0  0  0  0  0  0  0  0  0  0  0
   64.5060   32.0730   46.3800 H   0  0  0  0  0  0  0  0  0  0  0  0
   64.6730   32.4710   48.0090 H   0  0  0  0  0  0  0  0  0  0  0  0
   61.9918   31.9418   46.9226 H   0  0  0  0  0  0  0  0  0  0  0  0
   63.1692   30.5653   47.2018 H   0  0  0  0  0  0  0  0  0  0  0  0
   63.3801   31.3754   49.5799 H   0  0  0  0  0  0  0  0  0  0  0  0
   61.9449   32.4520   49.2214 H   0  0  0  0  0  0  0  0  0  0  0  0
   61.7159   29.5089   48.6675 H   0  0  0  0  0  0  0  0  0  0  0  0
   61.6280   30.1044   50.3799 H   0  0  0  0  0  0  0  0  0  0  0  0
   59.6040   31.3210   49.8550 H   0  0  0  0  0  0  0  0  0  0  0  0
   57.0263   30.0867   43.6888 H   0  0  0  0  0  0  0  0  0  0  0  0
   58.1722   31.4168   43.3087 H   0  0  0  0  0  0  0  0  0  0  0  0
   58.7417   29.7132   43.3087 H   0  0  0  0  0  0  0  0  0  0  0  0
   57.4919   32.9001   44.2689 H   0  0  0  0  0  0  0  0  0  0  0  0
   57.7620   35.1086   45.3720 H   0  0  0  0  0  0  0  0  0  0  0  0
   58.9187   35.2876   47.5652 H   0  0  0  0  0  0  0  0  0  0  0  0
   59.7427   33.2435   48.7181 H   0  0  0  0  0  0  0  0  0  0  0  0
   57.3362   27.9117   43.7649 H   0  0  0  0  0  0  0  0  0  0  0  0
   59.5147   25.2483   47.4812 H   0  0  0  0  0  0  0  0  0  0  0  0
   58.0082   23.1655   43.4130 H   0  0  0  0  0  0  0  0  0  0  0  0
   56.4969   23.1935   44.3256 H   0  0  0  0  0  0  0  0  0  0  0  0
  1  2  1  0
  2  3  1  0
  3  4  1  0
  4  5  1  0
  5  6  1  0
  6  7  1  0
  7  8  1  0
  8  9  2  0
  9 10  1  0
 10 11  2  0
 11 12  1  0
 11 13  1  0
 13 14  2  0
 14 15  1  0
 15 16  2  0
 16 17  1  0
 17 18  2  0
 10 19  1  0
 19 20  2  0
 20 21  1  0
 21 22  2  0
 22 23  1  0
 23 24  2  0
 24 25  1  0
 25 26  2  0
 22 27  1  0
 27 28  1  0
 28 29  1  0
 18  8  1  0
 24 19  1  0
 25  9  1  0
 18 13  1  0
 29 21  1  0
  1 30  1  0
  1 31  1  0
  1 32  1  0
  2 33  1  0
  2 34  1  0
  3 35  1  0
  3 36  1  0
  4 37  1  0
  4 38  1  0
  5 39  1  0
  5 40  1  0
  6 41  1  0
  6 42  1  0
  7 43  1  0
 12 44  1  0
 12 45  1  0
 12 46  1  0
 14 47  1  0
 15 48  1  0
 16 49  1  0
 17 50  1  0
 20 51  1  0
 23 52  1  0
 28 53  1  0
 28 54  1  0
M  CHG  2   3   1  11   1
M  END
>  <UniqueID>  (20) 
20

>  <SMILES>  (20) 
CC[NH2+]CCCNc1c2c([n+](C)c3ccccc13)-c1cc3c(cc1C2=O)OCO3

>  <Energy>  (20) 
136.94750975605783

>  <Genealogy>  (20) 
CC[NH2+]CCCNc1c2c([n+](C)c3ccccc13)-c1cc3c(cc1C2=O)OCO3 (protonated)
CC[NH2+]CCCNc1c2c([n+](C)c3ccccc13)-c1cc3c(cc1C2=O)OCO3 (3D coordinates assigned)
CC[NH2+]CCCNc1c2c([n+](C)c3ccccc13)-c1cc3c(cc1C2=O)OCO3 (nonaromatic ring conformer: 136.94750975605783 kcal/mol)

>  <smiles>  (20) 
CCNCCCNc1c2c([n+](C)c3ccccc13)-c1cc3c(cc1C2=O)OCO3

>  <score_type>  (20) 
oracle

>  <origin>  (20) 
adg

>  <m_score__min__energy>  (20) 
-5.6500000000000004

>  <m_primary>  (20) 
energy

$$$$
20:0
     RDKit          3D

 74 76  0  0  0  0  0  0  0  0999 V2000
   66.3800   31.6900   50.5020 C   0  0  0  0  0  0  0  0  0  0  0  0
   65.0960   32.4880   50.7130 C   0  0  0  0  0  0  0  0  0  0  0  0
   63.8570   31.6080   50.5290 C   0  0  0  0  0  0  0  0  0  0  0  0
   62.9790   32.2170   49.4950 N   0  0  0  0  0  0  0  0  0  0  0  0
   63.7040   33.2560   48.7190 C   0  0  0  0  0  0  0  0  0  0  0  0
   63.7690   32.8810   47.2260 C   0  0  0  0  0  0  0  0  0  0  0  0
   63.0640   33.9290   46.3640 C   0  0  0  0  0  0  0  0  0  0  0  0
   61.7580   32.7740   50.1250 C   0  0  0  0  0  0  0  0  0  0  0  0
   60.5840   32.8280   49.1350 C   0  0  0  0  0  0  0  0  0  0  0  0
   60.9030   32.0860   47.9170 N   0  0  0  0  0  0  0  0  0  0  0  0
   59.8550   31.5050   47.1320 C   0  0  0  0  0  0  0  0  0  0  0  0
   59.0960   32.3400   46.2930 C   0  0  0  0  0  0  0  0  0  0  0  0
   59.2620   33.7430   46.3370 C   0  0  0  0  0  0  0  0  0  0  0  0
   58.5580   34.5690   45.4640 C   0  0  0  0  0  0  0  0  0  0  0  0
   57.6930   34.0180   44.5300 C   0  0  0  0  0  0  0  0  0  0  0  0
   57.5050   32.6360   44.4750 C   0  0  0  0  0  0  0  0  0  0  0  0
   58.1800   31.7680   45.3760 C   0  0  0  0  0  0  0  0  0  0  0  0
   57.9970   30.3960   45.3340 N   0  0  0  0  0  0  0  0  0  0  0  0
   56.8850   29.8320   44.5360 C   0  0  0  0  0  0  0  0  0  0  0  0
   58.8320   29.5670   46.0590 C   0  0  0  0  0  0  0  0  0  0  0  0
   58.8650   28.1700   45.8200 C   0  0  0  0  0  0  0  0  0  0  0  0
   59.6430   27.3240   46.6000 C   0  0  0  0  0  0  0  0  0  0  0  0
   60.3880   27.8320   47.6510 C   0  0  0  0  0  0  0  0  0  0  0  0
   60.4190   29.2090   47.9100 C   0  0  0  0  0  0  0  0  0  0  0  0
   61.0560   29.6740   49.1130 N   0  0  0  0  0  0  0  0  0  0  0  0
   60.7280   29.1560   50.4450 C   0  0  0  0  0  0  0  0  0  0  0  0
   59.9060   30.1800   51.2350 C   0  0  0  0  0  0  0  0  0  0  0  0
   58.5200   29.6290   51.6470 C   0  0  0  0  0  0  0  0  0  0  0  0
   57.3770   30.4830   51.2480 N   0  0  0  0  0  0  0  0  0  0  0  0
   56.3220   30.5150   52.2710 C   0  0  0  0  0  0  0  0  0  0  0  0
   57.7700   31.8470   50.8470 C   0  0  0  0  0  0  0  0  0  0  0  0
   59.7030   30.1010   47.0540 C   0  0  0  0  0  0  0  0  0  0  0  0
   66.8102   31.4226   51.4784 H   0  0  0  0  0  0  0  0  0  0  0  0
   66.1535   30.7733   49.9377 H   0  0  0  0  0  0  0  0  0  0  0  0
   67.1016   32.2990   49.9377 H   0  0  0  0  0  0  0  0  0  0  0  0
   65.0941   32.9006   51.7327 H   0  0  0  0  0  0  0  0  0  0  0  0
   65.0624   33.2950   49.9663 H   0  0  0  0  0  0  0  0  0  0  0  0
   64.1638   30.6022   50.2062 H   0  0  0  0  0  0  0  0  0  0  0  0
   63.3114   31.5312   51.4810 H   0  0  0  0  0  0  0  0  0  0  0  0
   63.1799   34.2171   48.8265 H   0  0  0  0  0  0  0  0  0  0  0  0
   64.7303   33.3327   49.1073 H   0  0  0  0  0  0  0  0  0  0  0  0
   64.8229   32.8126   46.9183 H   0  0  0  0  0  0  0  0  0  0  0  0
   63.2619   31.9149   47.0860 H   0  0  0  0  0  0  0  0  0  0  0  0
   62.5686   34.6654   47.0139 H   0  0  0  0  0  0  0  0  0  0  0  0
   63.8033   34.4391   45.7290 H   0  0  0  0  0  0  0  0  0  0  0  0
   62.3129   33.4364   45.7290 H   0  0  0  0  0  0  0  0  0  0  0  0
   61.4760   32.1401   50.9786 H   0  0  0  0  0  0  0  0  0  0  0  0
   61.9783   33.8005   50.4532 H   0  0  0  0  0  0  0  0  0  0  0  0
   59.6939   32.3849   49.6054 H   0  0  0  0  0  0  0  0  0  0  0  0
   60.3918   33.8782   48.8701 H   0  0  0  0  0  0  0  0  0  0  0  0
   61.8740   31.7260   47.7660 H   0  0  0  0  0  0  0  0  0  0  0  0
   59.9540   34.1869   47.0679 H   0  0  0  0  0  0  0  0  0  0  0  0
   58.6882   35.6601   45.5153 H   0  0  0  0  0  0  0  0  0  0  0  0
   57.1532   34.6727   43.8300 H   0  0  0  0  0  0  0  0  0  0  0  0
   56.8238   32.2119   43.7226 H   0  0  0  0  0  0  0  0  0  0  0  0
   56.1110   29.4394   45.2119 H   0  0  0  0  0  0  0  0  0  0  0  0
   56.4526   30.6198   43.9016 H   0  0  0  0  0  0  0  0  0  0  0  0
   57.2651   29.0177   43.9016 H   0  0  0  0  0  0  0  0  0  0  0  0
   58.2632   27.7481   45.0015 H   0  0  0  0  0  0  0  0  0  0  0  0
   59.6674   26.2461   46.3820 H   0  0  0  0  0  0  0  0  0  0  0  0
   60.9627   27.1461   48.2907 H   0  0  0  0  0  0  0  0  0  0  0  0
   61.6530   30.5260   49.0530 H   0  0  0  0  0  0  0  0  0  0  0  0
   60.1452   28.2291   50.3389 H   0  0  0  0  0  0  0  0  0  0  0  0
   61.6636   28.9574   50.9884 H   0  0  0  0  0  0  0  0  0  0  0  0
   60.4619   30.4544   52.1437 H   0  0  0  0  0  0  0  0  0  0  0  0
   59.7416   31.0524   50.5855 H   0  0  0  0  0  0  0  0  0  0  0  0
   58.3903   28.6412   51.1807 H   0  0  0  0  0  0  0  0  0  0  0  0
   58.5128   29.5894   52.7463 H   0  0  0  0  0  0  0  0  0  0  0  0
   56.7803   30.5011   53.2709 H   0  0  0  0  0  0  0  0  0  0  0  0
   55.7253   31.4317   52.1538 H   0  0  0  0  0  0  0  0  0  0  0  0
   55.6709   29.6362   52.1538 H   0  0  0  0  0  0  0  0  0  0  0  0
   57.9458   32.4570   51.7454 H   0  0  0  0  0  0  0  0  0  0  0  0
   58.6917   31.8019   50.2483 H   0  0  0  0  0  0  0  0  0  0  0  0
   56.9656   32.2993   50.2483 H   0  0  0  0  0  0  0  0  0  0  0  0
  1  2  1  0
  2  3  1  0
  3  4  1  0
  4  5  1  0
  5  6  1  0
  6  7  1  0
  4  8  1  0
  8  9  1  0
  9 10  1  0
 10 11  1  0
 11 12  2  0
 12 13  1  0
 13 14  2  0
 14 15  1  0
 15 16  2  0
 16 17  1  0
 17 18  2  0
 18 19  1  0
 18 20  1  0
 20 21  2  0
 21 22  1  0
 22 23  2  0
 23 24  1  0
 24 25  1  0
 25 26  1  0
 26 27  1  0
 27 28  1  0
 28 29  1  0
 29 30  1  0
 29 31  1  0
 24 32  2  0
 32 11  1  0
 17 12  1  0
 32 20  1  0
  1 33  1  0
  1 34  1  0
  1 35  1  0
  2 36  1  0
  2 37  1  0
  3 38  1  0
  3 39  1  0
  5 40  1  0
  5 41  1  0
  6 42  1  0
  6 43  1  0
  7 44  1  0
  7 45  1  0
  7 46  1  0
  8 47  1  0
  8 48  1  0
  9 49  1  0
  9 50  1  0
 10 51  1  0
 13 52  1  0
 14 53  1  0
 15 54  1  0
 16 55  1  0
 19 56  1  0
 19 57  1  0
 19 58  1  0
 21 59  1  0
 22 60  1  0
 23 61  1  0
 25 62  1  0
 26 63  1  0
 26 64  1  0
 27 65  1  0
 27 66  1  0
 28 67  1  0
 28 68  1  0
 30 69  1  0
 30 70  1  0
 30 71  1  0
 31 72  1  0
 31 73  1  0
 31 74  1  0
M  CHG  1  18   1
M  END
>  <UniqueID>  (21) 
21

>  <SMILES>  (21) 
CCCN(CCC)CCNc1c2ccccc2[n+](C)c2cccc(NCCCN(C)C)c12

>  <Energy>  (21) 
104.45137999674343

>  <Genealogy>  (21) 
CCCN(CCC)CCNc1c2ccccc2[n+](C)c2cccc(NCCCN(C)C)c12 (3D coordinates assigned)
CCCN(CCC)CCNc1c2ccccc2[n+](C)c2cccc(NCCCN(C)C)c12 (optimized conformer: 104.45137999674343 kcal/mol)

>  <smiles>  (21) 
CCCN(CCC)CCNc1c2ccccc2[n+](C)c2cccc(NCCCN(C)C)c12

>  <score_type>  (21) 
oracle

>  <origin>  (21) 
adg

>  <m_score__min__energy>  (21) 
-5.8499999999999996

>  <m_primary>  (21) 
energy

$$$$
21:0
     RDKit          3D

 56 58  0  0  0  0  0  0  0  0999 V2000
   54.8940   23.7270   44.6750 C   0  0  0  0  0  0  0  0  0  0  0  0
   53.9990   24.5810   45.5590 C   0  0  0  0  0  0  0  0  0  0  0  0
   54.7180   25.7190   45.9860 O   0  0  0  0  0  0  0  0  0  0  0  0
   56.0850   25.4030   46.1740 C   0  0  0  0  0  0  0  0  0  0  0  0
   56.9160   26.6720   46.4070 C   0  0  0  0  0  0  0  0  0  0  0  0
   57.0800   27.4180   45.2160 O   0  0  0  0  0  0  0  0  0  0  0  0
   58.4140   27.3620   44.7390 C   0  0  0  0  0  0  0  0  0  0  0  0
   59.2640   28.3950   45.4800 C   0  0  0  0  0  0  0  0  0  0  0  0
   58.4350   29.4460   46.0760 N   0  0  0  0  0  0  0  0  0  0  0  0
   59.0000   30.5200   46.8460 C   0  0  0  0  0  0  0  0  0  0  0  0
   59.8320   30.2210   47.9390 C   0  0  0  0  0  0  0  0  0  0  0  0
   59.9520   28.8960   48.4140 C   0  0  0  0  0  0  0  0  0  0  0  0
   60.7540   28.6040   49.5150 C   0  0  0  0  0  0  0  0  0  0  0  0
   61.4330   29.6240   50.1710 C   0  0  0  0  0  0  0  0  0  0  0  0
   61.3240   30.9400   49.7240 C   0  0  0  0  0  0  0  0  0  0  0  0
   60.5410   31.2640   48.5850 C   0  0  0  0  0  0  0  0  0  0  0  0
   60.4470   32.5580   48.1110 N   0  0  0  0  0  0  0  0  0  0  0  0
   61.4140   33.5820   48.5680 C   0  0  0  0  0  0  0  0  0  0  0  0
   59.4610   32.8910   47.1990 C   0  0  0  0  0  0  0  0  0  0  0  0
   59.1520   34.2440   46.9180 C   0  0  0  0  0  0  0  0  0  0  0  0
   58.2090   34.5840   45.9600 C   0  0  0  0  0  0  0  0  0  0  0  0
   57.5250   33.5960   45.2690 C   0  0  0  0  0  0  0  0  0  0  0  0
   57.7490   32.2370   45.5480 C   0  0  0  0  0  0  0  0  0  0  0  0
   57.0200   31.2390   44.8720 O   0  0  0  0  0  0  0  0  0  0  0  0
   57.1620   30.8600   43.5030 C   0  0  0  0  0  0  0  0  0  0  0  0
   56.2020   29.7280   43.1530 C   0  0  0  0  0  0  0  0  0  0  0  0
   58.7250   31.8710   46.5240 C   0  0  0  0  0  0  0  0  0  0  0  0
   55.5461   23.1048   45.3056 H   0  0  0  0  0  0  0  0  0  0  0  0
   54.2717   23.0794   44.0399 H   0  0  0  0  0  0  0  0  0  0  0  0
   55.5117   24.3790   44.0399 H   0  0  0  0  0  0  0  0  0  0  0  0
   53.1133   24.8979   44.9889 H   0  0  0  0  0  0  0  0  0  0  0  0
   53.6779   23.9968   46.4340 H   0  0  0  0  0  0  0  0  0  0  0  0
   56.1846   24.7424   47.0479 H   0  0  0  0  0  0  0  0  0  0  0  0
   56.4567   24.9022   45.2679 H   0  0  0  0  0  0  0  0  0  0  0  0
   56.4064   27.2995   47.1530 H   0  0  0  0  0  0  0  0  0  0  0  0
   57.9124   26.3684   46.7606 H   0  0  0  0  0  0  0  0  0  0  0  0
   58.8240   26.3564   44.9138 H   0  0  0  0  0  0  0  0  0  0  0  0
   58.4275   27.5812   43.6611 H   0  0  0  0  0  0  0  0  0  0  0  0
   59.8268   27.8884   46.2779 H   0  0  0  0  0  0  0  0  0  0  0  0
   59.9464   28.8635   44.7555 H   0  0  0  0  0  0  0  0  0  0  0  0
   57.3950   29.3770   46.0010 H   0  0  0  0  0  0  0  0  0  0  0  0
   59.4060   28.0857   47.9088 H   0  0  0  0  0  0  0  0  0  0  0  0
   60.8499   27.5657   49.8653 H   0  0  0  0  0  0  0  0  0  0  0  0
   62.0584   29.3921   51.0457 H   0  0  0  0  0  0  0  0  0  0  0  0
   61.8531   31.7401   50.2624 H   0  0  0  0  0  0  0  0  0  0  0  0
   61.4337   33.6029   49.6676 H   0  0  0  0  0  0  0  0  0  0  0  0
   62.4163   33.3353   48.1879 H   0  0  0  0  0  0  0  0  0  0  0  0
   61.1103   34.5686   48.1879 H   0  0  0  0  0  0  0  0  0  0  0  0
   59.6704   35.0413   47.4708 H   0  0  0  0  0  0  0  0  0  0  0  0
   58.0026   35.6433   45.7472 H   0  0  0  0  0  0  0  0  0  0  0  0
   56.7984   33.8790   44.4932 H   0  0  0  0  0  0  0  0  0  0  0  0
   56.9442   31.7283   42.8638 H   0  0  0  0  0  0  0  0  0  0  0  0
   58.1925   30.5125   43.3381 H   0  0  0  0  0  0  0  0  0  0  0  0
   55.8172   29.2743   44.0783 H   0  0  0  0  0  0  0  0  0  0  0  0
   55.3632   30.1275   42.5641 H   0  0  0  0  0  0  0  0  0  0  0  0
   56.7331   28.9657   42.5641 H   0  0  0  0  0  0  0  0  0  0  0  0
  1  2  1  0
  2  3  1  0
  3  4  1  0
  4  5  1  0
  5  6  1  0
  6  7  1  0
  7  8  1  0
  8  9  1  0
  9 10  1  0
 10 11  2  0
 11 12  1  0
 12 13  2  0
 13 14  1  0
 14 15  2  0
 15 16  1  0
 16 17  2  0
 17 18  1  0
 17 19  1  0
 19 20  2  0
 20 21  1  0
 21 22  2  0
 22 23  1  0
 23 24  1  0
 24 25  1  0
 25 26  1  0
 23 27  2  0
 27 10  1  0
 16 11  1  0
 27 19  1  0
  1 28  1  0
  1 29  1  0
  1 30  1  0
  2 31  1  0
  2 32  1  0
  4 33  1  0
  4 34  1  0
  5 35  1  0
  5 36  1  0
  7 37  1  0
  7 38  1  0
  8 39  1  0
  8 40  1  0
  9 41  1  0
 12 42  1  0
 13 43  1  0
 14 44  1  0
 15 45  1  0
 18 46  1  0
 18 47  1  0
 18 48  1  0
 20 49  1  0
 21 50  1  0
 22 51  1  0
 25 52  1  0
 25 53  1  0
 26 54  1  0
 26 55  1  0
 26 56  1  0
M  CHG  1  17   1
M  END
>  <UniqueID>  (22) 
22

>  <SMILES>  (22) 
CCOCCOCCNc1c2ccccc2[n+](C)c2cccc(OCC)c12

>  <Energy>  (22) 
81.65700218521059

>  <Genealogy>  (22) 
CCOCCOCCNc1c2ccccc2[n+](C)c2cccc(OCC)c12 (3D coordinates assigned)
CCOCCOCCNc1c2ccccc2[n+](C)c2cccc(OCC)c12 (optimized conformer: 81.65700218521059 kcal/mol)

>  <smiles>  (22) 
CCOCCOCCNc1c2ccccc2[n+](C)c2cccc(OCC)c12

>  <score_type>  (22) 
oracle

>  <origin>  (22) 
adg

>  <m_score__min__energy>  (22) 
-5.8399999999999999

>  <m_primary>  (22) 
energy

$$$$
22:0
     RDKit          3D

 44 46  0  0  0  0  0  0  0  0999 V2000
   63.6920   33.2860   46.8150 C   0  0  0  0  0  0  0  0  0  0  0  0
   63.8520   32.6200   48.1800 C   0  0  0  0  0  0  0  0  0  0  0  0
   62.5510   32.4770   48.8530 N   0  0  0  0  0  0  0  0  0  0  0  0
   61.4950   33.1880   48.1070 C   0  0  0  0  0  0  0  0  0  0  0  0
   60.2710   33.4980   48.9830 C   0  0  0  0  0  0  0  0  0  0  0  0
   59.0260   33.0090   48.3790 N   0  0  0  0  0  0  0  0  0  0  0  0
   59.0350   31.8750   47.4990 C   0  0  0  0  0  0  0  0  0  0  0  0
   59.3300   30.5950   48.0160 C   0  0  0  0  0  0  0  0  0  0  0  0
   59.8120   30.4450   49.3330 C   0  0  0  0  0  0  0  0  0  0  0  0
   60.1540   29.1940   49.8260 C   0  0  0  0  0  0  0  0  0  0  0  0
   60.0860   28.0790   49.0050 C   0  0  0  0  0  0  0  0  0  0  0  0
   59.6380   28.1900   47.6880 C   0  0  0  0  0  0  0  0  0  0  0  0
   59.9830   26.6340   46.6030 Br  0  0  0  0  0  0  0  0  0  0  0  0
   59.1670   29.4500   47.1910 C   0  0  0  0  0  0  0  0  0  0  0  0
   58.5550   29.5950   45.9600 N   0  0  0  0  0  0  0  0  0  0  0  0
   57.8370   28.4590   45.3450 C   0  0  0  0  0  0  0  0  0  0  0  0
   58.4920   30.8390   45.3620 C   0  0  0  0  0  0  0  0  0  0  0  0
   58.1710   30.9660   43.9900 C   0  0  0  0  0  0  0  0  0  0  0  0
   58.1010   32.2150   43.3750 C   0  0  0  0  0  0  0  0  0  0  0  0
   57.6840   32.3410   41.5140 Br  0  0  0  0  0  0  0  0  0  0  0  0
   58.3840   33.3580   44.0980 C   0  0  0  0  0  0  0  0  0  0  0  0
   58.7230   33.2860   45.4530 C   0  0  0  0  0  0  0  0  0  0  0  0
   59.2750   34.9590   46.2280 Br  0  0  0  0  0  0  0  0  0  0  0  0
   58.7560   32.0210   46.1190 C   0  0  0  0  0  0  0  0  0  0  0  0
   63.4371   34.3472   46.9524 H   0  0  0  0  0  0  0  0  0  0  0  0
   64.6351   33.2051   46.2547 H   0  0  0  0  0  0  0  0  0  0  0  0
   62.8886   32.7855   46.2547 H   0  0  0  0  0  0  0  0  0  0  0  0
   64.2981   31.6237   48.0441 H   0  0  0  0  0  0  0  0  0  0  0  0
   64.5017   33.2514   48.8039 H   0  0  0  0  0  0  0  0  0  0  0  0
   62.6230   32.8460   49.8280 H   0  0  0  0  0  0  0  0  0  0  0  0
   62.3050   31.4600   48.8860 H   0  0  0  0  0  0  0  0  0  0  0  0
   61.9066   34.1344   47.7264 H   0  0  0  0  0  0  0  0  0  0  0  0
   61.1648   32.5349   47.2858 H   0  0  0  0  0  0  0  0  0  0  0  0
   60.4039   33.0159   49.9627 H   0  0  0  0  0  0  0  0  0  0  0  0
   60.1935   34.5905   49.0850 H   0  0  0  0  0  0  0  0  0  0  0  0
   58.2190   33.6650   48.2860 H   0  0  0  0  0  0  0  0  0  0  0  0
   59.9180   31.3305   49.9770 H   0  0  0  0  0  0  0  0  0  0  0  0
   60.4800   29.0866   50.8711 H   0  0  0  0  0  0  0  0  0  0  0  0
   60.3884   27.0963   49.3959 H   0  0  0  0  0  0  0  0  0  0  0  0
   57.4283   27.8124   46.1355 H   0  0  0  0  0  0  0  0  0  0  0  0
   57.0149   28.8394   44.7209 H   0  0  0  0  0  0  0  0  0  0  0  0
   58.5334   27.8797   44.7209 H   0  0  0  0  0  0  0  0  0  0  0  0
   57.9727   30.0611   43.3968 H   0  0  0  0  0  0  0  0  0  0  0  0
   58.3421   34.3384   43.6009 H   0  0  0  0  0  0  0  0  0  0  0  0
  1  2  1  0
  2  3  1  0
  3  4  1  0
  4  5  1  0
  5  6  1  0
  6  7  1  0
  7  8  2  0
  8  9  1  0
  9 10  2  0
 10 11  1  0
 11 12  2  0
 12 13  1  0
 12 14  1  0
 14 15  2  0
 15 16  1  0
 15 17  1  0
 17 18  2  0
 18 19  1  0
 19 20  1  0
 19 21  2  0
 21 22  1  0
 22 23  1  0
 22 24  2  0
 24  7  1  0
 14  8  1  0
 24 17  1  0
  1 25  1  0
  1 26  1  0
  1 27  1  0
  2 28  1  0
  2 29  1  0
  3 30  1  0
  3 31  1  0
  4 32  1  0
  4 33  1  0
  5 34  1  0
  5 35  1  0
  6 36  1  0
  9 37  1  0
 10 38  1  0
 11 39  1  0
 16 40  1  0
 16 41  1  0
 16 42  1  0
 18 43  1  0
 21 44  1  0
M  CHG  2   3   1  15   1
M  END
>  <UniqueID>  (23) 
23

>  <SMILES>  (23) 
CC[NH2+]CCNc1c2cccc(Br)c2[n+](C)c2cc(Br)cc(Br)c12

>  <Energy>  (23) 
85.10050312428733

>  <Genealogy>  (23) 
CC[NH2+]CCNc1c2cccc(Br)c2[n+](C)c2cc(Br)cc(Br)c12 (protonated)
CC[NH2+]CCNc1c2cccc(Br)c2[n+](C)c2cc(Br)cc(Br)c12 (3D coordinates assigned)
CC[NH2+]CCNc1c2cccc(Br)c2[n+](C)c2cc(Br)cc(Br)c12 (optimized conformer: 85.10050312428733 kcal/mol)

>  <smiles>  (23) 
CCNCCNc1c2cccc(Br)c2[n+](C)c2cc(Br)cc(Br)c12

>  <score_type>  (23) 
oracle

>  <origin>  (23) 
adg

>  <m_score__min__energy>  (23) 
-5.2400000000000002

>  <m_primary>  (23) 
energy

$$$$
23:0
     RDKit          3D

 46 48  0  0  0  0  0  0  0  0999 V2000
   62.5670   31.5540   47.6450 C   0  0  0  0  0  0  0  0  0  0  0  0
   61.3110   32.0530   47.0920 N   0  0  0  0  0  0  0  0  0  0  0  0
   60.8060   33.3100   47.1800 C   0  0  0  0  0  0  0  0  0  0  0  0
   61.4140   34.2660   47.7320 O   0  0  0  0  0  0  0  0  0  0  0  0
   59.5720   33.4250   46.6270 N   0  0  0  0  0  0  0  0  0  0  0  0
   58.7070   34.6010   46.6050 C   0  0  0  0  0  0  0  0  0  0  0  0
   59.2790   32.1760   46.2120 C   0  0  0  0  0  0  0  0  0  0  0  0
   58.1100   31.7070   45.6150 C   0  0  0  0  0  0  0  0  0  0  0  0
   58.0420   30.3350   45.2870 C   0  0  0  0  0  0  0  0  0  0  0  0
   56.6170   29.6870   44.4730 S   0  0  0  0  0  0  0  0  0  0  0  0
   55.5390   30.7350   44.4910 O   0  0  0  0  0  0  0  0  0  0  0  0
   56.9460   29.3810   43.0390 O   0  0  0  0  0  0  0  0  0  0  0  0
   56.0100   28.2480   45.2480 N   0  0  0  0  0  0  0  0  0  0  0  0
   56.9910   27.1580   45.2490 C   0  0  0  0  0  0  0  0  0  0  0  0
   57.3220   26.7000   46.6740 C   0  0  0  0  0  0  0  0  0  0  0  0
   57.5890   25.1940   46.7190 C   0  0  0  0  0  0  0  0  0  0  0  0
   57.0070   24.5430   45.5480 N   0  0  0  0  0  0  0  0  0  0  0  0
   57.7710   23.8340   44.5390 C   0  0  0  0  0  0  0  0  0  0  0  0
   56.7450   23.3280   43.5060 C   0  0  0  0  0  0  0  0  0  0  0  0
   55.3430   23.6590   44.0470 C   0  0  0  0  0  0  0  0  0  0  0  0
   55.6250   24.4240   45.2760 C   0  0  0  0  0  0  0  0  0  0  0  0
   54.7310   24.9080   46.0200 O   0  0  0  0  0  0  0  0  0  0  0  0
   59.1350   29.4820   45.5760 C   0  0  0  0  0  0  0  0  0  0  0  0
   60.2940   29.9840   46.1940 C   0  0  0  0  0  0  0  0  0  0  0  0
   60.3320   31.3460   46.4940 C   0  0  0  0  0  0  0  0  0  0  0  0
   62.5174   31.5737   48.7437 H   0  0  0  0  0  0  0  0  0  0  0  0
   62.7333   30.5215   47.3039 H   0  0  0  0  0  0  0  0  0  0  0  0
   63.3965   32.1909   47.3039 H   0  0  0  0  0  0  0  0  0  0  0  0
   58.4805   34.9089   47.6364 H   0  0  0  0  0  0  0  0  0  0  0  0
   59.2179   35.4222   46.0810 H   0  0  0  0  0  0  0  0  0  0  0  0
   57.7709   34.3579   46.0810 H   0  0  0  0  0  0  0  0  0  0  0  0
   57.2680   32.3833   45.4062 H   0  0  0  0  0  0  0  0  0  0  0  0
   56.5798   26.3068   44.6866 H   0  0  0  0  0  0  0  0  0  0  0  0
   57.9161   27.5265   44.7817 H   0  0  0  0  0  0  0  0  0  0  0  0
   58.2172   27.2345   47.0246 H   0  0  0  0  0  0  0  0  0  0  0  0
   56.4613   26.9224   47.3219 H   0  0  0  0  0  0  0  0  0  0  0  0
   58.6747   25.0177   46.7306 H   0  0  0  0  0  0  0  0  0  0  0  0
   57.1307   24.7753   47.6271 H   0  0  0  0  0  0  0  0  0  0  0  0
   58.4930   24.5118   44.0601 H   0  0  0  0  0  0  0  0  0  0  0  0
   58.3440   23.0037   44.9774 H   0  0  0  0  0  0  0  0  0  0  0  0
   56.9038   23.8316   42.5410 H   0  0  0  0  0  0  0  0  0  0  0  0
   56.8544   22.2447   43.3496 H   0  0  0  0  0  0  0  0  0  0  0  0
   54.7759   24.2664   43.3263 H   0  0  0  0  0  0  0  0  0  0  0  0
   54.7295   22.7642   44.2284 H   0  0  0  0  0  0  0  0  0  0  0  0
   59.0766   28.4152   45.3142 H   0  0  0  0  0  0  0  0  0  0  0  0
   61.1419   29.3252   46.4328 H   0  0  0  0  0  0  0  0  0  0  0  0
  1  2  1  0
  2  3  1  0
  3  4  2  0
  3  5  1  0
  5  6  1  0
  5  7  1  0
  7  8  2  0
  8  9  1  0
  9 10  1  0
 10 11  2  0
 10 12  2  0
 10 13  1  0
 13 14  1  0
 14 15  1  0
 15 16  1  0
 16 17  1  0
 17 18  1  0
 18 19  1  0
 19 20  1  0
 20 21  1  0
 21 22  2  0
  9 23  2  0
 23 24  1  0
 24 25  2  0
 25  2  1  0
 25  7  1  0
 21 17  1  0
  1 26  1  0
  1 27  1  0
  1 28  1  0
  6 29  1  0
  6 30  1  0
  6 31  1  0
  8 32  1  0
 14 33  1  0
 14 34  1  0
 15 35  1  0
 15 36  1  0
 16 37  1  0
 16 38  1  0
 18 39  1  0
 18 40  1  0
 19 41  1  0
 19 42  1  0
 20 43  1  0
 20 44  1  0
 23 45  1  0
 24 46  1  0
M  CHG  1  13  -1
M  END
>  <UniqueID>  (24) 
24

>  <SMILES>  (24) 
Cn1c(=O)n(C)c2cc(S(=O)(=O)[N-]CCCN3CCCC3=O)ccc21

>  <Energy>  (24) 
86.29522214512353

>  <Genealogy>  (24) 
Cn1c(=O)n(C)c2cc(S(=O)(=O)[N-]CCCN3CCCC3=O)ccc21 (protonated)
Cn1c(=O)n(C)c2cc(S(=O)(=O)[N-]CCCN3CCCC3=O)ccc21 (3D coordinates assigned)
Cn1c(=O)n(C)c2cc(S(=O)(=O)[N-]CCCN3CCCC3=O)ccc21 (nonaromatic ring conformer: 86.29522214512353 kcal/mol)

>  <smiles>  (24) 
Cn1c(=O)n(C)c2cc(S(=O)(=O)NCCCN3CCCC3=O)ccc21

>  <score_type>  (24) 
oracle

>  <origin>  (24) 
adg

>  <m_score__min__energy>  (24) 
-9.6600000000000001

>  <m_primary>  (24) 
energy

$$$$
24:0
     RDKit          3D

 39 41  0  0  0  0  0  0  0  0999 V2000
   54.1650   23.0610   46.3990 C   0  0  0  0  0  0  0  0  0  0  0  0
   55.4980   23.1980   47.1260 C   0  0  0  0  0  0  0  0  0  0  0  0
   55.9300   24.5570   47.1300 O   0  0  0  0  0  0  0  0  0  0  0  0
   55.8720   25.3880   46.0050 C   0  0  0  0  0  0  0  0  0  0  0  0
   55.0480   26.3410   45.9480 O   0  0  0  0  0  0  0  0  0  0  0  0
   56.8390   25.1740   44.8850 C   0  0  0  0  0  0  0  0  0  0  0  0
   58.2230   25.7050   45.2640 C   0  0  0  0  0  0  0  0  0  0  0  0
   58.1920   27.2030   45.4100 C   0  0  0  0  0  0  0  0  0  0  0  0
   58.6510   27.8060   46.5850 C   0  0  0  0  0  0  0  0  0  0  0  0
   58.6560   29.1970   46.7170 C   0  0  0  0  0  0  0  0  0  0  0  0
   58.2080   30.0300   45.6650 C   0  0  0  0  0  0  0  0  0  0  0  0
   57.7580   29.4080   44.4680 C   0  0  0  0  0  0  0  0  0  0  0  0
   57.3110   30.1830   43.3920 C   0  0  0  0  0  0  0  0  0  0  0  0
   57.2990   31.5680   43.4760 C   0  0  0  0  0  0  0  0  0  0  0  0
   57.7310   32.2150   44.6380 C   0  0  0  0  0  0  0  0  0  0  0  0
   57.7060   33.6170   44.6950 C   0  0  0  0  0  0  0  0  0  0  0  0
   58.1300   34.2850   45.8420 C   0  0  0  0  0  0  0  0  0  0  0  0
   58.5820   33.5620   46.9420 C   0  0  0  0  0  0  0  0  0  0  0  0
   58.6160   32.1660   46.9060 C   0  0  0  0  0  0  0  0  0  0  0  0
   58.1930   31.4580   45.7540 C   0  0  0  0  0  0  0  0  0  0  0  0
   57.7580   28.0080   44.3510 C   0  0  0  0  0  0  0  0  0  0  0  0
   53.3524   22.9775   47.1357 H   0  0  0  0  0  0  0  0  0  0  0  0
   53.9986   23.9468   45.7684 H   0  0  0  0  0  0  0  0  0  0  0  0
   54.1822   22.1599   45.7684 H   0  0  0  0  0  0  0  0  0  0  0  0
   55.3809   22.8528   48.1638 H   0  0  0  0  0  0  0  0  0  0  0  0
   56.2506   22.5881   46.6048 H   0  0  0  0  0  0  0  0  0  0  0  0
   56.9107   24.0978   44.6692 H   0  0  0  0  0  0  0  0  0  0  0  0
   56.4808   25.7155   43.9970 H   0  0  0  0  0  0  0  0  0  0  0  0
   58.5345   25.2548   46.2181 H   0  0  0  0  0  0  0  0  0  0  0  0
   58.9354   25.4401   44.4688 H   0  0  0  0  0  0  0  0  0  0  0  0
   59.0118   27.1791   47.4137 H   0  0  0  0  0  0  0  0  0  0  0  0
   59.0136   29.6511   47.6529 H   0  0  0  0  0  0  0  0  0  0  0  0
   56.9660   29.6898   42.4713 H   0  0  0  0  0  0  0  0  0  0  0  0
   56.9463   32.1626   42.6204 H   0  0  0  0  0  0  0  0  0  0  0  0
   57.3492   34.1926   43.8282 H   0  0  0  0  0  0  0  0  0  0  0  0
   58.1075   35.3842   45.8781 H   0  0  0  0  0  0  0  0  0  0  0  0
   58.9147   34.0934   47.8458 H   0  0  0  0  0  0  0  0  0  0  0  0
   58.9759   31.6090   47.7836 H   0  0  0  0  0  0  0  0  0  0  0  0
   57.4132   27.5398   43.4172 H   0  0  0  0  0  0  0  0  0  0  0  0
  1  2  1  0
  2  3  1  0
  3  4  1  0
  4  5  2  0
  4  6  1  0
  6  7  1  0
  7  8  1  0
  8  9  2  0
  9 10  1  0
 10 11  2  0
 11 12  1  0
 12 13  1  0
 13 14  2  0
 14 15  1  0
 15 16  2  0
 16 17  1  0
 17 18  2  0
 18 19  1  0
 19 20  2  0
 12 21  2  0
 21  8  1  0
 20 11  1  0
 20 15  1  0
  1 22  1  0
  1 23  1  0
  1 24  1  0
  2 25  1  0
  2 26  1  0
  6 27  1  0
  6 28  1  0
  7 29  1  0
  7 30  1  0
  9 31  1  0
 10 32  1  0
 13 33  1  0
 14 34  1  0
 16 35  1  0
 17 36  1  0
 18 37  1  0
 19 38  1  0
 21 39  1  0
M  END
>  <UniqueID>  (25) 
25

>  <SMILES>  (25) 
CCOC(=O)CCc1ccc2c(ccc3ccccc32)c1

>  <Energy>  (25) 
44.13063074676908

>  <Genealogy>  (25) 
CCOC(=O)CCc1ccc2c(ccc3ccccc32)c1 (3D coordinates assigned)
CCOC(=O)CCc1ccc2c(ccc3ccccc32)c1 (optimized conformer: 44.13063074676908 kcal/mol)

>  <smiles>  (25) 
CCOC(=O)CCc1ccc2c(ccc3ccccc32)c1

>  <score_type>  (25) 
oracle

>  <origin>  (25) 
adg

>  <m_score__min__energy>  (25) 
-8.0899999999999999

>  <m_primary>  (25) 
energy

$$$$
