0:0
     RDKit          3D

 41 40  0  0  0  0  0  0  0  0999 V2000
   62.9690   32.8080   47.2180 C   0  0  0  0  0  0  0  0  0  0  0  0
   61.7290   32.0670   47.7050 C   0  0  0  0  0  0  0  0  0  0  0  0
   60.5120   32.8070   47.3430 N   0  0  0  0  0  0  0  0  0  0  0  0
   60.7900   33.8040   46.2960 C   0  0  0  0  0  0  0  0  0  0  0  0
   59.6230   34.7940   46.1530 C   0  0  0  0  0  0  0  0  0  0  0  0
   58.7840   34.5630   44.8740 C   0  0  0  0  0  0  0  0  0  0  0  0
   57.3880   33.9880   45.1560 C   0  0  0  0  0  0  0  0  0  0  0  0
   57.4500   32.7560   46.0030 C   0  0  0  0  0  0  0  0  0  0  0  0
   57.8100   32.8400   47.2090 O   0  0  0  0  0  0  0  0  0  0  0  0
   57.0940   31.4910   45.4400 N   0  0  0  0  0  0  0  0  0  0  0  0
   57.6330   31.0070   44.1760 C   0  0  0  0  0  0  0  0  0  0  0  0
   58.8760   30.1620   44.4370 C   0  0  0  0  0  0  0  0  0  0  0  0
   59.5450   30.6190   45.6610 N   0  0  0  0  0  0  0  0  0  0  0  0
   60.0760   29.4740   46.4090 C   0  0  0  0  0  0  0  0  0  0  0  0
   59.5230   29.4650   47.8360 C   0  0  0  0  0  0  0  0  0  0  0  0
   58.6570   30.6200   48.0570 N   0  0  0  0  0  0  0  0  0  0  0  0
   63.5517   33.1562   48.0836 H   0  0  0  0  0  0  0  0  0  0  0  0
   63.5858   32.1303   46.6095 H   0  0  0  0  0  0  0  0  0  0  0  0
   62.6643   33.6722   46.6095 H   0  0  0  0  0  0  0  0  0  0  0  0
   61.6977   31.0699   47.2415 H   0  0  0  0  0  0  0  0  0  0  0  0
   61.7768   31.9747   48.8001 H   0  0  0  0  0  0  0  0  0  0  0  0
   59.8260   32.1180   46.9530 H   0  0  0  0  0  0  0  0  0  0  0  0
   61.7019   34.3591   46.5611 H   0  0  0  0  0  0  0  0  0  0  0  0
   60.9227   33.2786   45.3387 H   0  0  0  0  0  0  0  0  0  0  0  0
   58.9644   34.6874   47.0276 H   0  0  0  0  0  0  0  0  0  0  0  0
   60.0557   35.8029   46.0835 H   0  0  0  0  0  0  0  0  0  0  0  0
   58.6663   35.5260   44.3555 H   0  0  0  0  0  0  0  0  0  0  0  0
   59.3219   33.8243   44.2617 H   0  0  0  0  0  0  0  0  0  0  0  0
   56.7895   34.7486   45.6787 H   0  0  0  0  0  0  0  0  0  0  0  0
   56.9317   33.7156   44.1929 H   0  0  0  0  0  0  0  0  0  0  0  0
   56.8750   30.3945   43.6659 H   0  0  0  0  0  0  0  0  0  0  0  0
   57.9022   31.8650   43.5424 H   0  0  0  0  0  0  0  0  0  0  0  0
   58.5824   29.1084   44.5539 H   0  0  0  0  0  0  0  0  0  0  0  0
   59.5674   30.2643   43.5876 H   0  0  0  0  0  0  0  0  0  0  0  0
   58.8260   31.0880   46.2620 H   0  0  0  0  0  0  0  0  0  0  0  0
   59.7840   28.5428   45.9014 H   0  0  0  0  0  0  0  0  0  0  0  0
   61.1723   29.5538   46.4521 H   0  0  0  0  0  0  0  0  0  0  0  0
   58.9440   28.5431   47.9939 H   0  0  0  0  0  0  0  0  0  0  0  0
   60.3641   29.5108   48.5434 H   0  0  0  0  0  0  0  0  0  0  0  0
   58.0030   30.6980   47.2450 H   0  0  0  0  0  0  0  0  0  0  0  0
   59.2580   31.4740   48.0390 H   0  0  0  0  0  0  0  0  0  0  0  0
  1  2  1  0
  2  3  1  0
  3  4  1  0
  4  5  1  0
  5  6  1  0
  6  7  1  0
  7  8  1  0
  8  9  2  0
  8 10  1  0
 10 11  1  0
 11 12  1  0
 12 13  1  0
 13 14  1  0
 14 15  1  0
 15 16  1  0
  1 17  1  0
  1 18  1  0
  1 19  1  0
  2 20  1  0
  2 21  1  0
  3 22  1  0
  4 23  1  0
  4 24  1  0
  5 25  1  0
  5 26  1  0
  6 27  1  0
  6 28  1  0
  7 29  1  0
  7 30  1  0
 11 31  1  0
 11 32  1  0
 12 33  1  0
 12 34  1  0
 13 35  1  0
 14 36  1  0
 14 37  1  0
 15 38  1  0
 15 39  1  0
 16 40  1  0
 16 41  1  0
M  CHG  1  10  -1
M  END
>  <UniqueID>  (1) 
1

>  <SMILES>  (1) 
CCNCCCCC(=O)[N-]CCNCCN

>  <Energy>  (1) 
18.382568168901685

>  <Genealogy>  (1) 
CCNCCCCC(=O)[N-]CCNCCN (protonated)
CCNCCCCC(=O)[N-]CCNCCN (3D coordinates assigned)
CCNCCCCC(=O)[N-]CCNCCN (optimized conformer: 18.382568168901685 kcal/mol)

>  <smiles>  (1) 
CCNCCCCC(=O)NCCNCCN

>  <score_type>  (1) 
oracle

>  <origin>  (1) 
adg

>  <m_score__min__energy>  (1) 
-6.2599999999999998

>  <m_primary>  (1) 
energy

$$$$
1:0
     RDKit          3D

 80 83  0  0  0  0  0  0  0  0999 V2000
   57.7930   27.9090   44.0950 C   0  0  0  0  0  0  0  0  0  0  0  0
   57.0240   28.6480   45.2020 C   0  0  0  0  0  0  0  0  0  0  0  0
   57.1860   30.1250   45.1850 N   0  0  0  0  0  0  0  0  0  0  0  0
   56.4520   30.7610   44.0670 C   0  0  0  0  0  0  0  0  0  0  0  0
   57.4290   31.5070   43.1640 C   0  0  0  0  0  0  0  0  0  0  0  0
   58.5850   30.6000   45.2820 C   0  0  0  0  0  0  0  0  0  0  0  0
   59.3460   29.9240   46.4260 C   0  0  0  0  0  0  0  0  0  0  0  0
   58.5010   29.8120   47.5520 O   0  0  0  0  0  0  0  0  0  0  0  0
   59.2630   29.6420   48.7320 C   0  0  0  0  0  0  0  0  0  0  0  0
   58.6250   30.3830   49.9100 C   0  0  0  0  0  0  0  0  0  0  0  0
   58.5300   31.8160   49.6400 N   0  0  0  0  0  0  0  0  0  0  0  0
   59.5630   32.4810   48.8950 C   0  0  0  0  0  0  0  0  0  0  0  0
   59.2610   33.0850   47.6630 C   0  0  0  0  0  0  0  0  0  0  0  0
   57.9290   33.1570   47.2050 C   0  0  0  0  0  0  0  0  0  0  0  0
   57.6240   33.7940   46.0040 C   0  0  0  0  0  0  0  0  0  0  0  0
   58.6330   34.3850   45.2540 C   0  0  0  0  0  0  0  0  0  0  0  0
   59.9580   34.3250   45.6880 C   0  0  0  0  0  0  0  0  0  0  0  0
   60.3060   33.6470   46.8850 C   0  0  0  0  0  0  0  0  0  0  0  0
   61.6190   33.5380   47.3060 N   0  0  0  0  0  0  0  0  0  0  0  0
   62.7240   33.8460   46.3710 C   0  0  0  0  0  0  0  0  0  0  0  0
   61.8990   33.1150   48.5930 C   0  0  0  0  0  0  0  0  0  0  0  0
   63.1940   33.2360   49.1490 C   0  0  0  0  0  0  0  0  0  0  0  0
   63.4780   32.7560   50.4250 C   0  0  0  0  0  0  0  0  0  0  0  0
   62.4870   32.1630   51.2020 C   0  0  0  0  0  0  0  0  0  0  0  0
   62.8500   31.7060   52.4800 O   0  0  0  0  0  0  0  0  0  0  0  0
   61.9530   31.3670   53.5360 C   0  0  0  0  0  0  0  0  0  0  0  0
   61.3160   32.6090   54.2080 C   0  0  0  0  0  0  0  0  0  0  0  0
   59.8780   32.9160   53.8820 N   0  0  0  0  0  0  0  0  0  0  0  0
   59.2990   33.5620   55.0960 C   0  0  0  0  0  0  0  0  0  0  0  0
   59.7580   33.8570   52.7310 C   0  0  0  0  0  0  0  0  0  0  0  0
   58.2810   34.1420   52.3510 C   0  0  0  0  0  0  0  0  0  0  0  0
   57.3780   33.1330   52.7730 O   0  0  0  0  0  0  0  0  0  0  0  0
   57.9520   31.8560   52.6130 C   0  0  0  0  0  0  0  0  0  0  0  0
   59.1170   31.6540   53.6040 C   0  0  0  0  0  0  0  0  0  0  0  0
   61.1820   32.0660   50.6900 C   0  0  0  0  0  0  0  0  0  0  0  0
   60.8740   32.5510   49.3990 C   0  0  0  0  0  0  0  0  0  0  0  0
   58.5149   27.2152   44.5505 H   0  0  0  0  0  0  0  0  0  0  0  0
   57.0849   27.3439   43.4712 H   0  0  0  0  0  0  0  0  0  0  0  0
   58.3295   28.6391   43.4712 H   0  0  0  0  0  0  0  0  0  0  0  0
   55.9542   28.4185   45.0889 H   0  0  0  0  0  0  0  0  0  0  0  0
   57.4404   28.2989   46.1584 H   0  0  0  0  0  0  0  0  0  0  0  0
   55.9340   29.9861   43.4829 H   0  0  0  0  0  0  0  0  0  0  0  0
   55.7180   31.4725   44.4732 H   0  0  0  0  0  0  0  0  0  0  0  0
   58.1519   32.0589   43.7827 H   0  0  0  0  0  0  0  0  0  0  0  0
   57.9649   30.7862   42.5290 H   0  0  0  0  0  0  0  0  0  0  0  0
   56.8748   32.2139   42.5290 H   0  0  0  0  0  0  0  0  0  0  0  0
   59.1003   30.3808   44.3352 H   0  0  0  0  0  0  0  0  0  0  0  0
   58.5619   31.6812   45.4834 H   0  0  0  0  0  0  0  0  0  0  0  0
   59.6695   28.9215   46.1092 H   0  0  0  0  0  0  0  0  0  0  0  0
   60.2273   30.5281   46.6875 H   0  0  0  0  0  0  0  0  0  0  0  0
   59.3215   28.5698   48.9709 H   0  0  0  0  0  0  0  0  0  0  0  0
   60.2683   30.0549   48.5619 H   0  0  0  0  0  0  0  0  0  0  0  0
   57.6153   29.9821   50.0824 H   0  0  0  0  0  0  0  0  0  0  0  0
   59.2561   30.2357   50.7989 H   0  0  0  0  0  0  0  0  0  0  0  0
   57.8840   32.3980   50.2190 H   0  0  0  0  0  0  0  0  0  0  0  0
   57.1228   32.7057   47.8020 H   0  0  0  0  0  0  0  0  0  0  0  0
   56.5833   33.8290   45.6494 H   0  0  0  0  0  0  0  0  0  0  0  0
   58.3867   34.9020   44.3148 H   0  0  0  0  0  0  0  0  0  0  0  0
   60.7451   34.8110   45.0928 H   0  0  0  0  0  0  0  0  0  0  0  0
   63.6289   34.0982   46.9432 H   0  0  0  0  0  0  0  0  0  0  0  0
   62.9233   32.9692   45.7374 H   0  0  0  0  0  0  0  0  0  0  0  0
   62.4410   34.6995   45.7374 H   0  0  0  0  0  0  0  0  0  0  0  0
   63.9907   33.7177   48.5632 H   0  0  0  0  0  0  0  0  0  0  0  0
   64.4990   32.8467   50.8242 H   0  0  0  0  0  0  0  0  0  0  0  0
   61.1487   30.7389   53.1253 H   0  0  0  0  0  0  0  0  0  0  0  0
   62.5339   30.8371   54.3052 H   0  0  0  0  0  0  0  0  0  0  0  0
   61.3836   32.4655   55.2965 H   0  0  0  0  0  0  0  0  0  0  0  0
   61.8820   33.4640   53.8097 H   0  0  0  0  0  0  0  0  0  0  0  0
   59.7199   33.0924   55.9973 H   0  0  0  0  0  0  0  0  0  0  0  0
   59.5439   34.6344   55.0928 H   0  0  0  0  0  0  0  0  0  0  0  0
   58.2063   33.4355   55.0928 H   0  0  0  0  0  0  0  0  0  0  0  0
   60.2432   34.8070   52.9994 H   0  0  0  0  0  0  0  0  0  0  0  0
   60.2430   33.3877   51.8624 H   0  0  0  0  0  0  0  0  0  0  0  0
   57.9805   35.0930   52.8151 H   0  0  0  0  0  0  0  0  0  0  0  0
   58.2330   34.1769   51.2526 H   0  0  0  0  0  0  0  0  0  0  0  0
   57.1846   31.0896   52.7967 H   0  0  0  0  0  0  0  0  0  0  0  0
   58.3406   31.7688   51.5876 H   0  0  0  0  0  0  0  0  0  0  0  0
   58.7082   31.2755   54.5525 H   0  0  0  0  0  0  0  0  0  0  0  0
   59.8187   30.9421   53.1448 H   0  0  0  0  0  0  0  0  0  0  0  0
   60.3910   31.6072   51.3013 H   0  0  0  0  0  0  0  0  0  0  0  0
  1  2  1  0
  2  3  1  0
  3  4  1  0
  4  5  1  0
  3  6  1  0
  6  7  1  0
  7  8  1  0
  8  9  1  0
  9 10  1  0
 10 11  1  0
 11 12  1  0
 12 13  2  0
 13 14  1  0
 14 15  2  0
 15 16  1  0
 16 17  2  0
 17 18  1  0
 18 19  2  0
 19 20  1  0
 19 21  1  0
 21 22  2  0
 22 23  1  0
 23 24  2  0
 24 25  1  0
 25 26  1  0
 26 27  1  0
 27 28  1  0
 28 29  1  0
 28 30  1  0
 30 31  1  0
 31 32  1  0
 32 33  1  0
 33 34  1  0
 24 35  1  0
 35 36  2  0
 36 12  1  0
 18 13  1  0
 36 21  1  0
 34 28  1  0
  1 37  1  0
  1 38  1  0
  1 39  1  0
  2 40  1  0
  2 41  1  0
  4 42  1  0
  4 43  1  0
  5 44  1  0
  5 45  1  0
  5 46  1  0
  6 47  1  0
  6 48  1  0
  7 49  1  0
  7 50  1  0
  9 51  1  0
  9 52  1  0
 10 53  1  0
 10 54  1  0
 11 55  1  0
 14 56  1  0
 15 57  1  0
 16 58  1  0
 17 59  1  0
 20 60  1  0
 20 61  1  0
 20 62  1  0
 22 63  1  0
 23 64  1  0
 26 65  1  0
 26 66  1  0
 27 67  1  0
 27 68  1  0
 29 69  1  0
 29 70  1  0
 29 71  1  0
 30 72  1  0
 30 73  1  0
 31 74  1  0
 31 75  1  0
 33 76  1  0
 33 77  1  0
 34 78  1  0
 34 79  1  0
 35 80  1  0
M  CHG  2  19   1  28   1
M  END
>  <UniqueID>  (2) 
2

>  <SMILES>  (2) 
CCN(CC)CCOCCNc1c2ccccc2[n+](C)c2ccc(OCC[N+]3(C)CCOCC3)cc12

>  <Energy>  (2) 
129.4929344654444

>  <Genealogy>  (2) 
CCN(CC)CCOCCNc1c2ccccc2[n+](C)c2ccc(OCC[N+]3(C)CCOCC3)cc12 (3D coordinates assigned)
CCN(CC)CCOCCNc1c2ccccc2[n+](C)c2ccc(OCC[N+]3(C)CCOCC3)cc12 (nonaromatic ring conformer: 129.4929344654444 kcal/mol)

>  <smiles>  (2) 
CCN(CC)CCOCCNc1c2ccccc2[n+](C)c2ccc(OCC[N+]3(C)CCOCC3)cc12

>  <score_type>  (2) 
oracle

>  <origin>  (2) 
adg

>  <m_score__min__energy>  (2) 
-5.1600000000000001

>  <m_primary>  (2) 
energy

$$$$
2:0
     RDKit          3D

 62 65  0  0  0  0  0  0  0  0999 V2000
   57.4350   31.3330   43.1250 C   0  0  0  0  0  0  0  0  0  0  0  0
   56.7010   30.1460   43.7540 C   0  0  0  0  0  0  0  0  0  0  0  0
   57.3470   28.8600   43.4400 N   0  0  0  0  0  0  0  0  0  0  0  0
   57.9370   28.2630   44.6150 C   0  0  0  0  0  0  0  0  0  0  0  0
   57.8590   26.8620   44.8210 C   0  0  0  0  0  0  0  0  0  0  0  0
   58.4020   26.2730   45.9750 C   0  0  0  0  0  0  0  0  0  0  0  0
   59.0260   27.1020   46.9030 C   0  0  0  0  0  0  0  0  0  0  0  0
   59.5890   26.7250   48.0680 N   0  0  0  0  0  0  0  0  0  0  0  0
   60.0520   27.8730   48.6250 C   0  0  0  0  0  0  0  0  0  0  0  0
   59.8040   28.9570   47.8070 C   0  0  0  0  0  0  0  0  0  0  0  0
   60.2360   30.2350   48.1430 C   0  0  0  0  0  0  0  0  0  0  0  0
   60.0410   31.3400   47.2530 N   0  0  0  0  0  0  0  0  0  0  0  0
   61.1960   32.0840   46.7490 C   0  0  0  0  0  0  0  0  0  0  0  0
   60.8140   33.5220   46.3800 C   0  0  0  0  0  0  0  0  0  0  0  0
   59.3430   33.6960   46.3800 N   0  0  0  0  0  0  0  0  0  0  0  0
   58.8880   34.5730   47.4880 C   0  0  0  0  0  0  0  0  0  0  0  0
   59.6840   34.4040   48.7890 C   0  0  0  0  0  0  0  0  0  0  0  0
   58.8440   34.1030   45.0460 C   0  0  0  0  0  0  0  0  0  0  0  0
   57.3160   34.1560   44.9960 C   0  0  0  0  0  0  0  0  0  0  0  0
   60.9390   30.3890   49.3580 C   0  0  0  0  0  0  0  0  0  0  0  0
   61.4270   31.6520   49.7470 C   0  0  0  0  0  0  0  0  0  0  0  0
   62.1560   31.8000   50.9240 C   0  0  0  0  0  0  0  0  0  0  0  0
   62.4200   30.6950   51.7270 C   0  0  0  0  0  0  0  0  0  0  0  0
   61.9480   29.4320   51.3700 C   0  0  0  0  0  0  0  0  0  0  0  0
   61.1810   29.2460   50.1930 C   0  0  0  0  0  0  0  0  0  0  0  0
   60.6910   27.9980   49.8340 N   0  0  0  0  0  0  0  0  0  0  0  0
   60.8540   26.8280   50.7170 C   0  0  0  0  0  0  0  0  0  0  0  0
   59.1230   28.4620   46.7070 C   0  0  0  0  0  0  0  0  0  0  0  0
   58.5750   29.0770   45.5800 C   0  0  0  0  0  0  0  0  0  0  0  0
   57.8349   31.9798   43.9198 H   0  0  0  0  0  0  0  0  0  0  0  0
   58.2626   30.9637   42.5016 H   0  0  0  0  0  0  0  0  0  0  0  0
   56.7349   31.9085   42.5016 H   0  0  0  0  0  0  0  0  0  0  0  0
   56.6864   30.2773   44.8460 H   0  0  0  0  0  0  0  0  0  0  0  0
   55.6826   30.1215   43.3390 H   0  0  0  0  0  0  0  0  0  0  0  0
   56.6550   28.2080   43.0020 H   0  0  0  0  0  0  0  0  0  0  0  0
   58.1000   29.0260   42.7340 H   0  0  0  0  0  0  0  0  0  0  0  0
   57.3673   26.2287   44.0679 H   0  0  0  0  0  0  0  0  0  0  0  0
   58.3360   25.1875   46.1406 H   0  0  0  0  0  0  0  0  0  0  0  0
   59.6570   25.7450   48.4190 H   0  0  0  0  0  0  0  0  0  0  0  0
   59.0750   31.7300   47.1630 H   0  0  0  0  0  0  0  0  0  0  0  0
   61.9738   32.1081   47.5265 H   0  0  0  0  0  0  0  0  0  0  0  0
   61.5660   31.5798   45.8441 H   0  0  0  0  0  0  0  0  0  0  0  0
   61.2580   34.2117   47.1129 H   0  0  0  0  0  0  0  0  0  0  0  0
   61.1929   33.7376   45.3701 H   0  0  0  0  0  0  0  0  0  0  0  0
   58.9798   35.6191   47.1604 H   0  0  0  0  0  0  0  0  0  0  0  0
   57.8497   34.2873   47.7124 H   0  0  0  0  0  0  0  0  0  0  0  0
   59.0141   34.5462   49.6498 H   0  0  0  0  0  0  0  0  0  0  0  0
   60.1177   33.3938   48.8249 H   0  0  0  0  0  0  0  0  0  0  0  0
   60.4908   35.1509   48.8249 H   0  0  0  0  0  0  0  0  0  0  0  0
   59.2417   35.1005   44.8075 H   0  0  0  0  0  0  0  0  0  0  0  0
   59.1816   33.3540   44.3145 H   0  0  0  0  0  0  0  0  0  0  0  0
   56.9159   34.1699   46.0206 H   0  0  0  0  0  0  0  0  0  0  0  0
   56.9978   35.0657   44.4657 H   0  0  0  0  0  0  0  0  0  0  0  0
   56.9356   33.2705   44.4657 H   0  0  0  0  0  0  0  0  0  0  0  0
   61.2301   32.5302   49.1145 H   0  0  0  0  0  0  0  0  0  0  0  0
   62.5242   32.7934   51.2198 H   0  0  0  0  0  0  0  0  0  0  0  0
   63.0052   30.8183   52.6502 H   0  0  0  0  0  0  0  0  0  0  0  0
   62.1745   28.5676   52.0115 H   0  0  0  0  0  0  0  0  0  0  0  0
   60.8088   27.1521   51.7672 H   0  0  0  0  0  0  0  0  0  0  0  0
   60.0478   26.1057   50.5212 H   0  0  0  0  0  0  0  0  0  0  0  0
   61.8269   26.3536   50.5212 H   0  0  0  0  0  0  0  0  0  0  0  0
   58.6377   30.1670   45.4458 H   0  0  0  0  0  0  0  0  0  0  0  0
  1  2  1  0
  2  3  1  0
  3  4  1  0
  4  5  2  0
  5  6  1  0
  6  7  2  0
  7  8  1  0
  8  9  1  0
  9 10  2  0
 10 11  1  0
 11 12  1  0
 12 13  1  0
 13 14  1  0
 14 15  1  0
 15 16  1  0
 16 17  1  0
 15 18  1  0
 18 19  1  0
 11 20  2  0
 20 21  1  0
 21 22  2  0
 22 23  1  0
 23 24  2  0
 24 25  1  0
 25 26  2  0
 26 27  1  0
 10 28  1  0
 28 29  2  0
 29  4  1  0
 28  7  1  0
 26  9  1  0
 25 20  1  0
  1 30  1  0
  1 31  1  0
  1 32  1  0
  2 33  1  0
  2 34  1  0
  3 35  1  0
  3 36  1  0
  5 37  1  0
  6 38  1  0
  8 39  1  0
 12 40  1  0
 13 41  1  0
 13 42  1  0
 14 43  1  0
 14 44  1  0
 16 45  1  0
 16 46  1  0
 17 47  1  0
 17 48  1  0
 17 49  1  0
 18 50  1  0
 18 51  1  0
 19 52  1  0
 19 53  1  0
 19 54  1  0
 21 55  1  0
 22 56  1  0
 23 57  1  0
 24 58  1  0
 27 59  1  0
 27 60  1  0
 27 61  1  0
 29 62  1  0
M  CHG  2   3   1  26   1
M  END
>  <UniqueID>  (3) 
3

>  <SMILES>  (3) 
CC[NH2+]c1ccc2[nH]c3c(c(NCCN(CC)CC)c4ccccc4[n+]3C)c2c1

>  <Energy>  (3) 
118.64452161842797

>  <Genealogy>  (3) 
CC[NH2+]c1ccc2[nH]c3c(c(NCCN(CC)CC)c4ccccc4[n+]3C)c2c1 (protonated)
CC[NH2+]c1ccc2[nH]c3c(c(NCCN(CC)CC)c4ccccc4[n+]3C)c2c1 (3D coordinates assigned)
CC[NH2+]c1ccc2[nH]c3c(c(NCCN(CC)CC)c4ccccc4[n+]3C)c2c1 (optimized conformer: 118.64452161842797 kcal/mol)

>  <smiles>  (3) 
CCNc1ccc2[nH]c3c(c(NCCN(CC)CC)c4ccccc4[n+]3C)c2c1

>  <score_type>  (3) 
oracle

>  <origin>  (3) 
adg

>  <m_score__min__energy>  (3) 
-4.5499999999999998

>  <m_primary>  (3) 
energy

$$$$
3:0
     RDKit          3D

 46 47  0  0  0  0  0  0  0  0999 V2000
   59.6310   34.8830   45.9870 C   0  0  0  0  0  0  0  0  0  0  0  0
   58.2420   34.2570   46.0950 C   0  0  0  0  0  0  0  0  0  0  0  0
   57.9110   33.3910   44.8760 C   0  0  0  0  0  0  0  0  0  0  0  0
   56.7800   32.5010   45.1740 N   0  0  0  0  0  0  0  0  0  0  0  0
   56.7040   31.3930   44.2130 C   0  0  0  0  0  0  0  0  0  0  0  0
   57.3990   30.1760   44.7650 C   0  0  0  0  0  0  0  0  0  0  0  0
   57.9800   30.2230   46.0390 C   0  0  0  0  0  0  0  0  0  0  0  0
   58.6690   29.1190   46.5410 C   0  0  0  0  0  0  0  0  0  0  0  0
   58.8000   27.9490   45.7680 C   0  0  0  0  0  0  0  0  0  0  0  0
   59.5090   26.8250   46.2210 O   0  0  0  0  0  0  0  0  0  0  0  0
   58.9310   25.5810   46.6180 C   0  0  0  0  0  0  0  0  0  0  0  0
   57.4920   25.7680   47.1110 C   0  0  0  0  0  0  0  0  0  0  0  0
   56.5560   25.0130   46.2770 N   0  0  0  0  0  0  0  0  0  0  0  0
   55.3680   25.4340   45.8020 C   0  0  0  0  0  0  0  0  0  0  0  0
   54.8580   26.7140   45.9950 O   0  0  0  0  0  0  0  0  0  0  0  0
   54.7280   24.4300   45.1040 C   0  0  0  0  0  0  0  0  0  0  0  0
   55.5690   23.3310   45.1590 C   0  0  0  0  0  0  0  0  0  0  0  0
   56.6740   23.7280   45.8900 C   0  0  0  0  0  0  0  0  0  0  0  0
   57.7660   22.9220   46.1960 O   0  0  0  0  0  0  0  0  0  0  0  0
   58.2130   27.8910   44.4940 C   0  0  0  0  0  0  0  0  0  0  0  0
   58.3610   26.7120   43.7470 O   0  0  0  0  0  0  0  0  0  0  0  0
   58.1220   26.6080   42.3480 C   0  0  0  0  0  0  0  0  0  0  0  0
   57.5140   29.0090   43.9970 C   0  0  0  0  0  0  0  0  0  0  0  0
   60.0313   35.0634   46.9956 H   0  0  0  0  0  0  0  0  0  0  0  0
   60.3001   34.1994   45.4438 H   0  0  0  0  0  0  0  0  0  0  0  0
   59.5620   35.8370   45.4438 H   0  0  0  0  0  0  0  0  0  0  0  0
   58.2035   33.6300   46.9980 H   0  0  0  0  0  0  0  0  0  0  0  0
   57.5037   35.0708   46.1463 H   0  0  0  0  0  0  0  0  0  0  0  0
   57.6472   34.0419   44.0294 H   0  0  0  0  0  0  0  0  0  0  0  0
   58.7897   32.7799   44.6222 H   0  0  0  0  0  0  0  0  0  0  0  0
   55.9000   33.0620   45.0840 H   0  0  0  0  0  0  0  0  0  0  0  0
   55.6484   31.1519   44.0194 H   0  0  0  0  0  0  0  0  0  0  0  0
   57.1983   31.6949   43.2778 H   0  0  0  0  0  0  0  0  0  0  0  0
   57.8923   31.1356   46.6468 H   0  0  0  0  0  0  0  0  0  0  0  0
   59.1127   29.1624   47.5466 H   0  0  0  0  0  0  0  0  0  0  0  0
   58.9288   24.8960   45.7573 H   0  0  0  0  0  0  0  0  0  0  0  0
   59.5297   25.1674   47.4429 H   0  0  0  0  0  0  0  0  0  0  0  0
   57.4173   25.4130   48.1494 H   0  0  0  0  0  0  0  0  0  0  0  0
   57.2347   26.8359   47.0527 H   0  0  0  0  0  0  0  0  0  0  0  0
   53.7493   24.4904   44.6055 H   0  0  0  0  0  0  0  0  0  0  0  0
   55.3935   22.3416   44.7114 H   0  0  0  0  0  0  0  0  0  0  0  0
   57.9710   22.0940   45.6490 H   0  0  0  0  0  0  0  0  0  0  0  0
   57.1256   26.1744   42.1775 H   0  0  0  0  0  0  0  0  0  0  0  0
   58.1695   27.6082   41.8926 H   0  0  0  0  0  0  0  0  0  0  0  0
   58.8862   25.9611   41.8926 H   0  0  0  0  0  0  0  0  0  0  0  0
   57.0549   28.9656   42.9983 H   0  0  0  0  0  0  0  0  0  0  0  0
  1  2  1  0
  2  3  1  0
  3  4  1  0
  4  5  1  0
  5  6  1  0
  6  7  2  0
  7  8  1  0
  8  9  2  0
  9 10  1  0
 10 11  1  0
 11 12  1  0
 12 13  1  0
 13 14  1  0
 14 15  1  0
 14 16  2  0
 16 17  1  0
 17 18  2  0
 18 19  1  0
  9 20  1  0
 20 21  1  0
 21 22  1  0
 20 23  2  0
 23  6  1  0
 18 13  1  0
  1 24  1  0
  1 25  1  0
  1 26  1  0
  2 27  1  0
  2 28  1  0
  3 29  1  0
  3 30  1  0
  4 31  1  0
  5 32  1  0
  5 33  1  0
  7 34  1  0
  8 35  1  0
 11 36  1  0
 11 37  1  0
 12 38  1  0
 12 39  1  0
 16 40  1  0
 17 41  1  0
 19 42  1  0
 22 43  1  0
 22 44  1  0
 22 45  1  0
 23 46  1  0
M  CHG  1  15  -1
M  END
>  <UniqueID>  (4) 
4

>  <SMILES>  (4) 
CCCNCc1ccc(OCCn2c([O-])ccc2O)c(OC)c1

>  <Energy>  (4) 
62.45966863048802

>  <Genealogy>  (4) 
CCCNCc1ccc(OCCn2c([O-])ccc2O)c(OC)c1 (protonated)
CCCNCc1ccc(OCCn2c([O-])ccc2O)c(OC)c1 (3D coordinates assigned)
CCCNCc1ccc(OCCn2c([O-])ccc2O)c(OC)c1 (optimized conformer: 62.45966863048802 kcal/mol)

>  <smiles>  (4) 
CCCNCc1ccc(OCCn2c(O)ccc2O)c(OC)c1

>  <score_type>  (4) 
oracle

>  <origin>  (4) 
adg

>  <m_score__min__energy>  (4) 
-9.4499999999999993

>  <m_primary>  (4) 
energy

$$$$
4:0
     RDKit          3D

 38 40  0  0  0  0  0  0  0  0999 V2000
   57.9360   32.2920   42.7920 C   0  0  0  0  0  0  0  0  0  0  0  0
   57.0160   31.1090   42.5070 C   0  0  0  0  0  0  0  0  0  0  0  0
   56.5630   30.5020   43.7620 N   0  0  0  0  0  0  0  0  0  0  0  0
   55.3060   29.7530   43.7890 C   0  0  0  0  0  0  0  0  0  0  0  0
   57.4780   30.3970   44.8650 C   0  0  0  0  0  0  0  0  0  0  0  0
   57.7240   31.4970   45.6260 N   0  0  0  0  0  0  0  0  0  0  0  0
   58.5750   31.4540   46.6820 C   0  0  0  0  0  0  0  0  0  0  0  0
   58.8370   32.9190   47.6720 S   0  0  0  0  0  0  0  0  0  0  0  0
   60.6130   32.8400   47.4420 C   0  0  0  0  0  0  0  0  0  0  0  0
   61.2880   33.9100   46.8440 C   0  0  0  0  0  0  0  0  0  0  0  0
   62.6730   33.8430   46.6870 C   0  0  0  0  0  0  0  0  0  0  0  0
   63.3670   32.7130   47.1250 C   0  0  0  0  0  0  0  0  0  0  0  0
   62.6590   31.6630   47.7150 C   0  0  0  0  0  0  0  0  0  0  0  0
   61.3080   31.7440   47.8610 N   0  0  0  0  0  0  0  0  0  0  0  0
   59.2060   30.2970   47.0050 N   0  0  0  0  0  0  0  0  0  0  0  0
   58.9940   29.1630   46.2880 C   0  0  0  0  0  0  0  0  0  0  0  0
   59.6430   27.9770   46.6510 C   0  0  0  0  0  0  0  0  0  0  0  0
   59.4030   26.8010   45.9350 C   0  0  0  0  0  0  0  0  0  0  0  0
   58.5100   26.8030   44.8610 C   0  0  0  0  0  0  0  0  0  0  0  0
   57.8560   27.9830   44.4890 C   0  0  0  0  0  0  0  0  0  0  0  0
   58.1050   29.1780   45.1910 C   0  0  0  0  0  0  0  0  0  0  0  0
   58.0382   32.4234   43.8793 H   0  0  0  0  0  0  0  0  0  0  0  0
   58.9256   32.1015   42.3511 H   0  0  0  0  0  0  0  0  0  0  0  0
   57.5076   33.2042   42.3511 H   0  0  0  0  0  0  0  0  0  0  0  0
   56.1424   31.4580   41.9368 H   0  0  0  0  0  0  0  0  0  0  0  0
   57.5700   30.3572   41.9258 H   0  0  0  0  0  0  0  0  0  0  0  0
   55.0075   29.5751   44.8327 H   0  0  0  0  0  0  0  0  0  0  0  0
   54.5231   30.3320   43.2773 H   0  0  0  0  0  0  0  0  0  0  0  0
   55.4426   28.7889   43.2773 H   0  0  0  0  0  0  0  0  0  0  0  0
   60.7323   34.7952   46.5011 H   0  0  0  0  0  0  0  0  0  0  0  0
   63.2164   34.6775   46.2198 H   0  0  0  0  0  0  0  0  0  0  0  0
   64.4588   32.6504   47.0068 H   0  0  0  0  0  0  0  0  0  0  0  0
   63.1951   30.7677   48.0628 H   0  0  0  0  0  0  0  0  0  0  0  0
   60.8000   30.9510   48.3100 H   0  0  0  0  0  0  0  0  0  0  0  0
   60.3422   27.9706   47.5002 H   0  0  0  0  0  0  0  0  0  0  0  0
   59.9187   25.8715   46.2180 H   0  0  0  0  0  0  0  0  0  0  0  0
   58.3199   25.8730   44.3051 H   0  0  0  0  0  0  0  0  0  0  0  0
   57.1471   27.9770   43.6479 H   0  0  0  0  0  0  0  0  0  0  0  0
  1  2  1  0
  2  3  1  0
  3  4  1  0
  3  5  1  0
  5  6  2  0
  6  7  1  0
  7  8  1  0
  8  9  1  0
  9 10  2  0
 10 11  1  0
 11 12  2  0
 12 13  1  0
 13 14  2  0
  7 15  2  0
 15 16  1  0
 16 17  2  0
 17 18  1  0
 18 19  2  0
 19 20  1  0
 20 21  2  0
 21  5  1  0
 14  9  1  0
 21 16  1  0
  1 22  1  0
  1 23  1  0
  1 24  1  0
  2 25  1  0
  2 26  1  0
  4 27  1  0
  4 28  1  0
  4 29  1  0
 10 30  1  0
 11 31  1  0
 12 32  1  0
 13 33  1  0
 14 34  1  0
 17 35  1  0
 18 36  1  0
 19 37  1  0
 20 38  1  0
M  CHG  1  14   1
M  END
>  <UniqueID>  (5) 
5

>  <SMILES>  (5) 
CCN(C)c1nc(Sc2cccc[nH+]2)nc2ccccc12

>  <Energy>  (5) 
40.02878075080666

>  <Genealogy>  (5) 
CCN(C)c1nc(Sc2cccc[nH+]2)nc2ccccc12 (protonated)
CCN(C)c1nc(Sc2cccc[nH+]2)nc2ccccc12 (3D coordinates assigned)
CCN(C)c1nc(Sc2cccc[nH+]2)nc2ccccc12 (optimized conformer: 40.02878075080666 kcal/mol)

>  <smiles>  (5) 
CCN(C)c1nc(Sc2ccccn2)nc2ccccc12

>  <score_type>  (5) 
oracle

>  <origin>  (5) 
adg

>  <m_score__min__energy>  (5) 
-5.3700000000000001

>  <m_primary>  (5) 
energy

$$$$
5:0
     RDKit          3D

 54 56  0  0  0  0  0  0  0  0999 V2000
   59.7360   29.5830   45.9830 C   0  0  0  0  0  0  0  0  0  0  0  0
   58.2900   29.3720   46.4230 C   0  0  0  0  0  0  0  0  0  0  0  0
   57.4030   30.2730   45.6750 N   0  0  0  0  0  0  0  0  0  0  0  0
   57.4480   29.9980   44.2280 C   0  0  0  0  0  0  0  0  0  0  0  0
   57.0140   31.2260   43.4160 C   0  0  0  0  0  0  0  0  0  0  0  0
   58.0720   32.3490   43.4660 C   0  0  0  0  0  0  0  0  0  0  0  0
   58.4510   32.7050   44.8440 N   0  0  0  0  0  0  0  0  0  0  0  0
   57.4690   33.5940   45.4820 C   0  0  0  0  0  0  0  0  0  0  0  0
   57.5630   33.4930   47.0080 C   0  0  0  0  0  0  0  0  0  0  0  0
   58.5750   32.5190   47.4340 N   0  0  0  0  0  0  0  0  0  0  0  0
   59.5690   32.8070   48.4350 C   0  0  0  0  0  0  0  0  0  0  0  0
   60.8580   33.2290   48.0640 C   0  0  0  0  0  0  0  0  0  0  0  0
   61.1690   33.5100   46.7170 C   0  0  0  0  0  0  0  0  0  0  0  0
   62.4700   33.8270   46.3380 C   0  0  0  0  0  0  0  0  0  0  0  0
   63.4780   33.8780   47.2930 C   0  0  0  0  0  0  0  0  0  0  0  0
   63.1820   33.6670   48.6380 C   0  0  0  0  0  0  0  0  0  0  0  0
   61.8560   33.3940   49.0620 C   0  0  0  0  0  0  0  0  0  0  0  0
   61.5290   33.2710   50.4000 N   0  0  0  0  0  0  0  0  0  0  0  0
   62.4870   33.7150   51.4380 C   0  0  0  0  0  0  0  0  0  0  0  0
   60.2940   32.7740   50.7690 C   0  0  0  0  0  0  0  0  0  0  0  0
   60.0090   32.4030   52.1090 C   0  0  0  0  0  0  0  0  0  0  0  0
   58.7490   31.9270   52.4740 C   0  0  0  0  0  0  0  0  0  0  0  0
   57.7430   31.8050   51.5230 C   0  0  0  0  0  0  0  0  0  0  0  0
   56.1610   31.2080   51.9900 Cl  0  0  0  0  0  0  0  0  0  0  0  0
   58.0020   32.1310   50.1920 C   0  0  0  0  0  0  0  0  0  0  0  0
   59.2780   32.5850   49.7940 C   0  0  0  0  0  0  0  0  0  0  0  0
   60.3793   29.6769   46.8703 H   0  0  0  0  0  0  0  0  0  0  0  0
   60.0652   28.7234   45.3808 H   0  0  0  0  0  0  0  0  0  0  0  0
   59.8058   30.5008   45.3808 H   0  0  0  0  0  0  0  0  0  0  0  0
   57.9983   28.3293   46.2291 H   0  0  0  0  0  0  0  0  0  0  0  0
   58.2033   29.5888   47.4979 H   0  0  0  0  0  0  0  0  0  0  0  0
   56.4240   30.0930   46.0020 H   0  0  0  0  0  0  0  0  0  0  0  0
   58.4760   29.7265   43.9462 H   0  0  0  0  0  0  0  0  0  0  0  0
   56.7549   29.1725   44.0086 H   0  0  0  0  0  0  0  0  0  0  0  0
   56.8631   30.9253   42.3687 H   0  0  0  0  0  0  0  0  0  0  0  0
   56.0825   31.6139   43.8539 H   0  0  0  0  0  0  0  0  0  0  0  0
   58.9706   32.0114   42.9289 H   0  0  0  0  0  0  0  0  0  0  0  0
   57.6335   33.2428   42.9981 H   0  0  0  0  0  0  0  0  0  0  0  0
   58.5420   31.8240   45.4000 H   0  0  0  0  0  0  0  0  0  0  0  0
   57.6675   34.6316   45.1753 H   0  0  0  0  0  0  0  0  0  0  0  0
   56.4592   33.2914   45.1677 H   0  0  0  0  0  0  0  0  0  0  0  0
   57.8280   34.4806   47.4135 H   0  0  0  0  0  0  0  0  0  0  0  0
   56.5868   33.1558   47.3866 H   0  0  0  0  0  0  0  0  0  0  0  0
   58.6340   31.6090   46.9240 H   0  0  0  0  0  0  0  0  0  0  0  0
   60.3740   33.4782   45.9575 H   0  0  0  0  0  0  0  0  0  0  0  0
   62.7002   34.0371   45.2831 H   0  0  0  0  0  0  0  0  0  0  0  0
   64.5136   34.0858   46.9860 H   0  0  0  0  0  0  0  0  0  0  0  0
   63.9897   33.7128   49.3833 H   0  0  0  0  0  0  0  0  0  0  0  0
   62.0646   33.5192   52.4346 H   0  0  0  0  0  0  0  0  0  0  0  0
   63.4317   33.1629   51.3253 H   0  0  0  0  0  0  0  0  0  0  0  0
   62.6764   34.7927   51.3253 H   0  0  0  0  0  0  0  0  0  0  0  0
   60.7951   32.4922   52.8732 H   0  0  0  0  0  0  0  0  0  0  0  0
   58.5512   31.6471   53.5192 H   0  0  0  0  0  0  0  0  0  0  0  0
   57.2022   32.0332   49.4432 H   0  0  0  0  0  0  0  0  0  0  0  0
  1  2  1  0
  2  3  1  0
  3  4  1  0
  4  5  1  0
  5  6  1  0
  6  7  1  0
  7  8  1  0
  8  9  1  0
  9 10  1  0
 10 11  1  0
 11 12  2  0
 12 13  1  0
 13 14  2  0
 14 15  1  0
 15 16  2  0
 16 17  1  0
 17 18  2  0
 18 19  1  0
 18 20  1  0
 20 21  2  0
 21 22  1  0
 22 23  2  0
 23 24  1  0
 23 25  1  0
 25 26  2  0
 26 11  1  0
 17 12  1  0
 26 20  1  0
  1 27  1  0
  1 28  1  0
  1 29  1  0
  2 30  1  0
  2 31  1  0
  3 32  1  0
  4 33  1  0
  4 34  1  0
  5 35  1  0
  5 36  1  0
  6 37  1  0
  6 38  1  0
  7 39  1  0
  8 40  1  0
  8 41  1  0
  9 42  1  0
  9 43  1  0
 10 44  1  0
 13 45  1  0
 14 46  1  0
 15 47  1  0
 16 48  1  0
 19 49  1  0
 19 50  1  0
 19 51  1  0
 21 52  1  0
 22 53  1  0
 25 54  1  0
M  CHG  1  18   1
M  END
>  <UniqueID>  (6) 
6

>  <SMILES>  (6) 
CCNCCCNCCNc1c2ccccc2[n+](C)c2ccc(Cl)cc12

>  <Energy>  (6) 
73.31381803390765

>  <Genealogy>  (6) 
CCNCCCNCCNc1c2ccccc2[n+](C)c2ccc(Cl)cc12 (3D coordinates assigned)
CCNCCCNCCNc1c2ccccc2[n+](C)c2ccc(Cl)cc12 (optimized conformer: 73.31381803390765 kcal/mol)

>  <smiles>  (6) 
CCNCCCNCCNc1c2ccccc2[n+](C)c2ccc(Cl)cc12

>  <score_type>  (6) 
oracle

>  <origin>  (6) 
adg

>  <m_score__min__energy>  (6) 
-6.4400000000000004

>  <m_primary>  (6) 
energy

$$$$
6:0
     RDKit          3D

 55 57  0  0  0  0  0  0  0  0999 V2000
   58.4340   32.3410   49.4020 C   0  0  0  0  0  0  0  0  0  0  0  0
   59.3740   31.8490   50.5000 C   0  0  0  0  0  0  0  0  0  0  0  0
   60.7520   32.3040   50.2560 N   0  0  0  0  0  0  0  0  0  0  0  0
   60.8690   33.7540   50.4930 C   0  0  0  0  0  0  0  0  0  0  0  0
   62.3150   34.2480   50.3070 C   0  0  0  0  0  0  0  0  0  0  0  0
   63.3570   33.1290   50.5140 C   0  0  0  0  0  0  0  0  0  0  0  0
   63.1830   32.0180   49.5650 N   0  0  0  0  0  0  0  0  0  0  0  0
   63.8180   32.2820   48.2680 C   0  0  0  0  0  0  0  0  0  0  0  0
   62.9990   31.6350   47.1530 C   0  0  0  0  0  0  0  0  0  0  0  0
   61.6890   31.2230   47.6540 N   0  0  0  0  0  0  0  0  0  0  0  0
   60.5140   31.2500   46.8220 C   0  0  0  0  0  0  0  0  0  0  0  0
   59.9820   32.4770   46.3750 C   0  0  0  0  0  0  0  0  0  0  0  0
   60.5460   33.7040   46.7890 C   0  0  0  0  0  0  0  0  0  0  0  0
   60.0150   34.9160   46.3580 C   0  0  0  0  0  0  0  0  0  0  0  0
   58.8950   34.9320   45.5380 C   0  0  0  0  0  0  0  0  0  0  0  0
   58.3040   33.7350   45.1340 C   0  0  0  0  0  0  0  0  0  0  0  0
   58.8440   32.4800   45.5230 C   0  0  0  0  0  0  0  0  0  0  0  0
   58.2730   31.2840   45.1190 N   0  0  0  0  0  0  0  0  0  0  0  0
   57.2480   31.2740   44.0500 C   0  0  0  0  0  0  0  0  0  0  0  0
   58.6720   30.0960   45.7020 C   0  0  0  0  0  0  0  0  0  0  0  0
   57.9390   28.8930   45.5230 C   0  0  0  0  0  0  0  0  0  0  0  0
   58.4010   27.6830   46.0440 C   0  0  0  0  0  0  0  0  0  0  0  0
   57.4800   26.2110   45.7890 Cl  0  0  0  0  0  0  0  0  0  0  0  0
   59.5880   27.6410   46.7670 C   0  0  0  0  0  0  0  0  0  0  0  0
   60.2970   28.8140   47.0120 C   0  0  0  0  0  0  0  0  0  0  0  0
   59.8330   30.0560   46.5200 C   0  0  0  0  0  0  0  0  0  0  0  0
   57.5475   32.8050   49.8590 H   0  0  0  0  0  0  0  0  0  0  0  0
   58.9551   33.0820   48.7780 H   0  0  0  0  0  0  0  0  0  0  0  0
   58.1222   31.4905   48.7780 H   0  0  0  0  0  0  0  0  0  0  0  0
   59.0318   32.2410   51.4691 H   0  0  0  0  0  0  0  0  0  0  0  0
   59.3632   30.7491   50.5044 H   0  0  0  0  0  0  0  0  0  0  0  0
   61.0060   32.0840   49.2650 H   0  0  0  0  0  0  0  0  0  0  0  0
   61.4010   31.7940   50.9020 H   0  0  0  0  0  0  0  0  0  0  0  0
   60.2172   34.2847   49.7833 H   0  0  0  0  0  0  0  0  0  0  0  0
   60.5692   33.9563   51.5318 H   0  0  0  0  0  0  0  0  0  0  0  0
   62.4229   34.6452   49.2869 H   0  0  0  0  0  0  0  0  0  0  0  0
   62.5024   35.0216   51.0662 H   0  0  0  0  0  0  0  0  0  0  0  0
   64.3628   33.5537   50.3801 H   0  0  0  0  0  0  0  0  0  0  0  0
   63.2209   32.7275   51.5290 H   0  0  0  0  0  0  0  0  0  0  0  0
   63.5900   31.1440   49.9760 H   0  0  0  0  0  0  0  0  0  0  0  0
   63.8700   33.3679   48.1006 H   0  0  0  0  0  0  0  0  0  0  0  0
   64.8335   31.8591   48.2666 H   0  0  0  0  0  0  0  0  0  0  0  0
   62.8630   32.3595   46.3365 H   0  0  0  0  0  0  0  0  0  0  0  0
   63.5353   30.7473   46.7864 H   0  0  0  0  0  0  0  0  0  0  0  0
   61.6370   30.7530   48.5860 H   0  0  0  0  0  0  0  0  0  0  0  0
   61.4167   33.7015   47.4612 H   0  0  0  0  0  0  0  0  0  0  0  0
   60.4832   35.8621   46.6674 H   0  0  0  0  0  0  0  0  0  0  0  0
   58.4723   35.8917   45.2058 H   0  0  0  0  0  0  0  0  0  0  0  0
   57.4036   33.7633   44.5028 H   0  0  0  0  0  0  0  0  0  0  0  0
   56.2457   31.2642   44.5031 H   0  0  0  0  0  0  0  0  0  0  0  0
   57.3597   32.1733   43.4264 H   0  0  0  0  0  0  0  0  0  0  0  0
   57.3773   30.3771   43.4264 H   0  0  0  0  0  0  0  0  0  0  0  0
   56.9915   28.9149   44.9646 H   0  0  0  0  0  0  0  0  0  0  0  0
   59.9672   26.6804   47.1457 H   0  0  0  0  0  0  0  0  0  0  0  0
   61.2289   28.7742   47.5951 H   0  0  0  0  0  0  0  0  0  0  0  0
  1  2  1  0
  2  3  1  0
  3  4  1  0
  4  5  1  0
  5  6  1  0
  6  7  1  0
  7  8  1  0
  8  9  1  0
  9 10  1  0
 10 11  1  0
 11 12  2  0
 12 13  1  0
 13 14  2  0
 14 15  1  0
 15 16  2  0
 16 17  1  0
 17 18  2  0
 18 19  1  0
 18 20  1  0
 20 21  2  0
 21 22  1  0
 22 23  1  0
 22 24  2  0
 24 25  1  0
 25 26  2  0
 26 11  1  0
 17 12  1  0
 26 20  1  0
  1 27  1  0
  1 28  1  0
  1 29  1  0
  2 30  1  0
  2 31  1  0
  3 32  1  0
  3 33  1  0
  4 34  1  0
  4 35  1  0
  5 36  1  0
  5 37  1  0
  6 38  1  0
  6 39  1  0
  7 40  1  0
  8 41  1  0
  8 42  1  0
  9 43  1  0
  9 44  1  0
 10 45  1  0
 13 46  1  0
 14 47  1  0
 15 48  1  0
 16 49  1  0
 19 50  1  0
 19 51  1  0
 19 52  1  0
 21 53  1  0
 24 54  1  0
 25 55  1  0
M  CHG  2   3   1  18   1
M  END
>  <UniqueID>  (7) 
7

>  <SMILES>  (7) 
CC[NH2+]CCCNCCNc1c2ccccc2[n+](C)c2cc(Cl)ccc12

>  <Energy>  (7) 
74.52815864167661

>  <Genealogy>  (7) 
CC[NH2+]CCCNCCNc1c2ccccc2[n+](C)c2cc(Cl)ccc12 (protonated)
CC[NH2+]CCCNCCNc1c2ccccc2[n+](C)c2cc(Cl)ccc12 (3D coordinates assigned)
CC[NH2+]CCCNCCNc1c2ccccc2[n+](C)c2cc(Cl)ccc12 (optimized conformer: 74.52815864167661 kcal/mol)

>  <smiles>  (7) 
CCNCCCNCCNc1c2ccccc2[n+](C)c2cc(Cl)ccc12

>  <score_type>  (7) 
oracle

>  <origin>  (7) 
adg

>  <m_score__min__energy>  (7) 
-4.4500000000000002

>  <m_primary>  (7) 
energy

$$$$
7:0
     RDKit          3D

 52 54  0  0  0  0  0  0  0  0999 V2000
   57.8080   23.5460   44.3410 C   0  0  0  0  0  0  0  0  0  0  0  0
   58.3870   23.7360   45.7390 C   0  0  0  0  0  0  0  0  0  0  0  0
   57.7720   24.8440   46.3970 O   0  0  0  0  0  0  0  0  0  0  0  0
   57.8230   26.1830   45.9720 C   0  0  0  0  0  0  0  0  0  0  0  0
   59.0370   26.8500   45.7240 C   0  0  0  0  0  0  0  0  0  0  0  0
   59.0410   28.1810   45.3010 C   0  0  0  0  0  0  0  0  0  0  0  0
   57.8340   28.8730   45.1120 C   0  0  0  0  0  0  0  0  0  0  0  0
   57.8130   30.2850   44.6640 C   0  0  0  0  0  0  0  0  0  0  0  0
   58.1670   30.7330   43.4430 N   0  0  0  0  0  0  0  0  0  0  0  0
   58.0140   32.0460   43.4370 N   0  0  0  0  0  0  0  0  0  0  0  0
   57.5690   32.3570   44.6680 C   0  0  0  0  0  0  0  0  0  0  0  0
   57.1980   34.0230   45.2090 S   0  0  0  0  0  0  0  0  0  0  0  0
   58.1390   33.8930   46.7700 C   0  0  0  0  0  0  0  0  0  0  0  0
   59.3030   34.8850   46.7920 C   0  0  0  0  0  0  0  0  0  0  0  0
   60.5090   34.3000   47.5450 C   0  0  0  0  0  0  0  0  0  0  0  0
   61.3240   33.3730   46.7320 N   0  0  0  0  0  0  0  0  0  0  0  0
   62.6990   33.8180   46.4240 C   0  0  0  0  0  0  0  0  0  0  0  0
   63.7560   33.1070   47.2820 C   0  0  0  0  0  0  0  0  0  0  0  0
   63.5760   31.7090   47.2480 O   0  0  0  0  0  0  0  0  0  0  0  0
   62.3470   31.3880   47.8610 C   0  0  0  0  0  0  0  0  0  0  0  0
   61.1730   31.9370   47.0400 C   0  0  0  0  0  0  0  0  0  0  0  0
   57.4410   31.2910   45.4230 O   0  0  0  0  0  0  0  0  0  0  0  0
   56.6230   28.2050   45.3540 C   0  0  0  0  0  0  0  0  0  0  0  0
   56.6110   26.8630   45.7820 C   0  0  0  0  0  0  0  0  0  0  0  0
   55.4150   26.1710   46.0310 O   0  0  0  0  0  0  0  0  0  0  0  0
   55.1210   24.8640   45.5500 C   0  0  0  0  0  0  0  0  0  0  0  0
   56.7655   23.2039   44.4193 H   0  0  0  0  0  0  0  0  0  0  0  0
   57.8404   24.5019   43.7977 H   0  0  0  0  0  0  0  0  0  0  0  0
   58.4005   22.7952   43.7977 H   0  0  0  0  0  0  0  0  0  0  0  0
   58.2120   22.8241   46.3287 H   0  0  0  0  0  0  0  0  0  0  0  0
   59.4654   23.9336   45.6498 H   0  0  0  0  0  0  0  0  0  0  0  0
   59.9901   26.3190   45.8644 H   0  0  0  0  0  0  0  0  0  0  0  0
   59.9974   28.6913   45.1144 H   0  0  0  0  0  0  0  0  0  0  0  0
   58.5060   30.1810   42.6250 H   0  0  0  0  0  0  0  0  0  0  0  0
   57.4672   34.1078   47.6141 H   0  0  0  0  0  0  0  0  0  0  0  0
   58.5452   32.8739   46.8508 H   0  0  0  0  0  0  0  0  0  0  0  0
   59.6006   35.1138   45.7580 H   0  0  0  0  0  0  0  0  0  0  0  0
   58.9757   35.7990   47.3092 H   0  0  0  0  0  0  0  0  0  0  0  0
   61.1509   35.1313   47.8720 H   0  0  0  0  0  0  0  0  0  0  0  0
   60.1099   33.7204   48.3905 H   0  0  0  0  0  0  0  0  0  0  0  0
   62.9075   33.6100   45.3642 H   0  0  0  0  0  0  0  0  0  0  0  0
   62.7586   34.8938   46.6457 H   0  0  0  0  0  0  0  0  0  0  0  0
   64.7566   33.3506   46.8954 H   0  0  0  0  0  0  0  0  0  0  0  0
   63.6516   33.4490   48.3222 H   0  0  0  0  0  0  0  0  0  0  0  0
   62.2554   30.2944   47.9359 H   0  0  0  0  0  0  0  0  0  0  0  0
   62.3216   31.8420   48.8626 H   0  0  0  0  0  0  0  0  0  0  0  0
   61.1108   31.3777   46.0949 H   0  0  0  0  0  0  0  0  0  0  0  0
   60.2591   31.8172   47.6403 H   0  0  0  0  0  0  0  0  0  0  0  0
   55.6712   28.7365   45.2075 H   0  0  0  0  0  0  0  0  0  0  0  0
   54.9684   24.1854   46.4022 H   0  0  0  0  0  0  0  0  0  0  0  0
   54.2075   24.8954   44.9381 H   0  0  0  0  0  0  0  0  0  0  0  0
   55.9600   24.5012   44.9381 H   0  0  0  0  0  0  0  0  0  0  0  0
  1  2  1  0
  2  3  1  0
  3  4  1  0
  4  5  2  0
  5  6  1  0
  6  7  2  0
  7  8  1  0
  8  9  2  0
  9 10  1  0
 10 11  2  0
 11 12  1  0
 12 13  1  0
 13 14  1  0
 14 15  1  0
 15 16  1  0
 16 17  1  0
 17 18  1  0
 18 19  1  0
 19 20  1  0
 20 21  1  0
 11 22  1  0
  7 23  1  0
 23 24  2  0
 24 25  1  0
 25 26  1  0
 24  4  1  0
 22  8  1  0
 21 16  1  0
  1 27  1  0
  1 28  1  0
  1 29  1  0
  2 30  1  0
  2 31  1  0
  5 32  1  0
  6 33  1  0
  9 34  1  0
 13 35  1  0
 13 36  1  0
 14 37  1  0
 14 38  1  0
 15 39  1  0
 15 40  1  0
 17 41  1  0
 17 42  1  0
 18 43  1  0
 18 44  1  0
 20 45  1  0
 20 46  1  0
 21 47  1  0
 21 48  1  0
 23 49  1  0
 26 50  1  0
 26 51  1  0
 26 52  1  0
M  CHG  1   9   1
M  END
>  <UniqueID>  (8) 
8

>  <SMILES>  (8) 
CCOc1ccc(-c2[nH+]nc(SCCCN3CCOCC3)o2)cc1OC

>  <Energy>  (8) 
90.10708101756865

>  <Genealogy>  (8) 
CCOc1ccc(-c2[nH+]nc(SCCCN3CCOCC3)o2)cc1OC (protonated)
CCOc1ccc(-c2[nH+]nc(SCCCN3CCOCC3)o2)cc1OC (3D coordinates assigned)
CCOc1ccc(-c2[nH+]nc(SCCCN3CCOCC3)o2)cc1OC (nonaromatic ring conformer: 90.10708101756865 kcal/mol)

>  <smiles>  (8) 
CCOc1ccc(-c2nnc(SCCCN3CCOCC3)o2)cc1OC

>  <score_type>  (8) 
oracle

>  <origin>  (8) 
adg

>  <m_score__min__energy>  (8) 
-7.0700000000000003

>  <m_primary>  (8) 
energy

$$$$
8:0
     RDKit          3D

 71 75  0  0  0  0  0  0  0  0999 V2000
   59.3060   29.0270   51.8920 C   0  0  0  0  0  0  0  0  0  0  0  0
   59.2230   29.6390   50.5500 N   0  0  0  0  0  0  0  0  0  0  0  0
   58.8170   31.0440   50.6850 C   0  0  0  0  0  0  0  0  0  0  0  0
   60.5240   29.5600   49.8480 C   0  0  0  0  0  0  0  0  0  0  0  0
   60.3340   29.3230   48.3450 C   0  0  0  0  0  0  0  0  0  0  0  0
   58.9250   29.4640   47.9840 N   0  0  0  0  0  0  0  0  0  0  0  0
   58.5170   29.7050   46.6320 C   0  0  0  0  0  0  0  0  0  0  0  0
   58.3080   28.6390   45.7230 C   0  0  0  0  0  0  0  0  0  0  0  0
   58.5800   27.3070   46.0990 C   0  0  0  0  0  0  0  0  0  0  0  0
   58.4370   26.2650   45.1870 C   0  0  0  0  0  0  0  0  0  0  0  0
   58.0280   26.5290   43.8840 C   0  0  0  0  0  0  0  0  0  0  0  0
   57.7510   27.8360   43.4820 C   0  0  0  0  0  0  0  0  0  0  0  0
   57.8710   28.9200   44.3850 C   0  0  0  0  0  0  0  0  0  0  0  0
   57.6160   30.2260   43.9910 N   0  0  0  0  0  0  0  0  0  0  0  0
   57.0490   30.5340   42.6660 C   0  0  0  0  0  0  0  0  0  0  0  0
   57.9260   31.2390   44.8590 C   0  0  0  0  0  0  0  0  0  0  0  0
   57.9000   32.5670   44.5850 N   0  0  0  0  0  0  0  0  0  0  0  0
   58.3170   33.1680   45.7150 C   0  0  0  0  0  0  0  0  0  0  0  0
   58.5160   34.5330   45.9030 C   0  0  0  0  0  0  0  0  0  0  0  0
   59.0380   34.9640   47.1310 C   0  0  0  0  0  0  0  0  0  0  0  0
   59.3560   34.0290   48.1480 C   0  0  0  0  0  0  0  0  0  0  0  0
   59.9040   34.4420   49.3670 O   0  0  0  0  0  0  0  0  0  0  0  0
   60.9960   33.7730   49.9940 C   0  0  0  0  0  0  0  0  0  0  0  0
   62.3400   34.2330   49.3850 C   0  0  0  0  0  0  0  0  0  0  0  0
   63.2980   33.1420   48.9830 N   0  0  0  0  0  0  0  0  0  0  0  0
   64.2030   32.8350   50.1190 C   0  0  0  0  0  0  0  0  0  0  0  0
   62.5170   31.9050   48.6500 C   0  0  0  0  0  0  0  0  0  0  0  0
   62.0650   31.8520   47.1680 C   0  0  0  0  0  0  0  0  0  0  0  0
   61.9800   33.1430   46.6020 O   0  0  0  0  0  0  0  0  0  0  0  0
   63.2640   33.7420   46.5330 C   0  0  0  0  0  0  0  0  0  0  0  0
   64.1270   33.4950   47.7950 C   0  0  0  0  0  0  0  0  0  0  0  0
   59.1130   32.6560   47.9410 C   0  0  0  0  0  0  0  0  0  0  0  0
   58.6050   32.2510   46.7040 C   0  0  0  0  0  0  0  0  0  0  0  0
   58.3620   31.0030   46.1480 C   0  0  0  0  0  0  0  0  0  0  0  0
   59.2000   29.8087   52.6587 H   0  0  0  0  0  0  0  0  0  0  0  0
   58.4999   28.2876   52.0083 H   0  0  0  0  0  0  0  0  0  0  0  0
   60.2799   28.5290   52.0083 H   0  0  0  0  0  0  0  0  0  0  0  0
   58.7421   31.3032   51.7514 H   0  0  0  0  0  0  0  0  0  0  0  0
   59.5653   31.6899   50.2024 H   0  0  0  0  0  0  0  0  0  0  0  0
   57.8396   31.1912   50.2024 H   0  0  0  0  0  0  0  0  0  0  0  0
   61.0685   30.5043   49.9956 H   0  0  0  0  0  0  0  0  0  0  0  0
   61.0912   28.7140   50.2634 H   0  0  0  0  0  0  0  0  0  0  0  0
   60.9280   30.0592   47.7835 H   0  0  0  0  0  0  0  0  0  0  0  0
   60.6665   28.3039   48.0984 H   0  0  0  0  0  0  0  0  0  0  0  0
   58.1930   29.2930   48.7140 H   0  0  0  0  0  0  0  0  0  0  0  0
   58.9092   27.0889   47.1257 H   0  0  0  0  0  0  0  0  0  0  0  0
   58.6478   25.2310   45.4974 H   0  0  0  0  0  0  0  0  0  0  0  0
   57.9223   25.7023   43.1661 H   0  0  0  0  0  0  0  0  0  0  0  0
   57.4341   28.0275   42.4462 H   0  0  0  0  0  0  0  0  0  0  0  0
   56.0886   31.0557   42.7904 H   0  0  0  0  0  0  0  0  0  0  0  0
   57.7463   31.1773   42.1093 H   0  0  0  0  0  0  0  0  0  0  0  0
   56.8889   29.5989   42.1093 H   0  0  0  0  0  0  0  0  0  0  0  0
   57.6790   33.0480   43.6860 H   0  0  0  0  0  0  0  0  0  0  0  0
   58.2703   35.2541   45.1095 H   0  0  0  0  0  0  0  0  0  0  0  0
   59.2022   36.0374   47.3068 H   0  0  0  0  0  0  0  0  0  0  0  0
   60.9899   34.0016   51.0700 H   0  0  0  0  0  0  0  0  0  0  0  0
   60.8869   32.6902   49.8336 H   0  0  0  0  0  0  0  0  0  0  0  0
   62.1152   34.8290   48.4882 H   0  0  0  0  0  0  0  0  0  0  0  0
   62.8491   34.7909   50.1847 H   0  0  0  0  0  0  0  0  0  0  0  0
   63.6750   33.0141   51.0672 H   0  0  0  0  0  0  0  0  0  0  0  0
   64.5138   31.7812   50.0658 H   0  0  0  0  0  0  0  0  0  0  0  0
   65.0908   33.4822   50.0658 H   0  0  0  0  0  0  0  0  0  0  0  0
   63.1472   31.0271   48.8555 H   0  0  0  0  0  0  0  0  0  0  0  0
   61.6084   31.9138   49.2700 H   0  0  0  0  0  0  0  0  0  0  0  0
   62.7921   31.2583   46.5944 H   0  0  0  0  0  0  0  0  0  0  0  0
   61.0655   31.3942   47.1302 H   0  0  0  0  0  0  0  0  0  0  0  0
   63.7945   33.3301   45.6618 H   0  0  0  0  0  0  0  0  0  0  0  0
   63.1114   34.8283   46.4517 H   0  0  0  0  0  0  0  0  0  0  0  0
   64.8243   32.6690   47.5914 H   0  0  0  0  0  0  0  0  0  0  0  0
   64.6660   34.4263   48.0235 H   0  0  0  0  0  0  0  0  0  0  0  0
   59.3182   31.9215   48.7338 H   0  0  0  0  0  0  0  0  0  0  0  0
  1  2  1  0
  2  3  1  0
  2  4  1  0
  4  5  1  0
  5  6  1  0
  6  7  1  0
  7  8  2  0
  8  9  1  0
  9 10  2  0
 10 11  1  0
 11 12  2  0
 12 13  1  0
 13 14  2  0
 14 15  1  0
 14 16  1  0
 16 17  1  0
 17 18  1  0
 18 19  2  0
 19 20  1  0
 20 21  2  0
 21 22  1  0
 22 23  1  0
 23 24  1  0
 24 25  1  0
 25 26  1  0
 25 27  1  0
 27 28  1  0
 28 29  1  0
 29 30  1  0
 30 31  1  0
 21 32  1  0
 32 33  2  0
 33 34  1  0
 34  7  1  0
 13  8  1  0
 34 16  2  0
 33 18  1  0
 31 25  1  0
  1 35  1  0
  1 36  1  0
  1 37  1  0
  3 38  1  0
  3 39  1  0
  3 40  1  0
  4 41  1  0
  4 42  1  0
  5 43  1  0
  5 44  1  0
  6 45  1  0
  9 46  1  0
 10 47  1  0
 11 48  1  0
 12 49  1  0
 15 50  1  0
 15 51  1  0
 15 52  1  0
 17 53  1  0
 19 54  1  0
 20 55  1  0
 23 56  1  0
 23 57  1  0
 24 58  1  0
 24 59  1  0
 26 60  1  0
 26 61  1  0
 26 62  1  0
 27 63  1  0
 27 64  1  0
 28 65  1  0
 28 66  1  0
 30 67  1  0
 30 68  1  0
 31 69  1  0
 31 70  1  0
 32 71  1  0
M  CHG  2  14   1  25   1
M  END
>  <UniqueID>  (9) 
9

>  <SMILES>  (9) 
CN(C)CCNc1c2ccccc2[n+](C)c2[nH]c3ccc(OCC[N+]4(C)CCOCC4)cc3c12

>  <Energy>  (9) 
156.66267544617116

>  <Genealogy>  (9) 
CN(C)CCNc1c2ccccc2[n+](C)c2[nH]c3ccc(OCC[N+]4(C)CCOCC4)cc3c12 (3D coordinates assigned)
CN(C)CCNc1c2ccccc2[n+](C)c2[nH]c3ccc(OCC[N+]4(C)CCOCC4)cc3c12 (nonaromatic ring conformer: 156.66267544617116 kcal/mol)

>  <smiles>  (9) 
CN(C)CCNc1c2ccccc2[n+](C)c2[nH]c3ccc(OCC[N+]4(C)CCOCC4)cc3c12

>  <score_type>  (9) 
oracle

>  <origin>  (9) 
adg

>  <m_score__min__energy>  (9) 
-5.3300000000000001

>  <m_primary>  (9) 
energy

$$$$
9:0
     RDKit          3D

 48 49  0  0  0  0  0  0  0  0999 V2000
   64.4140   32.9140   49.0770 C   0  0  0  0  0  0  0  0  0  0  0  0
   63.6450   32.2890   47.9850 N   0  0  0  0  0  0  0  0  0  0  0  0
   63.7630   33.0770   46.7280 C   0  0  0  0  0  0  0  0  0  0  0  0
   62.5440   33.9800   46.4930 C   0  0  0  0  0  0  0  0  0  0  0  0
   61.2950   33.1880   46.3720 N   0  0  0  0  0  0  0  0  0  0  0  0
   60.0940   34.0160   46.6280 C   0  0  0  0  0  0  0  0  0  0  0  0
   59.2130   33.4290   47.7420 C   0  0  0  0  0  0  0  0  0  0  0  0
   57.7910   33.0770   47.2810 C   0  0  0  0  0  0  0  0  0  0  0  0
   57.5400   33.3960   45.4970 S   0  0  0  0  0  0  0  0  0  0  0  0
   57.7070   31.6920   44.9620 C   0  0  0  0  0  0  0  0  0  0  0  0
   58.6440   30.8510   45.4460 N   0  0  0  0  0  0  0  0  0  0  0  0
   58.5010   29.5840   44.9580 C   0  0  0  0  0  0  0  0  0  0  0  0
   59.3810   28.4280   45.4240 C   0  0  0  0  0  0  0  0  0  0  0  0
   58.7870   27.1040   44.9040 C   0  0  0  0  0  0  0  0  0  0  0  0
   60.8130   28.5970   44.8800 C   0  0  0  0  0  0  0  0  0  0  0  0
   59.4410   28.3720   46.9650 C   0  0  0  0  0  0  0  0  0  0  0  0
   57.4190   29.4230   44.0870 C   0  0  0  0  0  0  0  0  0  0  0  0
   56.6370   30.9040   43.9390 S   0  0  0  0  0  0  0  0  0  0  0  0
   61.3010   31.9570   47.2020 C   0  0  0  0  0  0  0  0  0  0  0  0
   62.2390   32.0720   48.4110 C   0  0  0  0  0  0  0  0  0  0  0  0
   64.0092   32.5850   50.0455 H   0  0  0  0  0  0  0  0  0  0  0  0
   65.4697   32.6146   49.0001 H   0  0  0  0  0  0  0  0  0  0  0  0
   64.3367   34.0086   49.0001 H   0  0  0  0  0  0  0  0  0  0  0  0
   64.0740   31.3490   47.8110 H   0  0  0  0  0  0  0  0  0  0  0  0
   64.6635   33.7059   46.7874 H   0  0  0  0  0  0  0  0  0  0  0  0
   63.8245   32.3678   45.8894 H   0  0  0  0  0  0  0  0  0  0  0  0
   62.4457   34.6751   47.3398 H   0  0  0  0  0  0  0  0  0  0  0  0
   62.6973   34.5282   45.5517 H   0  0  0  0  0  0  0  0  0  0  0  0
   60.4158   35.0251   46.9250 H   0  0  0  0  0  0  0  0  0  0  0  0
   59.4980   34.0426   45.7038 H   0  0  0  0  0  0  0  0  0  0  0  0
   59.6929   32.5137   48.1188 H   0  0  0  0  0  0  0  0  0  0  0  0
   59.1179   34.2021   48.5187 H   0  0  0  0  0  0  0  0  0  0  0  0
   57.6090   32.0103   47.4786 H   0  0  0  0  0  0  0  0  0  0  0  0
   57.0891   33.7145   47.8387 H   0  0  0  0  0  0  0  0  0  0  0  0
   58.5025   26.4699   45.7566 H   0  0  0  0  0  0  0  0  0  0  0  0
   57.8979   27.3163   44.2922 H   0  0  0  0  0  0  0  0  0  0  0  0
   59.5368   26.5810   44.2922 H   0  0  0  0  0  0  0  0  0  0  0  0
   61.5172   28.6801   45.7209 H   0  0  0  0  0  0  0  0  0  0  0  0
   61.0772   27.7238   44.2654 H   0  0  0  0  0  0  0  0  0  0  0  0
   60.8667   29.5077   44.2654 H   0  0  0  0  0  0  0  0  0  0  0  0
   58.6982   29.0653   47.3863 H   0  0  0  0  0  0  0  0  0  0  0  0
   59.2210   27.3488   47.3036 H   0  0  0  0  0  0  0  0  0  0  0  0
   60.4466   28.6620   47.3036 H   0  0  0  0  0  0  0  0  0  0  0  0
   57.1293   28.4881   43.5850 H   0  0  0  0  0  0  0  0  0  0  0  0
   60.2793   31.7699   47.5640 H   0  0  0  0  0  0  0  0  0  0  0  0
   61.6633   31.1301   46.5735 H   0  0  0  0  0  0  0  0  0  0  0  0
   61.9184   32.9202   49.0337 H   0  0  0  0  0  0  0  0  0  0  0  0
   62.1898   31.1313   48.9790 H   0  0  0  0  0  0  0  0  0  0  0  0
  1  2  1  0
  2  3  1  0
  3  4  1  0
  4  5  1  0
  5  6  1  0
  6  7  1  0
  7  8  1  0
  8  9  1  0
  9 10  1  0
 10 11  2  0
 11 12  1  0
 12 13  1  0
 13 14  1  0
 13 15  1  0
 13 16  1  0
 12 17  2  0
 17 18  1  0
  5 19  1  0
 19 20  1  0
 20  2  1  0
 18 10  1  0
  1 21  1  0
  1 22  1  0
  1 23  1  0
  2 24  1  0
  3 25  1  0
  3 26  1  0
  4 27  1  0
  4 28  1  0
  6 29  1  0
  6 30  1  0
  7 31  1  0
  7 32  1  0
  8 33  1  0
  8 34  1  0
 14 35  1  0
 14 36  1  0
 14 37  1  0
 15 38  1  0
 15 39  1  0
 15 40  1  0
 16 41  1  0
 16 42  1  0
 16 43  1  0
 17 44  1  0
 19 45  1  0
 19 46  1  0
 20 47  1  0
 20 48  1  0
M  CHG  1   2   1
M  END
>  <UniqueID>  (10) 
10

>  <SMILES>  (10) 
C[NH+]1CCN(CCCSc2nc(C(C)(C)C)cs2)CC1

>  <Energy>  (10) 
77.36552034869938

>  <Genealogy>  (10) 
C[NH+]1CCN(CCCSc2nc(C(C)(C)C)cs2)CC1 (protonated)
C[NH+]1CCN(CCCSc2nc(C(C)(C)C)cs2)CC1 (3D coordinates assigned)
C[NH+]1CCN(CCCSc2nc(C(C)(C)C)cs2)CC1 (nonaromatic ring conformer: 77.36552034869938 kcal/mol)

>  <smiles>  (10) 
CN1CCN(CCCSc2nc(C(C)(C)C)cs2)CC1

>  <score_type>  (10) 
oracle

>  <origin>  (10) 
adg

>  <m_score__min__energy>  (10) 
-6

>  <m_primary>  (10) 
energy

$$$$
10:0
     RDKit          3D

 48 49  0  0  0  0  0  0  0  0999 V2000
   55.5190   30.0980   44.1090 C   0  0  0  0  0  0  0  0  0  0  0  0
   56.8280   29.4300   43.6770 C   0  0  0  0  0  0  0  0  0  0  0  0
   57.4960   28.5460   44.7770 C   0  0  0  0  0  0  0  0  0  0  0  0
   58.5440   27.5710   44.1570 C   0  0  0  0  0  0  0  0  0  0  0  0
   58.1470   27.0590   42.7710 C   0  0  0  0  0  0  0  0  0  0  0  0
   58.1200   29.3520   45.8810 N   0  0  0  0  0  0  0  0  0  0  0  0
   58.5180   28.5440   47.0520 C   0  0  0  0  0  0  0  0  0  0  0  0
   58.9800   29.4500   48.2030 C   0  0  0  0  0  0  0  0  0  0  0  0
   59.9390   30.5110   47.7930 N   0  0  0  0  0  0  0  0  0  0  0  0
   59.5330   31.8900   48.2030 C   0  0  0  0  0  0  0  0  0  0  0  0
   59.1090   32.8290   47.0760 C   0  0  0  0  0  0  0  0  0  0  0  0
   57.7640   32.7730   46.6530 C   0  0  0  0  0  0  0  0  0  0  0  0
   57.2970   33.5930   45.6280 C   0  0  0  0  0  0  0  0  0  0  0  0
   58.1630   34.4720   44.9870 C   0  0  0  0  0  0  0  0  0  0  0  0
   59.5060   34.5210   45.3600 C   0  0  0  0  0  0  0  0  0  0  0  0
   60.0040   33.6990   46.3870 C   0  0  0  0  0  0  0  0  0  0  0  0
   61.4650   33.8190   46.7290 C   0  0  0  0  0  0  0  0  0  0  0  0
   60.4120   30.3750   46.3970 C   0  0  0  0  0  0  0  0  0  0  0  0
   59.2780   30.1410   45.3710 C   0  0  0  0  0  0  0  0  0  0  0  0
   55.4662   30.1249   45.2074 H   0  0  0  0  0  0  0  0  0  0  0  0
   55.4836   31.1244   43.7149 H   0  0  0  0  0  0  0  0  0  0  0  0
   54.6671   29.5244   43.7149 H   0  0  0  0  0  0  0  0  0  0  0  0
   56.6176   28.7933   42.8050 H   0  0  0  0  0  0  0  0  0  0  0  0
   57.5359   30.2421   43.4549 H   0  0  0  0  0  0  0  0  0  0  0  0
   56.6840   27.9578   45.2294 H   0  0  0  0  0  0  0  0  0  0  0  0
   59.5052   28.0992   44.0722 H   0  0  0  0  0  0  0  0  0  0  0  0
   58.6093   26.6967   44.8214 H   0  0  0  0  0  0  0  0  0  0  0  0
   57.4762   26.1938   42.8780 H   0  0  0  0  0  0  0  0  0  0  0  0
   57.6299   27.8579   42.2192 H   0  0  0  0  0  0  0  0  0  0  0  0
   59.0495   26.7572   42.2192 H   0  0  0  0  0  0  0  0  0  0  0  0
   57.6584   27.9447   47.3865 H   0  0  0  0  0  0  0  0  0  0  0  0
   59.3510   27.8866   46.7623 H   0  0  0  0  0  0  0  0  0  0  0  0
   58.0937   29.9348   48.6382 H   0  0  0  0  0  0  0  0  0  0  0  0
   59.5076   28.8058   48.9218 H   0  0  0  0  0  0  0  0  0  0  0  0
   60.7990   30.3260   48.3680 H   0  0  0  0  0  0  0  0  0  0  0  0
   58.6869   31.7979   48.8998 H   0  0  0  0  0  0  0  0  0  0  0  0
   60.4331   32.3443   48.6429 H   0  0  0  0  0  0  0  0  0  0  0  0
   57.0726   32.0701   47.1407 H   0  0  0  0  0  0  0  0  0  0  0  0
   56.2406   33.5449   45.3251 H   0  0  0  0  0  0  0  0  0  0  0  0
   57.7894   35.1278   44.1868 H   0  0  0  0  0  0  0  0  0  0  0  0
   60.1865   35.2134   44.8429 H   0  0  0  0  0  0  0  0  0  0  0  0
   61.5860   33.8289   47.8223 H   0  0  0  0  0  0  0  0  0  0  0  0
   62.0118   32.9627   46.3073 H   0  0  0  0  0  0  0  0  0  0  0  0
   61.8648   34.7530   46.3073 H   0  0  0  0  0  0  0  0  0  0  0  0
   60.9446   31.2969   46.1204 H   0  0  0  0  0  0  0  0  0  0  0  0
   61.0603   29.4869   46.3646 H   0  0  0  0  0  0  0  0  0  0  0  0
   58.9048   31.1230   45.0449 H   0  0  0  0  0  0  0  0  0  0  0  0
   59.7185   29.5486   44.5555 H   0  0  0  0  0  0  0  0  0  0  0  0
  1  2  1  0
  2  3  1  0
  3  4  1  0
  4  5  1  0
  3  6  1  0
  6  7  1  0
  7  8  1  0
  8  9  1  0
  9 10  1  0
 10 11  1  0
 11 12  2  0
 12 13  1  0
 13 14  2  0
 14 15  1  0
 15 16  2  0
 16 17  1  0
  9 18  1  0
 18 19  1  0
 19  6  1  0
 16 11  1  0
  1 20  1  0
  1 21  1  0
  1 22  1  0
  2 23  1  0
  2 24  1  0
  3 25  1  0
  4 26  1  0
  4 27  1  0
  5 28  1  0
  5 29  1  0
  5 30  1  0
  7 31  1  0
  7 32  1  0
  8 33  1  0
  8 34  1  0
  9 35  1  0
 10 36  1  0
 10 37  1  0
 12 38  1  0
 13 39  1  0
 14 40  1  0
 15 41  1  0
 17 42  1  0
 17 43  1  0
 17 44  1  0
 18 45  1  0
 18 46  1  0
 19 47  1  0
 19 48  1  0
M  CHG  1   9   1
M  END
>  <UniqueID>  (11) 
11

>  <SMILES>  (11) 
CCC(CC)N1CC[NH+](Cc2ccccc2C)CC1

>  <Energy>  (11) 
70.94798820894682

>  <Genealogy>  (11) 
CCC(CC)N1CC[NH+](Cc2ccccc2C)CC1 (protonated)
CCC(CC)N1CC[NH+](Cc2ccccc2C)CC1 (3D coordinates assigned)
CCC(CC)N1CC[NH+](Cc2ccccc2C)CC1 (nonaromatic ring conformer: 70.94798820894682 kcal/mol)

>  <smiles>  (11) 
CCC(CC)N1CCN(Cc2ccccc2C)CC1

>  <score_type>  (11) 
oracle

>  <origin>  (11) 
adg

>  <m_score__min__energy>  (11) 
-5.54

>  <m_primary>  (11) 
energy

$$$$
11:0
     RDKit          3D

 61 62  0  0  0  0  0  0  0  0999 V2000
   59.1740   33.5380   51.5360 C   0  0  0  0  0  0  0  0  0  0  0  0
   60.6480   33.4490   51.1780 C   0  0  0  0  0  0  0  0  0  0  0  0
   60.8100   32.5890   50.0580 O   0  0  0  0  0  0  0  0  0  0  0  0
   61.6250   32.8640   48.9460 C   0  0  0  0  0  0  0  0  0  0  0  0
   62.9820   32.4840   48.9230 C   0  0  0  0  0  0  0  0  0  0  0  0
   63.7820   32.7720   47.8180 C   0  0  0  0  0  0  0  0  0  0  0  0
   63.2460   33.4550   46.7320 C   0  0  0  0  0  0  0  0  0  0  0  0
   61.9080   33.8440   46.7390 C   0  0  0  0  0  0  0  0  0  0  0  0
   61.0670   33.5380   47.8310 C   0  0  0  0  0  0  0  0  0  0  0  0
   59.5990   33.9860   47.8540 C   0  0  1  0  0  0  0  0  0  0  0  0
   59.4250   35.3200   47.1060 C   0  0  0  0  0  0  0  0  0  0  0  0
   59.3130   35.1050   45.6260 C   0  0  0  0  0  0  0  0  0  0  0  0
   59.6220   36.0320   44.8360 O   0  0  0  0  0  0  0  0  0  0  0  0
   58.7930   33.8780   45.1010 N   0  0  0  0  0  0  0  0  0  0  0  0
   58.4720   32.8570   45.8400 C   0  0  0  0  0  0  0  0  0  0  0  0
   57.8670   31.6560   45.1740 C   0  0  0  0  0  0  0  0  0  0  0  0
   58.5540   32.9410   47.3560 C   0  0  1  0  0  0  0  0  0  0  0  0
   58.6970   31.5870   48.0110 C   0  0  0  0  0  0  0  0  0  0  0  0
   58.3750   31.4110   49.2180 O   0  0  0  0  0  0  0  0  0  0  0  0
   59.2910   30.5520   47.2810 O   0  0  0  0  0  0  0  0  0  0  0  0
   60.5700   30.0130   47.6000 C   0  0  0  0  0  0  0  0  0  0  0  0
   60.3920   28.6460   48.2590 C   0  0  0  0  0  0  0  0  0  0  0  0
   59.7760   28.7750   49.6670 C   0  0  0  0  0  0  0  0  0  0  0  0
   60.4140   29.8620   50.4660 N   0  0  0  0  0  0  0  0  0  0  0  0
   61.8880   29.6940   50.5430 C   0  0  0  0  0  0  0  0  0  0  0  0
   62.5520   30.4730   51.6910 C   0  0  0  0  0  0  0  0  0  0  0  0
   59.8210   29.9910   51.8220 C   0  0  0  0  0  0  0  0  0  0  0  0
   58.2930   30.0590   51.7940 C   0  0  0  0  0  0  0  0  0  0  0  0
   59.0622   33.5447   52.6303 H   0  0  0  0  0  0  0  0  0  0  0  0
   58.7505   34.4634   51.1184 H   0  0  0  0  0  0  0  0  0  0  0  0
   58.6422   32.6703   51.1184 H   0  0  0  0  0  0  0  0  0  0  0  0
   61.0265   34.4514   50.9290 H   0  0  0  0  0  0  0  0  0  0  0  0
   61.2108   33.0481   52.0339 H   0  0  0  0  0  0  0  0  0  0  0  0
   63.4142   31.9551   49.7852 H   0  0  0  0  0  0  0  0  0  0  0  0
   64.8365   32.4591   47.8054 H   0  0  0  0  0  0  0  0  0  0  0  0
   63.8803   33.6891   45.8643 H   0  0  0  0  0  0  0  0  0  0  0  0
   61.5007   34.3981   45.8805 H   0  0  0  0  0  0  0  0  0  0  0  0
   59.3732   34.1102   48.9234 H   0  0  0  0  0  0  0  0  0  0  0  0
   58.5116   35.8161   47.4660 H   0  0  0  0  0  0  0  0  0  0  0  0
   60.3096   35.9444   47.2999 H   0  0  0  0  0  0  0  0  0  0  0  0
   57.5121   30.9515   45.9406 H   0  0  0  0  0  0  0  0  0  0  0  0
   57.0206   31.9721   44.5466 H   0  0  0  0  0  0  0  0  0  0  0  0
   58.6248   31.1640   44.5466 H   0  0  0  0  0  0  0  0  0  0  0  0
   57.5797   33.3266   47.6907 H   0  0  0  0  0  0  0  0  0  0  0  0
   61.1623   29.9029   46.6796 H   0  0  0  0  0  0  0  0  0  0  0  0
   61.0931   30.6900   48.2914 H   0  0  0  0  0  0  0  0  0  0  0  0
   59.7286   28.0309   47.6333 H   0  0  0  0  0  0  0  0  0  0  0  0
   61.3825   28.1775   48.3565 H   0  0  0  0  0  0  0  0  0  0  0  0
   58.7028   28.9939   49.5651 H   0  0  0  0  0  0  0  0  0  0  0  0
   59.9433   27.8253   50.1962 H   0  0  0  0  0  0  0  0  0  0  0  0
   60.2750   30.7780   49.9750 H   0  0  0  0  0  0  0  0  0  0  0  0
   62.1067   28.6247   50.6799 H   0  0  0  0  0  0  0  0  0  0  0  0
   62.3015   30.0970   49.6067 H   0  0  0  0  0  0  0  0  0  0  0  0
   62.2081   30.0696   52.6549 H   0  0  0  0  0  0  0  0  0  0  0  0
   63.6449   30.3706   51.6196 H   0  0  0  0  0  0  0  0  0  0  0  0
   62.2778   31.5359   51.6196 H   0  0  0  0  0  0  0  0  0  0  0  0
   60.1236   29.1206   52.4227 H   0  0  0  0  0  0  0  0  0  0  0  0
   60.1876   30.9326   52.2568 H   0  0  0  0  0  0  0  0  0  0  0  0
   57.9078   30.0761   52.8242 H   0  0  0  0  0  0  0  0  0  0  0  0
   57.9762   30.9721   51.2688 H   0  0  0  0  0  0  0  0  0  0  0  0
   57.8963   29.1776   51.2688 H   0  0  0  0  0  0  0  0  0  0  0  0
  1  2  1  0
  2  3  1  0
  3  4  1  0
  4  5  2  0
  5  6  1  0
  6  7  2  0
  7  8  1  0
  8  9  2  0
  9 10  1  0
 10 11  1  0
 11 12  1  0
 12 13  2  0
 12 14  1  0
 14 15  2  0
 15 16  1  0
 15 17  1  0
 17 18  1  0
 18 19  2  0
 18 20  1  0
 20 21  1  0
 21 22  1  0
 22 23  1  0
 23 24  1  0
 24 25  1  0
 25 26  1  0
 24 27  1  0
 27 28  1  0
  9  4  1  0
 17 10  1  0
  1 29  1  0
  1 30  1  0
  1 31  1  0
  2 32  1  0
  2 33  1  0
  5 34  1  0
  6 35  1  0
  7 36  1  0
  8 37  1  0
 10 38  1  1
 11 39  1  0
 11 40  1  0
 16 41  1  0
 16 42  1  0
 16 43  1  0
 17 44  1  1
 21 45  1  0
 21 46  1  0
 22 47  1  0
 22 48  1  0
 23 49  1  0
 23 50  1  0
 24 51  1  0
 25 52  1  0
 25 53  1  0
 26 54  1  0
 26 55  1  0
 26 56  1  0
 27 57  1  0
 27 58  1  0
 28 59  1  0
 28 60  1  0
 28 61  1  0
M  CHG  1  24   1
M  END
>  <UniqueID>  (12) 
12

>  <SMILES>  (12) 
CCOc1ccccc1[C@H]1CC(=O)N=C(C)[C@H]1C(=O)OCCC[NH+](CC)CC

>  <Energy>  (12) 
60.421495999473244

>  <Genealogy>  (12) 
CCOc1ccccc1C1CC(=O)N=C(C)C1C(=O)OCCC[NH+](CC)CC (protonated)
CCOc1ccccc1[C@H]1CC(=O)N=C(C)[C@H]1C(=O)OCCC[NH+](CC)CC (chirality)
CCOc1ccccc1[C@H]1CC(=O)N=C(C)[C@H]1C(=O)OCCC[NH+](CC)CC (3D coordinates assigned)
CCOc1ccccc1[C@H]1CC(=O)N=C(C)[C@H]1C(=O)OCCC[NH+](CC)CC (nonaromatic ring conformer: 60.421495999473244 kcal/mol)

>  <smiles>  (12) 
CCOc1ccccc1C1CC(=O)N=C(C)C1C(=O)OCCCN(CC)CC

>  <score_type>  (12) 
oracle

>  <origin>  (12) 
adg

>  <m_score__min__energy>  (12) 
-4.3899999999999997

>  <m_primary>  (12) 
energy

$$$$
12:0
     RDKit          3D

 39 40  0  0  0  0  0  0  0  0999 V2000
   66.0370   32.7140   50.1170 C   0  0  0  0  0  0  0  0  0  0  0  0
   64.7170   32.0480   49.7310 C   0  0  0  0  0  0  0  0  0  0  0  0
   63.8160   32.9430   48.8550 C   0  0  0  0  0  0  0  0  0  0  0  0
   64.1390   32.8990   47.4150 N   0  0  0  0  0  0  0  0  0  0  0  0
   63.1540   33.6250   46.5910 C   0  0  0  0  0  0  0  0  0  0  0  0
   61.8230   33.8170   47.3340 C   0  0  0  0  0  0  0  0  0  0  0  0
   60.7820   32.8270   46.8770 C   0  0  0  0  0  0  0  0  0  0  0  0
   59.5770   33.2800   46.3180 C   0  0  0  0  0  0  0  0  0  0  0  0
   58.6210   32.3710   45.8570 C   0  0  0  0  0  0  0  0  0  0  0  0
   58.8600   30.9890   45.9430 C   0  0  0  0  0  0  0  0  0  0  0  0
   57.9180   30.0460   45.4850 C   0  0  0  0  0  0  0  0  0  0  0  0
   56.7080   30.4950   44.9300 O   0  0  0  0  0  0  0  0  0  0  0  0
   56.2480   30.1680   43.6230 C   0  0  0  0  0  0  0  0  0  0  0  0
   58.2180   28.6760   45.5960 C   0  0  0  0  0  0  0  0  0  0  0  0
   59.4330   28.2720   46.1530 C   0  0  0  0  0  0  0  0  0  0  0  0
   60.3270   29.1970   46.5890 N   0  0  0  0  0  0  0  0  0  0  0  0
   60.0770   30.5300   46.5010 C   0  0  0  0  0  0  0  0  0  0  0  0
   61.0280   31.4480   46.9610 C   0  0  0  0  0  0  0  0  0  0  0  0
   66.1198   32.7558   51.2131 H   0  0  0  0  0  0  0  0  0  0  0  0
   66.8753   32.1310   49.7079 H   0  0  0  0  0  0  0  0  0  0  0  0
   66.0661   33.7347   49.7079 H   0  0  0  0  0  0  0  0  0  0  0  0
   64.9407   31.1261   49.1742 H   0  0  0  0  0  0  0  0  0  0  0  0
   64.1688   31.8462   50.6630 H   0  0  0  0  0  0  0  0  0  0  0  0
   62.7737   32.6164   48.9852 H   0  0  0  0  0  0  0  0  0  0  0  0
   63.9814   33.9791   49.1853 H   0  0  0  0  0  0  0  0  0  0  0  0
   64.1420   31.8930   47.1270 H   0  0  0  0  0  0  0  0  0  0  0  0
   65.0990   33.2780   47.2540 H   0  0  0  0  0  0  0  0  0  0  0  0
   63.5639   34.6126   46.3329 H   0  0  0  0  0  0  0  0  0  0  0  0
   62.9590   33.0305   45.6863 H   0  0  0  0  0  0  0  0  0  0  0  0
   61.9939   33.6825   48.4123 H   0  0  0  0  0  0  0  0  0  0  0  0
   61.4520   34.8296   47.1172 H   0  0  0  0  0  0  0  0  0  0  0  0
   59.3834   34.3602   46.2421 H   0  0  0  0  0  0  0  0  0  0  0  0
   57.6783   32.7385   45.4254 H   0  0  0  0  0  0  0  0  0  0  0  0
   55.3535   29.5321   43.6975 H   0  0  0  0  0  0  0  0  0  0  0  0
   55.9972   31.0916   43.0808 H   0  0  0  0  0  0  0  0  0  0  0  0
   57.0379   29.6276   43.0808 H   0  0  0  0  0  0  0  0  0  0  0  0
   57.4963   27.9240   45.2444 H   0  0  0  0  0  0  0  0  0  0  0  0
   59.6670   27.2006   46.2390 H   0  0  0  0  0  0  0  0  0  0  0  0
   61.9738   31.0865   47.3909 H   0  0  0  0  0  0  0  0  0  0  0  0
  1  2  1  0
  2  3  1  0
  3  4  1  0
  4  5  1  0
  5  6  1  0
  6  7  1  0
  7  8  2  0
  8  9  1  0
  9 10  2  0
 10 11  1  0
 11 12  1  0
 12 13  1  0
 11 14  2  0
 14 15  1  0
 15 16  2  0
 16 17  1  0
 17 18  2  0
 18  7  1  0
 17 10  1  0
  1 19  1  0
  1 20  1  0
  1 21  1  0
  2 22  1  0
  2 23  1  0
  3 24  1  0
  3 25  1  0
  4 26  1  0
  4 27  1  0
  5 28  1  0
  5 29  1  0
  6 30  1  0
  6 31  1  0
  8 32  1  0
  9 33  1  0
 13 34  1  0
 13 35  1  0
 13 36  1  0
 14 37  1  0
 15 38  1  0
 18 39  1  0
M  CHG  1   4   1
M  END
>  <UniqueID>  (13) 
13

>  <SMILES>  (13) 
CCC[NH2+]CCc1ccc2c(OC)ccnc2c1

>  <Energy>  (13) 
36.53680116040265

>  <Genealogy>  (13) 
CCC[NH2+]CCc1ccc2c(OC)ccnc2c1 (protonated)
CCC[NH2+]CCc1ccc2c(OC)ccnc2c1 (3D coordinates assigned)
CCC[NH2+]CCc1ccc2c(OC)ccnc2c1 (optimized conformer: 36.53680116040265 kcal/mol)

>  <smiles>  (13) 
CCCNCCc1ccc2c(OC)ccnc2c1

>  <score_type>  (13) 
oracle

>  <origin>  (13) 
adg

>  <m_score__min__energy>  (13) 
-4.9000000000000004

>  <m_primary>  (13) 
energy

$$$$
13:0
     RDKit          3D

 52 54  0  0  0  0  0  0  0  0999 V2000
   65.6100   32.3930   50.0880 C   0  0  0  0  0  0  0  0  0  0  0  0
   64.4980   33.1200   49.3240 C   0  0  0  0  0  0  0  0  0  0  0  0
   63.9660   32.3200   48.2060 N   0  0  0  0  0  0  0  0  0  0  0  0
   63.7490   33.1310   46.9960 C   0  0  0  0  0  0  0  0  0  0  0  0
   62.3560   33.7720   47.0130 C   0  0  0  0  0  0  0  0  0  0  0  0
   61.4440   33.0040   47.8570 N   0  0  0  0  0  0  0  0  0  0  0  0
   60.4280   32.1830   47.2650 C   0  0  0  0  0  0  0  0  0  0  0  0
   59.5610   32.7550   46.3180 C   0  0  0  0  0  0  0  0  0  0  0  0
   59.6180   34.1370   46.0290 C   0  0  0  0  0  0  0  0  0  0  0  0
   58.7300   34.7120   45.1230 C   0  0  0  0  0  0  0  0  0  0  0  0
   57.7660   33.9270   44.5030 C   0  0  0  0  0  0  0  0  0  0  0  0
   57.6980   32.5590   44.7660 C   0  0  0  0  0  0  0  0  0  0  0  0
   58.6150   31.9380   45.6540 C   0  0  0  0  0  0  0  0  0  0  0  0
   58.5940   30.5790   45.8860 N   0  0  0  0  0  0  0  0  0  0  0  0
   57.8420   29.6890   44.9730 C   0  0  0  0  0  0  0  0  0  0  0  0
   59.2940   30.0460   46.9540 C   0  0  0  0  0  0  0  0  0  0  0  0
   59.0560   28.7260   47.3910 C   0  0  0  0  0  0  0  0  0  0  0  0
   59.7900   28.1620   48.4220 C   0  0  0  0  0  0  0  0  0  0  0  0
   60.7810   28.8920   49.0860 C   0  0  0  0  0  0  0  0  0  0  0  0
   61.5270   28.3020   50.1180 O   0  0  0  0  0  0  0  0  0  0  0  0
   61.1300   27.1590   50.8690 C   0  0  0  0  0  0  0  0  0  0  0  0
   61.0170   30.2420   48.7160 C   0  0  0  0  0  0  0  0  0  0  0  0
   61.9760   31.0370   49.3790 O   0  0  0  0  0  0  0  0  0  0  0  0
   62.1800   31.1670   50.7820 C   0  0  0  0  0  0  0  0  0  0  0  0
   60.2600   30.8290   47.6530 C   0  0  0  0  0  0  0  0  0  0  0  0
   65.4433   32.5020   51.1698 H   0  0  0  0  0  0  0  0  0  0  0  0
   65.6009   31.3259   49.8213 H   0  0  0  0  0  0  0  0  0  0  0  0
   66.5839   32.8294   49.8213 H   0  0  0  0  0  0  0  0  0  0  0  0
   63.6769   33.3412   50.0217 H   0  0  0  0  0  0  0  0  0  0  0  0
   64.9285   34.0400   48.9019 H   0  0  0  0  0  0  0  0  0  0  0  0
   63.0490   31.9180   48.5090 H   0  0  0  0  0  0  0  0  0  0  0  0
   64.6170   31.5280   47.9920 H   0  0  0  0  0  0  0  0  0  0  0  0
   64.5103   33.9238   46.9518 H   0  0  0  0  0  0  0  0  0  0  0  0
   63.8257   32.4772   46.1147 H   0  0  0  0  0  0  0  0  0  0  0  0
   62.4348   34.7965   47.4056 H   0  0  0  0  0  0  0  0  0  0  0  0
   61.9607   33.7857   45.9866 H   0  0  0  0  0  0  0  0  0  0  0  0
   61.4910   33.0660   48.9000 H   0  0  0  0  0  0  0  0  0  0  0  0
   60.3721   34.7657   46.5251 H   0  0  0  0  0  0  0  0  0  0  0  0
   58.7920   35.7871   44.8985 H   0  0  0  0  0  0  0  0  0  0  0  0
   57.0535   34.3862   43.8019 H   0  0  0  0  0  0  0  0  0  0  0  0
   56.9216   31.9518   44.2777 H   0  0  0  0  0  0  0  0  0  0  0  0
   57.2429   28.9799   45.5632 H   0  0  0  0  0  0  0  0  0  0  0  0
   57.1761   30.2925   44.3387 H   0  0  0  0  0  0  0  0  0  0  0  0
   58.5482   29.1332   44.3387 H   0  0  0  0  0  0  0  0  0  0  0  0
   58.2702   28.1312   46.9024 H   0  0  0  0  0  0  0  0  0  0  0  0
   59.5900   27.1231   48.7232 H   0  0  0  0  0  0  0  0  0  0  0  0
   61.2072   27.3813   51.9435 H   0  0  0  0  0  0  0  0  0  0  0  0
   60.0896   26.9011   50.6218 H   0  0  0  0  0  0  0  0  0  0  0  0
   61.7865   26.3117   50.6218 H   0  0  0  0  0  0  0  0  0  0  0  0
   61.3707   30.6512   51.3195 H   0  0  0  0  0  0  0  0  0  0  0  0
   63.1462   30.7177   51.0552 H   0  0  0  0  0  0  0  0  0  0  0  0
   62.1808   32.2325   51.0552 H   0  0  0  0  0  0  0  0  0  0  0  0
  1  2  1  0
  2  3  1  0
  3  4  1  0
  4  5  1  0
  5  6  1  0
  6  7  1  0
  7  8  2  0
  8  9  1  0
  9 10  2  0
 10 11  1  0
 11 12  2  0
 12 13  1  0
 13 14  2  0
 14 15  1  0
 14 16  1  0
 16 17  2  0
 17 18  1  0
 18 19  2  0
 19 20  1  0
 20 21  1  0
 19 22  1  0
 22 23  1  0
 23 24  1  0
 22 25  2  0
 25  7  1  0
 13  8  1  0
 25 16  1  0
  1 26  1  0
  1 27  1  0
  1 28  1  0
  2 29  1  0
  2 30  1  0
  3 31  1  0
  3 32  1  0
  4 33  1  0
  4 34  1  0
  5 35  1  0
  5 36  1  0
  6 37  1  0
  9 38  1  0
 10 39  1  0
 11 40  1  0
 12 41  1  0
 15 42  1  0
 15 43  1  0
 15 44  1  0
 17 45  1  0
 18 46  1  0
 21 47  1  0
 21 48  1  0
 21 49  1  0
 24 50  1  0
 24 51  1  0
 24 52  1  0
M  CHG  2   3   1  14   1
M  END
>  <UniqueID>  (14) 
14

>  <SMILES>  (14) 
CC[NH2+]CCNc1c2ccccc2[n+](C)c2ccc(OC)c(OC)c12

>  <Energy>  (14) 
81.46878731729579

>  <Genealogy>  (14) 
CC[NH2+]CCNc1c2ccccc2[n+](C)c2ccc(OC)c(OC)c12 (protonated)
CC[NH2+]CCNc1c2ccccc2[n+](C)c2ccc(OC)c(OC)c12 (3D coordinates assigned)
CC[NH2+]CCNc1c2ccccc2[n+](C)c2ccc(OC)c(OC)c12 (optimized conformer: 81.46878731729579 kcal/mol)

>  <smiles>  (14) 
CCNCCNc1c2ccccc2[n+](C)c2ccc(OC)c(OC)c12

>  <score_type>  (14) 
oracle

>  <origin>  (14) 
adg

>  <m_score__min__energy>  (14) 
-2.8900000000000001

>  <m_primary>  (14) 
energy

$$$$
14:0
     RDKit          3D

 49 51  0  0  0  0  0  0  0  0999 V2000
   60.4780   30.1580   50.9170 C   0  0  0  0  0  0  0  0  0  0  0  0
   61.5120   30.8440   50.0550 C   0  0  0  0  0  0  0  0  0  0  0  0
   62.8400   30.7900   50.5030 C   0  0  0  0  0  0  0  0  0  0  0  0
   63.8270   31.5500   49.8980 C   0  0  0  0  0  0  0  0  0  0  0  0
   63.5140   32.3820   48.8320 C   0  0  0  0  0  0  0  0  0  0  0  0
   62.2060   32.4260   48.2920 C   0  0  0  0  0  0  0  0  0  0  0  0
   61.1900   31.6230   48.8970 C   0  0  0  0  0  0  0  0  0  0  0  0
   59.8970   31.6450   48.3160 C   0  0  0  0  0  0  0  0  0  0  0  0
   58.9500   30.5960   48.5710 N   0  0  0  0  0  0  0  0  0  0  0  0
   58.8990   29.4040   47.7210 C   0  0  0  0  0  0  0  0  0  0  0  0
   58.9520   29.7820   46.2350 C   0  0  0  0  0  0  0  0  0  0  0  0
   57.6870   29.3210   45.5010 C   0  0  0  0  0  0  0  0  0  0  0  0
   57.0030   30.4710   44.8690 N   0  0  0  0  0  0  0  0  0  0  0  0
   55.8550   30.0060   44.0720 C   0  0  0  0  0  0  0  0  0  0  0  0
   57.9240   31.2240   44.0000 C   0  0  0  0  0  0  0  0  0  0  0  0
   59.5710   32.6450   47.3860 C   0  0  0  0  0  0  0  0  0  0  0  0
   58.2360   32.8370   46.9690 C   0  0  0  0  0  0  0  0  0  0  0  0
   57.9100   33.8580   46.0800 C   0  0  0  0  0  0  0  0  0  0  0  0
   58.9000   34.7100   45.6040 C   0  0  0  0  0  0  0  0  0  0  0  0
   60.2270   34.5290   45.9950 C   0  0  0  0  0  0  0  0  0  0  0  0
   60.5950   33.4750   46.8680 C   0  0  0  0  0  0  0  0  0  0  0  0
   61.9100   33.2360   47.2110 N   0  0  0  0  0  0  0  0  0  0  0  0
   62.9990   33.8400   46.4100 C   0  0  0  0  0  0  0  0  0  0  0  0
   60.7201   30.3186   51.9779 H   0  0  0  0  0  0  0  0  0  0  0  0
   59.4840   30.5764   50.7003 H   0  0  0  0  0  0  0  0  0  0  0  0
   60.4771   29.0796   50.7003 H   0  0  0  0  0  0  0  0  0  0  0  0
   63.1013   30.1346   51.3469 H   0  0  0  0  0  0  0  0  0  0  0  0
   64.8629   31.4941   50.2636 H   0  0  0  0  0  0  0  0  0  0  0  0
   64.2980   33.0200   48.3980 H   0  0  0  0  0  0  0  0  0  0  0  0
   58.1320   30.7970   49.1880 H   0  0  0  0  0  0  0  0  0  0  0  0
   59.7565   28.7570   47.9578 H   0  0  0  0  0  0  0  0  0  0  0  0
   57.9525   28.8778   47.9139 H   0  0  0  0  0  0  0  0  0  0  0  0
   59.0408   30.8747   46.1455 H   0  0  0  0  0  0  0  0  0  0  0  0
   59.8206   29.2841   45.7793 H   0  0  0  0  0  0  0  0  0  0  0  0
   57.9648   28.5939   44.7237 H   0  0  0  0  0  0  0  0  0  0  0  0
   57.0038   28.8582   46.2284 H   0  0  0  0  0  0  0  0  0  0  0  0
   55.0491   29.6796   44.7457 H   0  0  0  0  0  0  0  0  0  0  0  0
   55.4921   30.8280   43.4375 H   0  0  0  0  0  0  0  0  0  0  0  0
   56.1665   29.1631   43.4375 H   0  0  0  0  0  0  0  0  0  0  0  0
   58.6268   31.7986   44.6212 H   0  0  0  0  0  0  0  0  0  0  0  0
   58.4849   30.5225   43.3650 H   0  0  0  0  0  0  0  0  0  0  0  0
   57.3479   31.9131   43.3650 H   0  0  0  0  0  0  0  0  0  0  0  0
   57.4456   32.1736   47.3501 H   0  0  0  0  0  0  0  0  0  0  0  0
   56.8678   33.9905   45.7540 H   0  0  0  0  0  0  0  0  0  0  0  0
   58.6366   35.5284   44.9178 H   0  0  0  0  0  0  0  0  0  0  0  0
   61.0001   35.2155   45.6196 H   0  0  0  0  0  0  0  0  0  0  0  0
   63.7593   34.2617   47.0839 H   0  0  0  0  0  0  0  0  0  0  0  0
   63.4590   33.0681   45.7755 H   0  0  0  0  0  0  0  0  0  0  0  0
   62.5877   34.6389   45.7755 H   0  0  0  0  0  0  0  0  0  0  0  0
  1  2  1  0
  2  3  2  0
  3  4  1  0
  4  5  2  0
  5  6  1  0
  6  7  2  0
  7  8  1  0
  8  9  1  0
  9 10  1  0
 10 11  1  0
 11 12  1  0
 12 13  1  0
 13 14  1  0
 13 15  1  0
  8 16  2  0
 16 17  1  0
 17 18  2  0
 18 19  1  0
 19 20  2  0
 20 21  1  0
 21 22  2  0
 22 23  1  0
  7  2  1  0
 21 16  1  0
 22  6  1  0
  1 24  1  0
  1 25  1  0
  1 26  1  0
  3 27  1  0
  4 28  1  0
  5 29  1  0
  9 30  1  0
 10 31  1  0
 10 32  1  0
 11 33  1  0
 11 34  1  0
 12 35  1  0
 12 36  1  0
 14 37  1  0
 14 38  1  0
 14 39  1  0
 15 40  1  0
 15 41  1  0
 15 42  1  0
 17 43  1  0
 18 44  1  0
 19 45  1  0
 20 46  1  0
 23 47  1  0
 23 48  1  0
 23 49  1  0
M  CHG  1  22   1
M  END
>  <UniqueID>  (15) 
15

>  <SMILES>  (15) 
Cc1cccc2c1c(NCCCN(C)C)c1ccccc1[n+]2C

>  <Energy>  (15) 
81.81481976428461

>  <Genealogy>  (15) 
Cc1cccc2c1c(NCCCN(C)C)c1ccccc1[n+]2C (3D coordinates assigned)
Cc1cccc2c1c(NCCCN(C)C)c1ccccc1[n+]2C (optimized conformer: 81.81481976428461 kcal/mol)

>  <smiles>  (15) 
Cc1cccc2c1c(NCCCN(C)C)c1ccccc1[n+]2C

>  <score_type>  (15) 
oracle

>  <origin>  (15) 
adg

>  <m_score__min__energy>  (15) 
-5.7199999999999998

>  <m_primary>  (15) 
energy

$$$$
15:0
     RDKit          3D

 65 67  0  0  0  0  0  0  0  0999 V2000
   56.3010   22.1290   48.4130 C   0  0  0  0  0  0  0  0  0  0  0  0
   57.3780   22.3310   47.5020 O   0  0  0  0  0  0  0  0  0  0  0  0
   57.2830   23.0720   46.3130 C   0  0  0  0  0  0  0  0  0  0  0  0
   57.0490   22.3830   45.1160 C   0  0  0  0  0  0  0  0  0  0  0  0
   56.9500   23.0770   43.9070 C   0  0  0  0  0  0  0  0  0  0  0  0
   57.0800   24.4680   43.8850 C   0  0  0  0  0  0  0  0  0  0  0  0
   57.3030   25.1780   45.0750 C   0  0  0  0  0  0  0  0  0  0  0  0
   57.4250   26.6850   45.0420 C   0  0  0  0  0  0  0  0  0  0  0  0
   57.7410   27.1800   43.6870 N   0  0  0  0  0  0  0  0  0  0  0  0
   57.5280   28.6370   43.5400 C   0  0  0  0  0  0  0  0  0  0  0  0
   57.7400   29.4420   44.8540 C   0  0  2  0  0  0  0  0  0  0  0  0
   56.5150   30.0370   45.2120 O   0  0  0  0  0  0  0  0  0  0  0  0
   58.8630   30.5250   44.7600 C   0  0  2  0  0  0  0  0  0  0  0  0
   60.0970   30.2310   45.6530 C   0  0  0  0  0  0  0  0  0  0  0  0
   60.0480   28.8850   46.3400 C   0  0  0  0  0  0  0  0  0  0  0  0
   59.5440   28.7730   47.6480 C   0  0  0  0  0  0  0  0  0  0  0  0
   59.5000   27.5290   48.2850 C   0  0  0  0  0  0  0  0  0  0  0  0
   59.9630   26.3880   47.6250 C   0  0  0  0  0  0  0  0  0  0  0  0
   60.4770   26.4900   46.3300 C   0  0  0  0  0  0  0  0  0  0  0  0
   60.5240   27.7320   45.6910 C   0  0  0  0  0  0  0  0  0  0  0  0
   58.3170   31.8410   45.0990 N   0  0  0  0  0  0  0  0  0  0  0  0
   58.2150   32.3490   46.4330 C   0  0  0  0  0  0  0  0  0  0  0  0
   58.0860   31.5600   47.4090 O   0  0  0  0  0  0  0  0  0  0  0  0
   58.2770   33.8240   46.6720 C   0  0  0  0  0  0  0  0  0  0  0  0
   58.9260   34.1010   47.9150 O   0  0  0  0  0  0  0  0  0  0  0  0
   60.2680   33.8140   48.2160 C   0  0  0  0  0  0  0  0  0  0  0  0
   61.2820   33.8420   47.2390 C   0  0  0  0  0  0  0  0  0  0  0  0
   62.6090   33.5230   47.5710 C   0  0  0  0  0  0  0  0  0  0  0  0
   63.6800   33.5650   46.5150 C   0  0  0  0  0  0  0  0  0  0  0  0
   62.9230   33.1780   48.9000 C   0  0  0  0  0  0  0  0  0  0  0  0
   64.7110   32.7300   49.4350 Br  0  0  0  0  0  0  0  0  0  0  0  0
   61.9210   33.1730   49.8750 C   0  0  0  0  0  0  0  0  0  0  0  0
   60.6030   33.4910   49.5390 C   0  0  0  0  0  0  0  0  0  0  0  0
   59.2690   33.4810   50.9110 Br  0  0  0  0  0  0  0  0  0  0  0  0
   57.4100   24.4750   46.2880 C   0  0  0  0  0  0  0  0  0  0  0  0
   56.6755   22.1992   49.4449 H   0  0  0  0  0  0  0  0  0  0  0  0
   55.5325   22.8987   48.2487 H   0  0  0  0  0  0  0  0  0  0  0  0
   55.8636   21.1332   48.2487 H   0  0  0  0  0  0  0  0  0  0  0  0
   56.9424   21.2882   45.1277 H   0  0  0  0  0  0  0  0  0  0  0  0
   56.7695   22.5274   42.9714 H   0  0  0  0  0  0  0  0  0  0  0  0
   57.0072   25.0094   42.9302 H   0  0  0  0  0  0  0  0  0  0  0  0
   56.4722   27.1266   45.3692 H   0  0  0  0  0  0  0  0  0  0  0  0
   58.2467   26.9763   45.7127 H   0  0  0  0  0  0  0  0  0  0  0  0
   57.1770   26.6500   42.9870 H   0  0  0  0  0  0  0  0  0  0  0  0
   58.7410   26.9580   43.4660 H   0  0  0  0  0  0  0  0  0  0  0  0
   58.2327   29.0153   42.7848 H   0  0  0  0  0  0  0  0  0  0  0  0
   56.4773   28.7775   43.2461 H   0  0  0  0  0  0  0  0  0  0  0  0
   58.0806   28.7343   45.6241 H   0  0  0  0  0  0  0  0  0  0  0  0
   56.7130   30.7470   45.8790 H   0  0  0  0  0  0  0  0  0  0  0  0
   59.2181   30.5056   43.7191 H   0  0  0  0  0  0  0  0  0  0  0  0
   60.9974   30.2655   45.0221 H   0  0  0  0  0  0  0  0  0  0  0  0
   60.1076   30.9941   46.4452 H   0  0  0  0  0  0  0  0  0  0  0  0
   59.1822   29.6693   48.1732 H   0  0  0  0  0  0  0  0  0  0  0  0
   59.1005   27.4487   49.3067 H   0  0  0  0  0  0  0  0  0  0  0  0
   59.9228   25.4091   48.1251 H   0  0  0  0  0  0  0  0  0  0  0  0
   60.8451   25.5917   45.8127 H   0  0  0  0  0  0  0  0  0  0  0  0
   60.9360   27.8081   44.6739 H   0  0  0  0  0  0  0  0  0  0  0  0
   58.8397   34.3001   45.8555 H   0  0  0  0  0  0  0  0  0  0  0  0
   57.2525   34.2228   46.7080 H   0  0  0  0  0  0  0  0  0  0  0  0
   61.0318   34.1169   46.2037 H   0  0  0  0  0  0  0  0  0  0  0  0
   64.6683   33.6038   46.9964 H   0  0  0  0  0  0  0  0  0  0  0  0
   63.6125   32.6635   45.8883 H   0  0  0  0  0  0  0  0  0  0  0  0
   63.5421   34.4584   45.8883 H   0  0  0  0  0  0  0  0  0  0  0  0
   62.1725   32.9167   50.9147 H   0  0  0  0  0  0  0  0  0  0  0  0
   57.5940   25.0238   47.2234 H   0  0  0  0  0  0  0  0  0  0  0  0
  1  2  1  0
  2  3  1  0
  3  4  2  0
  4  5  1  0
  5  6  2  0
  6  7  1  0
  7  8  1  0
  8  9  1  0
  9 10  1  0
 10 11  1  0
 11 12  1  0
 11 13  1  0
 13 14  1  0
 14 15  1  0
 15 16  2  0
 16 17  1  0
 17 18  2  0
 18 19  1  0
 19 20  2  0
 13 21  1  0
 21 22  1  0
 22 23  2  0
 22 24  1  0
 24 25  1  0
 25 26  1  0
 26 27  2  0
 27 28  1  0
 28 29  1  0
 28 30  2  0
 30 31  1  0
 30 32  1  0
 32 33  2  0
 33 34  1  0
  7 35  2  0
 35  3  1  0
 20 15  1  0
 33 26  1  0
  1 36  1  0
  1 37  1  0
  1 38  1  0
  4 39  1  0
  5 40  1  0
  6 41  1  0
  8 42  1  0
  8 43  1  0
  9 44  1  0
  9 45  1  0
 10 46  1  0
 10 47  1  0
 11 48  1  1
 12 49  1  0
 13 50  1  6
 14 51  1  0
 14 52  1  0
 16 53  1  0
 17 54  1  0
 18 55  1  0
 19 56  1  0
 20 57  1  0
 24 58  1  0
 24 59  1  0
 27 60  1  0
 29 61  1  0
 29 62  1  0
 29 63  1  0
 32 64  1  0
 35 65  1  0
M  CHG  2   9   1  21  -1
M  END
>  <UniqueID>  (16) 
16

>  <SMILES>  (16) 
COc1cccc(C[NH2+]C[C@H](O)[C@H](Cc2ccccc2)[N-]C(=O)COc2cc(C)c(Br)cc2Br)c1

>  <Energy>  (16) 
67.98847339379945

>  <Genealogy>  (16) 
COc1cccc(C[NH2+]CC(O)C(Cc2ccccc2)[N-]C(=O)COc2cc(C)c(Br)cc2Br)c1 (protonated)
COc1cccc(C[NH2+]C[C@H](O)[C@H](Cc2ccccc2)[N-]C(=O)COc2cc(C)c(Br)cc2Br)c1 (chirality)
COc1cccc(C[NH2+]C[C@H](O)[C@H](Cc2ccccc2)[N-]C(=O)COc2cc(C)c(Br)cc2Br)c1 (3D coordinates assigned)
COc1cccc(C[NH2+]C[C@H](O)[C@H](Cc2ccccc2)[N-]C(=O)COc2cc(C)c(Br)cc2Br)c1 (optimized conformer: 67.98847339379945 kcal/mol)

>  <smiles>  (16) 
COc1cccc(CNCC(O)C(Cc2ccccc2)NC(=O)COc2cc(C)c(Br)cc2Br)c1

>  <score_type>  (16) 
oracle

>  <origin>  (16) 
adg

>  <m_score__min__energy>  (16) 
-8.3000000000000007

>  <m_primary>  (16) 
energy

$$$$
16:0
     RDKit          3D

 46 48  0  0  0  0  0  0  0  0999 V2000
   64.5300   32.2870   49.6200 C   0  0  0  0  0  0  0  0  0  0  0  0
   64.3260   33.4370   48.6220 C   0  0  0  0  0  0  0  0  0  0  0  0
   63.1190   33.3030   47.7680 N   0  0  1  0  0  0  0  0  0  0  0  0
   63.3340   33.8840   46.4260 C   0  0  0  0  0  0  0  0  0  0  0  0
   62.6480   31.8950   47.7000 C   0  0  0  0  0  0  0  0  0  0  0  0
   61.5640   31.5720   48.7420 C   0  0  0  0  0  0  0  0  0  0  0  0
   61.1730   32.7860   49.4700 N   0  0  0  0  0  0  0  0  0  0  0  0
   59.7480   33.0890   49.2930 C   0  0  0  0  0  0  0  0  0  0  0  0
   59.4640   33.4560   47.8490 C   0  0  0  0  0  0  0  0  0  0  0  0
   59.8430   34.7380   47.4320 C   0  0  0  0  0  0  0  0  0  0  0  0
   59.6350   35.1250   46.1110 C   0  0  0  0  0  0  0  0  0  0  0  0
   59.9690   36.2780   45.7320 O   0  0  0  0  0  0  0  0  0  0  0  0
   59.0870   34.2850   45.2450 O   0  0  0  0  0  0  0  0  0  0  0  0
   58.7140   33.0490   45.5670 C   0  0  0  0  0  0  0  0  0  0  0  0
   58.8920   32.5730   46.8940 C   0  0  0  0  0  0  0  0  0  0  0  0
   58.5020   31.2520   47.2000 C   0  0  0  0  0  0  0  0  0  0  0  0
   57.9440   30.4280   46.2230 C   0  0  0  0  0  0  0  0  0  0  0  0
   57.7600   30.8950   44.9180 C   0  0  0  0  0  0  0  0  0  0  0  0
   57.1960   30.0590   43.9390 C   0  0  0  0  0  0  0  0  0  0  0  0
   57.0160   30.5270   42.6360 C   0  0  0  0  0  0  0  0  0  0  0  0
   57.3960   31.8260   42.2970 C   0  0  0  0  0  0  0  0  0  0  0  0
   57.9580   32.6680   43.2610 C   0  0  0  0  0  0  0  0  0  0  0  0
   58.1460   32.2140   44.5820 C   0  0  0  0  0  0  0  0  0  0  0  0
   64.4610   32.6759   50.6466 H   0  0  0  0  0  0  0  0  0  0  0  0
   63.7532   31.5240   49.4640 H   0  0  0  0  0  0  0  0  0  0  0  0
   65.5219   31.8377   49.4640 H   0  0  0  0  0  0  0  0  0  0  0  0
   64.2423   34.3749   49.1907 H   0  0  0  0  0  0  0  0  0  0  0  0
   65.1924   33.4212   47.9445 H   0  0  0  0  0  0  0  0  0  0  0  0
   62.3790   33.8780   48.2350 H   0  0  0  0  0  0  0  0  0  0  0  0
   63.7141   34.9112   46.5278 H   0  0  0  0  0  0  0  0  0  0  0  0
   64.0663   33.2749   45.8758 H   0  0  0  0  0  0  0  0  0  0  0  0
   62.3816   33.8983   45.8758 H   0  0  0  0  0  0  0  0  0  0  0  0
   62.2355   31.7116   46.6969 H   0  0  0  0  0  0  0  0  0  0  0  0
   63.5121   31.2487   47.9136 H   0  0  0  0  0  0  0  0  0  0  0  0
   60.6829   31.1566   48.2310 H   0  0  0  0  0  0  0  0  0  0  0  0
   61.9660   30.8410   49.4589 H   0  0  0  0  0  0  0  0  0  0  0  0
   61.3430   32.6160   50.4900 H   0  0  0  0  0  0  0  0  0  0  0  0
   59.1523   32.2058   49.5670 H   0  0  0  0  0  0  0  0  0  0  0  0
   59.4798   33.9388   49.9379 H   0  0  0  0  0  0  0  0  0  0  0  0
   60.3035   35.4369   48.1458 H   0  0  0  0  0  0  0  0  0  0  0  0
   58.6397   30.8675   48.2214 H   0  0  0  0  0  0  0  0  0  0  0  0
   57.6459   29.4012   46.4814 H   0  0  0  0  0  0  0  0  0  0  0  0
   56.8957   29.0335   44.2000 H   0  0  0  0  0  0  0  0  0  0  0  0
   56.5729   29.8692   41.8738 H   0  0  0  0  0  0  0  0  0  0  0  0
   57.2530   32.1885   41.2684 H   0  0  0  0  0  0  0  0  0  0  0  0
   58.2553   33.6910   42.9870 H   0  0  0  0  0  0  0  0  0  0  0  0
  1  2  1  0
  2  3  1  0
  3  4  1  0
  3  5  1  0
  5  6  1  0
  6  7  1  0
  7  8  1  0
  8  9  1  0
  9 10  2  0
 10 11  1  0
 11 12  2  0
 11 13  1  0
 13 14  1  0
 14 15  2  0
 15 16  1  0
 16 17  2  0
 17 18  1  0
 18 19  2  0
 19 20  1  0
 20 21  2  0
 21 22  1  0
 22 23  2  0
 15  9  1  0
 23 18  1  0
 23 14  1  0
  1 24  1  0
  1 25  1  0
  1 26  1  0
  2 27  1  0
  2 28  1  0
  3 29  1  1
  4 30  1  0
  4 31  1  0
  4 32  1  0
  5 33  1  0
  5 34  1  0
  6 35  1  0
  6 36  1  0
  7 37  1  0
  8 38  1  0
  8 39  1  0
 10 40  1  0
 16 41  1  0
 17 42  1  0
 19 43  1  0
 20 44  1  0
 21 45  1  0
 22 46  1  0
M  CHG  1   3   1
M  END
>  <UniqueID>  (17) 
17

>  <SMILES>  (17) 
CC[N@@H+](C)CCNCc1cc(=O)oc2c1ccc1ccccc12

>  <Energy>  (17) 
58.66107751778364

>  <Genealogy>  (17) 
CC[NH+](C)CCNCc1cc(=O)oc2c1ccc1ccccc12 (protonated)
CC[N@@H+](C)CCNCc1cc(=O)oc2c1ccc1ccccc12 (chirality)
CC[N@@H+](C)CCNCc1cc(=O)oc2c1ccc1ccccc12 (3D coordinates assigned)
CC[N@@H+](C)CCNCc1cc(=O)oc2c1ccc1ccccc12 (optimized conformer: 58.66107751778364 kcal/mol)

>  <smiles>  (17) 
CCN(C)CCNCc1cc(=O)oc2c1ccc1ccccc12

>  <score_type>  (17) 
oracle

>  <origin>  (17) 
adg

>  <m_score__min__energy>  (17) 
-6.1100000000000003

>  <m_primary>  (17) 
energy

$$$$
17:0
     RDKit          3D

 33 34  0  0  0  0  0  0  0  0999 V2000
   64.2410   32.8810   49.0250 C   0  0  0  0  0  0  0  0  0  0  0  0
   63.7410   33.8260   47.9360 C   0  0  0  0  0  0  0  0  0  0  0  0
   62.9250   33.0690   46.8790 C   0  0  0  0  0  0  0  0  0  0  0  0
   62.4550   31.6940   47.3800 C   0  0  0  0  0  0  0  0  0  0  0  0
   61.1190   31.7290   48.1460 C   0  0  0  0  0  0  0  0  0  0  0  0
   59.9620   31.5390   47.2410 N   0  0  0  0  0  0  0  0  0  0  0  0
   59.4510   30.2690   47.1770 C   0  0  0  0  0  0  0  0  0  0  0  0
   58.3670   29.9620   46.3630 C   0  0  0  0  0  0  0  0  0  0  0  0
   57.7760   30.9540   45.5930 C   0  0  0  0  0  0  0  0  0  0  0  0
   56.7940   30.6600   44.8580 O   0  0  0  0  0  0  0  0  0  0  0  0
   58.2770   32.2650   45.6460 C   0  0  0  0  0  0  0  0  0  0  0  0
   57.6870   33.2870   44.8770 C   0  0  0  0  0  0  0  0  0  0  0  0
   58.1770   34.5900   44.9370 C   0  0  0  0  0  0  0  0  0  0  0  0
   59.2570   34.8890   45.7610 C   0  0  0  0  0  0  0  0  0  0  0  0
   59.8580   33.8910   46.5290 C   0  0  0  0  0  0  0  0  0  0  0  0
   59.3880   32.5550   46.4910 C   0  0  0  0  0  0  0  0  0  0  0  0
   64.0150   33.3081   50.0132 H   0  0  0  0  0  0  0  0  0  0  0  0
   63.7403   31.9068   48.9234 H   0  0  0  0  0  0  0  0  0  0  0  0
   65.3281   32.7469   48.9234 H   0  0  0  0  0  0  0  0  0  0  0  0
   63.1062   34.5985   48.3945 H   0  0  0  0  0  0  0  0  0  0  0  0
   64.6118   34.2832   47.4435 H   0  0  0  0  0  0  0  0  0  0  0  0
   62.0423   33.6704   46.6159 H   0  0  0  0  0  0  0  0  0  0  0  0
   63.5741   32.9054   46.0061 H   0  0  0  0  0  0  0  0  0  0  0  0
   62.3378   31.0306   46.5104 H   0  0  0  0  0  0  0  0  0  0  0  0
   63.2177   31.3353   48.0869 H   0  0  0  0  0  0  0  0  0  0  0  0
   61.1185   30.9264   48.8982 H   0  0  0  0  0  0  0  0  0  0  0  0
   61.0230   32.7161   48.6218 H   0  0  0  0  0  0  0  0  0  0  0  0
   59.9093   29.4742   47.7839 H   0  0  0  0  0  0  0  0  0  0  0  0
   57.9779   28.9337   46.3291 H   0  0  0  0  0  0  0  0  0  0  0  0
   56.8328   33.0547   44.2240 H   0  0  0  0  0  0  0  0  0  0  0  0
   57.7099   35.3819   44.3330 H   0  0  0  0  0  0  0  0  0  0  0  0
   59.6399   35.9192   45.8075 H   0  0  0  0  0  0  0  0  0  0  0  0
   60.7112   34.1459   47.1749 H   0  0  0  0  0  0  0  0  0  0  0  0
  1  2  1  0
  2  3  1  0
  3  4  1  0
  4  5  1  0
  5  6  1  0
  6  7  1  0
  7  8  2  0
  8  9  1  0
  9 10  2  0
  9 11  1  0
 11 12  2  0
 12 13  1  0
 13 14  2  0
 14 15  1  0
 15 16  2  0
 16  6  1  0
 16 11  1  0
  1 17  1  0
  1 18  1  0
  1 19  1  0
  2 20  1  0
  2 21  1  0
  3 22  1  0
  3 23  1  0
  4 24  1  0
  4 25  1  0
  5 26  1  0
  5 27  1  0
  7 28  1  0
  8 29  1  0
 12 30  1  0
 13 31  1  0
 14 32  1  0
 15 33  1  0
M  END
>  <UniqueID>  (18) 
18

>  <SMILES>  (18) 
CCCCCn1ccc(=O)c2ccccc21

>  <Energy>  (18) 
36.5461083121068

>  <Genealogy>  (18) 
CCCCCn1ccc(=O)c2ccccc21 (3D coordinates assigned)
CCCCCn1ccc(=O)c2ccccc21 (optimized conformer: 36.5461083121068 kcal/mol)

>  <smiles>  (18) 
CCCCCn1ccc(=O)c2ccccc21

>  <score_type>  (18) 
oracle

>  <origin>  (18) 
adg

>  <m_score__min__energy>  (18) 
-6.0199999999999996

>  <m_primary>  (18) 
energy

$$$$
18:0
     RDKit          3D

 65 67  0  0  0  0  0  0  0  0999 V2000
   63.3460   33.9070   46.3140 C   0  0  0  0  0  0  0  0  0  0  0  0
   63.6300   33.6730   47.7960 C   0  0  0  0  0  0  0  0  0  0  0  0
   64.0270   32.2790   48.0410 N   0  0  0  0  0  0  0  0  0  0  0  0
   62.9850   31.5700   48.8030 C   0  0  0  0  0  0  0  0  0  0  0  0
   61.6350   31.5090   48.0570 C   0  0  0  0  0  0  0  0  0  0  0  0
   60.8830   30.1720   48.1630 C   0  0  0  0  0  0  0  0  0  0  0  0
   59.4360   30.3300   47.9770 N   0  0  0  0  0  0  0  0  0  0  0  0
   58.7720   30.0910   46.7200 C   0  0  0  0  0  0  0  0  0  0  0  0
   58.5270   31.1640   45.8410 C   0  0  0  0  0  0  0  0  0  0  0  0
   58.8720   32.4880   46.1970 C   0  0  0  0  0  0  0  0  0  0  0  0
   58.7090   33.5360   45.2950 C   0  0  0  0  0  0  0  0  0  0  0  0
   58.2200   33.2850   44.0200 C   0  0  0  0  0  0  0  0  0  0  0  0
   57.8590   31.9910   43.6490 C   0  0  0  0  0  0  0  0  0  0  0  0
   57.9650   30.9090   44.5610 C   0  0  0  0  0  0  0  0  0  0  0  0
   57.5680   29.6310   44.2170 N   0  0  0  0  0  0  0  0  0  0  0  0
   56.7430   29.4170   43.0050 C   0  0  0  0  0  0  0  0  0  0  0  0
   57.8890   28.5610   45.0320 C   0  0  0  0  0  0  0  0  0  0  0  0
   57.7110   27.2220   44.6060 C   0  0  0  0  0  0  0  0  0  0  0  0
   57.9300   26.1480   45.4710 C   0  0  0  0  0  0  0  0  0  0  0  0
   57.7320   24.8050   45.0020 N   0  0  0  0  0  0  0  0  0  0  0  0
   58.7790   23.8020   45.2240 C   0  0  0  0  0  0  0  0  0  0  0  0
   58.4370   22.4930   44.5190 C   0  0  0  0  0  0  0  0  0  0  0  0
   56.5270   24.4710   44.2350 C   0  0  0  0  0  0  0  0  0  0  0  0
   55.3130   24.3790   45.1530 C   0  0  0  0  0  0  0  0  0  0  0  0
   58.3180   26.3800   46.7950 C   0  0  0  0  0  0  0  0  0  0  0  0
   58.4580   25.2810   47.6580 O   0  0  0  0  0  0  0  0  0  0  0  0
   57.3820   24.4640   48.1090 C   0  0  0  0  0  0  0  0  0  0  0  0
   58.5540   27.6970   47.2160 C   0  0  0  0  0  0  0  0  0  0  0  0
   58.4180   28.7850   46.3290 C   0  0  0  0  0  0  0  0  0  0  0  0
   62.5010   34.6032   46.2081 H   0  0  0  0  0  0  0  0  0  0  0  0
   64.2373   34.3363   45.8332 H   0  0  0  0  0  0  0  0  0  0  0  0
   63.0951   32.9500   45.8332 H   0  0  0  0  0  0  0  0  0  0  0  0
   64.4434   34.3406   48.1165 H   0  0  0  0  0  0  0  0  0  0  0  0
   62.7132   33.8825   48.3666 H   0  0  0  0  0  0  0  0  0  0  0  0
   64.9250   32.2650   48.5800 H   0  0  0  0  0  0  0  0  0  0  0  0
   64.1620   31.8110   47.1160 H   0  0  0  0  0  0  0  0  0  0  0  0
   63.3275   30.5423   48.9943 H   0  0  0  0  0  0  0  0  0  0  0  0
   62.8219   32.1266   49.7377 H   0  0  0  0  0  0  0  0  0  0  0  0
   60.9855   32.2971   48.4657 H   0  0  0  0  0  0  0  0  0  0  0  0
   61.8716   31.6401   46.9908 H   0  0  0  0  0  0  0  0  0  0  0  0
   61.2662   29.4885   47.3910 H   0  0  0  0  0  0  0  0  0  0  0  0
   61.0503   29.7713   49.1737 H   0  0  0  0  0  0  0  0  0  0  0  0
   58.9000   30.7950   48.7430 H   0  0  0  0  0  0  0  0  0  0  0  0
   59.2746   32.6929   47.2000 H   0  0  0  0  0  0  0  0  0  0  0  0
   58.9677   34.5629   45.5925 H   0  0  0  0  0  0  0  0  0  0  0  0
   58.1171   34.1104   43.3001 H   0  0  0  0  0  0  0  0  0  0  0  0
   57.4853   31.8051   42.6313 H   0  0  0  0  0  0  0  0  0  0  0  0
   55.7177   29.1510   43.3016 H   0  0  0  0  0  0  0  0  0  0  0  0
   56.7239   30.3399   42.4068 H   0  0  0  0  0  0  0  0  0  0  0  0
   57.1749   28.6012   42.4068 H   0  0  0  0  0  0  0  0  0  0  0  0
   57.3934   27.0239   43.5716 H   0  0  0  0  0  0  0  0  0  0  0  0
   59.7328   24.1841   44.8313 H   0  0  0  0  0  0  0  0  0  0  0  0
   58.8578   23.6093   46.3041 H   0  0  0  0  0  0  0  0  0  0  0  0
   58.2337   21.7147   45.2693 H   0  0  0  0  0  0  0  0  0  0  0  0
   57.5464   22.6373   43.8897 H   0  0  0  0  0  0  0  0  0  0  0  0
   59.2844   22.1832   43.8897 H   0  0  0  0  0  0  0  0  0  0  0  0
   56.3510   25.2519   43.4805 H   0  0  0  0  0  0  0  0  0  0  0  0
   56.6766   23.4965   43.7473 H   0  0  0  0  0  0  0  0  0  0  0  0
   55.6437   24.4041   46.2018 H   0  0  0  0  0  0  0  0  0  0  0  0
   54.6419   25.2289   44.9597 H   0  0  0  0  0  0  0  0  0  0  0  0
   54.7776   23.4377   44.9597 H   0  0  0  0  0  0  0  0  0  0  0  0
   57.3665   24.4523   49.2088 H   0  0  0  0  0  0  0  0  0  0  0  0
   56.4311   24.8697   47.7332 H   0  0  0  0  0  0  0  0  0  0  0  0
   57.5174   23.4391   47.7332 H   0  0  0  0  0  0  0  0  0  0  0  0
   58.8510   27.8849   48.2584 H   0  0  0  0  0  0  0  0  0  0  0  0
  1  2  1  0
  2  3  1  0
  3  4  1  0
  4  5  1  0
  5  6  1  0
  6  7  1  0
  7  8  1  0
  8  9  2  0
  9 10  1  0
 10 11  2  0
 11 12  1  0
 12 13  2  0
 13 14  1  0
 14 15  2  0
 15 16  1  0
 15 17  1  0
 17 18  2  0
 18 19  1  0
 19 20  1  0
 20 21  1  0
 21 22  1  0
 20 23  1  0
 23 24  1  0
 19 25  2  0
 25 26  1  0
 26 27  1  0
 25 28  1  0
 28 29  2  0
 29  8  1  0
 14  9  1  0
 29 17  1  0
  1 30  1  0
  1 31  1  0
  1 32  1  0
  2 33  1  0
  2 34  1  0
  3 35  1  0
  3 36  1  0
  4 37  1  0
  4 38  1  0
  5 39  1  0
  5 40  1  0
  6 41  1  0
  6 42  1  0
  7 43  1  0
 10 44  1  0
 11 45  1  0
 12 46  1  0
 13 47  1  0
 16 48  1  0
 16 49  1  0
 16 50  1  0
 18 51  1  0
 21 52  1  0
 21 53  1  0
 22 54  1  0
 22 55  1  0
 22 56  1  0
 23 57  1  0
 23 58  1  0
 24 59  1  0
 24 60  1  0
 24 61  1  0
 27 62  1  0
 27 63  1  0
 27 64  1  0
 28 65  1  0
M  CHG  2   3   1  15   1
M  END
>  <UniqueID>  (19) 
19

>  <SMILES>  (19) 
CC[NH2+]CCCNc1c2ccccc2[n+](C)c2cc(N(CC)CC)c(OC)cc12

>  <Energy>  (19) 
82.89159964901862

>  <Genealogy>  (19) 
CC[NH2+]CCCNc1c2ccccc2[n+](C)c2cc(N(CC)CC)c(OC)cc12 (protonated)
CC[NH2+]CCCNc1c2ccccc2[n+](C)c2cc(N(CC)CC)c(OC)cc12 (3D coordinates assigned)
CC[NH2+]CCCNc1c2ccccc2[n+](C)c2cc(N(CC)CC)c(OC)cc12 (optimized conformer: 82.89159964901862 kcal/mol)

>  <smiles>  (19) 
CCNCCCNc1c2ccccc2[n+](C)c2cc(N(CC)CC)c(OC)cc12

>  <score_type>  (19) 
oracle

>  <origin>  (19) 
adg

>  <m_score__min__energy>  (19) 
-4.0099999999999998

>  <m_primary>  (19) 
energy

$$$$
19:0
     RDKit          3D

 61 63  0  0  0  0  0  0  0  0999 V2000
   61.1520   33.8530   50.0800 C   0  0  0  0  0  0  0  0  0  0  0  0
   62.4260   33.6730   49.2370 C   0  0  0  0  0  0  0  0  0  0  0  0
   62.6850   32.2760   48.7920 N   0  0  0  0  0  0  0  0  0  0  0  0
   63.3880   32.1900   47.4860 C   0  0  0  0  0  0  0  0  0  0  0  0
   63.4630   33.5330   46.7460 C   0  0  0  0  0  0  0  0  0  0  0  0
   63.4040   31.5070   49.8420 C   0  0  0  0  0  0  0  0  0  0  0  0
   62.5220   30.4440   50.5390 C   0  0  0  0  0  0  0  0  0  0  0  0
   61.4500   30.0260   49.7120 O   0  0  0  0  0  0  0  0  0  0  0  0
   60.2600   29.8350   50.4630 C   0  0  0  0  0  0  0  0  0  0  0  0
   59.1020   29.5000   49.5220 C   0  0  0  0  0  0  0  0  0  0  0  0
   59.5870   29.0020   48.2310 N   0  0  0  0  0  0  0  0  0  0  0  0
   58.8660   29.1870   47.0000 C   0  0  0  0  0  0  0  0  0  0  0  0
   58.1560   28.1090   46.4410 C   0  0  0  0  0  0  0  0  0  0  0  0
   58.2080   26.8560   47.0750 O   0  0  0  0  0  0  0  0  0  0  0  0
   58.5120   25.6240   46.4230 C   0  0  0  0  0  0  0  0  0  0  0  0
   57.4280   28.3030   45.2590 C   0  0  0  0  0  0  0  0  0  0  0  0
   57.4550   29.5270   44.6010 C   0  0  0  0  0  0  0  0  0  0  0  0
   58.2210   30.6100   45.0920 C   0  0  0  0  0  0  0  0  0  0  0  0
   58.8990   30.4380   46.3300 C   0  0  0  0  0  0  0  0  0  0  0  0
   59.5570   31.5350   46.8960 C   0  0  0  0  0  0  0  0  0  0  0  0
   59.5000   32.7860   46.2870 C   0  0  0  0  0  0  0  0  0  0  0  0
   60.0670   33.8990   46.9270 C   0  0  0  0  0  0  0  0  0  0  0  0
   59.9530   35.1680   46.3640 C   0  0  0  0  0  0  0  0  0  0  0  0
   59.2620   35.3390   45.1660 C   0  0  0  0  0  0  0  0  0  0  0  0
   58.7020   34.2370   44.5120 C   0  0  0  0  0  0  0  0  0  0  0  0
   58.8290   32.9300   45.0490 C   0  0  0  0  0  0  0  0  0  0  0  0
   58.2970   31.8190   44.4170 N   0  0  0  0  0  0  0  0  0  0  0  0
   57.8260   31.9210   43.0170 C   0  0  0  0  0  0  0  0  0  0  0  0
   61.4111   33.8164   51.1484 H   0  0  0  0  0  0  0  0  0  0  0  0
   60.6926   34.8250   49.8472 H   0  0  0  0  0  0  0  0  0  0  0  0
   60.4413   33.0464   49.8472 H   0  0  0  0  0  0  0  0  0  0  0  0
   62.3373   34.3068   48.3423 H   0  0  0  0  0  0  0  0  0  0  0  0
   63.2695   33.9543   49.8846 H   0  0  0  0  0  0  0  0  0  0  0  0
   61.7400   31.8400   48.6710 H   0  0  0  0  0  0  0  0  0  0  0  0
   64.4128   31.8321   47.6642 H   0  0  0  0  0  0  0  0  0  0  0  0
   62.8121   31.5005   46.8513 H   0  0  0  0  0  0  0  0  0  0  0  0
   63.5088   34.3529   47.4779 H   0  0  0  0  0  0  0  0  0  0  0  0
   64.3637   33.5541   46.1149 H   0  0  0  0  0  0  0  0  0  0  0  0
   62.5702   33.6543   46.1149 H   0  0  0  0  0  0  0  0  0  0  0  0
   64.2606   30.9980   49.3761 H   0  0  0  0  0  0  0  0  0  0  0  0
   63.7164   32.2259   50.6138 H   0  0  0  0  0  0  0  0  0  0  0  0
   63.1440   29.5706   50.7845 H   0  0  0  0  0  0  0  0  0  0  0  0
   62.0972   30.8946   51.4481 H   0  0  0  0  0  0  0  0  0  0  0  0
   60.4050   29.0073   51.1728 H   0  0  0  0  0  0  0  0  0  0  0  0
   60.0256   30.7582   51.0132 H   0  0  0  0  0  0  0  0  0  0  0  0
   58.4730   28.7282   49.9896 H   0  0  0  0  0  0  0  0  0  0  0  0
   58.5249   30.4192   49.3432 H   0  0  0  0  0  0  0  0  0  0  0  0
   60.5410   28.5840   48.1940 H   0  0  0  0  0  0  0  0  0  0  0  0
   58.7037   24.8472   47.1779 H   0  0  0  0  0  0  0  0  0  0  0  0
   57.6614   25.3223   45.7942 H   0  0  0  0  0  0  0  0  0  0  0  0
   59.4054   25.7526   45.7942 H   0  0  0  0  0  0  0  0  0  0  0  0
   56.8287   27.4774   44.8476 H   0  0  0  0  0  0  0  0  0  0  0  0
   56.8686   29.6561   43.6794 H   0  0  0  0  0  0  0  0  0  0  0  0
   60.1242   31.4084   47.8299 H   0  0  0  0  0  0  0  0  0  0  0  0
   60.6041   33.7685   47.8780 H   0  0  0  0  0  0  0  0  0  0  0  0
   60.4083   36.0350   46.8650 H   0  0  0  0  0  0  0  0  0  0  0  0
   59.1566   36.3447   44.7331 H   0  0  0  0  0  0  0  0  0  0  0  0
   58.1558   34.3855   43.5688 H   0  0  0  0  0  0  0  0  0  0  0  0
   56.7510   32.1538   43.0079 H   0  0  0  0  0  0  0  0  0  0  0  0
   58.3787   32.7203   42.5015 H   0  0  0  0  0  0  0  0  0  0  0  0
   57.9985   30.9647   42.5015 H   0  0  0  0  0  0  0  0  0  0  0  0
  1  2  1  0
  2  3  1  0
  3  4  1  0
  4  5  1  0
  3  6  1  0
  6  7  1  0
  7  8  1  0
  8  9  1  0
  9 10  1  0
 10 11  1  0
 11 12  1  0
 12 13  2  0
 13 14  1  0
 14 15  1  0
 13 16  1  0
 16 17  2  0
 17 18  1  0
 18 19  2  0
 19 20  1  0
 20 21  2  0
 21 22  1  0
 22 23  2  0
 23 24  1  0
 24 25  2  0
 25 26  1  0
 26 27  2  0
 27 28  1  0
 19 12  1  0
 26 21  1  0
 27 18  1  0
  1 29  1  0
  1 30  1  0
  1 31  1  0
  2 32  1  0
  2 33  1  0
  3 34  1  0
  4 35  1  0
  4 36  1  0
  5 37  1  0
  5 38  1  0
  5 39  1  0
  6 40  1  0
  6 41  1  0
  7 42  1  0
  7 43  1  0
  9 44  1  0
  9 45  1  0
 10 46  1  0
 10 47  1  0
 11 48  1  0
 15 49  1  0
 15 50  1  0
 15 51  1  0
 16 52  1  0
 17 53  1  0
 20 54  1  0
 22 55  1  0
 23 56  1  0
 24 57  1  0
 25 58  1  0
 28 59  1  0
 28 60  1  0
 28 61  1  0
M  CHG  2   3   1  27   1
M  END
>  <UniqueID>  (20) 
20

>  <SMILES>  (20) 
CC[NH+](CC)CCOCCNc1c(OC)ccc2c1cc1ccccc1[n+]2C

>  <Energy>  (20) 
83.89117887897604

>  <Genealogy>  (20) 
CC[NH+](CC)CCOCCNc1c(OC)ccc2c1cc1ccccc1[n+]2C (protonated)
CC[NH+](CC)CCOCCNc1c(OC)ccc2c1cc1ccccc1[n+]2C (3D coordinates assigned)
CC[NH+](CC)CCOCCNc1c(OC)ccc2c1cc1ccccc1[n+]2C (optimized conformer: 83.89117887897604 kcal/mol)

>  <smiles>  (20) 
CCN(CC)CCOCCNc1c(OC)ccc2c1cc1ccccc1[n+]2C

>  <score_type>  (20) 
oracle

>  <origin>  (20) 
adg

>  <m_score__min__energy>  (20) 
-3.6400000000000001

>  <m_primary>  (20) 
energy

$$$$
20:0
     RDKit          3D

 49 50  0  0  0  0  0  0  0  0999 V2000
   57.8630   26.5230   47.0850 C   0  0  0  0  0  0  0  0  0  0  0  0
   56.9990   26.5960   45.8330 C   0  0  0  0  0  0  0  0  0  0  0  0
   57.7890   25.6590   44.4780 S   0  0  0  0  0  0  0  0  0  0  0  0
   58.1060   27.1280   43.4860 C   0  0  0  0  0  0  0  0  0  0  0  0
   58.3590   26.9710   42.2600 O   0  0  0  0  0  0  0  0  0  0  0  0
   58.0450   28.4960   44.0660 C   0  0  0  0  0  0  0  0  0  0  0  0
   56.9500   29.3330   43.7810 C   0  0  0  0  0  0  0  0  0  0  0  0
   56.8410   30.5900   44.3840 C   0  0  0  0  0  0  0  0  0  0  0  0
   57.8030   31.0250   45.3010 C   0  0  0  0  0  0  0  0  0  0  0  0
   57.6000   32.2600   45.9350 O   0  0  0  0  0  0  0  0  0  0  0  0
   57.2560   33.4830   45.2890 C   0  0  0  0  0  0  0  0  0  0  0  0
   58.5230   34.2610   44.8690 C   0  0  0  0  0  0  0  0  0  0  0  0
   59.4100   34.7270   46.0540 C   0  0  0  0  0  0  0  0  0  0  0  0
   59.6270   33.6730   47.0800 N   0  0  0  0  0  0  0  0  0  0  0  0
   59.6780   34.2470   48.4580 C   0  0  0  0  0  0  0  0  0  0  0  0
   60.5530   33.4090   49.4140 C   0  0  0  0  0  0  0  0  0  0  0  0
   61.9520   33.2790   48.9330 N   0  0  0  0  0  0  0  0  0  0  0  0
   62.8520   34.2160   49.6230 C   0  0  0  0  0  0  0  0  0  0  0  0
   62.0860   33.4050   47.4670 C   0  0  0  0  0  0  0  0  0  0  0  0
   60.8390   32.8680   46.7540 C   0  0  0  0  0  0  0  0  0  0  0  0
   58.9270   30.2200   45.5480 C   0  0  0  0  0  0  0  0  0  0  0  0
   59.0450   28.9660   44.9400 C   0  0  0  0  0  0  0  0  0  0  0  0
   57.2215   26.5772   47.9769 H   0  0  0  0  0  0  0  0  0  0  0  0
   58.4202   25.5746   47.0912 H   0  0  0  0  0  0  0  0  0  0  0  0
   58.5714   27.3645   47.0912 H   0  0  0  0  0  0  0  0  0  0  0  0
   56.0099   26.1647   46.0466 H   0  0  0  0  0  0  0  0  0  0  0  0
   56.8881   27.6476   45.5299 H   0  0  0  0  0  0  0  0  0  0  0  0
   56.1738   28.9957   43.0784 H   0  0  0  0  0  0  0  0  0  0  0  0
   55.9911   31.2423   44.1348 H   0  0  0  0  0  0  0  0  0  0  0  0
   56.6565   33.2611   44.3938 H   0  0  0  0  0  0  0  0  0  0  0  0
   56.6810   34.1023   45.9931 H   0  0  0  0  0  0  0  0  0  0  0  0
   59.1281   33.6095   44.2214 H   0  0  0  0  0  0  0  0  0  0  0  0
   58.1777   35.1716   44.3576 H   0  0  0  0  0  0  0  0  0  0  0  0
   60.3889   35.0339   45.6571 H   0  0  0  0  0  0  0  0  0  0  0  0
   58.8825   35.5566   46.5475 H   0  0  0  0  0  0  0  0  0  0  0  0
   58.8120   33.0200   47.0430 H   0  0  0  0  0  0  0  0  0  0  0  0
   60.0918   35.2646   48.4014 H   0  0  0  0  0  0  0  0  0  0  0  0
   58.6532   34.2495   48.8577 H   0  0  0  0  0  0  0  0  0  0  0  0
   60.5624   33.8943   50.4011 H   0  0  0  0  0  0  0  0  0  0  0  0
   60.1208   32.3988   49.4658 H   0  0  0  0  0  0  0  0  0  0  0  0
   62.7394   34.0987   50.7109 H   0  0  0  0  0  0  0  0  0  0  0  0
   63.8926   34.0028   49.3370 H   0  0  0  0  0  0  0  0  0  0  0  0
   62.5971   35.2471   49.3370 H   0  0  0  0  0  0  0  0  0  0  0  0
   62.2202   34.4655   47.2077 H   0  0  0  0  0  0  0  0  0  0  0  0
   62.9566   32.8163   47.1424 H   0  0  0  0  0  0  0  0  0  0  0  0
   61.0075   32.9016   45.6675 H   0  0  0  0  0  0  0  0  0  0  0  0
   60.6670   31.8364   47.0948 H   0  0  0  0  0  0  0  0  0  0  0  0
   59.7185   30.5775   46.2230 H   0  0  0  0  0  0  0  0  0  0  0  0
   59.9265   28.3411   45.1461 H   0  0  0  0  0  0  0  0  0  0  0  0
  1  2  1  0
  2  3  1  0
  3  4  1  0
  4  5  2  0
  4  6  1  0
  6  7  2  0
  7  8  1  0
  8  9  2  0
  9 10  1  0
 10 11  1  0
 11 12  1  0
 12 13  1  0
 13 14  1  0
 14 15  1  0
 15 16  1  0
 16 17  1  0
 17 18  1  0
 17 19  1  0
 19 20  1  0
  9 21  1  0
 21 22  2  0
 22  6  1  0
 20 14  1  0
  1 23  1  0
  1 24  1  0
  1 25  1  0
  2 26  1  0
  2 27  1  0
  7 28  1  0
  8 29  1  0
 11 30  1  0
 11 31  1  0
 12 32  1  0
 12 33  1  0
 13 34  1  0
 13 35  1  0
 14 36  1  0
 15 37  1  0
 15 38  1  0
 16 39  1  0
 16 40  1  0
 18 41  1  0
 18 42  1  0
 18 43  1  0
 19 44  1  0
 19 45  1  0
 20 46  1  0
 20 47  1  0
 21 48  1  0
 22 49  1  0
M  CHG  1  14   1
M  END
>  <UniqueID>  (21) 
21

>  <SMILES>  (21) 
CCSC(=O)c1ccc(OCCC[NH+]2CCN(C)CC2)cc1

>  <Energy>  (21) 
59.70933698854262

>  <Genealogy>  (21) 
CCSC(=O)c1ccc(OCCC[NH+]2CCN(C)CC2)cc1 (protonated)
CCSC(=O)c1ccc(OCCC[NH+]2CCN(C)CC2)cc1 (3D coordinates assigned)
CCSC(=O)c1ccc(OCCC[NH+]2CCN(C)CC2)cc1 (nonaromatic ring conformer: 59.70933698854262 kcal/mol)

>  <smiles>  (21) 
CCSC(=O)c1ccc(OCCCN2CCN(C)CC2)cc1

>  <score_type>  (21) 
oracle

>  <origin>  (21) 
adg

>  <m_score__min__energy>  (21) 
-5.3700000000000001

>  <m_primary>  (21) 
energy

$$$$
21:0
     RDKit          3D

 67 70  0  0  0  0  0  0  0  0999 V2000
   63.0160   33.2860   47.4400 C   0  0  0  0  0  0  0  0  0  0  0  0
   62.3690   33.4630   48.8120 C   0  0  0  0  0  0  0  0  0  0  0  0
   61.3720   32.4130   49.0640 N   0  0  0  0  0  0  0  0  0  0  0  0
   61.7070   31.1340   48.4100 C   0  0  0  0  0  0  0  0  0  0  0  0
   60.4780   30.2190   48.3720 C   0  0  0  0  0  0  0  0  0  0  0  0
   59.2340   30.9950   48.2170 N   0  0  0  0  0  0  0  0  0  0  0  0
   59.0030   31.3080   46.8240 C   0  0  0  0  0  0  0  0  0  0  0  0
   59.0830   32.6450   46.3280 C   0  0  0  0  0  0  0  0  0  0  0  0
   59.5430   33.7080   47.1410 C   0  0  0  0  0  0  0  0  0  0  0  0
   59.6400   35.0040   46.6420 C   0  0  0  0  0  0  0  0  0  0  0  0
   59.2960   35.2760   45.3250 C   0  0  0  0  0  0  0  0  0  0  0  0
   58.8440   34.2550   44.4930 C   0  0  0  0  0  0  0  0  0  0  0  0
   58.7110   32.9250   44.9670 C   0  0  0  0  0  0  0  0  0  0  0  0
   58.2490   31.9130   44.1430 N   0  0  0  0  0  0  0  0  0  0  0  0
   57.7230   32.1960   42.7940 C   0  0  0  0  0  0  0  0  0  0  0  0
   58.3150   30.6230   44.5960 C   0  0  0  0  0  0  0  0  0  0  0  0
   58.0600   29.5110   43.8650 N   0  0  0  0  0  0  0  0  0  0  0  0
   58.2710   28.4790   44.7010 C   0  0  0  0  0  0  0  0  0  0  0  0
   58.1680   27.1290   44.3780 C   0  0  0  0  0  0  0  0  0  0  0  0
   58.4800   26.1740   45.3590 C   0  0  0  0  0  0  0  0  0  0  0  0
   58.3730   24.8180   45.0110 O   0  0  0  0  0  0  0  0  0  0  0  0
   57.4030   24.2570   44.1270 C   0  0  0  0  0  0  0  0  0  0  0  0
   56.8560   22.8980   44.6260 C   0  0  0  0  0  0  0  0  0  0  0  0
   57.7040   21.6940   44.3480 N   0  0  0  0  0  0  0  0  0  0  0  0
   59.1490   22.0090   44.4620 C   0  0  0  0  0  0  0  0  0  0  0  0
   57.3760   20.6650   45.3690 C   0  0  0  0  0  0  0  0  0  0  0  0
   57.4250   21.1200   43.0090 C   0  0  0  0  0  0  0  0  0  0  0  0
   58.8910   26.6060   46.6470 C   0  0  0  0  0  0  0  0  0  0  0  0
   58.9960   27.9760   46.9470 C   0  0  0  0  0  0  0  0  0  0  0  0
   58.6610   28.9060   45.9530 C   0  0  0  0  0  0  0  0  0  0  0  0
   58.6870   30.3030   45.8920 C   0  0  0  0  0  0  0  0  0  0  0  0
   64.0700   32.9976   47.5661 H   0  0  0  0  0  0  0  0  0  0  0  0
   62.4850   32.5001   46.8828 H   0  0  0  0  0  0  0  0  0  0  0  0
   62.9590   34.2327   46.8828 H   0  0  0  0  0  0  0  0  0  0  0  0
   63.1485   33.4121   49.5865 H   0  0  0  0  0  0  0  0  0  0  0  0
   61.8633   34.4395   48.8375 H   0  0  0  0  0  0  0  0  0  0  0  0
   61.3380   32.2520   50.0970 H   0  0  0  0  0  0  0  0  0  0  0  0
   62.0458   31.3298   47.3819 H   0  0  0  0  0  0  0  0  0  0  0  0
   62.5054   30.6379   48.9814 H   0  0  0  0  0  0  0  0  0  0  0  0
   60.5747   29.5248   47.5242 H   0  0  0  0  0  0  0  0  0  0  0  0
   60.4265   29.6689   49.3232 H   0  0  0  0  0  0  0  0  0  0  0  0
   59.2730   31.8690   48.7850 H   0  0  0  0  0  0  0  0  0  0  0  0
   58.4160   30.4780   48.6050 H   0  0  0  0  0  0  0  0  0  0  0  0
   59.8285   33.5070   48.1841 H   0  0  0  0  0  0  0  0  0  0  0  0
   59.9911   35.8168   47.2948 H   0  0  0  0  0  0  0  0  0  0  0  0
   59.3808   36.3019   44.9372 H   0  0  0  0  0  0  0  0  0  0  0  0
   58.5853   34.4843   43.4487 H   0  0  0  0  0  0  0  0  0  0  0  0
   56.7572   32.7156   42.8786 H   0  0  0  0  0  0  0  0  0  0  0  0
   58.4354   32.8326   42.2488 H   0  0  0  0  0  0  0  0  0  0  0  0
   57.5843   31.2507   42.2488 H   0  0  0  0  0  0  0  0  0  0  0  0
   57.8100   29.4310   42.8550 H   0  0  0  0  0  0  0  0  0  0  0  0
   57.8482   26.8161   43.3731 H   0  0  0  0  0  0  0  0  0  0  0  0
   56.5633   24.9613   44.0331 H   0  0  0  0  0  0  0  0  0  0  0  0
   57.8967   24.0817   43.1598 H   0  0  0  0  0  0  0  0  0  0  0  0
   56.7248   22.9702   45.7158 H   0  0  0  0  0  0  0  0  0  0  0  0
   55.9246   22.7346   44.0640 H   0  0  0  0  0  0  0  0  0  0  0  0
   59.4283   22.0699   45.5242 H   0  0  0  0  0  0  0  0  0  0  0  0
   59.7364   21.2178   43.9732 H   0  0  0  0  0  0  0  0  0  0  0  0
   59.3538   22.9729   43.9732 H   0  0  0  0  0  0  0  0  0  0  0  0
   57.5115   21.0899   46.3745 H   0  0  0  0  0  0  0  0  0  0  0  0
   56.3312   20.3445   45.2441 H   0  0  0  0  0  0  0  0  0  0  0  0
   58.0426   19.7990   45.2441 H   0  0  0  0  0  0  0  0  0  0  0  0
   56.9468   20.1361   43.1242 H   0  0  0  0  0  0  0  0  0  0  0  0
   56.7529   21.7917   42.4549 H   0  0  0  0  0  0  0  0  0  0  0  0
   58.3684   21.0065   42.4549 H   0  0  0  0  0  0  0  0  0  0  0  0
   59.1302   25.8605   47.4197 H   0  0  0  0  0  0  0  0  0  0  0  0
   59.3334   28.3102   47.9392 H   0  0  0  0  0  0  0  0  0  0  0  0
  1  2  1  0
  2  3  1  0
  3  4  1  0
  4  5  1  0
  5  6  1  0
  6  7  1  0
  7  8  2  0
  8  9  1  0
  9 10  2  0
 10 11  1  0
 11 12  2  0
 12 13  1  0
 13 14  2  0
 14 15  1  0
 14 16  1  0
 16 17  1  0
 17 18  1  0
 18 19  2  0
 19 20  1  0
 20 21  1  0
 21 22  1  0
 22 23  1  0
 23 24  1  0
 24 25  1  0
 24 26  1  0
 24 27  1  0
 20 28  2  0
 28 29  1  0
 29 30  2  0
 30 31  1  0
 31  7  1  0
 13  8  1  0
 31 16  2  0
 30 18  1  0
  1 32  1  0
  1 33  1  0
  1 34  1  0
  2 35  1  0
  2 36  1  0
  3 37  1  0
  4 38  1  0
  4 39  1  0
  5 40  1  0
  5 41  1  0
  6 42  1  0
  6 43  1  0
  9 44  1  0
 10 45  1  0
 11 46  1  0
 12 47  1  0
 15 48  1  0
 15 49  1  0
 15 50  1  0
 17 51  1  0
 19 52  1  0
 22 53  1  0
 22 54  1  0
 23 55  1  0
 23 56  1  0
 25 57  1  0
 25 58  1  0
 25 59  1  0
 26 60  1  0
 26 61  1  0
 26 62  1  0
 27 63  1  0
 27 64  1  0
 27 65  1  0
 28 66  1  0
 29 67  1  0
M  CHG  3   6   1  14   1  24   1
M  END
>  <UniqueID>  (22) 
22

>  <SMILES>  (22) 
CCNCC[NH2+]c1c2ccccc2[n+](C)c2[nH]c3cc(OCC[N+](C)(C)C)ccc3c12

>  <Energy>  (22) 
131.43023048818435

>  <Genealogy>  (22) 
CCNCC[NH2+]c1c2ccccc2[n+](C)c2[nH]c3cc(OCC[N+](C)(C)C)ccc3c12 (protonated)
CCNCC[NH2+]c1c2ccccc2[n+](C)c2[nH]c3cc(OCC[N+](C)(C)C)ccc3c12 (3D coordinates assigned)
CCNCC[NH2+]c1c2ccccc2[n+](C)c2[nH]c3cc(OCC[N+](C)(C)C)ccc3c12 (optimized conformer: 131.43023048818435 kcal/mol)

>  <smiles>  (22) 
CCNCCNc1c2ccccc2[n+](C)c2[nH]c3cc(OCC[N+](C)(C)C)ccc3c12

>  <score_type>  (22) 
oracle

>  <origin>  (22) 
adg

>  <m_score__min__energy>  (22) 
-3.3399999999999999

>  <m_primary>  (22) 
energy

$$$$
22:0
     RDKit          3D

 54 55  0  0  0  0  0  0  0  0999 V2000
   62.8970   33.8660   46.3850 C   0  0  0  0  0  0  0  0  0  0  0  0
   63.3310   32.5890   47.1050 C   0  0  0  0  0  0  0  0  0  0  0  0
   62.5730   32.4020   48.3640 N   0  0  0  0  0  0  0  0  0  0  0  0
   63.3700   31.6760   49.3860 C   0  0  0  0  0  0  0  0  0  0  0  0
   64.3670   32.6310   50.0290 C   0  0  0  0  0  0  0  0  0  0  0  0
   62.0830   33.7040   48.8730 C   0  0  0  0  0  0  0  0  0  0  0  0
   60.8290   33.5210   49.7330 C   0  0  0  0  0  0  0  0  0  0  0  0
   60.4890   32.1490   49.7670 O   0  0  0  0  0  0  0  0  0  0  0  0
   60.0600   31.7740   51.0650 C   0  0  0  0  0  0  0  0  0  0  0  0
   60.1190   30.2590   51.2370 C   0  0  0  0  0  0  0  0  0  0  0  0
   59.3610   29.6380   50.2150 O   0  0  0  0  0  0  0  0  0  0  0  0
   60.1570   28.7740   49.4250 C   0  0  0  0  0  0  0  0  0  0  0  0
   60.4670   29.3550   48.0300 C   0  0  0  0  0  0  0  0  0  0  0  0
   60.0230   30.7540   47.8770 N   0  0  0  0  0  0  0  0  0  0  0  0
   59.0100   30.9030   46.8520 C   0  0  0  0  0  0  0  0  0  0  0  0
   58.2490   29.7810   46.4760 C   0  0  0  0  0  0  0  0  0  0  0  0
   57.2590   29.8970   45.5020 C   0  0  0  0  0  0  0  0  0  0  0  0
   56.5780   28.8910   45.1710 O   0  0  0  0  0  0  0  0  0  0  0  0
   57.0240   31.0930   44.9080 N   0  0  0  0  0  0  0  0  0  0  0  0
   57.7300   32.2080   45.2300 C   0  0  0  0  0  0  0  0  0  0  0  0
   57.4420   33.4160   44.5840 C   0  0  0  0  0  0  0  0  0  0  0  0
   58.1560   34.5720   44.9020 C   0  0  0  0  0  0  0  0  0  0  0  0
   59.1550   34.5300   45.8750 C   0  0  0  0  0  0  0  0  0  0  0  0
   59.4490   33.3320   46.5360 C   0  0  0  0  0  0  0  0  0  0  0  0
   58.7460   32.1500   46.2190 C   0  0  0  0  0  0  0  0  0  0  0  0
   62.6358   34.6347   47.1272 H   0  0  0  0  0  0  0  0  0  0  0  0
   63.7219   34.2301   45.7549 H   0  0  0  0  0  0  0  0  0  0  0  0
   62.0211   33.6520   45.7549 H   0  0  0  0  0  0  0  0  0  0  0  0
   63.1515   31.7266   46.4462 H   0  0  0  0  0  0  0  0  0  0  0  0
   64.4000   32.6726   47.3503 H   0  0  0  0  0  0  0  0  0  0  0  0
   62.6970   31.2749   50.1581 H   0  0  0  0  0  0  0  0  0  0  0  0
   63.9136   30.8490   48.9058 H   0  0  0  0  0  0  0  0  0  0  0  0
   64.2908   32.5580   51.1239 H   0  0  0  0  0  0  0  0  0  0  0  0
   65.3864   32.3638   49.7137 H   0  0  0  0  0  0  0  0  0  0  0  0
   64.1439   33.6610   49.7137 H   0  0  0  0  0  0  0  0  0  0  0  0
   62.8711   34.1719   49.4813 H   0  0  0  0  0  0  0  0  0  0  0  0
   61.8285   34.3424   48.0141 H   0  0  0  0  0  0  0  0  0  0  0  0
   61.0276   33.8770   50.7547 H   0  0  0  0  0  0  0  0  0  0  0  0
   59.9972   34.0990   49.3040 H   0  0  0  0  0  0  0  0  0  0  0  0
   60.7138   32.2478   51.8121 H   0  0  0  0  0  0  0  0  0  0  0  0
   59.0200   32.1048   51.2026 H   0  0  0  0  0  0  0  0  0  0  0  0
   61.1646   29.9232   51.1735 H   0  0  0  0  0  0  0  0  0  0  0  0
   59.7048   29.9851   52.2185 H   0  0  0  0  0  0  0  0  0  0  0  0
   61.1069   28.5937   49.9496 H   0  0  0  0  0  0  0  0  0  0  0  0
   59.5892   27.8435   49.2773 H   0  0  0  0  0  0  0  0  0  0  0  0
   61.5538   29.3121   47.8659 H   0  0  0  0  0  0  0  0  0  0  0  0
   59.9166   28.7523   47.2925 H   0  0  0  0  0  0  0  0  0  0  0  0
   59.6710   31.1090   48.7970 H   0  0  0  0  0  0  0  0  0  0  0  0
   60.8440   31.3580   47.6450 H   0  0  0  0  0  0  0  0  0  0  0  0
   58.4363   28.8077   46.9530 H   0  0  0  0  0  0  0  0  0  0  0  0
   56.6493   33.4542   43.8223 H   0  0  0  0  0  0  0  0  0  0  0  0
   57.9311   35.5167   44.3853 H   0  0  0  0  0  0  0  0  0  0  0  0
   59.7147   35.4436   46.1240 H   0  0  0  0  0  0  0  0  0  0  0  0
   60.2329   33.3115   47.3074 H   0  0  0  0  0  0  0  0  0  0  0  0
  1  2  1  0
  2  3  1  0
  3  4  1  0
  4  5  1  0
  3  6  1  0
  6  7  1  0
  7  8  1  0
  8  9  1  0
  9 10  1  0
 10 11  1  0
 11 12  1  0
 12 13  1  0
 13 14  1  0
 14 15  1  0
 15 16  2  0
 16 17  1  0
 17 18  2  0
 17 19  1  0
 19 20  1  0
 20 21  2  0
 21 22  1  0
 22 23  2  0
 23 24  1  0
 24 25  2  0
 25 15  1  0
 25 20  1  0
  1 26  1  0
  1 27  1  0
  1 28  1  0
  2 29  1  0
  2 30  1  0
  4 31  1  0
  4 32  1  0
  5 33  1  0
  5 34  1  0
  5 35  1  0
  6 36  1  0
  6 37  1  0
  7 38  1  0
  7 39  1  0
  9 40  1  0
  9 41  1  0
 10 42  1  0
 10 43  1  0
 12 44  1  0
 12 45  1  0
 13 46  1  0
 13 47  1  0
 14 48  1  0
 14 49  1  0
 16 50  1  0
 21 51  1  0
 22 52  1  0
 23 53  1  0
 24 54  1  0
M  CHG  2  14   1  19  -1
M  END
>  <UniqueID>  (23) 
23

>  <SMILES>  (23) 
CCN(CC)CCOCCOCC[NH2+]c1cc(=O)[n-]c2ccccc12

>  <Energy>  (23) 
57.10794410378098

>  <Genealogy>  (23) 
CCN(CC)CCOCCOCC[NH2+]c1cc(=O)[n-]c2ccccc12 (protonated)
CCN(CC)CCOCCOCC[NH2+]c1cc(=O)[n-]c2ccccc12 (3D coordinates assigned)
CCN(CC)CCOCCOCC[NH2+]c1cc(=O)[n-]c2ccccc12 (optimized conformer: 57.10794410378098 kcal/mol)

>  <smiles>  (23) 
CCN(CC)CCOCCOCCNc1cc(=O)[nH]c2ccccc12

>  <score_type>  (23) 
oracle

>  <origin>  (23) 
adg

>  <m_score__min__energy>  (23) 
-6.46

>  <m_primary>  (23) 
energy

$$$$
23:0
     RDKit          3D

 29 30  0  0  0  0  0  0  0  0999 V2000
   57.0360   33.4800   45.7140 C   0  0  0  0  0  0  0  0  0  0  0  0
   57.9300   33.3810   44.4800 C   0  0  0  0  0  0  0  0  0  0  0  0
   57.5890   32.1980   43.6790 N   0  0  0  0  0  0  0  0  0  0  0  0
   57.7530   31.0040   44.4690 C   0  0  0  0  0  0  0  0  0  0  0  0
   58.9520   30.7670   45.1590 C   0  0  0  0  0  0  0  0  0  0  0  0
   59.1270   29.5990   45.9040 C   0  0  0  0  0  0  0  0  0  0  0  0
   58.1050   28.6270   45.9700 C   0  0  0  0  0  0  0  0  0  0  0  0
   58.2360   27.4220   46.7140 C   0  0  0  0  0  0  0  0  0  0  0  0
   59.4920   27.0960   47.5000 C   0  0  0  0  0  0  0  0  0  0  0  0
   59.8140   28.1580   48.3270 F   0  0  0  0  0  0  0  0  0  0  0  0
   60.5760   26.8570   46.6710 F   0  0  0  0  0  0  0  0  0  0  0  0
   59.2830   25.9630   48.2670 F   0  0  0  0  0  0  0  0  0  0  0  0
   57.1610   26.5130   46.7130 C   0  0  0  0  0  0  0  0  0  0  0  0
   55.9990   26.7970   45.9950 C   0  0  0  0  0  0  0  0  0  0  0  0
   55.0400   25.9800   45.9970 O   0  0  0  0  0  0  0  0  0  0  0  0
   55.8970   27.9520   45.2940 N   0  0  0  0  0  0  0  0  0  0  0  0
   56.9010   28.8650   45.2610 C   0  0  0  0  0  0  0  0  0  0  0  0
   56.7350   30.0390   44.5180 C   0  0  0  0  0  0  0  0  0  0  0  0
   57.6543   33.4115   46.6212 H   0  0  0  0  0  0  0  0  0  0  0  0
   56.5037   34.4426   45.7049 H   0  0  0  0  0  0  0  0  0  0  0  0
   56.3060   32.6572   45.7049 H   0  0  0  0  0  0  0  0  0  0  0  0
   57.7961   34.2831   43.8650 H   0  0  0  0  0  0  0  0  0  0  0  0
   58.9756   33.2925   44.8099 H   0  0  0  0  0  0  0  0  0  0  0  0
   58.2100   32.1500   42.8350 H   0  0  0  0  0  0  0  0  0  0  0  0
   56.5990   32.2690   43.3460 H   0  0  0  0  0  0  0  0  0  0  0  0
   59.7625   31.5093   45.1124 H   0  0  0  0  0  0  0  0  0  0  0  0
   60.0706   29.4345   46.4449 H   0  0  0  0  0  0  0  0  0  0  0  0
   57.2376   25.5742   47.2811 H   0  0  0  0  0  0  0  0  0  0  0  0
   55.7979   30.2072   43.9671 H   0  0  0  0  0  0  0  0  0  0  0  0
  1  2  1  0
  2  3  1  0
  3  4  1  0
  4  5  2  0
  5  6  1  0
  6  7  2  0
  7  8  1  0
  8  9  1  0
  9 10  1  0
  9 11  1  0
  9 12  1  0
  8 13  2  0
 13 14  1  0
 14 15  2  0
 14 16  1  0
 16 17  1  0
 17 18  2  0
 18  4  1  0
 17  7  1  0
  1 19  1  0
  1 20  1  0
  1 21  1  0
  2 22  1  0
  2 23  1  0
  3 24  1  0
  3 25  1  0
  5 26  1  0
  6 27  1  0
 13 28  1  0
 18 29  1  0
M  CHG  2   3   1  16  -1
M  END
>  <UniqueID>  (24) 
24

>  <SMILES>  (24) 
CC[NH2+]c1ccc2c(C(F)(F)F)cc(=O)[n-]c2c1

>  <Energy>  (24) 
34.258742472940874

>  <Genealogy>  (24) 
CC[NH2+]c1ccc2c(C(F)(F)F)cc(=O)[n-]c2c1 (protonated)
CC[NH2+]c1ccc2c(C(F)(F)F)cc(=O)[n-]c2c1 (3D coordinates assigned)
CC[NH2+]c1ccc2c(C(F)(F)F)cc(=O)[n-]c2c1 (optimized conformer: 34.258742472940874 kcal/mol)

>  <smiles>  (24) 
CCNc1ccc2c(C(F)(F)F)cc(=O)[nH]c2c1

>  <score_type>  (24) 
oracle

>  <origin>  (24) 
adg

>  <m_score__min__energy>  (24) 
-6.1500000000000004

>  <m_primary>  (24) 
energy

$$$$
