0:0
     RDKit          3D

 42 43  0  0  0  0  0  0  0  0999 V2000
   62.4200   31.7900   47.8740 C   0  0  0  0  0  0  0  0  0  0  0  0
   62.1360   32.9530   46.9150 C   0  0  0  0  0  0  0  0  0  0  0  0
   63.3910   33.8280   46.7580 C   0  0  0  0  0  0  0  0  0  0  0  0
   60.9310   33.7830   47.4060 C   0  0  0  0  0  0  0  0  0  0  0  0
   59.7320   33.4570   46.5950 N   0  0  0  0  0  0  0  0  0  0  0  0
   59.4970   34.4330   45.5080 C   0  0  0  0  0  0  0  0  0  0  0  0
   58.4900   33.8450   44.5020 C   0  0  0  0  0  0  0  0  0  0  0  0
   57.6080   32.8790   45.1690 N   0  0  0  0  0  0  0  0  0  0  0  0
   57.4440   31.5710   44.6140 C   0  0  0  0  0  0  0  0  0  0  0  0
   56.2760   31.0390   44.4970 N   0  0  0  0  0  0  0  0  0  0  0  0
   56.2940   29.6370   44.1250 C   0  0  0  0  0  0  0  0  0  0  0  0
   57.6490   29.0770   44.6070 C   0  0  0  0  0  0  0  0  0  0  0  0
   57.5680   28.6510   46.0850 C   0  0  0  0  0  0  0  0  0  0  0  0
   58.1050   27.8940   43.7400 C   0  0  0  0  0  0  0  0  0  0  0  0
   58.8350   30.4600   44.4470 S   0  0  0  0  0  0  0  0  0  0  0  0
   57.2430   33.1210   46.5670 C   0  0  0  0  0  0  0  0  0  0  0  0
   58.5170   33.2880   47.4270 C   0  0  0  0  0  0  0  0  0  0  0  0
   62.3341   32.1419   48.9127 H   0  0  0  0  0  0  0  0  0  0  0  0
   61.6923   30.9840   47.6985 H   0  0  0  0  0  0  0  0  0  0  0  0
   63.4373   31.4101   47.6985 H   0  0  0  0  0  0  0  0  0  0  0  0
   61.8772   32.5438   45.9273 H   0  0  0  0  0  0  0  0  0  0  0  0
   63.7770   34.0972   47.7522 H   0  0  0  0  0  0  0  0  0  0  0  0
   64.1605   33.2696   46.2047 H   0  0  0  0  0  0  0  0  0  0  0  0
   63.1331   34.7431   46.2047 H   0  0  0  0  0  0  0  0  0  0  0  0
   60.7322   33.5486   48.4622 H   0  0  0  0  0  0  0  0  0  0  0  0
   61.1605   34.8536   47.3007 H   0  0  0  0  0  0  0  0  0  0  0  0
   59.0917   35.3637   45.9316 H   0  0  0  0  0  0  0  0  0  0  0  0
   60.4462   34.6477   44.9952 H   0  0  0  0  0  0  0  0  0  0  0  0
   57.8828   34.6587   44.0788 H   0  0  0  0  0  0  0  0  0  0  0  0
   59.0426   33.3314   43.7014 H   0  0  0  0  0  0  0  0  0  0  0  0
   55.4658   29.1028   44.6137 H   0  0  0  0  0  0  0  0  0  0  0  0
   56.1732   29.5105   43.0390 H   0  0  0  0  0  0  0  0  0  0  0  0
   57.7346   29.5272   46.7288 H   0  0  0  0  0  0  0  0  0  0  0  0
   56.5734   28.2285   46.2909 H   0  0  0  0  0  0  0  0  0  0  0  0
   58.3381   27.8930   46.2909 H   0  0  0  0  0  0  0  0  0  0  0  0
   58.4244   27.0654   44.3891 H   0  0  0  0  0  0  0  0  0  0  0  0
   57.2705   27.5617   43.1050 H   0  0  0  0  0  0  0  0  0  0  0  0
   58.9466   28.2077   43.1050 H   0  0  0  0  0  0  0  0  0  0  0  0
   56.6376   34.0371   46.6317 H   0  0  0  0  0  0  0  0  0  0  0  0
   56.6651   32.2635   46.9420 H   0  0  0  0  0  0  0  0  0  0  0  0
   58.3992   34.1746   48.0673 H   0  0  0  0  0  0  0  0  0  0  0  0
   58.6421   32.3756   48.0286 H   0  0  0  0  0  0  0  0  0  0  0  0
  1  2  1  0
  2  3  1  0
  2  4  1  0
  4  5  1  0
  5  6  1  0
  6  7  1  0
  7  8  1  0
  8  9  1  0
  9 10  2  0
 10 11  1  0
 11 12  1  0
 12 13  1  0
 12 14  1  0
 12 15  1  0
  8 16  1  0
 16 17  1  0
 17  5  1  0
 15  9  1  0
  1 18  1  0
  1 19  1  0
  1 20  1  0
  2 21  1  0
  3 22  1  0
  3 23  1  0
  3 24  1  0
  4 25  1  0
  4 26  1  0
  6 27  1  0
  6 28  1  0
  7 29  1  0
  7 30  1  0
 11 31  1  0
 11 32  1  0
 13 33  1  0
 13 34  1  0
 13 35  1  0
 14 36  1  0
 14 37  1  0
 14 38  1  0
 16 39  1  0
 16 40  1  0
 17 41  1  0
 17 42  1  0
M  END
>  <UniqueID>  (1) 
1

>  <SMILES>  (1) 
CC(C)CN1CCN(C2=NCC(C)(C)S2)CC1

>  <Energy>  (1) 
50.46684142677994

>  <Genealogy>  (1) 
CC(C)CN1CCN(C2=NCC(C)(C)S2)CC1 (3D coordinates assigned)
CC(C)CN1CCN(C2=NCC(C)(C)S2)CC1 (nonaromatic ring conformer: 50.46684142677994 kcal/mol)

>  <smiles>  (1) 
CC(C)CN1CCN(C2=NCC(C)(C)S2)CC1

>  <score_type>  (1) 
oracle

>  <origin>  (1) 
adg

>  <m_score__min__energy>  (1) 
-7.29

>  <m_primary>  (1) 
energy

$$$$
1:0
     RDKit          3D

 53 55  0  0  0  0  0  0  0  0999 V2000
   60.7590   30.3520   46.8050 C   0  0  0  0  0  0  0  0  0  0  0  0
   59.2950   29.9650   46.9810 C   0  0  0  0  0  0  0  0  0  0  0  0
   58.9350   30.0380   48.3480 O   0  0  0  0  0  0  0  0  0  0  0  0
   59.7530   29.1880   49.1240 C   0  0  0  0  0  0  0  0  0  0  0  0
   59.4060   29.3660   50.5960 C   0  0  0  0  0  0  0  0  0  0  0  0
   58.0500   29.7440   50.7110 O   0  0  0  0  0  0  0  0  0  0  0  0
   57.8770   30.6480   51.7870 C   0  0  0  0  0  0  0  0  0  0  0  0
   57.9660   32.0890   51.2810 C   0  0  0  0  0  0  0  0  0  0  0  0
   58.7010   32.1520   50.0180 N   0  0  0  0  0  0  0  0  0  0  0  0
   59.4940   33.2950   49.6690 C   0  0  0  0  0  0  0  0  0  0  0  0
   59.7700   34.1580   50.5440 O   0  0  0  0  0  0  0  0  0  0  0  0
   59.9760   33.4730   48.2820 C   0  0  0  0  0  0  0  0  0  0  0  0
   61.3360   33.5950   47.9350 C   0  0  0  0  0  0  0  0  0  0  0  0
   62.5030   33.4610   48.8310 C   0  0  0  0  0  0  0  0  0  0  0  0
   63.5030   32.5090   48.5730 C   0  0  0  0  0  0  0  0  0  0  0  0
   64.5900   32.3720   49.4400 C   0  0  0  0  0  0  0  0  0  0  0  0
   64.7070   33.1920   50.5680 C   0  0  0  0  0  0  0  0  0  0  0  0
   65.8150   33.0120   51.4090 O   0  0  0  0  0  0  0  0  0  0  0  0
   67.1380   32.7600   50.9490 C   0  0  0  0  0  0  0  0  0  0  0  0
   63.7180   34.1610   50.8170 C   0  0  0  0  0  0  0  0  0  0  0  0
   62.6290   34.2980   49.9510 C   0  0  0  0  0  0  0  0  0  0  0  0
   61.4650   33.8600   46.2690 S   0  0  0  0  0  0  0  0  0  0  0  0
   59.8170   33.8070   45.9720 C   0  0  0  0  0  0  0  0  0  0  0  0
   59.1680   33.9680   44.7500 C   0  0  0  0  0  0  0  0  0  0  0  0
   57.7670   33.9130   44.7310 C   0  0  0  0  0  0  0  0  0  0  0  0
   57.0490   33.7100   45.9240 C   0  0  0  0  0  0  0  0  0  0  0  0
   57.7250   33.5540   47.1460 C   0  0  0  0  0  0  0  0  0  0  0  0
   59.1290   33.5920   47.1600 C   0  0  0  0  0  0  0  0  0  0  0  0
   61.2269   30.4757   47.7928 H   0  0  0  0  0  0  0  0  0  0  0  0
   61.2828   29.5615   46.2476 H   0  0  0  0  0  0  0  0  0  0  0  0
   60.8237   31.2981   46.2476 H   0  0  0  0  0  0  0  0  0  0  0  0
   58.6639   30.6544   46.4010 H   0  0  0  0  0  0  0  0  0  0  0  0
   59.1488   28.9348   46.6240 H   0  0  0  0  0  0  0  0  0  0  0  0
   59.5810   28.1423   48.8293 H   0  0  0  0  0  0  0  0  0  0  0  0
   60.8106   29.4424   48.9603 H   0  0  0  0  0  0  0  0  0  0  0  0
   59.5704   28.4184   51.1299 H   0  0  0  0  0  0  0  0  0  0  0  0
   60.0456   30.1460   51.0348 H   0  0  0  0  0  0  0  0  0  0  0  0
   56.8908   30.4835   52.2457 H   0  0  0  0  0  0  0  0  0  0  0  0
   58.6686   30.4779   52.5316 H   0  0  0  0  0  0  0  0  0  0  0  0
   56.9496   32.4803   51.1266 H   0  0  0  0  0  0  0  0  0  0  0  0
   58.4995   32.6931   52.0297 H   0  0  0  0  0  0  0  0  0  0  0  0
   58.6180   31.3690   49.3300 H   0  0  0  0  0  0  0  0  0  0  0  0
   63.4299   31.8672   47.6826 H   0  0  0  0  0  0  0  0  0  0  0  0
   65.3599   31.6137   49.2344 H   0  0  0  0  0  0  0  0  0  0  0  0
   67.8081   32.6324   51.8119 H   0  0  0  0  0  0  0  0  0  0  0  0
   67.1462   31.8442   50.3398 H   0  0  0  0  0  0  0  0  0  0  0  0
   67.4823   33.6087   50.3398 H   0  0  0  0  0  0  0  0  0  0  0  0
   63.8020   34.8145   51.6979 H   0  0  0  0  0  0  0  0  0  0  0  0
   61.8666   35.0660   50.1483 H   0  0  0  0  0  0  0  0  0  0  0  0
   59.7393   34.1338   43.8247 H   0  0  0  0  0  0  0  0  0  0  0  0
   57.2271   34.0290   43.7797 H   0  0  0  0  0  0  0  0  0  0  0  0
   55.9499   33.6731   45.8998 H   0  0  0  0  0  0  0  0  0  0  0  0
   57.1622   33.4041   48.0791 H   0  0  0  0  0  0  0  0  0  0  0  0
  1  2  1  0
  2  3  1  0
  3  4  1  0
  4  5  1  0
  5  6  1  0
  6  7  1  0
  7  8  1  0
  8  9  1  0
  9 10  1  0
 10 11  2  0
 10 12  1  0
 12 13  2  0
 13 14  1  0
 14 15  2  0
 15 16  1  0
 16 17  2  0
 17 18  1  0
 18 19  1  0
 17 20  1  0
 20 21  2  0
 13 22  1  0
 22 23  1  0
 23 24  2  0
 24 25  1  0
 25 26  2  0
 26 27  1  0
 27 28  2  0
 28 12  1  0
 21 14  1  0
 28 23  1  0
  1 29  1  0
  1 30  1  0
  1 31  1  0
  2 32  1  0
  2 33  1  0
  4 34  1  0
  4 35  1  0
  5 36  1  0
  5 37  1  0
  7 38  1  0
  7 39  1  0
  8 40  1  0
  8 41  1  0
  9 42  1  0
 15 43  1  0
 16 44  1  0
 19 45  1  0
 19 46  1  0
 19 47  1  0
 20 48  1  0
 21 49  1  0
 24 50  1  0
 25 51  1  0
 26 52  1  0
 27 53  1  0
M  END
>  <UniqueID>  (2) 
2

>  <SMILES>  (2) 
CCOCCOCCNC(=O)c1c(-c2ccc(OC)cc2)sc2ccccc12

>  <Energy>  (2) 
88.35715085368905

>  <Genealogy>  (2) 
CCOCCOCCNC(=O)c1c(-c2ccc(OC)cc2)sc2ccccc12 (3D coordinates assigned)
CCOCCOCCNC(=O)c1c(-c2ccc(OC)cc2)sc2ccccc12 (optimized conformer: 88.35715085368905 kcal/mol)

>  <smiles>  (2) 
CCOCCOCCNC(=O)c1c(-c2ccc(OC)cc2)sc2ccccc12

>  <score_type>  (2) 
oracle

>  <origin>  (2) 
adg

>  <m_score__min__energy>  (2) 
-7.0599999999999996

>  <m_primary>  (2) 
energy

$$$$
2:0
     RDKit          3D

 75 77  0  0  0  0  0  0  0  0999 V2000
   58.8250   33.1490   51.5680 C   0  0  0  0  0  0  0  0  0  0  0  0
   58.1740   32.1130   50.6430 C   0  0  0  0  0  0  0  0  0  0  0  0
   58.8580   30.7960   50.6910 N   0  0  2  0  0  0  0  0  0  0  0  0
   58.5330   30.0940   51.9510 C   0  0  0  0  0  0  0  0  0  0  0  0
   60.3260   30.8500   50.4390 C   0  0  0  0  0  0  0  0  0  0  0  0
   60.8600   29.9060   49.3380 C   0  0  0  0  0  0  0  0  0  0  0  0
   59.8410   29.1010   48.7770 O   0  0  0  0  0  0  0  0  0  0  0  0
   60.3490   28.2370   47.7760 C   0  0  0  0  0  0  0  0  0  0  0  0
   59.5260   26.9530   47.7070 C   0  0  0  0  0  0  0  0  0  0  0  0
   58.1870   27.2720   47.3870 O   0  0  0  0  0  0  0  0  0  0  0  0
   57.5610   26.1990   46.7060 C   0  0  0  0  0  0  0  0  0  0  0  0
   57.2530   26.6020   45.2640 C   0  0  0  0  0  0  0  0  0  0  0  0
   58.1610   27.6730   44.8340 N   0  0  0  0  0  0  0  0  0  0  0  0
   57.8000   28.2280   43.5200 C   0  0  0  0  0  0  0  0  0  0  0  0
   56.7370   29.3330   43.6140 C   0  0  0  0  0  0  0  0  0  0  0  0
   56.6360   29.8020   44.9590 O   0  0  0  0  0  0  0  0  0  0  0  0
   57.4220   30.8280   45.5030 C   0  0  0  0  0  0  0  0  0  0  0  0
   58.3310   30.6070   46.5490 C   0  0  0  0  0  0  0  0  0  0  0  0
   59.0630   31.6680   47.0870 C   0  0  0  0  0  0  0  0  0  0  0  0
   58.9080   32.9800   46.5930 C   0  0  0  0  0  0  0  0  0  0  0  0
   58.0490   33.1810   45.4880 C   0  0  0  0  0  0  0  0  0  0  0  0
   57.2900   32.1160   44.9790 C   0  0  0  0  0  0  0  0  0  0  0  0
   57.9230   34.5450   44.8700 C   0  0  0  0  0  0  0  0  0  0  0  0
   59.2450   35.2950   44.9900 C   0  0  0  0  0  0  0  0  0  0  0  0
   59.6480   35.4130   46.4610 C   0  0  0  0  0  0  0  0  0  0  0  0
   59.6390   34.1100   47.1530 N   0  0  0  0  0  0  0  0  0  0  0  0
   60.0980   34.1240   48.5530 C   0  0  0  0  0  0  0  0  0  0  0  0
   61.5630   33.7800   48.6330 C   0  0  0  0  0  0  0  0  0  0  0  0
   62.2620   33.3730   47.4820 C   0  0  0  0  0  0  0  0  0  0  0  0
   63.6170   33.0330   47.5640 C   0  0  0  0  0  0  0  0  0  0  0  0
   64.2820   33.0960   48.7930 C   0  0  0  0  0  0  0  0  0  0  0  0
   63.5920   33.4930   49.9420 C   0  0  0  0  0  0  0  0  0  0  0  0
   62.2370   33.8310   49.8660 C   0  0  0  0  0  0  0  0  0  0  0  0
   58.6479   32.8671   52.6164 H   0  0  0  0  0  0  0  0  0  0  0  0
   59.9075   33.1836   51.3755 H   0  0  0  0  0  0  0  0  0  0  0  0
   58.3865   34.1393   51.3755 H   0  0  0  0  0  0  0  0  0  0  0  0
   57.1260   31.9772   50.9483 H   0  0  0  0  0  0  0  0  0  0  0  0
   58.2503   32.4911   49.6128 H   0  0  0  0  0  0  0  0  0  0  0  0
   58.4530   30.2060   49.9260 H   0  0  0  0  0  0  0  0  0  0  0  0
   58.8237   30.7219   52.8061 H   0  0  0  0  0  0  0  0  0  0  0  0
   57.4517   29.8962   51.9922 H   0  0  0  0  0  0  0  0  0  0  0  0
   59.0818   29.1416   51.9922 H   0  0  0  0  0  0  0  0  0  0  0  0
   60.5802   31.8807   50.1509 H   0  0  0  0  0  0  0  0  0  0  0  0
   60.7996   30.5136   51.3731 H   0  0  0  0  0  0  0  0  0  0  0  0
   61.3100   30.5138   48.5392 H   0  0  0  0  0  0  0  0  0  0  0  0
   61.6001   29.2363   49.8004 H   0  0  0  0  0  0  0  0  0  0  0  0
   60.3059   28.7469   46.8023 H   0  0  0  0  0  0  0  0  0  0  0  0
   61.3891   27.9789   48.0244 H   0  0  0  0  0  0  0  0  0  0  0  0
   59.9413   26.2918   46.9322 H   0  0  0  0  0  0  0  0  0  0  0  0
   59.5600   26.4413   48.6801 H   0  0  0  0  0  0  0  0  0  0  0  0
   58.2321   25.3274   46.7050 H   0  0  0  0  0  0  0  0  0  0  0  0
   56.6210   25.9462   47.2183 H   0  0  0  0  0  0  0  0  0  0  0  0
   57.3827   25.7295   44.6069 H   0  0  0  0  0  0  0  0  0  0  0  0
   56.2160   26.9642   45.2053 H   0  0  0  0  0  0  0  0  0  0  0  0
   58.1590   28.4390   45.5480 H   0  0  0  0  0  0  0  0  0  0  0  0
   58.7041   28.6483   43.0552 H   0  0  0  0  0  0  0  0  0  0  0  0
   57.3760   27.4098   42.9193 H   0  0  0  0  0  0  0  0  0  0  0  0
   57.0214   30.1685   42.9575 H   0  0  0  0  0  0  0  0  0  0  0  0
   55.7646   28.9255   43.3003 H   0  0  0  0  0  0  0  0  0  0  0  0
   58.4680   29.5911   46.9480 H   0  0  0  0  0  0  0  0  0  0  0  0
   59.7704   31.4777   47.9076 H   0  0  0  0  0  0  0  0  0  0  0  0
   56.5821   32.2979   44.1569 H   0  0  0  0  0  0  0  0  0  0  0  0
   57.6584   34.4406   43.8074 H   0  0  0  0  0  0  0  0  0  0  0  0
   57.1385   35.1090   45.3958 H   0  0  0  0  0  0  0  0  0  0  0  0
   60.0255   34.7475   44.4413 H   0  0  0  0  0  0  0  0  0  0  0  0
   59.1280   36.3031   44.5657 H   0  0  0  0  0  0  0  0  0  0  0  0
   60.6621   35.8355   46.5166 H   0  0  0  0  0  0  0  0  0  0  0  0
   58.9129   36.0623   46.9590 H   0  0  0  0  0  0  0  0  0  0  0  0
   59.9383   35.1268   48.9761 H   0  0  0  0  0  0  0  0  0  0  0  0
   59.5260   33.3762   49.1218 H   0  0  0  0  0  0  0  0  0  0  0  0
   61.7417   33.3218   46.5142 H   0  0  0  0  0  0  0  0  0  0  0  0
   64.1596   32.7159   46.6612 H   0  0  0  0  0  0  0  0  0  0  0  0
   65.3483   32.8330   48.8553 H   0  0  0  0  0  0  0  0  0  0  0  0
   64.1159   33.5397   50.9081 H   0  0  0  0  0  0  0  0  0  0  0  0
   61.6968   34.1377   50.7738 H   0  0  0  0  0  0  0  0  0  0  0  0
  1  2  1  0
  2  3  1  0
  3  4  1  0
  3  5  1  0
  5  6  1  0
  6  7  1  0
  7  8  1  0
  8  9  1  0
  9 10  1  0
 10 11  1  0
 11 12  1  0
 12 13  1  0
 13 14  1  0
 14 15  1  0
 15 16  1  0
 16 17  1  0
 17 18  2  0
 18 19  1  0
 19 20  2  0
 20 21  1  0
 21 22  2  0
 21 23  1  0
 23 24  1  0
 24 25  1  0
 25 26  1  0
 26 27  1  0
 27 28  1  0
 28 29  2  0
 29 30  1  0
 30 31  2  0
 31 32  1  0
 32 33  2  0
 22 17  1  0
 33 28  1  0
 26 20  1  0
  1 34  1  0
  1 35  1  0
  1 36  1  0
  2 37  1  0
  2 38  1  0
  3 39  1  6
  4 40  1  0
  4 41  1  0
  4 42  1  0
  5 43  1  0
  5 44  1  0
  6 45  1  0
  6 46  1  0
  8 47  1  0
  8 48  1  0
  9 49  1  0
  9 50  1  0
 11 51  1  0
 11 52  1  0
 12 53  1  0
 12 54  1  0
 13 55  1  0
 14 56  1  0
 14 57  1  0
 15 58  1  0
 15 59  1  0
 18 60  1  0
 19 61  1  0
 22 62  1  0
 23 63  1  0
 23 64  1  0
 24 65  1  0
 24 66  1  0
 25 67  1  0
 25 68  1  0
 27 69  1  0
 27 70  1  0
 29 71  1  0
 30 72  1  0
 31 73  1  0
 32 74  1  0
 33 75  1  0
M  CHG  1   3   1
M  END
>  <UniqueID>  (3) 
3

>  <SMILES>  (3) 
CC[N@H+](C)CCOCCOCCNCCOc1ccc2c(c1)CCCN2Cc1ccccc1

>  <Energy>  (3) 
80.5618731819394

>  <Genealogy>  (3) 
CC[NH+](C)CCOCCOCCNCCOc1ccc2c(c1)CCCN2Cc1ccccc1 (protonated)
CC[N@H+](C)CCOCCOCCNCCOc1ccc2c(c1)CCCN2Cc1ccccc1 (chirality)
CC[N@H+](C)CCOCCOCCNCCOc1ccc2c(c1)CCCN2Cc1ccccc1 (3D coordinates assigned)
CC[N@H+](C)CCOCCOCCNCCOc1ccc2c(c1)CCCN2Cc1ccccc1 (nonaromatic ring conformer: 80.5618731819394 kcal/mol)

>  <smiles>  (3) 
CCN(C)CCOCCOCCNCCOc1ccc2c(c1)CCCN2Cc1ccccc1

>  <score_type>  (3) 
oracle

>  <origin>  (3) 
adg

>  <m_score__min__energy>  (3) 
-6.9100000000000001

>  <m_primary>  (3) 
energy

$$$$
3:0
     RDKit          3D

 50 53  0  0  0  0  0  0  0  0999 V2000
   56.6400   28.0940   45.3670 C   0  0  0  0  0  0  0  0  0  0  0  0
   55.5750   28.9760   44.8830 N   0  0  0  0  0  0  0  0  0  0  0  0
   55.9630   29.6570   43.6390 C   0  0  0  0  0  0  0  0  0  0  0  0
   56.9010   30.8360   43.9250 C   0  0  0  0  0  0  0  0  0  0  0  0
   57.0190   31.0720   45.3290 O   0  0  0  0  0  0  0  0  0  0  0  0
   58.1960   31.4270   46.0130 C   0  0  0  0  0  0  0  0  0  0  0  0
   58.9010   30.5030   46.8030 C   0  0  0  0  0  0  0  0  0  0  0  0
   60.0600   30.8800   47.4770 C   0  0  0  0  0  0  0  0  0  0  0  0
   60.5530   32.1870   47.3860 C   0  0  0  0  0  0  0  0  0  0  0  0
   61.7620   32.5310   48.1690 C   0  0  0  0  0  0  0  0  0  0  0  0
   61.6830   33.4380   49.2360 C   0  0  0  0  0  0  0  0  0  0  0  0
   62.8210   33.7470   49.9860 C   0  0  0  0  0  0  0  0  0  0  0  0
   64.0570   33.1440   49.6880 C   0  0  0  0  0  0  0  0  0  0  0  0
   65.2750   33.4560   50.4680 C   0  0  0  0  0  0  0  0  0  0  0  0
   66.5650   32.9990   50.2410 C   0  0  0  0  0  0  0  0  0  0  0  0
   67.3040   33.5800   51.2510 C   0  0  0  0  0  0  0  0  0  0  0  0
   68.7830   33.4800   51.4320 C   0  0  0  0  0  0  0  0  0  0  0  0
   66.4930   34.3430   52.0050 N   0  0  0  0  0  0  0  0  0  0  0  0
   65.2910   34.2460   51.5210 O   0  0  0  0  0  0  0  0  0  0  0  0
   64.1270   32.2260   48.6260 C   0  0  0  0  0  0  0  0  0  0  0  0
   62.9890   31.9190   47.8760 C   0  0  0  0  0  0  0  0  0  0  0  0
   59.8770   33.1320   46.5710 C   0  0  0  0  0  0  0  0  0  0  0  0
   60.3660   34.4450   46.3970 C   0  0  0  0  0  0  0  0  0  0  0  0
   59.6810   35.3590   45.5960 C   0  0  0  0  0  0  0  0  0  0  0  0
   58.5050   34.9830   44.9500 C   0  0  0  0  0  0  0  0  0  0  0  0
   58.0110   33.6860   45.0910 C   0  0  0  0  0  0  0  0  0  0  0  0
   58.6890   32.7440   45.8910 C   0  0  0  0  0  0  0  0  0  0  0  0
   56.6427   28.0918   46.4670 H   0  0  0  0  0  0  0  0  0  0  0  0
   56.4656   27.0723   44.9987 H   0  0  0  0  0  0  0  0  0  0  0  0
   57.6113   28.4557   44.9987 H   0  0  0  0  0  0  0  0  0  0  0  0
   55.4270   29.7090   45.6160 H   0  0  0  0  0  0  0  0  0  0  0  0
   56.4771   28.9399   42.9821 H   0  0  0  0  0  0  0  0  0  0  0  0
   55.0544   30.0429   43.1537 H   0  0  0  0  0  0  0  0  0  0  0  0
   57.8962   30.6110   43.5139 H   0  0  0  0  0  0  0  0  0  0  0  0
   56.4821   31.7373   43.4537 H   0  0  0  0  0  0  0  0  0  0  0  0
   58.5332   29.4700   46.8900 H   0  0  0  0  0  0  0  0  0  0  0  0
   60.5957   30.1400   48.0897 H   0  0  0  0  0  0  0  0  0  0  0  0
   60.7201   33.9086   49.4838 H   0  0  0  0  0  0  0  0  0  0  0  0
   62.7501   34.4665   50.8150 H   0  0  0  0  0  0  0  0  0  0  0  0
   66.9167   32.3296   49.4421 H   0  0  0  0  0  0  0  0  0  0  0  0
   69.0207   33.4639   52.5059 H   0  0  0  0  0  0  0  0  0  0  0  0
   69.1482   32.5551   50.9617 H   0  0  0  0  0  0  0  0  0  0  0  0
   69.2694   34.3473   50.9617 H   0  0  0  0  0  0  0  0  0  0  0  0
   66.7630   34.9230   52.8290 H   0  0  0  0  0  0  0  0  0  0  0  0
   65.0861   31.7451   48.3833 H   0  0  0  0  0  0  0  0  0  0  0  0
   63.0559   31.1937   47.0517 H   0  0  0  0  0  0  0  0  0  0  0  0
   61.2964   34.7504   46.8980 H   0  0  0  0  0  0  0  0  0  0  0  0
   60.0707   36.3804   45.4739 H   0  0  0  0  0  0  0  0  0  0  0  0
   57.9646   35.7110   44.3271 H   0  0  0  0  0  0  0  0  0  0  0  0
   57.0846   33.3960   44.5736 H   0  0  0  0  0  0  0  0  0  0  0  0
  1  2  1  0
  2  3  1  0
  3  4  1  0
  4  5  1  0
  5  6  1  0
  6  7  2  0
  7  8  1  0
  8  9  2  0
  9 10  1  0
 10 11  2  0
 11 12  1  0
 12 13  2  0
 13 14  1  0
 14 15  2  0
 15 16  1  0
 16 17  1  0
 16 18  2  0
 18 19  1  0
 13 20  1  0
 20 21  2  0
  9 22  1  0
 22 23  2  0
 23 24  1  0
 24 25  2  0
 25 26  1  0
 26 27  2  0
 27  6  1  0
 21 10  1  0
 27 22  1  0
 19 14  1  0
  1 28  1  0
  1 29  1  0
  1 30  1  0
  2 31  1  0
  3 32  1  0
  3 33  1  0
  4 34  1  0
  4 35  1  0
  7 36  1  0
  8 37  1  0
 11 38  1  0
 12 39  1  0
 15 40  1  0
 17 41  1  0
 17 42  1  0
 17 43  1  0
 18 44  1  0
 20 45  1  0
 21 46  1  0
 23 47  1  0
 24 48  1  0
 25 49  1  0
 26 50  1  0
M  CHG  1  18   1
M  END
>  <UniqueID>  (4) 
4

>  <SMILES>  (4) 
CNCCOc1ccc(-c2ccc(-c3cc(C)[nH+]o3)cc2)c2ccccc12

>  <Energy>  (4) 
95.37684270973118

>  <Genealogy>  (4) 
CNCCOc1ccc(-c2ccc(-c3cc(C)[nH+]o3)cc2)c2ccccc12 (protonated)
CNCCOc1ccc(-c2ccc(-c3cc(C)[nH+]o3)cc2)c2ccccc12 (3D coordinates assigned)
CNCCOc1ccc(-c2ccc(-c3cc(C)[nH+]o3)cc2)c2ccccc12 (optimized conformer: 95.37684270973118 kcal/mol)

>  <smiles>  (4) 
CNCCOc1ccc(-c2ccc(-c3cc(C)no3)cc2)c2ccccc12

>  <score_type>  (4) 
oracle

>  <origin>  (4) 
adg

>  <m_score__min__energy>  (4) 
-8.0299999999999994

>  <m_primary>  (4) 
energy

$$$$
4:0
     RDKit          3D

 58 59  0  0  0  0  0  0  0  0999 V2000
   63.3090   33.4160   46.7480 C   0  0  0  0  0  0  0  0  0  0  0  0
   62.7820   33.8590   48.1120 C   0  0  0  0  0  0  0  0  0  0  0  0
   62.0720   32.7640   48.8120 N   0  0  0  0  0  0  0  0  0  0  0  0
   62.9490   31.5880   49.0100 C   0  0  0  0  0  0  0  0  0  0  0  0
   62.6220   30.8960   50.3290 C   0  0  0  0  0  0  0  0  0  0  0  0
   61.3900   33.1770   50.0660 C   0  0  0  0  0  0  0  0  0  0  0  0
   59.9980   33.8050   49.8670 C   0  0  0  0  0  0  0  0  0  0  0  0
   59.0460   32.7890   49.6230 O   0  0  0  0  0  0  0  0  0  0  0  0
   58.5510   32.2570   50.8380 C   0  0  0  0  0  0  0  0  0  0  0  0
   58.6940   30.7310   50.8710 C   0  0  0  0  0  0  0  0  0  0  0  0
   59.5880   30.3160   49.8570 O   0  0  0  0  0  0  0  0  0  0  0  0
   59.2870   28.9990   49.4500 C   0  0  0  0  0  0  0  0  0  0  0  0
   59.6920   28.8250   47.9820 C   0  0  0  0  0  0  0  0  0  0  0  0
   60.4040   30.0700   47.4180 C   0  0  0  0  0  0  0  0  0  0  0  0
   59.6530   31.3190   47.6590 N   0  0  0  0  0  0  0  0  0  0  0  0
   59.0860   31.8430   46.4380 C   0  0  0  0  0  0  0  0  0  0  0  0
   58.3610   31.0040   45.5590 C   0  0  0  0  0  0  0  0  0  0  0  0
   57.8070   31.5090   44.3560 C   0  0  0  0  0  0  0  0  0  0  0  0
   57.0130   30.6040   43.4600 C   0  0  0  0  0  0  0  0  0  0  0  0
   57.9500   32.8750   44.0350 C   0  0  0  0  0  0  0  0  0  0  0  0
   58.6680   33.6800   44.9140 C   0  0  0  0  0  0  0  0  0  0  0  0
   58.9680   35.0220   44.8590 C   0  0  0  0  0  0  0  0  0  0  0  0
   59.6680   35.3370   45.9330 O   0  0  0  0  0  0  0  0  0  0  0  0
   59.8330   34.2620   46.6830 C   0  0  0  0  0  0  0  0  0  0  0  0
   59.2160   33.1910   46.0680 C   0  0  0  0  0  0  0  0  0  0  0  0
   64.1442   32.7139   46.8880 H   0  0  0  0  0  0  0  0  0  0  0  0
   62.5032   32.9201   46.1870 H   0  0  0  0  0  0  0  0  0  0  0  0
   63.6590   34.2951   46.1870 H   0  0  0  0  0  0  0  0  0  0  0  0
   63.6299   34.1863   48.7316 H   0  0  0  0  0  0  0  0  0  0  0  0
   62.0680   34.6802   47.9512 H   0  0  0  0  0  0  0  0  0  0  0  0
   62.7977   30.8797   48.1821 H   0  0  0  0  0  0  0  0  0  0  0  0
   63.9961   31.9242   49.0338 H   0  0  0  0  0  0  0  0  0  0  0  0
   62.9266   31.5406   51.1666 H   0  0  0  0  0  0  0  0  0  0  0  0
   61.5397   30.7078   50.3859 H   0  0  0  0  0  0  0  0  0  0  0  0
   63.1638   29.9404   50.3859 H   0  0  0  0  0  0  0  0  0  0  0  0
   61.2762   32.2873   50.7027 H   0  0  0  0  0  0  0  0  0  0  0  0
   62.0199   33.9569   50.5188 H   0  0  0  0  0  0  0  0  0  0  0  0
   59.7150   34.3609   50.7730 H   0  0  0  0  0  0  0  0  0  0  0  0
   60.0276   34.4899   49.0067 H   0  0  0  0  0  0  0  0  0  0  0  0
   59.1170   32.6891   51.6764 H   0  0  0  0  0  0  0  0  0  0  0  0
   57.4837   32.5098   50.9210 H   0  0  0  0  0  0  0  0  0  0  0  0
   59.0836   30.4210   51.8519 H   0  0  0  0  0  0  0  0  0  0  0  0
   57.7104   30.2683   50.7024 H   0  0  0  0  0  0  0  0  0  0  0  0
   59.8440   28.2840   50.0734 H   0  0  0  0  0  0  0  0  0  0  0  0
   58.2087   28.8128   49.5624 H   0  0  0  0  0  0  0  0  0  0  0  0
   60.3710   27.9633   47.9025 H   0  0  0  0  0  0  0  0  0  0  0  0
   58.7737   28.6696   47.3967 H   0  0  0  0  0  0  0  0  0  0  0  0
   61.3913   30.1562   47.8952 H   0  0  0  0  0  0  0  0  0  0  0  0
   60.4864   29.9387   46.3290 H   0  0  0  0  0  0  0  0  0  0  0  0
   58.9130   31.1810   48.3840 H   0  0  0  0  0  0  0  0  0  0  0  0
   60.3150   32.0310   48.0450 H   0  0  0  0  0  0  0  0  0  0  0  0
   58.2251   29.9425   45.8134 H   0  0  0  0  0  0  0  0  0  0  0  0
   56.4107   29.9175   44.0731 H   0  0  0  0  0  0  0  0  0  0  0  0
   56.3480   31.2079   42.8251 H   0  0  0  0  0  0  0  0  0  0  0  0
   57.6983   30.0233   42.8251 H   0  0  0  0  0  0  0  0  0  0  0  0
   57.5075   33.2912   43.1179 H   0  0  0  0  0  0  0  0  0  0  0  0
   58.6744   35.7146   44.0564 H   0  0  0  0  0  0  0  0  0  0  0  0
   60.3734   34.2262   47.6405 H   0  0  0  0  0  0  0  0  0  0  0  0
  1  2  1  0
  2  3  1  0
  3  4  1  0
  4  5  1  0
  3  6  1  0
  6  7  1  0
  7  8  1  0
  8  9  1  0
  9 10  1  0
 10 11  1  0
 11 12  1  0
 12 13  1  0
 13 14  1  0
 14 15  1  0
 15 16  1  0
 16 17  2  0
 17 18  1  0
 18 19  1  0
 18 20  2  0
 20 21  1  0
 21 22  2  0
 22 23  1  0
 23 24  1  0
 24 25  2  0
 25 16  1  0
 25 21  1  0
  1 26  1  0
  1 27  1  0
  1 28  1  0
  2 29  1  0
  2 30  1  0
  4 31  1  0
  4 32  1  0
  5 33  1  0
  5 34  1  0
  5 35  1  0
  6 36  1  0
  6 37  1  0
  7 38  1  0
  7 39  1  0
  9 40  1  0
  9 41  1  0
 10 42  1  0
 10 43  1  0
 12 44  1  0
 12 45  1  0
 13 46  1  0
 13 47  1  0
 14 48  1  0
 14 49  1  0
 15 50  1  0
 15 51  1  0
 17 52  1  0
 19 53  1  0
 19 54  1  0
 19 55  1  0
 20 56  1  0
 22 57  1  0
 24 58  1  0
M  CHG  1  15   1
M  END
>  <UniqueID>  (5) 
5

>  <SMILES>  (5) 
CCN(CC)CCOCCOCCC[NH2+]c1cc(C)cc2cocc12

>  <Energy>  (5) 
90.75667946930757

>  <Genealogy>  (5) 
CCN(CC)CCOCCOCCC[NH2+]c1cc(C)cc2cocc12 (protonated)
CCN(CC)CCOCCOCCC[NH2+]c1cc(C)cc2cocc12 (3D coordinates assigned)
CCN(CC)CCOCCOCCC[NH2+]c1cc(C)cc2cocc12 (optimized conformer: 90.75667946930757 kcal/mol)

>  <smiles>  (5) 
CCN(CC)CCOCCOCCCNc1cc(C)cc2cocc12

>  <score_type>  (5) 
oracle

>  <origin>  (5) 
adg

>  <m_score__min__energy>  (5) 
-3.9500000000000002

>  <m_primary>  (5) 
energy

$$$$
5:0
     RDKit          3D

 71 74  0  0  0  0  0  0  0  0999 V2000
   55.2670   30.7950   52.0660 C   0  0  0  0  0  0  0  0  0  0  0  0
   56.7640   31.0720   52.1520 C   0  0  0  0  0  0  0  0  0  0  0  0
   57.0710   32.3840   51.5640 N   0  0  0  0  0  0  0  0  0  0  0  0
   58.4210   32.8530   51.9320 C   0  0  0  0  0  0  0  0  0  0  0  0
   59.2970   33.1670   50.7110 C   0  0  0  0  0  0  0  0  0  0  0  0
   59.0010   32.2650   49.6630 O   0  0  0  0  0  0  0  0  0  0  0  0
   59.2570   30.9330   50.0610 C   0  0  0  0  0  0  0  0  0  0  0  0
   60.1540   30.2150   49.0240 C   0  0  0  0  0  0  0  0  0  0  0  0
   60.5410   31.0150   47.8290 N   0  0  0  0  0  0  0  0  0  0  0  0
   59.6470   30.9260   46.6840 C   0  0  0  0  0  0  0  0  0  0  0  0
   59.3920   29.6520   46.1040 C   0  0  0  0  0  0  0  0  0  0  0  0
   60.1530   28.5090   46.4560 C   0  0  0  0  0  0  0  0  0  0  0  0
   59.9030   27.2690   45.8780 C   0  0  0  0  0  0  0  0  0  0  0  0
   58.9060   27.1360   44.9230 C   0  0  0  0  0  0  0  0  0  0  0  0
   58.1470   28.2410   44.5500 C   0  0  0  0  0  0  0  0  0  0  0  0
   58.3550   29.5110   45.1490 C   0  0  0  0  0  0  0  0  0  0  0  0
   57.5720   30.5920   44.8180 N   0  0  0  0  0  0  0  0  0  0  0  0
   56.2900   30.3780   44.1080 C   0  0  0  0  0  0  0  0  0  0  0  0
   57.9760   31.8690   45.1530 C   0  0  0  0  0  0  0  0  0  0  0  0
   57.3800   32.9900   44.5240 C   0  0  0  0  0  0  0  0  0  0  0  0
   57.7100   34.2830   44.8830 C   0  0  0  0  0  0  0  0  0  0  0  0
   58.6640   34.5070   45.8550 C   0  0  0  0  0  0  0  0  0  0  0  0
   59.3270   33.4440   46.4820 C   0  0  0  0  0  0  0  0  0  0  0  0
   60.3810   33.8030   47.3890 N   0  0  0  0  0  0  0  0  0  0  0  0
   61.6980   34.1960   46.8760 C   0  0  0  0  0  0  0  0  0  0  0  0
   62.7990   33.2410   47.3560 C   0  0  0  0  0  0  0  0  0  0  0  0
   62.4380   32.6010   48.6370 N   0  0  0  0  0  0  0  0  0  0  0  0
   62.4110   33.5450   49.7610 C   0  0  0  0  0  0  0  0  0  0  0  0
   62.6470   32.7200   51.0150 C   0  0  0  0  0  0  0  0  0  0  0  0
   63.3480   31.4590   50.5370 C   0  0  0  0  0  0  0  0  0  0  0  0
   63.4220   31.5850   49.0240 C   0  0  0  0  0  0  0  0  0  0  0  0
   59.0060   32.0820   46.1280 C   0  0  0  0  0  0  0  0  0  0  0  0
   54.8495   30.7178   53.0808 H   0  0  0  0  0  0  0  0  0  0  0  0
   54.7724   31.6169   51.5276 H   0  0  0  0  0  0  0  0  0  0  0  0
   55.0992   29.8506   51.5276 H   0  0  0  0  0  0  0  0  0  0  0  0
   57.0751   31.0647   53.2071 H   0  0  0  0  0  0  0  0  0  0  0  0
   57.3062   30.2931   51.5958 H   0  0  0  0  0  0  0  0  0  0  0  0
   56.9750   32.3320   50.5230 H   0  0  0  0  0  0  0  0  0  0  0  0
   58.3226   33.7660   52.5376 H   0  0  0  0  0  0  0  0  0  0  0  0
   58.9115   32.0424   52.4909 H   0  0  0  0  0  0  0  0  0  0  0  0
   59.0988   34.1953   50.3744 H   0  0  0  0  0  0  0  0  0  0  0  0
   60.3564   33.0650   50.9889 H   0  0  0  0  0  0  0  0  0  0  0  0
   59.7660   30.9390   51.0361 H   0  0  0  0  0  0  0  0  0  0  0  0
   58.3001   30.3954   50.1333 H   0  0  0  0  0  0  0  0  0  0  0  0
   61.0776   29.9056   49.5351 H   0  0  0  0  0  0  0  0  0  0  0  0
   59.5507   29.3798   48.6385 H   0  0  0  0  0  0  0  0  0  0  0  0
   61.5200   30.8170   47.5430 H   0  0  0  0  0  0  0  0  0  0  0  0
   60.6340   32.0170   48.1120 H   0  0  0  0  0  0  0  0  0  0  0  0
   60.9569   28.6047   47.2008 H   0  0  0  0  0  0  0  0  0  0  0  0
   60.4965   26.3929   46.1785 H   0  0  0  0  0  0  0  0  0  0  0  0
   58.7152   26.1565   44.4602 H   0  0  0  0  0  0  0  0  0  0  0  0
   57.3722   28.1284   43.7774 H   0  0  0  0  0  0  0  0  0  0  0  0
   55.4822   30.2432   44.8424 H   0  0  0  0  0  0  0  0  0  0  0  0
   56.0699   31.2518   43.4771 H   0  0  0  0  0  0  0  0  0  0  0  0
   56.3657   29.4801   43.4771 H   0  0  0  0  0  0  0  0  0  0  0  0
   56.6361   32.8270   43.7302 H   0  0  0  0  0  0  0  0  0  0  0  0
   57.2125   35.1336   44.3942 H   0  0  0  0  0  0  0  0  0  0  0  0
   58.9085   35.5401   46.1429 H   0  0  0  0  0  0  0  0  0  0  0  0
   60.3590   33.3480   48.3260 H   0  0  0  0  0  0  0  0  0  0  0  0
   61.6705   34.1853   45.7764 H   0  0  0  0  0  0  0  0  0  0  0  0
   61.9277   35.2034   47.2534 H   0  0  0  0  0  0  0  0  0  0  0  0
   62.9513   32.4601   46.5964 H   0  0  0  0  0  0  0  0  0  0  0  0
   63.7197   33.8234   47.5079 H   0  0  0  0  0  0  0  0  0  0  0  0
   63.2044   34.2981   49.6453 H   0  0  0  0  0  0  0  0  0  0  0  0
   61.4523   34.0821   49.8097 H   0  0  0  0  0  0  0  0  0  0  0  0
   63.2833   33.2697   51.7242 H   0  0  0  0  0  0  0  0  0  0  0  0
   61.7077   32.4938   51.5408 H   0  0  0  0  0  0  0  0  0  0  0  0
   64.3582   31.3940   50.9673 H   0  0  0  0  0  0  0  0  0  0  0  0
   62.8096   30.5507   50.8453 H   0  0  0  0  0  0  0  0  0  0  0  0
   64.4311   31.8989   48.7187 H   0  0  0  0  0  0  0  0  0  0  0  0
   63.2095   30.6223   48.5360 H   0  0  0  0  0  0  0  0  0  0  0  0
  1  2  1  0
  2  3  1  0
  3  4  1  0
  4  5  1  0
  5  6  1  0
  6  7  1  0
  7  8  1  0
  8  9  1  0
  9 10  1  0
 10 11  2  0
 11 12  1  0
 12 13  2  0
 13 14  1  0
 14 15  2  0
 15 16  1  0
 16 17  2  0
 17 18  1  0
 17 19  1  0
 19 20  2  0
 20 21  1  0
 21 22  2  0
 22 23  1  0
 23 24  1  0
 24 25  1  0
 25 26  1  0
 26 27  1  0
 27 28  1  0
 28 29  1  0
 29 30  1  0
 30 31  1  0
 23 32  2  0
 32 10  1  0
 16 11  1  0
 32 19  1  0
 31 27  1  0
  1 33  1  0
  1 34  1  0
  1 35  1  0
  2 36  1  0
  2 37  1  0
  3 38  1  0
  4 39  1  0
  4 40  1  0
  5 41  1  0
  5 42  1  0
  7 43  1  0
  7 44  1  0
  8 45  1  0
  8 46  1  0
  9 47  1  0
  9 48  1  0
 12 49  1  0
 13 50  1  0
 14 51  1  0
 15 52  1  0
 18 53  1  0
 18 54  1  0
 18 55  1  0
 20 56  1  0
 21 57  1  0
 22 58  1  0
 24 59  1  0
 25 60  1  0
 25 61  1  0
 26 62  1  0
 26 63  1  0
 28 64  1  0
 28 65  1  0
 29 66  1  0
 29 67  1  0
 30 68  1  0
 30 69  1  0
 31 70  1  0
 31 71  1  0
M  CHG  2   9   1  17   1
M  END
>  <UniqueID>  (6) 
6

>  <SMILES>  (6) 
CCNCCOCC[NH2+]c1c2ccccc2[n+](C)c2cccc(NCCN3CCCC3)c12

>  <Energy>  (6) 
116.14848755192124

>  <Genealogy>  (6) 
CCNCCOCC[NH2+]c1c2ccccc2[n+](C)c2cccc(NCCN3CCCC3)c12 (protonated)
CCNCCOCC[NH2+]c1c2ccccc2[n+](C)c2cccc(NCCN3CCCC3)c12 (3D coordinates assigned)
CCNCCOCC[NH2+]c1c2ccccc2[n+](C)c2cccc(NCCN3CCCC3)c12 (nonaromatic ring conformer: 116.14848755192124 kcal/mol)

>  <smiles>  (6) 
CCNCCOCCNc1c2ccccc2[n+](C)c2cccc(NCCN3CCCC3)c12

>  <score_type>  (6) 
oracle

>  <origin>  (6) 
adg

>  <m_score__min__energy>  (6) 
-3.7400000000000002

>  <m_primary>  (6) 
energy

$$$$
6:0
     RDKit          3D

 50 53  0  0  0  0  0  0  0  0999 V2000
   64.1250   33.4590   48.4860 C   0  0  0  0  0  0  0  0  0  0  0  0
   63.3050   33.9450   47.3800 N   0  0  0  0  0  0  0  0  0  0  0  0
   62.0410   33.3670   47.0120 C   0  0  0  0  0  0  0  0  0  0  0  0
   61.7890   31.9910   47.1440 C   0  0  0  0  0  0  0  0  0  0  0  0
   60.5450   31.4700   46.7710 C   0  0  0  0  0  0  0  0  0  0  0  0
   60.3120   30.0620   46.9060 N   0  0  0  0  0  0  0  0  0  0  0  0
   60.3870   29.2100   45.7130 C   0  0  0  0  0  0  0  0  0  0  0  0
   60.1900   27.7340   46.0740 C   0  0  0  0  0  0  0  0  0  0  0  0
   59.0450   27.5910   46.9800 N   0  0  0  0  0  0  0  0  0  0  0  0
   58.0230   26.6250   46.6900 C   0  0  0  0  0  0  0  0  0  0  0  0
   58.1930   25.2950   47.1030 C   0  0  0  0  0  0  0  0  0  0  0  0
   57.2140   24.3390   46.8210 C   0  0  0  0  0  0  0  0  0  0  0  0
   56.0610   24.7040   46.1270 C   0  0  0  0  0  0  0  0  0  0  0  0
   55.8780   26.0280   45.7160 C   0  0  0  0  0  0  0  0  0  0  0  0
   56.8570   27.0020   45.9980 C   0  0  0  0  0  0  0  0  0  0  0  0
   56.6970   28.3460   45.6240 O   0  0  0  0  0  0  0  0  0  0  0  0
   57.2060   28.9160   44.4220 C   0  0  0  0  0  0  0  0  0  0  0  0
   58.8830   28.4860   48.1350 C   0  0  0  0  0  0  0  0  0  0  0  0
   60.0330   29.4940   48.2290 C   0  0  0  0  0  0  0  0  0  0  0  0
   59.5510   32.3320   46.2670 C   0  0  0  0  0  0  0  0  0  0  0  0
   58.2800   31.8670   45.8830 C   0  0  0  0  0  0  0  0  0  0  0  0
   57.3240   32.7600   45.3890 C   0  0  0  0  0  0  0  0  0  0  0  0
   57.6240   34.1190   45.2730 C   0  0  0  0  0  0  0  0  0  0  0  0
   58.8820   34.5950   45.6530 C   0  0  0  0  0  0  0  0  0  0  0  0
   59.8470   33.7100   46.1500 C   0  0  0  0  0  0  0  0  0  0  0  0
   61.0660   34.1790   46.5210 N   0  0  0  0  0  0  0  0  0  0  0  0
   63.6551   33.7375   49.4408 H   0  0  0  0  0  0  0  0  0  0  0  0
   64.2109   32.3640   48.4252 H   0  0  0  0  0  0  0  0  0  0  0  0
   65.1268   33.9093   48.4252 H   0  0  0  0  0  0  0  0  0  0  0  0
   63.6570   34.7580   46.8280 H   0  0  0  0  0  0  0  0  0  0  0  0
   62.5688   31.3240   47.5402 H   0  0  0  0  0  0  0  0  0  0  0  0
   59.6022   29.5142   45.0048 H   0  0  0  0  0  0  0  0  0  0  0  0
   61.3832   29.3287   45.2619 H   0  0  0  0  0  0  0  0  0  0  0  0
   60.0041   27.1557   45.1569 H   0  0  0  0  0  0  0  0  0  0  0  0
   61.0959   27.3587   46.5725 H   0  0  0  0  0  0  0  0  0  0  0  0
   59.1011   25.0037   47.6512 H   0  0  0  0  0  0  0  0  0  0  0  0
   57.3529   23.2975   47.1467 H   0  0  0  0  0  0  0  0  0  0  0  0
   55.2936   23.9487   45.9023 H   0  0  0  0  0  0  0  0  0  0  0  0
   54.9658   26.3107   45.1701 H   0  0  0  0  0  0  0  0  0  0  0  0
   57.9200   29.7155   44.6690 H   0  0  0  0  0  0  0  0  0  0  0  0
   57.7155   28.1381   43.8344 H   0  0  0  0  0  0  0  0  0  0  0  0
   56.3756   29.3346   43.8344 H   0  0  0  0  0  0  0  0  0  0  0  0
   57.9347   29.0339   48.0325 H   0  0  0  0  0  0  0  0  0  0  0  0
   58.8844   27.8741   49.0491 H   0  0  0  0  0  0  0  0  0  0  0  0
   59.7532   30.3022   48.9207 H   0  0  0  0  0  0  0  0  0  0  0  0
   60.9332   28.9811   48.5987 H   0  0  0  0  0  0  0  0  0  0  0  0
   58.0375   30.7977   45.9716 H   0  0  0  0  0  0  0  0  0  0  0  0
   56.3318   32.3906   45.0906 H   0  0  0  0  0  0  0  0  0  0  0  0
   56.8686   34.8163   44.8817 H   0  0  0  0  0  0  0  0  0  0  0  0
   59.1145   35.6663   45.5616 H   0  0  0  0  0  0  0  0  0  0  0  0
  1  2  1  0
  2  3  1  0
  3  4  2  0
  4  5  1  0
  5  6  1  0
  6  7  1  0
  7  8  1  0
  8  9  1  0
  9 10  1  0
 10 11  2  0
 11 12  1  0
 12 13  2  0
 13 14  1  0
 14 15  2  0
 15 16  1  0
 16 17  1  0
  9 18  1  0
 18 19  1  0
  5 20  2  0
 20 21  1  0
 21 22  2  0
 22 23  1  0
 23 24  2  0
 24 25  1  0
 25 26  2  0
 26  3  1  0
 19  6  1  0
 25 20  1  0
 15 10  1  0
  1 27  1  0
  1 28  1  0
  1 29  1  0
  2 30  1  0
  4 31  1  0
  7 32  1  0
  7 33  1  0
  8 34  1  0
  8 35  1  0
 11 36  1  0
 12 37  1  0
 13 38  1  0
 14 39  1  0
 17 40  1  0
 17 41  1  0
 17 42  1  0
 18 43  1  0
 18 44  1  0
 19 45  1  0
 19 46  1  0
 21 47  1  0
 22 48  1  0
 23 49  1  0
 24 50  1  0
M  END
>  <UniqueID>  (7) 
7

>  <SMILES>  (7) 
CNc1cc(N2CCN(c3ccccc3OC)CC2)c2ccccc2n1

>  <Energy>  (7) 
65.45659787152475

>  <Genealogy>  (7) 
CNc1cc(N2CCN(c3ccccc3OC)CC2)c2ccccc2n1 (3D coordinates assigned)
CNc1cc(N2CCN(c3ccccc3OC)CC2)c2ccccc2n1 (nonaromatic ring conformer: 65.45659787152475 kcal/mol)

>  <smiles>  (7) 
CNc1cc(N2CCN(c3ccccc3OC)CC2)c2ccccc2n1

>  <score_type>  (7) 
oracle

>  <origin>  (7) 
adg

>  <m_score__min__energy>  (7) 
-7.7199999999999998

>  <m_primary>  (7) 
energy

$$$$
7:0
     RDKit          3D

 50 52  0  0  0  0  0  0  0  0999 V2000
   59.0780   29.6590   45.7430 C   0  0  0  0  0  0  0  0  0  0  0  0
   58.1210   30.2530   44.7130 C   0  0  0  0  0  0  0  0  0  0  0  0
   57.2480   31.2670   45.3260 N   0  0  0  0  0  0  0  0  0  0  0  0
   57.3480   32.5850   44.6740 C   0  0  0  0  0  0  0  0  0  0  0  0
   57.1590   33.6920   45.7140 C   0  0  0  0  0  0  0  0  0  0  0  0
   58.4600   34.0310   46.4590 C   0  0  0  0  0  0  0  0  0  0  0  0
   59.1390   32.8370   46.9840 N   0  0  0  0  0  0  0  0  0  0  0  0
   60.0180   32.8710   48.1280 C   0  0  0  0  0  0  0  0  0  0  0  0
   61.3820   33.1650   47.9530 C   0  0  0  0  0  0  0  0  0  0  0  0
   61.8740   33.6170   46.7090 C   0  0  0  0  0  0  0  0  0  0  0  0
   63.2380   33.7950   46.5020 C   0  0  0  0  0  0  0  0  0  0  0  0
   64.1370   33.5210   47.5240 C   0  0  0  0  0  0  0  0  0  0  0  0
   63.6740   33.1150   48.7740 C   0  0  0  0  0  0  0  0  0  0  0  0
   62.2850   32.9770   49.0340 C   0  0  0  0  0  0  0  0  0  0  0  0
   61.8090   32.6460   50.2900 N   0  0  0  0  0  0  0  0  0  0  0  0
   62.7130   32.7100   51.4620 C   0  0  0  0  0  0  0  0  0  0  0  0
   60.4770   32.3150   50.4630 C   0  0  0  0  0  0  0  0  0  0  0  0
   59.9930   31.7790   51.6840 C   0  0  0  0  0  0  0  0  0  0  0  0
   58.6300   31.5630   51.8980 C   0  0  0  0  0  0  0  0  0  0  0  0
   58.2250   31.0380   53.1360 O   0  0  0  0  0  0  0  0  0  0  0  0
   56.9350   30.4930   53.3950 C   0  0  0  0  0  0  0  0  0  0  0  0
   57.7190   31.8800   50.8840 C   0  0  0  0  0  0  0  0  0  0  0  0
   58.1740   32.3460   49.6550 C   0  0  0  0  0  0  0  0  0  0  0  0
   59.5520   32.5010   49.4040 C   0  0  0  0  0  0  0  0  0  0  0  0
   58.7133   29.8854   46.7558 H   0  0  0  0  0  0  0  0  0  0  0  0
   59.1316   28.5687   45.6078 H   0  0  0  0  0  0  0  0  0  0  0  0
   60.0789   30.0949   45.6078 H   0  0  0  0  0  0  0  0  0  0  0  0
   58.7054   30.7213   43.9073 H   0  0  0  0  0  0  0  0  0  0  0  0
   57.4913   29.4446   44.3131 H   0  0  0  0  0  0  0  0  0  0  0  0
   56.2620   30.9280   45.2250 H   0  0  0  0  0  0  0  0  0  0  0  0
   58.3387   32.6875   44.2071 H   0  0  0  0  0  0  0  0  0  0  0  0
   56.5660   32.6708   43.9052 H   0  0  0  0  0  0  0  0  0  0  0  0
   56.7991   34.5974   45.2034 H   0  0  0  0  0  0  0  0  0  0  0  0
   56.4336   33.3304   46.4577 H   0  0  0  0  0  0  0  0  0  0  0  0
   59.1398   34.5459   45.7642 H   0  0  0  0  0  0  0  0  0  0  0  0
   58.1966   34.6682   47.3161 H   0  0  0  0  0  0  0  0  0  0  0  0
   58.9030   31.9120   46.5600 H   0  0  0  0  0  0  0  0  0  0  0  0
   61.1689   33.8313   45.8923 H   0  0  0  0  0  0  0  0  0  0  0  0
   63.6044   34.1529   45.5285 H   0  0  0  0  0  0  0  0  0  0  0  0
   65.2176   33.6247   47.3465 H   0  0  0  0  0  0  0  0  0  0  0  0
   64.3975   32.8975   49.5736 H   0  0  0  0  0  0  0  0  0  0  0  0
   62.1184   32.6679   52.3865 H   0  0  0  0  0  0  0  0  0  0  0  0
   63.4093   31.8589   51.4349 H   0  0  0  0  0  0  0  0  0  0  0  0
   63.2825   33.6507   51.4349 H   0  0  0  0  0  0  0  0  0  0  0  0
   60.7082   31.5276   52.4810 H   0  0  0  0  0  0  0  0  0  0  0  0
   56.7766   30.4261   54.4815 H   0  0  0  0  0  0  0  0  0  0  0  0
   56.1665   31.1433   52.9518 H   0  0  0  0  0  0  0  0  0  0  0  0
   56.8655   29.4886   52.9518 H   0  0  0  0  0  0  0  0  0  0  0  0
   56.6397   31.7602   51.0595 H   0  0  0  0  0  0  0  0  0  0  0  0
   57.4479   32.5971   48.8678 H   0  0  0  0  0  0  0  0  0  0  0  0
  1  2  1  0
  2  3  1  0
  3  4  1  0
  4  5  1  0
  5  6  1  0
  6  7  1  0
  7  8  1  0
  8  9  2  0
  9 10  1  0
 10 11  2  0
 11 12  1  0
 12 13  2  0
 13 14  1  0
 14 15  2  0
 15 16  1  0
 15 17  1  0
 17 18  2  0
 18 19  1  0
 19 20  1  0
 20 21  1  0
 19 22  2  0
 22 23  1  0
 23 24  2  0
 24  8  1  0
 14  9  1  0
 24 17  1  0
  1 25  1  0
  1 26  1  0
  1 27  1  0
  2 28  1  0
  2 29  1  0
  3 30  1  0
  4 31  1  0
  4 32  1  0
  5 33  1  0
  5 34  1  0
  6 35  1  0
  6 36  1  0
  7 37  1  0
 10 38  1  0
 11 39  1  0
 12 40  1  0
 13 41  1  0
 16 42  1  0
 16 43  1  0
 16 44  1  0
 18 45  1  0
 21 46  1  0
 21 47  1  0
 21 48  1  0
 22 49  1  0
 23 50  1  0
M  CHG  1  15   1
M  END
>  <UniqueID>  (8) 
8

>  <SMILES>  (8) 
CCNCCCNc1c2ccccc2[n+](C)c2cc(OC)ccc12

>  <Energy>  (8) 
72.49471234171865

>  <Genealogy>  (8) 
CCNCCCNc1c2ccccc2[n+](C)c2cc(OC)ccc12 (3D coordinates assigned)
CCNCCCNc1c2ccccc2[n+](C)c2cc(OC)ccc12 (optimized conformer: 72.49471234171865 kcal/mol)

>  <smiles>  (8) 
CCNCCCNc1c2ccccc2[n+](C)c2cc(OC)ccc12

>  <score_type>  (8) 
oracle

>  <origin>  (8) 
adg

>  <m_score__min__energy>  (8) 
-5.4000000000000004

>  <m_primary>  (8) 
energy

$$$$
8:0
     RDKit          3D

 62 64  0  0  0  0  0  0  0  0999 V2000
   60.5080   29.7440   45.9220 C   0  0  0  0  0  0  0  0  0  0  0  0
   59.0830   29.8440   46.2780 N   0  0  0  0  0  0  0  0  0  0  0  0
   58.7720   28.8610   47.3330 C   0  0  0  0  0  0  0  0  0  0  0  0
   58.2380   29.6270   45.0840 C   0  0  0  0  0  0  0  0  0  0  0  0
   57.6850   30.9530   44.5640 C   0  0  0  0  0  0  0  0  0  0  0  0
   57.6620   31.8860   45.6230 O   0  0  0  0  0  0  0  0  0  0  0  0
   57.3440   33.1660   45.1210 C   0  0  0  0  0  0  0  0  0  0  0  0
   58.6250   33.8570   44.6740 C   0  0  0  0  0  0  0  0  0  0  0  0
   59.5470   33.8550   45.7440 O   0  0  0  0  0  0  0  0  0  0  0  0
   58.9890   34.4680   46.8920 C   0  0  0  0  0  0  0  0  0  0  0  0
   58.7720   33.4480   48.0210 C   0  0  0  0  0  0  0  0  0  0  0  0
   59.2390   32.0850   47.6850 N   0  0  0  0  0  0  0  0  0  0  0  0
   60.3130   31.6390   48.5700 C   0  0  0  0  0  0  0  0  0  0  0  0
   61.6540   32.0350   48.3070 C   0  0  0  0  0  0  0  0  0  0  0  0
   62.6660   31.7640   49.2660 C   0  0  0  0  0  0  0  0  0  0  0  0
   62.3940   30.9680   50.3610 N   0  0  0  0  0  0  0  0  0  0  0  0
   63.5000   30.4990   51.2290 C   0  0  0  0  0  0  0  0  0  0  0  0
   61.0960   30.6080   50.6610 C   0  0  0  0  0  0  0  0  0  0  0  0
   60.7790   29.9580   51.8850 C   0  0  0  0  0  0  0  0  0  0  0  0
   59.4850   29.5410   52.1700 C   0  0  0  0  0  0  0  0  0  0  0  0
   58.4690   29.7590   51.2550 C   0  0  0  0  0  0  0  0  0  0  0  0
   58.7340   30.4270   50.0640 C   0  0  0  0  0  0  0  0  0  0  0  0
   60.0370   30.8980   49.7530 C   0  0  0  0  0  0  0  0  0  0  0  0
   64.0680   32.3360   49.0710 C   0  0  0  0  0  0  0  0  0  0  0  0
   64.1190   33.4970   48.0860 C   0  0  0  0  0  0  0  0  0  0  0  0
   63.4720   33.0620   46.7850 C   0  0  0  0  0  0  0  0  0  0  0  0
   61.9880   32.7750   47.0070 C   0  0  0  0  0  0  0  0  0  0  0  0
   61.1131   29.7015   46.8396 H   0  0  0  0  0  0  0  0  0  0  0  0
   60.6750   28.8319   45.3302 H   0  0  0  0  0  0  0  0  0  0  0  0
   60.8007   30.6238   45.3302 H   0  0  0  0  0  0  0  0  0  0  0  0
   58.9184   29.3238   48.3201 H   0  0  0  0  0  0  0  0  0  0  0  0
   57.7265   28.5340   47.2328 H   0  0  0  0  0  0  0  0  0  0  0  0
   59.4391   27.9922   47.2328 H   0  0  0  0  0  0  0  0  0  0  0  0
   58.8419   29.1539   44.2957 H   0  0  0  0  0  0  0  0  0  0  0  0
   57.3949   28.9773   45.3614 H   0  0  0  0  0  0  0  0  0  0  0  0
   58.3279   31.3291   43.7546 H   0  0  0  0  0  0  0  0  0  0  0  0
   56.6665   30.8052   44.1756 H   0  0  0  0  0  0  0  0  0  0  0  0
   56.6607   33.0667   44.2647 H   0  0  0  0  0  0  0  0  0  0  0  0
   56.8556   33.7617   45.9062 H   0  0  0  0  0  0  0  0  0  0  0  0
   59.0544   33.3184   43.8164 H   0  0  0  0  0  0  0  0  0  0  0  0
   58.4038   34.8926   44.3765 H   0  0  0  0  0  0  0  0  0  0  0  0
   59.6721   35.2542   47.2460 H   0  0  0  0  0  0  0  0  0  0  0  0
   58.0129   34.8945   46.6176 H   0  0  0  0  0  0  0  0  0  0  0  0
   59.3181   33.7932   48.9113 H   0  0  0  0  0  0  0  0  0  0  0  0
   57.6876   33.3841   48.1943 H   0  0  0  0  0  0  0  0  0  0  0  0
   58.4450   31.4160   47.6300 H   0  0  0  0  0  0  0  0  0  0  0  0
   59.5710   32.0960   46.6970 H   0  0  0  0  0  0  0  0  0  0  0  0
   63.2144   30.6201   52.2844 H   0  0  0  0  0  0  0  0  0  0  0  0
   63.7026   29.4375   51.0234 H   0  0  0  0  0  0  0  0  0  0  0  0
   64.4038   31.0913   51.0234 H   0  0  0  0  0  0  0  0  0  0  0  0
   61.5758   29.7814   52.6225 H   0  0  0  0  0  0  0  0  0  0  0  0
   59.2673   29.0372   53.1233 H   0  0  0  0  0  0  0  0  0  0  0  0
   57.4506   29.4034   51.4702 H   0  0  0  0  0  0  0  0  0  0  0  0
   57.9163   30.5940   49.3474 H   0  0  0  0  0  0  0  0  0  0  0  0
   64.4386   32.6890   50.0447 H   0  0  0  0  0  0  0  0  0  0  0  0
   64.6910   31.5307   48.6545 H   0  0  0  0  0  0  0  0  0  0  0  0
   63.5739   34.3578   48.5004 H   0  0  0  0  0  0  0  0  0  0  0  0
   65.1642   33.7883   47.9049 H   0  0  0  0  0  0  0  0  0  0  0  0
   63.5800   33.8633   46.0392 H   0  0  0  0  0  0  0  0  0  0  0  0
   63.9658   32.1471   46.4256 H   0  0  0  0  0  0  0  0  0  0  0  0
   61.4530   33.7361   47.0154 H   0  0  0  0  0  0  0  0  0  0  0  0
   61.6802   32.1080   46.1882 H   0  0  0  0  0  0  0  0  0  0  0  0
  1  2  1  0
  2  3  1  0
  2  4  1  0
  4  5  1  0
  5  6  1  0
  6  7  1  0
  7  8  1  0
  8  9  1  0
  9 10  1  0
 10 11  1  0
 11 12  1  0
 12 13  1  0
 13 14  2  0
 14 15  1  0
 15 16  2  0
 16 17  1  0
 16 18  1  0
 18 19  2  0
 19 20  1  0
 20 21  2  0
 21 22  1  0
 22 23  2  0
 15 24  1  0
 24 25  1  0
 25 26  1  0
 26 27  1  0
 23 13  1  0
 27 14  1  0
 23 18  1  0
  1 28  1  0
  1 29  1  0
  1 30  1  0
  3 31  1  0
  3 32  1  0
  3 33  1  0
  4 34  1  0
  4 35  1  0
  5 36  1  0
  5 37  1  0
  7 38  1  0
  7 39  1  0
  8 40  1  0
  8 41  1  0
 10 42  1  0
 10 43  1  0
 11 44  1  0
 11 45  1  0
 12 46  1  0
 12 47  1  0
 17 48  1  0
 17 49  1  0
 17 50  1  0
 19 51  1  0
 20 52  1  0
 21 53  1  0
 22 54  1  0
 24 55  1  0
 24 56  1  0
 25 57  1  0
 25 58  1  0
 26 59  1  0
 26 60  1  0
 27 61  1  0
 27 62  1  0
M  CHG  2  12   1  16   1
M  END
>  <UniqueID>  (9) 
9

>  <SMILES>  (9) 
CN(C)CCOCCOCC[NH2+]c1c2c([n+](C)c3ccccc13)CCCC2

>  <Energy>  (9) 
85.51775959789988

>  <Genealogy>  (9) 
CN(C)CCOCCOCC[NH2+]c1c2c([n+](C)c3ccccc13)CCCC2 (protonated)
CN(C)CCOCCOCC[NH2+]c1c2c([n+](C)c3ccccc13)CCCC2 (3D coordinates assigned)
CN(C)CCOCCOCC[NH2+]c1c2c([n+](C)c3ccccc13)CCCC2 (nonaromatic ring conformer: 85.51775959789988 kcal/mol)

>  <smiles>  (9) 
CN(C)CCOCCOCCNc1c2c([n+](C)c3ccccc13)CCCC2

>  <score_type>  (9) 
oracle

>  <origin>  (9) 
adg

>  <m_score__min__energy>  (9) 
-3.71

>  <m_primary>  (9) 
energy

$$$$
9:0
     RDKit          3D

 33 34  0  0  0  0  0  0  0  0999 V2000
   56.2680   29.7180   42.8640 C   0  0  0  0  0  0  0  0  0  0  0  0
   55.9050   30.4970   44.1270 C   0  0  0  0  0  0  0  0  0  0  0  0
   57.0080   30.4300   45.1210 N   0  0  0  0  0  0  0  0  0  0  0  0
   57.8680   29.2510   44.8280 C   0  0  0  0  0  0  0  0  0  0  0  0
   57.4030   28.0420   45.6370 C   0  0  0  0  0  0  0  0  0  0  0  0
   57.8400   31.6720   45.2480 C   0  0  1  0  0  0  0  0  0  0  0  0
   57.0470   33.0090   45.1470 C   0  0  0  0  0  0  0  0  0  0  0  0
   58.2020   34.4100   44.9360 S   0  0  0  0  0  0  0  0  0  0  0  0
   58.9660   34.1530   46.5300 C   0  0  0  0  0  0  0  0  0  0  0  0
   59.2640   35.1100   47.3340 N   0  0  0  0  0  0  0  0  0  0  0  0
   59.8330   34.5780   48.5630 C   0  0  0  0  0  0  0  0  0  0  0  0
   59.7780   33.0500   48.3880 C   0  0  0  0  0  0  0  0  0  0  0  0
   59.2280   32.8670   47.0510 N   0  0  0  0  0  0  0  0  0  0  0  0
   58.5710   31.6790   46.5880 C   0  0  0  0  0  0  0  0  0  0  0  0
   58.5830   30.6510   47.3190 O   0  0  0  0  0  0  0  0  0  0  0  0
   56.7173   28.7539   43.1443 H   0  0  0  0  0  0  0  0  0  0  0  0
   55.3600   29.5403   42.2691 H   0  0  0  0  0  0  0  0  0  0  0  0
   56.9881   30.2990   42.2691 H   0  0  0  0  0  0  0  0  0  0  0  0
   55.7210   31.5487   43.8622 H   0  0  0  0  0  0  0  0  0  0  0  0
   55.0022   30.0513   44.5701 H   0  0  0  0  0  0  0  0  0  0  0  0
   57.8072   29.0151   43.7553 H   0  0  0  0  0  0  0  0  0  0  0  0
   58.9063   29.4880   45.1033 H   0  0  0  0  0  0  0  0  0  0  0  0
   57.4886   28.2645   46.7109 H   0  0  0  0  0  0  0  0  0  0  0  0
   56.3545   27.8178   45.3914 H   0  0  0  0  0  0  0  0  0  0  0  0
   58.0310   27.1729   45.3914 H   0  0  0  0  0  0  0  0  0  0  0  0
   58.5281   31.6308   44.3908 H   0  0  0  0  0  0  0  0  0  0  0  0
   56.3674   32.9645   44.2832 H   0  0  0  0  0  0  0  0  0  0  0  0
   56.4687   33.1553   46.0712 H   0  0  0  0  0  0  0  0  0  0  0  0
   59.1220   36.1240   47.1260 H   0  0  0  0  0  0  0  0  0  0  0  0
   60.8719   34.9172   48.6884 H   0  0  0  0  0  0  0  0  0  0  0  0
   59.2858   34.9152   49.4557 H   0  0  0  0  0  0  0  0  0  0  0  0
   60.7844   32.6119   48.4600 H   0  0  0  0  0  0  0  0  0  0  0  0
   59.1751   32.5567   49.1646 H   0  0  0  0  0  0  0  0  0  0  0  0
  1  2  1  0
  2  3  1  0
  3  4  1  0
  4  5  1  0
  3  6  1  0
  6  7  1  0
  7  8  1  0
  8  9  1  0
  9 10  2  0
 10 11  1  0
 11 12  1  0
 12 13  1  0
 13 14  1  0
 14 15  2  0
 14  6  1  0
 13  9  1  0
  1 16  1  0
  1 17  1  0
  1 18  1  0
  2 19  1  0
  2 20  1  0
  4 21  1  0
  4 22  1  0
  5 23  1  0
  5 24  1  0
  5 25  1  0
  6 26  1  6
  7 27  1  0
  7 28  1  0
 10 29  1  0
 11 30  1  0
 11 31  1  0
 12 32  1  0
 12 33  1  0
M  CHG  1  10   1
M  END
>  <UniqueID>  (10) 
10

>  <SMILES>  (10) 
CCN(CC)[C@H]1CSC2=[NH+]CCN2C1=O

>  <Energy>  (10) 
55.799983950674594

>  <Genealogy>  (10) 
CCN(CC)C1CSC2=[NH+]CCN2C1=O (protonated)
CCN(CC)[C@H]1CSC2=[NH+]CCN2C1=O (chirality)
CCN(CC)[C@H]1CSC2=[NH+]CCN2C1=O (3D coordinates assigned)
CCN(CC)[C@H]1CSC2=[NH+]CCN2C1=O (nonaromatic ring conformer: 55.799983950674594 kcal/mol)

>  <smiles>  (10) 
CCN(CC)C1CSC2=NCCN2C1=O

>  <score_type>  (10) 
oracle

>  <origin>  (10) 
adg

>  <m_score__min__energy>  (10) 
-4.6799999999999997

>  <m_primary>  (10) 
energy

$$$$
10:0
     RDKit          3D

 46 48  0  0  0  0  0  0  0  0999 V2000
   59.0340   27.2630   46.7580 C   0  0  0  0  0  0  0  0  0  0  0  0
   57.7670   26.7380   46.0930 C   0  0  0  0  0  0  0  0  0  0  0  0
   57.1030   27.8200   45.3530 N   0  0  0  0  0  0  0  0  0  0  0  0
   57.9830   28.3790   44.3150 C   0  0  0  0  0  0  0  0  0  0  0  0
   57.2900   29.5380   43.5960 C   0  0  0  0  0  0  0  0  0  0  0  0
   56.1920   30.1000   44.4420 C   0  0  0  0  0  0  0  0  0  0  0  0
   55.2830   29.3380   44.8690 O   0  0  0  0  0  0  0  0  0  0  0  0
   56.2440   31.4760   44.8420 N   0  0  0  0  0  0  0  0  0  0  0  0
   57.4190   32.2210   45.1910 C   0  0  0  0  0  0  0  0  0  0  0  0
   57.7140   33.4660   44.6080 C   0  0  0  0  0  0  0  0  0  0  0  0
   58.8770   34.1520   44.9670 C   0  0  0  0  0  0  0  0  0  0  0  0
   59.7650   33.5950   45.8890 C   0  0  0  0  0  0  0  0  0  0  0  0
   59.5070   32.3330   46.4470 C   0  0  0  0  0  0  0  0  0  0  0  0
   60.4360   31.7370   47.4310 C   0  0  0  0  0  0  0  0  0  0  0  0
   60.2470   30.5330   48.0980 C   0  0  0  0  0  0  0  0  0  0  0  0
   61.2910   30.3250   48.9300 N   0  0  0  0  0  0  0  0  0  0  0  0
   62.0950   31.3890   48.7510 C   0  0  0  0  0  0  0  0  0  0  0  0
   63.3210   31.6050   49.3770 C   0  0  0  0  0  0  0  0  0  0  0  0
   64.0400   32.7660   49.0340 C   0  0  0  0  0  0  0  0  0  0  0  0
   65.3840   33.0260   49.6460 C   0  0  0  0  0  0  0  0  0  0  0  0
   63.5280   33.6420   48.0510 C   0  0  0  0  0  0  0  0  0  0  0  0
   62.2890   33.3700   47.4530 C   0  0  0  0  0  0  0  0  0  0  0  0
   61.6090   32.2590   47.8480 N   0  0  0  0  0  0  0  0  0  0  0  0
   58.3270   31.6560   46.0970 C   0  0  0  0  0  0  0  0  0  0  0  0
   58.9208   27.2161   47.8512 H   0  0  0  0  0  0  0  0  0  0  0  0
   59.8916   26.6462   46.4514 H   0  0  0  0  0  0  0  0  0  0  0  0
   59.2040   28.3056   46.4514 H   0  0  0  0  0  0  0  0  0  0  0  0
   58.0298   25.9281   45.3965 H   0  0  0  0  0  0  0  0  0  0  0  0
   57.0840   26.3574   46.8667 H   0  0  0  0  0  0  0  0  0  0  0  0
   56.2690   27.4060   44.8720 H   0  0  0  0  0  0  0  0  0  0  0  0
   58.9089   28.7445   44.7831 H   0  0  0  0  0  0  0  0  0  0  0  0
   58.2151   27.5921   43.5822 H   0  0  0  0  0  0  0  0  0  0  0  0
   58.0272   30.3277   43.3888 H   0  0  0  0  0  0  0  0  0  0  0  0
   56.8581   29.1650   42.6556 H   0  0  0  0  0  0  0  0  0  0  0  0
   57.0272   33.9012   43.8671 H   0  0  0  0  0  0  0  0  0  0  0  0
   59.0937   35.1342   44.5217 H   0  0  0  0  0  0  0  0  0  0  0  0
   60.6708   34.1474   46.1795 H   0  0  0  0  0  0  0  0  0  0  0  0
   59.3873   29.8588   47.9696 H   0  0  0  0  0  0  0  0  0  0  0  0
   61.4400   29.5090   49.5650 H   0  0  0  0  0  0  0  0  0  0  0  0
   63.7146   30.8912   50.1156 H   0  0  0  0  0  0  0  0  0  0  0  0
   65.2971   33.0092   50.7424 H   0  0  0  0  0  0  0  0  0  0  0  0
   66.0910   32.2480   49.3223 H   0  0  0  0  0  0  0  0  0  0  0  0
   65.7498   34.0116   49.3223 H   0  0  0  0  0  0  0  0  0  0  0  0
   64.0993   34.5344   47.7556 H   0  0  0  0  0  0  0  0  0  0  0  0
   61.8765   34.0386   46.6830 H   0  0  0  0  0  0  0  0  0  0  0  0
   58.1132   30.6716   46.5388 H   0  0  0  0  0  0  0  0  0  0  0  0
  1  2  1  0
  2  3  1  0
  3  4  1  0
  4  5  1  0
  5  6  1  0
  6  7  2  0
  6  8  1  0
  8  9  1  0
  9 10  2  0
 10 11  1  0
 11 12  2  0
 12 13  1  0
 13 14  1  0
 14 15  2  0
 15 16  1  0
 16 17  2  0
 17 18  1  0
 18 19  2  0
 19 20  1  0
 19 21  1  0
 21 22  2  0
 22 23  1  0
 13 24  2  0
 24  9  1  0
 23 14  1  0
 23 17  1  0
  1 25  1  0
  1 26  1  0
  1 27  1  0
  2 28  1  0
  2 29  1  0
  3 30  1  0
  4 31  1  0
  4 32  1  0
  5 33  1  0
  5 34  1  0
 10 35  1  0
 11 36  1  0
 12 37  1  0
 15 38  1  0
 16 39  1  0
 18 40  1  0
 20 41  1  0
 20 42  1  0
 20 43  1  0
 21 44  1  0
 22 45  1  0
 24 46  1  0
M  CHG  2   8  -1  16   1
M  END
>  <UniqueID>  (11) 
11

>  <SMILES>  (11) 
CCNCCC(=O)[N-]c1cccc(-c2c[nH+]c3cc(C)ccn23)c1

>  <Energy>  (11) 
85.05200742661656

>  <Genealogy>  (11) 
CCNCCC(=O)[N-]c1cccc(-c2c[nH+]c3cc(C)ccn23)c1 (protonated)
CCNCCC(=O)[N-]c1cccc(-c2c[nH+]c3cc(C)ccn23)c1 (3D coordinates assigned)
CCNCCC(=O)[N-]c1cccc(-c2c[nH+]c3cc(C)ccn23)c1 (optimized conformer: 85.05200742661656 kcal/mol)

>  <smiles>  (11) 
CCNCCC(=O)Nc1cccc(-c2cnc3cc(C)ccn23)c1

>  <score_type>  (11) 
oracle

>  <origin>  (11) 
adg

>  <m_score__min__energy>  (11) 
-8.8699999999999992

>  <m_primary>  (11) 
energy

$$$$
11:0
     RDKit          3D

 50 52  0  0  0  0  0  0  0  0999 V2000
   59.0240   26.5540   45.2010 C   0  0  0  0  0  0  0  0  0  0  0  0
   58.0440   26.8440   44.0700 C   0  0  0  0  0  0  0  0  0  0  0  0
   58.1440   28.2560   43.6790 N   0  0  0  0  0  0  0  0  0  0  0  0
   57.0210   29.0530   44.1950 C   0  0  0  0  0  0  0  0  0  0  0  0
   57.4940   30.1550   45.1560 C   0  0  0  0  0  0  0  0  0  0  0  0
   58.9480   30.3410   45.1040 N   0  0  0  0  0  0  0  0  0  0  0  0
   59.6620   31.1240   46.0770 C   0  0  0  0  0  0  0  0  0  0  0  0
   60.3440   30.4830   47.1280 C   0  0  0  0  0  0  0  0  0  0  0  0
   60.9370   31.2650   48.1500 C   0  0  0  0  0  0  0  0  0  0  0  0
   60.9890   32.6400   48.0330 N   0  0  0  0  0  0  0  0  0  0  0  0
   61.8570   33.4220   48.9390 C   0  0  0  0  0  0  0  0  0  0  0  0
   60.2570   33.2820   47.0530 C   0  0  0  0  0  0  0  0  0  0  0  0
   60.0990   34.6920   47.0410 C   0  0  0  0  0  0  0  0  0  0  0  0
   59.4300   35.3320   45.9990 C   0  0  0  0  0  0  0  0  0  0  0  0
   58.9040   34.5910   44.9480 C   0  0  0  0  0  0  0  0  0  0  0  0
   59.0010   33.2030   44.9560 C   0  0  0  0  0  0  0  0  0  0  0  0
   59.6280   32.5300   46.0260 C   0  0  0  0  0  0  0  0  0  0  0  0
   61.5430   30.5340   49.3460 C   0  0  0  0  0  0  0  0  0  0  0  0
   60.4910   29.8030   50.2030 C   0  0  0  0  0  0  0  0  0  0  0  0
   60.1310   28.3830   49.7250 C   0  0  0  0  0  0  0  0  0  0  0  0
   59.5740   28.3130   48.2900 C   0  0  0  0  0  0  0  0  0  0  0  0
   60.4410   28.9590   47.1850 C   0  0  0  0  0  0  0  0  0  0  0  0
   58.5219   26.7026   46.1684 H   0  0  0  0  0  0  0  0  0  0  0  0
   59.3738   25.5138   45.1254 H   0  0  0  0  0  0  0  0  0  0  0  0
   59.8835   27.2363   45.1254 H   0  0  0  0  0  0  0  0  0  0  0  0
   58.2841   26.2073   43.2057 H   0  0  0  0  0  0  0  0  0  0  0  0
   57.0201   26.6320   44.4116 H   0  0  0  0  0  0  0  0  0  0  0  0
   58.1090   28.2990   42.6340 H   0  0  0  0  0  0  0  0  0  0  0  0
   56.4979   29.5205   43.3478 H   0  0  0  0  0  0  0  0  0  0  0  0
   56.3524   28.3796   44.7513 H   0  0  0  0  0  0  0  0  0  0  0  0
   57.0047   31.1009   44.8804 H   0  0  0  0  0  0  0  0  0  0  0  0
   57.2261   29.8524   46.1790 H   0  0  0  0  0  0  0  0  0  0  0  0
   59.4930   29.8560   44.3560 H   0  0  0  0  0  0  0  0  0  0  0  0
   61.6001   33.1905   49.9832 H   0  0  0  0  0  0  0  0  0  0  0  0
   62.9095   33.1614   48.7539 H   0  0  0  0  0  0  0  0  0  0  0  0
   61.7072   34.4959   48.7539 H   0  0  0  0  0  0  0  0  0  0  0  0
   60.5111   35.2897   47.8674 H   0  0  0  0  0  0  0  0  0  0  0  0
   59.3182   36.4263   46.0088 H   0  0  0  0  0  0  0  0  0  0  0  0
   58.4102   35.1023   44.1085 H   0  0  0  0  0  0  0  0  0  0  0  0
   58.5842   32.6239   44.1188 H   0  0  0  0  0  0  0  0  0  0  0  0
   62.2672   29.7943   48.9741 H   0  0  0  0  0  0  0  0  0  0  0  0
   62.0199   31.2908   49.9862 H   0  0  0  0  0  0  0  0  0  0  0  0
   60.8794   29.7288   51.2295 H   0  0  0  0  0  0  0  0  0  0  0  0
   59.5675   30.3956   50.1259 H   0  0  0  0  0  0  0  0  0  0  0  0
   61.0394   27.7644   49.7713 H   0  0  0  0  0  0  0  0  0  0  0  0
   59.3309   28.0233   50.3887 H   0  0  0  0  0  0  0  0  0  0  0  0
   59.4412   27.2515   48.0337 H   0  0  0  0  0  0  0  0  0  0  0  0
   58.6417   28.8965   48.3091 H   0  0  0  0  0  0  0  0  0  0  0  0
   61.4911   28.6861   47.3659 H   0  0  0  0  0  0  0  0  0  0  0  0
   60.0637   28.5806   46.2235 H   0  0  0  0  0  0  0  0  0  0  0  0
  1  2  1  0
  2  3  1  0
  3  4  1  0
  4  5  1  0
  5  6  1  0
  6  7  1  0
  7  8  2  0
  8  9  1  0
  9 10  2  0
 10 11  1  0
 10 12  1  0
 12 13  2  0
 13 14  1  0
 14 15  2  0
 15 16  1  0
 16 17  2  0
  9 18  1  0
 18 19  1  0
 19 20  1  0
 20 21  1  0
 21 22  1  0
 17  7  1  0
 22  8  1  0
 17 12  1  0
  1 23  1  0
  1 24  1  0
  1 25  1  0
  2 26  1  0
  2 27  1  0
  3 28  1  0
  4 29  1  0
  4 30  1  0
  5 31  1  0
  5 32  1  0
  6 33  1  0
 11 34  1  0
 11 35  1  0
 11 36  1  0
 13 37  1  0
 14 38  1  0
 15 39  1  0
 16 40  1  0
 18 41  1  0
 18 42  1  0
 19 43  1  0
 19 44  1  0
 20 45  1  0
 20 46  1  0
 21 47  1  0
 21 48  1  0
 22 49  1  0
 22 50  1  0
M  CHG  1  10   1
M  END
>  <UniqueID>  (12) 
12

>  <SMILES>  (12) 
CCNCCNc1c2c([n+](C)c3ccccc13)CCCCC2

>  <Energy>  (12) 
73.01818105501607

>  <Genealogy>  (12) 
CCNCCNc1c2c([n+](C)c3ccccc13)CCCCC2 (3D coordinates assigned)
CCNCCNc1c2c([n+](C)c3ccccc13)CCCCC2 (nonaromatic ring conformer: 73.01818105501607 kcal/mol)

>  <smiles>  (12) 
CCNCCNc1c2c([n+](C)c3ccccc13)CCCCC2

>  <score_type>  (12) 
oracle

>  <origin>  (12) 
adg

>  <m_score__min__energy>  (12) 
-4.0300000000000002

>  <m_primary>  (12) 
energy

$$$$
12:0
     RDKit          3D

 46 48  0  0  0  0  0  0  0  0999 V2000
   63.0570   32.4090   47.4470 C   0  0  0  0  0  0  0  0  0  0  0  0
   62.7910   32.6540   48.8240 O   0  0  0  0  0  0  0  0  0  0  0  0
   61.5990   32.3050   49.4810 C   0  0  0  0  0  0  0  0  0  0  0  0
   61.4780   31.1110   50.2130 C   0  0  0  0  0  0  0  0  0  0  0  0
   60.2770   30.7800   50.8430 C   0  0  0  0  0  0  0  0  0  0  0  0
   59.1620   31.6330   50.7530 C   0  0  0  0  0  0  0  0  0  0  0  0
   57.8710   31.2880   51.4080 C   0  0  0  0  0  0  0  0  0  0  0  0
   57.1010   32.2870   52.2180 C   0  0  0  0  0  0  0  0  0  0  0  0
   57.3980   30.1260   51.2850 O   0  0  0  0  0  0  0  0  0  0  0  0
   59.2850   32.8280   50.0230 C   0  0  0  0  0  0  0  0  0  0  0  0
   60.4960   33.1750   49.4000 C   0  0  0  0  0  0  0  0  0  0  0  0
   60.5870   34.4470   48.6010 C   0  0  0  0  0  0  0  0  0  0  0  0
   59.3510   34.6650   47.9270 O   0  0  0  0  0  0  0  0  0  0  0  0
   58.9030   33.9190   46.8270 C   0  0  0  0  0  0  0  0  0  0  0  0
   59.0190   34.4810   45.5540 C   0  0  0  0  0  0  0  0  0  0  0  0
   58.5870   33.7840   44.4220 C   0  0  0  0  0  0  0  0  0  0  0  0
   58.0240   32.4950   44.5470 C   0  0  0  0  0  0  0  0  0  0  0  0
   57.5670   31.7450   43.4340 C   0  0  0  0  0  0  0  0  0  0  0  0
   57.6650   32.3300   42.0370 C   0  0  0  0  0  0  0  0  0  0  0  0
   57.0300   30.4510   43.6610 C   0  0  0  0  0  0  0  0  0  0  0  0
   56.5340   29.5880   42.5210 C   0  0  0  0  0  0  0  0  0  0  0  0
   56.9580   29.9770   44.9870 C   0  0  0  0  0  0  0  0  0  0  0  0
   56.4810   28.8380   45.2400 O   0  0  0  0  0  0  0  0  0  0  0  0
   57.3920   30.7190   45.9960 O   0  0  0  0  0  0  0  0  0  0  0  0
   57.9110   31.9280   45.8350 C   0  0  0  0  0  0  0  0  0  0  0  0
   58.3450   32.6350   46.9620 C   0  0  0  0  0  0  0  0  0  0  0  0
   63.8633   31.6663   47.3558 H   0  0  0  0  0  0  0  0  0  0  0  0
   62.1481   32.0251   46.9606 H   0  0  0  0  0  0  0  0  0  0  0  0
   63.3651   33.3463   46.9606 H   0  0  0  0  0  0  0  0  0  0  0  0
   62.3387   30.4304   50.2902 H   0  0  0  0  0  0  0  0  0  0  0  0
   60.2018   29.8435   51.4151 H   0  0  0  0  0  0  0  0  0  0  0  0
   57.2548   32.0875   53.2888 H   0  0  0  0  0  0  0  0  0  0  0  0
   57.4530   33.3016   51.9798 H   0  0  0  0  0  0  0  0  0  0  0  0
   56.0302   32.2050   51.9798 H   0  0  0  0  0  0  0  0  0  0  0  0
   58.4199   33.5020   49.9381 H   0  0  0  0  0  0  0  0  0  0  0  0
   60.7925   35.2914   49.2754 H   0  0  0  0  0  0  0  0  0  0  0  0
   61.4003   34.3643   47.8650 H   0  0  0  0  0  0  0  0  0  0  0  0
   59.4556   35.4843   45.4406 H   0  0  0  0  0  0  0  0  0  0  0  0
   58.6863   34.2427   43.4271 H   0  0  0  0  0  0  0  0  0  0  0  0
   57.8464   33.4128   42.1048 H   0  0  0  0  0  0  0  0  0  0  0  0
   58.4956   31.8522   41.4968 H   0  0  0  0  0  0  0  0  0  0  0  0
   56.7240   32.1490   41.4968 H   0  0  0  0  0  0  0  0  0  0  0  0
   56.0246   28.7016   42.9269 H   0  0  0  0  0  0  0  0  0  0  0  0
   55.8298   30.1651   41.9037 H   0  0  0  0  0  0  0  0  0  0  0  0
   57.3872   29.2700   41.9037 H   0  0  0  0  0  0  0  0  0  0  0  0
   58.2491   32.1834   47.9604 H   0  0  0  0  0  0  0  0  0  0  0  0
  1  2  1  0
  2  3  1  0
  3  4  2  0
  4  5  1  0
  5  6  2  0
  6  7  1  0
  7  8  1  0
  7  9  2  0
  6 10  1  0
 10 11  2  0
 11 12  1  0
 12 13  1  0
 13 14  1  0
 14 15  2  0
 15 16  1  0
 16 17  2  0
 17 18  1  0
 18 19  1  0
 18 20  2  0
 20 21  1  0
 20 22  1  0
 22 23  2  0
 22 24  1  0
 24 25  1  0
 25 26  2  0
 11  3  1  0
 26 14  1  0
 25 17  1  0
  1 27  1  0
  1 28  1  0
  1 29  1  0
  4 30  1  0
  5 31  1  0
  8 32  1  0
  8 33  1  0
  8 34  1  0
 10 35  1  0
 12 36  1  0
 12 37  1  0
 15 38  1  0
 16 39  1  0
 19 40  1  0
 19 41  1  0
 19 42  1  0
 21 43  1  0
 21 44  1  0
 21 45  1  0
 26 46  1  0
M  END
>  <UniqueID>  (13) 
13

>  <SMILES>  (13) 
COc1ccc(C(C)=O)cc1COc1ccc2c(C)c(C)c(=O)oc2c1

>  <Energy>  (13) 
57.04381826061753

>  <Genealogy>  (13) 
COc1ccc(C(C)=O)cc1COc1ccc2c(C)c(C)c(=O)oc2c1 (3D coordinates assigned)
COc1ccc(C(C)=O)cc1COc1ccc2c(C)c(C)c(=O)oc2c1 (optimized conformer: 57.04381826061753 kcal/mol)

>  <smiles>  (13) 
COc1ccc(C(C)=O)cc1COc1ccc2c(C)c(C)c(=O)oc2c1

>  <score_type>  (13) 
oracle

>  <origin>  (13) 
adg

>  <m_score__min__energy>  (13) 
-8.5199999999999996

>  <m_primary>  (13) 
energy

$$$$
13:0
     RDKit          3D

 50 53  0  0  0  0  0  0  0  0999 V2000
   65.9270   32.7440   50.1180 C   0  0  0  0  0  0  0  0  0  0  0  0
   64.6350   31.9480   49.8580 C   0  0  0  0  0  0  0  0  0  0  0  0
   63.5770   32.6690   49.0860 N   0  0  2  0  0  0  0  0  0  0  0  0
   64.0930   33.1900   47.7890 C   0  0  0  0  0  0  0  0  0  0  0  0
   62.9470   33.8430   46.9710 C   0  0  0  0  0  0  0  0  0  0  0  0
   61.6680   33.8010   47.7320 N   0  0  2  0  0  0  0  0  0  0  0  0
   60.5500   34.5100   47.0250 C   0  0  0  0  0  0  0  0  0  0  0  0
   59.1090   33.9760   47.2480 C   0  0  0  0  0  0  0  0  0  0  0  0
   58.5480   33.1850   46.0950 C   0  0  0  0  0  0  0  0  0  0  0  0
   58.3200   33.8050   44.8560 C   0  0  0  0  0  0  0  0  0  0  0  0
   57.8100   33.0740   43.7800 C   0  0  0  0  0  0  0  0  0  0  0  0
   57.5100   31.7140   43.9300 C   0  0  0  0  0  0  0  0  0  0  0  0
   57.0020   30.9690   42.8540 C   0  0  0  0  0  0  0  0  0  0  0  0
   56.7040   29.6130   43.0170 C   0  0  0  0  0  0  0  0  0  0  0  0
   56.9120   28.9910   44.2510 C   0  0  0  0  0  0  0  0  0  0  0  0
   57.4170   29.7210   45.3310 C   0  0  0  0  0  0  0  0  0  0  0  0
   57.7210   31.0830   45.1800 C   0  0  0  0  0  0  0  0  0  0  0  0
   58.2310   31.8250   46.2550 C   0  0  0  0  0  0  0  0  0  0  0  0
   61.8760   34.4840   49.0450 C   0  0  0  0  0  0  0  0  0  0  0  0
   63.0050   33.8030   49.8580 C   0  0  0  0  0  0  0  0  0  0  0  0
   61.3310   32.3800   48.0140 C   0  0  0  0  0  0  0  0  0  0  0  0
   62.4770   31.7030   48.8070 C   0  0  0  0  0  0  0  0  0  0  0  0
   66.0856   32.8417   51.2021 H   0  0  0  0  0  0  0  0  0  0  0  0
   66.7804   32.2148   49.6688 H   0  0  0  0  0  0  0  0  0  0  0  0
   65.8381   33.7442   49.6688 H   0  0  0  0  0  0  0  0  0  0  0  0
   64.9036   31.0403   49.2978 H   0  0  0  0  0  0  0  0  0  0  0  0
   64.2008   31.7468   50.8484 H   0  0  0  0  0  0  0  0  0  0  0  0
   64.8718   33.9418   47.9850 H   0  0  0  0  0  0  0  0  0  0  0  0
   64.5109   32.3530   47.2104 H   0  0  0  0  0  0  0  0  0  0  0  0
   63.2065   34.8906   46.7583 H   0  0  0  0  0  0  0  0  0  0  0  0
   62.8189   33.2838   46.0325 H   0  0  0  0  0  0  0  0  0  0  0  0
   60.5667   35.5601   47.3520 H   0  0  0  0  0  0  0  0  0  0  0  0
   60.7470   34.3476   45.9550 H   0  0  0  0  0  0  0  0  0  0  0  0
   59.1169   33.3282   48.1370 H   0  0  0  0  0  0  0  0  0  0  0  0
   58.4636   34.8592   47.3636 H   0  0  0  0  0  0  0  0  0  0  0  0
   58.5446   34.8746   44.7315 H   0  0  0  0  0  0  0  0  0  0  0  0
   57.6435   33.5683   42.8115 H   0  0  0  0  0  0  0  0  0  0  0  0
   56.8380   31.4535   41.8802 H   0  0  0  0  0  0  0  0  0  0  0  0
   56.3046   29.0338   42.1714 H   0  0  0  0  0  0  0  0  0  0  0  0
   56.6775   27.9232   44.3730 H   0  0  0  0  0  0  0  0  0  0  0  0
   57.5764   29.2272   46.3009 H   0  0  0  0  0  0  0  0  0  0  0  0
   58.3840   31.3395   47.2301 H   0  0  0  0  0  0  0  0  0  0  0  0
   62.1477   35.5344   48.8640 H   0  0  0  0  0  0  0  0  0  0  0  0
   60.9425   34.4189   49.6232 H   0  0  0  0  0  0  0  0  0  0  0  0
   63.7969   34.5373   50.0667 H   0  0  0  0  0  0  0  0  0  0  0  0
   62.5894   33.4224   50.8027 H   0  0  0  0  0  0  0  0  0  0  0  0
   60.4052   32.3373   48.6064 H   0  0  0  0  0  0  0  0  0  0  0  0
   61.1931   31.8489   47.0606 H   0  0  0  0  0  0  0  0  0  0  0  0
   62.0800   31.3248   49.7606 H   0  0  0  0  0  0  0  0  0  0  0  0
   62.8808   30.8772   48.2029 H   0  0  0  0  0  0  0  0  0  0  0  0
  1  2  1  0
  3  2  1  1
  3  4  1  0
  4  5  1  0
  5  6  1  0
  6  7  1  6
  7  8  1  0
  8  9  1  0
  9 10  2  0
 10 11  1  0
 11 12  2  0
 12 13  1  0
 13 14  2  0
 14 15  1  0
 15 16  2  0
 16 17  1  0
 17 18  2  0
  6 19  1  0
 19 20  1  0
  6 21  1  0
 21 22  1  0
 20  3  1  0
 22  3  1  0
 18  9  1  0
 17 12  1  0
  1 23  1  0
  1 24  1  0
  1 25  1  0
  2 26  1  0
  2 27  1  0
  4 28  1  0
  4 29  1  0
  5 30  1  0
  5 31  1  0
  7 32  1  0
  7 33  1  0
  8 34  1  0
  8 35  1  0
 10 36  1  0
 11 37  1  0
 13 38  1  0
 14 39  1  0
 15 40  1  0
 16 41  1  0
 18 42  1  0
 19 43  1  0
 19 44  1  0
 20 45  1  0
 20 46  1  0
 21 47  1  0
 21 48  1  0
 22 49  1  0
 22 50  1  0
M  CHG  2   3   1   6   1
M  END
>  <UniqueID>  (14) 
14

>  <SMILES>  (14) 
CC[N+]12CC[N+](CCc3ccc4ccccc4c3)(CC1)CC2

>  <Energy>  (14) 
84.73481476955327

>  <Genealogy>  (14) 
CC[N+]12CC[N+](CCc3ccc4ccccc4c3)(CC1)CC2 (3D coordinates assigned)
CC[N+]12CC[N+](CCc3ccc4ccccc4c3)(CC1)CC2 (nonaromatic ring conformer: 84.73481476955327 kcal/mol)

>  <smiles>  (14) 
CC[N+]12CC[N+](CCc3ccc4ccccc4c3)(CC1)CC2

>  <score_type>  (14) 
oracle

>  <origin>  (14) 
adg

>  <m_score__min__energy>  (14) 
-5.21

>  <m_primary>  (14) 
energy

$$$$
14:0
     RDKit          3D

 64 66  0  0  0  0  0  0  0  0999 V2000
   60.8890   31.7240   47.6440 C   0  0  0  0  0  0  0  0  0  0  0  0
   60.6700   31.8740   49.1540 C   0  0  0  0  0  0  0  0  0  0  0  0
   59.3600   32.4940   49.4850 N   0  0  2  0  0  0  0  0  0  0  0  0
   58.5530   32.6850   48.2610 C   0  0  0  0  0  0  0  0  0  0  0  0
   59.5930   33.7890   50.1720 C   0  0  0  0  0  0  0  0  0  0  0  0
   59.8630   33.6370   51.6870 C   0  0  0  0  0  0  0  0  0  0  0  0
   59.2970   32.4390   52.1940 O   0  0  0  0  0  0  0  0  0  0  0  0
   58.1530   32.7010   52.9880 C   0  0  0  0  0  0  0  0  0  0  0  0
   56.8990   32.0620   52.3800 C   0  0  0  0  0  0  0  0  0  0  0  0
   57.1600   31.5950   51.0750 O   0  0  0  0  0  0  0  0  0  0  0  0
   57.6140   30.3200   51.2040 N   0  0  0  0  0  0  0  0  0  0  0  0
   58.5800   29.7730   50.3060 C   0  0  0  0  0  0  0  0  0  0  0  0
   58.4740   29.9770   49.0680 O   0  0  0  0  0  0  0  0  0  0  0  0
   59.6790   28.8930   50.8180 C   0  0  0  0  0  0  0  0  0  0  0  0
   60.7120   28.6970   49.7830 N   0  0  0  0  0  0  0  0  0  0  0  0
   60.7860   27.2900   49.3710 C   0  0  0  0  0  0  0  0  0  0  0  0
   60.3430   27.1060   47.9180 C   0  0  0  0  0  0  0  0  0  0  0  0
   59.2410   28.0130   47.6050 N   0  0  0  0  0  0  0  0  0  0  0  0
   58.3060   27.9630   46.6850 C   0  0  0  0  0  0  0  0  0  0  0  0
   57.9280   29.0610   45.8450 C   0  0  0  0  0  0  0  0  0  0  0  0
   58.7600   30.1680   45.5520 C   0  0  0  0  0  0  0  0  0  0  0  0
   58.2940   31.2330   44.7750 C   0  0  0  0  0  0  0  0  0  0  0  0
   57.0100   31.2050   44.2400 C   0  0  0  0  0  0  0  0  0  0  0  0
   56.2030   30.0870   44.4350 C   0  0  0  0  0  0  0  0  0  0  0  0
   56.6630   29.0070   45.1960 C   0  0  0  0  0  0  0  0  0  0  0  0
   55.8970   27.8920   45.2720 N   0  0  0  0  0  0  0  0  0  0  0  0
   56.3030   26.7820   45.9310 C   0  0  0  0  0  0  0  0  0  0  0  0
   55.4840   25.6460   45.9320 C   0  0  0  0  0  0  0  0  0  0  0  0
   55.8930   24.4870   46.5920 C   0  0  0  0  0  0  0  0  0  0  0  0
   57.1200   24.4550   47.2520 C   0  0  0  0  0  0  0  0  0  0  0  0
   57.9380   25.5890   47.2720 C   0  0  0  0  0  0  0  0  0  0  0  0
   57.5360   26.7750   46.6200 C   0  0  0  0  0  0  0  0  0  0  0  0
   61.7841   31.1109   47.4624 H   0  0  0  0  0  0  0  0  0  0  0  0
   60.0125   31.2357   47.1931 H   0  0  0  0  0  0  0  0  0  0  0  0
   61.0275   32.7177   47.1931 H   0  0  0  0  0  0  0  0  0  0  0  0
   60.7144   30.8771   49.6168 H   0  0  0  0  0  0  0  0  0  0  0  0
   61.4583   32.5371   49.5398 H   0  0  0  0  0  0  0  0  0  0  0  0
   58.8410   31.8620   50.1410 H   0  0  0  0  0  0  0  0  0  0  0  0
   57.5174   32.9301   48.5392 H   0  0  0  0  0  0  0  0  0  0  0  0
   58.9775   33.5075   47.6666 H   0  0  0  0  0  0  0  0  0  0  0  0
   58.5638   31.7595   47.6666 H   0  0  0  0  0  0  0  0  0  0  0  0
   60.4630   34.2782   49.7095 H   0  0  0  0  0  0  0  0  0  0  0  0
   58.6756   34.3859   50.0625 H   0  0  0  0  0  0  0  0  0  0  0  0
   60.9496   33.6200   51.8573 H   0  0  0  0  0  0  0  0  0  0  0  0
   59.4004   34.4875   52.2091 H   0  0  0  0  0  0  0  0  0  0  0  0
   58.3133   32.2893   53.9954 H   0  0  0  0  0  0  0  0  0  0  0  0
   58.0023   33.7897   53.0339 H   0  0  0  0  0  0  0  0  0  0  0  0
   56.5830   31.2170   53.0094 H   0  0  0  0  0  0  0  0  0  0  0  0
   56.1037   32.8204   52.3317 H   0  0  0  0  0  0  0  0  0  0  0  0
   60.1366   29.3628   51.7011 H   0  0  0  0  0  0  0  0  0  0  0  0
   59.2542   27.9141   51.0850 H   0  0  0  0  0  0  0  0  0  0  0  0
   60.4560   29.2770   48.9490 H   0  0  0  0  0  0  0  0  0  0  0  0
   61.8242   26.9415   49.4748 H   0  0  0  0  0  0  0  0  0  0  0  0
   60.1104   26.7066   50.0138 H   0  0  0  0  0  0  0  0  0  0  0  0
   61.1904   27.3207   47.2503 H   0  0  0  0  0  0  0  0  0  0  0  0
   60.0044   26.0691   47.7758 H   0  0  0  0  0  0  0  0  0  0  0  0
   59.7885   30.1908   45.9414 H   0  0  0  0  0  0  0  0  0  0  0  0
   58.9465   32.0981   44.5856 H   0  0  0  0  0  0  0  0  0  0  0  0
   56.6334   32.0635   43.6646 H   0  0  0  0  0  0  0  0  0  0  0  0
   55.1984   30.0529   43.9882 H   0  0  0  0  0  0  0  0  0  0  0  0
   54.5155   25.6677   45.4109 H   0  0  0  0  0  0  0  0  0  0  0  0
   55.2462   23.5973   46.5915 H   0  0  0  0  0  0  0  0  0  0  0  0
   57.4461   23.5348   47.7588 H   0  0  0  0  0  0  0  0  0  0  0  0
   58.9025   25.5567   47.8000 H   0  0  0  0  0  0  0  0  0  0  0  0
  1  2  1  0
  2  3  1  0
  3  4  1  0
  3  5  1  0
  5  6  1  0
  6  7  1  0
  7  8  1  0
  8  9  1  0
  9 10  1  0
 10 11  1  0
 11 12  1  0
 12 13  2  0
 12 14  1  0
 14 15  1  0
 15 16  1  0
 16 17  1  0
 17 18  1  0
 18 19  2  3
 19 20  1  0
 20 21  2  0
 21 22  1  0
 22 23  2  0
 23 24  1  0
 24 25  2  0
 25 26  1  0
 26 27  1  0
 27 28  2  0
 28 29  1  0
 29 30  2  0
 30 31  1  0
 31 32  2  0
 32 19  1  0
 25 20  1  0
 32 27  1  0
  1 33  1  0
  1 34  1  0
  1 35  1  0
  2 36  1  0
  2 37  1  0
  3 38  1  1
  4 39  1  0
  4 40  1  0
  4 41  1  0
  5 42  1  0
  5 43  1  0
  6 44  1  0
  6 45  1  0
  8 46  1  0
  8 47  1  0
  9 48  1  0
  9 49  1  0
 14 50  1  0
 14 51  1  0
 15 52  1  0
 16 53  1  0
 16 54  1  0
 17 55  1  0
 17 56  1  0
 21 57  1  0
 22 58  1  0
 23 59  1  0
 24 60  1  0
 28 61  1  0
 29 62  1  0
 30 63  1  0
 31 64  1  0
M  CHG  3   3   1  11  -1  26  -1
M  END
>  <UniqueID>  (15) 
15

>  <SMILES>  (15) 
CC[N@H+](C)CCOCCO[N-]C(=O)CNCCN=c1c2ccccc2[n-]c2ccccc12

>  <Energy>  (15) 
80.70349083428802

>  <Genealogy>  (15) 
CC[NH+](C)CCOCCO[N-]C(=O)CNCCN=c1c2ccccc2[n-]c2ccccc12 (protonated)
CC[N@H+](C)CCOCCO[N-]C(=O)CNCCN=c1c2ccccc2[n-]c2ccccc12 (chirality)
CC[N@H+](C)CCOCCO[N-]C(=O)CNCCN=c1c2ccccc2[n-]c2ccccc12 (3D coordinates assigned)
CC[N@H+](C)CCOCCO[N-]C(=O)CNCCN=c1c2ccccc2[n-]c2ccccc12 (optimized conformer: 80.70349083428802 kcal/mol)

>  <smiles>  (15) 
CCN(C)CCOCCONC(=O)CNCCN=c1c2ccccc2[nH]c2ccccc12

>  <score_type>  (15) 
oracle

>  <origin>  (15) 
adg

>  <m_score__min__energy>  (15) 
-9.1600000000000001

>  <m_primary>  (15) 
energy

$$$$
15:0
     RDKit          3D

 56 58  0  0  0  0  0  0  0  0999 V2000
   62.7660   33.8770   46.3700 C   0  0  0  0  0  0  0  0  0  0  0  0
   63.7880   32.9600   47.0350 C   0  0  0  0  0  0  0  0  0  0  0  0
   63.6770   33.0210   48.5620 C   0  0  0  0  0  0  0  0  0  0  0  0
   63.3550   31.6400   49.1470 C   0  0  0  0  0  0  0  0  0  0  0  0
   61.9510   31.5730   49.5810 N   0  0  0  0  0  0  0  0  0  0  0  0
   61.4590   30.1890   49.7090 C   0  0  0  0  0  0  0  0  0  0  0  0
   60.3700   29.9420   48.6680 C   0  0  0  0  0  0  0  0  0  0  0  0
   60.6190   30.7390   47.4690 N   0  0  0  0  0  0  0  0  0  0  0  0
   59.6240   30.8450   46.4370 C   0  0  0  0  0  0  0  0  0  0  0  0
   59.1340   29.6760   45.8250 C   0  0  0  0  0  0  0  0  0  0  0  0
   59.4950   28.3980   46.3030 C   0  0  0  0  0  0  0  0  0  0  0  0
   58.9740   27.2450   45.7200 C   0  0  0  0  0  0  0  0  0  0  0  0
   58.0780   27.3450   44.6620 C   0  0  0  0  0  0  0  0  0  0  0  0
   57.7250   28.5950   44.1590 C   0  0  0  0  0  0  0  0  0  0  0  0
   58.2740   29.7860   44.7030 C   0  0  0  0  0  0  0  0  0  0  0  0
   57.9900   31.0260   44.1680 N   0  0  0  0  0  0  0  0  0  0  0  0
   57.3830   31.1260   42.8210 C   0  0  0  0  0  0  0  0  0  0  0  0
   58.2910   32.1730   44.8800 C   0  0  0  0  0  0  0  0  0  0  0  0
   57.7610   33.4300   44.4990 C   0  0  0  0  0  0  0  0  0  0  0  0
   58.0870   34.5870   45.1910 C   0  0  0  0  0  0  0  0  0  0  0  0
   58.9130   34.5310   46.3030 C   0  0  0  0  0  0  0  0  0  0  0  0
   59.4220   33.3030   46.7570 C   0  0  0  0  0  0  0  0  0  0  0  0
   60.1810   33.2380   47.9410 O   0  0  0  0  0  0  0  0  0  0  0  0
   60.2210   34.2170   48.9790 C   0  0  0  0  0  0  0  0  0  0  0  0
   59.6880   33.6410   50.2870 C   0  0  0  0  0  0  0  0  0  0  0  0
   59.1280   32.1080   46.0320 C   0  0  0  0  0  0  0  0  0  0  0  0
   62.1839   34.3993   47.1436 H   0  0  0  0  0  0  0  0  0  0  0  0
   63.2884   34.6149   45.7435 H   0  0  0  0  0  0  0  0  0  0  0  0
   62.0888   33.2779   45.7435 H   0  0  0  0  0  0  0  0  0  0  0  0
   63.6115   31.9261   46.7035 H   0  0  0  0  0  0  0  0  0  0  0  0
   64.7954   33.2937   46.7456 H   0  0  0  0  0  0  0  0  0  0  0  0
   64.6323   33.3737   48.9780 H   0  0  0  0  0  0  0  0  0  0  0  0
   62.8624   33.7113   48.8262 H   0  0  0  0  0  0  0  0  0  0  0  0
   63.5325   30.8724   48.3793 H   0  0  0  0  0  0  0  0  0  0  0  0
   64.0030   31.4656   50.0186 H   0  0  0  0  0  0  0  0  0  0  0  0
   61.3730   32.0630   48.8590 H   0  0  0  0  0  0  0  0  0  0  0  0
   62.2899   29.4871   49.5451 H   0  0  0  0  0  0  0  0  0  0  0  0
   61.0462   30.0366   50.7172 H   0  0  0  0  0  0  0  0  0  0  0  0
   60.3617   28.8755   48.3987 H   0  0  0  0  0  0  0  0  0  0  0  0
   59.3982   30.2329   49.0934 H   0  0  0  0  0  0  0  0  0  0  0  0
   61.4130   31.4170   47.4800 H   0  0  0  0  0  0  0  0  0  0  0  0
   60.1962   28.3113   47.1461 H   0  0  0  0  0  0  0  0  0  0  0  0
   59.2717   26.2554   46.0969 H   0  0  0  0  0  0  0  0  0  0  0  0
   57.6465   26.4344   44.2208 H   0  0  0  0  0  0  0  0  0  0  0  0
   57.0090   28.6605   43.3265 H   0  0  0  0  0  0  0  0  0  0  0  0
   56.3019   31.3041   42.9183 H   0  0  0  0  0  0  0  0  0  0  0  0
   57.8441   31.9603   42.2720 H   0  0  0  0  0  0  0  0  0  0  0  0
   57.5521   30.1879   42.2720 H   0  0  0  0  0  0  0  0  0  0  0  0
   57.0783   33.4897   43.6385 H   0  0  0  0  0  0  0  0  0  0  0  0
   57.6875   35.5554   44.8553 H   0  0  0  0  0  0  0  0  0  0  0  0
   59.1725   35.4579   46.8354 H   0  0  0  0  0  0  0  0  0  0  0  0
   61.2608   34.5444   49.1262 H   0  0  0  0  0  0  0  0  0  0  0  0
   59.5897   35.0686   48.6853 H   0  0  0  0  0  0  0  0  0  0  0  0
   60.1639   34.1553   51.1350 H   0  0  0  0  0  0  0  0  0  0  0  0
   58.5987   33.7862   50.3346 H   0  0  0  0  0  0  0  0  0  0  0  0
   59.9171   32.5662   50.3346 H   0  0  0  0  0  0  0  0  0  0  0  0
  1  2  1  0
  2  3  1  0
  3  4  1  0
  4  5  1  0
  5  6  1  0
  6  7  1  0
  7  8  1  0
  8  9  1  0
  9 10  2  0
 10 11  1  0
 11 12  2  0
 12 13  1  0
 13 14  2  0
 14 15  1  0
 15 16  2  0
 16 17  1  0
 16 18  1  0
 18 19  2  0
 19 20  1  0
 20 21  2  0
 21 22  1  0
 22 23  1  0
 23 24  1  0
 24 25  1  0
 22 26  2  0
 26  9  1  0
 15 10  1  0
 26 18  1  0
  1 27  1  0
  1 28  1  0
  1 29  1  0
  2 30  1  0
  2 31  1  0
  3 32  1  0
  3 33  1  0
  4 34  1  0
  4 35  1  0
  5 36  1  0
  6 37  1  0
  6 38  1  0
  7 39  1  0
  7 40  1  0
  8 41  1  0
 11 42  1  0
 12 43  1  0
 13 44  1  0
 14 45  1  0
 17 46  1  0
 17 47  1  0
 17 48  1  0
 19 49  1  0
 20 50  1  0
 21 51  1  0
 24 52  1  0
 24 53  1  0
 25 54  1  0
 25 55  1  0
 25 56  1  0
M  CHG  1  16   1
M  END
>  <UniqueID>  (16) 
16

>  <SMILES>  (16) 
CCCCNCCNc1c2ccccc2[n+](C)c2cccc(OCC)c12

>  <Energy>  (16) 
76.35452936923998

>  <Genealogy>  (16) 
CCCCNCCNc1c2ccccc2[n+](C)c2cccc(OCC)c12 (3D coordinates assigned)
CCCCNCCNc1c2ccccc2[n+](C)c2cccc(OCC)c12 (optimized conformer: 76.35452936923998 kcal/mol)

>  <smiles>  (16) 
CCCCNCCNc1c2ccccc2[n+](C)c2cccc(OCC)c12

>  <score_type>  (16) 
oracle

>  <origin>  (16) 
adg

>  <m_score__min__energy>  (16) 
-5.8300000000000001

>  <m_primary>  (16) 
energy

$$$$
16:0
     RDKit          3D

 50 53  0  0  0  0  0  0  0  0999 V2000
   64.4190   32.0770   51.4740 C   0  0  0  0  0  0  0  0  0  0  0  0
   63.2400   32.7230   50.8070 C   0  0  0  0  0  0  0  0  0  0  0  0
   62.0510   32.9860   51.5090 C   0  0  0  0  0  0  0  0  0  0  0  0
   60.9270   33.5840   50.8740 C   0  0  0  0  0  0  0  0  0  0  0  0
   59.6950   33.8290   51.7110 C   0  0  0  0  0  0  0  0  0  0  0  0
   60.9700   33.9320   49.5310 N   0  0  0  0  0  0  0  0  0  0  0  0
   59.8080   34.5480   48.8530 C   0  0  0  0  0  0  0  0  0  0  0  0
   59.2480   33.6390   47.7850 C   0  0  0  0  0  0  0  0  0  0  0  0
   59.1880   32.2510   47.9830 C   0  0  0  0  0  0  0  0  0  0  0  0
   58.6860   31.4140   46.9840 C   0  0  0  0  0  0  0  0  0  0  0  0
   58.2420   31.9460   45.7600 C   0  0  0  0  0  0  0  0  0  0  0  0
   57.7190   31.0810   44.7270 N   0  0  0  0  0  0  0  0  0  0  0  0
   57.1150   29.7860   45.0830 C   0  0  0  0  0  0  0  0  0  0  0  0
   57.2560   28.7870   43.9310 C   0  0  0  0  0  0  0  0  0  0  0  0
   56.6420   29.3180   42.6210 C   0  0  0  0  0  0  0  0  0  0  0  0
   56.6500   30.8540   42.5120 C   0  0  0  0  0  0  0  0  0  0  0  0
   57.7880   31.4890   43.3150 C   0  0  0  0  0  0  0  0  0  0  0  0
   58.3190   33.3350   45.5580 C   0  0  0  0  0  0  0  0  0  0  0  0
   58.8230   34.1720   46.5570 C   0  0  0  0  0  0  0  0  0  0  0  0
   62.1230   33.6710   48.8410 C   0  0  0  0  0  0  0  0  0  0  0  0
   62.4370   33.8780   47.5080 C   0  0  0  0  0  0  0  0  0  0  0  0
   63.7360   33.4190   47.3140 C   0  0  0  0  0  0  0  0  0  0  0  0
   64.2470   32.9220   48.5070 C   0  0  0  0  0  0  0  0  0  0  0  0
   63.2660   33.0670   49.4640 C   0  0  0  0  0  0  0  0  0  0  0  0
   64.3028   32.1407   52.5660 H   0  0  0  0  0  0  0  0  0  0  0  0
   64.4776   31.0208   51.1724 H   0  0  0  0  0  0  0  0  0  0  0  0
   65.3407   32.5961   51.1724 H   0  0  0  0  0  0  0  0  0  0  0  0
   61.9880   32.7231   52.5753 H   0  0  0  0  0  0  0  0  0  0  0  0
   59.9598   33.7763   52.7774 H   0  0  0  0  0  0  0  0  0  0  0  0
   59.2889   34.8255   51.4828 H   0  0  0  0  0  0  0  0  0  0  0  0
   58.9385   33.0637   51.4828 H   0  0  0  0  0  0  0  0  0  0  0  0
   59.0244   34.7499   49.5982 H   0  0  0  0  0  0  0  0  0  0  0  0
   60.1408   35.4808   48.3743 H   0  0  0  0  0  0  0  0  0  0  0  0
   59.5389   31.8191   48.9319 H   0  0  0  0  0  0  0  0  0  0  0  0
   58.6374   30.3286   47.1560 H   0  0  0  0  0  0  0  0  0  0  0  0
   57.6212   29.3842   45.9731 H   0  0  0  0  0  0  0  0  0  0  0  0
   56.0453   29.9397   45.2884 H   0  0  0  0  0  0  0  0  0  0  0  0
   58.3247   28.5860   43.7653 H   0  0  0  0  0  0  0  0  0  0  0  0
   56.7148   27.8710   44.2104 H   0  0  0  0  0  0  0  0  0  0  0  0
   57.2153   28.9069   41.7770 H   0  0  0  0  0  0  0  0  0  0  0  0
   55.5890   29.0001   42.6073 H   0  0  0  0  0  0  0  0  0  0  0  0
   56.7655   31.1327   41.4542 H   0  0  0  0  0  0  0  0  0  0  0  0
   55.7002   31.2249   42.9246 H   0  0  0  0  0  0  0  0  0  0  0  0
   58.7513   31.1669   42.8928 H   0  0  0  0  0  0  0  0  0  0  0  0
   57.6931   32.5834   43.2581 H   0  0  0  0  0  0  0  0  0  0  0  0
   57.9795   33.7669   44.6050 H   0  0  0  0  0  0  0  0  0  0  0  0
   58.8873   35.2558   46.3804 H   0  0  0  0  0  0  0  0  0  0  0  0
   61.7814   34.3226   46.7448 H   0  0  0  0  0  0  0  0  0  0  0  0
   64.2785   33.4456   46.3575 H   0  0  0  0  0  0  0  0  0  0  0  0
   65.2483   32.4927   48.6591 H   0  0  0  0  0  0  0  0  0  0  0  0
  1  2  1  0
  2  3  1  0
  3  4  2  0
  4  5  1  0
  4  6  1  0
  6  7  1  0
  7  8  1  0
  8  9  2  0
  9 10  1  0
 10 11  2  0
 11 12  1  0
 12 13  1  0
 13 14  1  0
 14 15  1  0
 15 16  1  0
 16 17  1  0
 11 18  1  0
 18 19  2  0
  6 20  1  0
 20 21  2  0
 21 22  1  0
 22 23  2  0
 23 24  1  0
 24  2  2  0
 19  8  1  0
 24 20  1  0
 17 12  1  0
  1 25  1  0
  1 26  1  0
  1 27  1  0
  3 28  1  0
  5 29  1  0
  5 30  1  0
  5 31  1  0
  7 32  1  0
  7 33  1  0
  9 34  1  0
 10 35  1  0
 13 36  1  0
 13 37  1  0
 14 38  1  0
 14 39  1  0
 15 40  1  0
 15 41  1  0
 16 42  1  0
 16 43  1  0
 17 44  1  0
 17 45  1  0
 18 46  1  0
 19 47  1  0
 21 48  1  0
 22 49  1  0
 23 50  1  0
M  END
>  <UniqueID>  (17) 
17

>  <SMILES>  (17) 
Cc1cc(C)n(Cc2ccc(N3CCCCC3)cc2)c2cccc1-2

>  <Energy>  (17) 
89.07529085847504

>  <Genealogy>  (17) 
Cc1cc(C)n(Cc2ccc(N3CCCCC3)cc2)c2cccc1-2 (3D coordinates assigned)
Cc1cc(C)n(Cc2ccc(N3CCCCC3)cc2)c2cccc1-2 (nonaromatic ring conformer: 89.07529085847504 kcal/mol)

>  <smiles>  (17) 
Cc1cc(C)n(Cc2ccc(N3CCCCC3)cc2)c2cccc1-2

>  <score_type>  (17) 
oracle

>  <origin>  (17) 
adg

>  <m_score__min__energy>  (17) 
-8.0899999999999999

>  <m_primary>  (17) 
energy

$$$$
17:0
     RDKit          3D

 66 69  0  0  0  0  0  0  0  0999 V2000
   58.8700   33.8320   52.0050 C   0  0  0  0  0  0  0  0  0  0  0  0
   59.2110   32.4710   51.4010 C   0  0  0  0  0  0  0  0  0  0  0  0
   58.0550   31.8640   50.6960 N   0  0  0  0  0  0  0  0  0  0  0  0
   56.9180   31.5980   51.6200 C   0  0  0  0  0  0  0  0  0  0  0  0
   57.0870   30.2570   52.3280 C   0  0  0  0  0  0  0  0  0  0  0  0
   58.4810   30.6290   49.9810 C   0  0  0  0  0  0  0  0  0  0  0  0
   59.4090   30.9480   48.8970 N   0  0  0  0  0  0  0  0  0  0  0  0
   59.1210   30.6430   47.5250 C   0  0  0  0  0  0  0  0  0  0  0  0
   59.4150   29.3600   47.0300 C   0  0  0  0  0  0  0  0  0  0  0  0
   60.1480   28.4350   47.8070 C   0  0  0  0  0  0  0  0  0  0  0  0
   60.4820   27.1840   47.2940 C   0  0  0  0  0  0  0  0  0  0  0  0
   60.1070   26.8390   46.0010 C   0  0  0  0  0  0  0  0  0  0  0  0
   59.3670   27.7300   45.2250 C   0  0  0  0  0  0  0  0  0  0  0  0
   58.9710   28.9920   45.7360 C   0  0  0  0  0  0  0  0  0  0  0  0
   58.1680   29.8510   45.0150 N   0  0  0  0  0  0  0  0  0  0  0  0
   57.4090   29.3410   43.8500 C   0  0  0  0  0  0  0  0  0  0  0  0
   58.0410   31.1730   45.4010 C   0  0  0  0  0  0  0  0  0  0  0  0
   57.4170   32.1230   44.5570 C   0  0  0  0  0  0  0  0  0  0  0  0
   57.2230   33.4340   44.9680 C   0  0  0  0  0  0  0  0  0  0  0  0
   57.6970   33.8600   46.1970 C   0  0  0  0  0  0  0  0  0  0  0  0
   58.3900   32.9820   47.0430 C   0  0  0  0  0  0  0  0  0  0  0  0
   59.0530   33.5290   48.1980 N   0  0  0  0  0  0  0  0  0  0  0  0
   60.0370   34.6080   48.1030 C   0  0  0  0  0  0  0  0  0  0  0  0
   61.3320   34.2320   48.8550 C   0  0  0  0  0  0  0  0  0  0  0  0
   61.6680   32.7880   48.8190 N   0  0  0  0  0  0  0  0  0  0  0  0
   61.9400   32.2800   47.4660 C   0  0  0  0  0  0  0  0  0  0  0  0
   63.4280   31.9650   47.3600 C   0  0  0  0  0  0  0  0  0  0  0  0
   64.0110   32.2090   48.7400 C   0  0  0  0  0  0  0  0  0  0  0  0
   62.8180   32.4210   49.6550 C   0  0  0  0  0  0  0  0  0  0  0  0
   58.5330   31.6080   46.6700 C   0  0  0  0  0  0  0  0  0  0  0  0
   58.8878   33.7609   53.1026 H   0  0  0  0  0  0  0  0  0  0  0  0
   59.6095   34.5759   51.6737 H   0  0  0  0  0  0  0  0  0  0  0  0
   57.8671   34.1393   51.6737 H   0  0  0  0  0  0  0  0  0  0  0  0
   60.0357   32.5983   50.6843 H   0  0  0  0  0  0  0  0  0  0  0  0
   59.4952   31.7985   52.2238 H   0  0  0  0  0  0  0  0  0  0  0  0
   56.8723   32.3985   52.3731 H   0  0  0  0  0  0  0  0  0  0  0  0
   55.9894   31.5674   51.0312 H   0  0  0  0  0  0  0  0  0  0  0  0
   57.0674   30.4122   53.4168 H   0  0  0  0  0  0  0  0  0  0  0  0
   56.2666   29.5837   52.0388 H   0  0  0  0  0  0  0  0  0  0  0  0
   58.0488   29.8083   52.0388 H   0  0  0  0  0  0  0  0  0  0  0  0
   58.9775   29.9536   50.6932 H   0  0  0  0  0  0  0  0  0  0  0  0
   57.5907   30.1467   49.5512 H   0  0  0  0  0  0  0  0  0  0  0  0
   60.4150   31.0560   49.1570 H   0  0  0  0  0  0  0  0  0  0  0  0
   60.4579   28.7056   48.8272 H   0  0  0  0  0  0  0  0  0  0  0  0
   61.0431   26.4683   47.9128 H   0  0  0  0  0  0  0  0  0  0  0  0
   60.3948   25.8606   45.5889 H   0  0  0  0  0  0  0  0  0  0  0  0
   59.0857   27.4493   44.1993 H   0  0  0  0  0  0  0  0  0  0  0  0
   56.5440   28.7597   44.2019 H   0  0  0  0  0  0  0  0  0  0  0  0
   57.0587   30.1877   43.2414 H   0  0  0  0  0  0  0  0  0  0  0  0
   58.0606   28.6967   43.2414 H   0  0  0  0  0  0  0  0  0  0  0  0
   57.0795   31.8159   43.5561 H   0  0  0  0  0  0  0  0  0  0  0  0
   56.6895   34.1389   44.3135 H   0  0  0  0  0  0  0  0  0  0  0  0
   57.5280   34.8998   46.5138 H   0  0  0  0  0  0  0  0  0  0  0  0
   58.9530   33.0220   49.1060 H   0  0  0  0  0  0  0  0  0  0  0  0
   60.2737   34.7889   47.0441 H   0  0  0  0  0  0  0  0  0  0  0  0
   59.6132   35.5148   48.5592 H   0  0  0  0  0  0  0  0  0  0  0  0
   62.1656   34.7899   48.4035 H   0  0  0  0  0  0  0  0  0  0  0  0
   61.1650   34.4876   49.9118 H   0  0  0  0  0  0  0  0  0  0  0  0
   61.3534   31.3668   47.2872 H   0  0  0  0  0  0  0  0  0  0  0  0
   61.6590   33.0338   46.7158 H   0  0  0  0  0  0  0  0  0  0  0  0
   63.5757   30.9161   47.0635 H   0  0  0  0  0  0  0  0  0  0  0  0
   63.9178   32.5925   46.6009 H   0  0  0  0  0  0  0  0  0  0  0  0
   64.5972   31.3382   49.0687 H   0  0  0  0  0  0  0  0  0  0  0  0
   64.6895   33.0748   48.7482 H   0  0  0  0  0  0  0  0  0  0  0  0
   62.5995   31.4939   50.2052 H   0  0  0  0  0  0  0  0  0  0  0  0
   63.0310   33.2164   50.3844 H   0  0  0  0  0  0  0  0  0  0  0  0
  1  2  1  0
  2  3  1  0
  3  4  1  0
  4  5  1  0
  3  6  1  0
  6  7  1  0
  7  8  1  0
  8  9  2  0
  9 10  1  0
 10 11  2  0
 11 12  1  0
 12 13  2  0
 13 14  1  0
 14 15  2  0
 15 16  1  0
 15 17  1  0
 17 18  2  0
 18 19  1  0
 19 20  2  0
 20 21  1  0
 21 22  1  0
 22 23  1  0
 23 24  1  0
 24 25  1  0
 25 26  1  0
 26 27  1  0
 27 28  1  0
 28 29  1  0
 21 30  2  0
 30  8  1  0
 14  9  1  0
 30 17  1  0
 29 25  1  0
  1 31  1  0
  1 32  1  0
  1 33  1  0
  2 34  1  0
  2 35  1  0
  4 36  1  0
  4 37  1  0
  5 38  1  0
  5 39  1  0
  5 40  1  0
  6 41  1  0
  6 42  1  0
  7 43  1  0
 10 44  1  0
 11 45  1  0
 12 46  1  0
 13 47  1  0
 16 48  1  0
 16 49  1  0
 16 50  1  0
 18 51  1  0
 19 52  1  0
 20 53  1  0
 22 54  1  0
 23 55  1  0
 23 56  1  0
 24 57  1  0
 24 58  1  0
 26 59  1  0
 26 60  1  0
 27 61  1  0
 27 62  1  0
 28 63  1  0
 28 64  1  0
 29 65  1  0
 29 66  1  0
M  CHG  1  15   1
M  END
>  <UniqueID>  (18) 
18

>  <SMILES>  (18) 
CCN(CC)CNc1c2ccccc2[n+](C)c2cccc(NCCN3CCCC3)c12

>  <Energy>  (18) 
105.90841064248671

>  <Genealogy>  (18) 
CCN(CC)CNc1c2ccccc2[n+](C)c2cccc(NCCN3CCCC3)c12 (3D coordinates assigned)
CCN(CC)CNc1c2ccccc2[n+](C)c2cccc(NCCN3CCCC3)c12 (nonaromatic ring conformer: 105.90841064248671 kcal/mol)

>  <smiles>  (18) 
CCN(CC)CNc1c2ccccc2[n+](C)c2cccc(NCCN3CCCC3)c12

>  <score_type>  (18) 
oracle

>  <origin>  (18) 
adg

>  <m_score__min__energy>  (18) 
-6.0099999999999998

>  <m_primary>  (18) 
energy

$$$$
18:0
     RDKit          3D

 46 48  0  0  0  0  0  0  0  0999 V2000
   59.6480   34.7250   45.6350 C   0  0  0  0  0  0  0  0  0  0  0  0
   58.5940   34.5940   46.7290 C   0  0  0  0  0  0  0  0  0  0  0  0
   59.0260   33.6820   47.7210 O   0  0  0  0  0  0  0  0  0  0  0  0
   60.3640   33.2930   47.4870 C   0  0  0  0  0  0  0  0  0  0  0  0
   60.4120   31.7860   47.2550 C   0  0  0  0  0  0  0  0  0  0  0  0
   59.0630   31.2240   47.2060 N   0  0  0  0  0  0  0  0  0  0  0  0
   58.7290   30.2330   46.2260 C   0  0  0  0  0  0  0  0  0  0  0  0
   58.0230   30.6010   45.0730 C   0  0  0  0  0  0  0  0  0  0  0  0
   57.7030   29.6260   44.1110 C   0  0  0  0  0  0  0  0  0  0  0  0
   58.1770   28.3370   44.2340 N   0  0  0  0  0  0  0  0  0  0  0  0
   58.0880   27.4150   43.0830 C   0  0  0  0  0  0  0  0  0  0  0  0
   58.7480   27.9260   45.4260 C   0  0  0  0  0  0  0  0  0  0  0  0
   59.0130   26.5590   45.6980 C   0  0  0  0  0  0  0  0  0  0  0  0
   59.6090   26.1680   46.8960 C   0  0  0  0  0  0  0  0  0  0  0  0
   59.9350   27.1150   47.8610 C   0  0  0  0  0  0  0  0  0  0  0  0
   59.6520   28.4600   47.6400 C   0  0  0  0  0  0  0  0  0  0  0  0
   59.0540   28.8810   46.4340 C   0  0  0  0  0  0  0  0  0  0  0  0
   56.7560   30.0680   43.0050 C   0  0  0  0  0  0  0  0  0  0  0  0
   57.2440   31.3710   42.3550 C   0  0  0  0  0  0  0  0  0  0  0  0
   57.7700   32.4200   43.3670 C   0  0  0  0  0  0  0  0  0  0  0  0
   57.5600   32.0240   44.8370 C   0  0  0  0  0  0  0  0  0  0  0  0
   60.6399   34.8483   46.0943 H   0  0  0  0  0  0  0  0  0  0  0  0
   59.6430   33.8193   45.0107 H   0  0  0  0  0  0  0  0  0  0  0  0
   59.4215   35.6019   45.0107 H   0  0  0  0  0  0  0  0  0  0  0  0
   58.4253   35.5784   47.1900 H   0  0  0  0  0  0  0  0  0  0  0  0
   57.6600   34.2214   46.2830 H   0  0  0  0  0  0  0  0  0  0  0  0
   60.7494   33.8150   46.5988 H   0  0  0  0  0  0  0  0  0  0  0  0
   60.9836   33.5540   48.3576 H   0  0  0  0  0  0  0  0  0  0  0  0
   60.9214   31.5842   46.3012 H   0  0  0  0  0  0  0  0  0  0  0  0
   60.9581   31.3187   48.0877 H   0  0  0  0  0  0  0  0  0  0  0  0
   58.2860   31.6540   47.7590 H   0  0  0  0  0  0  0  0  0  0  0  0
   57.9883   26.3820   43.4476 H   0  0  0  0  0  0  0  0  0  0  0  0
   57.2107   27.6746   42.4722 H   0  0  0  0  0  0  0  0  0  0  0  0
   58.9987   27.5020   42.4722 H   0  0  0  0  0  0  0  0  0  0  0  0
   58.7441   25.7962   44.9524 H   0  0  0  0  0  0  0  0  0  0  0  0
   59.8226   25.1046   47.0791 H   0  0  0  0  0  0  0  0  0  0  0  0
   60.4165   26.8012   48.7989 H   0  0  0  0  0  0  0  0  0  0  0  0
   59.8973   29.2021   48.4140 H   0  0  0  0  0  0  0  0  0  0  0  0
   56.7044   29.2805   42.2388 H   0  0  0  0  0  0  0  0  0  0  0  0
   55.7621   30.2438   43.4423 H   0  0  0  0  0  0  0  0  0  0  0  0
   58.0575   31.1258   41.6563 H   0  0  0  0  0  0  0  0  0  0  0  0
   56.3756   31.8210   41.8517 H   0  0  0  0  0  0  0  0  0  0  0  0
   58.8478   32.5572   43.1955 H   0  0  0  0  0  0  0  0  0  0  0  0
   57.1958   33.3431   43.1989 H   0  0  0  0  0  0  0  0  0  0  0  0
   58.1365   32.7041   45.4813 H   0  0  0  0  0  0  0  0  0  0  0  0
   56.4885   32.0943   45.0754 H   0  0  0  0  0  0  0  0  0  0  0  0
  1  2  1  0
  2  3  1  0
  3  4  1  0
  4  5  1  0
  5  6  1  0
  6  7  1  0
  7  8  2  0
  8  9  1  0
  9 10  2  0
 10 11  1  0
 10 12  1  0
 12 13  2  0
 13 14  1  0
 14 15  2  0
 15 16  1  0
 16 17  2  0
  9 18  1  0
 18 19  1  0
 19 20  1  0
 20 21  1  0
 17  7  1  0
 21  8  1  0
 17 12  1  0
  1 22  1  0
  1 23  1  0
  1 24  1  0
  2 25  1  0
  2 26  1  0
  4 27  1  0
  4 28  1  0
  5 29  1  0
  5 30  1  0
  6 31  1  0
 11 32  1  0
 11 33  1  0
 11 34  1  0
 13 35  1  0
 14 36  1  0
 15 37  1  0
 16 38  1  0
 18 39  1  0
 18 40  1  0
 19 41  1  0
 19 42  1  0
 20 43  1  0
 20 44  1  0
 21 45  1  0
 21 46  1  0
M  CHG  1  10   1
M  END
>  <UniqueID>  (19) 
19

>  <SMILES>  (19) 
CCOCCNc1c2c([n+](C)c3ccccc13)CCCC2

>  <Energy>  (19) 
70.75629512294053

>  <Genealogy>  (19) 
CCOCCNc1c2c([n+](C)c3ccccc13)CCCC2 (3D coordinates assigned)
CCOCCNc1c2c([n+](C)c3ccccc13)CCCC2 (nonaromatic ring conformer: 70.75629512294053 kcal/mol)

>  <smiles>  (19) 
CCOCCNc1c2c([n+](C)c3ccccc13)CCCC2

>  <score_type>  (19) 
oracle

>  <origin>  (19) 
adg

>  <m_score__min__energy>  (19) 
-5.3700000000000001

>  <m_primary>  (19) 
energy

$$$$
19:0
     RDKit          3D

 49 50  0  0  0  0  0  0  0  0999 V2000
   58.9070   32.9750   50.9160 C   0  0  0  0  0  0  0  0  0  0  0  0
   59.7910   33.8240   50.0080 C   0  0  0  0  0  0  0  0  0  0  0  0
   61.0730   33.1490   49.7680 N   0  0  0  0  0  0  0  0  0  0  0  0
   62.1380   34.1060   49.4360 C   0  0  0  0  0  0  0  0  0  0  0  0
   63.4810   33.3770   49.3170 C   0  0  0  0  0  0  0  0  0  0  0  0
   63.6400   32.7340   47.9280 C   0  0  0  0  0  0  0  0  0  0  0  0
   62.3520   32.3170   47.3510 N   0  0  0  0  0  0  0  0  0  0  0  0
   62.1930   30.8600   47.1670 C   0  0  0  0  0  0  0  0  0  0  0  0
   61.0930   30.2280   48.0460 C   0  0  0  0  0  0  0  0  0  0  0  0
   59.9090   31.0880   48.1170 N   0  0  0  0  0  0  0  0  0  0  0  0
   59.1370   31.4480   46.9570 C   0  0  0  0  0  0  0  0  0  0  0  0
   58.2490   30.5130   46.3970 C   0  0  0  0  0  0  0  0  0  0  0  0
   57.3990   30.8660   45.3340 C   0  0  0  0  0  0  0  0  0  0  0  0
   56.4880   29.9620   44.7670 O   0  0  0  0  0  0  0  0  0  0  0  0
   56.3350   29.7420   43.3690 C   0  0  0  0  0  0  0  0  0  0  0  0
   57.4450   32.1630   44.8230 C   0  0  0  0  0  0  0  0  0  0  0  0
   58.3270   33.1100   45.3560 C   0  0  0  0  0  0  0  0  0  0  0  0
   58.3710   34.4100   44.8370 C   0  0  0  0  0  0  0  0  0  0  0  0
   59.2650   35.3390   45.3630 C   0  0  0  0  0  0  0  0  0  0  0  0
   60.1150   34.9590   46.3990 C   0  0  0  0  0  0  0  0  0  0  0  0
   60.0710   33.6960   46.9020 N   0  0  0  0  0  0  0  0  0  0  0  0
   59.1890   32.7610   46.4250 C   0  0  0  0  0  0  0  0  0  0  0  0
   59.1398   33.1985   51.9676 H   0  0  0  0  0  0  0  0  0  0  0  0
   57.8497   33.2049   50.7176 H   0  0  0  0  0  0  0  0  0  0  0  0
   59.0940   31.9093   50.7176 H   0  0  0  0  0  0  0  0  0  0  0  0
   59.2787   33.9819   49.0475 H   0  0  0  0  0  0  0  0  0  0  0  0
   59.9819   34.7907   50.4969 H   0  0  0  0  0  0  0  0  0  0  0  0
   60.9530   32.5080   48.9500 H   0  0  0  0  0  0  0  0  0  0  0  0
   61.9030   34.5947   48.4790 H   0  0  0  0  0  0  0  0  0  0  0  0
   62.2066   34.8603   50.2337 H   0  0  0  0  0  0  0  0  0  0  0  0
   64.2966   34.0980   49.4748 H   0  0  0  0  0  0  0  0  0  0  0  0
   63.5160   32.5821   50.0765 H   0  0  0  0  0  0  0  0  0  0  0  0
   64.1096   33.4642   47.2525 H   0  0  0  0  0  0  0  0  0  0  0  0
   64.2618   31.8341   48.0447 H   0  0  0  0  0  0  0  0  0  0  0  0
   62.2580   32.7730   46.4130 H   0  0  0  0  0  0  0  0  0  0  0  0
   61.9434   30.6706   46.1126 H   0  0  0  0  0  0  0  0  0  0  0  0
   63.1441   30.3974   47.4693 H   0  0  0  0  0  0  0  0  0  0  0  0
   60.8053   29.2568   47.6169 H   0  0  0  0  0  0  0  0  0  0  0  0
   61.4916   30.1011   49.0634 H   0  0  0  0  0  0  0  0  0  0  0  0
   59.7260   31.5940   49.0120 H   0  0  0  0  0  0  0  0  0  0  0  0
   58.2187   29.4887   46.7969 H   0  0  0  0  0  0  0  0  0  0  0  0
   55.7140   28.8491   43.2041 H   0  0  0  0  0  0  0  0  0  0  0  0
   55.8490   30.6162   42.9113 H   0  0  0  0  0  0  0  0  0  0  0  0
   57.3237   29.5906   42.9113 H   0  0  0  0  0  0  0  0  0  0  0  0
   56.7811   32.4445   43.9924 H   0  0  0  0  0  0  0  0  0  0  0  0
   57.6997   34.6971   44.0143 H   0  0  0  0  0  0  0  0  0  0  0  0
   59.2997   36.3635   44.9641 H   0  0  0  0  0  0  0  0  0  0  0  0
   60.8280   35.6866   46.8140 H   0  0  0  0  0  0  0  0  0  0  0  0
   60.7550   33.4630   47.6540 H   0  0  0  0  0  0  0  0  0  0  0  0
  1  2  1  0
  2  3  1  0
  3  4  1  0
  4  5  1  0
  5  6  1  0
  6  7  1  0
  7  8  1  0
  8  9  1  0
  9 10  1  0
 10 11  1  0
 11 12  2  0
 12 13  1  0
 13 14  1  0
 14 15  1  0
 13 16  2  0
 16 17  1  0
 17 18  2  0
 18 19  1  0
 19 20  2  0
 20 21  1  0
 21 22  2  0
 22 11  1  0
 22 17  1  0
  1 23  1  0
  1 24  1  0
  1 25  1  0
  2 26  1  0
  2 27  1  0
  3 28  1  0
  4 29  1  0
  4 30  1  0
  5 31  1  0
  5 32  1  0
  6 33  1  0
  6 34  1  0
  7 35  1  0
  8 36  1  0
  8 37  1  0
  9 38  1  0
  9 39  1  0
 10 40  1  0
 12 41  1  0
 15 42  1  0
 15 43  1  0
 15 44  1  0
 16 45  1  0
 18 46  1  0
 19 47  1  0
 20 48  1  0
 21 49  1  0
M  CHG  1  21   1
M  END
>  <UniqueID>  (20) 
20

>  <SMILES>  (20) 
CCNCCCNCCNc1cc(OC)cc2ccc[nH+]c12

>  <Energy>  (20) 
48.02065849687511

>  <Genealogy>  (20) 
CCNCCCNCCNc1cc(OC)cc2ccc[nH+]c12 (protonated)
CCNCCCNCCNc1cc(OC)cc2ccc[nH+]c12 (3D coordinates assigned)
CCNCCCNCCNc1cc(OC)cc2ccc[nH+]c12 (optimized conformer: 48.02065849687511 kcal/mol)

>  <smiles>  (20) 
CCNCCCNCCNc1cc(OC)cc2cccnc12

>  <score_type>  (20) 
oracle

>  <origin>  (20) 
adg

>  <m_score__min__energy>  (20) 
-4.3099999999999996

>  <m_primary>  (20) 
energy

$$$$
20:0
     RDKit          3D

 86 89  0  0  0  0  0  0  0  0999 V2000
   60.9090   29.6720   52.0070 C   0  0  0  0  0  0  0  0  0  0  0  0
   60.1800   30.9900   51.7780 C   0  0  0  0  0  0  0  0  0  0  0  0
   59.4510   30.9570   50.4840 N   0  0  0  0  0  0  0  0  0  0  0  0
   58.1690   31.6880   50.5370 C   0  0  0  0  0  0  0  0  0  0  0  0
   58.1440   32.7160   51.6640 C   0  0  0  0  0  0  0  0  0  0  0  0
   59.2410   29.5630   50.0160 C   0  0  0  0  0  0  0  0  0  0  0  0
   59.0590   29.5390   48.4960 C   0  0  0  0  0  0  0  0  0  0  0  0
   59.9700   30.4880   47.8360 N   0  0  0  0  0  0  0  0  0  0  0  0
   59.2970   31.1340   46.7200 C   0  0  0  0  0  0  0  0  0  0  0  0
   58.6710   30.3170   45.7430 C   0  0  0  0  0  0  0  0  0  0  0  0
   57.9850   30.9070   44.6730 C   0  0  0  0  0  0  0  0  0  0  0  0
   58.2290   32.2160   44.3350 N   0  0  0  0  0  0  0  0  0  0  0  0
   57.8170   32.7100   43.0050 C   0  0  0  0  0  0  0  0  0  0  0  0
   58.8560   33.0550   45.2360 C   0  0  0  0  0  0  0  0  0  0  0  0
   59.0060   34.4350   44.9380 C   0  0  0  0  0  0  0  0  0  0  0  0
   59.6130   35.3020   45.8270 C   0  0  0  0  0  0  0  0  0  0  0  0
   60.0070   34.8530   47.0720 C   0  0  0  0  0  0  0  0  0  0  0  0
   59.8260   33.5140   47.4540 C   0  0  0  0  0  0  0  0  0  0  0  0
   60.0520   33.1690   48.7910 O   0  0  0  0  0  0  0  0  0  0  0  0
   60.9860   33.7890   49.6740 C   0  0  0  0  0  0  0  0  0  0  0  0
   62.3610   34.0110   48.9880 C   0  0  0  0  0  0  0  0  0  0  0  0
   63.3060   32.8460   49.0390 N   0  0  0  0  0  0  0  0  0  0  0  0
   63.3920   32.2100   47.6800 C   0  0  0  0  0  0  0  0  0  0  0  0
   62.8350   31.8360   50.0520 C   0  0  0  0  0  0  0  0  0  0  0  0
   63.4700   32.0410   51.4410 C   0  0  0  0  0  0  0  0  0  0  0  0
   64.9540   31.8570   51.4060 N   0  0  0  0  0  0  0  0  0  0  0  0
   65.5590   32.6310   52.5210 C   0  0  0  0  0  0  0  0  0  0  0  0
   65.2760   30.4170   51.6190 C   0  0  0  0  0  0  0  0  0  0  0  0
   65.5410   32.3120   50.1010 C   0  0  0  0  0  0  0  0  0  0  0  0
   64.6640   33.3780   49.4070 C   0  0  0  0  0  0  0  0  0  0  0  0
   59.3380   32.5580   46.4960 C   0  0  0  0  0  0  0  0  0  0  0  0
   57.0300   30.0260   43.8840 C   0  0  0  0  0  0  0  0  0  0  0  0
   56.3500   29.0150   44.8190 C   0  0  0  0  0  0  0  0  0  0  0  0
   57.3620   28.1550   45.5990 C   0  0  0  0  0  0  0  0  0  0  0  0
   58.7550   28.7960   45.7040 C   0  0  0  0  0  0  0  0  0  0  0  0
   61.0090   29.4912   53.0874 H   0  0  0  0  0  0  0  0  0  0  0  0
   60.3362   28.8519   51.5495 H   0  0  0  0  0  0  0  0  0  0  0  0
   61.9081   29.7213   51.5495 H   0  0  0  0  0  0  0  0  0  0  0  0
   59.4621   31.1545   52.5950 H   0  0  0  0  0  0  0  0  0  0  0  0
   60.9162   31.8070   51.7536 H   0  0  0  0  0  0  0  0  0  0  0  0
   58.0162   32.2071   49.5793 H   0  0  0  0  0  0  0  0  0  0  0  0
   57.3686   30.9574   50.7255 H   0  0  0  0  0  0  0  0  0  0  0  0
   58.1566   32.1972   52.6339 H   0  0  0  0  0  0  0  0  0  0  0  0
   59.0266   33.3678   51.5854 H   0  0  0  0  0  0  0  0  0  0  0  0
   57.2308   33.3242   51.5854 H   0  0  0  0  0  0  0  0  0  0  0  0
   60.1151   28.9528   50.2872 H   0  0  0  0  0  0  0  0  0  0  0  0
   58.3372   29.1559   50.4929 H   0  0  0  0  0  0  0  0  0  0  0  0
   59.2677   28.5245   48.1256 H   0  0  0  0  0  0  0  0  0  0  0  0
   58.0241   29.8311   48.2644 H   0  0  0  0  0  0  0  0  0  0  0  0
   60.3280   31.1980   48.5160 H   0  0  0  0  0  0  0  0  0  0  0  0
   60.8560   30.0250   47.5800 H   0  0  0  0  0  0  0  0  0  0  0  0
   57.1168   33.5496   43.1265 H   0  0  0  0  0  0  0  0  0  0  0  0
   58.7035   33.0494   42.4491 H   0  0  0  0  0  0  0  0  0  0  0  0
   57.3240   31.8989   42.4491 H   0  0  0  0  0  0  0  0  0  0  0  0
   58.6312   34.8225   43.9792 H   0  0  0  0  0  0  0  0  0  0  0  0
   59.7824   36.3509   45.5424 H   0  0  0  0  0  0  0  0  0  0  0  0
   60.4714   35.5575   47.7777 H   0  0  0  0  0  0  0  0  0  0  0  0
   60.5845   34.7625   49.9920 H   0  0  0  0  0  0  0  0  0  0  0  0
   61.1359   33.1246   50.5377 H   0  0  0  0  0  0  0  0  0  0  0  0
   62.1769   34.2516   47.9305 H   0  0  0  0  0  0  0  0  0  0  0  0
   62.8504   34.8207   49.5492 H   0  0  0  0  0  0  0  0  0  0  0  0
   63.5386   31.1255   47.7913 H   0  0  0  0  0  0  0  0  0  0  0  0
   62.4601   32.3991   47.1270 H   0  0  0  0  0  0  0  0  0  0  0  0
   64.2402   32.6398   47.1270 H   0  0  0  0  0  0  0  0  0  0  0  0
   61.7425   31.9194   50.1494 H   0  0  0  0  0  0  0  0  0  0  0  0
   63.1384   30.8414   49.6932 H   0  0  0  0  0  0  0  0  0  0  0  0
   63.2457   33.0604   51.7881 H   0  0  0  0  0  0  0  0  0  0  0  0
   63.0483   31.2890   52.1241 H   0  0  0  0  0  0  0  0  0  0  0  0
   65.2291   32.2089   53.4817 H   0  0  0  0  0  0  0  0  0  0  0  0
   66.6555   32.5754   52.4533 H   0  0  0  0  0  0  0  0  0  0  0  0
   65.2403   33.6816   52.4533 H   0  0  0  0  0  0  0  0  0  0  0  0
   65.3229   30.2074   52.6978 H   0  0  0  0  0  0  0  0  0  0  0  0
   64.4949   29.7945   51.1582 H   0  0  0  0  0  0  0  0  0  0  0  0
   66.2479   30.1865   51.1582 H   0  0  0  0  0  0  0  0  0  0  0  0
   66.5362   32.7406   50.2904 H   0  0  0  0  0  0  0  0  0  0  0  0
   65.6015   31.4386   49.4350 H   0  0  0  0  0  0  0  0  0  0  0  0
   64.5370   34.2311   50.0897 H   0  0  0  0  0  0  0  0  0  0  0  0
   65.1710   33.6796   48.4786 H   0  0  0  0  0  0  0  0  0  0  0  0
   56.2629   30.6552   43.4089 H   0  0  0  0  0  0  0  0  0  0  0  0
   57.5959   29.4805   43.1145 H   0  0  0  0  0  0  0  0  0  0  0  0
   55.7266   29.5653   45.5391 H   0  0  0  0  0  0  0  0  0  0  0  0
   55.7482   28.3375   44.1955 H   0  0  0  0  0  0  0  0  0  0  0  0
   56.9738   27.9961   46.6159 H   0  0  0  0  0  0  0  0  0  0  0  0
   57.4798   27.2111   45.0466 H   0  0  0  0  0  0  0  0  0  0  0  0
   59.2426   28.4417   46.6242 H   0  0  0  0  0  0  0  0  0  0  0  0
   59.3350   28.5061   44.8155 H   0  0  0  0  0  0  0  0  0  0  0  0
  1  2  1  0
  2  3  1  0
  3  4  1  0
  4  5  1  0
  3  6  1  0
  6  7  1  0
  7  8  1  0
  8  9  1  0
  9 10  2  0
 10 11  1  0
 11 12  2  0
 12 13  1  0
 12 14  1  0
 14 15  2  0
 15 16  1  0
 16 17  2  0
 17 18  1  0
 18 19  1  0
 19 20  1  0
 20 21  1  0
 21 22  1  0
 22 23  1  0
 22 24  1  0
 24 25  1  0
 25 26  1  0
 26 27  1  0
 26 28  1  0
 26 29  1  0
 29 30  1  0
 18 31  2  0
 11 32  1  0
 32 33  1  0
 33 34  1  0
 34 35  1  0
 31  9  1  0
 35 10  1  0
 31 14  1  0
 30 22  1  0
  1 36  1  0
  1 37  1  0
  1 38  1  0
  2 39  1  0
  2 40  1  0
  4 41  1  0
  4 42  1  0
  5 43  1  0
  5 44  1  0
  5 45  1  0
  6 46  1  0
  6 47  1  0
  7 48  1  0
  7 49  1  0
  8 50  1  0
  8 51  1  0
 13 52  1  0
 13 53  1  0
 13 54  1  0
 15 55  1  0
 16 56  1  0
 17 57  1  0
 20 58  1  0
 20 59  1  0
 21 60  1  0
 21 61  1  0
 23 62  1  0
 23 63  1  0
 23 64  1  0
 24 65  1  0
 24 66  1  0
 25 67  1  0
 25 68  1  0
 27 69  1  0
 27 70  1  0
 27 71  1  0
 28 72  1  0
 28 73  1  0
 28 74  1  0
 29 75  1  0
 29 76  1  0
 30 77  1  0
 30 78  1  0
 32 79  1  0
 32 80  1  0
 33 81  1  0
 33 82  1  0
 34 83  1  0
 34 84  1  0
 35 85  1  0
 35 86  1  0
M  CHG  4   8   1  12   1  22   1  26   1
M  END
>  <UniqueID>  (21) 
21

>  <SMILES>  (21) 
CCN(CC)CC[NH2+]c1c2c([n+](C)c3cccc(OCC[N+]4(C)CC[N+](C)(C)CC4)c13)CCCC2

>  <Energy>  (21) 
154.35794841759719

>  <Genealogy>  (21) 
CCN(CC)CC[NH2+]c1c2c([n+](C)c3cccc(OCC[N+]4(C)CC[N+](C)(C)CC4)c13)CCCC2 (protonated)
CCN(CC)CC[NH2+]c1c2c([n+](C)c3cccc(OCC[N+]4(C)CC[N+](C)(C)CC4)c13)CCCC2 (3D coordinates assigned)
CCN(CC)CC[NH2+]c1c2c([n+](C)c3cccc(OCC[N+]4(C)CC[N+](C)(C)CC4)c13)CCCC2 (nonaromatic ring conformer: 154.35794841759719 kcal/mol)

>  <smiles>  (21) 
CCN(CC)CCNc1c2c([n+](C)c3cccc(OCC[N+]4(C)CC[N+](C)(C)CC4)c13)CCCC2

>  <score_type>  (21) 
oracle

>  <origin>  (21) 
adg

>  <m_score__min__energy>  (21) 
-2.6899999999999999

>  <m_primary>  (21) 
energy

$$$$
21:0
     RDKit          3D

 65 67  0  0  0  0  0  0  0  0999 V2000
   57.8160   31.5580   51.2260 C   0  0  0  0  0  0  0  0  0  0  0  0
   58.8050   31.0320   50.1910 C   0  0  0  0  0  0  0  0  0  0  0  0
   59.9610   31.8480   50.1870 O   0  0  0  0  0  0  0  0  0  0  0  0
   59.6740   33.1240   50.7280 C   0  0  0  0  0  0  0  0  0  0  0  0
   60.0360   34.2120   49.7130 C   0  0  0  0  0  0  0  0  0  0  0  0
   61.2190   33.8670   49.0180 O   0  0  0  0  0  0  0  0  0  0  0  0
   62.3390   34.4980   49.6050 C   0  0  0  0  0  0  0  0  0  0  0  0
   63.4130   33.4540   49.8910 C   0  0  0  0  0  0  0  0  0  0  0  0
   62.9870   32.1440   49.3810 N   0  0  0  0  0  0  0  0  0  0  0  0
   63.4610   31.9450   48.0080 C   0  0  0  0  0  0  0  0  0  0  0  0
   62.3020   31.4780   47.1220 C   0  0  0  0  0  0  0  0  0  0  0  0
   61.0260   31.5030   47.8610 N   0  0  0  0  0  0  0  0  0  0  0  0
   59.9080   31.1710   46.9920 C   0  0  0  0  0  0  0  0  0  0  0  0
   59.2460   32.2090   46.2790 C   0  0  0  0  0  0  0  0  0  0  0  0
   59.5120   33.5810   46.5310 C   0  0  0  0  0  0  0  0  0  0  0  0
   58.8110   34.5860   45.8670 C   0  0  0  0  0  0  0  0  0  0  0  0
   57.8250   34.2590   44.9500 C   0  0  0  0  0  0  0  0  0  0  0  0
   57.5580   32.9240   44.6640 C   0  0  0  0  0  0  0  0  0  0  0  0
   58.2870   31.8770   45.2870 C   0  0  0  0  0  0  0  0  0  0  0  0
   58.0770   30.5630   44.9450 N   0  0  0  0  0  0  0  0  0  0  0  0
   57.3890   30.2370   43.6730 C   0  0  0  0  0  0  0  0  0  0  0  0
   58.5070   29.5520   45.7790 C   0  0  0  0  0  0  0  0  0  0  0  0
   58.0140   28.2350   45.6180 C   0  0  0  0  0  0  0  0  0  0  0  0
   58.4480   27.1970   46.4220 C   0  0  0  0  0  0  0  0  0  0  0  0
   59.3570   27.4380   47.4310 C   0  0  0  0  0  0  0  0  0  0  0  0
   59.8510   28.7310   47.6740 C   0  0  0  0  0  0  0  0  0  0  0  0
   60.7130   28.9330   48.7660 O   0  0  0  0  0  0  0  0  0  0  0  0
   60.7760   28.1210   49.9400 C   0  0  0  0  0  0  0  0  0  0  0  0
   61.5040   28.8710   51.0440 C   0  0  0  0  0  0  0  0  0  0  0  0
   59.4400   29.8220   46.8320 C   0  0  0  0  0  0  0  0  0  0  0  0
   58.1996   31.3540   52.2366 H   0  0  0  0  0  0  0  0  0  0  0  0
   57.6893   32.6427   51.0940 H   0  0  0  0  0  0  0  0  0  0  0  0
   56.8458   31.0567   51.0940 H   0  0  0  0  0  0  0  0  0  0  0  0
   59.0860   29.9990   50.4440 H   0  0  0  0  0  0  0  0  0  0  0  0
   58.3387   31.0512   49.1949 H   0  0  0  0  0  0  0  0  0  0  0  0
   58.6016   33.1875   50.9643 H   0  0  0  0  0  0  0  0  0  0  0  0
   60.2651   33.2711   51.6440 H   0  0  0  0  0  0  0  0  0  0  0  0
   59.2123   34.3235   48.9925 H   0  0  0  0  0  0  0  0  0  0  0  0
   60.2013   35.1581   50.2492 H   0  0  0  0  0  0  0  0  0  0  0  0
   62.7377   35.2557   48.9144 H   0  0  0  0  0  0  0  0  0  0  0  0
   62.0378   34.9838   50.5448 H   0  0  0  0  0  0  0  0  0  0  0  0
   64.3501   33.7503   49.3970 H   0  0  0  0  0  0  0  0  0  0  0  0
   63.5703   33.3853   50.9775 H   0  0  0  0  0  0  0  0  0  0  0  0
   61.9390   32.1330   49.3640 H   0  0  0  0  0  0  0  0  0  0  0  0
   63.8597   32.8932   47.6182 H   0  0  0  0  0  0  0  0  0  0  0  0
   64.2523   31.1809   48.0039 H   0  0  0  0  0  0  0  0  0  0  0  0
   62.2253   32.1441   46.2499 H   0  0  0  0  0  0  0  0  0  0  0  0
   62.5007   30.4444   46.8024 H   0  0  0  0  0  0  0  0  0  0  0  0
   60.8720   32.4150   48.3370 H   0  0  0  0  0  0  0  0  0  0  0  0
   61.0720   30.8400   48.6670 H   0  0  0  0  0  0  0  0  0  0  0  0
   60.2853   33.8555   47.2635 H   0  0  0  0  0  0  0  0  0  0  0  0
   59.0412   35.6420   46.0715 H   0  0  0  0  0  0  0  0  0  0  0  0
   57.2539   35.0543   44.4486 H   0  0  0  0  0  0  0  0  0  0  0  0
   56.7670   32.6748   43.9414 H   0  0  0  0  0  0  0  0  0  0  0  0
   56.4147   29.7753   43.8910 H   0  0  0  0  0  0  0  0  0  0  0  0
   57.2363   31.1585   43.0921 H   0  0  0  0  0  0  0  0  0  0  0  0
   58.0055   29.5352   43.0921 H   0  0  0  0  0  0  0  0  0  0  0  0
   57.2683   28.0325   44.8351 H   0  0  0  0  0  0  0  0  0  0  0  0
   58.0679   26.1781   46.2567 H   0  0  0  0  0  0  0  0  0  0  0  0
   59.7018   26.6022   48.0575 H   0  0  0  0  0  0  0  0  0  0  0  0
   59.7557   27.8802   50.2731 H   0  0  0  0  0  0  0  0  0  0  0  0
   61.3192   27.1922   49.7115 H   0  0  0  0  0  0  0  0  0  0  0  0
   61.1550   28.5115   52.0233 H   0  0  0  0  0  0  0  0  0  0  0  0
   62.5863   28.6965   50.9538 H   0  0  0  0  0  0  0  0  0  0  0  0
   61.2974   29.9476   50.9538 H   0  0  0  0  0  0  0  0  0  0  0  0
  1  2  1  0
  2  3  1  0
  3  4  1  0
  4  5  1  0
  5  6  1  0
  6  7  1  0
  7  8  1  0
  8  9  1  0
  9 10  1  0
 10 11  1  0
 11 12  1  0
 12 13  1  0
 13 14  2  0
 14 15  1  0
 15 16  2  0
 16 17  1  0
 17 18  2  0
 18 19  1  0
 19 20  2  0
 20 21  1  0
 20 22  1  0
 22 23  2  0
 23 24  1  0
 24 25  2  0
 25 26  1  0
 26 27  1  0
 27 28  1  0
 28 29  1  0
 26 30  2  0
 30 13  1  0
 19 14  1  0
 30 22  1  0
  1 31  1  0
  1 32  1  0
  1 33  1  0
  2 34  1  0
  2 35  1  0
  4 36  1  0
  4 37  1  0
  5 38  1  0
  5 39  1  0
  7 40  1  0
  7 41  1  0
  8 42  1  0
  8 43  1  0
  9 44  1  0
 10 45  1  0
 10 46  1  0
 11 47  1  0
 11 48  1  0
 12 49  1  0
 12 50  1  0
 15 51  1  0
 16 52  1  0
 17 53  1  0
 18 54  1  0
 21 55  1  0
 21 56  1  0
 21 57  1  0
 23 58  1  0
 24 59  1  0
 25 60  1  0
 28 61  1  0
 28 62  1  0
 29 63  1  0
 29 64  1  0
 29 65  1  0
M  CHG  2  12   1  20   1
M  END
>  <UniqueID>  (22) 
22

>  <SMILES>  (22) 
CCOCCOCCNCC[NH2+]c1c2ccccc2[n+](C)c2cccc(OCC)c12

>  <Energy>  (22) 
89.98300906989935

>  <Genealogy>  (22) 
CCOCCOCCNCC[NH2+]c1c2ccccc2[n+](C)c2cccc(OCC)c12 (protonated)
CCOCCOCCNCC[NH2+]c1c2ccccc2[n+](C)c2cccc(OCC)c12 (3D coordinates assigned)
CCOCCOCCNCC[NH2+]c1c2ccccc2[n+](C)c2cccc(OCC)c12 (optimized conformer: 89.98300906989935 kcal/mol)

>  <smiles>  (22) 
CCOCCOCCNCCNc1c2ccccc2[n+](C)c2cccc(OCC)c12

>  <score_type>  (22) 
oracle

>  <origin>  (22) 
adg

>  <m_score__min__energy>  (22) 
-3.5699999999999998

>  <m_primary>  (22) 
energy

$$$$
