0:0
     RDKit          3D

 62 65  0  0  0  0  0  0  0  0999 V2000
   59.7514   35.5286   48.3306 H   0  0  0  0  0  0  0  0  0  0  0  0
   59.9000   34.4600   48.1160 C   0  0  0  0  0  0  0  0  0  0  0  0
   58.8720   33.6870   47.9310 N   0  0  0  0  0  0  0  0  0  0  0  0
   58.4540   33.1130   46.6800 C   0  0  0  0  0  0  0  0  0  0  0  0
   58.0640   33.9560   45.6270 C   0  0  0  0  0  0  0  0  0  0  0  0
   58.0170   35.0428   45.7904 H   0  0  0  0  0  0  0  0  0  0  0  0
   57.7380   33.4370   44.3860 C   0  0  0  0  0  0  0  0  0  0  0  0
   57.4362   34.1129   43.5723 H   0  0  0  0  0  0  0  0  0  0  0  0
   57.7900   32.0680   44.1630 C   0  0  0  0  0  0  0  0  0  0  0  0
   57.5426   31.6742   43.1661 H   0  0  0  0  0  0  0  0  0  0  0  0
   58.1550   31.1690   45.1930 C   0  0  0  0  0  0  0  0  0  0  0  0
   58.5140   31.7000   46.4690 C   0  0  0  0  0  0  0  0  0  0  0  0
   58.9090   30.7940   47.4880 C   0  0  0  0  0  0  0  0  0  0  0  0
   59.1310   31.2390   48.8360 N   0  0  0  0  0  0  0  0  0  0  0  0
   59.8370   31.9930   48.9970 H   0  0  0  0  0  0  0  0  0  0  0  0
   58.5370   30.5630   49.9910 C   0  0  0  0  0  0  0  0  0  0  0  0
   59.0215   29.5842   50.1223 H   0  0  0  0  0  0  0  0  0  0  0  0
   57.4594   30.4404   49.8070 H   0  0  0  0  0  0  0  0  0  0  0  0
   58.7210   31.3890   51.2720 C   0  0  0  0  0  0  0  0  0  0  0  0
   58.9647   30.7132   52.1050 H   0  0  0  0  0  0  0  0  0  0  0  0
   57.7865   31.9309   51.4795 H   0  0  0  0  0  0  0  0  0  0  0  0
   59.8140   32.3730   51.1100 N   0  0  0  0  0  0  0  0  0  0  0  0
   59.4070   33.7940   51.2330 C   0  0  0  0  0  0  0  0  0  0  0  0
   58.8302   34.0651   50.3365 H   0  0  0  0  0  0  0  0  0  0  0  0
   60.3337   34.3768   51.3405 H   0  0  0  0  0  0  0  0  0  0  0  0
   58.5510   34.1050   52.4650 C   0  0  0  0  0  0  0  0  0  0  0  0
   59.1300   33.8947   53.3763 H   0  0  0  0  0  0  0  0  0  0  0  0
   58.2609   35.1660   52.4516 H   0  0  0  0  0  0  0  0  0  0  0  0
   57.6475   33.4777   52.4516 H   0  0  0  0  0  0  0  0  0  0  0  0
   61.0950   32.0280   51.7760 C   0  0  0  0  0  0  0  0  0  0  0  0
   61.8152   32.8339   51.5716 H   0  0  0  0  0  0  0  0  0  0  0  0
   60.8672   31.9118   52.8459 H   0  0  0  0  0  0  0  0  0  0  0  0
   61.7210   30.6980   51.3180 C   0  0  0  0  0  0  0  0  0  0  0  0
   62.0015   30.1021   52.1991 H   0  0  0  0  0  0  0  0  0  0  0  0
   60.9918   30.1383   50.7139 H   0  0  0  0  0  0  0  0  0  0  0  0
   62.6170   30.9033   50.7139 H   0  0  0  0  0  0  0  0  0  0  0  0
   59.1420   29.4460   47.1650 C   0  0  0  0  0  0  0  0  0  0  0  0
   59.7360   28.5680   48.1010 C   0  0  0  0  0  0  0  0  0  0  0  0
   59.9785   28.9318   49.1104 H   0  0  0  0  0  0  0  0  0  0  0  0
   60.0170   27.2490   47.7590 C   0  0  0  0  0  0  0  0  0  0  0  0
   60.4615   26.5718   48.5032 H   0  0  0  0  0  0  0  0  0  0  0  0
   59.7370   26.7850   46.4780 C   0  0  0  0  0  0  0  0  0  0  0  0
   59.9847   25.7490   46.2033 H   0  0  0  0  0  0  0  0  0  0  0  0
   59.1430   27.6300   45.5410 C   0  0  0  0  0  0  0  0  0  0  0  0
   58.9331   27.2537   44.5289 H   0  0  0  0  0  0  0  0  0  0  0  0
   58.8050   28.9680   45.8730 C   0  0  0  0  0  0  0  0  0  0  0  0
   58.1810   29.8040   44.9710 N   0  0  0  0  0  0  0  0  0  0  0  0
   57.5270   29.2350   43.7710 C   0  0  0  0  0  0  0  0  0  0  0  0
   56.7308   28.5423   44.0811 H   0  0  0  0  0  0  0  0  0  0  0  0
   57.0926   30.0476   43.1701 H   0  0  0  0  0  0  0  0  0  0  0  0
   58.2717   28.6924   43.1701 H   0  0  0  0  0  0  0  0  0  0  0  0
   61.2660   33.9080   48.0390 C   0  0  0  0  0  0  0  0  0  0  0  0
   61.9420   33.8300   46.8100 C   0  0  0  0  0  0  0  0  0  0  0  0
   61.4726   34.2179   45.8939 H   0  0  0  0  0  0  0  0  0  0  0  0
   63.2130   33.2570   46.7600 C   0  0  0  0  0  0  0  0  0  0  0  0
   63.7511   33.1917   45.8028 H   0  0  0  0  0  0  0  0  0  0  0  0
   63.8000   32.7670   47.9270 C   0  0  0  0  0  0  0  0  0  0  0  0
   64.7998   32.3094   47.8968 H   0  0  0  0  0  0  0  0  0  0  0  0
   63.1040   32.8640   49.1340 C   0  0  0  0  0  0  0  0  0  0  0  0
   63.5564   32.4791   50.0598 H   0  0  0  0  0  0  0  0  0  0  0  0
   61.8680   33.4330   49.1690 N   0  0  0  0  0  0  0  0  0  0  0  0
   61.3740   33.4870   50.0880 H   0  0  0  0  0  0  0  0  0  0  0  0
  1  2  1  0
  2  3  2  0
  3  4  1  0
  4  5  2  0
  5  6  1  0
  5  7  1  0
  7  8  1  0
  7  9  2  0
  9 10  1  0
  9 11  1  0
 11 12  2  0
 12 13  1  0
 13 14  1  0
 14 15  1  0
 14 16  1  0
 16 17  1  0
 16 18  1  0
 16 19  1  0
 19 20  1  0
 19 21  1  0
 19 22  1  0
 22 23  1  0
 23 24  1  0
 23 25  1  0
 23 26  1  0
 26 27  1  0
 26 28  1  0
 26 29  1  0
 22 30  1  0
 30 31  1  0
 30 32  1  0
 30 33  1  0
 33 34  1  0
 33 35  1  0
 33 36  1  0
 13 37  2  0
 37 38  1  0
 38 39  1  0
 38 40  2  0
 40 41  1  0
 40 42  1  0
 42 43  1  0
 42 44  2  0
 44 45  1  0
 44 46  1  0
 46 47  2  0
 47 48  1  0
 48 49  1  0
 48 50  1  0
 48 51  1  0
  2 52  1  0
 52 53  2  0
 53 54  1  0
 53 55  1  0
 55 56  1  0
 55 57  2  0
 57 58  1  0
 57 59  1  0
 59 60  1  0
 59 61  2  0
 61 62  1  0
 12  4  1  0
 46 37  1  0
 61 52  1  0
 47 11  1  0
M  CHG  2  47   1  61   1
M  END
>  <UniqueID>  (1) 
1

>  <SMILES>  (1) 
CCN(CC)CCNc1c2ccccc2[n+](C)c2cccc(/N=C/c3cccc[nH+]3)c12

>  <Energy>  (1) 
102.15387846437389

>  <Genealogy>  (1) 
CCN(CC)CCNc1c2ccccc2[n+](C)c2cccc(N=Cc3cccc[nH+]3)c12 (protonated)
CCN(CC)CCNc1c2ccccc2[n+](C)c2cccc(/N=C/c3cccc[nH+]3)c12 (cis-trans isomerization)
CCN(CC)CCNc1c2ccccc2[n+](C)c2cccc(/N=C/c3cccc[nH+]3)c12 (3D coordinates assigned)
CCN(CC)CCNc1c2ccccc2[n+](C)c2cccc(/N=C/c3cccc[nH+]3)c12 (optimized conformer: 102.15387846437389 kcal/mol)

>  <smiles>  (1) 
CCN(CC)CCNc1c2ccccc2[n+](C)c2cccc(N=Cc3ccccn3)c12

>  <score_type>  (1) 
oracle

>  <origin>  (1) 
adg

>  <m_score__min__energy>  (1) 
-4.8799999999999999

>  <m_primary>  (1) 
energy

$$$$
1:0
     RDKit          3D

 29 30  0  0  0  0  0  0  0  0999 V2000
   58.6740   23.7770   45.6400 C   0  0  0  0  0  0  0  0  0  0  0  0
   58.5310   25.2060   46.1700 C   0  0  0  0  0  0  0  0  0  0  0  0
   59.8900   25.8830   46.3650 C   0  0  0  0  0  0  0  0  0  0  0  0
   57.6390   26.0180   45.3350 N   0  0  0  0  0  0  0  0  0  0  0  0
   56.7950   27.1160   45.7120 C   0  0  0  0  0  0  0  0  0  0  0  0
   55.5900   26.8840   45.9940 O   0  0  0  0  0  0  0  0  0  0  0  0
   57.2740   28.5070   45.7750 C   0  0  0  0  0  0  0  0  0  0  0  0
   58.5410   28.7860   46.2960 C   0  0  0  0  0  0  0  0  0  0  0  0
   59.0060   30.1030   46.3120 C   0  0  0  0  0  0  0  0  0  0  0  0
   60.2570   30.4300   46.8520 C   0  0  0  0  0  0  0  0  0  0  0  0
   60.6910   31.7610   46.8540 C   0  0  0  0  0  0  0  0  0  0  0  0
   62.3950   32.2070   47.5920 Br  0  0  0  0  0  0  0  0  0  0  0  0
   59.8780   32.7650   46.3170 C   0  0  0  0  0  0  0  0  0  0  0  0
   58.6280   32.4470   45.7740 C   0  0  0  0  0  0  0  0  0  0  0  0
   57.5380   33.8410   45.0450 Br  0  0  0  0  0  0  0  0  0  0  0  0
   58.1850   31.1160   45.7680 C   0  0  0  0  0  0  0  0  0  0  0  0
   57.0000   30.8050   45.2490 O   0  0  0  0  0  0  0  0  0  0  0  0
   56.5270   29.5620   45.2230 C   0  0  0  0  0  0  0  0  0  0  0  0
   55.4000   29.3430   44.7040 O   0  0  0  0  0  0  0  0  0  0  0  0
   58.7440   23.0774   46.4860 H   0  0  0  0  0  0  0  0  0  0  0  0
   57.7967   23.5239   45.0266 H   0  0  0  0  0  0  0  0  0  0  0  0
   59.5841   23.7028   45.0266 H   0  0  0  0  0  0  0  0  0  0  0  0
   58.0614   25.1276   47.1616 H   0  0  0  0  0  0  0  0  0  0  0  0
   60.0973   25.9863   47.4404 H   0  0  0  0  0  0  0  0  0  0  0  0
   60.6751   25.2707   45.8974 H   0  0  0  0  0  0  0  0  0  0  0  0
   59.8742   26.8785   45.8974 H   0  0  0  0  0  0  0  0  0  0  0  0
   59.1680   27.9731   46.6910 H   0  0  0  0  0  0  0  0  0  0  0  0
   60.8975   29.6415   47.2740 H   0  0  0  0  0  0  0  0  0  0  0  0
   60.2230   33.8095   46.3216 H   0  0  0  0  0  0  0  0  0  0  0  0
  1  2  1  0
  2  3  1  0
  2  4  1  0
  4  5  1  0
  5  6  2  0
  5  7  1  0
  7  8  2  0
  8  9  1  0
  9 10  2  0
 10 11  1  0
 11 12  1  0
 11 13  2  0
 13 14  1  0
 14 15  1  0
 14 16  2  0
 16 17  1  0
 17 18  1  0
 18 19  2  0
 18  7  1  0
 16  9  1  0
  1 20  1  0
  1 21  1  0
  1 22  1  0
  2 23  1  0
  3 24  1  0
  3 25  1  0
  3 26  1  0
  8 27  1  0
 10 28  1  0
 13 29  1  0
M  CHG  1   4  -1
M  END
>  <UniqueID>  (2) 
2

>  <SMILES>  (2) 
CC(C)[N-]C(=O)c1cc2cc(Br)cc(Br)c2oc1=O

>  <Energy>  (2) 
38.24107435162379

>  <Genealogy>  (2) 
CC(C)[N-]C(=O)c1cc2cc(Br)cc(Br)c2oc1=O (protonated)
CC(C)[N-]C(=O)c1cc2cc(Br)cc(Br)c2oc1=O (3D coordinates assigned)
CC(C)[N-]C(=O)c1cc2cc(Br)cc(Br)c2oc1=O (optimized conformer: 38.24107435162379 kcal/mol)

>  <smiles>  (2) 
CC(C)NC(=O)c1cc2cc(Br)cc(Br)c2oc1=O

>  <score_type>  (2) 
oracle

>  <origin>  (2) 
adg

>  <m_score__min__energy>  (2) 
-9.2400000000000002

>  <m_primary>  (2) 
energy

$$$$
2:0
     RDKit          3D

 77 80  0  0  0  0  0  0  0  0999 V2000
   64.4160   33.3000   50.1410 C   0  0  0  0  0  0  0  0  0  0  0  0
   63.0530   33.5910   49.5140 C   0  0  0  0  0  0  0  0  0  0  0  0
   62.7530   32.6350   48.4200 N   0  0  0  0  0  0  0  0  0  0  0  0
   63.7680   32.7440   47.3430 C   0  0  0  0  0  0  0  0  0  0  0  0
   63.3890   33.8420   46.3540 C   0  0  0  0  0  0  0  0  0  0  0  0
   62.6790   31.2450   48.9310 C   0  0  0  0  0  0  0  0  0  0  0  0
   61.5310   30.4860   48.2540 C   0  0  0  0  0  0  0  0  0  0  0  0
   61.2570   31.0410   46.9260 N   0  0  0  0  0  0  0  0  0  0  0  0
   59.9260   30.9700   46.3800 C   0  0  0  0  0  0  0  0  0  0  0  0
   59.4000   29.7190   46.0200 C   0  0  0  0  0  0  0  0  0  0  0  0
   59.9220   28.5300   46.5690 C   0  0  0  0  0  0  0  0  0  0  0  0
   59.3480   27.2980   46.2600 C   0  0  0  0  0  0  0  0  0  0  0  0
   58.2570   27.2300   45.3940 C   0  0  0  0  0  0  0  0  0  0  0  0
   57.7520   28.3920   44.8170 C   0  0  0  0  0  0  0  0  0  0  0  0
   58.3270   29.6580   45.0990 C   0  0  0  0  0  0  0  0  0  0  0  0
   57.8780   30.8150   44.4940 N   0  0  0  0  0  0  0  0  0  0  0  0
   57.0370   30.7320   43.2790 C   0  0  0  0  0  0  0  0  0  0  0  0
   58.2140   32.0470   45.0340 C   0  0  0  0  0  0  0  0  0  0  0  0
   57.5640   33.2270   44.6110 C   0  0  0  0  0  0  0  0  0  0  0  0
   57.8920   34.4590   45.1520 C   0  0  0  0  0  0  0  0  0  0  0  0
   58.7990   34.5500   46.1970 C   0  0  0  0  0  0  0  0  0  0  0  0
   59.4320   33.4020   46.7060 C   0  0  0  0  0  0  0  0  0  0  0  0
   60.1140   33.4650   47.9830 N   0  0  0  0  0  0  0  0  0  0  0  0
   59.8130   34.4150   49.0630 C   0  0  0  0  0  0  0  0  0  0  0  0
   59.6020   33.7380   50.4270 C   0  0  0  0  0  0  0  0  0  0  0  0
   59.9570   32.2310   50.5220 C   0  0  0  0  0  0  0  0  0  0  0  0
   58.8750   31.2480   50.8900 N   0  0  0  0  0  0  0  0  0  0  0  0
   58.6720   30.3810   49.6870 C   0  0  0  0  0  0  0  0  0  0  0  0
   59.2520   30.3910   52.0520 C   0  0  0  0  0  0  0  0  0  0  0  0
   58.1210   29.4120   52.4660 C   0  0  0  0  0  0  0  0  0  0  0  0
   56.8420   29.7850   51.9750 O   0  0  0  0  0  0  0  0  0  0  0  0
   56.6460   31.1790   52.1090 C   0  0  0  0  0  0  0  0  0  0  0  0
   57.5950   31.9710   51.1800 C   0  0  0  0  0  0  0  0  0  0  0  0
   59.2100   32.1450   46.0510 C   0  0  0  0  0  0  0  0  0  0  0  0
   64.3269   33.3190   51.2372 H   0  0  0  0  0  0  0  0  0  0  0  0
   64.7635   32.3074   49.8185 H   0  0  0  0  0  0  0  0  0  0  0  0
   65.1386   34.0641   49.8185 H   0  0  0  0  0  0  0  0  0  0  0  0
   62.2761   33.5064   50.2881 H   0  0  0  0  0  0  0  0  0  0  0  0
   63.0716   34.6076   49.0942 H   0  0  0  0  0  0  0  0  0  0  0  0
   64.7446   32.9819   47.7899 H   0  0  0  0  0  0  0  0  0  0  0  0
   63.8176   31.7856   46.8055 H   0  0  0  0  0  0  0  0  0  0  0  0
   63.0785   34.7414   46.9059 H   0  0  0  0  0  0  0  0  0  0  0  0
   64.2566   34.0812   45.7215 H   0  0  0  0  0  0  0  0  0  0  0  0
   62.5586   33.4951   45.7215 H   0  0  0  0  0  0  0  0  0  0  0  0
   63.6279   30.7303   48.7197 H   0  0  0  0  0  0  0  0  0  0  0  0
   62.4971   31.2731   50.0155 H   0  0  0  0  0  0  0  0  0  0  0  0
   61.8086   29.4265   48.1526 H   0  0  0  0  0  0  0  0  0  0  0  0
   60.6271   30.5855   48.8729 H   0  0  0  0  0  0  0  0  0  0  0  0
   61.8790   31.8200   46.6070 H   0  0  0  0  0  0  0  0  0  0  0  0
   60.7880   28.5749   47.2457 H   0  0  0  0  0  0  0  0  0  0  0  0
   59.7567   26.3767   46.7005 H   0  0  0  0  0  0  0  0  0  0  0  0
   57.7953   26.2578   45.1667 H   0  0  0  0  0  0  0  0  0  0  0  0
   56.8939   28.3276   44.1318 H   0  0  0  0  0  0  0  0  0  0  0  0
   55.9814   30.6278   43.5702 H   0  0  0  0  0  0  0  0  0  0  0  0
   57.1641   31.6470   42.6819 H   0  0  0  0  0  0  0  0  0  0  0  0
   57.3405   29.8594   42.6819 H   0  0  0  0  0  0  0  0  0  0  0  0
   56.7835   33.1667   43.8383 H   0  0  0  0  0  0  0  0  0  0  0  0
   57.4295   35.3723   44.7497 H   0  0  0  0  0  0  0  0  0  0  0  0
   59.0265   35.5336   46.6338 H   0  0  0  0  0  0  0  0  0  0  0  0
   60.5760   32.5930   48.3190 H   0  0  0  0  0  0  0  0  0  0  0  0
   60.6513   35.1218   49.1500 H   0  0  0  0  0  0  0  0  0  0  0  0
   58.8713   34.9192   48.8004 H   0  0  0  0  0  0  0  0  0  0  0  0
   60.2203   34.2726   51.1631 H   0  0  0  0  0  0  0  0  0  0  0  0
   58.5186   33.7907   50.6100 H   0  0  0  0  0  0  0  0  0  0  0  0
   60.3465   31.9288   49.5386 H   0  0  0  0  0  0  0  0  0  0  0  0
   60.6604   32.1779   51.3661 H   0  0  0  0  0  0  0  0  0  0  0  0
   58.4322   29.3570   50.0093 H   0  0  0  0  0  0  0  0  0  0  0  0
   57.8428   30.7792   49.0838 H   0  0  0  0  0  0  0  0  0  0  0  0
   59.5918   30.3697   49.0838 H   0  0  0  0  0  0  0  0  0  0  0  0
   60.1434   29.8053   51.7828 H   0  0  0  0  0  0  0  0  0  0  0  0
   59.4451   31.0561   52.9066 H   0  0  0  0  0  0  0  0  0  0  0  0
   58.3656   28.4126   52.0768 H   0  0  0  0  0  0  0  0  0  0  0  0
   58.0638   29.4291   53.5644 H   0  0  0  0  0  0  0  0  0  0  0  0
   55.6050   31.4213   51.8488 H   0  0  0  0  0  0  0  0  0  0  0  0
   56.8626   31.4619   53.1497 H   0  0  0  0  0  0  0  0  0  0  0  0
   57.0763   32.1592   50.2284 H   0  0  0  0  0  0  0  0  0  0  0  0
   57.8570   32.9048   51.6990 H   0  0  0  0  0  0  0  0  0  0  0  0
  1  2  1  0
  2  3  1  0
  3  4  1  0
  4  5  1  0
  3  6  1  0
  6  7  1  0
  7  8  1  0
  8  9  1  0
  9 10  2  0
 10 11  1  0
 11 12  2  0
 12 13  1  0
 13 14  2  0
 14 15  1  0
 15 16  2  0
 16 17  1  0
 16 18  1  0
 18 19  2  0
 19 20  1  0
 20 21  2  0
 21 22  1  0
 22 23  1  0
 23 24  1  0
 24 25  1  0
 25 26  1  0
 26 27  1  0
 27 28  1  0
 27 29  1  0
 29 30  1  0
 30 31  1  0
 31 32  1  0
 32 33  1  0
 22 34  2  0
 34  9  1  0
 15 10  1  0
 34 18  1  0
 33 27  1  0
  1 35  1  0
  1 36  1  0
  1 37  1  0
  2 38  1  0
  2 39  1  0
  4 40  1  0
  4 41  1  0
  5 42  1  0
  5 43  1  0
  5 44  1  0
  6 45  1  0
  6 46  1  0
  7 47  1  0
  7 48  1  0
  8 49  1  0
 11 50  1  0
 12 51  1  0
 13 52  1  0
 14 53  1  0
 17 54  1  0
 17 55  1  0
 17 56  1  0
 19 57  1  0
 20 58  1  0
 21 59  1  0
 23 60  1  0
 24 61  1  0
 24 62  1  0
 25 63  1  0
 25 64  1  0
 26 65  1  0
 26 66  1  0
 28 67  1  0
 28 68  1  0
 28 69  1  0
 29 70  1  0
 29 71  1  0
 30 72  1  0
 30 73  1  0
 32 74  1  0
 32 75  1  0
 33 76  1  0
 33 77  1  0
M  CHG  2  16   1  27   1
M  END
>  <UniqueID>  (3) 
3

>  <SMILES>  (3) 
CCN(CC)CCNc1c2ccccc2[n+](C)c2cccc(NCCC[N+]3(C)CCOCC3)c12

>  <Energy>  (3) 
139.67622666406882

>  <Genealogy>  (3) 
CCN(CC)CCNc1c2ccccc2[n+](C)c2cccc(NCCC[N+]3(C)CCOCC3)c12 (3D coordinates assigned)
CCN(CC)CCNc1c2ccccc2[n+](C)c2cccc(NCCC[N+]3(C)CCOCC3)c12 (nonaromatic ring conformer: 139.67622666406882 kcal/mol)

>  <smiles>  (3) 
CCN(CC)CCNc1c2ccccc2[n+](C)c2cccc(NCCC[N+]3(C)CCOCC3)c12

>  <score_type>  (3) 
oracle

>  <origin>  (3) 
adg

>  <m_score__min__energy>  (3) 
-5.5899999999999999

>  <m_primary>  (3) 
energy

$$$$
3:0
     RDKit          3D

 78 81  0  0  0  0  0  0  0  0999 V2000
   63.0560   33.8390   46.3860 C   0  0  0  0  0  0  0  0  0  0  0  0
   63.4830   33.8560   47.8490 C   0  0  0  0  0  0  0  0  0  0  0  0
   63.6300   32.4650   48.3620 N   0  0  0  0  0  0  0  0  0  0  0  0
   64.5210   32.4360   49.5500 C   0  0  0  0  0  0  0  0  0  0  0  0
   64.0150   33.3570   50.6590 C   0  0  0  0  0  0  0  0  0  0  0  0
   62.3000   31.8840   48.6760 C   0  0  0  0  0  0  0  0  0  0  0  0
   61.7670   30.9260   47.5880 C   0  0  0  0  0  0  0  0  0  0  0  0
   60.3070   30.7740   47.6160 N   0  0  0  0  0  0  0  0  0  0  0  0
   59.4840   30.8100   46.4440 C   0  0  0  0  0  0  0  0  0  0  0  0
   59.0730   32.0530   45.9020 C   0  0  0  0  0  0  0  0  0  0  0  0
   59.6000   33.2670   46.3930 C   0  0  0  0  0  0  0  0  0  0  0  0
   59.1710   34.4910   45.8850 C   0  0  0  0  0  0  0  0  0  0  0  0
   58.2300   34.5300   44.8630 C   0  0  0  0  0  0  0  0  0  0  0  0
   57.7270   33.3480   44.3240 C   0  0  0  0  0  0  0  0  0  0  0  0
   58.1430   32.0860   44.8190 C   0  0  0  0  0  0  0  0  0  0  0  0
   57.6860   30.9080   44.2630 N   0  0  0  0  0  0  0  0  0  0  0  0
   56.6870   30.9200   43.1770 C   0  0  0  0  0  0  0  0  0  0  0  0
   58.2040   29.7230   44.7130 C   0  0  0  0  0  0  0  0  0  0  0  0
   57.9200   28.1970   44.0700 S   0  0  0  0  0  0  0  0  0  0  0  0
   58.8880   27.3680   45.1510 C   0  0  0  0  0  0  0  0  0  0  0  0
   59.4420   28.2620   46.0780 C   0  0  0  0  0  0  0  0  0  0  0  0
   60.3910   27.7580   47.1570 C   0  0  0  0  0  0  0  0  0  0  0  0
   59.7330   27.6050   48.5410 C   0  0  0  0  0  0  0  0  0  0  0  0
   60.0020   28.7760   49.3930 N   0  0  0  0  0  0  0  0  0  0  0  0
   60.4720   28.4060   50.7350 C   0  0  0  0  0  0  0  0  0  0  0  0
   61.9620   28.7620   50.9510 C   0  0  0  0  0  0  0  0  0  0  0  0
   62.1580   30.2030   51.4440 C   0  0  0  0  0  0  0  0  0  0  0  0
   61.4650   30.4440   52.7950 C   0  0  0  0  0  0  0  0  0  0  0  0
   60.8350   31.8390   52.8470 C   0  0  0  0  0  0  0  0  0  0  0  0
   60.0250   32.1000   51.6050 C   0  0  0  0  0  0  0  0  0  0  0  0
   60.1980   33.2830   50.8720 C   0  0  0  0  0  0  0  0  0  0  0  0
   59.4610   33.4950   49.7050 C   0  0  0  0  0  0  0  0  0  0  0  0
   58.5660   32.5150   49.2730 C   0  0  0  0  0  0  0  0  0  0  0  0
   58.4200   31.3650   49.9840 N   0  0  0  0  0  0  0  0  0  0  0  0
   59.1250   31.1360   51.1250 C   0  0  0  0  0  0  0  0  0  0  0  0
   59.0810   29.6220   45.7950 C   0  0  0  0  0  0  0  0  0  0  0  0
   61.9586   33.7953   46.3248 H   0  0  0  0  0  0  0  0  0  0  0  0
   63.4149   34.7521   45.8886 H   0  0  0  0  0  0  0  0  0  0  0  0
   63.4864   32.9573   45.8886 H   0  0  0  0  0  0  0  0  0  0  0  0
   64.4461   34.3797   47.9397 H   0  0  0  0  0  0  0  0  0  0  0  0
   62.7140   34.3753   48.4397 H   0  0  0  0  0  0  0  0  0  0  0  0
   64.5680   31.4067   49.9352 H   0  0  0  0  0  0  0  0  0  0  0  0
   65.5164   32.7871   49.2405 H   0  0  0  0  0  0  0  0  0  0  0  0
   64.2561   32.9182   51.6385 H   0  0  0  0  0  0  0  0  0  0  0  0
   64.4995   34.3404   50.5685 H   0  0  0  0  0  0  0  0  0  0  0  0
   62.9251   33.4755   50.5685 H   0  0  0  0  0  0  0  0  0  0  0  0
   62.3792   31.3264   49.6209 H   0  0  0  0  0  0  0  0  0  0  0  0
   61.5908   32.7223   48.7408 H   0  0  0  0  0  0  0  0  0  0  0  0
   62.0588   31.3189   46.6028 H   0  0  0  0  0  0  0  0  0  0  0  0
   62.2026   29.9350   47.7832 H   0  0  0  0  0  0  0  0  0  0  0  0
   59.8440   30.5820   48.5330 H   0  0  0  0  0  0  0  0  0  0  0  0
   60.3601   33.2461   47.1879 H   0  0  0  0  0  0  0  0  0  0  0  0
   59.5776   35.4280   46.2933 H   0  0  0  0  0  0  0  0  0  0  0  0
   57.8806   35.4992   44.4777 H   0  0  0  0  0  0  0  0  0  0  0  0
   56.9967   33.3943   43.5027 H   0  0  0  0  0  0  0  0  0  0  0  0
   55.6756   30.9321   43.6093 H   0  0  0  0  0  0  0  0  0  0  0  0
   56.8312   31.8165   42.5561 H   0  0  0  0  0  0  0  0  0  0  0  0
   56.8096   30.0203   42.5561 H   0  0  0  0  0  0  0  0  0  0  0  0
   59.0643   26.2823   45.1372 H   0  0  0  0  0  0  0  0  0  0  0  0
   60.7789   26.7765   46.8469 H   0  0  0  0  0  0  0  0  0  0  0  0
   61.1862   28.5108   47.2616 H   0  0  0  0  0  0  0  0  0  0  0  0
   58.6459   27.4982   48.4113 H   0  0  0  0  0  0  0  0  0  0  0  0
   60.1554   26.7149   49.0302 H   0  0  0  0  0  0  0  0  0  0  0  0
   59.1520   29.3720   49.4940 H   0  0  0  0  0  0  0  0  0  0  0  0
   59.8679   28.9416   51.4821 H   0  0  0  0  0  0  0  0  0  0  0  0
   60.3663   27.3163   50.8414 H   0  0  0  0  0  0  0  0  0  0  0  0
   62.3843   28.0734   51.6977 H   0  0  0  0  0  0  0  0  0  0  0  0
   62.4714   28.6691   49.9805 H   0  0  0  0  0  0  0  0  0  0  0  0
   63.2348   30.3973   51.5566 H   0  0  0  0  0  0  0  0  0  0  0  0
   61.7089   30.8815   50.7038 H   0  0  0  0  0  0  0  0  0  0  0  0
   60.6781   29.6884   52.9356 H   0  0  0  0  0  0  0  0  0  0  0  0
   62.2178   30.3692   53.5935 H   0  0  0  0  0  0  0  0  0  0  0  0
   60.1792   31.9071   53.7275 H   0  0  0  0  0  0  0  0  0  0  0  0
   61.6373   32.5888   52.9118 H   0  0  0  0  0  0  0  0  0  0  0  0
   60.9141   34.0437   51.2163 H   0  0  0  0  0  0  0  0  0  0  0  0
   59.5846   34.4256   49.1316 H   0  0  0  0  0  0  0  0  0  0  0  0
   57.9783   32.6730   48.3567 H   0  0  0  0  0  0  0  0  0  0  0  0
   58.9891   30.1920   51.6731 H   0  0  0  0  0  0  0  0  0  0  0  0
  1  2  1  0
  2  3  1  0
  3  4  1  0
  4  5  1  0
  3  6  1  0
  6  7  1  0
  7  8  1  0
  8  9  1  0
  9 10  2  0
 10 11  1  0
 11 12  2  0
 12 13  1  0
 13 14  2  0
 14 15  1  0
 15 16  2  0
 16 17  1  0
 16 18  1  0
 18 19  1  0
 19 20  1  0
 20 21  2  0
 21 22  1  0
 22 23  1  0
 23 24  1  0
 24 25  1  0
 25 26  1  0
 26 27  1  0
 27 28  1  0
 28 29  1  0
 29 30  1  0
 30 31  2  0
 31 32  1  0
 32 33  2  0
 33 34  1  0
 34 35  2  0
 21 36  1  0
 36  9  1  0
 15 10  1  0
 36 18  2  0
 35 30  1  0
  1 37  1  0
  1 38  1  0
  1 39  1  0
  2 40  1  0
  2 41  1  0
  4 42  1  0
  4 43  1  0
  5 44  1  0
  5 45  1  0
  5 46  1  0
  6 47  1  0
  6 48  1  0
  7 49  1  0
  7 50  1  0
  8 51  1  0
 11 52  1  0
 12 53  1  0
 13 54  1  0
 14 55  1  0
 17 56  1  0
 17 57  1  0
 17 58  1  0
 20 59  1  0
 22 60  1  0
 22 61  1  0
 23 62  1  0
 23 63  1  0
 24 64  1  0
 25 65  1  0
 25 66  1  0
 26 67  1  0
 26 68  1  0
 27 69  1  0
 27 70  1  0
 28 71  1  0
 28 72  1  0
 29 73  1  0
 29 74  1  0
 31 75  1  0
 32 76  1  0
 33 77  1  0
 35 78  1  0
M  CHG  1  16   1
M  END
>  <UniqueID>  (4) 
4

>  <SMILES>  (4) 
CCN(CC)CCNc1c2ccccc2[n+](C)c2scc(CCNCCCCCc3cccnc3)c12

>  <Energy>  (4) 
122.82939796570828

>  <Genealogy>  (4) 
CCN(CC)CCNc1c2ccccc2[n+](C)c2scc(CCNCCCCCc3cccnc3)c12 (3D coordinates assigned)
CCN(CC)CCNc1c2ccccc2[n+](C)c2scc(CCNCCCCCc3cccnc3)c12 (optimized conformer: 122.82939796570828 kcal/mol)

>  <smiles>  (4) 
CCN(CC)CCNc1c2ccccc2[n+](C)c2scc(CCNCCCCCc3cccnc3)c12

>  <score_type>  (4) 
oracle

>  <origin>  (4) 
adg

>  <m_score__min__energy>  (4) 
-7.3499999999999996

>  <m_primary>  (4) 
energy

$$$$
4:0
     RDKit          3D

 47 50  0  0  0  0  0  0  0  0999 V2000
   57.0800   29.9420   52.4470 C   0  0  0  0  0  0  0  0  0  0  0  0
   56.0830   31.0290   52.0690 C   0  0  0  0  0  0  0  0  0  0  0  0
   56.7630   32.3290   52.0090 N   0  0  0  0  0  0  0  0  0  0  0  0
   58.0620   32.3120   52.7040 C   0  0  0  0  0  0  0  0  0  0  0  0
   59.1430   33.1020   51.9500 C   0  0  0  0  0  0  0  0  0  0  0  0
   60.1010   32.1960   51.3210 N   0  0  0  0  0  0  0  0  0  0  0  0
   60.8230   32.6040   50.1530 C   0  0  0  0  0  0  0  0  0  0  0  0
   60.1510   32.8720   48.9670 C   0  0  0  0  0  0  0  0  0  0  0  0
   60.8310   33.2930   47.8360 C   0  0  0  0  0  0  0  0  0  0  0  0
   62.2010   33.3360   47.7920 N   0  0  0  0  0  0  0  0  0  0  0  0
   62.8930   33.4600   46.4990 C   0  0  0  0  0  0  0  0  0  0  0  0
   62.9030   33.1860   48.9780 C   0  0  0  0  0  0  0  0  0  0  0  0
   64.2950   33.4310   49.0560 C   0  0  0  0  0  0  0  0  0  0  0  0
   64.9920   33.2440   50.2500 C   0  0  0  0  0  0  0  0  0  0  0  0
   64.3250   32.8230   51.3970 C   0  0  0  0  0  0  0  0  0  0  0  0
   62.9500   32.6020   51.3670 C   0  0  0  0  0  0  0  0  0  0  0  0
   62.2210   32.7890   50.1760 C   0  0  0  0  0  0  0  0  0  0  0  0
   59.8240   33.5340   46.7750 C   0  0  0  0  0  0  0  0  0  0  0  0
   59.9470   34.1800   45.5810 N   0  0  0  0  0  0  0  0  0  0  0  0
   58.8410   34.3790   44.8020 C   0  0  0  0  0  0  0  0  0  0  0  0
   57.5670   33.9750   45.2480 C   0  0  0  0  0  0  0  0  0  0  0  0
   57.4260   33.3880   46.5120 C   0  0  0  0  0  0  0  0  0  0  0  0
   58.5780   33.1840   47.2640 C   0  0  0  0  0  0  0  0  0  0  0  0
   58.7290   32.7510   48.6440 C   0  0  0  0  0  0  0  0  0  0  0  0
   57.8110   32.3410   49.4020 O   0  0  0  0  0  0  0  0  0  0  0  0
   57.1461   29.8700   53.5426 H   0  0  0  0  0  0  0  0  0  0  0  0
   56.7452   28.9783   52.0357 H   0  0  0  0  0  0  0  0  0  0  0  0
   58.0690   30.1925   52.0357 H   0  0  0  0  0  0  0  0  0  0  0  0
   55.6475   30.7990   51.0854 H   0  0  0  0  0  0  0  0  0  0  0  0
   55.2866   31.0705   52.8266 H   0  0  0  0  0  0  0  0  0  0  0  0
   56.9090   32.5950   51.0070 H   0  0  0  0  0  0  0  0  0  0  0  0
   57.9336   32.7548   53.7027 H   0  0  0  0  0  0  0  0  0  0  0  0
   58.3946   31.2653   52.7654 H   0  0  0  0  0  0  0  0  0  0  0  0
   58.6649   33.7175   51.1737 H   0  0  0  0  0  0  0  0  0  0  0  0
   59.6791   33.7407   52.6674 H   0  0  0  0  0  0  0  0  0  0  0  0
   60.3950   31.3160   51.8000 H   0  0  0  0  0  0  0  0  0  0  0  0
   63.9622   33.6516   46.6723 H   0  0  0  0  0  0  0  0  0  0  0  0
   62.7754   32.5265   45.9292 H   0  0  0  0  0  0  0  0  0  0  0  0
   62.4586   34.2946   45.9292 H   0  0  0  0  0  0  0  0  0  0  0  0
   64.8355   33.7741   48.1615 H   0  0  0  0  0  0  0  0  0  0  0  0
   66.0755   33.4304   50.2853 H   0  0  0  0  0  0  0  0  0  0  0  0
   64.8855   32.6643   52.3301 H   0  0  0  0  0  0  0  0  0  0  0  0
   62.4292   32.2789   52.2805 H   0  0  0  0  0  0  0  0  0  0  0  0
   60.8570   34.5720   45.2590 H   0  0  0  0  0  0  0  0  0  0  0  0
   58.9469   34.8590   43.8179 H   0  0  0  0  0  0  0  0  0  0  0  0
   56.6859   34.1201   44.6056 H   0  0  0  0  0  0  0  0  0  0  0  0
   56.4372   33.0981   46.8969 H   0  0  0  0  0  0  0  0  0  0  0  0
  1  2  1  0
  2  3  1  0
  3  4  1  0
  4  5  1  0
  5  6  1  0
  6  7  1  0
  7  8  2  0
  8  9  1  0
  9 10  2  0
 10 11  1  0
 10 12  1  0
 12 13  2  0
 13 14  1  0
 14 15  2  0
 15 16  1  0
 16 17  2  0
  9 18  1  0
 18 19  2  0
 19 20  1  0
 20 21  2  0
 21 22  1  0
 22 23  2  0
 23 24  1  0
 24 25  2  0
 17  7  1  0
 23 18  1  0
 24  8  1  0
 17 12  1  0
  1 26  1  0
  1 27  1  0
  1 28  1  0
  2 29  1  0
  2 30  1  0
  3 31  1  0
  4 32  1  0
  4 33  1  0
  5 34  1  0
  5 35  1  0
  6 36  1  0
 11 37  1  0
 11 38  1  0
 11 39  1  0
 13 40  1  0
 14 41  1  0
 15 42  1  0
 16 43  1  0
 19 44  1  0
 20 45  1  0
 21 46  1  0
 22 47  1  0
M  CHG  2  10   1  19   1
M  END
>  <UniqueID>  (5) 
5

>  <SMILES>  (5) 
CCNCCNc1c2c([n+](C)c3ccccc13)-c1[nH+]cccc1C2=O

>  <Energy>  (5) 
102.21630583028549

>  <Genealogy>  (5) 
CCNCCNc1c2c([n+](C)c3ccccc13)-c1[nH+]cccc1C2=O (protonated)
CCNCCNc1c2c([n+](C)c3ccccc13)-c1[nH+]cccc1C2=O (3D coordinates assigned)
CCNCCNc1c2c([n+](C)c3ccccc13)-c1[nH+]cccc1C2=O (nonaromatic ring conformer: 102.21630583028549 kcal/mol)

>  <smiles>  (5) 
CCNCCNc1c2c([n+](C)c3ccccc13)-c1ncccc1C2=O

>  <score_type>  (5) 
oracle

>  <origin>  (5) 
adg

>  <m_score__min__energy>  (5) 
-5.1399999999999997

>  <m_primary>  (5) 
energy

$$$$
5:0
     RDKit          3D

 64 66  0  0  0  0  0  0  0  0999 V2000
   58.9560   33.8860   52.0240 C   0  0  0  0  0  0  0  0  0  0  0  0
   60.4150   33.8300   51.5780 C   0  0  0  0  0  0  0  0  0  0  0  0
   60.5210   33.9330   50.1710 O   0  0  0  0  0  0  0  0  0  0  0  0
   61.8260   34.3160   49.7690 C   0  0  0  0  0  0  0  0  0  0  0  0
   62.8720   33.5040   50.5380 C   0  0  0  0  0  0  0  0  0  0  0  0
   63.1960   32.1780   49.8340 C   0  0  0  0  0  0  0  0  0  0  0  0
   62.1950   31.8970   48.7770 N   0  0  0  0  0  0  0  0  0  0  0  0
   62.7000   32.3420   47.4630 C   0  0  0  0  0  0  0  0  0  0  0  0
   61.8600   30.4530   48.7540 C   0  0  0  0  0  0  0  0  0  0  0  0
   61.4450   29.9260   50.1390 C   0  0  0  0  0  0  0  0  0  0  0  0
   60.6370   30.9120   50.8670 N   0  0  0  0  0  0  0  0  0  0  0  0
   59.2250   30.5100   50.8670 C   0  0  0  0  0  0  0  0  0  0  0  0
   58.4370   31.2920   49.8110 C   0  0  0  0  0  0  0  0  0  0  0  0
   59.3330   31.8910   48.8210 N   0  0  0  0  0  0  0  0  0  0  0  0
   59.0480   31.8170   47.4110 C   0  0  0  0  0  0  0  0  0  0  0  0
   58.7950   30.5760   46.7980 C   0  0  0  0  0  0  0  0  0  0  0  0
   58.8830   29.3720   47.5280 C   0  0  0  0  0  0  0  0  0  0  0  0
   58.6710   28.1430   46.9080 C   0  0  0  0  0  0  0  0  0  0  0  0
   58.3830   28.0900   45.5510 C   0  0  0  0  0  0  0  0  0  0  0  0
   58.2740   29.2670   44.8110 C   0  0  0  0  0  0  0  0  0  0  0  0
   58.4410   30.5350   45.4220 C   0  0  0  0  0  0  0  0  0  0  0  0
   58.2780   31.7100   44.7120 N   0  0  0  0  0  0  0  0  0  0  0  0
   57.6230   31.6890   43.3850 C   0  0  0  0  0  0  0  0  0  0  0  0
   58.7130   32.9070   45.2490 C   0  0  0  0  0  0  0  0  0  0  0  0
   58.8270   34.0810   44.4600 C   0  0  0  0  0  0  0  0  0  0  0  0
   59.2460   35.2870   45.0200 C   0  0  0  0  0  0  0  0  0  0  0  0
   59.5820   35.3550   46.3660 C   0  0  0  0  0  0  0  0  0  0  0  0
   59.5150   34.2110   47.1590 C   0  0  0  0  0  0  0  0  0  0  0  0
   59.0830   32.9810   46.6190 C   0  0  0  0  0  0  0  0  0  0  0  0
   58.9083   33.8878   53.1230 H   0  0  0  0  0  0  0  0  0  0  0  0
   58.4887   34.8027   51.6352 H   0  0  0  0  0  0  0  0  0  0  0  0
   58.4198   33.0078   51.6352 H   0  0  0  0  0  0  0  0  0  0  0  0
   60.9648   34.6623   52.0417 H   0  0  0  0  0  0  0  0  0  0  0  0
   60.8396   32.8647   51.8910 H   0  0  0  0  0  0  0  0  0  0  0  0
   61.9433   34.1324   48.6908 H   0  0  0  0  0  0  0  0  0  0  0  0
   61.9702   35.3851   49.9840 H   0  0  0  0  0  0  0  0  0  0  0  0
   63.7941   34.0981   50.6199 H   0  0  0  0  0  0  0  0  0  0  0  0
   62.4614   33.2718   51.5317 H   0  0  0  0  0  0  0  0  0  0  0  0
   64.1952   32.2438   49.3788 H   0  0  0  0  0  0  0  0  0  0  0  0
   63.1713   31.3650   50.5746 H   0  0  0  0  0  0  0  0  0  0  0  0
   63.5179   33.0628   47.6095 H   0  0  0  0  0  0  0  0  0  0  0  0
   63.0729   31.4735   46.9002 H   0  0  0  0  0  0  0  0  0  0  0  0
   61.8854   32.8212   46.9002 H   0  0  0  0  0  0  0  0  0  0  0  0
   61.0284   30.2942   48.0517 H   0  0  0  0  0  0  0  0  0  0  0  0
   62.7608   29.9042   48.4419 H   0  0  0  0  0  0  0  0  0  0  0  0
   60.8563   29.0058   50.0101 H   0  0  0  0  0  0  0  0  0  0  0  0
   62.3568   29.7276   50.7215 H   0  0  0  0  0  0  0  0  0  0  0  0
   60.7170   31.8250   50.3650 H   0  0  0  0  0  0  0  0  0  0  0  0
   59.1561   29.4347   50.6455 H   0  0  0  0  0  0  0  0  0  0  0  0
   58.7971   30.7249   51.8573 H   0  0  0  0  0  0  0  0  0  0  0  0
   57.7437   30.6075   49.3003 H   0  0  0  0  0  0  0  0  0  0  0  0
   57.8837   32.0985   50.3144 H   0  0  0  0  0  0  0  0  0  0  0  0
   60.2840   32.1940   49.1310 H   0  0  0  0  0  0  0  0  0  0  0  0
   59.1222   29.4043   48.6012 H   0  0  0  0  0  0  0  0  0  0  0  0
   58.7318   27.2140   47.4938 H   0  0  0  0  0  0  0  0  0  0  0  0
   58.2404   27.1170   45.0581 H   0  0  0  0  0  0  0  0  0  0  0  0
   58.0546   29.2104   43.7346 H   0  0  0  0  0  0  0  0  0  0  0  0
   56.5313   31.6540   43.5155 H   0  0  0  0  0  0  0  0  0  0  0  0
   57.8966   32.5964   42.8266 H   0  0  0  0  0  0  0  0  0  0  0  0
   57.9542   30.8010   42.8266 H   0  0  0  0  0  0  0  0  0  0  0  0
   58.5807   34.0388   43.3888 H   0  0  0  0  0  0  0  0  0  0  0  0
   59.3108   36.1886   44.3932 H   0  0  0  0  0  0  0  0  0  0  0  0
   59.9009   36.3115   46.8059 H   0  0  0  0  0  0  0  0  0  0  0  0
   59.8025   34.2676   48.2193 H   0  0  0  0  0  0  0  0  0  0  0  0
  1  2  1  0
  2  3  1  0
  3  4  1  0
  4  5  1  0
  5  6  1  0
  6  7  1  0
  7  8  1  0
  7  9  1  0
  9 10  1  0
 10 11  1  0
 11 12  1  0
 12 13  1  0
 13 14  1  0
 14 15  1  0
 15 16  2  0
 16 17  1  0
 17 18  2  0
 18 19  1  0
 19 20  2  0
 20 21  1  0
 21 22  2  0
 22 23  1  0
 22 24  1  0
 24 25  2  0
 25 26  1  0
 26 27  2  0
 27 28  1  0
 28 29  2  0
 29 15  1  0
 21 16  1  0
 29 24  1  0
  1 30  1  0
  1 31  1  0
  1 32  1  0
  2 33  1  0
  2 34  1  0
  4 35  1  0
  4 36  1  0
  5 37  1  0
  5 38  1  0
  6 39  1  0
  6 40  1  0
  8 41  1  0
  8 42  1  0
  8 43  1  0
  9 44  1  0
  9 45  1  0
 10 46  1  0
 10 47  1  0
 11 48  1  0
 12 49  1  0
 12 50  1  0
 13 51  1  0
 13 52  1  0
 14 53  1  0
 17 54  1  0
 18 55  1  0
 19 56  1  0
 20 57  1  0
 23 58  1  0
 23 59  1  0
 23 60  1  0
 25 61  1  0
 26 62  1  0
 27 63  1  0
 28 64  1  0
M  CHG  1  22   1
M  END
>  <UniqueID>  (6) 
6

>  <SMILES>  (6) 
CCOCCCN(C)CCNCCNc1c2ccccc2[n+](C)c2ccccc12

>  <Energy>  (6) 
87.96906454494948

>  <Genealogy>  (6) 
CCOCCCN(C)CCNCCNc1c2ccccc2[n+](C)c2ccccc12 (3D coordinates assigned)
CCOCCCN(C)CCNCCNc1c2ccccc2[n+](C)c2ccccc12 (optimized conformer: 87.96906454494948 kcal/mol)

>  <smiles>  (6) 
CCOCCCN(C)CCNCCNc1c2ccccc2[n+](C)c2ccccc12

>  <score_type>  (6) 
oracle

>  <origin>  (6) 
adg

>  <m_score__min__energy>  (6) 
-5.79

>  <m_primary>  (6) 
energy

$$$$
6:0
     RDKit          3D

 55 57  0  0  0  0  0  0  0  0999 V2000
   65.3390   33.1040   50.1420 C   0  0  0  0  0  0  0  0  0  0  0  0
   64.4960   32.0610   49.3770 C   0  0  0  0  0  0  0  0  0  0  0  0
   63.1510   32.5310   48.8860 N   0  0  0  0  0  0  0  0  0  0  0  0
   62.9470   33.9370   49.3300 C   0  0  0  0  0  0  0  0  0  0  0  0
   63.2360   32.4830   47.3840 C   0  0  0  0  0  0  0  0  0  0  0  0
   63.3820   33.8310   46.6590 C   0  0  0  0  0  0  0  0  0  0  0  0
   62.1010   31.5750   49.3960 C   0  0  0  0  0  0  0  0  0  0  0  0
   61.2710   30.7890   48.3340 C   0  0  0  0  0  0  0  0  0  0  0  0
   59.8300   31.0910   48.4230 N   0  0  0  0  0  0  0  0  0  0  0  0
   59.3040   31.4490   47.1170 C   0  0  0  0  0  0  0  0  0  0  0  0
   59.3630   32.7810   46.6800 C   0  0  0  0  0  0  0  0  0  0  0  0
   58.8820   33.1530   45.4510 C   0  0  0  0  0  0  0  0  0  0  0  0
   58.3200   32.2510   44.5850 N   0  0  0  0  0  0  0  0  0  0  0  0
   57.8540   32.6940   43.2570 C   0  0  0  0  0  0  0  0  0  0  0  0
   58.1860   30.9300   44.9790 C   0  0  0  0  0  0  0  0  0  0  0  0
   57.5580   29.9730   44.1440 C   0  0  0  0  0  0  0  0  0  0  0  0
   57.4210   28.6460   44.5460 C   0  0  0  0  0  0  0  0  0  0  0  0
   57.8990   28.2370   45.7850 C   0  0  0  0  0  0  0  0  0  0  0  0
   58.5230   29.1490   46.6330 C   0  0  0  0  0  0  0  0  0  0  0  0
   58.6790   30.5030   46.2580 C   0  0  0  0  0  0  0  0  0  0  0  0
   59.0730   34.6140   45.2120 C   0  0  0  0  0  0  0  0  0  0  0  0
   59.6320   35.1520   46.5360 C   0  0  0  0  0  0  0  0  0  0  0  0
   59.9470   33.9370   47.4160 C   0  0  0  0  0  0  0  0  0  0  0  0
   65.2162   32.9520   51.2245 H   0  0  0  0  0  0  0  0  0  0  0  0
   66.3992   32.9870   49.8733 H   0  0  0  0  0  0  0  0  0  0  0  0
   65.0022   34.1161   49.8733 H   0  0  0  0  0  0  0  0  0  0  0  0
   65.0779   31.7336   48.5028 H   0  0  0  0  0  0  0  0  0  0  0  0
   64.2844   31.2611   50.1018 H   0  0  0  0  0  0  0  0  0  0  0  0
   62.9412   33.9772   50.4293 H   0  0  0  0  0  0  0  0  0  0  0  0
   63.7634   34.5654   48.9444 H   0  0  0  0  0  0  0  0  0  0  0  0
   61.9857   34.3075   48.9444 H   0  0  0  0  0  0  0  0  0  0  0  0
   64.1067   31.8654   47.1186 H   0  0  0  0  0  0  0  0  0  0  0  0
   62.2686   32.0784   47.0517 H   0  0  0  0  0  0  0  0  0  0  0  0
   63.4695   34.6386   47.4007 H   0  0  0  0  0  0  0  0  0  0  0  0
   64.2834   33.8127   46.0288 H   0  0  0  0  0  0  0  0  0  0  0  0
   62.4976   34.0061   46.0288 H   0  0  0  0  0  0  0  0  0  0  0  0
   62.6091   30.8350   50.0318 H   0  0  0  0  0  0  0  0  0  0  0  0
   61.3674   32.2114   49.9126 H   0  0  0  0  0  0  0  0  0  0  0  0
   61.6295   31.0619   47.3305 H   0  0  0  0  0  0  0  0  0  0  0  0
   61.4048   29.7143   48.5265 H   0  0  0  0  0  0  0  0  0  0  0  0
   59.6430   31.8470   49.1140 H   0  0  0  0  0  0  0  0  0  0  0  0
   59.3220   30.2540   48.7860 H   0  0  0  0  0  0  0  0  0  0  0  0
   57.0617   33.4472   43.3789 H   0  0  0  0  0  0  0  0  0  0  0  0
   58.6953   33.1335   42.7010 H   0  0  0  0  0  0  0  0  0  0  0  0
   57.4576   31.8316   42.7010 H   0  0  0  0  0  0  0  0  0  0  0  0
   57.1720   30.2829   43.1617 H   0  0  0  0  0  0  0  0  0  0  0  0
   56.9326   27.9194   43.8801 H   0  0  0  0  0  0  0  0  0  0  0  0
   57.7841   27.1886   46.0975 H   0  0  0  0  0  0  0  0  0  0  0  0
   58.9001   28.8105   47.6093 H   0  0  0  0  0  0  0  0  0  0  0  0
   59.7861   34.7835   44.3918 H   0  0  0  0  0  0  0  0  0  0  0  0
   58.1385   35.1149   44.9191 H   0  0  0  0  0  0  0  0  0  0  0  0
   60.5480   35.7324   46.3513 H   0  0  0  0  0  0  0  0  0  0  0  0
   58.9056   35.8155   47.0281 H   0  0  0  0  0  0  0  0  0  0  0  0
   61.0337   33.8138   47.5340 H   0  0  0  0  0  0  0  0  0  0  0  0
   59.5347   34.0378   48.4308 H   0  0  0  0  0  0  0  0  0  0  0  0
  1  2  1  0
  2  3  1  0
  3  4  1  0
  3  5  1  0
  5  6  1  0
  3  7  1  0
  7  8  1  0
  8  9  1  0
  9 10  1  0
 10 11  2  0
 11 12  1  0
 12 13  2  0
 13 14  1  0
 13 15  1  0
 15 16  2  0
 16 17  1  0
 17 18  2  0
 18 19  1  0
 19 20  2  0
 12 21  1  0
 21 22  1  0
 22 23  1  0
 20 10  1  0
 23 11  1  0
 20 15  1  0
  1 24  1  0
  1 25  1  0
  1 26  1  0
  2 27  1  0
  2 28  1  0
  4 29  1  0
  4 30  1  0
  4 31  1  0
  5 32  1  0
  5 33  1  0
  6 34  1  0
  6 35  1  0
  6 36  1  0
  7 37  1  0
  7 38  1  0
  8 39  1  0
  8 40  1  0
  9 41  1  0
  9 42  1  0
 14 43  1  0
 14 44  1  0
 14 45  1  0
 16 46  1  0
 17 47  1  0
 18 48  1  0
 19 49  1  0
 21 50  1  0
 21 51  1  0
 22 52  1  0
 22 53  1  0
 23 54  1  0
 23 55  1  0
M  CHG  3   3   1   9   1  13   1
M  END
>  <UniqueID>  (7) 
7

>  <SMILES>  (7) 
CC[N+](C)(CC)CC[NH2+]c1c2c([n+](C)c3ccccc13)CCC2

>  <Energy>  (7) 
95.9237990736101

>  <Genealogy>  (7) 
CC[N+](C)(CC)CC[NH2+]c1c2c([n+](C)c3ccccc13)CCC2 (protonated)
CC[N+](C)(CC)CC[NH2+]c1c2c([n+](C)c3ccccc13)CCC2 (3D coordinates assigned)
CC[N+](C)(CC)CC[NH2+]c1c2c([n+](C)c3ccccc13)CCC2 (nonaromatic ring conformer: 95.9237990736101 kcal/mol)

>  <smiles>  (7) 
CC[N+](C)(CC)CCNc1c2c([n+](C)c3ccccc13)CCC2

>  <score_type>  (7) 
oracle

>  <origin>  (7) 
adg

>  <m_score__min__energy>  (7) 
-3.0499999999999998

>  <m_primary>  (7) 
energy

$$$$
7:0
     RDKit          3D

 56 55  0  0  0  0  0  0  0  0999 V2000
   60.8402   33.3817   50.8946 H   0  0  0  0  0  0  0  0  0  0  0  0
   59.9200   33.5070   50.3050 C   0  0  0  0  0  0  0  0  0  0  0  0
   58.8840   32.6950   50.5800 C   0  0  0  0  0  0  0  0  0  0  0  0
   58.2573   32.9370   51.4511 H   0  0  0  0  0  0  0  0  0  0  0  0
   58.5270   31.4760   49.7720 C   0  0  0  0  0  0  0  0  0  0  0  0
   57.5186   31.6007   49.3505 H   0  0  0  0  0  0  0  0  0  0  0  0
   58.5516   30.5904   50.4239 H   0  0  0  0  0  0  0  0  0  0  0  0
   59.4920   31.2980   48.6800 N   0  0  0  0  0  0  0  0  0  0  0  0
   59.1800   31.9030   47.8790 H   0  0  0  0  0  0  0  0  0  0  0  0
   59.4920   29.9070   48.2170 C   0  0  0  0  0  0  0  0  0  0  0  0
   58.4925   29.6517   47.8351 H   0  0  0  0  0  0  0  0  0  0  0  0
   59.7529   29.2496   49.0595 H   0  0  0  0  0  0  0  0  0  0  0  0
   60.5240   29.7180   47.0990 C   0  0  0  0  0  0  0  0  0  0  0  0
   60.0107   29.7622   46.1271 H   0  0  0  0  0  0  0  0  0  0  0  0
   61.0112   28.7419   47.2395 H   0  0  0  0  0  0  0  0  0  0  0  0
   61.6060   30.8090   47.1430 C   0  0  0  0  0  0  0  0  0  0  0  0
   62.4212   30.5269   46.4604 H   0  0  0  0  0  0  0  0  0  0  0  0
   61.9617   30.8894   48.1808 H   0  0  0  0  0  0  0  0  0  0  0  0
   61.0860   32.1260   46.7410 N   0  0  0  0  0  0  0  0  0  0  0  0
   60.2860   32.4020   47.3610 H   0  0  0  0  0  0  0  0  0  0  0  0
   62.1110   33.1830   46.7790 C   0  0  0  0  0  0  0  0  0  0  0  0
   61.6907   34.0685   47.2782 H   0  0  0  0  0  0  0  0  0  0  0  0
   62.4025   33.4132   45.7436 H   0  0  0  0  0  0  0  0  0  0  0  0
   63.3720   32.7320   47.5420 C   0  0  0  0  0  0  0  0  0  0  0  0
   64.2512   32.9470   46.9169 H   0  0  0  0  0  0  0  0  0  0  0  0
   63.2551   31.6579   47.7483 H   0  0  0  0  0  0  0  0  0  0  0  0
   63.5590   33.4320   48.9000 C   0  0  0  0  0  0  0  0  0  0  0  0
   62.6739   33.2320   49.5218 H   0  0  0  0  0  0  0  0  0  0  0  0
   63.6879   34.5060   48.7004 H   0  0  0  0  0  0  0  0  0  0  0  0
   64.8010   32.9560   49.6540 C   0  0  0  0  0  0  0  0  0  0  0  0
   64.6213   33.0249   50.7370 H   0  0  0  0  0  0  0  0  0  0  0  0
   65.0162   31.9117   49.3837 H   0  0  0  0  0  0  0  0  0  0  0  0
   65.6591   33.5890   49.3837 H   0  0  0  0  0  0  0  0  0  0  0  0
   59.9060   34.5770   49.2440 C   0  0  0  0  0  0  0  0  0  0  0  0
   59.4295   35.4823   49.6482 H   0  0  0  0  0  0  0  0  0  0  0  0
   60.9414   34.7969   48.9447 H   0  0  0  0  0  0  0  0  0  0  0  0
   59.1550   34.1190   48.0650 N   0  0  0  0  0  0  0  0  0  0  0  0
   59.4780   33.1470   47.8400 H   0  0  0  0  0  0  0  0  0  0  0  0
   59.4330   34.9590   46.8900 C   0  0  0  0  0  0  0  0  0  0  0  0
   59.1884   36.0042   47.1304 H   0  0  0  0  0  0  0  0  0  0  0  0
   60.4982   34.8582   46.6346 H   0  0  0  0  0  0  0  0  0  0  0  0
   58.6000   34.5160   45.6800 C   0  0  0  0  0  0  0  0  0  0  0  0
   58.0818   35.3938   45.2665 H   0  0  0  0  0  0  0  0  0  0  0  0
   59.2855   34.0711   44.9437 H   0  0  0  0  0  0  0  0  0  0  0  0
   57.5570   33.4570   46.0500 C   0  0  0  0  0  0  0  0  0  0  0  0
   56.9890   33.7961   46.9288 H   0  0  0  0  0  0  0  0  0  0  0  0
   56.8743   33.3089   45.2003 H   0  0  0  0  0  0  0  0  0  0  0  0
   58.2240   32.1850   46.3620 N   0  0  0  0  0  0  0  0  0  0  0  0
   59.1820   32.4120   46.7220 H   0  0  0  0  0  0  0  0  0  0  0  0
   58.3920   31.3570   45.1610 C   0  0  0  0  0  0  0  0  0  0  0  0
   59.4271   31.4481   44.8000 H   0  0  0  0  0  0  0  0  0  0  0  0
   58.1711   30.3100   45.4160 H   0  0  0  0  0  0  0  0  0  0  0  0
   57.4350   31.8110   44.0630 C   0  0  0  0  0  0  0  0  0  0  0  0
   56.5306   32.2400   44.5191 H   0  0  0  0  0  0  0  0  0  0  0  0
   57.9271   32.5716   43.4391 H   0  0  0  0  0  0  0  0  0  0  0  0
   57.1572   30.9487   43.4391 H   0  0  0  0  0  0  0  0  0  0  0  0
  1  2  1  0
  2  3  2  0
  3  4  1  0
  3  5  1  0
  5  6  1  0
  5  7  1  0
  5  8  1  0
  8  9  1  0
  8 10  1  0
 10 11  1  0
 10 12  1  0
 10 13  1  0
 13 14  1  0
 13 15  1  0
 13 16  1  0
 16 17  1  0
 16 18  1  0
 16 19  1  0
 19 20  1  0
 19 21  1  0
 21 22  1  0
 21 23  1  0
 21 24  1  0
 24 25  1  0
 24 26  1  0
 24 27  1  0
 27 28  1  0
 27 29  1  0
 27 30  1  0
 30 31  1  0
 30 32  1  0
 30 33  1  0
  2 34  1  0
 34 35  1  0
 34 36  1  0
 34 37  1  0
 37 38  1  0
 37 39  1  0
 39 40  1  0
 39 41  1  0
 39 42  1  0
 42 43  1  0
 42 44  1  0
 42 45  1  0
 45 46  1  0
 45 47  1  0
 45 48  1  0
 48 49  1  0
 48 50  1  0
 50 51  1  0
 50 52  1  0
 50 53  1  0
 53 54  1  0
 53 55  1  0
 53 56  1  0
M  END
>  <UniqueID>  (8) 
8

>  <SMILES>  (8) 
CCCCNCCCNC/C=C\CNCCCNCC

>  <Energy>  (8) 
27.75515782815127

>  <Genealogy>  (8) 
CCCCNCCCNC/C=C\CNCCCNCC (cis-trans isomerization)
CCCCNCCCNC/C=C\CNCCCNCC (3D coordinates assigned)
CCCCNCCCNC/C=C\CNCCCNCC (optimized conformer: 27.75515782815127 kcal/mol)

>  <smiles>  (8) 
CCCCNCCCNCC=CCNCCCNCC

>  <score_type>  (8) 
oracle

>  <origin>  (8) 
adg

>  <m_score__min__energy>  (8) 
-2.71

>  <m_primary>  (8) 
energy

$$$$
8:0
     RDKit          3D

 53 55  0  0  0  0  0  0  0  0999 V2000
   62.2010   32.6720   51.5070 C   0  0  0  0  0  0  0  0  0  0  0  0
   62.9040   31.8220   50.4400 C   0  0  0  0  0  0  0  0  0  0  0  0
   63.4370   32.6360   49.3150 N   0  0  1  0  0  0  0  0  0  0  0  0
   64.9110   32.7160   49.3820 C   0  0  0  0  0  0  0  0  0  0  0  0
   63.0440   32.0570   48.0050 C   0  0  0  0  0  0  0  0  0  0  0  0
   62.0850   32.9670   47.2060 C   0  0  0  0  0  0  0  0  0  0  0  0
   61.9350   34.2180   47.8520 O   0  0  0  0  0  0  0  0  0  0  0  0
   60.8030   34.2280   48.7020 C   0  0  0  0  0  0  0  0  0  0  0  0
   59.5230   34.3970   47.8800 C   0  0  0  0  0  0  0  0  0  0  0  0
   58.6140   33.3210   48.1260 O   0  0  0  0  0  0  0  0  0  0  0  0
   58.7990   32.0560   47.5550 C   0  0  0  0  0  0  0  0  0  0  0  0
   58.4850   31.8760   46.2010 C   0  0  0  0  0  0  0  0  0  0  0  0
   57.7800   32.8690   45.4920 C   0  0  0  0  0  0  0  0  0  0  0  0
   57.4410   32.6800   44.1530 C   0  0  0  0  0  0  0  0  0  0  0  0
   57.7870   31.4970   43.5090 C   0  0  0  0  0  0  0  0  0  0  0  0
   58.4970   30.5080   44.1910 C   0  0  0  0  0  0  0  0  0  0  0  0
   58.8910   30.6910   45.5420 C   0  0  0  0  0  0  0  0  0  0  0  0
   59.6540   29.7590   46.2140 N   0  0  0  0  0  0  0  0  0  0  0  0
   60.3590   28.6990   45.4570 C   0  0  0  0  0  0  0  0  0  0  0  0
   59.7620   29.8190   47.5930 C   0  0  0  0  0  0  0  0  0  0  0  0
   60.2900   28.7340   48.3360 C   0  0  0  0  0  0  0  0  0  0  0  0
   60.4080   28.7990   49.7210 C   0  0  0  0  0  0  0  0  0  0  0  0
   61.1300   27.3170   50.6900 Br  0  0  0  0  0  0  0  0  0  0  0  0
   59.9550   29.9170   50.4080 C   0  0  0  0  0  0  0  0  0  0  0  0
   59.3850   30.9920   49.7240 C   0  0  0  0  0  0  0  0  0  0  0  0
   58.5730   32.3300   50.8470 Br  0  0  0  0  0  0  0  0  0  0  0  0
   59.3160   30.9760   48.3010 C   0  0  0  0  0  0  0  0  0  0  0  0
   62.4926   32.3194   52.5073 H   0  0  0  0  0  0  0  0  0  0  0  0
   62.4954   33.7253   51.3892 H   0  0  0  0  0  0  0  0  0  0  0  0
   61.1112   32.5805   51.3892 H   0  0  0  0  0  0  0  0  0  0  0  0
   63.7398   31.2853   50.9125 H   0  0  0  0  0  0  0  0  0  0  0  0
   62.1580   31.1291   50.0236 H   0  0  0  0  0  0  0  0  0  0  0  0
   63.0630   33.6130   49.3790 H   0  0  0  0  0  0  0  0  0  0  0  0
   65.2298   32.7333   50.4346 H   0  0  0  0  0  0  0  0  0  0  0  0
   65.3489   31.8403   48.8806 H   0  0  0  0  0  0  0  0  0  0  0  0
   65.2516   33.6339   48.8806 H   0  0  0  0  0  0  0  0  0  0  0  0
   63.9527   31.8945   47.4068 H   0  0  0  0  0  0  0  0  0  0  0  0
   62.5119   31.1158   48.2077 H   0  0  0  0  0  0  0  0  0  0  0  0
   62.4941   33.1271   46.1975 H   0  0  0  0  0  0  0  0  0  0  0  0
   61.1012   32.4789   47.1431 H   0  0  0  0  0  0  0  0  0  0  0  0
   60.7562   33.2784   49.2553 H   0  0  0  0  0  0  0  0  0  0  0  0
   60.8907   35.0697   49.4048 H   0  0  0  0  0  0  0  0  0  0  0  0
   59.0406   35.3464   48.1555 H   0  0  0  0  0  0  0  0  0  0  0  0
   59.7878   34.3968   46.8124 H   0  0  0  0  0  0  0  0  0  0  0  0
   57.4945   33.8020   45.9998 H   0  0  0  0  0  0  0  0  0  0  0  0
   56.9001   33.4663   43.6061 H   0  0  0  0  0  0  0  0  0  0  0  0
   57.5001   31.3404   42.4587 H   0  0  0  0  0  0  0  0  0  0  0  0
   58.7552   29.5723   43.6735 H   0  0  0  0  0  0  0  0  0  0  0  0
   60.8271   27.9952   46.1610 H   0  0  0  0  0  0  0  0  0  0  0  0
   59.6389   28.1599   44.8239 H   0  0  0  0  0  0  0  0  0  0  0  0
   61.1346   29.1546   44.8239 H   0  0  0  0  0  0  0  0  0  0  0  0
   60.6123   27.8241   47.8085 H   0  0  0  0  0  0  0  0  0  0  0  0
   60.0462   29.9562   51.5035 H   0  0  0  0  0  0  0  0  0  0  0  0
  1  2  1  0
  2  3  1  0
  3  4  1  0
  3  5  1  0
  5  6  1  0
  6  7  1  0
  7  8  1  0
  8  9  1  0
  9 10  1  0
 10 11  1  0
 11 12  2  0
 12 13  1  0
 13 14  2  0
 14 15  1  0
 15 16  2  0
 16 17  1  0
 17 18  2  0
 18 19  1  0
 18 20  1  0
 20 21  2  0
 21 22  1  0
 22 23  1  0
 22 24  2  0
 24 25  1  0
 25 26  1  0
 25 27  2  0
 27 11  1  0
 17 12  1  0
 27 20  1  0
  1 28  1  0
  1 29  1  0
  1 30  1  0
  2 31  1  0
  2 32  1  0
  3 33  1  1
  4 34  1  0
  4 35  1  0
  4 36  1  0
  5 37  1  0
  5 38  1  0
  6 39  1  0
  6 40  1  0
  8 41  1  0
  8 42  1  0
  9 43  1  0
  9 44  1  0
 13 45  1  0
 14 46  1  0
 15 47  1  0
 16 48  1  0
 19 49  1  0
 19 50  1  0
 19 51  1  0
 21 52  1  0
 24 53  1  0
M  CHG  2   3   1  18   1
M  END
>  <UniqueID>  (9) 
9

>  <SMILES>  (9) 
CC[N@@H+](C)CCOCCOc1c2ccccc2[n+](C)c2cc(Br)cc(Br)c12

>  <Energy>  (9) 
88.65942966290038

>  <Genealogy>  (9) 
CC[NH+](C)CCOCCOc1c2ccccc2[n+](C)c2cc(Br)cc(Br)c12 (protonated)
CC[N@@H+](C)CCOCCOc1c2ccccc2[n+](C)c2cc(Br)cc(Br)c12 (chirality)
CC[N@@H+](C)CCOCCOc1c2ccccc2[n+](C)c2cc(Br)cc(Br)c12 (3D coordinates assigned)
CC[N@@H+](C)CCOCCOc1c2ccccc2[n+](C)c2cc(Br)cc(Br)c12 (optimized conformer: 88.65942966290038 kcal/mol)

>  <smiles>  (9) 
CCN(C)CCOCCOc1c2ccccc2[n+](C)c2cc(Br)cc(Br)c12

>  <score_type>  (9) 
oracle

>  <origin>  (9) 
adg

>  <m_score__min__energy>  (9) 
-4.8700000000000001

>  <m_primary>  (9) 
energy

$$$$
9:0
     RDKit          3D

 74 77  0  0  0  0  0  0  0  0999 V2000
   55.8180   30.6530   52.0860 C   0  0  0  0  0  0  0  0  0  0  0  0
   56.9830   31.2320   51.2880 C   0  0  0  0  0  0  0  0  0  0  0  0
   58.2700   30.9640   51.9610 N   0  0  0  0  0  0  0  0  0  0  0  0
   58.3120   29.6330   52.5970 C   0  0  0  0  0  0  0  0  0  0  0  0
   58.6770   32.0500   52.8830 C   0  0  0  0  0  0  0  0  0  0  0  0
   58.4060   33.4850   52.3610 C   0  0  0  0  0  0  0  0  0  0  0  0
   59.2930   33.8630   51.1680 C   0  0  0  0  0  0  0  0  0  0  0  0
   59.2300   32.8220   50.1450 N   0  0  0  0  0  0  0  0  0  0  0  0
   60.1640   32.8070   49.0500 C   0  0  0  0  0  0  0  0  0  0  0  0
   59.7980   33.3890   47.8250 C   0  0  0  0  0  0  0  0  0  0  0  0
   58.4500   33.7020   47.5380 C   0  0  0  0  0  0  0  0  0  0  0  0
   58.0890   34.2180   46.2950 C   0  0  0  0  0  0  0  0  0  0  0  0
   59.0580   34.4260   45.3200 C   0  0  0  0  0  0  0  0  0  0  0  0
   60.3980   34.1610   45.5970 C   0  0  0  0  0  0  0  0  0  0  0  0
   60.8020   33.6820   46.8700 C   0  0  0  0  0  0  0  0  0  0  0  0
   62.1320   33.5270   47.2030 N   0  0  0  0  0  0  0  0  0  0  0  0
   63.1780   34.1800   46.3810 C   0  0  0  0  0  0  0  0  0  0  0  0
   62.4850   32.7800   48.3150 C   0  0  0  0  0  0  0  0  0  0  0  0
   63.8350   32.4400   48.5730 C   0  0  0  0  0  0  0  0  0  0  0  0
   64.1940   31.7490   49.7200 C   0  0  0  0  0  0  0  0  0  0  0  0
   63.2210   31.2670   50.5810 C   0  0  0  0  0  0  0  0  0  0  0  0
   61.8520   31.4410   50.2980 C   0  0  0  0  0  0  0  0  0  0  0  0
   60.8470   30.7130   51.0640 N   0  0  0  0  0  0  0  0  0  0  0  0
   61.2480   29.3470   51.4830 C   0  0  0  0  0  0  0  0  0  0  0  0
   60.4700   28.2580   50.7200 C   0  0  0  0  0  0  0  0  0  0  0  0
   60.7740   28.3070   49.2150 C   0  0  0  0  0  0  0  0  0  0  0  0
   60.1250   29.4710   48.5710 N   0  0  0  0  0  0  0  0  0  0  0  0
   58.6570   29.2820   48.4630 C   0  0  0  0  0  0  0  0  0  0  0  0
   58.2430   28.8100   47.0580 C   0  0  0  0  0  0  0  0  0  0  0  0
   58.6140   29.7070   46.0180 O   0  0  0  0  0  0  0  0  0  0  0  0
   59.7550   30.4950   46.3250 C   0  0  0  0  0  0  0  0  0  0  0  0
   60.7490   29.7930   47.2630 C   0  0  0  0  0  0  0  0  0  0  0  0
   61.4860   32.3350   49.2330 C   0  0  0  0  0  0  0  0  0  0  0  0
   56.0237   30.7552   53.1617 H   0  0  0  0  0  0  0  0  0  0  0  0
   54.8956   31.1975   51.8357 H   0  0  0  0  0  0  0  0  0  0  0  0
   55.6950   29.5889   51.8357 H   0  0  0  0  0  0  0  0  0  0  0  0
   56.9974   30.7734   50.2882 H   0  0  0  0  0  0  0  0  0  0  0  0
   56.8480   32.3209   51.2104 H   0  0  0  0  0  0  0  0  0  0  0  0
   58.3083   29.7490   53.6909 H   0  0  0  0  0  0  0  0  0  0  0  0
   57.4318   29.0506   52.2871 H   0  0  0  0  0  0  0  0  0  0  0  0
   59.2272   29.1073   52.2871 H   0  0  0  0  0  0  0  0  0  0  0  0
   58.1278   31.9204   53.8273 H   0  0  0  0  0  0  0  0  0  0  0  0
   59.7676   31.9644   52.9985 H   0  0  0  0  0  0  0  0  0  0  0  0
   57.3528   33.5527   52.0508 H   0  0  0  0  0  0  0  0  0  0  0  0
   58.6372   34.1832   53.1789 H   0  0  0  0  0  0  0  0  0  0  0  0
   58.9424   34.8142   50.7410 H   0  0  0  0  0  0  0  0  0  0  0  0
   60.3328   33.9673   51.5116 H   0  0  0  0  0  0  0  0  0  0  0  0
   58.3760   32.2210   50.0990 H   0  0  0  0  0  0  0  0  0  0  0  0
   57.6778   33.5366   48.3038 H   0  0  0  0  0  0  0  0  0  0  0  0
   57.0369   34.4609   46.0851 H   0  0  0  0  0  0  0  0  0  0  0  0
   58.7664   34.8006   44.3277 H   0  0  0  0  0  0  0  0  0  0  0  0
   61.1548   34.3259   44.8159 H   0  0  0  0  0  0  0  0  0  0  0  0
   63.9248   34.6462   47.0406 H   0  0  0  0  0  0  0  0  0  0  0  0
   63.6684   33.4274   45.7462 H   0  0  0  0  0  0  0  0  0  0  0  0
   62.7172   34.9511   45.7462 H   0  0  0  0  0  0  0  0  0  0  0  0
   64.6126   32.7292   47.8507 H   0  0  0  0  0  0  0  0  0  0  0  0
   65.2572   31.5824   49.9479 H   0  0  0  0  0  0  0  0  0  0  0  0
   63.5220   30.7408   51.4989 H   0  0  0  0  0  0  0  0  0  0  0  0
   60.5630   31.2890   51.8880 H   0  0  0  0  0  0  0  0  0  0  0  0
   60.0090   30.5680   50.4600 H   0  0  0  0  0  0  0  0  0  0  0  0
   62.3230   29.2173   51.2892 H   0  0  0  0  0  0  0  0  0  0  0  0
   61.0211   29.2396   52.5540 H   0  0  0  0  0  0  0  0  0  0  0  0
   60.7573   27.2711   51.1118 H   0  0  0  0  0  0  0  0  0  0  0  0
   59.3938   28.4348   50.8632 H   0  0  0  0  0  0  0  0  0  0  0  0
   61.8622   28.3793   49.0718 H   0  0  0  0  0  0  0  0  0  0  0  0
   60.3796   27.3905   48.7519 H   0  0  0  0  0  0  0  0  0  0  0  0
   58.3399   28.5288   49.1994 H   0  0  0  0  0  0  0  0  0  0  0  0
   58.1727   30.2509   48.6545 H   0  0  0  0  0  0  0  0  0  0  0  0
   58.7202   27.8380   46.8642 H   0  0  0  0  0  0  0  0  0  0  0  0
   57.1447   28.7489   47.0515 H   0  0  0  0  0  0  0  0  0  0  0  0
   60.2739   30.7374   45.3859 H   0  0  0  0  0  0  0  0  0  0  0  0
   59.3967   31.3944   46.8471 H   0  0  0  0  0  0  0  0  0  0  0  0
   61.0899   28.8603   46.7899 H   0  0  0  0  0  0  0  0  0  0  0  0
   61.5955   30.4724   47.4413 H   0  0  0  0  0  0  0  0  0  0  0  0
  1  2  1  0
  2  3  1  0
  3  4  1  0
  3  5  1  0
  5  6  1  0
  6  7  1  0
  7  8  1  0
  8  9  1  0
  9 10  2  0
 10 11  1  0
 11 12  2  0
 12 13  1  0
 13 14  2  0
 14 15  1  0
 15 16  2  0
 16 17  1  0
 16 18  1  0
 18 19  2  0
 19 20  1  0
 20 21  2  0
 21 22  1  0
 22 23  1  0
 23 24  1  0
 24 25  1  0
 25 26  1  0
 26 27  1  0
 27 28  1  0
 28 29  1  0
 29 30  1  0
 30 31  1  0
 31 32  1  0
 22 33  2  0
 33  9  1  0
 15 10  1  0
 33 18  1  0
 32 27  1  0
  1 34  1  0
  1 35  1  0
  1 36  1  0
  2 37  1  0
  2 38  1  0
  4 39  1  0
  4 40  1  0
  4 41  1  0
  5 42  1  0
  5 43  1  0
  6 44  1  0
  6 45  1  0
  7 46  1  0
  7 47  1  0
  8 48  1  0
 11 49  1  0
 12 50  1  0
 13 51  1  0
 14 52  1  0
 17 53  1  0
 17 54  1  0
 17 55  1  0
 19 56  1  0
 20 57  1  0
 21 58  1  0
 23 59  1  0
 23 60  1  0
 24 61  1  0
 24 62  1  0
 25 63  1  0
 25 64  1  0
 26 65  1  0
 26 66  1  0
 28 67  1  0
 28 68  1  0
 29 69  1  0
 29 70  1  0
 31 71  1  0
 31 72  1  0
 32 73  1  0
 32 74  1  0
M  CHG  2  16   1  23   1
M  END
>  <UniqueID>  (10) 
10

>  <SMILES>  (10) 
CCN(C)CCCNc1c2ccccc2[n+](C)c2cccc([NH2+]CCCN3CCOCC3)c12

>  <Energy>  (10) 
132.26304913035062

>  <Genealogy>  (10) 
CCN(C)CCCNc1c2ccccc2[n+](C)c2cccc([NH2+]CCCN3CCOCC3)c12 (protonated)
CCN(C)CCCNc1c2ccccc2[n+](C)c2cccc([NH2+]CCCN3CCOCC3)c12 (3D coordinates assigned)
CCN(C)CCCNc1c2ccccc2[n+](C)c2cccc([NH2+]CCCN3CCOCC3)c12 (nonaromatic ring conformer: 132.26304913035062 kcal/mol)

>  <smiles>  (10) 
CCN(C)CCCNc1c2ccccc2[n+](C)c2cccc(NCCCN3CCOCC3)c12

>  <score_type>  (10) 
oracle

>  <origin>  (10) 
adg

>  <m_score__min__energy>  (10) 
-4.6299999999999999

>  <m_primary>  (10) 
energy

$$$$
10:0
     RDKit          3D

 70 69  0  0  0  0  0  0  0  0999 V2000
   60.6600   28.8550   49.3670 C   0  0  0  0  0  0  0  0  0  0  0  0
   59.4660   29.7170   48.9760 C   0  0  0  0  0  0  0  0  0  0  0  0
   59.6920   31.1080   49.3870 N   0  0  0  0  0  0  0  0  0  0  0  0
   58.4790   31.6540   50.0040 C   0  0  0  0  0  0  0  0  0  0  0  0
   58.8470   32.5930   51.1580 C   0  0  0  0  0  0  0  0  0  0  0  0
   59.7000   33.7720   50.6590 C   0  0  0  0  0  0  0  0  0  0  0  0
   60.7960   33.3320   49.7730 N   0  0  0  0  0  0  0  0  0  0  0  0
   61.8840   34.3190   49.6650 C   0  0  0  0  0  0  0  0  0  0  0  0
   63.1000   33.9360   50.5230 C   0  0  0  0  0  0  0  0  0  0  0  0
   63.7330   32.6220   50.0470 C   0  0  0  0  0  0  0  0  0  0  0  0
   63.6600   32.4480   48.5200 C   0  0  0  0  0  0  0  0  0  0  0  0
   62.5870   31.4510   48.0600 C   0  0  0  0  0  0  0  0  0  0  0  0
   61.5670   32.1290   47.2470 N   0  0  0  0  0  0  0  0  0  0  0  0
   62.0960   33.3790   46.6860 C   0  0  0  0  0  0  0  0  0  0  0  0
   60.9770   34.1920   46.0230 C   0  0  0  0  0  0  0  0  0  0  0  0
   59.7970   34.4160   46.9780 C   0  0  0  0  0  0  0  0  0  0  0  0
   59.0950   33.1500   47.2280 N   0  0  0  0  0  0  0  0  0  0  0  0
   57.6410   33.3430   47.1430 C   0  0  0  0  0  0  0  0  0  0  0  0
   57.1260   33.2080   45.7010 C   0  0  0  0  0  0  0  0  0  0  0  0
   57.8530   32.1290   44.8760 C   0  0  0  0  0  0  0  0  0  0  0  0
   58.1910   30.8770   45.7050 C   0  0  0  0  0  0  0  0  0  0  0  0
   59.5910   30.9090   46.1630 N   0  0  0  0  0  0  0  0  0  0  0  0
   60.3400   29.7040   45.7620 C   0  0  0  0  0  0  0  0  0  0  0  0
   59.5140   28.7590   44.8850 C   0  0  0  0  0  0  0  0  0  0  0  0
   60.7316   28.8033   50.4635 H   0  0  0  0  0  0  0  0  0  0  0  0
   60.5295   27.8415   48.9599 H   0  0  0  0  0  0  0  0  0  0  0  0
   61.5809   29.2979   48.9599 H   0  0  0  0  0  0  0  0  0  0  0  0
   59.3304   29.6774   47.8851 H   0  0  0  0  0  0  0  0  0  0  0  0
   58.5657   29.3346   49.4792 H   0  0  0  0  0  0  0  0  0  0  0  0
   59.8900   31.6660   48.5210 H   0  0  0  0  0  0  0  0  0  0  0  0
   57.9078   32.2136   49.2487 H   0  0  0  0  0  0  0  0  0  0  0  0
   57.8722   30.8247   50.3965 H   0  0  0  0  0  0  0  0  0  0  0  0
   57.9244   32.9834   51.6122 H   0  0  0  0  0  0  0  0  0  0  0  0
   59.4311   32.0264   51.8981 H   0  0  0  0  0  0  0  0  0  0  0  0
   59.0531   34.4672   50.1038 H   0  0  0  0  0  0  0  0  0  0  0  0
   60.1502   34.2584   51.5369 H   0  0  0  0  0  0  0  0  0  0  0  0
   60.4460   33.0820   48.8170 H   0  0  0  0  0  0  0  0  0  0  0  0
   62.1991   34.3858   48.6132 H   0  0  0  0  0  0  0  0  0  0  0  0
   61.5028   35.2842   50.0298 H   0  0  0  0  0  0  0  0  0  0  0  0
   63.8500   34.7381   50.4582 H   0  0  0  0  0  0  0  0  0  0  0  0
   62.7609   33.7996   51.5605 H   0  0  0  0  0  0  0  0  0  0  0  0
   64.7896   32.6091   50.3528 H   0  0  0  0  0  0  0  0  0  0  0  0
   63.1679   31.7959   50.5034 H   0  0  0  0  0  0  0  0  0  0  0  0
   63.4394   33.4270   48.0696 H   0  0  0  0  0  0  0  0  0  0  0  0
   64.6311   32.0448   48.1970 H   0  0  0  0  0  0  0  0  0  0  0  0
   63.0612   30.6605   47.4599 H   0  0  0  0  0  0  0  0  0  0  0  0
   62.1029   31.0160   48.9468 H   0  0  0  0  0  0  0  0  0  0  0  0
   60.7600   32.3530   47.8760 H   0  0  0  0  0  0  0  0  0  0  0  0
   62.5458   33.9753   47.4935 H   0  0  0  0  0  0  0  0  0  0  0  0
   62.8525   33.1334   45.9262 H   0  0  0  0  0  0  0  0  0  0  0  0
   61.3791   35.1693   45.7176 H   0  0  0  0  0  0  0  0  0  0  0  0
   60.6117   33.6271   45.1527 H   0  0  0  0  0  0  0  0  0  0  0  0
   60.1727   34.8168   47.9310 H   0  0  0  0  0  0  0  0  0  0  0  0
   59.0961   35.1288   46.5191 H   0  0  0  0  0  0  0  0  0  0  0  0
   59.3310   32.8570   48.2070 H   0  0  0  0  0  0  0  0  0  0  0  0
   57.1451   32.5870   47.7695 H   0  0  0  0  0  0  0  0  0  0  0  0
   57.4122   34.3608   47.4918 H   0  0  0  0  0  0  0  0  0  0  0  0
   56.0565   32.9535   45.7378 H   0  0  0  0  0  0  0  0  0  0  0  0
   57.3147   34.1708   45.2035 H   0  0  0  0  0  0  0  0  0  0  0  0
   57.2065   31.8320   44.0371 H   0  0  0  0  0  0  0  0  0  0  0  0
   58.8013   32.5615   44.5244 H   0  0  0  0  0  0  0  0  0  0  0  0
   57.5269   30.8355   46.5809 H   0  0  0  0  0  0  0  0  0  0  0  0
   58.0497   29.9888   45.0717 H   0  0  0  0  0  0  0  0  0  0  0  0
   60.0730   31.7350   45.7360 H   0  0  0  0  0  0  0  0  0  0  0  0
   59.6200   31.0180   47.2040 H   0  0  0  0  0  0  0  0  0  0  0  0
   61.2327   30.0155   45.1999 H   0  0  0  0  0  0  0  0  0  0  0  0
   60.6065   29.1581   46.6791 H   0  0  0  0  0  0  0  0  0  0  0  0
   58.9253   28.0855   45.5251 H   0  0  0  0  0  0  0  0  0  0  0  0
   58.8354   29.3474   44.2499 H   0  0  0  0  0  0  0  0  0  0  0  0
   60.1879   28.1652   44.2499 H   0  0  0  0  0  0  0  0  0  0  0  0
  1  2  1  0
  2  3  1  0
  3  4  1  0
  4  5  1  0
  5  6  1  0
  6  7  1  0
  7  8  1  0
  8  9  1  0
  9 10  1  0
 10 11  1  0
 11 12  1  0
 12 13  1  0
 13 14  1  0
 14 15  1  0
 15 16  1  0
 16 17  1  0
 17 18  1  0
 18 19  1  0
 19 20  1  0
 20 21  1  0
 21 22  1  0
 22 23  1  0
 23 24  1  0
  1 25  1  0
  1 26  1  0
  1 27  1  0
  2 28  1  0
  2 29  1  0
  3 30  1  0
  4 31  1  0
  4 32  1  0
  5 33  1  0
  5 34  1  0
  6 35  1  0
  6 36  1  0
  7 37  1  0
  8 38  1  0
  8 39  1  0
  9 40  1  0
  9 41  1  0
 10 42  1  0
 10 43  1  0
 11 44  1  0
 11 45  1  0
 12 46  1  0
 12 47  1  0
 13 48  1  0
 14 49  1  0
 14 50  1  0
 15 51  1  0
 15 52  1  0
 16 53  1  0
 16 54  1  0
 17 55  1  0
 18 56  1  0
 18 57  1  0
 19 58  1  0
 19 59  1  0
 20 60  1  0
 20 61  1  0
 21 62  1  0
 21 63  1  0
 22 64  1  0
 22 65  1  0
 23 66  1  0
 23 67  1  0
 24 68  1  0
 24 69  1  0
 24 70  1  0
M  CHG  1  22   1
M  END
>  <UniqueID>  (11) 
11

>  <SMILES>  (11) 
CCNCCCNCCCCCNCCCNCCCC[NH2+]CC

>  <Energy>  (11) 
35.97912755638629

>  <Genealogy>  (11) 
CCNCCCNCCCCCNCCCNCCCC[NH2+]CC (protonated)
CCNCCCNCCCCCNCCCNCCCC[NH2+]CC (3D coordinates assigned)
CCNCCCNCCCCCNCCCNCCCC[NH2+]CC (optimized conformer: 35.97912755638629 kcal/mol)

>  <smiles>  (11) 
CCNCCCCNCCCNCCCCCNCCCNCC

>  <score_type>  (11) 
oracle

>  <origin>  (11) 
adg

>  <m_score__min__energy>  (11) 
-1.2

>  <m_primary>  (11) 
energy

$$$$
11:0
     RDKit          3D

 55 58  0  0  0  0  0  0  0  0999 V2000
   60.7830   28.9990   49.6660 C   0  0  0  0  0  0  0  0  0  0  0  0
   59.2740   29.1880   49.6430 C   0  0  0  0  0  0  0  0  0  0  0  0
   58.8200   29.4690   50.9530 O   0  0  0  0  0  0  0  0  0  0  0  0
   57.8220   30.4140   50.9120 N   0  0  0  0  0  0  0  0  0  0  0  0
   57.2880   30.6140   52.2630 C   0  0  0  0  0  0  0  0  0  0  0  0
   57.4120   32.0890   52.6710 C   0  0  0  0  0  0  0  0  0  0  0  0
   58.7210   32.3900   53.4160 C   0  0  0  0  0  0  0  0  0  0  0  0
   59.8800   32.7410   52.4630 C   0  0  0  0  0  0  0  0  0  0  0  0
   59.9640   31.8090   51.3240 N   0  0  0  0  0  0  0  0  0  0  0  0
   60.7420   32.3630   50.2290 C   0  0  0  0  0  0  0  0  0  0  0  0
   60.1270   32.7410   49.0230 C   0  0  0  0  0  0  0  0  0  0  0  0
   60.8680   33.2450   47.9620 C   0  0  0  0  0  0  0  0  0  0  0  0
   62.2370   33.2800   47.9890 N   0  0  0  0  0  0  0  0  0  0  0  0
   62.9930   33.4780   46.7410 C   0  0  0  0  0  0  0  0  0  0  0  0
   62.8820   33.0510   49.1920 C   0  0  0  0  0  0  0  0  0  0  0  0
   64.2680   33.3070   49.3410 C   0  0  0  0  0  0  0  0  0  0  0  0
   64.9250   33.0340   50.5380 C   0  0  0  0  0  0  0  0  0  0  0  0
   64.2260   32.5120   51.6170 C   0  0  0  0  0  0  0  0  0  0  0  0
   62.8570   32.2800   51.5220 C   0  0  0  0  0  0  0  0  0  0  0  0
   62.1520   32.5580   50.3270 C   0  0  0  0  0  0  0  0  0  0  0  0
   59.9330   33.6200   46.8700 C   0  0  0  0  0  0  0  0  0  0  0  0
   60.1240   34.3580   45.6910 C   0  0  0  0  0  0  0  0  0  0  0  0
   59.0110   34.6300   44.8770 C   0  0  0  0  0  0  0  0  0  0  0  0
   57.7250   34.2100   45.2630 C   0  0  0  0  0  0  0  0  0  0  0  0
   57.5360   33.5370   46.4790 C   0  0  0  0  0  0  0  0  0  0  0  0
   58.6560   33.2650   47.2640 C   0  0  0  0  0  0  0  0  0  0  0  0
   58.7170   32.7080   48.6030 C   0  0  0  0  0  0  0  0  0  0  0  0
   57.7270   32.2970   49.2630 O   0  0  0  0  0  0  0  0  0  0  0  0
   61.1312   28.9554   50.7085 H   0  0  0  0  0  0  0  0  0  0  0  0
   61.0429   28.0613   49.1531 H   0  0  0  0  0  0  0  0  0  0  0  0
   61.2662   29.8436   49.1531 H   0  0  0  0  0  0  0  0  0  0  0  0
   59.0183   30.0257   48.9775 H   0  0  0  0  0  0  0  0  0  0  0  0
   58.7924   28.2704   49.2740 H   0  0  0  0  0  0  0  0  0  0  0  0
   57.0420   30.1820   50.2460 H   0  0  0  0  0  0  0  0  0  0  0  0
   56.2282   30.3200   52.2817 H   0  0  0  0  0  0  0  0  0  0  0  0
   57.8622   29.9973   52.9701 H   0  0  0  0  0  0  0  0  0  0  0  0
   57.3728   32.7096   51.7636 H   0  0  0  0  0  0  0  0  0  0  0  0
   56.5808   32.3155   53.3550 H   0  0  0  0  0  0  0  0  0  0  0  0
   58.5529   33.2400   54.0937 H   0  0  0  0  0  0  0  0  0  0  0  0
   59.0067   31.4815   53.9664 H   0  0  0  0  0  0  0  0  0  0  0  0
   59.7257   33.7595   52.0771 H   0  0  0  0  0  0  0  0  0  0  0  0
   60.8192   32.6670   53.0308 H   0  0  0  0  0  0  0  0  0  0  0  0
   60.3450   30.8940   51.6450 H   0  0  0  0  0  0  0  0  0  0  0  0
   59.0020   31.5750   50.9900 H   0  0  0  0  0  0  0  0  0  0  0  0
   64.0315   33.7500   46.9807 H   0  0  0  0  0  0  0  0  0  0  0  0
   62.9837   32.5471   46.1550 H   0  0  0  0  0  0  0  0  0  0  0  0
   62.5285   34.2848   46.1550 H   0  0  0  0  0  0  0  0  0  0  0  0
   64.8340   33.7283   48.4971 H   0  0  0  0  0  0  0  0  0  0  0  0
   66.0030   33.2331   50.6286 H   0  0  0  0  0  0  0  0  0  0  0  0
   64.7566   32.2804   52.5523 H   0  0  0  0  0  0  0  0  0  0  0  0
   62.3149   31.8744   52.3889 H   0  0  0  0  0  0  0  0  0  0  0  0
   61.1253   34.7164   45.4098 H   0  0  0  0  0  0  0  0  0  0  0  0
   59.1464   35.1752   43.9313 H   0  0  0  0  0  0  0  0  0  0  0  0
   56.8640   34.4103   44.6083 H   0  0  0  0  0  0  0  0  0  0  0  0
   56.5307   33.2318   46.8049 H   0  0  0  0  0  0  0  0  0  0  0  0
  1  2  1  0
  2  3  1  0
  3  4  1  0
  4  5  1  0
  5  6  1  0
  6  7  1  0
  7  8  1  0
  8  9  1  0
  9 10  1  0
 10 11  2  0
 11 12  1  0
 12 13  2  0
 13 14  1  0
 13 15  1  0
 15 16  2  0
 16 17  1  0
 17 18  2  0
 18 19  1  0
 19 20  2  0
 12 21  1  0
 21 22  2  0
 22 23  1  0
 23 24  2  0
 24 25  1  0
 25 26  2  0
 26 27  1  0
 27 28  2  0
 20 10  1  0
 26 21  1  0
 27 11  1  0
 20 15  1  0
  1 29  1  0
  1 30  1  0
  1 31  1  0
  2 32  1  0
  2 33  1  0
  4 34  1  0
  5 35  1  0
  5 36  1  0
  6 37  1  0
  6 38  1  0
  7 39  1  0
  7 40  1  0
  8 41  1  0
  8 42  1  0
  9 43  1  0
  9 44  1  0
 14 45  1  0
 14 46  1  0
 14 47  1  0
 16 48  1  0
 17 49  1  0
 18 50  1  0
 19 51  1  0
 22 52  1  0
 23 53  1  0
 24 54  1  0
 25 55  1  0
M  CHG  2   9   1  13   1
M  END
>  <UniqueID>  (12) 
12

>  <SMILES>  (12) 
CCONCCCC[NH2+]c1c2c([n+](C)c3ccccc13)-c1ccccc1C2=O

>  <Energy>  (12) 
109.84634775899292

>  <Genealogy>  (12) 
CCONCCCC[NH2+]c1c2c([n+](C)c3ccccc13)-c1ccccc1C2=O (protonated)
CCONCCCC[NH2+]c1c2c([n+](C)c3ccccc13)-c1ccccc1C2=O (3D coordinates assigned)
CCONCCCC[NH2+]c1c2c([n+](C)c3ccccc13)-c1ccccc1C2=O (nonaromatic ring conformer: 109.84634775899292 kcal/mol)

>  <smiles>  (12) 
CCONCCCCNc1c2c([n+](C)c3ccccc13)-c1ccccc1C2=O

>  <score_type>  (12) 
oracle

>  <origin>  (12) 
adg

>  <m_score__min__energy>  (12) 
-4.2699999999999996

>  <m_primary>  (12) 
energy

$$$$
12:0
     RDKit          3D

 52 54  0  0  0  0  0  0  0  0999 V2000
   58.0000   32.2280   43.1300 C   0  0  0  0  0  0  0  0  0  0  0  0
   58.3790   31.9170   44.5280 N   0  0  0  0  0  0  0  0  0  0  0  0
   58.7530   32.9370   45.3830 C   0  0  0  0  0  0  0  0  0  0  0  0
   59.0750   34.2340   44.8970 C   0  0  0  0  0  0  0  0  0  0  0  0
   59.4590   35.2510   45.7710 C   0  0  0  0  0  0  0  0  0  0  0  0
   59.5500   35.0040   47.1370 C   0  0  0  0  0  0  0  0  0  0  0  0
   59.2440   33.7420   47.6420 C   0  0  0  0  0  0  0  0  0  0  0  0
   58.8350   32.7000   46.7810 C   0  0  0  0  0  0  0  0  0  0  0  0
   58.5400   31.4200   47.2900 C   0  0  0  0  0  0  0  0  0  0  0  0
   58.5260   31.1780   48.7100 N   0  0  0  0  0  0  0  0  0  0  0  0
   59.6460   30.5360   49.3970 C   0  0  0  0  0  0  0  0  0  0  0  0
   59.1990   29.8810   50.7090 C   0  0  0  0  0  0  0  0  0  0  0  0
   57.7580   30.0740   50.9200 N   0  0  0  0  0  0  0  0  0  0  0  0
   57.5050   31.2980   51.6890 C   0  0  0  0  0  0  0  0  0  0  0  0
   56.3150   31.1030   52.6500 C   0  0  0  0  0  0  0  0  0  0  0  0
   55.2980   30.1460   52.1290 N   0  0  0  0  0  0  0  0  0  0  0  0
   54.0450   30.8580   51.8130 C   0  0  0  0  0  0  0  0  0  0  0  0
   55.0090   29.0700   53.0990 C   0  0  0  0  0  0  0  0  0  0  0  0
   58.3320   30.3570   46.3880 C   0  0  0  0  0  0  0  0  0  0  0  0
   58.1410   29.0380   46.8520 C   0  0  0  0  0  0  0  0  0  0  0  0
   58.0090   27.9790   45.9610 C   0  0  0  0  0  0  0  0  0  0  0  0
   57.7560   26.1980   46.6160 Br  0  0  0  0  0  0  0  0  0  0  0  0
   58.0850   28.2130   44.5880 C   0  0  0  0  0  0  0  0  0  0  0  0
   58.2360   29.5130   44.1040 C   0  0  0  0  0  0  0  0  0  0  0  0
   58.3130   30.6170   44.9920 C   0  0  0  0  0  0  0  0  0  0  0  0
   57.1496   32.9258   43.1272 H   0  0  0  0  0  0  0  0  0  0  0  0
   58.8542   32.6889   42.6124 H   0  0  0  0  0  0  0  0  0  0  0  0
   57.7147   31.3003   42.6124 H   0  0  0  0  0  0  0  0  0  0  0  0
   59.0205   34.4380   43.8175 H   0  0  0  0  0  0  0  0  0  0  0  0
   59.6908   36.2522   45.3786 H   0  0  0  0  0  0  0  0  0  0  0  0
   59.8643   35.8069   47.8200 H   0  0  0  0  0  0  0  0  0  0  0  0
   59.3218   33.5552   48.7232 H   0  0  0  0  0  0  0  0  0  0  0  0
   57.7820   31.6310   49.2880 H   0  0  0  0  0  0  0  0  0  0  0  0
   60.0736   29.7645   48.7398 H   0  0  0  0  0  0  0  0  0  0  0  0
   60.3938   31.3072   49.6334 H   0  0  0  0  0  0  0  0  0  0  0  0
   59.4170   28.8036   50.6675 H   0  0  0  0  0  0  0  0  0  0  0  0
   59.7446   30.3484   51.5420 H   0  0  0  0  0  0  0  0  0  0  0  0
   57.3900   29.2700   51.4810 H   0  0  0  0  0  0  0  0  0  0  0  0
   58.4028   31.5495   52.2727 H   0  0  0  0  0  0  0  0  0  0  0  0
   57.2640   32.1115   50.9889 H   0  0  0  0  0  0  0  0  0  0  0  0
   56.6970   30.7216   53.6084 H   0  0  0  0  0  0  0  0  0  0  0  0
   55.8208   32.0790   52.7649 H   0  0  0  0  0  0  0  0  0  0  0  0
   55.6400   29.7070   51.2390 H   0  0  0  0  0  0  0  0  0  0  0  0
   53.5405   31.1447   52.7475 H   0  0  0  0  0  0  0  0  0  0  0  0
   54.2739   31.7610   51.2280 H   0  0  0  0  0  0  0  0  0  0  0  0
   53.3864   30.1992   51.2280 H   0  0  0  0  0  0  0  0  0  0  0  0
   55.1139   29.4606   54.1219 H   0  0  0  0  0  0  0  0  0  0  0  0
   53.9815   28.7071   52.9487 H   0  0  0  0  0  0  0  0  0  0  0  0
   55.7163   28.2411   52.9487 H   0  0  0  0  0  0  0  0  0  0  0  0
   58.0959   28.8451   47.9340 H   0  0  0  0  0  0  0  0  0  0  0  0
   58.0257   27.3697   43.8842 H   0  0  0  0  0  0  0  0  0  0  0  0
   58.2962   29.6843   43.0191 H   0  0  0  0  0  0  0  0  0  0  0  0
  1  2  1  0
  2  3  2  0
  3  4  1  0
  4  5  2  0
  5  6  1  0
  6  7  2  0
  7  8  1  0
  8  9  2  0
  9 10  1  0
 10 11  1  0
 11 12  1  0
 12 13  1  0
 13 14  1  0
 14 15  1  0
 15 16  1  0
 16 17  1  0
 16 18  1  0
  9 19  1  0
 19 20  2  0
 20 21  1  0
 21 22  1  0
 21 23  2  0
 23 24  1  0
 24 25  2  0
 25  2  1  0
  8  3  1  0
 25 19  1  0
  1 26  1  0
  1 27  1  0
  1 28  1  0
  4 29  1  0
  5 30  1  0
  6 31  1  0
  7 32  1  0
 10 33  1  0
 11 34  1  0
 11 35  1  0
 12 36  1  0
 12 37  1  0
 13 38  1  0
 14 39  1  0
 14 40  1  0
 15 41  1  0
 15 42  1  0
 16 43  1  0
 17 44  1  0
 17 45  1  0
 17 46  1  0
 18 47  1  0
 18 48  1  0
 18 49  1  0
 20 50  1  0
 23 51  1  0
 24 52  1  0
M  CHG  2   2   1  16   1
M  END
>  <UniqueID>  (13) 
13

>  <SMILES>  (13) 
C[n+]1c2ccccc2c(NCCNCC[NH+](C)C)c2cc(Br)ccc21

>  <Energy>  (13) 
77.0556644047289

>  <Genealogy>  (13) 
C[n+]1c2ccccc2c(NCCNCC[NH+](C)C)c2cc(Br)ccc21 (protonated)
C[n+]1c2ccccc2c(NCCNCC[NH+](C)C)c2cc(Br)ccc21 (3D coordinates assigned)
C[n+]1c2ccccc2c(NCCNCC[NH+](C)C)c2cc(Br)ccc21 (optimized conformer: 77.0556644047289 kcal/mol)

>  <smiles>  (13) 
CN(C)CCNCCNc1c2ccccc2[n+](C)c2ccc(Br)cc12

>  <score_type>  (13) 
oracle

>  <origin>  (13) 
adg

>  <m_score__min__energy>  (13) 
-4.6399999999999997

>  <m_primary>  (13) 
energy

$$$$
13:0
     RDKit          3D

 37 38  0  0  0  0  0  0  0  0999 V2000
   55.7020   29.8140   43.7920 C   0  0  0  0  0  0  0  0  0  0  0  0
   57.1430   30.2730   43.9880 C   0  0  0  0  0  0  0  0  0  0  0  0
   57.2950   30.9410   45.2410 O   0  0  0  0  0  0  0  0  0  0  0  0
   57.9070   32.1910   45.4400 C   0  0  0  0  0  0  0  0  0  0  0  0
   57.4270   33.3640   44.8190 C   0  0  0  0  0  0  0  0  0  0  0  0
   58.0520   34.5910   45.0440 C   0  0  0  0  0  0  0  0  0  0  0  0
   59.1590   34.6710   45.8860 C   0  0  0  0  0  0  0  0  0  0  0  0
   59.6530   33.5200   46.5000 C   0  0  0  0  0  0  0  0  0  0  0  0
   59.0430   32.2740   46.2770 C   0  0  0  0  0  0  0  0  0  0  0  0
   59.6430   31.0460   46.9230 C   0  0  0  0  0  0  0  0  0  0  0  0
   58.5840   30.2160   47.5240 N   0  0  0  0  0  0  0  0  0  0  0  0
   58.9810   28.8070   47.6680 C   0  0  0  0  0  0  0  0  0  0  0  0
   58.5650   27.9980   46.4710 C   0  0  0  0  0  0  0  0  0  0  0  0
   57.1810   27.0440   46.3970 S   0  0  0  0  0  0  0  0  0  0  0  0
   57.3960   26.5130   44.8190 C   0  0  0  0  0  0  0  0  0  0  0  0
   58.5530   27.0940   44.3170 C   0  0  0  0  0  0  0  0  0  0  0  0
   59.2100   27.9300   45.2340 C   0  0  0  0  0  0  0  0  0  0  0  0
   60.4460   28.7010   44.8850 C   0  0  0  0  0  0  0  0  0  0  0  0
   55.2285   29.6632   44.7734 H   0  0  0  0  0  0  0  0  0  0  0  0
   55.1464   30.5796   43.2306 H   0  0  0  0  0  0  0  0  0  0  0  0
   55.6916   28.8681   43.2306 H   0  0  0  0  0  0  0  0  0  0  0  0
   57.8074   29.3967   43.9633 H   0  0  0  0  0  0  0  0  0  0  0  0
   57.4036   30.9731   43.1806 H   0  0  0  0  0  0  0  0  0  0  0  0
   56.5535   33.3105   44.1526 H   0  0  0  0  0  0  0  0  0  0  0  0
   57.6692   35.4987   44.5546 H   0  0  0  0  0  0  0  0  0  0  0  0
   59.6435   35.6419   46.0667 H   0  0  0  0  0  0  0  0  0  0  0  0
   60.5272   33.5883   47.1642 H   0  0  0  0  0  0  0  0  0  0  0  0
   60.1760   30.4586   46.1608 H   0  0  0  0  0  0  0  0  0  0  0  0
   60.3417   31.3615   47.7118 H   0  0  0  0  0  0  0  0  0  0  0  0
   57.7610   30.2360   46.8770 H   0  0  0  0  0  0  0  0  0  0  0  0
   60.0743   28.7518   47.7756 H   0  0  0  0  0  0  0  0  0  0  0  0
   58.4816   28.3943   48.5570 H   0  0  0  0  0  0  0  0  0  0  0  0
   56.7337   25.8229   44.2757 H   0  0  0  0  0  0  0  0  0  0  0  0
   58.9207   26.9158   43.2957 H   0  0  0  0  0  0  0  0  0  0  0  0
   60.9535   29.0176   45.8081 H   0  0  0  0  0  0  0  0  0  0  0  0
   61.1214   28.0637   44.2953 H   0  0  0  0  0  0  0  0  0  0  0  0
   60.1707   29.5878   44.2953 H   0  0  0  0  0  0  0  0  0  0  0  0
  1  2  1  0
  2  3  1  0
  3  4  1  0
  4  5  2  0
  5  6  1  0
  6  7  2  0
  7  8  1  0
  8  9  2  0
  9 10  1  0
 10 11  1  0
 11 12  1  0
 12 13  1  0
 13 14  1  0
 14 15  1  0
 15 16  2  0
 16 17  1  0
 17 18  1  0
  9  4  1  0
 17 13  2  0
  1 19  1  0
  1 20  1  0
  1 21  1  0
  2 22  1  0
  2 23  1  0
  5 24  1  0
  6 25  1  0
  7 26  1  0
  8 27  1  0
 10 28  1  0
 10 29  1  0
 11 30  1  0
 12 31  1  0
 12 32  1  0
 15 33  1  0
 16 34  1  0
 18 35  1  0
 18 36  1  0
 18 37  1  0
M  END
>  <UniqueID>  (14) 
14

>  <SMILES>  (14) 
CCOc1ccccc1CNCc1sccc1C

>  <Energy>  (14) 
56.457844585808125

>  <Genealogy>  (14) 
CCOc1ccccc1CNCc1sccc1C (3D coordinates assigned)
CCOc1ccccc1CNCc1sccc1C (optimized conformer: 56.457844585808125 kcal/mol)

>  <smiles>  (14) 
CCOc1ccccc1CNCc1sccc1C

>  <score_type>  (14) 
oracle

>  <origin>  (14) 
adg

>  <m_score__min__energy>  (14) 
-6.6699999999999999

>  <m_primary>  (14) 
energy

$$$$
14:0
     RDKit          3D

 55 57  0  0  0  0  0  0  0  0999 V2000
   59.5600   35.0210   46.3880 C   0  0  0  0  0  0  0  0  0  0  0  0
   58.5940   34.5920   45.2900 C   0  0  0  0  0  0  0  0  0  0  0  0
   58.3430   33.1460   45.3540 N   0  0  0  0  0  0  0  0  0  0  0  0
   58.0450   32.5610   44.0350 C   0  0  0  0  0  0  0  0  0  0  0  0
   57.4530   31.1650   44.2060 C   0  0  0  0  0  0  0  0  0  0  0  0
   57.3090   30.8770   45.5850 O   0  0  0  0  0  0  0  0  0  0  0  0
   58.1140   29.7800   45.9680 C   0  0  0  0  0  0  0  0  0  0  0  0
   58.9800   30.0790   47.2000 C   0  0  0  0  0  0  0  0  0  0  0  0
   58.8840   31.4810   47.6040 N   0  0  0  0  0  0  0  0  0  0  0  0
   59.6760   32.0910   48.6440 C   0  0  0  0  0  0  0  0  0  0  0  0
   61.0290   32.4190   48.4100 C   0  0  0  0  0  0  0  0  0  0  0  0
   61.8360   32.8920   49.4760 C   0  0  0  0  0  0  0  0  0  0  0  0
   61.2990   33.0710   50.7370 N   0  0  0  0  0  0  0  0  0  0  0  0
   62.1290   33.5820   51.8400 C   0  0  0  0  0  0  0  0  0  0  0  0
   59.9790   32.7570   50.9450 C   0  0  0  0  0  0  0  0  0  0  0  0
   59.1730   32.2850   49.9380 C   0  0  0  0  0  0  0  0  0  0  0  0
   57.8010   31.9840   50.4300 C   0  0  0  0  0  0  0  0  0  0  0  0
   57.8940   32.1580   51.9520 C   0  0  0  0  0  0  0  0  0  0  0  0
   59.2480   32.8180   52.2440 C   0  0  0  0  0  0  0  0  0  0  0  0
   63.3160   33.0750   49.1810 C   0  0  0  0  0  0  0  0  0  0  0  0
   63.5460   33.8410   47.8660 C   0  0  0  0  0  0  0  0  0  0  0  0
   62.5510   33.4860   46.7360 C   0  0  0  0  0  0  0  0  0  0  0  0
   61.6660   32.2710   47.0450 C   0  0  0  0  0  0  0  0  0  0  0  0
   59.1096   34.8210   47.3714 H   0  0  0  0  0  0  0  0  0  0  0  0
   60.4984   34.4550   46.2925 H   0  0  0  0  0  0  0  0  0  0  0  0
   59.7693   36.0967   46.2925 H   0  0  0  0  0  0  0  0  0  0  0  0
   57.6425   35.1294   45.4161 H   0  0  0  0  0  0  0  0  0  0  0  0
   59.0408   34.8302   44.3135 H   0  0  0  0  0  0  0  0  0  0  0  0
   57.5120   32.9960   45.9730 H   0  0  0  0  0  0  0  0  0  0  0  0
   57.3226   33.2011   43.5072 H   0  0  0  0  0  0  0  0  0  0  0  0
   58.9754   32.4902   43.4524 H   0  0  0  0  0  0  0  0  0  0  0  0
   56.4680   31.1225   43.7181 H   0  0  0  0  0  0  0  0  0  0  0  0
   58.1235   30.4244   43.7457 H   0  0  0  0  0  0  0  0  0  0  0  0
   57.4590   28.9266   46.1976 H   0  0  0  0  0  0  0  0  0  0  0  0
   58.7932   29.5596   45.1313 H   0  0  0  0  0  0  0  0  0  0  0  0
   58.6445   29.4445   48.0336 H   0  0  0  0  0  0  0  0  0  0  0  0
   60.0281   29.8690   46.9403 H   0  0  0  0  0  0  0  0  0  0  0  0
   58.1050   32.0390   47.1870 H   0  0  0  0  0  0  0  0  0  0  0  0
   61.6740   33.3019   52.8015 H   0  0  0  0  0  0  0  0  0  0  0  0
   63.1375   33.1482   51.7714 H   0  0  0  0  0  0  0  0  0  0  0  0
   62.1958   34.6778   51.7714 H   0  0  0  0  0  0  0  0  0  0  0  0
   57.0711   32.6868   50.0018 H   0  0  0  0  0  0  0  0  0  0  0  0
   57.4645   30.9768   50.1431 H   0  0  0  0  0  0  0  0  0  0  0  0
   57.0755   32.7998   52.3099 H   0  0  0  0  0  0  0  0  0  0  0  0
   57.8103   31.1884   52.4647 H   0  0  0  0  0  0  0  0  0  0  0  0
   59.1112   33.8612   52.5650 H   0  0  0  0  0  0  0  0  0  0  0  0
   59.7933   32.3143   53.0558 H   0  0  0  0  0  0  0  0  0  0  0  0
   63.7767   33.6378   50.0062 H   0  0  0  0  0  0  0  0  0  0  0  0
   63.7705   32.0783   49.0802 H   0  0  0  0  0  0  0  0  0  0  0  0
   63.4588   34.9174   48.0753 H   0  0  0  0  0  0  0  0  0  0  0  0
   64.5448   33.5531   47.5061 H   0  0  0  0  0  0  0  0  0  0  0  0
   61.8986   34.3547   46.5636 H   0  0  0  0  0  0  0  0  0  0  0  0
   63.1517   33.2265   45.8518 H   0  0  0  0  0  0  0  0  0  0  0  0
   60.8768   32.1936   46.2827 H   0  0  0  0  0  0  0  0  0  0  0  0
   62.2880   31.3638   47.0367 H   0  0  0  0  0  0  0  0  0  0  0  0
  1  2  1  0
  2  3  1  0
  3  4  1  0
  4  5  1  0
  5  6  1  0
  6  7  1  0
  7  8  1  0
  8  9  1  0
  9 10  1  0
 10 11  2  0
 11 12  1  0
 12 13  2  0
 13 14  1  0
 13 15  1  0
 15 16  2  0
 16 17  1  0
 17 18  1  0
 18 19  1  0
 12 20  1  0
 20 21  1  0
 21 22  1  0
 22 23  1  0
 16 10  1  0
 23 11  1  0
 19 15  1  0
  1 24  1  0
  1 25  1  0
  1 26  1  0
  2 27  1  0
  2 28  1  0
  3 29  1  0
  4 30  1  0
  4 31  1  0
  5 32  1  0
  5 33  1  0
  7 34  1  0
  7 35  1  0
  8 36  1  0
  8 37  1  0
  9 38  1  0
 14 39  1  0
 14 40  1  0
 14 41  1  0
 17 42  1  0
 17 43  1  0
 18 44  1  0
 18 45  1  0
 19 46  1  0
 19 47  1  0
 20 48  1  0
 20 49  1  0
 21 50  1  0
 21 51  1  0
 22 52  1  0
 22 53  1  0
 23 54  1  0
 23 55  1  0
M  CHG  1  13   1
M  END
>  <UniqueID>  (15) 
15

>  <SMILES>  (15) 
CCNCCOCCNc1c2c([n+](C)c3c1CCC3)CCCC2

>  <Energy>  (15) 
71.73144514961568

>  <Genealogy>  (15) 
CCNCCOCCNc1c2c([n+](C)c3c1CCC3)CCCC2 (3D coordinates assigned)
CCNCCOCCNc1c2c([n+](C)c3c1CCC3)CCCC2 (nonaromatic ring conformer: 71.73144514961568 kcal/mol)

>  <smiles>  (15) 
CCNCCOCCNc1c2c([n+](C)c3c1CCC3)CCCC2

>  <score_type>  (15) 
oracle

>  <origin>  (15) 
adg

>  <m_score__min__energy>  (15) 
-5.5300000000000002

>  <m_primary>  (15) 
energy

$$$$
15:0
     RDKit          3D

 28 29  0  0  0  0  0  0  0  0999 V2000
   59.2690   34.6030   47.1250 C   0  0  0  0  0  0  0  0  0  0  0  0
   59.9740   33.8660   48.2770 C   0  0  0  0  0  0  0  0  0  0  0  0
   61.3780   33.4330   48.0020 N   0  0  2  0  0  0  0  0  0  0  0  0
   61.8100   34.0660   46.7190 C   0  0  0  0  0  0  0  0  0  0  0  0
   63.2630   33.6600   46.3720 C   0  0  0  0  0  0  0  0  0  0  0  0
   63.7920   32.7630   47.4170 N   0  0  2  0  0  0  0  0  0  0  0  0
   62.9410   31.5560   47.4940 C   0  0  0  0  0  0  0  0  0  0  0  0
   61.4850   31.9540   47.8490 C   0  0  0  0  0  0  0  0  0  0  0  0
   63.7690   33.4690   48.7170 C   0  0  0  0  0  0  0  0  0  0  0  0
   62.3160   33.8720   49.0760 C   0  0  0  0  0  0  0  0  0  0  0  0
   58.5642   35.3398   47.5379 H   0  0  0  0  0  0  0  0  0  0  0  0
   60.0184   35.1189   46.5067 H   0  0  0  0  0  0  0  0  0  0  0  0
   58.7203   33.8772   46.5067 H   0  0  0  0  0  0  0  0  0  0  0  0
   59.9912   34.5373   49.1482 H   0  0  0  0  0  0  0  0  0  0  0  0
   59.4000   32.9419   48.4396 H   0  0  0  0  0  0  0  0  0  0  0  0
   61.1402   33.7376   45.9106 H   0  0  0  0  0  0  0  0  0  0  0  0
   61.7649   35.1594   46.8307 H   0  0  0  0  0  0  0  0  0  0  0  0
   63.2757   33.1398   45.4029 H   0  0  0  0  0  0  0  0  0  0  0  0
   63.8896   34.5623   46.3153 H   0  0  0  0  0  0  0  0  0  0  0  0
   64.7760   32.4880   47.1820 H   0  0  0  0  0  0  0  0  0  0  0  0
   62.9510   31.0409   46.5221 H   0  0  0  0  0  0  0  0  0  0  0  0
   63.3328   30.8878   48.2750 H   0  0  0  0  0  0  0  0  0  0  0  0
   60.8114   31.6223   47.0451 H   0  0  0  0  0  0  0  0  0  0  0  0
   61.2029   31.4738   48.7976 H   0  0  0  0  0  0  0  0  0  0  0  0
   64.1667   32.8054   49.4990 H   0  0  0  0  0  0  0  0  0  0  0  0
   64.3881   34.3755   48.6465 H   0  0  0  0  0  0  0  0  0  0  0  0
   62.0306   33.3944   50.0249 H   0  0  0  0  0  0  0  0  0  0  0  0
   62.2614   34.9662   49.1743 H   0  0  0  0  0  0  0  0  0  0  0  0
  1  2  1  0
  3  2  1  1
  3  4  1  0
  4  5  1  0
  5  6  1  0
  6  7  1  0
  7  8  1  0
  6  9  1  0
  9 10  1  0
  8  3  1  0
 10  3  1  0
  1 11  1  0
  1 12  1  0
  1 13  1  0
  2 14  1  0
  2 15  1  0
  4 16  1  0
  4 17  1  0
  5 18  1  0
  5 19  1  0
  6 20  1  6
  7 21  1  0
  7 22  1  0
  8 23  1  0
  8 24  1  0
  9 25  1  0
  9 26  1  0
 10 27  1  0
 10 28  1  0
M  CHG  2   3   1   6   1
M  END
>  <UniqueID>  (16) 
16

>  <SMILES>  (16) 
CC[N+]12CC[NH+](CC1)CC2

>  <Energy>  (16) 
47.49499013531656

>  <Genealogy>  (16) 
CC[N+]12CC[NH+](CC1)CC2 (protonated)
CC[N+]12CC[NH+](CC1)CC2 (3D coordinates assigned)
CC[N+]12CC[NH+](CC1)CC2 (nonaromatic ring conformer: 47.49499013531656 kcal/mol)

>  <smiles>  (16) 
CC[N+]12CCN(CC1)CC2

>  <score_type>  (16) 
oracle

>  <origin>  (16) 
adg

>  <m_score__min__energy>  (16) 
-1.51

>  <m_primary>  (16) 
energy

$$$$
16:0
     RDKit          3D

 40 42  0  0  0  0  0  0  0  0999 V2000
   57.9450   32.5440   52.0020 C   0  0  0  0  0  0  0  0  0  0  0  0
   57.7470   31.4290   50.9770 C   0  0  0  0  0  0  0  0  0  0  0  0
   58.8620   31.3980   50.0040 N   0  0  0  0  0  0  0  0  0  0  0  0
   59.7860   30.2430   50.0610 C   0  0  0  0  0  0  0  0  0  0  0  0
   59.6150   29.3350   48.8440 C   0  0  0  0  0  0  0  0  0  0  0  0
   59.0830   32.3650   49.1280 C   0  0  0  0  0  0  0  0  0  0  0  0
   59.6780   33.5990   49.4820 C   0  0  0  0  0  0  0  0  0  0  0  0
   59.8780   34.5720   48.5040 C   0  0  0  0  0  0  0  0  0  0  0  0
   59.4900   34.3210   47.1890 C   0  0  0  0  0  0  0  0  0  0  0  0
   59.6570   35.2810   46.1840 C   0  0  0  0  0  0  0  0  0  0  0  0
   59.2380   35.0050   44.8810 C   0  0  0  0  0  0  0  0  0  0  0  0
   58.6560   33.7720   44.5740 C   0  0  0  0  0  0  0  0  0  0  0  0
   58.4920   32.7910   45.5680 C   0  0  0  0  0  0  0  0  0  0  0  0
   57.8690   31.4890   45.2250 C   0  0  0  0  0  0  0  0  0  0  0  0
   58.4770   30.2780   45.5930 C   0  0  0  0  0  0  0  0  0  0  0  0
   57.8680   29.0640   45.2760 C   0  0  0  0  0  0  0  0  0  0  0  0
   56.6570   29.0670   44.5830 C   0  0  0  0  0  0  0  0  0  0  0  0
   56.0820   30.2440   44.2210 N   0  0  0  0  0  0  0  0  0  0  0  0
   56.6550   31.4410   44.5200 C   0  0  0  0  0  0  0  0  0  0  0  0
   58.9070   33.0740   46.8870 C   0  0  0  0  0  0  0  0  0  0  0  0
   58.7350   32.1740   47.8520 O   0  0  0  0  0  0  0  0  0  0  0  0
   57.8708   32.1264   53.0170 H   0  0  0  0  0  0  0  0  0  0  0  0
   58.9377   32.9972   51.8636 H   0  0  0  0  0  0  0  0  0  0  0  0
   57.1691   33.3113   51.8636 H   0  0  0  0  0  0  0  0  0  0  0  0
   57.7001   30.4630   51.5010 H   0  0  0  0  0  0  0  0  0  0  0  0
   56.8109   31.6175   50.4310 H   0  0  0  0  0  0  0  0  0  0  0  0
   60.8214   30.6134   50.0891 H   0  0  0  0  0  0  0  0  0  0  0  0
   59.5570   29.6593   50.9648 H   0  0  0  0  0  0  0  0  0  0  0  0
   59.4211   28.3054   49.1791 H   0  0  0  0  0  0  0  0  0  0  0  0
   58.7678   29.6892   48.2384 H   0  0  0  0  0  0  0  0  0  0  0  0
   60.5330   29.3568   48.2384 H   0  0  0  0  0  0  0  0  0  0  0  0
   59.9808   33.7893   50.5222 H   0  0  0  0  0  0  0  0  0  0  0  0
   60.3403   35.5343   48.7691 H   0  0  0  0  0  0  0  0  0  0  0  0
   60.1177   36.2515   46.4205 H   0  0  0  0  0  0  0  0  0  0  0  0
   59.3665   35.7613   44.0927 H   0  0  0  0  0  0  0  0  0  0  0  0
   58.3233   33.5671   43.5457 H   0  0  0  0  0  0  0  0  0  0  0  0
   59.4356   30.2868   46.1324 H   0  0  0  0  0  0  0  0  0  0  0  0
   58.3377   28.1136   45.5694 H   0  0  0  0  0  0  0  0  0  0  0  0
   56.1670   28.1154   44.3293 H   0  0  0  0  0  0  0  0  0  0  0  0
   56.1655   32.3755   44.2083 H   0  0  0  0  0  0  0  0  0  0  0  0
  1  2  1  0
  2  3  1  0
  3  4  1  0
  4  5  1  0
  3  6  2  3
  6  7  1  0
  7  8  2  0
  8  9  1  0
  9 10  2  0
 10 11  1  0
 11 12  2  0
 12 13  1  0
 13 14  1  0
 14 15  2  0
 15 16  1  0
 16 17  2  0
 17 18  1  0
 18 19  2  0
 13 20  2  0
 20 21  1  0
 21  6  1  0
 20  9  1  0
 19 14  1  0
  1 22  1  0
  1 23  1  0
  1 24  1  0
  2 25  1  0
  2 26  1  0
  4 27  1  0
  4 28  1  0
  5 29  1  0
  5 30  1  0
  5 31  1  0
  7 32  1  0
  8 33  1  0
 10 34  1  0
 11 35  1  0
 12 36  1  0
 15 37  1  0
 16 38  1  0
 17 39  1  0
 19 40  1  0
M  CHG  1   3   1
M  END
>  <UniqueID>  (17) 
17

>  <SMILES>  (17) 
CC[N+](CC)=c1ccc2cccc(-c3cccnc3)c2o1

>  <Energy>  (17) 
52.396562161899475

>  <Genealogy>  (17) 
CC[N+](CC)=c1ccc2cccc(-c3cccnc3)c2o1 (3D coordinates assigned)
CC[N+](CC)=c1ccc2cccc(-c3cccnc3)c2o1 (optimized conformer: 52.396562161899475 kcal/mol)

>  <smiles>  (17) 
CC[N+](CC)=c1ccc2cccc(-c3cccnc3)c2o1

>  <score_type>  (17) 
oracle

>  <origin>  (17) 
adg

>  <m_score__min__energy>  (17) 
-5.4000000000000004

>  <m_primary>  (17) 
energy

$$$$
17:0
     RDKit          3D

 55 57  0  0  0  0  0  0  0  0999 V2000
   56.3230   30.1620   52.5550 C   0  0  0  0  0  0  0  0  0  0  0  0
   56.5120   31.5800   51.9900 C   0  0  0  0  0  0  0  0  0  0  0  0
   57.8960   31.8890   51.5550 N   0  0  0  0  0  0  0  0  0  0  0  0
   58.5140   30.7920   50.7910 C   0  0  0  0  0  0  0  0  0  0  0  0
   58.7620   32.3500   52.6600 C   0  0  0  0  0  0  0  0  0  0  0  0
   59.4070   33.6970   52.3010 C   0  0  0  0  0  0  0  0  0  0  0  0
   59.0690   34.1260   50.9330 N   0  0  0  0  0  0  0  0  0  0  0  0
   60.1460   33.8690   50.0070 C   0  0  0  0  0  0  0  0  0  0  0  0
   61.6740   33.3200   50.4680 S   0  0  0  0  0  0  0  0  0  0  0  0
   62.3260   33.3250   48.9240 C   0  0  0  0  0  0  0  0  0  0  0  0
   61.3850   33.8140   48.0220 C   0  0  0  0  0  0  0  0  0  0  0  0
   60.1360   34.1060   48.6200 C   0  0  0  0  0  0  0  0  0  0  0  0
   58.9240   34.5900   47.8540 C   0  0  0  0  0  0  0  0  0  0  0  0
   58.5170   33.6170   46.7760 C   0  0  0  0  0  0  0  0  0  0  0  0
   58.1610   34.0840   45.5000 C   0  0  0  0  0  0  0  0  0  0  0  0
   57.7760   33.1850   44.5000 C   0  0  0  0  0  0  0  0  0  0  0  0
   57.7390   31.8080   44.7620 C   0  0  0  0  0  0  0  0  0  0  0  0
   57.3370   30.8460   43.6840 C   0  0  0  0  0  0  0  0  0  0  0  0
   58.1420   31.3360   46.0180 C   0  0  0  0  0  0  0  0  0  0  0  0
   58.5350   32.2320   47.0160 C   0  0  0  0  0  0  0  0  0  0  0  0
   61.6970   33.9230   46.5460 C   0  0  0  0  0  0  0  0  0  0  0  0
   63.2100   33.8470   46.2650 C   0  0  0  0  0  0  0  0  0  0  0  0
   63.8800   32.7240   47.0700 C   0  0  0  0  0  0  0  0  0  0  0  0
   63.7410   32.9760   48.5780 C   0  0  0  0  0  0  0  0  0  0  0  0
   56.3283   30.2016   53.6543 H   0  0  0  0  0  0  0  0  0  0  0  0
   55.3625   29.7538   52.2074 H   0  0  0  0  0  0  0  0  0  0  0  0
   57.1431   29.5165   52.2074 H   0  0  0  0  0  0  0  0  0  0  0  0
   55.8452   31.6961   51.1229 H   0  0  0  0  0  0  0  0  0  0  0  0
   56.2782   32.2768   52.8084 H   0  0  0  0  0  0  0  0  0  0  0  0
   58.9319   30.0502   51.4874 H   0  0  0  0  0  0  0  0  0  0  0  0
   57.7533   30.3124   50.1575 H   0  0  0  0  0  0  0  0  0  0  0  0
   59.3183   31.1941   50.1575 H   0  0  0  0  0  0  0  0  0  0  0  0
   58.1569   32.4681   53.5710 H   0  0  0  0  0  0  0  0  0  0  0  0
   59.5544   31.6062   52.8296 H   0  0  0  0  0  0  0  0  0  0  0  0
   59.0527   34.4600   53.0097 H   0  0  0  0  0  0  0  0  0  0  0  0
   60.4988   33.5757   52.3580 H   0  0  0  0  0  0  0  0  0  0  0  0
   58.1850   33.6610   50.6300 H   0  0  0  0  0  0  0  0  0  0  0  0
   58.8970   35.1580   50.9410 H   0  0  0  0  0  0  0  0  0  0  0  0
   58.0860   34.7150   48.5556 H   0  0  0  0  0  0  0  0  0  0  0  0
   59.1827   35.5447   47.3727 H   0  0  0  0  0  0  0  0  0  0  0  0
   58.1851   35.1627   45.2860 H   0  0  0  0  0  0  0  0  0  0  0  0
   57.5009   33.5601   43.5032 H   0  0  0  0  0  0  0  0  0  0  0  0
   56.9513   29.9230   44.1414 H   0  0  0  0  0  0  0  0  0  0  0  0
   56.5537   31.3010   43.0599 H   0  0  0  0  0  0  0  0  0  0  0  0
   58.2111   30.6084   43.0599 H   0  0  0  0  0  0  0  0  0  0  0  0
   58.1491   30.2547   46.2197 H   0  0  0  0  0  0  0  0  0  0  0  0
   58.8604   31.8511   47.9953 H   0  0  0  0  0  0  0  0  0  0  0  0
   61.1962   33.0993   46.0161 H   0  0  0  0  0  0  0  0  0  0  0  0
   61.3367   34.9014   46.1955 H   0  0  0  0  0  0  0  0  0  0  0  0
   63.3646   33.6582   45.1924 H   0  0  0  0  0  0  0  0  0  0  0  0
   63.6637   34.8029   46.5656 H   0  0  0  0  0  0  0  0  0  0  0  0
   63.4018   31.7657   46.8190 H   0  0  0  0  0  0  0  0  0  0  0  0
   64.9495   32.6970   46.8143 H   0  0  0  0  0  0  0  0  0  0  0  0
   64.0339   32.0678   49.1252 H   0  0  0  0  0  0  0  0  0  0  0  0
   64.3933   33.8157   48.8597 H   0  0  0  0  0  0  0  0  0  0  0  0
  1  2  1  0
  2  3  1  0
  3  4  1  0
  3  5  1  0
  5  6  1  0
  6  7  1  0
  7  8  1  0
  8  9  1  0
  9 10  1  0
 10 11  2  0
 11 12  1  0
 12 13  1  0
 13 14  1  0
 14 15  2  0
 15 16  1  0
 16 17  2  0
 17 18  1  0
 17 19  1  0
 19 20  2  0
 11 21  1  0
 21 22  1  0
 22 23  1  0
 23 24  1  0
 12  8  2  0
 20 14  1  0
 24 10  1  0
  1 25  1  0
  1 26  1  0
  1 27  1  0
  2 28  1  0
  2 29  1  0
  4 30  1  0
  4 31  1  0
  4 32  1  0
  5 33  1  0
  5 34  1  0
  6 35  1  0
  6 36  1  0
  7 37  1  0
  7 38  1  0
 13 39  1  0
 13 40  1  0
 15 41  1  0
 16 42  1  0
 18 43  1  0
 18 44  1  0
 18 45  1  0
 19 46  1  0
 20 47  1  0
 21 48  1  0
 21 49  1  0
 22 50  1  0
 22 51  1  0
 23 52  1  0
 23 53  1  0
 24 54  1  0
 24 55  1  0
M  CHG  1   7   1
M  END
>  <UniqueID>  (18) 
18

>  <SMILES>  (18) 
CCN(C)CC[NH2+]c1sc2c(c1Cc1ccc(C)cc1)CCCC2

>  <Energy>  (18) 
78.08292349310459

>  <Genealogy>  (18) 
CCN(C)CC[NH2+]c1sc2c(c1Cc1ccc(C)cc1)CCCC2 (protonated)
CCN(C)CC[NH2+]c1sc2c(c1Cc1ccc(C)cc1)CCCC2 (3D coordinates assigned)
CCN(C)CC[NH2+]c1sc2c(c1Cc1ccc(C)cc1)CCCC2 (nonaromatic ring conformer: 78.08292349310459 kcal/mol)

>  <smiles>  (18) 
CCN(C)CCNc1sc2c(c1Cc1ccc(C)cc1)CCCC2

>  <score_type>  (18) 
oracle

>  <origin>  (18) 
adg

>  <m_score__min__energy>  (18) 
-6.3899999999999997

>  <m_primary>  (18) 
energy

$$$$
18:0
     RDKit          3D

 76 79  0  0  0  0  0  0  0  0999 V2000
   62.9640   33.4580   47.0930 C   0  0  0  0  0  0  0  0  0  0  0  0
   63.3470   31.9880   47.1520 C   0  0  0  0  0  0  0  0  0  0  0  0
   62.5900   31.3490   48.1570 O   0  0  0  0  0  0  0  0  0  0  0  0
   63.0300   31.7410   49.4450 C   0  0  0  0  0  0  0  0  0  0  0  0
   62.3770   30.8630   50.5080 C   0  0  0  0  0  0  0  0  0  0  0  0
   61.8770   29.6770   49.9140 O   0  0  0  0  0  0  0  0  0  0  0  0
   60.5310   29.4340   50.2820 C   0  0  0  0  0  0  0  0  0  0  0  0
   59.5800   29.8680   49.1420 C   0  0  0  0  0  0  0  0  0  0  0  0
   60.2290   30.4770   47.9490 N   0  0  0  0  0  0  0  0  0  0  0  0
   59.3710   30.6680   46.7840 C   0  0  0  0  0  0  0  0  0  0  0  0
   58.9850   29.5420   46.0100 C   0  0  0  0  0  0  0  0  0  0  0  0
   59.2370   28.2200   46.4550 C   0  0  0  0  0  0  0  0  0  0  0  0
   58.9300   27.1210   45.6600 C   0  0  0  0  0  0  0  0  0  0  0  0
   58.3700   27.3060   44.4070 C   0  0  0  0  0  0  0  0  0  0  0  0
   58.0740   28.5910   43.9580 C   0  0  0  0  0  0  0  0  0  0  0  0
   58.3240   29.7310   44.7670 C   0  0  0  0  0  0  0  0  0  0  0  0
   57.9570   30.9950   44.3580 N   0  0  0  0  0  0  0  0  0  0  0  0
   57.0370   31.1560   43.2040 C   0  0  0  0  0  0  0  0  0  0  0  0
   58.3930   32.1070   45.0520 C   0  0  0  0  0  0  0  0  0  0  0  0
   58.2620   33.4010   44.4950 C   0  0  0  0  0  0  0  0  0  0  0  0
   58.5690   34.5350   45.2290 C   0  0  0  0  0  0  0  0  0  0  0  0
   58.9960   34.4190   46.5390 C   0  0  0  0  0  0  0  0  0  0  0  0
   59.1970   33.1580   47.1230 C   0  0  0  0  0  0  0  0  0  0  0  0
   59.5910   33.0680   48.4680 O   0  0  0  0  0  0  0  0  0  0  0  0
   59.7020   34.1390   49.4120 C   0  0  0  0  0  0  0  0  0  0  0  0
   60.2210   33.6170   50.7770 C   0  0  0  0  0  0  0  0  0  0  0  0
   59.1860   33.0670   51.7190 N   0  0  0  0  0  0  0  0  0  0  0  0
   58.5070   34.2020   52.4070 C   0  0  0  0  0  0  0  0  0  0  0  0
   59.8250   32.1330   52.7120 C   0  0  0  0  0  0  0  0  0  0  0  0
   59.0130   30.8610   53.0510 C   0  0  0  0  0  0  0  0  0  0  0  0
   57.5130   31.1170   53.0450 C   0  0  0  0  0  0  0  0  0  0  0  0
   57.0470   31.6730   51.6910 C   0  0  0  0  0  0  0  0  0  0  0  0
   58.1840   32.3410   50.8790 C   0  0  0  0  0  0  0  0  0  0  0  0
   59.0020   31.9750   46.3380 C   0  0  0  0  0  0  0  0  0  0  0  0
   62.8615   33.8515   48.1151 H   0  0  0  0  0  0  0  0  0  0  0  0
   63.7458   34.0195   46.5606 H   0  0  0  0  0  0  0  0  0  0  0  0
   62.0076   33.5666   46.5606 H   0  0  0  0  0  0  0  0  0  0  0  0
   63.1411   31.5153   46.1803 H   0  0  0  0  0  0  0  0  0  0  0  0
   64.4185   31.8953   47.3826 H   0  0  0  0  0  0  0  0  0  0  0  0
   64.1231   31.6338   49.5050 H   0  0  0  0  0  0  0  0  0  0  0  0
   62.7483   32.7899   49.6195 H   0  0  0  0  0  0  0  0  0  0  0  0
   63.1226   30.6013   51.2732 H   0  0  0  0  0  0  0  0  0  0  0  0
   61.5455   31.4139   50.9719 H   0  0  0  0  0  0  0  0  0  0  0  0
   60.3961   28.3602   50.4789 H   0  0  0  0  0  0  0  0  0  0  0  0
   60.2955   30.0137   51.1867 H   0  0  0  0  0  0  0  0  0  0  0  0
   59.0274   28.9778   48.8071 H   0  0  0  0  0  0  0  0  0  0  0  0
   58.9441   30.6572   49.5697 H   0  0  0  0  0  0  0  0  0  0  0  0
   61.0510   29.8910   47.6760 H   0  0  0  0  0  0  0  0  0  0  0  0
   60.7210   31.3580   48.2040 H   0  0  0  0  0  0  0  0  0  0  0  0
   59.6836   28.0604   47.4475 H   0  0  0  0  0  0  0  0  0  0  0  0
   59.1322   26.1038   46.0268 H   0  0  0  0  0  0  0  0  0  0  0  0
   58.1588   26.4375   43.7658 H   0  0  0  0  0  0  0  0  0  0  0  0
   57.6380   28.7253   42.9571 H   0  0  0  0  0  0  0  0  0  0  0  0
   56.0157   31.3347   43.5714 H   0  0  0  0  0  0  0  0  0  0  0  0
   57.3616   32.0110   42.5928 H   0  0  0  0  0  0  0  0  0  0  0  0
   57.0520   30.2416   42.5928 H   0  0  0  0  0  0  0  0  0  0  0  0
   57.9094   33.5087   43.4586 H   0  0  0  0  0  0  0  0  0  0  0  0
   58.4729   35.5295   44.7689 H   0  0  0  0  0  0  0  0  0  0  0  0
   59.1808   35.3270   47.1318 H   0  0  0  0  0  0  0  0  0  0  0  0
   60.4037   34.8915   49.0230 H   0  0  0  0  0  0  0  0  0  0  0  0
   58.7070   34.5841   49.5595 H   0  0  0  0  0  0  0  0  0  0  0  0
   60.9485   32.8171   50.5749 H   0  0  0  0  0  0  0  0  0  0  0  0
   60.6416   34.4968   51.2859 H   0  0  0  0  0  0  0  0  0  0  0  0
   58.5857   34.0704   53.4963 H   0  0  0  0  0  0  0  0  0  0  0  0
   58.9879   35.1476   52.1162 H   0  0  0  0  0  0  0  0  0  0  0  0
   57.4464   34.2254   52.1162 H   0  0  0  0  0  0  0  0  0  0  0  0
   60.7954   31.8159   52.3025 H   0  0  0  0  0  0  0  0  0  0  0  0
   59.9027   32.6998   53.6515 H   0  0  0  0  0  0  0  0  0  0  0  0
   59.2428   30.0852   52.3058 H   0  0  0  0  0  0  0  0  0  0  0  0
   59.2964   30.5400   54.0642 H   0  0  0  0  0  0  0  0  0  0  0  0
   56.9873   30.1715   53.2441 H   0  0  0  0  0  0  0  0  0  0  0  0
   57.2846   31.8606   53.8228 H   0  0  0  0  0  0  0  0  0  0  0  0
   56.6339   30.8445   51.0969 H   0  0  0  0  0  0  0  0  0  0  0  0
   56.2956   32.4491   51.8987 H   0  0  0  0  0  0  0  0  0  0  0  0
   58.7099   31.5587   50.3121 H   0  0  0  0  0  0  0  0  0  0  0  0
   57.7116   33.0911   50.2277 H   0  0  0  0  0  0  0  0  0  0  0  0
  1  2  1  0
  2  3  1  0
  3  4  1  0
  4  5  1  0
  5  6  1  0
  6  7  1  0
  7  8  1  0
  8  9  1  0
  9 10  1  0
 10 11  2  0
 11 12  1  0
 12 13  2  0
 13 14  1  0
 14 15  2  0
 15 16  1  0
 16 17  2  0
 17 18  1  0
 17 19  1  0
 19 20  2  0
 20 21  1  0
 21 22  2  0
 22 23  1  0
 23 24  1  0
 24 25  1  0
 25 26  1  0
 26 27  1  0
 27 28  1  0
 27 29  1  0
 29 30  1  0
 30 31  1  0
 31 32  1  0
 32 33  1  0
 23 34  2  0
 34 10  1  0
 16 11  1  0
 34 19  1  0
 33 27  1  0
  1 35  1  0
  1 36  1  0
  1 37  1  0
  2 38  1  0
  2 39  1  0
  4 40  1  0
  4 41  1  0
  5 42  1  0
  5 43  1  0
  7 44  1  0
  7 45  1  0
  8 46  1  0
  8 47  1  0
  9 48  1  0
  9 49  1  0
 12 50  1  0
 13 51  1  0
 14 52  1  0
 15 53  1  0
 18 54  1  0
 18 55  1  0
 18 56  1  0
 20 57  1  0
 21 58  1  0
 22 59  1  0
 25 60  1  0
 25 61  1  0
 26 62  1  0
 26 63  1  0
 28 64  1  0
 28 65  1  0
 28 66  1  0
 29 67  1  0
 29 68  1  0
 30 69  1  0
 30 70  1  0
 31 71  1  0
 31 72  1  0
 32 73  1  0
 32 74  1  0
 33 75  1  0
 33 76  1  0
M  CHG  3   9   1  17   1  27   1
M  END
>  <UniqueID>  (19) 
19

>  <SMILES>  (19) 
CCOCCOCC[NH2+]c1c2ccccc2[n+](C)c2cccc(OCC[N+]3(C)CCCCC3)c12

>  <Energy>  (19) 
138.90353595469963

>  <Genealogy>  (19) 
CCOCCOCC[NH2+]c1c2ccccc2[n+](C)c2cccc(OCC[N+]3(C)CCCCC3)c12 (protonated)
CCOCCOCC[NH2+]c1c2ccccc2[n+](C)c2cccc(OCC[N+]3(C)CCCCC3)c12 (3D coordinates assigned)
CCOCCOCC[NH2+]c1c2ccccc2[n+](C)c2cccc(OCC[N+]3(C)CCCCC3)c12 (nonaromatic ring conformer: 138.90353595469963 kcal/mol)

>  <smiles>  (19) 
CCOCCOCCNc1c2ccccc2[n+](C)c2cccc(OCC[N+]3(C)CCCCC3)c12

>  <score_type>  (19) 
oracle

>  <origin>  (19) 
adg

>  <m_score__min__energy>  (19) 
-3.1000000000000001

>  <m_primary>  (19) 
energy

$$$$
19:0
     RDKit          3D

 66 68  0  0  0  0  0  0  0  0999 V2000
   63.6640   32.6130   48.5860 C   0  0  0  0  0  0  0  0  0  0  0  0
   63.0880   32.4830   47.1670 C   0  0  0  0  0  0  0  0  0  0  0  0
   62.5130   33.8240   46.7060 C   0  0  0  0  0  0  0  0  0  0  0  0
   62.0200   31.4650   47.1100 N   0  0  0  0  0  0  0  0  0  0  0  0
   61.5470   31.0090   48.4300 C   0  0  0  0  0  0  0  0  0  0  0  0
   60.5490   29.8330   48.3760 C   0  0  0  0  0  0  0  0  0  0  0  0
   59.1240   30.2330   48.2880 N   0  0  0  0  0  0  0  0  0  0  0  0
   58.7070   30.4870   46.9130 C   0  0  0  0  0  0  0  0  0  0  0  0
   58.4960   29.3860   46.0220 C   0  0  0  0  0  0  0  0  0  0  0  0
   58.7160   28.0350   46.4090 C   0  0  0  0  0  0  0  0  0  0  0  0
   58.5450   26.9840   45.5160 C   0  0  0  0  0  0  0  0  0  0  0  0
   58.1680   27.2350   44.2080 C   0  0  0  0  0  0  0  0  0  0  0  0
   57.9320   28.5400   43.7950 C   0  0  0  0  0  0  0  0  0  0  0  0
   58.0600   29.6330   44.6910 C   0  0  0  0  0  0  0  0  0  0  0  0
   57.7960   30.9150   44.2760 N   0  0  0  0  0  0  0  0  0  0  0  0
   57.0220   31.1420   43.0340 C   0  0  0  0  0  0  0  0  0  0  0  0
   58.2290   31.9880   45.0200 C   0  0  0  0  0  0  0  0  0  0  0  0
   58.3470   33.2610   44.4130 C   0  0  0  0  0  0  0  0  0  0  0  0
   58.7010   34.3790   45.1430 C   0  0  0  0  0  0  0  0  0  0  0  0
   58.9080   34.2740   46.5030 C   0  0  0  0  0  0  0  0  0  0  0  0
   58.8350   33.0360   47.1580 C   0  0  0  0  0  0  0  0  0  0  0  0
   58.8920   33.0670   48.5950 N   0  0  0  0  0  0  0  0  0  0  0  0
   59.7980   33.9410   49.3480 C   0  0  0  0  0  0  0  0  0  0  0  0
   59.8170   33.5850   50.8420 C   0  0  0  0  0  0  0  0  0  0  0  0
   59.7810   32.0660   51.0730 C   0  0  0  0  0  0  0  0  0  0  0  0
   58.4170   31.5240   50.8810 N   0  0  0  0  0  0  0  0  0  0  0  0
   57.4180   32.3120   51.6240 C   0  0  0  0  0  0  0  0  0  0  0  0
   58.3600   30.1210   51.3220 C   0  0  0  0  0  0  0  0  0  0  0  0
   58.5830   31.8310   46.3980 C   0  0  0  0  0  0  0  0  0  0  0  0
   62.8674   32.4332   49.3230 H   0  0  0  0  0  0  0  0  0  0  0  0
   64.4661   31.8733   48.7253 H   0  0  0  0  0  0  0  0  0  0  0  0
   64.0707   33.6255   48.7253 H   0  0  0  0  0  0  0  0  0  0  0  0
   63.9104   32.1747   46.5047 H   0  0  0  0  0  0  0  0  0  0  0  0
   62.2521   34.4325   47.5844 H   0  0  0  0  0  0  0  0  0  0  0  0
   63.2622   34.3557   46.1011 H   0  0  0  0  0  0  0  0  0  0  0  0
   61.6113   33.6478   46.1011 H   0  0  0  0  0  0  0  0  0  0  0  0
   61.2270   31.7490   46.4910 H   0  0  0  0  0  0  0  0  0  0  0  0
   62.4208   30.6925   49.0185 H   0  0  0  0  0  0  0  0  0  0  0  0
   61.0109   31.8564   48.8823 H   0  0  0  0  0  0  0  0  0  0  0  0
   60.7881   29.2210   47.4938 H   0  0  0  0  0  0  0  0  0  0  0  0
   60.6604   29.2873   49.3246 H   0  0  0  0  0  0  0  0  0  0  0  0
   58.5220   29.5020   48.7100 H   0  0  0  0  0  0  0  0  0  0  0  0
   58.8960   31.0210   48.9230 H   0  0  0  0  0  0  0  0  0  0  0  0
   59.0292   27.8168   47.4406 H   0  0  0  0  0  0  0  0  0  0  0  0
   58.7098   25.9489   45.8498 H   0  0  0  0  0  0  0  0  0  0  0  0
   58.0556   26.4030   43.4973 H   0  0  0  0  0  0  0  0  0  0  0  0
   57.6398   28.7302   42.7517 H   0  0  0  0  0  0  0  0  0  0  0  0
   55.9958   31.4430   43.2914 H   0  0  0  0  0  0  0  0  0  0  0  0
   57.5004   31.9377   42.4441 H   0  0  0  0  0  0  0  0  0  0  0  0
   56.9949   30.2140   42.4441 H   0  0  0  0  0  0  0  0  0  0  0  0
   58.1523   33.3625   43.3351 H   0  0  0  0  0  0  0  0  0  0  0  0
   58.8176   35.3509   44.6411 H   0  0  0  0  0  0  0  0  0  0  0  0
   59.1348   35.1793   47.0852 H   0  0  0  0  0  0  0  0  0  0  0  0
   58.0600   32.7050   49.1070 H   0  0  0  0  0  0  0  0  0  0  0  0
   60.8151   33.8344   48.9429 H   0  0  0  0  0  0  0  0  0  0  0  0
   59.4404   34.9762   49.2460 H   0  0  0  0  0  0  0  0  0  0  0  0
   60.7350   33.9909   51.2920 H   0  0  0  0  0  0  0  0  0  0  0  0
   58.9198   34.0204   51.3062 H   0  0  0  0  0  0  0  0  0  0  0  0
   60.4634   31.5792   50.3607 H   0  0  0  0  0  0  0  0  0  0  0  0
   60.0912   31.8654   52.1091 H   0  0  0  0  0  0  0  0  0  0  0  0
   57.5800   32.1842   52.7045 H   0  0  0  0  0  0  0  0  0  0  0  0
   57.5203   33.3752   51.3611 H   0  0  0  0  0  0  0  0  0  0  0  0
   56.4079   31.9649   51.3611 H   0  0  0  0  0  0  0  0  0  0  0  0
   58.3584   30.0820   52.4213 H   0  0  0  0  0  0  0  0  0  0  0  0
   57.4421   29.6527   50.9371 H   0  0  0  0  0  0  0  0  0  0  0  0
   59.2369   29.5798   50.9371 H   0  0  0  0  0  0  0  0  0  0  0  0
  1  2  1  0
  2  3  1  0
  2  4  1  0
  4  5  1  0
  5  6  1  0
  6  7  1  0
  7  8  1  0
  8  9  2  0
  9 10  1  0
 10 11  2  0
 11 12  1  0
 12 13  2  0
 13 14  1  0
 14 15  2  0
 15 16  1  0
 15 17  1  0
 17 18  2  0
 18 19  1  0
 19 20  2  0
 20 21  1  0
 21 22  1  0
 22 23  1  0
 23 24  1  0
 24 25  1  0
 25 26  1  0
 26 27  1  0
 26 28  1  0
 21 29  2  0
 29  8  1  0
 14  9  1  0
 29 17  1  0
  1 30  1  0
  1 31  1  0
  1 32  1  0
  2 33  1  0
  3 34  1  0
  3 35  1  0
  3 36  1  0
  4 37  1  0
  5 38  1  0
  5 39  1  0
  6 40  1  0
  6 41  1  0
  7 42  1  0
  7 43  1  0
 10 44  1  0
 11 45  1  0
 12 46  1  0
 13 47  1  0
 16 48  1  0
 16 49  1  0
 16 50  1  0
 18 51  1  0
 19 52  1  0
 20 53  1  0
 22 54  1  0
 23 55  1  0
 23 56  1  0
 24 57  1  0
 24 58  1  0
 25 59  1  0
 25 60  1  0
 27 61  1  0
 27 62  1  0
 27 63  1  0
 28 64  1  0
 28 65  1  0
 28 66  1  0
M  CHG  2   7   1  15   1
M  END
>  <UniqueID>  (20) 
20

>  <SMILES>  (20) 
CC(C)NCC[NH2+]c1c2ccccc2[n+](C)c2cccc(NCCCN(C)C)c12

>  <Energy>  (20) 
109.33524550609039

>  <Genealogy>  (20) 
CC(C)NCC[NH2+]c1c2ccccc2[n+](C)c2cccc(NCCCN(C)C)c12 (protonated)
CC(C)NCC[NH2+]c1c2ccccc2[n+](C)c2cccc(NCCCN(C)C)c12 (3D coordinates assigned)
CC(C)NCC[NH2+]c1c2ccccc2[n+](C)c2cccc(NCCCN(C)C)c12 (optimized conformer: 109.33524550609039 kcal/mol)

>  <smiles>  (20) 
CC(C)NCCNc1c2ccccc2[n+](C)c2cccc(NCCCN(C)C)c12

>  <score_type>  (20) 
oracle

>  <origin>  (20) 
adg

>  <m_score__min__energy>  (20) 
-4.0800000000000001

>  <m_primary>  (20) 
energy

$$$$
20:0
     RDKit          3D

 74 77  0  0  0  0  0  0  0  0999 V2000
   59.9630   33.9670   49.4770 C   0  0  0  0  0  0  0  0  0  0  0  0
   61.4440   34.2780   49.2780 C   0  0  0  0  0  0  0  0  0  0  0  0
   62.1140   33.1670   48.5690 N   0  0  0  0  0  0  0  0  0  0  0  0
   63.4270   33.5520   47.9950 C   0  0  0  0  0  0  0  0  0  0  0  0
   63.3920   33.8670   46.4910 C   0  0  0  0  0  0  0  0  0  0  0  0
   62.1640   31.9110   49.3510 C   0  0  0  0  0  0  0  0  0  0  0  0
   61.6200   30.7470   48.5200 C   0  0  0  0  0  0  0  0  0  0  0  0
   61.4100   31.1510   47.1320 N   0  0  0  0  0  0  0  0  0  0  0  0
   60.1080   31.0290   46.5450 C   0  0  0  0  0  0  0  0  0  0  0  0
   59.4870   29.7860   46.4890 C   0  0  0  0  0  0  0  0  0  0  0  0
   58.2500   29.6380   45.8950 C   0  0  0  0  0  0  0  0  0  0  0  0
   57.6280   30.6770   45.2450 N   0  0  0  0  0  0  0  0  0  0  0  0
   56.4940   30.4130   44.3440 C   0  0  0  0  0  0  0  0  0  0  0  0
   58.1400   31.9550   45.4040 C   0  0  0  0  0  0  0  0  0  0  0  0
   57.4330   33.1020   44.9690 C   0  0  0  0  0  0  0  0  0  0  0  0
   57.9770   34.3790   45.1140 C   0  0  0  0  0  0  0  0  0  0  0  0
   59.2230   34.5500   45.7080 C   0  0  0  0  0  0  0  0  0  0  0  0
   59.9310   33.4460   46.1770 C   0  0  0  0  0  0  0  0  0  0  0  0
   59.4090   32.1460   46.0420 C   0  0  0  0  0  0  0  0  0  0  0  0
   57.8640   28.2260   46.0240 C   0  0  0  0  0  0  0  0  0  0  0  0
   56.6470   27.5760   45.7930 C   0  0  0  0  0  0  0  0  0  0  0  0
   56.5370   26.1920   46.0670 C   0  0  0  0  0  0  0  0  0  0  0  0
   55.3310   25.5070   45.8450 O   0  0  0  0  0  0  0  0  0  0  0  0
   55.1620   24.4230   44.9380 C   0  0  0  0  0  0  0  0  0  0  0  0
   57.6540   25.4910   46.6040 C   0  0  0  0  0  0  0  0  0  0  0  0
   57.6190   24.0750   46.8820 N   0  0  0  0  0  0  0  0  0  0  0  0
   57.9070   23.0420   45.8820 C   0  0  0  0  0  0  0  0  0  0  0  0
   57.3840   21.6680   46.3550 C   0  0  0  0  0  0  0  0  0  0  0  0
   57.0290   21.6120   47.7910 N   0  0  0  0  0  0  0  0  0  0  0  0
   57.2520   20.2850   48.3860 C   0  0  0  0  0  0  0  0  0  0  0  0
   55.6700   22.1050   48.0690 C   0  0  0  0  0  0  0  0  0  0  0  0
   58.8300   26.2000   46.9180 C   0  0  0  0  0  0  0  0  0  0  0  0
   58.9110   27.5580   46.6270 C   0  0  0  0  0  0  0  0  0  0  0  0
   60.0380   28.4770   46.9700 C   0  0  0  0  0  0  0  0  0  0  0  0
   59.7396   33.9201   50.5530 H   0  0  0  0  0  0  0  0  0  0  0  0
   59.3565   34.7574   49.0107 H   0  0  0  0  0  0  0  0  0  0  0  0
   59.7256   32.9994   49.0107 H   0  0  0  0  0  0  0  0  0  0  0  0
   61.5443   35.1990   48.6850 H   0  0  0  0  0  0  0  0  0  0  0  0
   61.9163   34.4087   50.2628 H   0  0  0  0  0  0  0  0  0  0  0  0
   63.7863   34.4459   48.5259 H   0  0  0  0  0  0  0  0  0  0  0  0
   64.0918   32.6846   48.1197 H   0  0  0  0  0  0  0  0  0  0  0  0
   63.2716   34.9507   46.3461 H   0  0  0  0  0  0  0  0  0  0  0  0
   64.3323   33.5370   46.0253 H   0  0  0  0  0  0  0  0  0  0  0  0
   62.5470   33.3387   46.0253 H   0  0  0  0  0  0  0  0  0  0  0  0
   63.2062   31.7000   49.6327 H   0  0  0  0  0  0  0  0  0  0  0  0
   61.5460   32.0262   50.2537 H   0  0  0  0  0  0  0  0  0  0  0  0
   62.3407   29.9165   48.5483 H   0  0  0  0  0  0  0  0  0  0  0  0
   60.6551   30.4328   48.9445 H   0  0  0  0  0  0  0  0  0  0  0  0
   62.0320   31.9030   46.7540 H   0  0  0  0  0  0  0  0  0  0  0  0
   55.5934   30.2033   44.9398 H   0  0  0  0  0  0  0  0  0  0  0  0
   56.3170   31.2940   43.7095 H   0  0  0  0  0  0  0  0  0  0  0  0
   56.7243   29.5445   43.7095 H   0  0  0  0  0  0  0  0  0  0  0  0
   56.4402   32.9849   44.5100 H   0  0  0  0  0  0  0  0  0  0  0  0
   57.4170   35.2556   44.7563 H   0  0  0  0  0  0  0  0  0  0  0  0
   59.6500   35.5588   45.8076 H   0  0  0  0  0  0  0  0  0  0  0  0
   60.9093   33.5919   46.6584 H   0  0  0  0  0  0  0  0  0  0  0  0
   55.7841   28.1352   45.4022 H   0  0  0  0  0  0  0  0  0  0  0  0
   55.0167   23.4909   45.5037 H   0  0  0  0  0  0  0  0  0  0  0  0
   54.2819   24.6086   44.3047 H   0  0  0  0  0  0  0  0  0  0  0  0
   56.0568   24.3319   44.3047 H   0  0  0  0  0  0  0  0  0  0  0  0
   57.5610   23.7850   47.8860 H   0  0  0  0  0  0  0  0  0  0  0  0
   57.4163   23.3091   44.9344 H   0  0  0  0  0  0  0  0  0  0  0  0
   58.9961   22.9780   45.7412 H   0  0  0  0  0  0  0  0  0  0  0  0
   56.4868   21.4206   45.7686 H   0  0  0  0  0  0  0  0  0  0  0  0
   58.2043   20.9506   46.2054 H   0  0  0  0  0  0  0  0  0  0  0  0
   57.2381   20.3679   49.4828 H   0  0  0  0  0  0  0  0  0  0  0  0
   56.4566   19.5986   48.0600 H   0  0  0  0  0  0  0  0  0  0  0  0
   58.2281   19.8963   48.0600 H   0  0  0  0  0  0  0  0  0  0  0  0
   55.5156   22.1610   49.1567 H   0  0  0  0  0  0  0  0  0  0  0  0
   55.5457   23.1055   47.6290 H   0  0  0  0  0  0  0  0  0  0  0  0
   54.9332   21.4169   47.6290 H   0  0  0  0  0  0  0  0  0  0  0  0
   59.6786   25.6834   47.3901 H   0  0  0  0  0  0  0  0  0  0  0  0
   60.2328   28.4927   48.0525 H   0  0  0  0  0  0  0  0  0  0  0  0
   61.0051   28.1984   46.5260 H   0  0  0  0  0  0  0  0  0  0  0  0
  1  2  1  0
  2  3  1  0
  3  4  1  0
  4  5  1  0
  3  6  1  0
  6  7  1  0
  7  8  1  0
  8  9  1  0
  9 10  2  0
 10 11  1  0
 11 12  2  0
 12 13  1  0
 12 14  1  0
 14 15  2  0
 15 16  1  0
 16 17  2  0
 17 18  1  0
 18 19  2  0
 11 20  1  0
 20 21  2  0
 21 22  1  0
 22 23  1  0
 23 24  1  0
 22 25  2  0
 25 26  1  0
 26 27  1  0
 27 28  1  0
 28 29  1  0
 29 30  1  0
 29 31  1  0
 25 32  1  0
 32 33  2  0
 33 34  1  0
 19  9  1  0
 33 20  1  0
 34 10  1  0
 19 14  1  0
  1 35  1  0
  1 36  1  0
  1 37  1  0
  2 38  1  0
  2 39  1  0
  4 40  1  0
  4 41  1  0
  5 42  1  0
  5 43  1  0
  5 44  1  0
  6 45  1  0
  6 46  1  0
  7 47  1  0
  7 48  1  0
  8 49  1  0
 13 50  1  0
 13 51  1  0
 13 52  1  0
 15 53  1  0
 16 54  1  0
 17 55  1  0
 18 56  1  0
 21 57  1  0
 24 58  1  0
 24 59  1  0
 24 60  1  0
 26 61  1  0
 27 62  1  0
 27 63  1  0
 28 64  1  0
 28 65  1  0
 30 66  1  0
 30 67  1  0
 30 68  1  0
 31 69  1  0
 31 70  1  0
 31 71  1  0
 32 72  1  0
 34 73  1  0
 34 74  1  0
M  CHG  1  12   1
M  END
>  <UniqueID>  (21) 
21

>  <SMILES>  (21) 
CCN(CC)CCNc1c2c([n+](C)c3ccccc13)-c1cc(OC)c(NCCN(C)C)cc1C2

>  <Energy>  (21) 
120.68142192124803

>  <Genealogy>  (21) 
CCN(CC)CCNc1c2c([n+](C)c3ccccc13)-c1cc(OC)c(NCCN(C)C)cc1C2 (3D coordinates assigned)
CCN(CC)CCNc1c2c([n+](C)c3ccccc13)-c1cc(OC)c(NCCN(C)C)cc1C2 (nonaromatic ring conformer: 120.68142192124803 kcal/mol)

>  <smiles>  (21) 
CCN(CC)CCNc1c2c([n+](C)c3ccccc13)-c1cc(OC)c(NCCN(C)C)cc1C2

>  <score_type>  (21) 
oracle

>  <origin>  (21) 
adg

>  <m_score__min__energy>  (21) 
-6.4699999999999998

>  <m_primary>  (21) 
energy

$$$$
21:0
     RDKit          3D

 87 90  0  0  0  0  0  0  0  0999 V2000
   60.8450   26.6460   52.3600 C   0  0  0  0  0  0  0  0  0  0  0  0
   59.8170   27.2220   53.3390 C   0  0  0  0  0  0  0  0  0  0  0  0
   59.2160   28.4220   52.8810 O   0  0  0  0  0  0  0  0  0  0  0  0
   58.0560   28.7840   53.6170 C   0  0  0  0  0  0  0  0  0  0  0  0
   56.9100   29.2950   52.7280 C   0  0  0  0  0  0  0  0  0  0  0  0
   57.4080   30.0560   51.6440 O   0  0  0  0  0  0  0  0  0  0  0  0
   56.8510   31.3590   51.6080 C   0  0  0  0  0  0  0  0  0  0  0  0
   57.4210   32.2610   52.7190 C   0  0  0  0  0  0  0  0  0  0  0  0
   58.8380   32.1830   52.7810 O   0  0  0  0  0  0  0  0  0  0  0  0
   59.4460   33.3940   52.3530 C   0  0  0  0  0  0  0  0  0  0  0  0
   59.3080   33.6270   50.8360 C   0  0  0  0  0  0  0  0  0  0  0  0
   60.2130   32.7760   50.0520 N   0  0  0  0  0  0  0  0  0  0  0  0
   59.7650   32.1830   48.8240 C   0  0  0  0  0  0  0  0  0  0  0  0
   59.5270   33.0420   47.7360 C   0  0  0  0  0  0  0  0  0  0  0  0
   59.5590   34.4480   47.9050 C   0  0  0  0  0  0  0  0  0  0  0  0
   59.3980   35.3040   46.8190 C   0  0  0  0  0  0  0  0  0  0  0  0
   59.2210   34.7810   45.5450 C   0  0  0  0  0  0  0  0  0  0  0  0
   59.1530   33.4010   45.3560 C   0  0  0  0  0  0  0  0  0  0  0  0
   59.2560   32.5060   46.4570 C   0  0  0  0  0  0  0  0  0  0  0  0
   59.1350   31.1430   46.2980 N   0  0  0  0  0  0  0  0  0  0  0  0
   58.5500   30.5960   45.0500 C   0  0  0  0  0  0  0  0  0  0  0  0
   59.4940   30.2850   47.3170 C   0  0  0  0  0  0  0  0  0  0  0  0
   59.6850   28.9110   47.0550 C   0  0  0  0  0  0  0  0  0  0  0  0
   59.9450   28.0150   48.0770 C   0  0  0  0  0  0  0  0  0  0  0  0
   60.0020   28.4490   49.3870 C   0  0  0  0  0  0  0  0  0  0  0  0
   59.8680   29.8180   49.7200 C   0  0  0  0  0  0  0  0  0  0  0  0
   59.8750   30.2490   51.1140 N   0  0  0  0  0  0  0  0  0  0  0  0
   61.1880   30.3890   51.7850 C   0  0  0  0  0  0  0  0  0  0  0  0
   62.3550   30.5180   50.7760 C   0  0  0  0  0  0  0  0  0  0  0  0
   63.2620   31.7440   51.0750 C   0  0  0  0  0  0  0  0  0  0  0  0
   64.0260   32.2720   49.8980 N   0  0  0  0  0  0  0  0  0  0  0  0
   65.4720   31.9870   50.0920 C   0  0  0  0  0  0  0  0  0  0  0  0
   63.5480   31.6160   48.6300 C   0  0  0  0  0  0  0  0  0  0  0  0
   63.7200   32.5090   47.3890 C   0  0  0  0  0  0  0  0  0  0  0  0
   62.9030   33.8080   47.5120 C   0  0  0  0  0  0  0  0  0  0  0  0
   62.6710   34.2110   48.9730 C   0  0  0  0  0  0  0  0  0  0  0  0
   63.8560   33.7690   49.8470 C   0  0  0  0  0  0  0  0  0  0  0  0
   59.7140   30.7720   48.6430 C   0  0  0  0  0  0  0  0  0  0  0  0
   61.6692   26.1842   52.9234 H   0  0  0  0  0  0  0  0  0  0  0  0
   60.3629   25.8866   51.7268 H   0  0  0  0  0  0  0  0  0  0  0  0
   61.2410   27.4536   51.7268 H   0  0  0  0  0  0  0  0  0  0  0  0
   59.0264   26.4733   53.4954 H   0  0  0  0  0  0  0  0  0  0  0  0
   60.3523   27.4608   54.2698 H   0  0  0  0  0  0  0  0  0  0  0  0
   57.7028   27.9009   54.1696 H   0  0  0  0  0  0  0  0  0  0  0  0
   58.3393   29.6064   54.2903 H   0  0  0  0  0  0  0  0  0  0  0  0
   56.3487   28.4344   52.3352 H   0  0  0  0  0  0  0  0  0  0  0  0
   56.2560   29.9378   53.3355 H   0  0  0  0  0  0  0  0  0  0  0  0
   57.0744   31.8139   50.6317 H   0  0  0  0  0  0  0  0  0  0  0  0
   55.7661   31.2693   51.7663 H   0  0  0  0  0  0  0  0  0  0  0  0
   57.1294   33.3024   52.5179 H   0  0  0  0  0  0  0  0  0  0  0  0
   57.0153   31.9181   53.6822 H   0  0  0  0  0  0  0  0  0  0  0  0
   58.9700   34.2326   52.8823 H   0  0  0  0  0  0  0  0  0  0  0  0
   60.5198   33.3246   52.5814 H   0  0  0  0  0  0  0  0  0  0  0  0
   58.2719   33.4085   50.5383 H   0  0  0  0  0  0  0  0  0  0  0  0
   59.5745   34.6747   50.6330 H   0  0  0  0  0  0  0  0  0  0  0  0
   61.0450   32.3330   50.5050 H   0  0  0  0  0  0  0  0  0  0  0  0
   59.7133   34.8697   48.9092 H   0  0  0  0  0  0  0  0  0  0  0  0
   59.4110   36.3935   46.9700 H   0  0  0  0  0  0  0  0  0  0  0  0
   59.1341   35.4574   44.6819 H   0  0  0  0  0  0  0  0  0  0  0  0
   59.0178   32.9988   44.3411 H   0  0  0  0  0  0  0  0  0  0  0  0
   57.7678   29.8646   45.3015 H   0  0  0  0  0  0  0  0  0  0  0  0
   58.1107   31.4148   44.4613 H   0  0  0  0  0  0  0  0  0  0  0  0
   59.3375   30.1028   44.4613 H   0  0  0  0  0  0  0  0  0  0  0  0
   59.6260   28.5458   46.0191 H   0  0  0  0  0  0  0  0  0  0  0  0
   60.1071   26.9520   47.8450 H   0  0  0  0  0  0  0  0  0  0  0  0
   60.1551   27.7133   50.1903 H   0  0  0  0  0  0  0  0  0  0  0  0
   59.3450   29.5310   51.6640 H   0  0  0  0  0  0  0  0  0  0  0  0
   59.3930   31.1660   51.1790 H   0  0  0  0  0  0  0  0  0  0  0  0
   61.1672   31.2883   52.4181 H   0  0  0  0  0  0  0  0  0  0  0  0
   61.3587   29.4805   52.3813 H   0  0  0  0  0  0  0  0  0  0  0  0
   62.9670   29.6053   50.8247 H   0  0  0  0  0  0  0  0  0  0  0  0
   61.9201   30.6579   49.7754 H   0  0  0  0  0  0  0  0  0  0  0  0
   62.6244   32.5541   51.4586 H   0  0  0  0  0  0  0  0  0  0  0  0
   64.0148   31.3988   51.7990 H   0  0  0  0  0  0  0  0  0  0  0  0
   65.6959   31.9429   51.1681 H   0  0  0  0  0  0  0  0  0  0  0  0
   65.7214   31.0224   49.6257 H   0  0  0  0  0  0  0  0  0  0  0  0
   66.0687   32.7848   49.6257 H   0  0  0  0  0  0  0  0  0  0  0  0
   64.1209   30.6895   48.4772 H   0  0  0  0  0  0  0  0  0  0  0  0
   62.4721   31.4191   48.7469 H   0  0  0  0  0  0  0  0  0  0  0  0
   64.7840   32.7650   47.2773 H   0  0  0  0  0  0  0  0  0  0  0  0
   63.3569   31.9543   46.5112 H   0  0  0  0  0  0  0  0  0  0  0  0
   63.4467   34.6178   47.0034 H   0  0  0  0  0  0  0  0  0  0  0  0
   61.9201   33.6334   47.0500 H   0  0  0  0  0  0  0  0  0  0  0  0
   62.5634   35.3040   49.0345 H   0  0  0  0  0  0  0  0  0  0  0  0
   61.7569   33.7194   49.3373 H   0  0  0  0  0  0  0  0  0  0  0  0
   64.7765   34.2124   49.4393 H   0  0  0  0  0  0  0  0  0  0  0  0
   63.6535   34.1116   50.8725 H   0  0  0  0  0  0  0  0  0  0  0  0
  1  2  1  0
  2  3  1  0
  3  4  1  0
  4  5  1  0
  5  6  1  0
  6  7  1  0
  7  8  1  0
  8  9  1  0
  9 10  1  0
 10 11  1  0
 11 12  1  0
 12 13  1  0
 13 14  2  0
 14 15  1  0
 15 16  2  0
 16 17  1  0
 17 18  2  0
 18 19  1  0
 19 20  2  0
 20 21  1  0
 20 22  1  0
 22 23  2  0
 23 24  1  0
 24 25  2  0
 25 26  1  0
 26 27  1  0
 27 28  1  0
 28 29  1  0
 29 30  1  0
 30 31  1  0
 31 32  1  0
 31 33  1  0
 33 34  1  0
 34 35  1  0
 35 36  1  0
 36 37  1  0
 26 38  2  0
 38 13  1  0
 19 14  1  0
 38 22  1  0
 37 31  1  0
  1 39  1  0
  1 40  1  0
  1 41  1  0
  2 42  1  0
  2 43  1  0
  4 44  1  0
  4 45  1  0
  5 46  1  0
  5 47  1  0
  7 48  1  0
  7 49  1  0
  8 50  1  0
  8 51  1  0
 10 52  1  0
 10 53  1  0
 11 54  1  0
 11 55  1  0
 12 56  1  0
 15 57  1  0
 16 58  1  0
 17 59  1  0
 18 60  1  0
 21 61  1  0
 21 62  1  0
 21 63  1  0
 23 64  1  0
 24 65  1  0
 25 66  1  0
 27 67  1  0
 27 68  1  0
 28 69  1  0
 28 70  1  0
 29 71  1  0
 29 72  1  0
 30 73  1  0
 30 74  1  0
 32 75  1  0
 32 76  1  0
 32 77  1  0
 33 78  1  0
 33 79  1  0
 34 80  1  0
 34 81  1  0
 35 82  1  0
 35 83  1  0
 36 84  1  0
 36 85  1  0
 37 86  1  0
 37 87  1  0
M  CHG  3  20   1  27   1  31   1
M  END
>  <UniqueID>  (22) 
22

>  <SMILES>  (22) 
CCOCCOCCOCCNc1c2ccccc2[n+](C)c2cccc([NH2+]CCC[N+]3(C)CCCCC3)c12

>  <Energy>  (22) 
155.191755581202

>  <Genealogy>  (22) 
CCOCCOCCOCCNc1c2ccccc2[n+](C)c2cccc([NH2+]CCC[N+]3(C)CCCCC3)c12 (protonated)
CCOCCOCCOCCNc1c2ccccc2[n+](C)c2cccc([NH2+]CCC[N+]3(C)CCCCC3)c12 (3D coordinates assigned)
CCOCCOCCOCCNc1c2ccccc2[n+](C)c2cccc([NH2+]CCC[N+]3(C)CCCCC3)c12 (nonaromatic ring conformer: 155.191755581202 kcal/mol)

>  <smiles>  (22) 
CCOCCOCCOCCNc1c2ccccc2[n+](C)c2cccc(NCCC[N+]3(C)CCCCC3)c12

>  <score_type>  (22) 
oracle

>  <origin>  (22) 
adg

>  <m_score__min__energy>  (22) 
-2.4900000000000002

>  <m_primary>  (22) 
energy

$$$$
22:0
     RDKit          3D

 58 61  0  0  0  0  0  0  0  0999 V2000
   58.8870   32.6770   51.2060 C   0  0  0  0  0  0  0  0  0  0  0  0
   57.6210   31.8610   50.9830 C   0  0  0  0  0  0  0  0  0  0  0  0
   57.9560   30.5220   50.6630 O   0  0  0  0  0  0  0  0  0  0  0  0
   58.4090   29.8130   51.8030 C   0  0  0  0  0  0  0  0  0  0  0  0
   59.6460   28.9620   51.4800 C   0  0  0  0  0  0  0  0  0  0  0  0
   59.6760   28.6040   50.1080 O   0  0  0  0  0  0  0  0  0  0  0  0
   60.9270   28.9100   49.5200 C   0  0  0  0  0  0  0  0  0  0  0  0
   60.8180   30.1350   48.5980 C   0  0  0  0  0  0  0  0  0  0  0  0
   59.4280   30.6140   48.4570 N   0  0  0  0  0  0  0  0  0  0  0  0
   59.1590   31.1210   47.1230 C   0  0  0  0  0  0  0  0  0  0  0  0
   59.2320   32.5160   46.8020 C   0  0  0  0  0  0  0  0  0  0  0  0
   59.5640   33.4960   47.7740 C   0  0  0  0  0  0  0  0  0  0  0  0
   59.5700   34.8530   47.4610 C   0  0  0  0  0  0  0  0  0  0  0  0
   59.2430   35.2770   46.1820 C   0  0  0  0  0  0  0  0  0  0  0  0
   58.9230   34.3490   45.1960 C   0  0  0  0  0  0  0  0  0  0  0  0
   58.9320   32.9570   45.4650 C   0  0  0  0  0  0  0  0  0  0  0  0
   58.6350   32.0420   44.4700 N   0  0  0  0  0  0  0  0  0  0  0  0
   58.4620   32.4650   43.0670 C   0  0  0  0  0  0  0  0  0  0  0  0
   58.4910   30.7260   44.8140 C   0  0  0  0  0  0  0  0  0  0  0  0
   58.0770   29.7350   43.9890 N   0  0  0  0  0  0  0  0  0  0  0  0
   58.1010   28.6180   44.7330 C   0  0  0  0  0  0  0  0  0  0  0  0
   57.7550   27.3390   44.3010 C   0  0  0  0  0  0  0  0  0  0  0  0
   57.8410   26.2830   45.2170 C   0  0  0  0  0  0  0  0  0  0  0  0
   58.2620   26.5180   46.5500 C   0  0  0  0  0  0  0  0  0  0  0  0
   58.3660   25.4860   47.4930 O   0  0  0  0  0  0  0  0  0  0  0  0
   57.3500   24.5220   47.7430 C   0  0  0  0  0  0  0  0  0  0  0  0
   58.5950   27.8240   46.9580 C   0  0  0  0  0  0  0  0  0  0  0  0
   58.5120   28.8720   46.0250 C   0  0  0  0  0  0  0  0  0  0  0  0
   58.7550   30.2510   46.0890 C   0  0  0  0  0  0  0  0  0  0  0  0
   59.0642   32.7912   52.2856 H   0  0  0  0  0  0  0  0  0  0  0  0
   59.7423   32.1597   50.7467 H   0  0  0  0  0  0  0  0  0  0  0  0
   58.7691   33.6696   50.7467 H   0  0  0  0  0  0  0  0  0  0  0  0
   57.0128   31.8750   51.8994 H   0  0  0  0  0  0  0  0  0  0  0  0
   57.0518   32.2991   50.1499 H   0  0  0  0  0  0  0  0  0  0  0  0
   58.6669   30.5335   52.5932 H   0  0  0  0  0  0  0  0  0  0  0  0
   57.6039   29.1408   52.1346 H   0  0  0  0  0  0  0  0  0  0  0  0
   60.5514   29.5385   51.7206 H   0  0  0  0  0  0  0  0  0  0  0  0
   59.6028   28.0412   52.0802 H   0  0  0  0  0  0  0  0  0  0  0  0
   61.6560   29.1226   50.3158 H   0  0  0  0  0  0  0  0  0  0  0  0
   61.2521   28.0476   48.9196 H   0  0  0  0  0  0  0  0  0  0  0  0
   61.4304   30.9473   49.0165 H   0  0  0  0  0  0  0  0  0  0  0  0
   61.1714   29.8353   47.6004 H   0  0  0  0  0  0  0  0  0  0  0  0
   58.7620   29.8740   48.7580 H   0  0  0  0  0  0  0  0  0  0  0  0
   59.2430   31.3750   49.1440 H   0  0  0  0  0  0  0  0  0  0  0  0
   59.8217   33.1771   48.7948 H   0  0  0  0  0  0  0  0  0  0  0  0
   59.8353   35.5916   48.2317 H   0  0  0  0  0  0  0  0  0  0  0  0
   59.2366   36.3514   45.9459 H   0  0  0  0  0  0  0  0  0  0  0  0
   58.6580   34.7021   44.1885 H   0  0  0  0  0  0  0  0  0  0  0  0
   58.0457   33.4828   43.0396 H   0  0  0  0  0  0  0  0  0  0  0  0
   59.4370   32.4537   42.5578 H   0  0  0  0  0  0  0  0  0  0  0  0
   57.7743   31.7738   42.5578 H   0  0  0  0  0  0  0  0  0  0  0  0
   57.7610   29.7920   42.9960 H   0  0  0  0  0  0  0  0  0  0  0  0
   57.4229   27.1634   43.2671 H   0  0  0  0  0  0  0  0  0  0  0  0
   57.5797   25.2628   44.8994 H   0  0  0  0  0  0  0  0  0  0  0  0
   57.2204   24.3990   48.8284 H   0  0  0  0  0  0  0  0  0  0  0  0
   56.4039   24.8624   47.2970 H   0  0  0  0  0  0  0  0  0  0  0  0
   57.6402   23.5593   47.2970 H   0  0  0  0  0  0  0  0  0  0  0  0
   58.9154   28.0211   47.9917 H   0  0  0  0  0  0  0  0  0  0  0  0
  1  2  1  0
  2  3  1  0
  3  4  1  0
  4  5  1  0
  5  6  1  0
  6  7  1  0
  7  8  1  0
  8  9  1  0
  9 10  1  0
 10 11  2  0
 11 12  1  0
 12 13  2  0
 13 14  1  0
 14 15  2  0
 15 16  1  0
 16 17  2  0
 17 18  1  0
 17 19  1  0
 19 20  1  0
 20 21  1  0
 21 22  2  0
 22 23  1  0
 23 24  2  0
 24 25  1  0
 25 26  1  0
 24 27  1  0
 27 28  2  0
 28 29  1  0
 29 10  1  0
 16 11  1  0
 29 19  2  0
 28 21  1  0
  1 30  1  0
  1 31  1  0
  1 32  1  0
  2 33  1  0
  2 34  1  0
  4 35  1  0
  4 36  1  0
  5 37  1  0
  5 38  1  0
  7 39  1  0
  7 40  1  0
  8 41  1  0
  8 42  1  0
  9 43  1  0
  9 44  1  0
 12 45  1  0
 13 46  1  0
 14 47  1  0
 15 48  1  0
 18 49  1  0
 18 50  1  0
 18 51  1  0
 20 52  1  0
 22 53  1  0
 23 54  1  0
 26 55  1  0
 26 56  1  0
 26 57  1  0
 27 58  1  0
M  CHG  2   9   1  17   1
M  END
>  <UniqueID>  (23) 
23

>  <SMILES>  (23) 
CCOCCOCC[NH2+]c1c2ccccc2[n+](C)c2[nH]c3ccc(OC)cc3c12

>  <Energy>  (23) 
120.1456066814523

>  <Genealogy>  (23) 
CCOCCOCC[NH2+]c1c2ccccc2[n+](C)c2[nH]c3ccc(OC)cc3c12 (protonated)
CCOCCOCC[NH2+]c1c2ccccc2[n+](C)c2[nH]c3ccc(OC)cc3c12 (3D coordinates assigned)
CCOCCOCC[NH2+]c1c2ccccc2[n+](C)c2[nH]c3ccc(OC)cc3c12 (optimized conformer: 120.1456066814523 kcal/mol)

>  <smiles>  (23) 
CCOCCOCCNc1c2ccccc2[n+](C)c2[nH]c3ccc(OC)cc3c12

>  <score_type>  (23) 
oracle

>  <origin>  (23) 
adg

>  <m_score__min__energy>  (23) 
-3.23

>  <m_primary>  (23) 
energy

$$$$
23:0
     RDKit          3D

 53 53  0  0  0  0  0  0  0  0999 V2000
   57.2730   31.1640   43.8750 C   0  0  0  0  0  0  0  0  0  0  0  0
   58.0350   32.4800   43.7220 C   0  0  0  0  0  0  0  0  0  0  0  0
   58.2920   33.0980   45.0460 N   0  0  0  0  0  0  0  0  0  0  0  0
   57.0210   33.4120   45.7310 C   0  0  0  0  0  0  0  0  0  0  0  0
   59.1170   34.3210   44.9010 C   0  0  0  0  0  0  0  0  0  0  0  0
   60.2230   34.4100   45.9730 C   0  0  0  0  0  0  0  0  0  0  0  0
   59.9280   33.7180   47.1780 O   0  0  0  0  0  0  0  0  0  0  0  0
   59.7750   34.5740   48.3010 C   0  0  0  0  0  0  0  0  0  0  0  0
   59.8010   33.8490   49.6510 C   0  0  0  0  0  0  0  0  0  0  0  0
   58.9320   32.7290   49.6210 O   0  0  0  0  0  0  0  0  0  0  0  0
   59.5030   31.6990   48.9130 N   0  0  1  0  0  0  0  0  0  0  0  0
   59.9450   30.6810   49.8780 C   0  0  0  0  0  0  0  0  0  0  0  0
   58.5190   31.1630   47.9410 C   0  0  0  0  0  0  0  0  0  0  0  0
   59.1190   30.1850   46.9410 C   0  0  0  0  0  0  0  0  0  0  0  0
   58.3200   29.1580   46.4070 C   0  0  0  0  0  0  0  0  0  0  0  0
   58.8590   28.2430   45.4970 C   0  0  0  0  0  0  0  0  0  0  0  0
   57.7720   26.8310   44.8040 Br  0  0  0  0  0  0  0  0  0  0  0  0
   60.1950   28.3520   45.1060 C   0  0  0  0  0  0  0  0  0  0  0  0
   60.9970   29.3730   45.6210 C   0  0  0  0  0  0  0  0  0  0  0  0
   60.4680   30.3030   46.5370 C   0  0  0  0  0  0  0  0  0  0  0  0
   61.2560   31.3250   47.0940 O   0  0  0  0  0  0  0  0  0  0  0  0
   62.6830   31.3540   47.1430 C   0  0  0  0  0  0  0  0  0  0  0  0
   63.2080   32.7920   47.1480 C   0  0  0  0  0  0  0  0  0  0  0  0
   63.3750   33.4910   48.9520 Br  0  0  0  0  0  0  0  0  0  0  0  0
   57.1422   30.9381   44.9436 H   0  0  0  0  0  0  0  0  0  0  0  0
   56.2869   31.2534   43.3958 H   0  0  0  0  0  0  0  0  0  0  0  0
   57.8414   30.3533   43.3958 H   0  0  0  0  0  0  0  0  0  0  0  0
   58.9956   32.2844   43.2229 H   0  0  0  0  0  0  0  0  0  0  0  0
   57.4255   33.1722   43.1226 H   0  0  0  0  0  0  0  0  0  0  0  0
   57.1724   33.3746   46.8199 H   0  0  0  0  0  0  0  0  0  0  0  0
   56.6876   34.4195   45.4415 H   0  0  0  0  0  0  0  0  0  0  0  0
   56.2568   32.6756   45.4415 H   0  0  0  0  0  0  0  0  0  0  0  0
   59.5874   34.3149   43.9067 H   0  0  0  0  0  0  0  0  0  0  0  0
   58.4554   35.1908   45.0262 H   0  0  0  0  0  0  0  0  0  0  0  0
   61.1466   33.9874   45.5506 H   0  0  0  0  0  0  0  0  0  0  0  0
   60.3202   35.4734   46.2369 H   0  0  0  0  0  0  0  0  0  0  0  0
   60.5930   35.3093   48.2884 H   0  0  0  0  0  0  0  0  0  0  0  0
   58.7824   35.0395   48.2110 H   0  0  0  0  0  0  0  0  0  0  0  0
   60.8257   33.5086   49.8612 H   0  0  0  0  0  0  0  0  0  0  0  0
   59.4673   34.5418   50.4375 H   0  0  0  0  0  0  0  0  0  0  0  0
   60.3700   31.9870   48.3850 H   0  0  0  0  0  0  0  0  0  0  0  0
   59.7842   31.0514   50.9012 H   0  0  0  0  0  0  0  0  0  0  0  0
   59.3669   29.7574   49.7273 H   0  0  0  0  0  0  0  0  0  0  0  0
   61.0145   30.4728   49.7273 H   0  0  0  0  0  0  0  0  0  0  0  0
   57.7252   30.6456   48.4997 H   0  0  0  0  0  0  0  0  0  0  0  0
   58.1366   32.0185   47.3649 H   0  0  0  0  0  0  0  0  0  0  0  0
   57.2650   29.0740   46.7069 H   0  0  0  0  0  0  0  0  0  0  0  0
   60.6172   27.6315   44.3901 H   0  0  0  0  0  0  0  0  0  0  0  0
   62.0489   29.4513   45.3091 H   0  0  0  0  0  0  0  0  0  0  0  0
   63.0209   30.8455   48.0580 H   0  0  0  0  0  0  0  0  0  0  0  0
   63.0725   30.8443   46.2494 H   0  0  0  0  0  0  0  0  0  0  0  0
   64.1962   32.8122   46.6652 H   0  0  0  0  0  0  0  0  0  0  0  0
   62.4891   33.4208   46.6023 H   0  0  0  0  0  0  0  0  0  0  0  0
  1  2  1  0
  2  3  1  0
  3  4  1  0
  3  5  1  0
  5  6  1  0
  6  7  1  0
  7  8  1  0
  8  9  1  0
  9 10  1  0
 10 11  1  0
 11 12  1  0
 11 13  1  0
 13 14  1  0
 14 15  2  0
 15 16  1  0
 16 17  1  0
 16 18  2  0
 18 19  1  0
 19 20  2  0
 20 21  1  0
 21 22  1  0
 22 23  1  0
 23 24  1  0
 20 14  1  0
  1 25  1  0
  1 26  1  0
  1 27  1  0
  2 28  1  0
  2 29  1  0
  4 30  1  0
  4 31  1  0
  4 32  1  0
  5 33  1  0
  5 34  1  0
  6 35  1  0
  6 36  1  0
  8 37  1  0
  8 38  1  0
  9 39  1  0
  9 40  1  0
 11 41  1  6
 12 42  1  0
 12 43  1  0
 12 44  1  0
 13 45  1  0
 13 46  1  0
 15 47  1  0
 18 48  1  0
 19 49  1  0
 22 50  1  0
 22 51  1  0
 23 52  1  0
 23 53  1  0
M  CHG  1  11   1
M  END
>  <UniqueID>  (24) 
24

>  <SMILES>  (24) 
CCN(C)CCOCCO[N@@H+](C)Cc1cc(Br)ccc1OCCBr

>  <Energy>  (24) 
60.76439412076219

>  <Genealogy>  (24) 
CCN(C)CCOCCO[NH+](C)Cc1cc(Br)ccc1OCCBr (protonated)
CCN(C)CCOCCO[N@@H+](C)Cc1cc(Br)ccc1OCCBr (chirality)
CCN(C)CCOCCO[N@@H+](C)Cc1cc(Br)ccc1OCCBr (3D coordinates assigned)
CCN(C)CCOCCO[N@@H+](C)Cc1cc(Br)ccc1OCCBr (optimized conformer: 60.76439412076219 kcal/mol)

>  <smiles>  (24) 
CCN(C)CCOCCON(C)Cc1cc(Br)ccc1OCCBr

>  <score_type>  (24) 
oracle

>  <origin>  (24) 
adg

>  <m_score__min__energy>  (24) 
-4.1200000000000001

>  <m_primary>  (24) 
energy

$$$$
24:0
     RDKit          3D

 27 27  0  0  0  0  0  0  0  0999 V2000
   62.0170   31.2660   48.8970 C   0  0  0  0  0  0  0  0  0  0  0  0
   62.6940   31.5320   47.5490 C   0  0  0  0  0  0  0  0  0  0  0  0
   63.5950   32.7230   47.6020 N   0  0  0  0  0  0  0  0  0  0  0  0
   63.7870   33.1900   48.9990 C   0  0  0  0  0  0  0  0  0  0  0  0
   65.1110   32.6980   49.5960 C   0  0  0  0  0  0  0  0  0  0  0  0
   63.0590   33.8350   46.7810 C   0  0  0  0  0  0  0  0  0  0  0  0
   61.6120   33.9680   46.9540 N   0  0  0  0  0  0  0  0  0  0  0  0
   60.6820   33.7830   45.9990 C   0  0  0  0  0  0  0  0  0  0  0  0
   59.4460   33.9770   46.5710 C   0  0  0  0  0  0  0  0  0  0  0  0
   57.7460   33.8410   45.7200 Br  0  0  0  0  0  0  0  0  0  0  0  0
   59.6980   34.2810   47.8940 C   0  0  0  0  0  0  0  0  0  0  0  0
   61.0280   34.2670   48.1050 N   0  0  0  0  0  0  0  0  0  0  0  0
   62.7044   31.5361   49.7122 H   0  0  0  0  0  0  0  0  0  0  0  0
   61.1018   31.8714   48.9734 H   0  0  0  0  0  0  0  0  0  0  0  0
   61.7586   30.1995   48.9734 H   0  0  0  0  0  0  0  0  0  0  0  0
   63.2878   30.6493   47.2692 H   0  0  0  0  0  0  0  0  0  0  0  0
   61.9074   31.7330   46.8068 H   0  0  0  0  0  0  0  0  0  0  0  0
   64.5420   32.4880   47.2160 H   0  0  0  0  0  0  0  0  0  0  0  0
   63.7806   34.2899   49.0091 H   0  0  0  0  0  0  0  0  0  0  0  0
   62.9681   32.7799   49.6083 H   0  0  0  0  0  0  0  0  0  0  0  0
   65.0491   32.7210   50.6940 H   0  0  0  0  0  0  0  0  0  0  0  0
   65.3040   31.6681   49.2611 H   0  0  0  0  0  0  0  0  0  0  0  0
   65.9297   33.3519   49.2611 H   0  0  0  0  0  0  0  0  0  0  0  0
   63.5450   34.7734   47.0861 H   0  0  0  0  0  0  0  0  0  0  0  0
   63.2658   33.6188   45.7225 H   0  0  0  0  0  0  0  0  0  0  0  0
   60.8757   33.5229   44.9479 H   0  0  0  0  0  0  0  0  0  0  0  0
   58.9341   34.4998   48.6546 H   0  0  0  0  0  0  0  0  0  0  0  0
  1  2  1  0
  2  3  1  0
  3  4  1  0
  4  5  1  0
  3  6  1  0
  6  7  1  0
  7  8  1  0
  8  9  2  0
  9 10  1  0
  9 11  1  0
 11 12  2  0
 12  7  1  0
  1 13  1  0
  1 14  1  0
  1 15  1  0
  2 16  1  0
  2 17  1  0
  3 18  1  0
  4 19  1  0
  4 20  1  0
  5 21  1  0
  5 22  1  0
  5 23  1  0
  6 24  1  0
  6 25  1  0
  8 26  1  0
 11 27  1  0
M  CHG  1   3   1
M  END
>  <UniqueID>  (25) 
25

>  <SMILES>  (25) 
CC[NH+](CC)Cn1cc(Br)cn1

>  <Energy>  (25) 
55.26290197632023

>  <Genealogy>  (25) 
CC[NH+](CC)Cn1cc(Br)cn1 (protonated)
CC[NH+](CC)Cn1cc(Br)cn1 (3D coordinates assigned)
CC[NH+](CC)Cn1cc(Br)cn1 (optimized conformer: 55.26290197632023 kcal/mol)

>  <smiles>  (25) 
CCN(CC)Cn1cc(Br)cn1

>  <score_type>  (25) 
oracle

>  <origin>  (25) 
adg

>  <m_score__min__energy>  (25) 
-3.5699999999999998

>  <m_primary>  (25) 
energy

$$$$
