0:0
     RDKit          3D

 47 49  0  0  0  0  0  0  0  0999 V2000
   60.2930   33.3890   50.3530 C   0  0  0  0  0  0  0  0  0  0  0  0
   59.6390   34.3520   49.5640 O   0  0  0  0  0  0  0  0  0  0  0  0
   59.3060   34.1060   48.2420 C   0  0  0  0  0  0  0  0  0  0  0  0
   59.9080   34.9500   47.3010 C   0  0  0  0  0  0  0  0  0  0  0  0
   59.6220   34.7650   45.9600 C   0  0  0  0  0  0  0  0  0  0  0  0
   58.7520   33.7530   45.5830 C   0  0  0  0  0  0  0  0  0  0  0  0
   58.5270   33.6450   44.1960 O   0  0  0  0  0  0  0  0  0  0  0  0
   57.5660   32.7070   43.7570 C   0  0  0  0  0  0  0  0  0  0  0  0
   58.1530   31.3200   43.5490 C   0  0  0  0  0  0  0  0  0  0  0  0
   57.2640   30.2870   44.2080 C   0  0  0  0  0  0  0  0  0  0  0  0
   58.2250   28.9540   44.9360 S   0  0  0  0  0  0  0  0  0  0  0  0
   59.4040   29.5940   46.1100 C   0  0  0  0  0  0  0  0  0  0  0  0
   60.2520   30.6320   46.0040 N   0  0  0  0  0  0  0  0  0  0  0  0
   60.9360   30.7080   47.1620 C   0  0  0  0  0  0  0  0  0  0  0  0
   61.9740   31.6670   47.5500 C   0  0  0  0  0  0  0  0  0  0  0  0
   62.7140   31.5070   48.7280 C   0  0  0  0  0  0  0  0  0  0  0  0
   63.6900   32.3960   49.1090 C   0  0  0  0  0  0  0  0  0  0  0  0
   63.9990   33.4940   48.3550 C   0  0  0  0  0  0  0  0  0  0  0  0
   63.2770   33.6720   47.1820 C   0  0  0  0  0  0  0  0  0  0  0  0
   62.2860   32.7750   46.7890 C   0  0  0  0  0  0  0  0  0  0  0  0
   60.5150   29.7020   48.0150 C   0  0  0  0  0  0  0  0  0  0  0  0
   59.5690   29.0300   47.3390 N   0  0  0  0  0  0  0  0  0  0  0  0
   58.8520   27.8760   47.8790 C   0  0  0  0  0  0  0  0  0  0  0  0
   58.1480   32.9110   46.4850 C   0  0  0  0  0  0  0  0  0  0  0  0
   58.4440   33.1080   47.8420 C   0  0  0  0  0  0  0  0  0  0  0  0
   60.1366   33.6193   51.4172 H   0  0  0  0  0  0  0  0  0  0  0  0
   59.8840   32.3926   50.1295 H   0  0  0  0  0  0  0  0  0  0  0  0
   61.3700   33.4018   50.1295 H   0  0  0  0  0  0  0  0  0  0  0  0
   60.5960   35.7459   47.6221 H   0  0  0  0  0  0  0  0  0  0  0  0
   60.0805   35.4146   45.1999 H   0  0  0  0  0  0  0  0  0  0  0  0
   56.7676   32.6419   44.5109 H   0  0  0  0  0  0  0  0  0  0  0  0
   57.1815   33.0543   42.7866 H   0  0  0  0  0  0  0  0  0  0  0  0
   58.2217   31.1096   42.4715 H   0  0  0  0  0  0  0  0  0  0  0  0
   59.1564   31.2774   43.9978 H   0  0  0  0  0  0  0  0  0  0  0  0
   56.6749   30.7752   44.9984 H   0  0  0  0  0  0  0  0  0  0  0  0
   56.6075   29.8565   43.4375 H   0  0  0  0  0  0  0  0  0  0  0  0
   62.5066   30.6390   49.3711 H   0  0  0  0  0  0  0  0  0  0  0  0
   64.2378   32.2195   50.0464 H   0  0  0  0  0  0  0  0  0  0  0  0
   64.7821   34.2026   48.6628 H   0  0  0  0  0  0  0  0  0  0  0  0
   63.4932   34.5437   46.5468 H   0  0  0  0  0  0  0  0  0  0  0  0
   61.7400   32.9541   45.8510 H   0  0  0  0  0  0  0  0  0  0  0  0
   60.8789   29.4964   49.0325 H   0  0  0  0  0  0  0  0  0  0  0  0
   58.8743   27.9120   48.9782 H   0  0  0  0  0  0  0  0  0  0  0  0
   57.8082   27.8979   47.5326 H   0  0  0  0  0  0  0  0  0  0  0  0
   59.3340   26.9499   47.5326 H   0  0  0  0  0  0  0  0  0  0  0  0
   57.4617   32.1164   46.1572 H   0  0  0  0  0  0  0  0  0  0  0  0
   57.9813   32.4563   48.5978 H   0  0  0  0  0  0  0  0  0  0  0  0
  1  2  1  0
  2  3  1  0
  3  4  2  0
  4  5  1  0
  5  6  2  0
  6  7  1  0
  7  8  1  0
  8  9  1  0
  9 10  1  0
 10 11  1  0
 11 12  1  0
 12 13  2  0
 13 14  1  0
 14 15  1  0
 15 16  2  0
 16 17  1  0
 17 18  2  0
 18 19  1  0
 19 20  2  0
 14 21  2  0
 21 22  1  0
 22 23  1  0
  6 24  1  0
 24 25  2  0
 25  3  1  0
 22 12  1  0
 20 15  1  0
  1 26  1  0
  1 27  1  0
  1 28  1  0
  4 29  1  0
  5 30  1  0
  8 31  1  0
  8 32  1  0
  9 33  1  0
  9 34  1  0
 10 35  1  0
 10 36  1  0
 16 37  1  0
 17 38  1  0
 18 39  1  0
 19 40  1  0
 20 41  1  0
 21 42  1  0
 23 43  1  0
 23 44  1  0
 23 45  1  0
 24 46  1  0
 25 47  1  0
M  END
>  <smiles>  (1) 
COc1ccc(OCCCSc2nc(-c3ccccc3)cn2C)cc1

>  <score_type>  (1) 
oracle

>  <origin>  (1) 
adg

>  <m_score__min__energy>  (1) 
-6.8300000000000001

>  <m_primary>  (1) 
energy

$$$$
1:0
     RDKit          3D

 38 40  0  0  1  0  0  0  0  0999 V2000
   59.6150   34.6730   46.0220 C   0  0  0  0  0  0  0  0  0  0  0  0
   59.7340   33.4230   46.6610 O   0  0  0  0  0  0  0  0  0  0  0  0
   61.0030   32.9670   46.9680 C   0  0  0  0  0  0  0  0  0  0  0  0
   62.0590   33.8820   47.0760 C   0  0  0  0  0  0  0  0  0  0  0  0
   63.3430   33.4840   47.3730 C   0  0  0  0  0  0  0  0  0  0  0  0
   63.5460   32.1330   47.5640 C   0  0  0  0  0  0  0  0  0  0  0  0
   62.5130   31.2320   47.4600 C   0  0  0  0  0  0  0  0  0  0  0  0
   61.1990   31.6210   47.1590 C   0  0  0  0  0  0  0  0  0  0  0  0
   60.1970   30.5690   47.1230 C   0  0  0  0  0  0  0  0  0  0  0  0
   59.8900   30.0730   45.7660 C   0  0  1  0  0  0  0  0  0  0  0  0
   59.9730   28.5810   45.6740 C   0  0  0  0  0  0  0  0  0  0  0  0
   59.5380   28.1600   44.3310 N   0  0  0  0  0  0  0  0  0  0  0  0
   58.0770   28.1830   44.4070 C   0  0  0  0  0  0  0  0  0  0  0  0
   57.6810   29.5920   44.6830 C   0  0  0  0  0  0  0  0  0  0  0  0
   58.5090   30.4960   45.3160 C   0  0  0  0  0  0  0  0  0  0  0  0
   57.8130   31.6840   45.3950 C   0  0  0  0  0  0  0  0  0  0  0  0
   56.6060   31.5030   44.8300 N   0  0  0  0  0  0  0  0  0  0  0  0
   56.5260   30.2580   44.4050 N   0  0  0  0  0  0  0  0  0  0  0  0
   55.3440   29.7170   43.7360 C   0  0  0  0  0  0  0  0  0  0  0  0
   59.5395   35.4666   46.7800 H   0  0  0  0  0  0  0  0  0  0  0  0
   60.5004   34.8493   45.3936 H   0  0  0  0  0  0  0  0  0  0  0  0
   58.7122   34.6791   45.3936 H   0  0  0  0  0  0  0  0  0  0  0  0
   61.8556   34.9515   46.9186 H   0  0  0  0  0  0  0  0  0  0  0  0
   64.1670   34.2081   47.4541 H   0  0  0  0  0  0  0  0  0  0  0  0
   64.5558   31.7690   47.8046 H   0  0  0  0  0  0  0  0  0  0  0  0
   62.7249   30.1644   47.6190 H   0  0  0  0  0  0  0  0  0  0  0  0
   60.5620   29.7239   47.7251 H   0  0  0  0  0  0  0  0  0  0  0  0
   59.2673   31.0035   47.5191 H   0  0  0  0  0  0  0  0  0  0  0  0
   60.6514   30.5198   45.1098 H   0  0  0  0  0  0  0  0  0  0  0  0
   61.0106   28.2579   45.8441 H   0  0  0  0  0  0  0  0  0  0  0  0
   59.3241   28.1243   46.4358 H   0  0  0  0  0  0  0  0  0  0  0  0
   59.7860   28.9660   43.6910 H   0  0  0  0  0  0  0  0  0  0  0  0
   57.6432   27.8479   43.4533 H   0  0  0  0  0  0  0  0  0  0  0  0
   57.7129   27.5094   45.1968 H   0  0  0  0  0  0  0  0  0  0  0  0
   58.1816   32.6186   45.8430 H   0  0  0  0  0  0  0  0  0  0  0  0
   54.6160   29.3838   44.4904 H   0  0  0  0  0  0  0  0  0  0  0  0
   54.8895   30.4967   43.1071 H   0  0  0  0  0  0  0  0  0  0  0  0
   55.6371   28.8634   43.1071 H   0  0  0  0  0  0  0  0  0  0  0  0
  1  2  1  0
  2  3  1  0
  3  4  2  0
  4  5  1  0
  5  6  2  0
  6  7  1  0
  7  8  2  0
  8  9  1  0
  9 10  1  0
 10 11  1  0
 11 12  1  0
 12 13  1  0
 13 14  1  0
 14 15  2  0
 15 16  1  0
 16 17  2  0
 17 18  1  0
 18 19  1  0
  8  3  1  0
 15 10  1  0
 18 14  1  0
  1 20  1  0
  1 21  1  0
  1 22  1  0
  4 23  1  0
  5 24  1  0
  6 25  1  0
  7 26  1  0
  9 27  1  0
  9 28  1  0
 10 29  1  6
 11 30  1  0
 11 31  1  0
 12 32  1  0
 13 33  1  0
 13 34  1  0
 16 35  1  0
 19 36  1  0
 19 37  1  0
 19 38  1  0
M  END
>  <smiles>  (2) 
COc1ccccc1CC1CNCc2c1cnn2C

>  <score_type>  (2) 
oracle

>  <origin>  (2) 
adg

>  <m_score__min__energy>  (2) 
-7.1699999999999999

>  <m_primary>  (2) 
energy

$$$$
2:0
     RDKit          3D

 52 53  0  0  0  0  0  0  0  0999 V2000
   66.9090   33.0450   50.1180 C   0  0  0  0  0  0  0  0  0  0  0  0
   66.0390   31.9040   50.5540 C   0  0  0  0  0  0  0  0  0  0  0  0
   64.5890   32.1130   50.1050 C   0  0  0  0  0  0  0  0  0  0  0  0
   64.5090   33.2100   49.0890 C   0  0  0  0  0  0  0  0  0  0  0  0
   64.0910   32.7630   47.8140 O   0  0  0  0  0  0  0  0  0  0  0  0
   63.2690   33.4720   46.9810 C   0  0  0  0  0  0  0  0  0  0  0  0
   63.7330   34.1130   45.9970 O   0  0  0  0  0  0  0  0  0  0  0  0
   61.8710   33.4700   47.2560 N   0  0  0  0  0  0  0  0  0  0  0  0
   61.2930   32.7510   48.3720 C   0  0  0  0  0  0  0  0  0  0  0  0
   60.2750   31.7210   47.9550 C   0  0  0  0  0  0  0  0  0  0  0  0
   59.5850   32.2080   46.7120 C   0  0  0  0  0  0  0  0  0  0  0  0
   58.2940   31.6290   46.5010 N   0  0  0  0  0  0  0  0  0  0  0  0
   57.4250   32.4020   45.7170 C   0  0  0  0  0  0  0  0  0  0  0  0
   57.0150   31.7270   44.4490 C   0  0  0  0  0  0  0  0  0  0  0  0
   56.4680   30.4380   44.7610 N   0  0  0  0  0  0  0  0  0  0  0  0
   56.1340   29.8070   43.4910 C   0  0  0  0  0  0  0  0  0  0  0  0
   56.6500   30.6400   42.3270 C   0  0  0  0  0  0  0  0  0  0  0  0
   57.3710   29.5750   45.4650 C   0  0  0  0  0  0  0  0  0  0  0  0
   58.1860   30.2360   46.5170 C   0  0  0  0  0  0  0  0  0  0  0  0
   59.5230   33.7150   46.7250 C   0  0  0  0  0  0  0  0  0  0  0  0
   60.9300   34.2080   46.4060 C   0  0  0  0  0  0  0  0  0  0  0  0
   67.3045   33.5638   51.0037 H   0  0  0  0  0  0  0  0  0  0  0  0
   67.7445   32.6595   49.5152 H   0  0  0  0  0  0  0  0  0  0  0  0
   66.3161   33.7487   49.5152 H   0  0  0  0  0  0  0  0  0  0  0  0
   66.4210   30.9718   50.1124 H   0  0  0  0  0  0  0  0  0  0  0  0
   66.0601   31.8485   51.6524 H   0  0  0  0  0  0  0  0  0  0  0  0
   64.2090   31.1806   49.6620 H   0  0  0  0  0  0  0  0  0  0  0  0
   63.9820   32.3918   50.9790 H   0  0  0  0  0  0  0  0  0  0  0  0
   63.7931   33.9650   49.4462 H   0  0  0  0  0  0  0  0  0  0  0  0
   65.5226   33.6213   48.9736 H   0  0  0  0  0  0  0  0  0  0  0  0
   62.1022   32.2418   48.9159 H   0  0  0  0  0  0  0  0  0  0  0  0
   60.7716   33.4887   48.9997 H   0  0  0  0  0  0  0  0  0  0  0  0
   60.7778   30.7644   47.7496 H   0  0  0  0  0  0  0  0  0  0  0  0
   59.5400   31.5705   48.7595 H   0  0  0  0  0  0  0  0  0  0  0  0
   60.1878   31.8716   45.8556 H   0  0  0  0  0  0  0  0  0  0  0  0
   56.5213   32.6171   46.3061 H   0  0  0  0  0  0  0  0  0  0  0  0
   57.9658   33.3184   45.4382 H   0  0  0  0  0  0  0  0  0  0  0  0
   56.2555   32.3355   43.9363 H   0  0  0  0  0  0  0  0  0  0  0  0
   57.8888   31.6102   43.7912 H   0  0  0  0  0  0  0  0  0  0  0  0
   56.5928   28.8080   43.4520 H   0  0  0  0  0  0  0  0  0  0  0  0
   55.0398   29.7266   43.4119 H   0  0  0  0  0  0  0  0  0  0  0  0
   57.1922   31.5152   42.7144 H   0  0  0  0  0  0  0  0  0  0  0  0
   57.3290   30.0305   41.7125 H   0  0  0  0  0  0  0  0  0  0  0  0
   55.8019   30.9765   41.7125 H   0  0  0  0  0  0  0  0  0  0  0  0
   56.7795   28.7797   45.9421 H   0  0  0  0  0  0  0  0  0  0  0  0
   58.0842   29.2020   44.7152 H   0  0  0  0  0  0  0  0  0  0  0  0
   57.7520   29.9553   47.4880 H   0  0  0  0  0  0  0  0  0  0  0  0
   59.2103   29.8847   46.3238 H   0  0  0  0  0  0  0  0  0  0  0  0
   58.8133   34.0729   45.9646 H   0  0  0  0  0  0  0  0  0  0  0  0
   59.1810   34.0910   47.7005 H   0  0  0  0  0  0  0  0  0  0  0  0
   61.1595   34.0227   45.3463 H   0  0  0  0  0  0  0  0  0  0  0  0
   61.0092   35.2886   46.5959 H   0  0  0  0  0  0  0  0  0  0  0  0
  1  2  1  0
  2  3  1  0
  3  4  1  0
  4  5  1  0
  5  6  1  0
  6  7  2  0
  6  8  1  0
  8  9  1  0
  9 10  1  0
 10 11  1  0
 11 12  1  0
 12 13  1  0
 13 14  1  0
 14 15  1  0
 15 16  1  0
 16 17  1  0
 15 18  1  0
 18 19  1  0
 11 20  1  0
 20 21  1  0
 21  8  1  0
 19 12  1  0
  1 22  1  0
  1 23  1  0
  1 24  1  0
  2 25  1  0
  2 26  1  0
  3 27  1  0
  3 28  1  0
  4 29  1  0
  4 30  1  0
  9 31  1  0
  9 32  1  0
 10 33  1  0
 10 34  1  0
 11 35  1  0
 13 36  1  0
 13 37  1  0
 14 38  1  0
 14 39  1  0
 16 40  1  0
 16 41  1  0
 17 42  1  0
 17 43  1  0
 17 44  1  0
 18 45  1  0
 18 46  1  0
 19 47  1  0
 19 48  1  0
 20 49  1  0
 20 50  1  0
 21 51  1  0
 21 52  1  0
M  END
>  <smiles>  (3) 
CCCCOC(=O)N1CCC(N2CCN(CC)CC2)CC1

>  <score_type>  (3) 
oracle

>  <origin>  (3) 
adg

>  <m_score__min__energy>  (3) 
-6.8399999999999999

>  <m_primary>  (3) 
energy

$$$$
4:0
     RDKit          3D

 97100  0  0  0  0  0  0  0  0999 V2000
   56.6550   30.9640   51.9520 C   0  0  0  0  0  0  0  0  0  0  0  0
   57.4860   32.2170   51.9270 C   0  0  0  0  0  0  0  0  0  0  0  0
   58.6780   32.0890   51.1500 N   0  0  0  0  0  0  0  0  0  0  0  0
   59.3740   33.3920   51.2080 C   0  0  0  0  0  0  0  0  0  0  0  0
   58.8290   34.2120   52.3490 C   0  0  0  0  0  0  0  0  0  0  0  0
   58.5200   31.7710   49.7660 C   0  0  0  0  0  0  0  0  0  0  0  0
   58.7870   30.3720   49.3590 C   0  0  0  0  0  0  0  0  0  0  0  0
   59.2460   29.4850   50.2640 O   0  0  0  0  0  0  0  0  0  0  0  0
   60.5880   29.3240   50.4230 C   0  0  0  0  0  0  0  0  0  0  0  0
   61.0380   27.9490   50.8490 C   0  0  0  0  0  0  0  0  0  0  0  0
   60.9940   27.0010   49.8230 O   0  0  0  0  0  0  0  0  0  0  0  0
   60.3870   27.5340   48.7680 N   0  0  0  0  0  0  0  0  0  0  0  0
   60.6330   26.9520   47.4980 C   0  0  0  0  0  0  0  0  0  0  0  0
   59.8010   27.4620   46.3610 C   0  0  0  0  0  0  0  0  0  0  0  0
   60.3590   28.6640   45.7760 N   0  0  0  0  0  0  0  0  0  0  0  0
   59.6960   29.9060   45.7120 C   0  0  0  0  0  0  0  0  0  0  0  0
   58.5770   29.9970   44.9190 C   0  0  0  0  0  0  0  0  0  0  0  0
   58.1500   28.8940   44.2150 C   0  0  0  0  0  0  0  0  0  0  0  0
   57.0230   28.9630   43.4150 C   0  0  0  0  0  0  0  0  0  0  0  0
   56.3410   30.1680   43.3430 C   0  0  0  0  0  0  0  0  0  0  0  0
   56.7860   31.2810   44.0620 C   0  0  0  0  0  0  0  0  0  0  0  0
   57.9040   31.2210   44.8610 C   0  0  0  0  0  0  0  0  0  0  0  0
   58.3010   32.3040   45.5400 N   0  0  0  0  0  0  0  0  0  0  0  0
   57.6520   33.5850   45.5010 C   0  0  0  0  0  0  0  0  0  0  0  0
   59.4140   32.2150   46.3300 C   0  0  0  0  0  0  0  0  0  0  0  0
   59.8810   33.2710   47.0700 C   0  0  0  0  0  0  0  0  0  0  0  0
   61.0050   33.1920   47.8860 C   0  0  0  0  0  0  0  0  0  0  0  0
   61.4460   34.3020   48.6300 O   0  0  0  0  0  0  0  0  0  0  0  0
   62.7080   34.1940   49.2130 C   0  0  0  0  0  0  0  0  0  0  0  0
   62.7430   33.7630   50.6350 C   0  0  0  0  0  0  0  0  0  0  0  0
   63.7690   32.8460   51.0050 N   0  0  0  0  0  0  0  0  0  0  0  0
   63.2210   31.6220   51.5750 C   0  0  0  0  0  0  0  0  0  0  0  0
   64.4590   32.4560   49.7870 C   0  0  0  0  0  0  0  0  0  0  0  0
   65.9170   32.7860   49.7770 C   0  0  0  0  0  0  0  0  0  0  0  0
   66.5800   32.2930   50.9540 N   0  0  0  0  0  0  0  0  0  0  0  0
   66.7640   30.8570   50.9400 C   0  0  0  0  0  0  0  0  0  0  0  0
   67.9410   32.8570   50.9120 C   0  0  0  0  0  0  0  0  0  0  0  0
   65.9250   32.6720   52.1690 C   0  0  0  0  0  0  0  0  0  0  0  0
   64.6800   33.4880   51.9390 C   0  0  0  0  0  0  0  0  0  0  0  0
   61.6980   32.0050   47.9730 C   0  0  0  0  0  0  0  0  0  0  0  0
   61.2300   30.9440   47.2310 C   0  0  0  0  0  0  0  0  0  0  0  0
   60.1190   31.0090   46.4190 C   0  0  0  0  0  0  0  0  0  0  0  0
   56.4619   30.6728   52.9950 H   0  0  0  0  0  0  0  0  0  0  0  0
   55.6991   31.1477   51.4396 H   0  0  0  0  0  0  0  0  0  0  0  0
   57.1961   30.1549   51.4396 H   0  0  0  0  0  0  0  0  0  0  0  0
   56.8787   33.0304   51.5033 H   0  0  0  0  0  0  0  0  0  0  0  0
   57.7929   32.4252   52.9626 H   0  0  0  0  0  0  0  0  0  0  0  0
   60.4504   33.2245   51.3603 H   0  0  0  0  0  0  0  0  0  0  0  0
   59.2128   33.9321   50.2634 H   0  0  0  0  0  0  0  0  0  0  0  0
   59.1310   33.7576   53.3041 H   0  0  0  0  0  0  0  0  0  0  0  0
   59.2271   35.2356   52.2878 H   0  0  0  0  0  0  0  0  0  0  0  0
   57.7311   34.2413   52.2878 H   0  0  0  0  0  0  0  0  0  0  0  0
   57.4811   32.0038   49.4893 H   0  0  0  0  0  0  0  0  0  0  0  0
   59.2850   32.3683   49.2483 H   0  0  0  0  0  0  0  0  0  0  0  0
   57.8410   29.9681   48.9693 H   0  0  0  0  0  0  0  0  0  0  0  0
   59.6235   30.4687   48.6513 H   0  0  0  0  0  0  0  0  0  0  0  0
   61.0718   29.5550   49.4625 H   0  0  0  0  0  0  0  0  0  0  0  0
   60.8750   29.9995   51.2423 H   0  0  0  0  0  0  0  0  0  0  0  0
   62.0738   28.0196   51.2125 H   0  0  0  0  0  0  0  0  0  0  0  0
   60.3415   27.6102   51.6301 H   0  0  0  0  0  0  0  0  0  0  0  0
   59.3970   27.7760   48.9550 H   0  0  0  0  0  0  0  0  0  0  0  0
   61.6890   27.1302   47.2467 H   0  0  0  0  0  0  0  0  0  0  0  0
   60.3640   25.8908   47.6049 H   0  0  0  0  0  0  0  0  0  0  0  0
   59.7436   26.6836   45.5859 H   0  0  0  0  0  0  0  0  0  0  0  0
   58.8032   27.7072   46.7537 H   0  0  0  0  0  0  0  0  0  0  0  0
   61.3150   28.6000   45.3790 H   0  0  0  0  0  0  0  0  0  0  0  0
   58.7093   27.9497   44.2889 H   0  0  0  0  0  0  0  0  0  0  0  0
   56.6771   28.0844   42.8507 H   0  0  0  0  0  0  0  0  0  0  0  0
   55.4418   30.2488   42.7145 H   0  0  0  0  0  0  0  0  0  0  0  0
   56.2292   32.2267   43.9871 H   0  0  0  0  0  0  0  0  0  0  0  0
   57.4736   33.9371   46.5278 H   0  0  0  0  0  0  0  0  0  0  0  0
   58.2939   34.3053   44.9727 H   0  0  0  0  0  0  0  0  0  0  0  0
   56.6915   33.4935   44.9727 H   0  0  0  0  0  0  0  0  0  0  0  0
   59.3403   34.2274   47.0157 H   0  0  0  0  0  0  0  0  0  0  0  0
   63.2861   33.4640   48.6274 H   0  0  0  0  0  0  0  0  0  0  0  0
   63.1221   35.2131   49.2057 H   0  0  0  0  0  0  0  0  0  0  0  0
   62.8646   34.6649   51.2528 H   0  0  0  0  0  0  0  0  0  0  0  0
   61.8005   33.2183   50.7931 H   0  0  0  0  0  0  0  0  0  0  0  0
   63.2489   31.6843   52.6729 H   0  0  0  0  0  0  0  0  0  0  0  0
   62.1805   31.4959   51.2412 H   0  0  0  0  0  0  0  0  0  0  0  0
   63.8200   30.7619   51.2412 H   0  0  0  0  0  0  0  0  0  0  0  0
   64.3504   31.3685   49.6620 H   0  0  0  0  0  0  0  0  0  0  0  0
   63.9997   33.0269   48.9665 H   0  0  0  0  0  0  0  0  0  0  0  0
   66.3800   32.3303   48.8893 H   0  0  0  0  0  0  0  0  0  0  0  0
   66.0216   33.8808   49.7566 H   0  0  0  0  0  0  0  0  0  0  0  0
   66.8119   30.4834   51.9735 H   0  0  0  0  0  0  0  0  0  0  0  0
   65.9191   30.3841   50.4179 H   0  0  0  0  0  0  0  0  0  0  0  0
   67.7008   30.6124   50.4179 H   0  0  0  0  0  0  0  0  0  0  0  0
   68.3069   33.0086   51.9382 H   0  0  0  0  0  0  0  0  0  0  0  0
   68.6098   32.1619   50.3832 H   0  0  0  0  0  0  0  0  0  0  0  0
   67.9221   33.8214   50.3832 H   0  0  0  0  0  0  0  0  0  0  0  0
   65.6491   31.7593   52.7175 H   0  0  0  0  0  0  0  0  0  0  0  0
   66.6272   33.2983   52.7388 H   0  0  0  0  0  0  0  0  0  0  0  0
   64.1634   33.6253   52.9004 H   0  0  0  0  0  0  0  0  0  0  0  0
   64.9830   34.4531   51.5068 H   0  0  0  0  0  0  0  0  0  0  0  0
   62.5897   31.9086   48.6098 H   0  0  0  0  0  0  0  0  0  0  0  0
   61.7742   29.9899   47.2898 H   0  0  0  0  0  0  0  0  0  0  0  0
  1  2  1  0
  2  3  1  0
  3  4  1  0
  4  5  1  0
  3  6  1  0
  6  7  1  0
  7  8  1  0
  8  9  1  0
  9 10  1  0
 10 11  1  0
 11 12  1  0
 12 13  1  0
 13 14  1  0
 14 15  1  0
 15 16  1  0
 16 17  2  0
 17 18  1  0
 18 19  2  0
 19 20  1  0
 20 21  2  0
 21 22  1  0
 22 23  2  0
 23 24  1  0
 23 25  1  0
 25 26  2  0
 26 27  1  0
 27 28  1  0
 28 29  1  0
 29 30  1  0
 30 31  1  0
 31 32  1  0
 31 33  1  0
 33 34  1  0
 34 35  1  0
 35 36  1  0
 35 37  1  0
 35 38  1  0
 38 39  1  0
 27 40  2  0
 40 41  1  0
 41 42  2  0
 42 16  1  0
 22 17  1  0
 42 25  1  0
 39 31  1  0
  1 43  1  0
  1 44  1  0
  1 45  1  0
  2 46  1  0
  2 47  1  0
  4 48  1  0
  4 49  1  0
  5 50  1  0
  5 51  1  0
  5 52  1  0
  6 53  1  0
  6 54  1  0
  7 55  1  0
  7 56  1  0
  9 57  1  0
  9 58  1  0
 10 59  1  0
 10 60  1  0
 12 61  1  0
 13 62  1  0
 13 63  1  0
 14 64  1  0
 14 65  1  0
 15 66  1  0
 18 67  1  0
 19 68  1  0
 20 69  1  0
 21 70  1  0
 24 71  1  0
 24 72  1  0
 24 73  1  0
 26 74  1  0
 29 75  1  0
 29 76  1  0
 30 77  1  0
 30 78  1  0
 32 79  1  0
 32 80  1  0
 32 81  1  0
 33 82  1  0
 33 83  1  0
 34 84  1  0
 34 85  1  0
 36 86  1  0
 36 87  1  0
 36 88  1  0
 37 89  1  0
 37 90  1  0
 37 91  1  0
 38 92  1  0
 38 93  1  0
 39 94  1  0
 39 95  1  0
 40 96  1  0
 41 97  1  0
M  CHG  3  23   1  31   1  35   1
M  END
>  <smiles>  (4) 
CCN(CC)CCOCCONCCNc1c2ccccc2[n+](C)c2cc(OCC[N+]3(C)CC[N+](C)(C)CC3)ccc12

>  <score_type>  (4) 
oracle

>  <origin>  (4) 
adg

>  <m_score__min__energy>  (4) 
-4.9900000000000002

>  <m_primary>  (4) 
energy

$$$$
5:0
     RDKit          3D

 46 48  0  0  0  0  0  0  0  0999 V2000
   60.6720   28.9240   44.8260 C   0  0  0  0  0  0  0  0  0  0  0  0
   59.3710   28.5110   45.1820 O   0  0  0  0  0  0  0  0  0  0  0  0
   58.2860   29.2780   44.7310 C   0  0  0  0  0  0  0  0  0  0  0  0
   58.5500   30.4180   44.0340 C   0  0  0  0  0  0  0  0  0  0  0  0
   57.5090   31.1950   43.5770 C   0  0  0  0  0  0  0  0  0  0  0  0
   57.8240   32.4260   42.8210 C   0  0  0  0  0  0  0  0  0  0  0  0
   56.2680   30.8000   43.8380 N   0  0  0  0  0  0  0  0  0  0  0  0
   55.9860   29.6730   44.5290 C   0  0  0  0  0  0  0  0  0  0  0  0
   56.9740   28.8470   45.0150 C   0  0  0  0  0  0  0  0  0  0  0  0
   56.8440   27.7120   45.7060 O   0  0  0  0  0  0  0  0  0  0  0  0
   57.6940   26.7240   46.1330 C   0  0  0  0  0  0  0  0  0  0  0  0
   58.4210   27.1160   47.3920 C   0  0  0  0  0  0  0  0  0  0  0  0
   58.2520   28.5260   47.6930 N   0  0  0  0  0  0  0  0  0  0  0  0
   59.4180   29.1550   48.2480 C   0  0  0  0  0  0  0  0  0  0  0  0
   59.4670   30.5340   47.6760 C   0  0  0  0  0  0  0  0  0  0  0  0
   58.3510   31.1620   47.2240 N   0  0  0  0  0  0  0  0  0  0  0  0
   58.6890   32.3860   46.7650 C   0  0  0  0  0  0  0  0  0  0  0  0
   57.9290   33.3940   46.2120 C   0  0  0  0  0  0  0  0  0  0  0  0
   58.5220   34.5720   45.8150 C   0  0  0  0  0  0  0  0  0  0  0  0
   59.8990   34.7000   45.9940 C   0  0  0  0  0  0  0  0  0  0  0  0
   60.6440   33.6770   46.5490 C   0  0  0  0  0  0  0  0  0  0  0  0
   60.0600   32.4910   46.9510 C   0  0  0  0  0  0  0  0  0  0  0  0
   60.5250   31.3470   47.5120 N   0  0  0  0  0  0  0  0  0  0  0  0
   61.8790   31.0530   47.8630 C   0  0  0  0  0  0  0  0  0  0  0  0
   61.2596   29.1105   45.7370 H   0  0  0  0  0  0  0  0  0  0  0  0
   61.1572   28.1357   44.2317 H   0  0  0  0  0  0  0  0  0  0  0  0
   60.6137   29.8478   44.2317 H   0  0  0  0  0  0  0  0  0  0  0  0
   59.5902   30.7167   43.8370 H   0  0  0  0  0  0  0  0  0  0  0  0
   58.0336   33.2450   43.5248 H   0  0  0  0  0  0  0  0  0  0  0  0
   58.7065   32.2518   42.1879 H   0  0  0  0  0  0  0  0  0  0  0  0
   56.9663   32.6971   42.1879 H   0  0  0  0  0  0  0  0  0  0  0  0
   54.9337   29.4076   44.7086 H   0  0  0  0  0  0  0  0  0  0  0  0
   57.1104   25.8123   46.3283 H   0  0  0  0  0  0  0  0  0  0  0  0
   58.4427   26.5537   45.3453 H   0  0  0  0  0  0  0  0  0  0  0  0
   58.0271   26.5228   48.2304 H   0  0  0  0  0  0  0  0  0  0  0  0
   59.4937   26.9236   47.2425 H   0  0  0  0  0  0  0  0  0  0  0  0
   57.8850   29.0730   46.9060 H   0  0  0  0  0  0  0  0  0  0  0  0
   59.3400   29.2006   49.3443 H   0  0  0  0  0  0  0  0  0  0  0  0
   60.3297   28.5899   48.0041 H   0  0  0  0  0  0  0  0  0  0  0  0
   56.8447   33.2572   46.0872 H   0  0  0  0  0  0  0  0  0  0  0  0
   57.9288   35.3852   45.3713 H   0  0  0  0  0  0  0  0  0  0  0  0
   60.4002   35.6303   45.6885 H   0  0  0  0  0  0  0  0  0  0  0  0
   61.7288   33.8101   46.6738 H   0  0  0  0  0  0  0  0  0  0  0  0
   61.9775   31.0316   48.9584 H   0  0  0  0  0  0  0  0  0  0  0  0
   62.1602   30.0729   47.4504 H   0  0  0  0  0  0  0  0  0  0  0  0
   62.5414   31.8283   47.4504 H   0  0  0  0  0  0  0  0  0  0  0  0
  1  2  1  0
  2  3  1  0
  3  4  2  0
  4  5  1  0
  5  6  1  0
  5  7  2  0
  7  8  1  0
  8  9  2  0
  9 10  1  0
 10 11  1  0
 11 12  1  0
 12 13  1  0
 13 14  1  0
 14 15  1  0
 15 16  2  0
 16 17  1  0
 17 18  2  0
 18 19  1  0
 19 20  2  0
 20 21  1  0
 21 22  2  0
 22 23  1  0
 23 24  1  0
  9  3  1  0
 23 15  1  0
 22 17  1  0
  1 25  1  0
  1 26  1  0
  1 27  1  0
  4 28  1  0
  6 29  1  0
  6 30  1  0
  6 31  1  0
  8 32  1  0
 11 33  1  0
 11 34  1  0
 12 35  1  0
 12 36  1  0
 13 37  1  0
 14 38  1  0
 14 39  1  0
 18 40  1  0
 19 41  1  0
 20 42  1  0
 21 43  1  0
 24 44  1  0
 24 45  1  0
 24 46  1  0
M  END
>  <smiles>  (5) 
COc1cc(C)ncc1OCCNCc1nc2ccccc2n1C

>  <score_type>  (5) 
oracle

>  <origin>  (5) 
adg

>  <m_score__min__energy>  (5) 
-7.7999999999999998

>  <m_primary>  (5) 
energy

$$$$
7:0
     RDKit          3D

 88 90  0  0  0  0  0  0  0  0999 V2000
   59.8680   26.7520   46.0720 C   0  0  0  0  0  0  0  0  0  0  0  0
   60.0320   27.9310   45.1400 C   0  0  0  0  0  0  0  0  0  0  0  0
   58.7740   28.5940   44.9230 N   0  0  0  0  0  0  0  0  0  0  0  0
   58.0080   28.0350   43.8480 C   0  0  0  0  0  0  0  0  0  0  0  0
   56.9920   28.9800   43.2600 C   0  0  0  0  0  0  0  0  0  0  0  0
   56.3850   29.8020   44.3810 C   0  0  0  0  0  0  0  0  0  0  0  0
   55.3080   29.3640   44.8300 O   0  0  0  0  0  0  0  0  0  0  0  0
   57.0610   30.8990   44.7650 O   0  0  0  0  0  0  0  0  0  0  0  0
   57.9240   31.7080   44.0680 C   0  0  0  0  0  0  0  0  0  0  0  0
   57.7540   33.1740   44.1030 C   0  0  0  0  0  0  0  0  0  0  0  0
   58.8590   34.0540   44.5170 C   0  0  0  0  0  0  0  0  0  0  0  0
   58.6980   34.6510   45.9020 C   0  0  0  0  0  0  0  0  0  0  0  0
   60.0630   35.0320   46.4590 C   0  0  0  0  0  0  0  0  0  0  0  0
   60.2220   34.5880   47.8940 C   0  0  0  0  0  0  0  0  0  0  0  0
   60.1660   33.0830   48.0170 C   0  0  0  0  0  0  0  0  0  0  0  0
   58.7610   32.6140   48.3720 C   0  0  0  0  0  0  0  0  0  0  0  0
   58.2730   31.6050   47.3440 C   0  0  0  0  0  0  0  0  0  0  0  0
   59.3790   31.0320   46.6030 N   0  0  0  0  0  0  0  0  0  0  0  0
   60.0810   30.0230   47.3500 C   0  0  0  0  0  0  0  0  0  0  0  0
   59.2780   29.3450   48.4090 C   0  0  0  0  0  0  0  0  0  0  0  0
   60.0360   28.4110   49.2920 C   0  0  0  0  0  0  0  0  0  0  0  0
   60.5500   29.0540   50.4830 N   0  0  0  0  0  0  0  0  0  0  0  0
   60.2170   30.3560   50.8990 C   0  0  0  0  0  0  0  0  0  0  0  0
   61.1370   31.3920   50.7380 C   0  0  0  0  0  0  0  0  0  0  0  0
   62.3510   31.0570   50.1580 C   0  0  0  0  0  0  0  0  0  0  0  0
   63.2950   32.0450   49.9780 C   0  0  0  0  0  0  0  0  0  0  0  0
   62.9990   33.3260   50.3780 C   0  0  0  0  0  0  0  0  0  0  0  0
   61.7700   33.6500   50.9610 C   0  0  0  0  0  0  0  0  0  0  0  0
   60.8300   32.6780   51.1430 C   0  0  0  0  0  0  0  0  0  0  0  0
   59.6660   33.0140   51.7020 N   0  0  0  0  0  0  0  0  0  0  0  0
   59.2750   34.3110   52.1380 C   0  0  0  0  0  0  0  0  0  0  0  0
   58.7640   32.0050   51.8630 C   0  0  0  0  0  0  0  0  0  0  0  0
   57.5220   32.2580   52.4400 C   0  0  0  0  0  0  0  0  0  0  0  0
   56.5800   31.2580   52.6230 C   0  0  0  0  0  0  0  0  0  0  0  0
   56.8430   29.9640   52.2320 C   0  0  0  0  0  0  0  0  0  0  0  0
   55.9230   28.9400   52.4000 O   0  0  0  0  0  0  0  0  0  0  0  0
   54.5880   29.3110   52.7430 C   0  0  0  0  0  0  0  0  0  0  0  0
   58.0810   29.7120   51.6580 C   0  0  0  0  0  0  0  0  0  0  0  0
   59.0170   30.7120   51.4790 C   0  0  0  0  0  0  0  0  0  0  0  0
   59.9163   27.0993   47.1146 H   0  0  0  0  0  0  0  0  0  0  0  0
   58.8946   26.2732   45.8898 H   0  0  0  0  0  0  0  0  0  0  0  0
   60.6738   26.0257   45.8898 H   0  0  0  0  0  0  0  0  0  0  0  0
   60.7429   28.6439   45.5831 H   0  0  0  0  0  0  0  0  0  0  0  0
   60.4070   27.5645   44.1730 H   0  0  0  0  0  0  0  0  0  0  0  0
   58.7790   29.6140   44.9900 H   0  0  0  0  0  0  0  0  0  0  0  0
   58.7020   27.7335   43.0496 H   0  0  0  0  0  0  0  0  0  0  0  0
   57.4470   27.1863   44.2662 H   0  0  0  0  0  0  0  0  0  0  0  0
   57.4827   29.6471   42.5360 H   0  0  0  0  0  0  0  0  0  0  0  0
   56.2046   28.4101   42.7450 H   0  0  0  0  0  0  0  0  0  0  0  0
   58.9343   31.4965   44.4484 H   0  0  0  0  0  0  0  0  0  0  0  0
   57.7149   31.4547   43.0182 H   0  0  0  0  0  0  0  0  0  0  0  0
   57.4739   33.4811   43.0846 H   0  0  0  0  0  0  0  0  0  0  0  0
   57.0177   33.3138   44.9082 H   0  0  0  0  0  0  0  0  0  0  0  0
   59.7900   33.4684   44.5007 H   0  0  0  0  0  0  0  0  0  0  0  0
   58.8709   34.8972   43.8107 H   0  0  0  0  0  0  0  0  0  0  0  0
   58.0643   35.5481   45.8420 H   0  0  0  0  0  0  0  0  0  0  0  0
   58.2279   33.9101   46.5654 H   0  0  0  0  0  0  0  0  0  0  0  0
   60.8435   34.5539   45.8489 H   0  0  0  0  0  0  0  0  0  0  0  0
   60.1543   36.1277   46.4259 H   0  0  0  0  0  0  0  0  0  0  0  0
   61.1925   34.9418   48.2723 H   0  0  0  0  0  0  0  0  0  0  0  0
   59.3946   35.0135   48.4808 H   0  0  0  0  0  0  0  0  0  0  0  0
   60.4636   32.6328   47.0585 H   0  0  0  0  0  0  0  0  0  0  0  0
   60.8514   32.7722   48.8193 H   0  0  0  0  0  0  0  0  0  0  0  0
   58.7746   32.1433   49.3661 H   0  0  0  0  0  0  0  0  0  0  0  0
   58.0825   33.4798   48.3778 H   0  0  0  0  0  0  0  0  0  0  0  0
   57.7324   30.7988   47.8616 H   0  0  0  0  0  0  0  0  0  0  0  0
   57.6114   32.1239   46.6348 H   0  0  0  0  0  0  0  0  0  0  0  0
   58.9880   30.5870   45.7550 H   0  0  0  0  0  0  0  0  0  0  0  0
   60.4288   29.2557   46.6426 H   0  0  0  0  0  0  0  0  0  0  0  0
   60.8989   30.5419   47.8713 H   0  0  0  0  0  0  0  0  0  0  0  0
   58.8297   30.1230   49.0444 H   0  0  0  0  0  0  0  0  0  0  0  0
   58.5400   28.7259   47.8779 H   0  0  0  0  0  0  0  0  0  0  0  0
   59.3656   27.5936   49.5960 H   0  0  0  0  0  0  0  0  0  0  0  0
   60.8985   28.0411   48.7182 H   0  0  0  0  0  0  0  0  0  0  0  0
   61.2140   28.5100   51.0690 H   0  0  0  0  0  0  0  0  0  0  0  0
   62.5569   30.0221   49.8473 H   0  0  0  0  0  0  0  0  0  0  0  0
   64.2686   31.8122   49.5220 H   0  0  0  0  0  0  0  0  0  0  0  0
   63.7491   34.1179   50.2357 H   0  0  0  0  0  0  0  0  0  0  0  0
   61.5619   34.6845   51.2717 H   0  0  0  0  0  0  0  0  0  0  0  0
   59.2660   34.3410   53.2376 H   0  0  0  0  0  0  0  0  0  0  0  0
   59.9883   35.0565   51.7567 H   0  0  0  0  0  0  0  0  0  0  0  0
   58.2685   34.5381   51.7567 H   0  0  0  0  0  0  0  0  0  0  0  0
   57.2814   33.2825   52.7602 H   0  0  0  0  0  0  0  0  0  0  0  0
   55.6119   31.5005   53.0855 H   0  0  0  0  0  0  0  0  0  0  0  0
   54.4852   29.3396   53.8378 H   0  0  0  0  0  0  0  0  0  0  0  0
   54.3655   30.3050   52.3278 H   0  0  0  0  0  0  0  0  0  0  0  0
   53.8845   28.5743   52.3278 H   0  0  0  0  0  0  0  0  0  0  0  0
   58.3236   28.6883   51.3369 H   0  0  0  0  0  0  0  0  0  0  0  0
  1  2  1  0
  2  3  1  0
  3  4  1  0
  4  5  1  0
  5  6  1  0
  6  7  2  0
  6  8  1  0
  8  9  1  0
  9 10  1  0
 10 11  1  0
 11 12  1  0
 12 13  1  0
 13 14  1  0
 14 15  1  0
 15 16  1  0
 16 17  1  0
 17 18  1  0
 18 19  1  0
 19 20  1  0
 20 21  1  0
 21 22  1  0
 22 23  1  0
 23 24  2  0
 24 25  1  0
 25 26  2  0
 26 27  1  0
 27 28  2  0
 28 29  1  0
 29 30  2  0
 30 31  1  0
 30 32  1  0
 32 33  2  0
 33 34  1  0
 34 35  2  0
 35 36  1  0
 36 37  1  0
 35 38  1  0
 38 39  2  0
 39 23  1  0
 29 24  1  0
 39 32  1  0
  1 40  1  0
  1 41  1  0
  1 42  1  0
  2 43  1  0
  2 44  1  0
  3 45  1  0
  4 46  1  0
  4 47  1  0
  5 48  1  0
  5 49  1  0
  9 50  1  0
  9 51  1  0
 10 52  1  0
 10 53  1  0
 11 54  1  0
 11 55  1  0
 12 56  1  0
 12 57  1  0
 13 58  1  0
 13 59  1  0
 14 60  1  0
 14 61  1  0
 15 62  1  0
 15 63  1  0
 16 64  1  0
 16 65  1  0
 17 66  1  0
 17 67  1  0
 18 68  1  0
 19 69  1  0
 19 70  1  0
 20 71  1  0
 20 72  1  0
 21 73  1  0
 21 74  1  0
 22 75  1  0
 25 76  1  0
 26 77  1  0
 27 78  1  0
 28 79  1  0
 31 80  1  0
 31 81  1  0
 31 82  1  0
 33 83  1  0
 34 84  1  0
 37 85  1  0
 37 86  1  0
 37 87  1  0
 38 88  1  0
M  CHG  1  30   1
M  END
>  <smiles>  (6) 
CCNCCC(=O)OCCCCCCCCCNCCCNc1c2ccccc2[n+](C)c2ccc(OC)cc12

>  <score_type>  (6) 
oracle

>  <origin>  (6) 
adg

>  <m_score__min__energy>  (6) 
-6.4400000000000004

>  <m_primary>  (6) 
energy

$$$$
8:0
     RDKit          3D

 48 50  0  0  0  0  0  0  0  0999 V2000
   60.5310   34.1050   47.3340 C   0  0  0  0  0  0  0  0  0  0  0  0
   59.3990   35.1060   47.1260 C   0  0  0  0  0  0  0  0  0  0  0  0
   58.4260   34.5390   46.2380 N   0  0  0  0  0  0  0  0  0  0  0  0
   58.1050   33.1590   46.5740 C   0  0  0  0  0  0  0  0  0  0  0  0
   57.0240   32.7080   45.6180 C   0  0  0  0  0  0  0  0  0  0  0  0
   57.4810   32.8030   44.2610 N   0  0  0  0  0  0  0  0  0  0  0  0
   57.3600   31.5410   43.5510 C   0  0  0  0  0  0  0  0  0  0  0  0
   57.7090   30.4410   44.4290 N   0  0  0  0  0  0  0  0  0  0  0  0
   59.1030   30.1210   44.7440 C   0  0  0  0  0  0  0  0  0  0  0  0
   58.9540   29.5700   46.1460 C   0  0  0  0  0  0  0  0  0  0  0  0
   57.7180   28.8080   45.9950 N   0  0  0  0  0  0  0  0  0  0  0  0
   57.4190   27.5560   46.6310 C   0  0  0  0  0  0  0  0  0  0  0  0
   57.1920   26.4300   45.7220 C   0  0  0  0  0  0  0  0  0  0  0  0
   57.7920   26.3120   44.4840 C   0  0  0  0  0  0  0  0  0  0  0  0
   57.5140   25.2110   43.6990 C   0  0  0  0  0  0  0  0  0  0  0  0
   56.6550   24.2020   44.0920 C   0  0  0  0  0  0  0  0  0  0  0  0
   56.2880   22.6920   42.9940 Br  0  0  0  0  0  0  0  0  0  0  0  0
   56.0480   24.3200   45.3460 C   0  0  0  0  0  0  0  0  0  0  0  0
   56.3180   25.4250   46.1490 C   0  0  0  0  0  0  0  0  0  0  0  0
   56.8600   29.5220   45.1080 C   0  0  0  0  0  0  0  0  0  0  0  0
   55.6220   29.4000   44.9330 O   0  0  0  0  0  0  0  0  0  0  0  0
   58.8240   33.3420   44.1530 C   0  0  0  0  0  0  0  0  0  0  0  0
   58.8560   34.6720   44.8790 C   0  0  0  0  0  0  0  0  0  0  0  0
   60.6972   33.9581   48.4114 H   0  0  0  0  0  0  0  0  0  0  0  0
   60.2611   33.1447   46.8703 H   0  0  0  0  0  0  0  0  0  0  0  0
   61.4510   34.4904   46.8703 H   0  0  0  0  0  0  0  0  0  0  0  0
   58.9265   35.3333   48.0930 H   0  0  0  0  0  0  0  0  0  0  0  0
   59.8005   36.0332   46.6912 H   0  0  0  0  0  0  0  0  0  0  0  0
   58.9972   32.5258   46.4604 H   0  0  0  0  0  0  0  0  0  0  0  0
   57.7634   33.0794   47.6166 H   0  0  0  0  0  0  0  0  0  0  0  0
   56.7588   31.6634   45.8383 H   0  0  0  0  0  0  0  0  0  0  0  0
   56.1449   33.3572   45.7434 H   0  0  0  0  0  0  0  0  0  0  0  0
   56.3233   31.4159   43.2051 H   0  0  0  0  0  0  0  0  0  0  0  0
   58.0436   31.5452   42.6892 H   0  0  0  0  0  0  0  0  0  0  0  0
   59.5121   29.3683   44.0540 H   0  0  0  0  0  0  0  0  0  0  0  0
   59.7971   30.9700   44.6583 H   0  0  0  0  0  0  0  0  0  0  0  0
   59.8001   28.9233   46.4215 H   0  0  0  0  0  0  0  0  0  0  0  0
   58.9327   30.3305   46.9405 H   0  0  0  0  0  0  0  0  0  0  0  0
   58.2634   27.2981   47.2871 H   0  0  0  0  0  0  0  0  0  0  0  0
   56.4720   27.7073   47.1698 H   0  0  0  0  0  0  0  0  0  0  0  0
   58.4849   27.0880   44.1266 H   0  0  0  0  0  0  0  0  0  0  0  0
   57.9988   25.1331   42.7147 H   0  0  0  0  0  0  0  0  0  0  0  0
   55.3571   23.5398   45.6982 H   0  0  0  0  0  0  0  0  0  0  0  0
   55.8365   25.5089   47.1344 H   0  0  0  0  0  0  0  0  0  0  0  0
   59.5426   32.6482   44.6136 H   0  0  0  0  0  0  0  0  0  0  0  0
   59.0970   33.4775   43.0961 H   0  0  0  0  0  0  0  0  0  0  0  0
   59.8847   35.0614   44.8662 H   0  0  0  0  0  0  0  0  0  0  0  0
   58.1695   35.3616   44.3660 H   0  0  0  0  0  0  0  0  0  0  0  0
  1  2  1  0
  2  3  1  0
  3  4  1  0
  4  5  1  0
  5  6  1  0
  6  7  1  0
  7  8  1  0
  8  9  1  0
  9 10  1  0
 10 11  1  0
 11 12  1  0
 12 13  1  0
 13 14  2  0
 14 15  1  0
 15 16  2  0
 16 17  1  0
 16 18  1  0
 18 19  2  0
 11 20  1  0
 20 21  2  0
  6 22  1  0
 22 23  1  0
 23  3  1  0
 20  8  1  0
 19 13  1  0
  1 24  1  0
  1 25  1  0
  1 26  1  0
  2 27  1  0
  2 28  1  0
  4 29  1  0
  4 30  1  0
  5 31  1  0
  5 32  1  0
  7 33  1  0
  7 34  1  0
  9 35  1  0
  9 36  1  0
 10 37  1  0
 10 38  1  0
 12 39  1  0
 12 40  1  0
 14 41  1  0
 15 42  1  0
 18 43  1  0
 19 44  1  0
 22 45  1  0
 22 46  1  0
 23 47  1  0
 23 48  1  0
M  END
>  <smiles>  (7) 
CCN1CCN(CN2CCN(Cc3ccc(Br)cc3)C2=O)CC1

>  <score_type>  (7) 
oracle

>  <origin>  (7) 
adg

>  <m_score__min__energy>  (7) 
-8.0999999999999996

>  <m_primary>  (7) 
energy

$$$$
9:0
     RDKit          3D

 55 58  0  0  0  0  0  0  0  0999 V2000
   60.5610   30.3820   46.1410 C   0  0  0  0  0  0  0  0  0  0  0  0
   60.7300   29.8400   47.4790 N   0  0  0  0  0  0  0  0  0  0  0  0
   60.2670   28.6490   47.9630 C   0  0  0  0  0  0  0  0  0  0  0  0
   59.4980   27.6360   47.2380 C   0  0  0  0  0  0  0  0  0  0  0  0
   58.8210   28.0400   46.0710 N   0  0  0  0  0  0  0  0  0  0  0  0
   57.5060   28.5410   46.3630 C   0  0  0  0  0  0  0  0  0  0  0  0
   56.6150   28.5670   45.1400 C   0  0  0  0  0  0  0  0  0  0  0  0
   57.3620   28.7180   43.9340 N   0  0  0  0  0  0  0  0  0  0  0  0
   58.0330   29.9930   43.7880 C   0  0  0  0  0  0  0  0  0  0  0  0
   56.9950   31.0580   43.9680 C   0  0  0  0  0  0  0  0  0  0  0  0
   56.9890   31.7070   45.1820 O   0  0  0  0  0  0  0  0  0  0  0  0
   57.8180   32.6930   45.5880 C   0  0  0  0  0  0  0  0  0  0  0  0
   58.4150   33.6660   44.8320 C   0  0  0  0  0  0  0  0  0  0  0  0
   59.2550   34.6420   45.3720 C   0  0  0  0  0  0  0  0  0  0  0  0
   59.5200   34.6590   46.7190 C   0  0  0  0  0  0  0  0  0  0  0  0
   58.9380   33.6970   47.4980 C   0  0  0  0  0  0  0  0  0  0  0  0
   58.1130   32.7420   46.9640 C   0  0  0  0  0  0  0  0  0  0  0  0
   58.1930   27.5750   43.7480 C   0  0  0  0  0  0  0  0  0  0  0  0
   58.8590   27.0910   44.9970 C   0  0  0  0  0  0  0  0  0  0  0  0
   60.6430   28.5570   49.2360 N   0  0  0  0  0  0  0  0  0  0  0  0
   61.3190   29.6520   49.5400 N   0  0  0  0  0  0  0  0  0  0  0  0
   61.3970   30.4750   48.4780 C   0  0  0  0  0  0  0  0  0  0  0  0
   62.0650   31.7740   48.4410 C   0  0  0  0  0  0  0  0  0  0  0  0
   61.7600   32.8040   49.3060 C   0  0  0  0  0  0  0  0  0  0  0  0
   62.4010   34.0200   49.2540 C   0  0  0  0  0  0  0  0  0  0  0  0
   63.3810   34.2180   48.3080 C   0  0  0  0  0  0  0  0  0  0  0  0
   63.7190   33.2110   47.4190 C   0  0  0  0  0  0  0  0  0  0  0  0
   63.0510   32.0050   47.5040 C   0  0  0  0  0  0  0  0  0  0  0  0
   60.2342   31.4302   46.2086 H   0  0  0  0  0  0  0  0  0  0  0  0
   61.5179   30.3304   45.6009 H   0  0  0  0  0  0  0  0  0  0  0  0
   59.8030   29.7957   45.6009 H   0  0  0  0  0  0  0  0  0  0  0  0
   60.1962   26.8354   46.9524 H   0  0  0  0  0  0  0  0  0  0  0  0
   58.6997   27.3410   47.9349 H   0  0  0  0  0  0  0  0  0  0  0  0
   57.0429   27.8958   47.1241 H   0  0  0  0  0  0  0  0  0  0  0  0
   57.6128   29.5750   46.7228 H   0  0  0  0  0  0  0  0  0  0  0  0
   56.0511   27.6237   45.0920 H   0  0  0  0  0  0  0  0  0  0  0  0
   55.9407   29.4314   45.2309 H   0  0  0  0  0  0  0  0  0  0  0  0
   58.8171   30.0968   44.5524 H   0  0  0  0  0  0  0  0  0  0  0  0
   58.5110   30.0740   42.8006 H   0  0  0  0  0  0  0  0  0  0  0  0
   57.1520   31.8143   43.1848 H   0  0  0  0  0  0  0  0  0  0  0  0
   56.0280   30.5368   43.9101 H   0  0  0  0  0  0  0  0  0  0  0  0
   58.2240   33.6795   43.7488 H   0  0  0  0  0  0  0  0  0  0  0  0
   59.7063   35.4004   44.7154 H   0  0  0  0  0  0  0  0  0  0  0  0
   60.1795   35.4221   47.1579 H   0  0  0  0  0  0  0  0  0  0  0  0
   59.1371   33.6898   48.5798 H   0  0  0  0  0  0  0  0  0  0  0  0
   57.6671   31.9898   47.6314 H   0  0  0  0  0  0  0  0  0  0  0  0
   57.5727   26.7587   43.3494 H   0  0  0  0  0  0  0  0  0  0  0  0
   58.9953   27.8765   43.0585 H   0  0  0  0  0  0  0  0  0  0  0  0
   58.3535   26.1715   45.3271 H   0  0  0  0  0  0  0  0  0  0  0  0
   59.9181   26.9209   44.7534 H   0  0  0  0  0  0  0  0  0  0  0  0
   60.9776   32.6478   50.0632 H   0  0  0  0  0  0  0  0  0  0  0  0
   62.1344   34.8221   49.9579 H   0  0  0  0  0  0  0  0  0  0  0  0
   63.9011   35.1859   48.2574 H   0  0  0  0  0  0  0  0  0  0  0  0
   64.5018   33.3682   46.6623 H   0  0  0  0  0  0  0  0  0  0  0  0
   63.3141   31.2013   46.8006 H   0  0  0  0  0  0  0  0  0  0  0  0
  1  2  1  0
  2  3  1  0
  3  4  1  0
  4  5  1  0
  5  6  1  0
  6  7  1  0
  7  8  1  0
  8  9  1  0
  9 10  1  0
 10 11  1  0
 11 12  1  0
 12 13  2  0
 13 14  1  0
 14 15  2  0
 15 16  1  0
 16 17  2  0
  8 18  1  0
 18 19  1  0
  3 20  2  0
 20 21  1  0
 21 22  2  0
 22 23  1  0
 23 24  2  0
 24 25  1  0
 25 26  2  0
 26 27  1  0
 27 28  2  0
 22  2  1  0
 28 23  1  0
 19  5  1  0
 17 12  1  0
  1 29  1  0
  1 30  1  0
  1 31  1  0
  4 32  1  0
  4 33  1  0
  6 34  1  0
  6 35  1  0
  7 36  1  0
  7 37  1  0
  9 38  1  0
  9 39  1  0
 10 40  1  0
 10 41  1  0
 13 42  1  0
 14 43  1  0
 15 44  1  0
 16 45  1  0
 17 46  1  0
 18 47  1  0
 18 48  1  0
 19 49  1  0
 19 50  1  0
 24 51  1  0
 25 52  1  0
 26 53  1  0
 27 54  1  0
 28 55  1  0
M  END
>  <smiles>  (8) 
Cn1c(CN2CCN(CCOc3ccccc3)CC2)nnc1-c1ccccc1

>  <score_type>  (8) 
oracle

>  <origin>  (8) 
adg

>  <m_score__min__energy>  (8) 
-8.7599999999999998

>  <m_primary>  (8) 
energy

$$$$
10:0
     RDKit          3D

 45 47  0  0  0  0  0  0  0  0999 V2000
   56.6950   29.5500   44.4140 C   0  0  0  0  0  0  0  0  0  0  0  0
   56.9790   30.8070   43.5990 C   0  0  0  0  0  0  0  0  0  0  0  0
   57.9420   31.6420   44.2910 N   0  0  0  0  0  0  0  0  0  0  0  0
   57.7090   33.0590   44.1210 C   0  0  0  0  0  0  0  0  0  0  0  0
   57.3390   33.7350   45.4170 C   0  0  0  0  0  0  0  0  0  0  0  0
   57.8550   33.1920   46.5640 O   0  0  0  0  0  0  0  0  0  0  0  0
   59.0030   33.3850   47.2660 C   0  0  0  0  0  0  0  0  0  0  0  0
   59.2610   34.4100   48.1460 C   0  0  0  0  0  0  0  0  0  0  0  0
   60.4410   34.5580   48.8380 C   0  0  0  0  0  0  0  0  0  0  0  0
   61.4240   33.6170   48.6310 C   0  0  0  0  0  0  0  0  0  0  0  0
   62.6560   33.7000   49.3030 C   0  0  0  0  0  0  0  0  0  0  0  0
   63.6490   32.7620   49.1050 C   0  0  0  0  0  0  0  0  0  0  0  0
   65.3030   32.9440   50.0590 Br  0  0  0  0  0  0  0  0  0  0  0  0
   63.4240   31.7180   48.2240 C   0  0  0  0  0  0  0  0  0  0  0  0
   62.2300   31.6070   47.5510 C   0  0  0  0  0  0  0  0  0  0  0  0
   61.2350   32.5690   47.7660 C   0  0  0  0  0  0  0  0  0  0  0  0
   60.0290   32.4600   47.0910 C   0  0  0  0  0  0  0  0  0  0  0  0
   59.9180   31.3600   46.1840 N   0  0  0  0  0  0  0  0  0  0  0  0
   59.8360   30.0090   46.5850 C   0  0  0  0  0  0  0  0  0  0  0  0
   59.3090   29.5820   47.7830 C   0  0  0  0  0  0  0  0  0  0  0  0
   59.2720   28.2220   48.1280 C   0  0  0  0  0  0  0  0  0  0  0  0
   59.7830   27.2810   47.2320 C   0  0  0  0  0  0  0  0  0  0  0  0
   60.3220   27.6990   46.0080 C   0  0  0  0  0  0  0  0  0  0  0  0
   60.3320   29.0370   45.7270 C   0  0  0  0  0  0  0  0  0  0  0  0
   56.7489   29.7884   45.4865 H   0  0  0  0  0  0  0  0  0  0  0  0
   55.6896   29.1753   44.1717 H   0  0  0  0  0  0  0  0  0  0  0  0
   57.4417   28.7794   44.1717 H   0  0  0  0  0  0  0  0  0  0  0  0
   57.3847   30.5204   42.6175 H   0  0  0  0  0  0  0  0  0  0  0  0
   56.0432   31.3699   43.4670 H   0  0  0  0  0  0  0  0  0  0  0  0
   57.9620   31.3530   45.2910 H   0  0  0  0  0  0  0  0  0  0  0  0
   58.6251   33.5240   43.7279 H   0  0  0  0  0  0  0  0  0  0  0  0
   56.8670   33.1815   43.4239 H   0  0  0  0  0  0  0  0  0  0  0  0
   57.6825   34.7784   45.3585 H   0  0  0  0  0  0  0  0  0  0  0  0
   56.2492   33.6139   45.5050 H   0  0  0  0  0  0  0  0  0  0  0  0
   58.4728   35.1602   48.3071 H   0  0  0  0  0  0  0  0  0  0  0  0
   60.5933   35.3980   49.5316 H   0  0  0  0  0  0  0  0  0  0  0  0
   62.8325   34.5308   50.0020 H   0  0  0  0  0  0  0  0  0  0  0  0
   64.2110   30.9671   48.0602 H   0  0  0  0  0  0  0  0  0  0  0  0
   62.0586   30.7740   46.8533 H   0  0  0  0  0  0  0  0  0  0  0  0
   59.8960   31.6160   45.1720 H   0  0  0  0  0  0  0  0  0  0  0  0
   58.9069   30.3251   48.4873 H   0  0  0  0  0  0  0  0  0  0  0  0
   58.8465   27.9021   49.0906 H   0  0  0  0  0  0  0  0  0  0  0  0
   59.7625   26.2112   47.4870 H   0  0  0  0  0  0  0  0  0  0  0  0
   60.7268   26.9692   45.2914 H   0  0  0  0  0  0  0  0  0  0  0  0
   60.7574   29.3618   44.7660 H   0  0  0  0  0  0  0  0  0  0  0  0
  1  2  1  0
  2  3  1  0
  3  4  1  0
  4  5  1  0
  5  6  1  0
  6  7  1  0
  7  8  2  0
  8  9  1  0
  9 10  2  0
 10 11  1  0
 11 12  2  0
 12 13  1  0
 12 14  1  0
 14 15  2  0
 15 16  1  0
 16 17  2  0
 17 18  1  0
 18 19  1  0
 19 20  2  0
 20 21  1  0
 21 22  2  0
 22 23  1  0
 23 24  2  0
 17  7  1  0
 24 19  1  0
 16 10  1  0
  1 25  1  0
  1 26  1  0
  1 27  1  0
  2 28  1  0
  2 29  1  0
  3 30  1  0
  4 31  1  0
  4 32  1  0
  5 33  1  0
  5 34  1  0
  8 35  1  0
  9 36  1  0
 11 37  1  0
 14 38  1  0
 15 39  1  0
 18 40  1  0
 20 41  1  0
 21 42  1  0
 22 43  1  0
 23 44  1  0
 24 45  1  0
M  END
>  <smiles>  (9) 
CCNCCOc1ccc2cc(Br)ccc2c1Nc1ccccc1

>  <score_type>  (9) 
oracle

>  <origin>  (9) 
adg

>  <m_score__min__energy>  (9) 
-7.2300000000000004

>  <m_primary>  (9) 
energy

$$$$
11:0
     RDKit          3D

 62 67  0  0  1  0  0  0  0  0999 V2000
   58.5400   26.7750   47.3840 C   0  0  0  0  0  0  0  0  0  0  0  0
   59.4520   27.8630   47.0630 N   0  0  0  0  0  0  0  0  0  0  0  0
   59.6200   28.4680   45.8410 C   0  0  0  0  0  0  0  0  0  0  0  0
   58.7270   27.9400   44.4200 S   0  0  0  0  0  0  0  0  0  0  0  0
   57.4440   29.0200   43.8380 C   0  0  0  0  0  0  0  0  0  0  0  0
   56.7500   29.8500   44.8630 C   0  0  0  0  0  0  0  0  0  0  0  0
   56.6120   31.2610   44.4530 C   0  0  0  0  0  0  0  0  0  0  0  0
   57.9080   31.9410   44.2790 N   0  0  0  0  0  0  0  0  0  0  0  0
   57.5860   33.3750   44.5040 C   0  0  0  0  0  0  0  0  0  0  0  0
   58.7730   33.7640   45.3080 C   0  0  1  0  0  0  0  0  0  0  0  0
   58.7940   34.5700   46.5010 C   0  0  0  0  0  0  0  0  0  0  0  0
   59.4520   33.3840   47.1590 C   0  0  2  0  0  0  0  0  0  0  0  0
   58.9230   33.2340   48.6150 C   0  0  0  0  0  0  0  0  0  0  0  0
   59.3130   31.8070   48.9370 C   0  0  0  0  0  0  0  0  0  0  0  0
   58.4670   30.9210   49.1840 O   0  0  0  0  0  0  0  0  0  0  0  0
   60.7250   31.5700   48.9320 N   0  0  0  0  0  0  0  0  0  0  0  0
   61.4910   32.3460   48.0140 C   0  0  0  0  0  0  0  0  0  0  0  0
   62.8570   32.1630   48.0540 C   0  0  0  0  0  0  0  0  0  0  0  0
   63.7050   32.8820   47.2720 C   0  0  0  0  0  0  0  0  0  0  0  0
   63.1570   33.8180   46.4180 C   0  0  0  0  0  0  0  0  0  0  0  0
   61.7720   34.0040   46.3750 C   0  0  0  0  0  0  0  0  0  0  0  0
   60.9020   33.2830   47.1600 C   0  0  0  0  0  0  0  0  0  0  0  0
   58.6030   32.6040   46.2950 C   0  0  2  0  0  0  0  0  0  0  0  0
   58.8610   31.5760   45.3200 C   0  0  0  0  0  0  0  0  0  0  0  0
   60.5560   29.3940   46.0530 N   0  0  0  0  0  0  0  0  0  0  0  0
   60.9430   29.3710   47.3050 N   0  0  0  0  0  0  0  0  0  0  0  0
   60.2650   28.4140   47.9730 C   0  0  0  0  0  0  0  0  0  0  0  0
   60.4080   28.0730   49.3880 C   0  0  0  0  0  0  0  0  0  0  0  0
   60.1580   28.9730   50.3940 C   0  0  0  0  0  0  0  0  0  0  0  0
   60.3180   28.5700   51.7060 C   0  0  0  0  0  0  0  0  0  0  0  0
   60.7210   27.2900   52.0170 C   0  0  0  0  0  0  0  0  0  0  0  0
   60.9670   26.4000   50.9920 C   0  0  0  0  0  0  0  0  0  0  0  0
   60.8140   26.7830   49.6750 C   0  0  0  0  0  0  0  0  0  0  0  0
   58.4572   26.6762   48.4764 H   0  0  0  0  0  0  0  0  0  0  0  0
   57.5485   26.9902   46.9591 H   0  0  0  0  0  0  0  0  0  0  0  0
   58.9251   25.8363   46.9591 H   0  0  0  0  0  0  0  0  0  0  0  0
   57.8928   29.7046   43.1032 H   0  0  0  0  0  0  0  0  0  0  0  0
   56.6681   28.3540   43.4325 H   0  0  0  0  0  0  0  0  0  0  0  0
   55.7465   29.4330   45.0333 H   0  0  0  0  0  0  0  0  0  0  0  0
   57.3598   29.8274   45.7782 H   0  0  0  0  0  0  0  0  0  0  0  0
   56.0668   31.2966   43.4983 H   0  0  0  0  0  0  0  0  0  0  0  0
   56.0714   31.7847   45.2552 H   0  0  0  0  0  0  0  0  0  0  0  0
   57.5269   33.9363   43.5598 H   0  0  0  0  0  0  0  0  0  0  0  0
   56.6126   33.5696   44.9780 H   0  0  0  0  0  0  0  0  0  0  0  0
   59.4914   34.1323   44.5608 H   0  0  0  0  0  0  0  0  0  0  0  0
   59.4180   35.4738   46.4407 H   0  0  0  0  0  0  0  0  0  0  0  0
   57.8915   35.0488   46.9087 H   0  0  0  0  0  0  0  0  0  0  0  0
   59.4125   33.9468   49.2950 H   0  0  0  0  0  0  0  0  0  0  0  0
   57.8476   33.4385   48.7230 H   0  0  0  0  0  0  0  0  0  0  0  0
   61.1100   30.8640   49.5760 H   0  0  0  0  0  0  0  0  0  0  0  0
   63.2737   31.4113   48.7405 H   0  0  0  0  0  0  0  0  0  0  0  0
   64.7925   32.7232   47.3181 H   0  0  0  0  0  0  0  0  0  0  0  0
   63.8117   34.4190   45.7697 H   0  0  0  0  0  0  0  0  0  0  0  0
   61.3615   34.7569   45.6860 H   0  0  0  0  0  0  0  0  0  0  0  0
   57.8466   32.1012   46.9155 H   0  0  0  0  0  0  0  0  0  0  0  0
   59.8971   31.6173   44.9528 H   0  0  0  0  0  0  0  0  0  0  0  0
   58.7493   30.5498   45.7000 H   0  0  0  0  0  0  0  0  0  0  0  0
   59.8356   29.9982   50.1595 H   0  0  0  0  0  0  0  0  0  0  0  0
   60.1197   29.2852   52.5179 H   0  0  0  0  0  0  0  0  0  0  0  0
   60.8447   26.9824   53.0659 H   0  0  0  0  0  0  0  0  0  0  0  0
   61.2884   25.3746   51.2269 H   0  0  0  0  0  0  0  0  0  0  0  0
   61.0130   26.0692   48.8620 H   0  0  0  0  0  0  0  0  0  0  0  0
  1  2  1  0
  2  3  1  0
  3  4  1  0
  4  5  1  0
  5  6  1  0
  6  7  1  0
  7  8  1  0
  8  9  1  0
  9 10  1  0
 10 11  1  0
 12 11  1  6
 12 13  1  0
 13 14  1  0
 14 15  2  0
 14 16  1  0
 16 17  1  0
 17 18  2  0
 18 19  1  0
 19 20  2  0
 20 21  1  0
 21 22  2  0
 12 23  1  0
 23 24  1  0
  3 25  2  0
 25 26  1  0
 26 27  2  0
 27 28  1  0
 28 29  2  0
 29 30  1  0
 30 31  2  0
 31 32  1  0
 32 33  2  0
 27  2  1  0
 33 28  1  0
 24  8  1  0
 23 10  1  0
 22 12  1  0
 22 17  1  0
  1 34  1  0
  1 35  1  0
  1 36  1  0
  5 37  1  0
  5 38  1  0
  6 39  1  0
  6 40  1  0
  7 41  1  0
  7 42  1  0
  9 43  1  0
  9 44  1  0
 10 45  1  6
 11 46  1  0
 11 47  1  0
 13 48  1  0
 13 49  1  0
 16 50  1  0
 18 51  1  0
 19 52  1  0
 20 53  1  0
 21 54  1  0
 23 55  1  1
 24 56  1  0
 24 57  1  0
 29 58  1  0
 30 59  1  0
 31 60  1  0
 32 61  1  0
 33 62  1  0
M  END
>  <smiles>  (10) 
Cn1c(SCCCN2CC3CC4(CC(=O)Nc5ccccc54)C3C2)nnc1-c1ccccc1

>  <score_type>  (10) 
oracle

>  <origin>  (10) 
adg

>  <m_score__min__energy>  (10) 
-11.279999999999999

>  <m_primary>  (10) 
energy

$$$$
12:0
     RDKit          3D

 56 58  0  0  0  0  0  0  0  0999 V2000
   60.4460   34.0310   49.3290 C   0  0  0  0  0  0  0  0  0  0  0  0
   61.8910   33.5970   49.1220 C   0  0  0  0  0  0  0  0  0  0  0  0
   62.0090   32.3730   48.4300 N   0  0  0  0  0  0  0  0  0  0  0  0
   62.5700   32.3960   47.1260 C   0  0  0  0  0  0  0  0  0  0  0  0
   63.3040   33.6340   46.7410 C   0  0  0  0  0  0  0  0  0  0  0  0
   62.6790   31.3040   49.1790 C   0  0  0  0  0  0  0  0  0  0  0  0
   61.9300   31.0180   50.4160 C   0  0  0  0  0  0  0  0  0  0  0  0
   60.9400   30.1210   50.4610 O   0  0  0  0  0  0  0  0  0  0  0  0
   59.6570   30.3220   50.2400 C   0  0  0  0  0  0  0  0  0  0  0  0
   59.1150   30.8220   48.9640 C   0  0  0  0  0  0  0  0  0  0  0  0
   59.8760   30.6680   47.7390 N   0  0  0  0  0  0  0  0  0  0  0  0
   59.0790   30.6020   46.5390 C   0  0  0  0  0  0  0  0  0  0  0  0
   58.5860   31.8340   46.0900 C   0  0  0  0  0  0  0  0  0  0  0  0
   58.7340   32.9880   46.8350 C   0  0  0  0  0  0  0  0  0  0  0  0
   58.2320   34.2170   46.4280 C   0  0  0  0  0  0  0  0  0  0  0  0
   57.5690   34.2750   45.2510 C   0  0  0  0  0  0  0  0  0  0  0  0
   57.4150   33.1310   44.5030 C   0  0  0  0  0  0  0  0  0  0  0  0
   57.8990   31.8940   44.8740 C   0  0  0  0  0  0  0  0  0  0  0  0
   57.6980   30.7790   44.1170 N   0  0  0  0  0  0  0  0  0  0  0  0
   57.0120   30.8560   42.8530 C   0  0  0  0  0  0  0  0  0  0  0  0
   58.1740   29.5770   44.5670 C   0  0  0  0  0  0  0  0  0  0  0  0
   57.9340   28.4140   43.8700 C   0  0  0  0  0  0  0  0  0  0  0  0
   58.3420   27.1620   44.3300 C   0  0  0  0  0  0  0  0  0  0  0  0
   59.0050   27.0880   45.5260 C   0  0  0  0  0  0  0  0  0  0  0  0
   59.2390   28.2580   46.2100 C   0  0  0  0  0  0  0  0  0  0  0  0
   59.8890   28.0570   47.8450 Cl  0  0  0  0  0  0  0  0  0  0  0  0
   58.8620   29.5040   45.7850 C   0  0  0  0  0  0  0  0  0  0  0  0
   60.2331   34.0949   50.4063 H   0  0  0  0  0  0  0  0  0  0  0  0
   60.2889   35.0160   48.8651 H   0  0  0  0  0  0  0  0  0  0  0  0
   59.7722   33.2956   48.8651 H   0  0  0  0  0  0  0  0  0  0  0  0
   62.4112   34.3763   48.5456 H   0  0  0  0  0  0  0  0  0  0  0  0
   62.3358   33.4542   50.1179 H   0  0  0  0  0  0  0  0  0  0  0  0
   63.2726   31.5531   47.0493 H   0  0  0  0  0  0  0  0  0  0  0  0
   61.7129   32.3395   46.4388 H   0  0  0  0  0  0  0  0  0  0  0  0
   63.6213   34.1692   47.6481 H   0  0  0  0  0  0  0  0  0  0  0  0
   64.1889   33.3654   46.1453 H   0  0  0  0  0  0  0  0  0  0  0  0
   62.6437   34.2815   46.1453 H   0  0  0  0  0  0  0  0  0  0  0  0
   62.7225   30.3958   48.5598 H   0  0  0  0  0  0  0  0  0  0  0  0
   63.6990   31.6248   49.4372 H   0  0  0  0  0  0  0  0  0  0  0  0
   62.6747   30.6897   51.1560 H   0  0  0  0  0  0  0  0  0  0  0  0
   61.3890   31.9620   50.5776 H   0  0  0  0  0  0  0  0  0  0  0  0
   59.1676   29.3523   50.4138 H   0  0  0  0  0  0  0  0  0  0  0  0
   59.4587   31.1763   50.9040 H   0  0  0  0  0  0  0  0  0  0  0  0
   58.1538   30.3110   48.8062 H   0  0  0  0  0  0  0  0  0  0  0  0
   59.0927   31.9120   49.1105 H   0  0  0  0  0  0  0  0  0  0  0  0
   60.9210   30.6030   47.7090 H   0  0  0  0  0  0  0  0  0  0  0  0
   59.2730   32.9307   47.7922 H   0  0  0  0  0  0  0  0  0  0  0  0
   58.3697   35.1171   47.0451 H   0  0  0  0  0  0  0  0  0  0  0  0
   57.1558   35.2300   44.8943 H   0  0  0  0  0  0  0  0  0  0  0  0
   56.8720   33.2075   43.5495 H   0  0  0  0  0  0  0  0  0  0  0  0
   55.9328   30.9771   43.0283 H   0  0  0  0  0  0  0  0  0  0  0  0
   57.3898   31.7174   42.2827 H   0  0  0  0  0  0  0  0  0  0  0  0
   57.1894   29.9323   42.2827 H   0  0  0  0  0  0  0  0  0  0  0  0
   57.3985   28.4748   42.9111 H   0  0  0  0  0  0  0  0  0  0  0  0
   58.1357   26.2537   43.7448 H   0  0  0  0  0  0  0  0  0  0  0  0
   59.3407   26.1207   45.9280 H   0  0  0  0  0  0  0  0  0  0  0  0
  1  2  1  0
  2  3  1  0
  3  4  1  0
  4  5  1  0
  3  6  1  0
  6  7  1  0
  7  8  1  0
  8  9  1  0
  9 10  1  0
 10 11  1  0
 11 12  1  0
 12 13  2  0
 13 14  1  0
 14 15  2  0
 15 16  1  0
 16 17  2  0
 17 18  1  0
 18 19  2  0
 19 20  1  0
 19 21  1  0
 21 22  2  0
 22 23  1  0
 23 24  2  0
 24 25  1  0
 25 26  1  0
 25 27  2  0
 27 12  1  0
 18 13  1  0
 27 21  1  0
  1 28  1  0
  1 29  1  0
  1 30  1  0
  2 31  1  0
  2 32  1  0
  4 33  1  0
  4 34  1  0
  5 35  1  0
  5 36  1  0
  5 37  1  0
  6 38  1  0
  6 39  1  0
  7 40  1  0
  7 41  1  0
  9 42  1  0
  9 43  1  0
 10 44  1  0
 10 45  1  0
 11 46  1  0
 14 47  1  0
 15 48  1  0
 16 49  1  0
 17 50  1  0
 20 51  1  0
 20 52  1  0
 20 53  1  0
 22 54  1  0
 23 55  1  0
 24 56  1  0
M  CHG  1  19   1
M  END
>  <smiles>  (11) 
CCN(CC)CCOCCNc1c2ccccc2[n+](C)c2cccc(Cl)c12

>  <score_type>  (11) 
oracle

>  <origin>  (11) 
adg

>  <m_score__min__energy>  (11) 
-6

>  <m_primary>  (11) 
energy

$$$$
13:0
     RDKit          3D

 36 37  0  0  0  0  0  0  0  0999 V2000
   57.3100   32.7110   40.5070 C   0  0  0  0  0  0  0  0  0  0  0  0
   57.8890   32.1130   41.7640 C   0  0  0  0  0  0  0  0  0  0  0  0
   57.0140   31.5910   42.6460 O   0  0  0  0  0  0  0  0  0  0  0  0
   56.6580   30.3010   42.6350 C   0  0  0  0  0  0  0  0  0  0  0  0
   56.6890   29.4960   43.8750 C   0  0  0  0  0  0  0  0  0  0  0  0
   56.5850   30.4580   44.9500 O   0  0  0  0  0  0  0  0  0  0  0  0
   57.7070   30.9230   45.5660 N   0  0  0  0  0  0  0  0  0  0  0  0
   58.6480   30.2980   46.2900 C   0  0  0  0  0  0  0  0  0  0  0  0
   58.6520   28.5590   46.6500 S   0  0  0  0  0  0  0  0  0  0  0  0
   59.9020   27.7160   45.6070 C   0  0  0  0  0  0  0  0  0  0  0  0
   60.6910   28.7290   44.8290 C   0  0  0  0  0  0  0  0  0  0  0  0
   59.5850   31.1870   46.7020 N   0  0  0  0  0  0  0  0  0  0  0  0
   59.2500   32.4050   46.2390 C   0  0  0  0  0  0  0  0  0  0  0  0
   59.8450   33.6390   46.3620 C   0  0  0  0  0  0  0  0  0  0  0  0
   59.2770   34.7500   45.7730 C   0  0  0  0  0  0  0  0  0  0  0  0
   58.0890   34.5940   45.0520 C   0  0  0  0  0  0  0  0  0  0  0  0
   57.5190   33.3420   44.9490 C   0  0  0  0  0  0  0  0  0  0  0  0
   58.0820   32.2180   45.5370 C   0  0  0  0  0  0  0  0  0  0  0  0
   56.5677   33.4777   40.7739 H   0  0  0  0  0  0  0  0  0  0  0  0
   58.1152   33.1706   39.9150 H   0  0  0  0  0  0  0  0  0  0  0  0
   56.8247   31.9211   39.9150 H   0  0  0  0  0  0  0  0  0  0  0  0
   58.5784   31.3101   41.4639 H   0  0  0  0  0  0  0  0  0  0  0  0
   58.3634   32.9537   42.2914 H   0  0  0  0  0  0  0  0  0  0  0  0
   55.6234   30.2643   42.2631 H   0  0  0  0  0  0  0  0  0  0  0  0
   57.4447   29.8361   42.0227 H   0  0  0  0  0  0  0  0  0  0  0  0
   55.8424   28.7942   43.9013 H   0  0  0  0  0  0  0  0  0  0  0  0
   57.6038   28.8899   43.9507 H   0  0  0  0  0  0  0  0  0  0  0  0
   60.5834   27.1394   46.2498 H   0  0  0  0  0  0  0  0  0  0  0  0
   59.3900   27.0413   44.9051 H   0  0  0  0  0  0  0  0  0  0  0  0
   61.2139   29.4004   45.5260 H   0  0  0  0  0  0  0  0  0  0  0  0
   61.4272   28.2125   44.1955 H   0  0  0  0  0  0  0  0  0  0  0  0
   60.0100   29.3163   44.1955 H   0  0  0  0  0  0  0  0  0  0  0  0
   60.7794   33.7408   46.9334 H   0  0  0  0  0  0  0  0  0  0  0  0
   59.7493   35.7388   45.8687 H   0  0  0  0  0  0  0  0  0  0  0  0
   57.6134   35.4617   44.5714 H   0  0  0  0  0  0  0  0  0  0  0  0
   56.5842   33.2305   44.3801 H   0  0  0  0  0  0  0  0  0  0  0  0
  1  2  1  0
  2  3  1  0
  3  4  1  0
  4  5  1  0
  5  6  1  0
  6  7  1  0
  7  8  1  0
  8  9  1  0
  9 10  1  0
 10 11  1  0
  8 12  2  0
 12 13  1  0
 13 14  2  0
 14 15  1  0
 15 16  2  0
 16 17  1  0
 17 18  2  0
 18  7  1  0
 18 13  1  0
  1 19  1  0
  1 20  1  0
  1 21  1  0
  2 22  1  0
  2 23  1  0
  4 24  1  0
  4 25  1  0
  5 26  1  0
  5 27  1  0
 10 28  1  0
 10 29  1  0
 11 30  1  0
 11 31  1  0
 11 32  1  0
 14 33  1  0
 15 34  1  0
 16 35  1  0
 17 36  1  0
M  END
>  <smiles>  (12) 
CCOCCOn1c(SCC)nc2ccccc21

>  <score_type>  (12) 
oracle

>  <origin>  (12) 
adg

>  <m_score__min__energy>  (12) 
-5.9299999999999997

>  <m_primary>  (12) 
energy

$$$$
14:0
     RDKit          3D

 38 39  0  0  0  0  0  0  0  0999 V2000
   59.3040   30.9700   48.5800 C   0  0  0  0  0  0  0  0  0  0  0  0
   59.2370   31.2350   47.1200 N   0  0  0  0  0  0  0  0  0  0  0  0
   59.1290   30.1120   46.2850 C   0  0  0  0  0  0  0  0  0  0  0  0
   59.8940   28.9840   46.5900 C   0  0  0  0  0  0  0  0  0  0  0  0
   59.8320   27.8130   45.8750 C   0  0  0  0  0  0  0  0  0  0  0  0
   58.9920   27.6900   44.7960 C   0  0  0  0  0  0  0  0  0  0  0  0
   58.2250   28.7960   44.4740 C   0  0  0  0  0  0  0  0  0  0  0  0
   57.3880   28.6450   43.3840 C   0  0  0  0  0  0  0  0  0  0  0  0
   56.5990   29.6900   43.0020 C   0  0  0  0  0  0  0  0  0  0  0  0
   56.6650   30.8580   43.7170 C   0  0  0  0  0  0  0  0  0  0  0  0
   57.5060   31.0300   44.8220 C   0  0  0  0  0  0  0  0  0  0  0  0
   57.4780   32.6240   45.5810 S   0  0  0  0  0  0  0  0  0  0  0  0
   58.4030   33.8880   44.6830 C   0  0  0  0  0  0  0  0  0  0  0  0
   59.2540   34.6970   45.6290 C   0  0  0  0  0  0  0  0  0  0  0  0
   59.8310   33.9560   46.7040 N   0  0  0  0  0  0  0  0  0  0  0  0
   61.2600   33.8350   46.4010 C   0  0  0  0  0  0  0  0  0  0  0  0
   59.6620   34.5580   47.9930 C   0  0  0  0  0  0  0  0  0  0  0  0
   58.2930   29.9810   45.2030 C   0  0  0  0  0  0  0  0  0  0  0  0
   59.0707   31.8929   49.1312 H   0  0  0  0  0  0  0  0  0  0  0  0
   58.5747   30.1903   48.8450 H   0  0  0  0  0  0  0  0  0  0  0  0
   60.3162   30.6306   48.8450 H   0  0  0  0  0  0  0  0  0  0  0  0
   59.2580   32.2290   46.9100 H   0  0  0  0  0  0  0  0  0  0  0  0
   60.5816   29.0361   47.4470 H   0  0  0  0  0  0  0  0  0  0  0  0
   60.4637   26.9624   46.1708 H   0  0  0  0  0  0  0  0  0  0  0  0
   58.9316   26.7575   44.2156 H   0  0  0  0  0  0  0  0  0  0  0  0
   57.3587   27.6941   42.8318 H   0  0  0  0  0  0  0  0  0  0  0  0
   55.9239   29.5976   42.1384 H   0  0  0  0  0  0  0  0  0  0  0  0
   56.0271   31.6990   43.4076 H   0  0  0  0  0  0  0  0  0  0  0  0
   59.0517   33.4013   43.9398 H   0  0  0  0  0  0  0  0  0  0  0  0
   57.6902   34.5611   44.1842 H   0  0  0  0  0  0  0  0  0  0  0  0
   60.0716   35.1508   45.0496 H   0  0  0  0  0  0  0  0  0  0  0  0
   58.5833   35.4368   46.0903 H   0  0  0  0  0  0  0  0  0  0  0  0
   61.8311   33.7866   47.3399 H   0  0  0  0  0  0  0  0  0  0  0  0
   61.4349   32.9188   45.8179 H   0  0  0  0  0  0  0  0  0  0  0  0
   61.5864   34.7087   45.8179 H   0  0  0  0  0  0  0  0  0  0  0  0
   59.8710   33.8137   48.7755 H   0  0  0  0  0  0  0  0  0  0  0  0
   60.3574   35.4040   48.0966 H   0  0  0  0  0  0  0  0  0  0  0  0
   58.6279   34.9185   48.0966 H   0  0  0  0  0  0  0  0  0  0  0  0
  1  2  1  0
  2  3  1  0
  3  4  2  0
  4  5  1  0
  5  6  2  0
  6  7  1  0
  7  8  2  0
  8  9  1  0
  9 10  2  0
 10 11  1  0
 11 12  1  0
 12 13  1  0
 13 14  1  0
 14 15  1  0
 15 16  1  0
 15 17  1  0
 11 18  2  0
 18  3  1  0
 18  7  1  0
  1 19  1  0
  1 20  1  0
  1 21  1  0
  2 22  1  0
  4 23  1  0
  5 24  1  0
  6 25  1  0
  8 26  1  0
  9 27  1  0
 10 28  1  0
 13 29  1  0
 13 30  1  0
 14 31  1  0
 14 32  1  0
 16 33  1  0
 16 34  1  0
 16 35  1  0
 17 36  1  0
 17 37  1  0
 17 38  1  0
M  END
>  <smiles>  (13) 
CNc1cccc2cccc(SCCN(C)C)c12

>  <score_type>  (13) 
oracle

>  <origin>  (13) 
adg

>  <m_score__min__energy>  (13) 
-5.6900000000000004

>  <m_primary>  (13) 
energy

$$$$
15:0
     RDKit          3D

 53 55  0  0  0  0  0  0  0  0999 V2000
   58.3850   27.3940   43.4010 C   0  0  0  0  0  0  0  0  0  0  0  0
   57.8050   26.3470   44.3240 C   0  0  0  0  0  0  0  0  0  0  0  0
   58.3730   26.4990   45.6240 N   0  0  0  0  0  0  0  0  0  0  0  0
   57.8990   25.6050   46.6290 C   0  0  0  0  0  0  0  0  0  0  0  0
   56.4390   25.3280   46.3990 C   0  0  0  0  0  0  0  0  0  0  0  0
   59.7510   26.8360   45.6690 C   0  0  0  0  0  0  0  0  0  0  0  0
   60.2640   27.3240   46.9920 C   0  0  0  0  0  0  0  0  0  0  0  0
   59.2500   28.2380   47.5370 N   0  0  0  0  0  0  0  0  0  0  0  0
   58.9360   29.4110   46.7960 C   0  0  0  0  0  0  0  0  0  0  0  0
   57.7890   29.4350   46.0340 C   0  0  0  0  0  0  0  0  0  0  0  0
   57.3950   30.5170   45.2820 C   0  0  0  0  0  0  0  0  0  0  0  0
   56.2350   30.5200   44.5210 O   0  0  0  0  0  0  0  0  0  0  0  0
   56.3350   30.0830   43.1790 C   0  0  0  0  0  0  0  0  0  0  0  0
   58.2310   31.6340   45.3210 C   0  0  0  0  0  0  0  0  0  0  0  0
   59.3860   31.6760   46.0590 C   0  0  0  0  0  0  0  0  0  0  0  0
   59.7140   30.5500   46.7870 C   0  0  0  0  0  0  0  0  0  0  0  0
   60.8660   30.5680   47.5250 C   0  0  0  0  0  0  0  0  0  0  0  0
   61.6880   31.6860   47.5460 C   0  0  0  0  0  0  0  0  0  0  0  0
   62.8430   31.6720   48.2920 C   0  0  0  0  0  0  0  0  0  0  0  0
   63.6870   32.7540   48.3340 C   0  0  0  0  0  0  0  0  0  0  0  0
   63.3380   33.8650   47.5990 C   0  0  0  0  0  0  0  0  0  0  0  0
   62.1670   33.8730   46.8450 C   0  0  0  0  0  0  0  0  0  0  0  0
   61.3120   32.7910   46.7960 C   0  0  0  0  0  0  0  0  0  0  0  0
   60.1710   32.7950   46.0570 N   0  0  0  0  0  0  0  0  0  0  0  0
   59.8050   33.9820   45.3050 C   0  0  0  0  0  0  0  0  0  0  0  0
   58.8326   28.2020   43.9984 H   0  0  0  0  0  0  0  0  0  0  0  0
   59.1579   26.9358   42.7665 H   0  0  0  0  0  0  0  0  0  0  0  0
   57.5866   27.8062   42.7665 H   0  0  0  0  0  0  0  0  0  0  0  0
   56.7138   26.4725   44.3826 H   0  0  0  0  0  0  0  0  0  0  0  0
   58.0358   25.3441   43.9355 H   0  0  0  0  0  0  0  0  0  0  0  0
   58.4642   24.6626   46.5788 H   0  0  0  0  0  0  0  0  0  0  0  0
   58.0360   26.0598   47.6212 H   0  0  0  0  0  0  0  0  0  0  0  0
   55.9272   25.2309   47.3678 H   0  0  0  0  0  0  0  0  0  0  0  0
   55.9935   26.1576   45.8305 H   0  0  0  0  0  0  0  0  0  0  0  0
   56.3283   24.3928   45.8305 H   0  0  0  0  0  0  0  0  0  0  0  0
   60.3262   25.9395   45.3945 H   0  0  0  0  0  0  0  0  0  0  0  0
   59.8739   27.6789   44.9731 H   0  0  0  0  0  0  0  0  0  0  0  0
   60.4134   26.4751   47.6754 H   0  0  0  0  0  0  0  0  0  0  0  0
   61.2301   27.8364   46.8730 H   0  0  0  0  0  0  0  0  0  0  0  0
   58.8100   27.9840   48.4460 H   0  0  0  0  0  0  0  0  0  0  0  0
   57.1521   28.5382   46.0264 H   0  0  0  0  0  0  0  0  0  0  0  0
   56.5803   29.0109   43.1598 H   0  0  0  0  0  0  0  0  0  0  0  0
   55.3757   30.2488   42.6669 H   0  0  0  0  0  0  0  0  0  0  0  0
   57.1267   30.6495   42.6669 H   0  0  0  0  0  0  0  0  0  0  0  0
   57.9507   32.5206   44.7333 H   0  0  0  0  0  0  0  0  0  0  0  0
   61.1456   29.6807   48.1120 H   0  0  0  0  0  0  0  0  0  0  0  0
   63.0972   30.7711   48.8697 H   0  0  0  0  0  0  0  0  0  0  0  0
   64.6091   32.7342   48.9334 H   0  0  0  0  0  0  0  0  0  0  0  0
   63.9884   34.7521   47.6074 H   0  0  0  0  0  0  0  0  0  0  0  0
   61.9145   34.7746   46.2676 H   0  0  0  0  0  0  0  0  0  0  0  0
   59.5543   34.7950   46.0023 H   0  0  0  0  0  0  0  0  0  0  0  0
   60.6500   34.2898   44.6715 H   0  0  0  0  0  0  0  0  0  0  0  0
   58.9334   33.7605   44.6715 H   0  0  0  0  0  0  0  0  0  0  0  0
  1  2  1  0
  2  3  1  0
  3  4  1  0
  4  5  1  0
  3  6  1  0
  6  7  1  0
  7  8  1  0
  8  9  1  0
  9 10  2  0
 10 11  1  0
 11 12  1  0
 12 13  1  0
 11 14  2  0
 14 15  1  0
 15 16  2  0
 16 17  1  0
 17 18  2  0
 18 19  1  0
 19 20  2  0
 20 21  1  0
 21 22  2  0
 22 23  1  0
 23 24  2  0
 24 25  1  0
 16  9  1  0
 23 18  1  0
 24 15  1  0
  1 26  1  0
  1 27  1  0
  1 28  1  0
  2 29  1  0
  2 30  1  0
  4 31  1  0
  4 32  1  0
  5 33  1  0
  5 34  1  0
  5 35  1  0
  6 36  1  0
  6 37  1  0
  7 38  1  0
  7 39  1  0
  8 40  1  0
 10 41  1  0
 13 42  1  0
 13 43  1  0
 13 44  1  0
 14 45  1  0
 17 46  1  0
 19 47  1  0
 20 48  1  0
 21 49  1  0
 22 50  1  0
 25 51  1  0
 25 52  1  0
 25 53  1  0
M  CHG  1  24   1
M  END
>  <smiles>  (14) 
CCN(CC)CCNc1cc(OC)cc2c1cc1ccccc1[n+]2C

>  <score_type>  (14) 
oracle

>  <origin>  (14) 
adg

>  <m_score__min__energy>  (14) 
-5.5700000000000003

>  <m_primary>  (14) 
energy

$$$$
16:0
     RDKit          3D

 63 65  0  0  0  0  0  0  0  0999 V2000
   58.6860   31.2940   49.9310 C   0  0  0  0  0  0  0  0  0  0  0  0
   58.9110   32.7240   49.4290 C   0  0  0  0  0  0  0  0  0  0  0  0
   60.2270   33.1180   49.8910 N   0  0  0  0  0  0  0  0  0  0  0  0
   60.1390   33.3940   51.2980 C   0  0  0  0  0  0  0  0  0  0  0  0
   60.7380   34.2130   49.1160 C   0  0  0  0  0  0  0  0  0  0  0  0
   62.2080   34.5020   49.3720 C   0  0  0  0  0  0  0  0  0  0  0  0
   62.8050   33.3180   49.6840 O   0  0  0  0  0  0  0  0  0  0  0  0
   63.6440   32.7950   48.7530 C   0  0  0  0  0  0  0  0  0  0  0  0
   63.1180   32.7060   47.3470 C   0  0  0  0  0  0  0  0  0  0  0  0
   62.4150   31.3980   47.1660 C   0  0  0  0  0  0  0  0  0  0  0  0
   61.0060   31.4220   47.4870 N   0  0  0  0  0  0  0  0  0  0  0  0
   60.0100   31.2930   46.5130 C   0  0  0  0  0  0  0  0  0  0  0  0
   59.3330   32.2680   45.8510 C   0  0  0  0  0  0  0  0  0  0  0  0
   58.3590   31.9880   44.8720 C   0  0  0  0  0  0  0  0  0  0  0  0
   58.0520   30.7050   44.5470 N   0  0  0  0  0  0  0  0  0  0  0  0
   57.0560   30.4170   43.5700 C   0  0  0  0  0  0  0  0  0  0  0  0
   55.6950   30.0920   44.1100 C   0  0  0  0  0  0  0  0  0  0  0  0
   58.7170   29.7110   45.1940 C   0  0  0  0  0  0  0  0  0  0  0  0
   58.4670   28.3730   44.9080 C   0  0  0  0  0  0  0  0  0  0  0  0
   59.1330   27.3400   45.5470 C   0  0  0  0  0  0  0  0  0  0  0  0
   60.0850   27.5980   46.5030 C   0  0  0  0  0  0  0  0  0  0  0  0
   60.3430   28.9180   46.7950 C   0  0  0  0  0  0  0  0  0  0  0  0
   59.6740   29.9690   46.1560 C   0  0  0  0  0  0  0  0  0  0  0  0
   57.7460   33.1660   44.2430 C   0  0  0  0  0  0  0  0  0  0  0  0
   57.1550   34.0000   45.3890 C   0  0  0  0  0  0  0  0  0  0  0  0
   58.1910   34.3200   46.4180 C   0  0  0  0  0  0  0  0  0  0  0  0
   59.5540   33.7060   46.1250 C   0  0  0  0  0  0  0  0  0  0  0  0
   58.6850   31.2875   51.0310 H   0  0  0  0  0  0  0  0  0  0  0  0
   57.7185   30.9235   49.5612 H   0  0  0  0  0  0  0  0  0  0  0  0
   59.4930   30.6444   49.5612 H   0  0  0  0  0  0  0  0  0  0  0  0
   58.8694   32.7523   48.3302 H   0  0  0  0  0  0  0  0  0  0  0  0
   58.1351   33.4059   49.8072 H   0  0  0  0  0  0  0  0  0  0  0  0
   60.4251   32.4967   51.8663 H   0  0  0  0  0  0  0  0  0  0  0  0
   60.8180   34.2212   51.5526 H   0  0  0  0  0  0  0  0  0  0  0  0
   59.1066   33.6755   51.5526 H   0  0  0  0  0  0  0  0  0  0  0  0
   60.6104   33.9745   48.0498 H   0  0  0  0  0  0  0  0  0  0  0  0
   60.1751   35.1103   49.4127 H   0  0  0  0  0  0  0  0  0  0  0  0
   62.6700   34.9305   48.4704 H   0  0  0  0  0  0  0  0  0  0  0  0
   62.3257   35.2256   50.1921 H   0  0  0  0  0  0  0  0  0  0  0  0
   64.5496   33.4191   48.7317 H   0  0  0  0  0  0  0  0  0  0  0  0
   63.8122   31.7540   49.0662 H   0  0  0  0  0  0  0  0  0  0  0  0
   62.4131   33.5307   47.1651 H   0  0  0  0  0  0  0  0  0  0  0  0
   63.9534   32.7779   46.6350 H   0  0  0  0  0  0  0  0  0  0  0  0
   62.5220   31.0938   46.1143 H   0  0  0  0  0  0  0  0  0  0  0  0
   62.8827   30.6932   47.8692 H   0  0  0  0  0  0  0  0  0  0  0  0
   60.7650   31.5450   48.5090 H   0  0  0  0  0  0  0  0  0  0  0  0
   56.9596   31.2958   42.9154 H   0  0  0  0  0  0  0  0  0  0  0  0
   57.3980   29.5105   43.0491 H   0  0  0  0  0  0  0  0  0  0  0  0
   55.7255   30.0993   45.2096 H   0  0  0  0  0  0  0  0  0  0  0  0
   54.9721   30.8428   43.7582 H   0  0  0  0  0  0  0  0  0  0  0  0
   55.3893   29.0956   43.7582 H   0  0  0  0  0  0  0  0  0  0  0  0
   57.7127   28.1260   44.1464 H   0  0  0  0  0  0  0  0  0  0  0  0
   58.8961   26.2982   45.2851 H   0  0  0  0  0  0  0  0  0  0  0  0
   60.6190   26.7834   47.0140 H   0  0  0  0  0  0  0  0  0  0  0  0
   61.1006   29.1554   47.5563 H   0  0  0  0  0  0  0  0  0  0  0  0
   58.5054   33.7475   43.6996 H   0  0  0  0  0  0  0  0  0  0  0  0
   56.9732   32.8772   43.5154 H   0  0  0  0  0  0  0  0  0  0  0  0
   56.7548   34.9391   44.9793 H   0  0  0  0  0  0  0  0  0  0  0  0
   56.3576   33.4141   45.8695 H   0  0  0  0  0  0  0  0  0  0  0  0
   58.3056   35.4129   46.4674 H   0  0  0  0  0  0  0  0  0  0  0  0
   57.8428   33.8915   47.3694 H   0  0  0  0  0  0  0  0  0  0  0  0
   60.0064   34.1922   45.2481 H   0  0  0  0  0  0  0  0  0  0  0  0
   60.2364   33.8422   46.9769 H   0  0  0  0  0  0  0  0  0  0  0  0
  1  2  1  0
  2  3  1  0
  3  4  1  0
  3  5  1  0
  5  6  1  0
  6  7  1  0
  7  8  1  0
  8  9  1  0
  9 10  1  0
 10 11  1  0
 11 12  1  0
 12 13  2  0
 13 14  1  0
 14 15  2  0
 15 16  1  0
 16 17  1  0
 15 18  1  0
 18 19  2  0
 19 20  1  0
 20 21  2  0
 21 22  1  0
 22 23  2  0
 14 24  1  0
 24 25  1  0
 25 26  1  0
 26 27  1  0
 23 12  1  0
 27 13  1  0
 23 18  1  0
  1 28  1  0
  1 29  1  0
  1 30  1  0
  2 31  1  0
  2 32  1  0
  4 33  1  0
  4 34  1  0
  4 35  1  0
  5 36  1  0
  5 37  1  0
  6 38  1  0
  6 39  1  0
  8 40  1  0
  8 41  1  0
  9 42  1  0
  9 43  1  0
 10 44  1  0
 10 45  1  0
 11 46  1  0
 16 47  1  0
 16 48  1  0
 17 49  1  0
 17 50  1  0
 17 51  1  0
 19 52  1  0
 20 53  1  0
 21 54  1  0
 22 55  1  0
 24 56  1  0
 24 57  1  0
 25 58  1  0
 25 59  1  0
 26 60  1  0
 26 61  1  0
 27 62  1  0
 27 63  1  0
M  CHG  1  15   1
M  END
>  <smiles>  (15) 
CCN(C)CCOCCCNc1c2c([n+](CC)c3ccccc13)CCCC2

>  <score_type>  (15) 
oracle

>  <origin>  (15) 
adg

>  <m_score__min__energy>  (15) 
-6.0700000000000003

>  <m_primary>  (15) 
energy

$$$$
17:0
     RDKit          3D

 70 73  0  0  0  0  0  0  0  0999 V2000
   63.1420   33.8670   46.3610 C   0  0  0  0  0  0  0  0  0  0  0  0
   63.6400   33.8130   47.7760 C   0  0  0  0  0  0  0  0  0  0  0  0
   62.8290   32.8980   48.6330 N   0  0  0  0  0  0  0  0  0  0  0  0
   63.4500   32.9040   49.9510 C   0  0  0  0  0  0  0  0  0  0  0  0
   64.9000   32.4410   49.8620 C   0  0  0  0  0  0  0  0  0  0  0  0
   63.0170   31.6090   48.0170 C   0  0  0  0  0  0  0  0  0  0  0  0
   61.9490   30.9560   47.2670 C   0  0  0  0  0  0  0  0  0  0  0  0
   60.5850   30.9860   47.6370 N   0  0  0  0  0  0  0  0  0  0  0  0
   59.6340   31.1140   46.5500 C   0  0  0  0  0  0  0  0  0  0  0  0
   59.3170   29.8790   45.9640 C   0  0  0  0  0  0  0  0  0  0  0  0
   59.8690   28.6970   46.4780 C   0  0  0  0  0  0  0  0  0  0  0  0
   59.5890   27.4570   45.9540 C   0  0  0  0  0  0  0  0  0  0  0  0
   58.7310   27.3980   44.8850 C   0  0  0  0  0  0  0  0  0  0  0  0
   58.1810   28.5780   44.3730 C   0  0  0  0  0  0  0  0  0  0  0  0
   58.4540   29.8110   44.8840 C   0  0  0  0  0  0  0  0  0  0  0  0
   57.9270   30.9670   44.4110 N   0  0  0  0  0  0  0  0  0  0  0  0
   57.0540   30.9060   43.2630 C   0  0  0  0  0  0  0  0  0  0  0  0
   58.2290   32.1670   44.9760 C   0  0  0  0  0  0  0  0  0  0  0  0
   57.6630   33.3050   44.4500 C   0  0  0  0  0  0  0  0  0  0  0  0
   57.9710   34.5070   45.0200 C   0  0  0  0  0  0  0  0  0  0  0  0
   58.8280   34.5820   46.0970 C   0  0  0  0  0  0  0  0  0  0  0  0
   59.4220   33.4480   46.6590 C   0  0  0  0  0  0  0  0  0  0  0  0
   60.1890   33.6460   47.8140 N   0  0  0  0  0  0  0  0  0  0  0  0
   59.6470   34.3940   48.9750 C   0  0  0  0  0  0  0  0  0  0  0  0
   60.1330   33.8260   50.2870 C   0  0  0  0  0  0  0  0  0  0  0  0
   59.1660   32.9570   50.9280 N   0  0  0  0  0  0  0  0  0  0  0  0
   58.9540   31.7400   50.3690 C   0  0  0  0  0  0  0  0  0  0  0  0
   58.0640   30.8190   50.8630 C   0  0  0  0  0  0  0  0  0  0  0  0
   57.3290   31.1220   51.9900 C   0  0  0  0  0  0  0  0  0  0  0  0
   57.5450   32.3580   52.5580 C   0  0  0  0  0  0  0  0  0  0  0  0
   58.4640   33.2700   52.0220 C   0  0  0  0  0  0  0  0  0  0  0  0
   58.6320   34.5560   52.6940 C   0  0  0  0  0  0  0  0  0  0  0  0
   59.1030   32.2540   46.0740 C   0  0  0  0  0  0  0  0  0  0  0  0
   62.0484   33.9856   46.3614 H   0  0  0  0  0  0  0  0  0  0  0  0
   63.6031   34.7204   45.8423 H   0  0  0  0  0  0  0  0  0  0  0  0
   63.4095   32.9346   45.8423 H   0  0  0  0  0  0  0  0  0  0  0  0
   64.6817   33.4598   47.7701 H   0  0  0  0  0  0  0  0  0  0  0  0
   63.5587   34.8256   48.1979 H   0  0  0  0  0  0  0  0  0  0  0  0
   63.4207   33.9247   50.3600 H   0  0  0  0  0  0  0  0  0  0  0  0
   62.8971   32.2157   50.6072 H   0  0  0  0  0  0  0  0  0  0  0  0
   65.3064   32.3112   50.8759 H   0  0  0  0  0  0  0  0  0  0  0  0
   64.9467   31.4833   49.3229 H   0  0  0  0  0  0  0  0  0  0  0  0
   65.4931   33.1945   49.3229 H   0  0  0  0  0  0  0  0  0  0  0  0
   63.8618   31.7186   47.3211 H   0  0  0  0  0  0  0  0  0  0  0  0
   63.1312   30.9468   48.8879 H   0  0  0  0  0  0  0  0  0  0  0  0
   61.9918   31.3845   46.2548 H   0  0  0  0  0  0  0  0  0  0  0  0
   62.1885   29.8973   47.4452 H   0  0  0  0  0  0  0  0  0  0  0  0
   60.1350   30.8800   48.5620 H   0  0  0  0  0  0  0  0  0  0  0  0
   60.5543   28.7645   47.3358 H   0  0  0  0  0  0  0  0  0  0  0  0
   60.0367   26.5454   46.3765 H   0  0  0  0  0  0  0  0  0  0  0  0
   58.4769   26.4279   44.4329 H   0  0  0  0  0  0  0  0  0  0  0  0
   57.4948   28.5068   43.5162 H   0  0  0  0  0  0  0  0  0  0  0  0
   56.0095   30.8330   43.6001 H   0  0  0  0  0  0  0  0  0  0  0  0
   57.1810   31.8152   42.6570 H   0  0  0  0  0  0  0  0  0  0  0  0
   57.3062   30.0233   42.6570 H   0  0  0  0  0  0  0  0  0  0  0  0
   56.9786   33.2481   43.5907 H   0  0  0  0  0  0  0  0  0  0  0  0
   57.5288   35.4287   44.6139 H   0  0  0  0  0  0  0  0  0  0  0  0
   59.0523   35.5683   46.5293 H   0  0  0  0  0  0  0  0  0  0  0  0
   61.1380   33.3020   48.0200 H   0  0  0  0  0  0  0  0  0  0  0  0
   59.9663   35.4441   48.9020 H   0  0  0  0  0  0  0  0  0  0  0  0
   58.5504   34.3106   48.9526 H   0  0  0  0  0  0  0  0  0  0  0  0
   61.0506   33.2491   50.0994 H   0  0  0  0  0  0  0  0  0  0  0  0
   60.3086   34.6745   50.9647 H   0  0  0  0  0  0  0  0  0  0  0  0
   59.5278   31.4757   49.4685 H   0  0  0  0  0  0  0  0  0  0  0  0
   57.9380   29.8469   50.3639 H   0  0  0  0  0  0  0  0  0  0  0  0
   56.6052   30.4108   52.4147 H   0  0  0  0  0  0  0  0  0  0  0  0
   56.9794   32.6375   53.4591 H   0  0  0  0  0  0  0  0  0  0  0  0
   58.6124   34.4057   53.7835 H   0  0  0  0  0  0  0  0  0  0  0  0
   59.5957   34.9990   52.4023 H   0  0  0  0  0  0  0  0  0  0  0  0
   57.8145   35.2317   52.4023 H   0  0  0  0  0  0  0  0  0  0  0  0
  1  2  1  0
  2  3  1  0
  3  4  1  0
  4  5  1  0
  3  6  1  0
  6  7  1  0
  7  8  1  0
  8  9  1  0
  9 10  2  0
 10 11  1  0
 11 12  2  0
 12 13  1  0
 13 14  2  0
 14 15  1  0
 15 16  2  0
 16 17  1  0
 16 18  1  0
 18 19  2  0
 19 20  1  0
 20 21  2  0
 21 22  1  0
 22 23  1  0
 23 24  1  0
 24 25  1  0
 25 26  1  0
 26 27  2  0
 27 28  1  0
 28 29  2  0
 29 30  1  0
 30 31  2  0
 31 32  1  0
 22 33  2  0
 33  9  1  0
 15 10  1  0
 33 18  1  0
 31 26  1  0
  1 34  1  0
  1 35  1  0
  1 36  1  0
  2 37  1  0
  2 38  1  0
  4 39  1  0
  4 40  1  0
  5 41  1  0
  5 42  1  0
  5 43  1  0
  6 44  1  0
  6 45  1  0
  7 46  1  0
  7 47  1  0
  8 48  1  0
 11 49  1  0
 12 50  1  0
 13 51  1  0
 14 52  1  0
 17 53  1  0
 17 54  1  0
 17 55  1  0
 19 56  1  0
 20 57  1  0
 21 58  1  0
 23 59  1  0
 24 60  1  0
 24 61  1  0
 25 62  1  0
 25 63  1  0
 27 64  1  0
 28 65  1  0
 29 66  1  0
 30 67  1  0
 32 68  1  0
 32 69  1  0
 32 70  1  0
M  CHG  2  16   1  26   1
M  END
>  <smiles>  (16) 
CCN(CC)CCNc1c2ccccc2[n+](C)c2cccc(NCC[n+]3ccccc3C)c12

>  <score_type>  (16) 
oracle

>  <origin>  (16) 
adg

>  <m_score__min__energy>  (16) 
-5.5899999999999999

>  <m_primary>  (16) 
energy

$$$$
18:0
     RDKit          3D

 58 61  0  0  0  0  0  0  0  0999 V2000
   63.3830   33.4950   46.7450 C   0  0  0  0  0  0  0  0  0  0  0  0
   62.9730   32.1670   47.3470 C   0  0  0  0  0  0  0  0  0  0  0  0
   62.2230   32.2730   48.5330 N   0  0  0  0  0  0  0  0  0  0  0  0
   62.3520   33.4520   49.3080 C   0  0  0  0  0  0  0  0  0  0  0  0
   61.6970   31.1210   49.1390 C   0  0  0  0  0  0  0  0  0  0  0  0
   60.8760   30.2750   48.2310 C   0  0  0  0  0  0  0  0  0  0  0  0
   59.5110   30.7680   48.0440 N   0  0  0  0  0  0  0  0  0  0  0  0
   59.1440   31.1180   46.7220 C   0  0  0  0  0  0  0  0  0  0  0  0
   59.1920   32.4840   46.4180 C   0  0  0  0  0  0  0  0  0  0  0  0
   59.5870   33.4090   47.3900 C   0  0  0  0  0  0  0  0  0  0  0  0
   59.6390   34.7720   47.1030 C   0  0  0  0  0  0  0  0  0  0  0  0
   59.2860   35.1780   45.8210 C   0  0  0  0  0  0  0  0  0  0  0  0
   58.8960   34.2890   44.8550 C   0  0  0  0  0  0  0  0  0  0  0  0
   58.8540   32.9540   45.1650 C   0  0  0  0  0  0  0  0  0  0  0  0
   58.4710   32.0670   44.2250 N   0  0  0  0  0  0  0  0  0  0  0  0
   58.1180   32.5900   42.9020 C   0  0  0  0  0  0  0  0  0  0  0  0
   58.4190   30.7450   44.4960 C   0  0  0  0  0  0  0  0  0  0  0  0
   58.0800   29.6790   43.7560 N   0  0  0  0  0  0  0  0  0  0  0  0
   58.1840   28.5410   44.4750 C   0  0  0  0  0  0  0  0  0  0  0  0
   57.9570   27.2160   44.1840 C   0  0  0  0  0  0  0  0  0  0  0  0
   58.1480   26.2300   45.1270 C   0  0  0  0  0  0  0  0  0  0  0  0
   57.9110   24.8390   44.8360 N   0  0  0  0  0  0  0  0  0  0  0  0
   57.0220   24.4070   43.7890 C   0  0  0  0  0  0  0  0  0  0  0  0
   58.6150   23.8560   45.6530 C   0  0  0  0  0  0  0  0  0  0  0  0
   58.5750   26.6240   46.3770 C   0  0  0  0  0  0  0  0  0  0  0  0
   58.8140   27.9520   46.7050 C   0  0  0  0  0  0  0  0  0  0  0  0
   58.6120   28.8870   45.7420 C   0  0  0  0  0  0  0  0  0  0  0  0
   58.7540   30.2380   45.7500 C   0  0  0  0  0  0  0  0  0  0  0  0
   63.6039   34.2103   47.5509 H   0  0  0  0  0  0  0  0  0  0  0  0
   64.2796   33.3546   46.1234 H   0  0  0  0  0  0  0  0  0  0  0  0
   62.5633   33.8845   46.1234 H   0  0  0  0  0  0  0  0  0  0  0  0
   62.3684   31.6249   46.6049 H   0  0  0  0  0  0  0  0  0  0  0  0
   63.9027   31.6410   47.6095 H   0  0  0  0  0  0  0  0  0  0  0  0
   62.3237   33.1932   50.3767 H   0  0  0  0  0  0  0  0  0  0  0  0
   63.3091   33.9414   49.0745 H   0  0  0  0  0  0  0  0  0  0  0  0
   61.5234   34.1368   49.0745 H   0  0  0  0  0  0  0  0  0  0  0  0
   62.5352   30.5141   49.5120 H   0  0  0  0  0  0  0  0  0  0  0  0
   61.0283   31.4637   49.9424 H   0  0  0  0  0  0  0  0  0  0  0  0
   61.3699   30.2385   47.2488 H   0  0  0  0  0  0  0  0  0  0  0  0
   60.7987   29.2822   48.6982 H   0  0  0  0  0  0  0  0  0  0  0  0
   58.8360   30.8590   48.8380 H   0  0  0  0  0  0  0  0  0  0  0  0
   59.8605   33.0558   48.3952 H   0  0  0  0  0  0  0  0  0  0  0  0
   59.9489   35.5020   47.8653 H   0  0  0  0  0  0  0  0  0  0  0  0
   59.3211   36.2494   45.5743 H   0  0  0  0  0  0  0  0  0  0  0  0
   58.6215   34.6394   43.8491 H   0  0  0  0  0  0  0  0  0  0  0  0
   57.5060   33.4967   43.0175 H   0  0  0  0  0  0  0  0  0  0  0  0
   59.0360   32.8354   42.3478 H   0  0  0  0  0  0  0  0  0  0  0  0
   57.5471   31.8304   42.3478 H   0  0  0  0  0  0  0  0  0  0  0  0
   57.7770   29.7050   42.7680 H   0  0  0  0  0  0  0  0  0  0  0  0
   57.6154   26.9375   43.1761 H   0  0  0  0  0  0  0  0  0  0  0  0
   56.1173   23.9674   44.2343 H   0  0  0  0  0  0  0  0  0  0  0  0
   56.7422   25.2696   43.1664 H   0  0  0  0  0  0  0  0  0  0  0  0
   57.5273   23.6540   43.1664 H   0  0  0  0  0  0  0  0  0  0  0  0
   58.4538   24.0811   46.7176 H   0  0  0  0  0  0  0  0  0  0  0  0
   58.2307   22.8500   45.4286 H   0  0  0  0  0  0  0  0  0  0  0  0
   59.6911   23.8959   45.4286 H   0  0  0  0  0  0  0  0  0  0  0  0
   58.7330   25.8543   47.1468 H   0  0  0  0  0  0  0  0  0  0  0  0
   59.1555   28.2366   47.7112 H   0  0  0  0  0  0  0  0  0  0  0  0
  1  2  1  0
  2  3  1  0
  3  4  1  0
  3  5  1  0
  5  6  1  0
  6  7  1  0
  7  8  1  0
  8  9  2  0
  9 10  1  0
 10 11  2  0
 11 12  1  0
 12 13  2  0
 13 14  1  0
 14 15  2  0
 15 16  1  0
 15 17  1  0
 17 18  1  0
 18 19  1  0
 19 20  2  0
 20 21  1  0
 21 22  1  0
 22 23  1  0
 22 24  1  0
 21 25  2  0
 25 26  1  0
 26 27  2  0
 27 28  1  0
 28  8  1  0
 14  9  1  0
 28 17  2  0
 27 19  1  0
  1 29  1  0
  1 30  1  0
  1 31  1  0
  2 32  1  0
  2 33  1  0
  4 34  1  0
  4 35  1  0
  4 36  1  0
  5 37  1  0
  5 38  1  0
  6 39  1  0
  6 40  1  0
  7 41  1  0
 10 42  1  0
 11 43  1  0
 12 44  1  0
 13 45  1  0
 16 46  1  0
 16 47  1  0
 16 48  1  0
 18 49  1  0
 20 50  1  0
 23 51  1  0
 23 52  1  0
 23 53  1  0
 24 54  1  0
 24 55  1  0
 24 56  1  0
 25 57  1  0
 26 58  1  0
M  CHG  1  15   1
M  END
>  <smiles>  (17) 
CCN(C)CCNc1c2ccccc2[n+](C)c2[nH]c3cc(N(C)C)ccc3c12

>  <score_type>  (17) 
oracle

>  <origin>  (17) 
adg

>  <m_score__min__energy>  (17) 
-6.6600000000000001

>  <m_primary>  (17) 
energy

$$$$
19:0
     RDKit          3D

 57 60  0  0  0  0  0  0  0  0999 V2000
   58.5360   27.5660   47.7040 C   0  0  0  0  0  0  0  0  0  0  0  0
   59.6440   27.3350   46.8060 N   0  0  0  0  0  0  0  0  0  0  0  0
   59.5050   26.1820   45.9730 C   0  0  0  0  0  0  0  0  0  0  0  0
   58.5250   26.3910   44.8620 C   0  0  0  0  0  0  0  0  0  0  0  0
   58.8770   27.5680   44.0760 N   0  0  0  0  0  0  0  0  0  0  0  0
   57.7410   28.3120   43.6810 C   0  0  0  0  0  0  0  0  0  0  0  0
   56.8540   28.8800   44.7240 C   0  0  0  0  0  0  0  0  0  0  0  0
   57.3170   29.8250   45.5810 O   0  0  0  0  0  0  0  0  0  0  0  0
   57.7640   31.0830   45.4380 C   0  0  0  0  0  0  0  0  0  0  0  0
   57.6530   31.7590   44.2280 C   0  0  0  0  0  0  0  0  0  0  0  0
   58.1160   33.0610   44.0660 C   0  0  0  0  0  0  0  0  0  0  0  0
   58.6940   33.6870   45.1320 C   0  0  0  0  0  0  0  0  0  0  0  0
   59.1460   34.9810   44.9480 C   0  0  0  0  0  0  0  0  0  0  0  0
   59.7370   35.6600   45.9880 C   0  0  0  0  0  0  0  0  0  0  0  0
   59.8660   35.0250   47.2040 C   0  0  0  0  0  0  0  0  0  0  0  0
   59.4090   33.7350   47.3660 C   0  0  0  0  0  0  0  0  0  0  0  0
   58.8060   33.0370   46.3130 C   0  0  0  0  0  0  0  0  0  0  0  0
   58.3510   31.7170   46.5200 C   0  0  0  0  0  0  0  0  0  0  0  0
   58.5530   31.1870   47.8470 C   0  0  0  0  0  0  0  0  0  0  0  0
   59.6040   30.3050   48.1390 N   0  0  0  0  0  0  0  0  0  0  0  0
   60.8750   30.9050   48.5260 C   0  0  0  0  0  0  0  0  0  0  0  0
   61.4310   30.6650   49.7600 C   0  0  0  0  0  0  0  0  0  0  0  0
   62.6340   31.2330   50.1260 C   0  0  0  0  0  0  0  0  0  0  0  0
   63.3070   32.0590   49.2510 C   0  0  0  0  0  0  0  0  0  0  0  0
   62.7700   32.3160   48.0060 C   0  0  0  0  0  0  0  0  0  0  0  0
   63.7060   33.4590   46.8040 Br  0  0  0  0  0  0  0  0  0  0  0  0
   61.5660   31.7340   47.6700 C   0  0  0  0  0  0  0  0  0  0  0  0
   60.0310   28.2230   44.5570 C   0  0  0  0  0  0  0  0  0  0  0  0
   59.9520   28.5300   46.0460 C   0  0  0  0  0  0  0  0  0  0  0  0
   58.8858   27.4931   48.7443 H   0  0  0  0  0  0  0  0  0  0  0  0
   58.1226   28.5696   47.5257 H   0  0  0  0  0  0  0  0  0  0  0  0
   57.7560   26.8112   47.5257 H   0  0  0  0  0  0  0  0  0  0  0  0
   60.4860   25.9416   45.5372 H   0  0  0  0  0  0  0  0  0  0  0  0
   59.1281   25.3607   46.6002 H   0  0  0  0  0  0  0  0  0  0  0  0
   58.5272   25.5066   44.2079 H   0  0  0  0  0  0  0  0  0  0  0  0
   57.5260   26.5430   45.2967 H   0  0  0  0  0  0  0  0  0  0  0  0
   58.1030   29.1540   43.0727 H   0  0  0  0  0  0  0  0  0  0  0  0
   57.1067   27.5725   43.1703 H   0  0  0  0  0  0  0  0  0  0  0  0
   55.9947   29.3236   44.1998 H   0  0  0  0  0  0  0  0  0  0  0  0
   56.6639   28.0199   45.3828 H   0  0  0  0  0  0  0  0  0  0  0  0
   57.1850   31.2490   43.3731 H   0  0  0  0  0  0  0  0  0  0  0  0
   58.0182   33.5752   43.0985 H   0  0  0  0  0  0  0  0  0  0  0  0
   59.0327   35.4681   43.9682 H   0  0  0  0  0  0  0  0  0  0  0  0
   60.0995   36.6896   45.8516 H   0  0  0  0  0  0  0  0  0  0  0  0
   60.3357   35.5499   48.0489 H   0  0  0  0  0  0  0  0  0  0  0  0
   59.5204   33.2433   48.3437 H   0  0  0  0  0  0  0  0  0  0  0  0
   58.6854   32.0552   48.5094 H   0  0  0  0  0  0  0  0  0  0  0  0
   57.6682   30.5470   47.9794 H   0  0  0  0  0  0  0  0  0  0  0  0
   59.6280   29.2680   48.1270 H   0  0  0  0  0  0  0  0  0  0  0  0
   60.9069   30.0076   50.4693 H   0  0  0  0  0  0  0  0  0  0  0  0
   63.0578   31.0260   51.1198 H   0  0  0  0  0  0  0  0  0  0  0  0
   64.2664   32.5105   49.5436 H   0  0  0  0  0  0  0  0  0  0  0  0
   61.1396   31.9403   46.6772 H   0  0  0  0  0  0  0  0  0  0  0  0
   60.9035   27.5779   44.3761 H   0  0  0  0  0  0  0  0  0  0  0  0
   60.1172   29.1810   44.0234 H   0  0  0  0  0  0  0  0  0  0  0  0
   60.9193   28.9313   46.3826 H   0  0  0  0  0  0  0  0  0  0  0  0
   59.1517   29.2665   46.2105 H   0  0  0  0  0  0  0  0  0  0  0  0
  1  2  1  0
  2  3  1  0
  3  4  1  0
  4  5  1  0
  5  6  1  0
  6  7  1  0
  7  8  1  0
  8  9  1  0
  9 10  2  0
 10 11  1  0
 11 12  2  0
 12 13  1  0
 13 14  2  0
 14 15  1  0
 15 16  2  0
 16 17  1  0
 17 18  2  0
 18 19  1  0
 19 20  1  0
 20 21  1  0
 21 22  2  0
 22 23  1  0
 23 24  2  0
 24 25  1  0
 25 26  1  0
 25 27  2  0
  5 28  1  0
 28 29  1  0
 29  2  1  0
 18  9  1  0
 27 21  1  0
 17 12  1  0
  1 30  1  0
  1 31  1  0
  1 32  1  0
  3 33  1  0
  3 34  1  0
  4 35  1  0
  4 36  1  0
  6 37  1  0
  6 38  1  0
  7 39  1  0
  7 40  1  0
 10 41  1  0
 11 42  1  0
 13 43  1  0
 14 44  1  0
 15 45  1  0
 16 46  1  0
 19 47  1  0
 19 48  1  0
 20 49  1  0
 22 50  1  0
 23 51  1  0
 24 52  1  0
 27 53  1  0
 28 54  1  0
 28 55  1  0
 29 56  1  0
 29 57  1  0
M  END
>  <smiles>  (18) 
CN1CCN(CCOc2ccc3ccccc3c2CNc2cccc(Br)c2)CC1

>  <score_type>  (18) 
oracle

>  <origin>  (18) 
adg

>  <m_score__min__energy>  (18) 
-8.8100000000000005

>  <m_primary>  (18) 
energy

$$$$
