0:0
     RDKit          3D

 31 33  0  0  0  0  0  0  0  0999 V2000
   55.7300   25.3960   45.9890 C   0  0  0  0  0  0  0  0  0  0  0  0
   55.8250   26.8170   46.0010 O   0  0  0  0  0  0  0  0  0  0  0  0
   56.9660   27.5420   45.6230 C   0  0  0  0  0  0  0  0  0  0  0  0
   58.2550   26.9770   45.6610 C   0  0  0  0  0  0  0  0  0  0  0  0
   59.3630   27.7250   45.2620 C   0  0  0  0  0  0  0  0  0  0  0  0
   59.2040   29.0450   44.8420 C   0  0  0  0  0  0  0  0  0  0  0  0
   57.9310   29.6360   44.8180 C   0  0  0  0  0  0  0  0  0  0  0  0
   57.8100   31.0570   44.4340 C   0  0  0  0  0  0  0  0  0  0  0  0
   57.9300   31.5890   43.1570 C   0  0  0  0  0  0  0  0  0  0  0  0
   58.0490   32.9380   43.2300 N   0  0  0  0  0  0  0  0  0  0  0  0
   57.9410   33.1790   44.5530 C   0  0  0  0  0  0  0  0  0  0  0  0
   57.8010   32.0930   45.2850 N   0  0  0  0  0  0  0  0  0  0  0  0
   58.2160   32.2720   46.6560 C   0  0  0  0  0  0  0  0  0  0  0  0
   58.5100   33.7900   46.7480 C   0  0  0  0  0  0  0  0  0  0  0  0
   58.4040   34.3580   45.3100 C   0  0  0  0  0  0  0  0  0  0  0  0
   56.8020   28.8660   45.1850 C   0  0  0  0  0  0  0  0  0  0  0  0
   55.5060   29.3770   45.0960 O   0  0  0  0  0  0  0  0  0  0  0  0
   55.7050   25.0214   47.0230 H   0  0  0  0  0  0  0  0  0  0  0  0
   54.8097   25.0944   45.4674 H   0  0  0  0  0  0  0  0  0  0  0  0
   56.6020   24.9746   45.4674 H   0  0  0  0  0  0  0  0  0  0  0  0
   58.3891   25.9414   46.0068 H   0  0  0  0  0  0  0  0  0  0  0  0
   60.3652   27.2720   45.2788 H   0  0  0  0  0  0  0  0  0  0  0  0
   60.0824   29.6274   44.5272 H   0  0  0  0  0  0  0  0  0  0  0  0
   57.9287   31.0038   42.2256 H   0  0  0  0  0  0  0  0  0  0  0  0
   57.4134   31.9839   47.3508 H   0  0  0  0  0  0  0  0  0  0  0  0
   59.0820   31.6501   46.9268 H   0  0  0  0  0  0  0  0  0  0  0  0
   57.7736   34.2788   47.4028 H   0  0  0  0  0  0  0  0  0  0  0  0
   59.5092   33.9722   47.1702 H   0  0  0  0  0  0  0  0  0  0  0  0
   57.6748   35.1798   45.2567 H   0  0  0  0  0  0  0  0  0  0  0  0
   59.3421   34.7901   44.9315 H   0  0  0  0  0  0  0  0  0  0  0  0
   54.7180   28.9730   45.5840 H   0  0  0  0  0  0  0  0  0  0  0  0
  1  2  1  0
  2  3  1  0
  3  4  2  0
  4  5  1  0
  5  6  2  0
  6  7  1  0
  7  8  1  0
  8  9  2  0
  9 10  1  0
 10 11  2  0
 11 12  1  0
 12 13  1  0
 13 14  1  0
 14 15  1  0
  7 16  2  0
 16 17  1  0
 16  3  1  0
 12  8  1  0
 15 11  1  0
  1 18  1  0
  1 19  1  0
  1 20  1  0
  4 21  1  0
  5 22  1  0
  6 23  1  0
  9 24  1  0
 13 25  1  0
 13 26  1  0
 14 27  1  0
 14 28  1  0
 15 29  1  0
 15 30  1  0
 17 31  1  0
M  END
>  <UniqueID>  (1) 
1

>  <SMILES>  (1) 
COc1cccc(-c2cnc3n2CCC3)c1O

>  <Energy>  (1) 
87.86086157366529

>  <Genealogy>  (1) 
COc1cccc(-c2cnc3n2CCC3)c1O (3D coordinates assigned)
COc1cccc(-c2cnc3n2CCC3)c1O (nonaromatic ring conformer: 87.86086157366529 kcal/mol)

>  <smiles>  (1) 
COc1cccc(-c2cnc3n2CCC3)c1O

>  <score_type>  (1) 
oracle

>  <origin>  (1) 
adg

>  <m_score__min__energy>  (1) 
-7.9900000000000002

>  <m_primary>  (1) 
energy

$$$$
1:0
     RDKit          3D

 45 48  0  0  0  0  0  0  0  0999 V2000
   59.2600   33.4360   48.5210 C   0  0  0  0  0  0  0  0  0  0  0  0
   58.7530   32.3080   47.8160 O   0  0  0  0  0  0  0  0  0  0  0  0
   58.3620   32.3290   46.4700 C   0  0  0  0  0  0  0  0  0  0  0  0
   57.8640   33.4920   45.8340 C   0  0  0  0  0  0  0  0  0  0  0  0
   57.5000   33.4650   44.4700 C   0  0  0  0  0  0  0  0  0  0  0  0
   57.6280   32.2830   43.7220 C   0  0  0  0  0  0  0  0  0  0  0  0
   57.2850   32.2510   42.4100 F   0  0  0  0  0  0  0  0  0  0  0  0
   58.1170   31.1490   44.3670 C   0  0  0  0  0  0  0  0  0  0  0  0
   58.3150   29.9310   43.8310 N   0  0  0  0  0  0  0  0  0  0  0  0
   58.7950   29.1560   44.8280 C   0  0  0  0  0  0  0  0  0  0  0  0
   58.8970   29.8900   46.0030 C   0  0  0  0  0  0  0  0  0  0  0  0
   59.3520   29.3720   47.3020 C   0  0  0  0  0  0  0  0  0  0  0  0
   58.6110   28.5490   47.9050 O   0  0  0  0  0  0  0  0  0  0  0  0
   60.6050   29.8870   47.9880 C   0  0  1  0  0  0  0  0  0  0  0  0
   61.2180   31.0410   47.1740 C   0  0  0  0  0  0  0  0  0  0  0  0
   62.3230   31.7470   47.9170 C   0  0  0  0  0  0  0  0  0  0  0  0
   63.1540   32.6240   47.2060 C   0  0  0  0  0  0  0  0  0  0  0  0
   64.1590   33.3320   47.8610 C   0  0  0  0  0  0  0  0  0  0  0  0
   64.3480   33.1720   49.2320 C   0  0  0  0  0  0  0  0  0  0  0  0
   63.5300   32.3010   49.9700 C   0  0  0  0  0  0  0  0  0  0  0  0
   63.7750   32.1500   51.4500 C   0  0  0  0  0  0  0  0  0  0  0  0
   62.4810   31.6050   49.3160 C   0  0  0  0  0  0  0  0  0  0  0  0
   61.6020   30.6300   50.0770 C   0  0  0  0  0  0  0  0  0  0  0  0
   60.3470   30.3300   49.3720 N   0  0  0  0  0  0  0  0  0  0  0  0
   58.4650   31.1670   45.6950 C   0  0  0  0  0  0  0  0  0  0  0  0
   59.1800   33.2581   49.6036 H   0  0  0  0  0  0  0  0  0  0  0  0
   60.3151   33.5926   48.2521 H   0  0  0  0  0  0  0  0  0  0  0  0
   58.6767   34.3290   48.2521 H   0  0  0  0  0  0  0  0  0  0  0  0
   57.7598   34.4248   46.4076 H   0  0  0  0  0  0  0  0  0  0  0  0
   57.1135   34.3760   43.9898 H   0  0  0  0  0  0  0  0  0  0  0  0
   58.1340   29.6380   42.8450 H   0  0  0  0  0  0  0  0  0  0  0  0
   59.0664   28.0951   44.7242 H   0  0  0  0  0  0  0  0  0  0  0  0
   61.3151   29.0485   48.0385 H   0  0  0  0  0  0  0  0  0  0  0  0
   61.6265   30.6340   46.2372 H   0  0  0  0  0  0  0  0  0  0  0  0
   60.4216   31.7751   46.9822 H   0  0  0  0  0  0  0  0  0  0  0  0
   63.0114   32.7540   46.1231 H   0  0  0  0  0  0  0  0  0  0  0  0
   64.8049   34.0190   47.2945 H   0  0  0  0  0  0  0  0  0  0  0  0
   65.1454   33.7331   49.7412 H   0  0  0  0  0  0  0  0  0  0  0  0
   62.9679   32.6474   52.0079 H   0  0  0  0  0  0  0  0  0  0  0  0
   63.7967   31.0816   51.7109 H   0  0  0  0  0  0  0  0  0  0  0  0
   64.7391   32.6108   51.7109 H   0  0  0  0  0  0  0  0  0  0  0  0
   62.1584   29.6920   50.2201 H   0  0  0  0  0  0  0  0  0  0  0  0
   61.3405   31.0976   51.0377 H   0  0  0  0  0  0  0  0  0  0  0  0
   59.8690   29.5680   49.9090 H   0  0  0  0  0  0  0  0  0  0  0  0
   59.7350   31.1800   49.3780 H   0  0  0  0  0  0  0  0  0  0  0  0
  1  2  1  0
  2  3  1  0
  3  4  2  0
  4  5  1  0
  5  6  2  0
  6  7  1  0
  6  8  1  0
  8  9  1  0
  9 10  1  0
 10 11  2  0
 11 12  1  0
 12 13  2  0
 12 14  1  0
 14 15  1  0
 15 16  1  0
 16 17  2  0
 17 18  1  0
 18 19  2  0
 19 20  1  0
 20 21  1  0
 20 22  2  0
 22 23  1  0
 23 24  1  0
 11 25  1  0
 25  3  1  0
 25  8  2  0
 24 14  1  0
 22 16  1  0
  1 26  1  0
  1 27  1  0
  1 28  1  0
  4 29  1  0
  5 30  1  0
  9 31  1  0
 10 32  1  0
 14 33  1  1
 15 34  1  0
 15 35  1  0
 17 36  1  0
 18 37  1  0
 19 38  1  0
 21 39  1  0
 21 40  1  0
 21 41  1  0
 23 42  1  0
 23 43  1  0
 24 44  1  0
 24 45  1  0
M  CHG  1  24   1
M  END
>  <UniqueID>  (2) 
2

>  <SMILES>  (2) 
COc1ccc(F)c2[nH]cc(C(=O)[C@H]3Cc4cccc(C)c4C[NH2+]3)c12

>  <Energy>  (2) 
92.64570826457602

>  <Genealogy>  (2) 
COc1ccc(F)c2[nH]cc(C(=O)C3Cc4cccc(C)c4C[NH2+]3)c12 (protonated)
COc1ccc(F)c2[nH]cc(C(=O)[C@H]3Cc4cccc(C)c4C[NH2+]3)c12 (chirality)
COc1ccc(F)c2[nH]cc(C(=O)[C@H]3Cc4cccc(C)c4C[NH2+]3)c12 (3D coordinates assigned)
COc1ccc(F)c2[nH]cc(C(=O)[C@H]3Cc4cccc(C)c4C[NH2+]3)c12 (nonaromatic ring conformer: 92.64570826457602 kcal/mol)

>  <smiles>  (2) 
COc1ccc(F)c2[nH]cc(C(=O)C3Cc4cccc(C)c4CN3)c12

>  <score_type>  (2) 
oracle

>  <origin>  (2) 
adg

>  <m_score__min__energy>  (2) 
-6.1500000000000004

>  <m_primary>  (2) 
energy

$$$$
2:0
     RDKit          3D

 26 26  0  0  0  0  0  0  0  0999 V2000
   52.9780   24.0860   45.1180 C   0  0  0  0  0  0  0  0  0  0  0  0
   53.9720   23.1990   45.8590 C   0  0  0  0  0  0  0  0  0  0  0  0
   54.7710   23.9770   46.7480 O   0  0  0  0  0  0  0  0  0  0  0  0
   55.9740   24.5820   46.3580 C   0  0  0  0  0  0  0  0  0  0  0  0
   57.1840   23.8590   46.3290 C   0  0  0  0  0  0  0  0  0  0  0  0
   57.2420   22.4860   46.7600 C   0  0  0  0  0  0  0  0  0  0  0  0
   57.2880   21.3820   47.1080 N   0  0  0  0  0  0  0  0  0  0  0  0
   58.3640   24.4960   45.9240 C   0  0  0  0  0  0  0  0  0  0  0  0
   58.3490   25.8450   45.5610 C   0  0  0  0  0  0  0  0  0  0  0  0
   57.1550   26.5730   45.6080 C   0  0  0  0  0  0  0  0  0  0  0  0
   57.1550   27.9660   45.2400 C   0  0  0  0  0  0  0  0  0  0  0  0
   57.1570   29.1310   44.9330 C   0  0  0  0  0  0  0  0  0  0  0  0
   57.1590   30.5500   44.5590 C   0  0  0  0  0  0  0  0  0  0  0  0
   55.8440   31.0010   44.3890 O   0  0  0  0  0  0  0  0  0  0  0  0
   55.9670   25.9410   46.0110 C   0  0  0  0  0  0  0  0  0  0  0  0
   54.7750   26.6580   46.0630 O   0  0  0  0  0  0  0  0  0  0  0  0
   52.3628   24.6350   45.8461 H   0  0  0  0  0  0  0  0  0  0  0  0
   53.5250   24.8017   44.4866 H   0  0  0  0  0  0  0  0  0  0  0  0
   52.3290   23.4614   44.4866 H   0  0  0  0  0  0  0  0  0  0  0  0
   53.4210   22.4420   46.4363 H   0  0  0  0  0  0  0  0  0  0  0  0
   54.6298   22.7117   45.1243 H   0  0  0  0  0  0  0  0  0  0  0  0
   59.3073   23.9311   45.8916 H   0  0  0  0  0  0  0  0  0  0  0  0
   59.2785   26.3362   45.2373 H   0  0  0  0  0  0  0  0  0  0  0  0
   57.6454   31.1356   45.3530 H   0  0  0  0  0  0  0  0  0  0  0  0
   57.7090   30.6743   43.6145 H   0  0  0  0  0  0  0  0  0  0  0  0
   55.3670   30.8190   45.2410 H   0  0  0  0  0  0  0  0  0  0  0  0
  1  2  1  0
  2  3  1  0
  3  4  1  0
  4  5  2  0
  5  6  1  0
  6  7  3  0
  5  8  1  0
  8  9  2  0
  9 10  1  0
 10 11  1  0
 11 12  3  0
 12 13  1  0
 13 14  1  0
 10 15  2  0
 15 16  1  0
 15  4  1  0
  1 17  1  0
  1 18  1  0
  1 19  1  0
  2 20  1  0
  2 21  1  0
  8 22  1  0
  9 23  1  0
 13 24  1  0
 13 25  1  0
 14 26  1  0
M  CHG  1  16  -1
M  END
>  <UniqueID>  (3) 
3

>  <SMILES>  (3) 
CCOc1c(C#N)ccc(C#CCO)c1[O-]

>  <Energy>  (3) 
23.18305311331087

>  <Genealogy>  (3) 
CCOc1c(C#N)ccc(C#CCO)c1[O-] (protonated)
CCOc1c(C#N)ccc(C#CCO)c1[O-] (3D coordinates assigned)
CCOc1c(C#N)ccc(C#CCO)c1[O-] (optimized conformer: 23.18305311331087 kcal/mol)

>  <smiles>  (3) 
CCOc1c(C#N)ccc(C#CCO)c1O

>  <score_type>  (3) 
oracle

>  <origin>  (3) 
adg

>  <m_score__min__energy>  (3) 
-8.9299999999999997

>  <m_primary>  (3) 
energy

$$$$
3:0
     RDKit          3D

 55 57  0  0  0  0  0  0  0  0999 V2000
   58.4940   22.4080   44.5330 C   0  0  0  0  0  0  0  0  0  0  0  0
   58.6280   23.5100   45.5780 C   0  0  0  0  0  0  0  0  0  0  0  0
   57.3310   24.1430   45.8260 N   0  0  0  0  0  0  0  0  0  0  0  0
   56.1280   23.5780   45.6310 C   0  0  0  0  0  0  0  0  0  0  0  0
   55.1610   24.5120   45.9290 C   0  0  0  0  0  0  0  0  0  0  0  0
   55.7480   25.6670   46.3040 N   0  0  0  0  0  0  0  0  0  0  0  0
   57.0710   25.4080   46.2290 C   0  0  0  0  0  0  0  0  0  0  0  0
   58.1150   26.4410   46.5440 C   0  0  0  0  0  0  0  0  0  0  0  0
   58.5830   27.1050   45.3090 N   0  0  0  0  0  0  0  0  0  0  0  0
   59.9540   27.6390   45.4520 C   0  0  0  0  0  0  0  0  0  0  0  0
   59.9800   28.9770   46.2160 C   0  0  0  0  0  0  0  0  0  0  0  0
   58.9500   29.9370   45.7500 N   0  0  0  0  0  0  0  0  0  0  0  0
   58.2670   30.7090   46.8230 C   0  0  0  0  0  0  0  0  0  0  0  0
   58.7630   32.1320   47.0050 C   0  0  0  0  0  0  0  0  0  0  0  0
   59.1720   32.6010   48.2650 C   0  0  0  0  0  0  0  0  0  0  0  0
   59.6320   33.9090   48.4210 C   0  0  0  0  0  0  0  0  0  0  0  0
   59.6590   34.7800   47.3310 C   0  0  0  0  0  0  0  0  0  0  0  0
   59.1890   34.3540   46.0810 C   0  0  0  0  0  0  0  0  0  0  0  0
   59.2320   35.2810   44.9020 C   0  0  0  0  0  0  0  0  0  0  0  0
   58.7400   33.0330   45.9230 C   0  0  0  0  0  0  0  0  0  0  0  0
   58.1950   29.4950   44.5490 C   0  0  2  0  0  0  0  0  0  0  0  0
   57.1670   30.5370   44.0390 C   0  0  0  0  0  0  0  0  0  0  0  0
   55.8000   29.9380   43.6780 C   0  0  0  0  0  0  0  0  0  0  0  0
   55.1590   29.4260   44.8170 O   0  0  0  0  0  0  0  0  0  0  0  0
   57.6010   28.0850   44.7670 C   0  0  0  0  0  0  0  0  0  0  0  0
   58.3760   21.4373   45.0368 H   0  0  0  0  0  0  0  0  0  0  0  0
   57.6131   22.6042   43.9041 H   0  0  0  0  0  0  0  0  0  0  0  0
   59.3963   22.3874   43.9041 H   0  0  0  0  0  0  0  0  0  0  0  0
   59.0038   23.0754   46.5160 H   0  0  0  0  0  0  0  0  0  0  0  0
   59.3292   24.2708   45.2044 H   0  0  0  0  0  0  0  0  0  0  0  0
   55.9467   22.5474   45.2919 H   0  0  0  0  0  0  0  0  0  0  0  0
   54.0758   24.3421   45.8702 H   0  0  0  0  0  0  0  0  0  0  0  0
   57.6842   27.1956   47.2186 H   0  0  0  0  0  0  0  0  0  0  0  0
   58.9708   25.9437   47.0240 H   0  0  0  0  0  0  0  0  0  0  0  0
   60.5644   26.9061   46.0000 H   0  0  0  0  0  0  0  0  0  0  0  0
   60.3539   27.8181   44.4430 H   0  0  0  0  0  0  0  0  0  0  0  0
   59.8102   28.7732   47.2835 H   0  0  0  0  0  0  0  0  0  0  0  0
   60.9621   29.4379   46.0339 H   0  0  0  0  0  0  0  0  0  0  0  0
   57.1941   30.7497   46.5839 H   0  0  0  0  0  0  0  0  0  0  0  0
   58.4852   30.1847   47.7651 H   0  0  0  0  0  0  0  0  0  0  0  0
   59.1291   31.9308   49.1362 H   0  0  0  0  0  0  0  0  0  0  0  0
   59.9748   34.2551   49.4073 H   0  0  0  0  0  0  0  0  0  0  0  0
   60.0492   35.8012   47.4528 H   0  0  0  0  0  0  0  0  0  0  0  0
   59.2803   36.3216   45.2553 H   0  0  0  0  0  0  0  0  0  0  0  0
   60.1208   35.0589   44.2932 H   0  0  0  0  0  0  0  0  0  0  0  0
   58.3264   35.1421   44.2932 H   0  0  0  0  0  0  0  0  0  0  0  0
   58.3664   32.6985   44.9439 H   0  0  0  0  0  0  0  0  0  0  0  0
   58.9151   29.4184   43.7210 H   0  0  0  0  0  0  0  0  0  0  0  0
   57.0178   31.2904   44.8265 H   0  0  0  0  0  0  0  0  0  0  0  0
   57.5807   30.9676   43.1152 H   0  0  0  0  0  0  0  0  0  0  0  0
   55.1700   30.7219   43.2324 H   0  0  0  0  0  0  0  0  0  0  0  0
   55.9550   29.1161   42.9636 H   0  0  0  0  0  0  0  0  0  0  0  0
   54.3580   28.9330   44.5000 H   0  0  0  0  0  0  0  0  0  0  0  0
   56.7626   28.1657   45.4746 H   0  0  0  0  0  0  0  0  0  0  0  0
   57.2811   27.7125   43.7827 H   0  0  0  0  0  0  0  0  0  0  0  0
  1  2  1  0
  2  3  1  0
  3  4  1  0
  4  5  2  0
  5  6  1  0
  6  7  2  0
  7  8  1  0
  8  9  1  0
  9 10  1  0
 10 11  1  0
 11 12  1  0
 12 13  1  0
 13 14  1  0
 14 15  2  0
 15 16  1  0
 16 17  2  0
 17 18  1  0
 18 19  1  0
 18 20  2  0
 12 21  1  0
 21 22  1  0
 22 23  1  0
 23 24  1  0
 21 25  1  0
  7  3  1  0
 25  9  1  0
 20 14  1  0
  1 26  1  0
  1 27  1  0
  1 28  1  0
  2 29  1  0
  2 30  1  0
  4 31  1  0
  5 32  1  0
  8 33  1  0
  8 34  1  0
 10 35  1  0
 10 36  1  0
 11 37  1  0
 11 38  1  0
 13 39  1  0
 13 40  1  0
 15 41  1  0
 16 42  1  0
 17 43  1  0
 19 44  1  0
 19 45  1  0
 19 46  1  0
 20 47  1  0
 21 48  1  6
 22 49  1  0
 22 50  1  0
 23 51  1  0
 23 52  1  0
 24 53  1  0
 25 54  1  0
 25 55  1  0
M  END
>  <UniqueID>  (4) 
4

>  <SMILES>  (4) 
CCn1ccnc1CN1CCN(Cc2cccc(C)c2)[C@H](CCO)C1

>  <Energy>  (4) 
101.33963210289889

>  <Genealogy>  (4) 
CCn1ccnc1CN1CCN(Cc2cccc(C)c2)[C@H](CCO)C1 (chirality)
CCn1ccnc1CN1CCN(Cc2cccc(C)c2)[C@H](CCO)C1 (3D coordinates assigned)
CCn1ccnc1CN1CCN(Cc2cccc(C)c2)[C@H](CCO)C1 (nonaromatic ring conformer: 101.33963210289889 kcal/mol)

>  <smiles>  (4) 
CCn1ccnc1CN1CCN(Cc2cccc(C)c2)C(CCO)C1

>  <score_type>  (4) 
oracle

>  <origin>  (4) 
adg

>  <m_score__min__energy>  (4) 
-8.6099999999999994

>  <m_primary>  (4) 
energy

$$$$
4:0
     RDKit          3D

 40 41  0  0  0  0  0  0  0  0999 V2000
   62.4580   33.4370   47.6770 C   0  0  0  0  0  0  0  0  0  0  0  0
   61.8450   32.1300   47.1810 C   0  0  0  0  0  0  0  0  0  0  0  0
   60.3990   32.0910   47.4470 N   0  0  0  0  0  0  0  0  0  0  0  0
   59.9290   31.5370   48.7280 C   0  0  0  0  0  0  0  0  0  0  0  0
   59.7290   30.0270   48.6270 C   0  0  0  0  0  0  0  0  0  0  0  0
   59.4590   32.5940   46.4650 C   0  0  0  0  0  0  0  0  0  0  0  0
   59.6690   33.8410   45.8490 C   0  0  0  0  0  0  0  0  0  0  0  0
   58.7670   34.3240   44.9000 C   0  0  0  0  0  0  0  0  0  0  0  0
   57.6420   33.5760   44.5530 C   0  0  0  0  0  0  0  0  0  0  0  0
   57.4110   32.3280   45.1560 C   0  0  0  0  0  0  0  0  0  0  0  0
   56.2690   31.5240   44.8320 N   0  0  0  0  0  0  0  0  0  0  0  0
   56.3210   29.9870   44.0340 S   0  0  0  0  0  0  0  0  0  0  0  0
   54.9620   29.3470   44.1030 O   0  0  0  0  0  0  0  0  0  0  0  0
   56.6880   30.1910   42.5910 O   0  0  0  0  0  0  0  0  0  0  0  0
   57.5380   28.9660   44.7910 C   0  0  0  0  0  0  0  0  0  0  0  0
   58.8940   29.1670   44.4950 C   0  0  0  0  0  0  0  0  0  0  0  0
   59.8690   28.3680   45.0940 C   0  0  0  0  0  0  0  0  0  0  0  0
   59.4980   27.3650   45.9950 C   0  0  0  0  0  0  0  0  0  0  0  0
   60.7240   26.3640   46.7480 Cl  0  0  0  0  0  0  0  0  0  0  0  0
   58.1470   27.1610   46.2940 C   0  0  0  0  0  0  0  0  0  0  0  0
   57.1690   27.9590   45.6930 C   0  0  0  0  0  0  0  0  0  0  0  0
   58.3210   31.8460   46.1070 C   0  0  0  0  0  0  0  0  0  0  0  0
   62.4622   33.4459   48.7770 H   0  0  0  0  0  0  0  0  0  0  0  0
   63.4899   33.5221   47.3057 H   0  0  0  0  0  0  0  0  0  0  0  0
   61.8636   34.2849   47.3057 H   0  0  0  0  0  0  0  0  0  0  0  0
   62.0139   32.0420   46.0976 H   0  0  0  0  0  0  0  0  0  0  0  0
   62.3219   31.2948   47.7148 H   0  0  0  0  0  0  0  0  0  0  0  0
   60.6747   31.7503   49.5080 H   0  0  0  0  0  0  0  0  0  0  0  0
   58.9653   32.0034   48.9805 H   0  0  0  0  0  0  0  0  0  0  0  0
   59.6720   29.5963   49.6376 H   0  0  0  0  0  0  0  0  0  0  0  0
   58.7951   29.8162   48.0853 H   0  0  0  0  0  0  0  0  0  0  0  0
   60.5758   29.5804   48.0853 H   0  0  0  0  0  0  0  0  0  0  0  0
   60.5514   34.4404   46.1175 H   0  0  0  0  0  0  0  0  0  0  0  0
   58.9441   35.2994   44.4233 H   0  0  0  0  0  0  0  0  0  0  0  0
   56.9341   33.9639   43.8057 H   0  0  0  0  0  0  0  0  0  0  0  0
   59.1900   29.9566   43.7887 H   0  0  0  0  0  0  0  0  0  0  0  0
   60.9312   28.5275   44.8569 H   0  0  0  0  0  0  0  0  0  0  0  0
   57.8538   26.3722   47.0024 H   0  0  0  0  0  0  0  0  0  0  0  0
   56.1070   27.7960   45.9288 H   0  0  0  0  0  0  0  0  0  0  0  0
   58.1435   30.8691   46.5805 H   0  0  0  0  0  0  0  0  0  0  0  0
  1  2  1  0
  2  3  1  0
  3  4  1  0
  4  5  1  0
  3  6  1  0
  6  7  2  0
  7  8  1  0
  8  9  2  0
  9 10  1  0
 10 11  1  0
 11 12  1  0
 12 13  2  0
 12 14  2  0
 12 15  1  0
 15 16  2  0
 16 17  1  0
 17 18  2  0
 18 19  1  0
 18 20  1  0
 20 21  2  0
 10 22  2  0
 22  6  1  0
 21 15  1  0
  1 23  1  0
  1 24  1  0
  1 25  1  0
  2 26  1  0
  2 27  1  0
  4 28  1  0
  4 29  1  0
  5 30  1  0
  5 31  1  0
  5 32  1  0
  7 33  1  0
  8 34  1  0
  9 35  1  0
 16 36  1  0
 17 37  1  0
 20 38  1  0
 21 39  1  0
 22 40  1  0
M  CHG  1  11  -1
M  END
>  <UniqueID>  (5) 
5

>  <SMILES>  (5) 
CCN(CC)c1cccc([N-]S(=O)(=O)c2ccc(Cl)cc2)c1

>  <Energy>  (5) 
40.52345265935428

>  <Genealogy>  (5) 
CCN(CC)c1cccc([N-]S(=O)(=O)c2ccc(Cl)cc2)c1 (protonated)
CCN(CC)c1cccc([N-]S(=O)(=O)c2ccc(Cl)cc2)c1 (3D coordinates assigned)
CCN(CC)c1cccc([N-]S(=O)(=O)c2ccc(Cl)cc2)c1 (optimized conformer: 40.52345265935428 kcal/mol)

>  <smiles>  (5) 
CCN(CC)c1cccc(NS(=O)(=O)c2ccc(Cl)cc2)c1

>  <score_type>  (5) 
oracle

>  <origin>  (5) 
adg

>  <m_score__min__energy>  (5) 
-9

>  <m_primary>  (5) 
energy

$$$$
5:0
     RDKit          3D

 50 54  0  0  0  0  0  0  0  0999 V2000
   62.9190   33.1590   52.6880 C   0  0  0  0  0  0  0  0  0  0  0  0
   62.7490   33.2520   51.2000 C   0  0  0  0  0  0  0  0  0  0  0  0
   63.8650   33.3970   50.3700 C   0  0  0  0  0  0  0  0  0  0  0  0
   63.7110   33.4970   48.9890 C   0  0  0  0  0  0  0  0  0  0  0  0
   62.4330   33.4130   48.3990 C   0  0  0  0  0  0  0  0  0  0  0  0
   62.2450   33.5840   46.9970 C   0  0  0  0  0  0  0  0  0  0  0  0
   63.4010   33.8470   46.0650 C   0  0  0  0  0  0  0  0  0  0  0  0
   60.9480   33.5340   46.4630 C   0  0  0  0  0  0  0  0  0  0  0  0
   59.8860   33.2620   47.3180 C   0  0  0  0  0  0  0  0  0  0  0  0
   58.5500   33.1140   47.0130 C   0  0  0  0  0  0  0  0  0  0  0  0
   57.9120   33.1760   45.6570 C   0  0  0  0  0  0  0  0  0  0  0  0
   57.7260   31.7880   45.1070 C   0  0  0  0  0  0  0  0  0  0  0  0
   58.1710   30.6660   45.8290 C   0  0  0  0  0  0  0  0  0  0  0  0
   57.9660   29.3780   45.3260 C   0  0  0  0  0  0  0  0  0  0  0  0
   57.3130   29.1980   44.1030 C   0  0  0  0  0  0  0  0  0  0  0  0
   56.8640   30.3080   43.3820 C   0  0  0  0  0  0  0  0  0  0  0  0
   57.0660   31.5980   43.8800 C   0  0  0  0  0  0  0  0  0  0  0  0
   57.8870   32.7460   48.1280 N   0  0  0  0  0  0  0  0  0  0  0  0
   58.8310   32.7120   49.0970 C   0  0  0  0  0  0  0  0  0  0  0  0
   58.5270   32.1250   50.4140 C   0  0  0  0  0  0  0  0  0  0  0  0
   58.2570   32.9730   51.5010 C   0  0  0  0  0  0  0  0  0  0  0  0
   57.9940   32.4380   52.7640 C   0  0  0  0  0  0  0  0  0  0  0  0
   58.0120   31.0550   52.9560 C   0  0  0  0  0  0  0  0  0  0  0  0
   58.2990   30.2030   51.8850 C   0  0  0  0  0  0  0  0  0  0  0  0
   58.5630   30.7310   50.6150 C   0  0  0  0  0  0  0  0  0  0  0  0
   58.9020   29.6200   49.2910 Cl  0  0  0  0  0  0  0  0  0  0  0  0
   60.0690   33.0440   48.6320 N   0  0  0  0  0  0  0  0  0  0  0  0
   61.2980   33.1730   49.2320 C   0  0  0  0  0  0  0  0  0  0  0  0
   61.4730   33.1430   50.6310 C   0  0  0  0  0  0  0  0  0  0  0  0
   62.0583   33.6298   53.1855 H   0  0  0  0  0  0  0  0  0  0  0  0
   62.9806   32.1015   52.9846 H   0  0  0  0  0  0  0  0  0  0  0  0
   63.8427   33.6774   52.9846 H   0  0  0  0  0  0  0  0  0  0  0  0
   64.8722   33.4324   50.8109 H   0  0  0  0  0  0  0  0  0  0  0  0
   64.5958   33.6431   48.3520 H   0  0  0  0  0  0  0  0  0  0  0  0
   64.3071   34.0531   46.6537 H   0  0  0  0  0  0  0  0  0  0  0  0
   63.5688   32.9641   45.4307 H   0  0  0  0  0  0  0  0  0  0  0  0
   63.1703   34.7156   45.4307 H   0  0  0  0  0  0  0  0  0  0  0  0
   60.7754   33.7064   45.3904 H   0  0  0  0  0  0  0  0  0  0  0  0
   56.9320   33.6690   45.7386 H   0  0  0  0  0  0  0  0  0  0  0  0
   58.5638   33.7466   44.9791 H   0  0  0  0  0  0  0  0  0  0  0  0
   58.6824   30.8026   46.7933 H   0  0  0  0  0  0  0  0  0  0  0  0
   58.3191   28.5044   45.8935 H   0  0  0  0  0  0  0  0  0  0  0  0
   57.1527   28.1837   43.7085 H   0  0  0  0  0  0  0  0  0  0  0  0
   56.3502   30.1658   42.4198 H   0  0  0  0  0  0  0  0  0  0  0  0
   56.7074   32.4679   43.3101 H   0  0  0  0  0  0  0  0  0  0  0  0
   58.2527   34.0635   51.3567 H   0  0  0  0  0  0  0  0  0  0  0  0
   57.7724   33.1070   53.6086 H   0  0  0  0  0  0  0  0  0  0  0  0
   57.8002   30.6354   53.9505 H   0  0  0  0  0  0  0  0  0  0  0  0
   58.3175   29.1142   52.0405 H   0  0  0  0  0  0  0  0  0  0  0  0
   60.5954   33.0325   51.2849 H   0  0  0  0  0  0  0  0  0  0  0  0
  1  2  1  0
  2  3  2  0
  3  4  1  0
  4  5  2  0
  5  6  1  0
  6  7  1  0
  6  8  2  0
  8  9  1  0
  9 10  2  0
 10 11  1  0
 11 12  1  0
 12 13  2  0
 13 14  1  0
 14 15  2  0
 15 16  1  0
 16 17  2  0
 10 18  1  0
 18 19  2  0
 19 20  1  0
 20 21  2  0
 21 22  1  0
 22 23  2  0
 23 24  1  0
 24 25  2  0
 25 26  1  0
 19 27  1  0
 27 28  1  0
 28 29  2  0
 29  2  1  0
 28  5  1  0
 27  9  1  0
 17 12  1  0
 25 20  1  0
  1 30  1  0
  1 31  1  0
  1 32  1  0
  3 33  1  0
  4 34  1  0
  7 35  1  0
  7 36  1  0
  7 37  1  0
  8 38  1  0
 11 39  1  0
 11 40  1  0
 13 41  1  0
 14 42  1  0
 15 43  1  0
 16 44  1  0
 17 45  1  0
 21 46  1  0
 22 47  1  0
 23 48  1  0
 24 49  1  0
 29 50  1  0
M  END
>  <UniqueID>  (6) 
6

>  <SMILES>  (6) 
Cc1ccc2c(C)cc3c(Cc4ccccc4)nc(-c4ccccc4Cl)n3c2c1

>  <Energy>  (6) 
106.43279594774702

>  <Genealogy>  (6) 
Cc1ccc2c(C)cc3c(Cc4ccccc4)nc(-c4ccccc4Cl)n3c2c1 (3D coordinates assigned)
Cc1ccc2c(C)cc3c(Cc4ccccc4)nc(-c4ccccc4Cl)n3c2c1 (optimized conformer: 106.43279594774702 kcal/mol)

>  <smiles>  (6) 
Cc1ccc2c(C)cc3c(Cc4ccccc4)nc(-c4ccccc4Cl)n3c2c1

>  <score_type>  (6) 
oracle

>  <origin>  (6) 
adg

>  <m_score__min__energy>  (6) 
-8.9100000000000001

>  <m_primary>  (6) 
energy

$$$$
6:0
     RDKit          3D

 52 54  0  0  0  0  0  0  0  0999 V2000
   61.1820   30.4900   49.2670 C   0  0  0  0  0  0  0  0  0  0  0  0
   62.4790   30.8370   49.9860 C   0  0  0  0  0  0  0  0  0  0  0  0
   62.3850   32.4790   50.7840 S   0  0  0  0  0  0  0  0  0  0  0  0
   61.1630   33.1380   49.6450 C   0  0  0  0  0  0  0  0  0  0  0  0
   59.8370   33.1060   49.8870 N   0  0  0  0  0  0  0  0  0  0  0  0
   59.2600   33.6570   48.8310 N   0  0  0  0  0  0  0  0  0  0  0  0
   60.2220   33.9980   47.9530 C   0  0  0  0  0  0  0  0  0  0  0  0
   59.9530   34.6890   46.6410 C   0  0  0  0  0  0  0  0  0  0  0  0
   59.6240   33.7120   45.5800 N   0  0  0  0  0  0  0  0  0  0  0  0
   58.3920   34.1020   44.8480 C   0  0  0  0  0  0  0  0  0  0  0  0
   57.7100   32.8870   44.2090 C   0  0  0  0  0  0  0  0  0  0  0  0
   57.2550   31.9370   45.2430 N   0  0  0  0  0  0  0  0  0  0  0  0
   56.9770   30.3580   44.5430 S   0  0  0  0  0  0  0  0  0  0  0  0
   57.1050   30.4450   43.0480 O   0  0  0  0  0  0  0  0  0  0  0  0
   55.5790   29.9120   44.8660 O   0  0  0  0  0  0  0  0  0  0  0  0
   58.1250   29.1640   45.1560 C   0  0  0  0  0  0  0  0  0  0  0  0
   59.4810   29.2420   44.8070 C   0  0  0  0  0  0  0  0  0  0  0  0
   60.3860   28.2870   45.2790 C   0  0  0  0  0  0  0  0  0  0  0  0
   59.9430   27.2520   46.1080 C   0  0  0  0  0  0  0  0  0  0  0  0
   58.5940   27.1740   46.4670 C   0  0  0  0  0  0  0  0  0  0  0  0
   57.6870   28.1280   45.9950 C   0  0  0  0  0  0  0  0  0  0  0  0
   58.1450   31.8640   46.4250 C   0  0  0  0  0  0  0  0  0  0  0  0
   59.5800   32.3260   46.1120 C   0  0  0  0  0  0  0  0  0  0  0  0
   61.4430   33.7030   48.4500 N   0  0  0  0  0  0  0  0  0  0  0  0
   62.7520   33.8430   47.8070 C   0  0  0  0  0  0  0  0  0  0  0  0
   63.1750   32.5250   47.1690 C   0  0  0  0  0  0  0  0  0  0  0  0
   60.3968   30.2799   50.0081 H   0  0  0  0  0  0  0  0  0  0  0  0
   60.8741   31.3374   48.6368 H   0  0  0  0  0  0  0  0  0  0  0  0
   61.3384   29.6021   48.6368 H   0  0  0  0  0  0  0  0  0  0  0  0
   62.6753   30.0763   50.7559 H   0  0  0  0  0  0  0  0  0  0  0  0
   63.2896   30.8607   49.2428 H   0  0  0  0  0  0  0  0  0  0  0  0
   58.2300   33.7880   48.7210 H   0  0  0  0  0  0  0  0  0  0  0  0
   59.1071   35.3809   46.7666 H   0  0  0  0  0  0  0  0  0  0  0  0
   60.8598   35.2355   46.3426 H   0  0  0  0  0  0  0  0  0  0  0  0
   57.6922   34.5752   45.5526 H   0  0  0  0  0  0  0  0  0  0  0  0
   58.6733   34.8011   44.0466 H   0  0  0  0  0  0  0  0  0  0  0  0
   56.8423   33.2266   43.6244 H   0  0  0  0  0  0  0  0  0  0  0  0
   58.4353   32.3779   43.5573 H   0  0  0  0  0  0  0  0  0  0  0  0
   59.8339   30.0580   44.1592 H   0  0  0  0  0  0  0  0  0  0  0  0
   61.4476   28.3498   44.9980 H   0  0  0  0  0  0  0  0  0  0  0  0
   60.6553   26.4996   46.4775 H   0  0  0  0  0  0  0  0  0  0  0  0
   58.2457   26.3613   47.1214 H   0  0  0  0  0  0  0  0  0  0  0  0
   56.6270   28.0661   46.2823 H   0  0  0  0  0  0  0  0  0  0  0  0
   57.7326   32.5060   47.2173 H   0  0  0  0  0  0  0  0  0  0  0  0
   58.1943   30.8118   46.7418 H   0  0  0  0  0  0  0  0  0  0  0  0
   60.1747   32.2832   47.0364 H   0  0  0  0  0  0  0  0  0  0  0  0
   59.9875   31.6568   45.3399 H   0  0  0  0  0  0  0  0  0  0  0  0
   62.6928   34.6192   47.0298 H   0  0  0  0  0  0  0  0  0  0  0  0
   63.4946   34.1253   48.5678 H   0  0  0  0  0  0  0  0  0  0  0  0
   63.4094   31.7946   47.9574 H   0  0  0  0  0  0  0  0  0  0  0  0
   62.3552   32.1401   46.5446 H   0  0  0  0  0  0  0  0  0  0  0  0
   64.0656   32.6891   46.5446 H   0  0  0  0  0  0  0  0  0  0  0  0
  1  2  1  0
  2  3  1  0
  3  4  1  0
  4  5  2  0
  5  6  1  0
  6  7  2  0
  7  8  1  0
  8  9  1  0
  9 10  1  0
 10 11  1  0
 11 12  1  0
 12 13  1  0
 13 14  2  0
 13 15  2  0
 13 16  1  0
 16 17  2  0
 17 18  1  0
 18 19  2  0
 19 20  1  0
 20 21  2  0
 12 22  1  0
 22 23  1  0
  7 24  1  0
 24 25  1  0
 25 26  1  0
 24  4  1  0
 23  9  1  0
 21 16  1  0
  1 27  1  0
  1 28  1  0
  1 29  1  0
  2 30  1  0
  2 31  1  0
  6 32  1  0
  8 33  1  0
  8 34  1  0
 10 35  1  0
 10 36  1  0
 11 37  1  0
 11 38  1  0
 17 39  1  0
 18 40  1  0
 19 41  1  0
 20 42  1  0
 21 43  1  0
 22 44  1  0
 22 45  1  0
 23 46  1  0
 23 47  1  0
 25 48  1  0
 25 49  1  0
 26 50  1  0
 26 51  1  0
 26 52  1  0
M  CHG  1   6   1
M  END
>  <UniqueID>  (7) 
7

>  <SMILES>  (7) 
CCSc1n[nH+]c(CN2CCN(S(=O)(=O)c3ccccc3)CC2)n1CC

>  <Energy>  (7) 
88.78199751800838

>  <Genealogy>  (7) 
CCSc1n[nH+]c(CN2CCN(S(=O)(=O)c3ccccc3)CC2)n1CC (protonated)
CCSc1n[nH+]c(CN2CCN(S(=O)(=O)c3ccccc3)CC2)n1CC (3D coordinates assigned)
CCSc1n[nH+]c(CN2CCN(S(=O)(=O)c3ccccc3)CC2)n1CC (nonaromatic ring conformer: 88.78199751800838 kcal/mol)

>  <smiles>  (7) 
CCSc1nnc(CN2CCN(S(=O)(=O)c3ccccc3)CC2)n1CC

>  <score_type>  (7) 
oracle

>  <origin>  (7) 
adg

>  <m_score__min__energy>  (7) 
-7.6200000000000001

>  <m_primary>  (7) 
energy

$$$$
7:0
     RDKit          3D

 40 42  0  0  1  0  0  0  0  0999 V2000
   60.4460   29.5890   47.9340 C   0  0  0  0  0  0  0  0  0  0  0  0
   60.0340   28.1490   47.8830 C   0  0  0  0  0  0  0  0  0  0  0  0
   59.6300   27.6610   46.5260 C   0  0  1  0  0  0  0  0  0  0  0  0
   60.2460   26.3320   46.2800 C   0  0  0  0  0  0  0  0  0  0  0  0
   61.4940   26.2420   46.3700 O   0  0  0  0  0  0  0  0  0  0  0  0
   59.4070   25.2310   45.9580 N   0  0  0  0  0  0  0  0  0  0  0  0
   58.0500   25.1840   46.4610 C   0  0  0  0  0  0  0  0  0  0  0  0
   57.4460   26.5240   46.7360 C   0  0  0  0  0  0  0  0  0  0  0  0
   58.1880   27.6540   46.3100 N   0  0  0  0  0  0  0  0  0  0  0  0
   57.6300   28.8160   45.6760 C   0  0  0  0  0  0  0  0  0  0  0  0
   58.1350   30.0490   45.9200 N   0  0  0  0  0  0  0  0  0  0  0  0
   57.6410   31.1560   45.3470 C   0  0  0  0  0  0  0  0  0  0  0  0
   58.2030   32.4730   45.6270 C   0  0  0  0  0  0  0  0  0  0  0  0
   58.4390   33.3480   44.5880 C   0  0  0  0  0  0  0  0  0  0  0  0
   58.9730   34.5940   44.8670 C   0  0  0  0  0  0  0  0  0  0  0  0
   59.2750   34.9770   46.1660 C   0  0  0  0  0  0  0  0  0  0  0  0
   59.0340   34.0910   47.2040 C   0  0  0  0  0  0  0  0  0  0  0  0
   58.4950   32.8340   46.9250 C   0  0  0  0  0  0  0  0  0  0  0  0
   56.6030   31.0280   44.4990 N   0  0  0  0  0  0  0  0  0  0  0  0
   56.0560   29.8240   44.2170 C   0  0  0  0  0  0  0  0  0  0  0  0
   55.0560   29.7190   43.3980 N   0  0  0  0  0  0  0  0  0  0  0  0
   56.5950   28.7430   44.8220 N   0  0  0  0  0  0  0  0  0  0  0  0
   60.5371   29.9074   48.9830 H   0  0  0  0  0  0  0  0  0  0  0  0
   61.4152   29.7112   47.4282 H   0  0  0  0  0  0  0  0  0  0  0  0
   59.6882   30.2053   47.4282 H   0  0  0  0  0  0  0  0  0  0  0  0
   60.8808   27.5380   48.2287 H   0  0  0  0  0  0  0  0  0  0  0  0
   59.1443   28.0577   48.5234 H   0  0  0  0  0  0  0  0  0  0  0  0
   60.0110   28.3789   45.7847 H   0  0  0  0  0  0  0  0  0  0  0  0
   59.7980   24.4780   45.3580 H   0  0  0  0  0  0  0  0  0  0  0  0
   57.4244   24.6712   45.7156 H   0  0  0  0  0  0  0  0  0  0  0  0
   58.0906   24.6545   47.4243 H   0  0  0  0  0  0  0  0  0  0  0  0
   56.4678   26.5585   46.2341 H   0  0  0  0  0  0  0  0  0  0  0  0
   57.4015   26.6027   47.8323 H   0  0  0  0  0  0  0  0  0  0  0  0
   58.2062   33.0600   43.5522 H   0  0  0  0  0  0  0  0  0  0  0  0
   59.1620   35.2957   44.0413 H   0  0  0  0  0  0  0  0  0  0  0  0
   59.7002   35.9709   46.3692 H   0  0  0  0  0  0  0  0  0  0  0  0
   59.2659   34.3764   48.2407 H   0  0  0  0  0  0  0  0  0  0  0  0
   58.3021   32.1274   47.7456 H   0  0  0  0  0  0  0  0  0  0  0  0
   55.2520   29.2040   42.5130 H   0  0  0  0  0  0  0  0  0  0  0  0
   56.1520   27.8290   44.5850 H   0  0  0  0  0  0  0  0  0  0  0  0
  1  2  1  0
  2  3  1  0
  3  4  1  0
  4  5  2  0
  4  6  1  0
  6  7  1  0
  7  8  1  0
  8  9  1  0
  9 10  1  0
 10 11  2  0
 11 12  1  0
 12 13  1  0
 13 14  2  0
 14 15  1  0
 15 16  2  0
 16 17  1  0
 17 18  2  0
 12 19  2  0
 19 20  1  0
 20 21  2  3
 20 22  1  0
  9  3  1  0
 22 10  1  0
 18 13  1  0
  1 23  1  0
  1 24  1  0
  1 25  1  0
  2 26  1  0
  2 27  1  0
  3 28  1  6
  6 29  1  0
  7 30  1  0
  7 31  1  0
  8 32  1  0
  8 33  1  0
 14 34  1  0
 15 35  1  0
 16 36  1  0
 17 37  1  0
 18 38  1  0
 21 39  1  0
 22 40  1  0
M  END
>  <smiles>  (8) 
CCC1C(=O)NCCN1c1nc(-c2ccccc2)nc(=N)[nH]1

>  <score_type>  (8) 
oracle

>  <origin>  (8) 
adg

>  <m_score__min__energy>  (8) 
-7.9500000000000002

>  <m_primary>  (8) 
energy

$$$$
8:0
     RDKit          3D

 34 35  0  0  0  0  0  0  0  0999 V2000
   59.2800   28.7305   45.7543 H   0  0  0  0  0  0  0  0  0  0  0  0
   58.3740   28.1120   45.8360 C   0  0  0  0  0  0  0  0  0  0  0  0
   58.2800   26.5910   46.5540 S   0  0  0  0  0  0  0  0  0  0  0  0
   56.6330   26.4290   46.2340 C   0  0  0  0  0  0  0  0  0  0  0  0
   55.8880   25.4130   46.5580 N   0  0  0  0  0  0  0  0  0  0  0  0
   55.7060   24.2090   45.7490 C   0  0  0  0  0  0  0  0  0  0  0  0
   54.6314   24.0487   45.5774 H   0  0  0  0  0  0  0  0  0  0  0  0
   56.1392   23.3532   46.2875 H   0  0  0  0  0  0  0  0  0  0  0  0
   56.4120   24.3490   44.4040 C   0  0  0  0  0  0  0  0  0  0  0  0
   57.4786   24.5605   44.5700 H   0  0  0  0  0  0  0  0  0  0  0  0
   56.3079   23.4127   43.8360 H   0  0  0  0  0  0  0  0  0  0  0  0
   55.9585   25.1747   43.8360 H   0  0  0  0  0  0  0  0  0  0  0  0
   56.1460   27.5110   45.5930 N   0  0  0  0  0  0  0  0  0  0  0  0
   55.1450   27.6000   45.3130 H   0  0  0  0  0  0  0  0  0  0  0  0
   57.1050   28.4540   45.3620 C   0  0  0  0  0  0  0  0  0  0  0  0
   56.8370   29.7320   44.6650 C   0  0  0  0  0  0  0  0  0  0  0  0
   55.6450   30.1140   44.5100 O   0  0  0  0  0  0  0  0  0  0  0  0
   57.9470   30.6220   44.1690 C   0  0  0  0  0  0  0  0  0  0  0  0
   58.7760   30.5919   44.8914 H   0  0  0  0  0  0  0  0  0  0  0  0
   58.2646   30.2516   43.1831 H   0  0  0  0  0  0  0  0  0  0  0  0
   57.4870   32.0770   44.0030 C   0  0  0  0  0  0  0  0  0  0  0  0
   57.7976   32.4379   43.0114 H   0  0  0  0  0  0  0  0  0  0  0  0
   56.3923   32.1041   44.1079 H   0  0  0  0  0  0  0  0  0  0  0  0
   58.0820   32.9750   45.0580 C   0  0  0  0  0  0  0  0  0  0  0  0
   57.8770   32.7030   46.4210 C   0  0  0  0  0  0  0  0  0  0  0  0
   57.3006   31.8158   46.7222 H   0  0  0  0  0  0  0  0  0  0  0  0
   58.4030   33.5560   47.3960 C   0  0  0  0  0  0  0  0  0  0  0  0
   58.2440   33.3364   48.4621 H   0  0  0  0  0  0  0  0  0  0  0  0
   59.1310   34.6880   47.0170 C   0  0  0  0  0  0  0  0  0  0  0  0
   59.5473   35.3562   47.7852 H   0  0  0  0  0  0  0  0  0  0  0  0
   59.3300   34.9710   45.6640 C   0  0  0  0  0  0  0  0  0  0  0  0
   59.8999   35.8640   45.3679 H   0  0  0  0  0  0  0  0  0  0  0  0
   58.8060   34.1210   44.6850 C   0  0  0  0  0  0  0  0  0  0  0  0
   58.9607   34.3496   43.6202 H   0  0  0  0  0  0  0  0  0  0  0  0
  1  2  1  0
  2  3  1  0
  3  4  1  0
  4  5  2  0
  5  6  1  0
  6  7  1  0
  6  8  1  0
  6  9  1  0
  9 10  1  0
  9 11  1  0
  9 12  1  0
  4 13  1  0
 13 14  1  0
 13 15  1  0
 15 16  1  0
 16 17  2  0
 16 18  1  0
 18 19  1  0
 18 20  1  0
 18 21  1  0
 21 22  1  0
 21 23  1  0
 21 24  1  0
 24 25  2  0
 25 26  1  0
 25 27  1  0
 27 28  1  0
 27 29  2  0
 29 30  1  0
 29 31  1  0
 31 32  1  0
 31 33  2  0
 33 34  1  0
 15  2  2  0
 33 24  1  0
M  END
>  <UniqueID>  (9) 
8

>  <SMILES>  (9) 
CC/N=c1/[nH]c(C(=O)CCc2ccccc2)cs1

>  <Energy>  (9) 
57.7433443387779

>  <Genealogy>  (9) 
CC/N=c1/[nH]c(C(=O)CCc2ccccc2)cs1 (cis-trans isomerization)
CC/N=c1/[nH]c(C(=O)CCc2ccccc2)cs1 (3D coordinates assigned)
CC/N=c1/[nH]c(C(=O)CCc2ccccc2)cs1 (optimized conformer: 57.7433443387779 kcal/mol)

>  <smiles>  (9) 
CCN=c1[nH]c(C(=O)CCc2ccccc2)cs1

>  <score_type>  (9) 
oracle

>  <origin>  (9) 
adg

>  <m_score__min__energy>  (9) 
-7.9299999999999997

>  <m_primary>  (9) 
energy

$$$$
9:0
     RDKit          3D

 56 55  0  0  0  0  0  0  0  0999 V2000
   56.2170   30.0780   45.1200 N   0  0  0  0  0  0  0  0  0  0  0  0
   55.4940   29.7880   43.8860 C   0  0  0  0  0  0  0  0  0  0  0  0
   56.3560   30.1640   42.6700 C   0  0  0  0  0  0  0  0  0  0  0  0
   57.6460   30.7610   43.0520 N   0  0  0  0  0  0  0  0  0  0  0  0
   57.6840   32.2080   42.8070 C   0  0  0  0  0  0  0  0  0  0  0  0
   58.1080   32.9400   44.0820 C   0  0  0  0  0  0  0  0  0  0  0  0
   57.6510   32.2020   45.2670 N   0  0  0  0  0  0  0  0  0  0  0  0
   58.1630   32.7720   46.5250 C   0  0  0  0  0  0  0  0  0  0  0  0
   58.7060   31.6490   47.4020 C   0  0  0  0  0  0  0  0  0  0  0  0
   58.1810   30.3690   46.9370 N   0  0  0  0  0  0  0  0  0  0  0  0
   58.9490   29.3560   46.2790 C   0  0  0  0  0  0  0  0  0  0  0  0
   59.4010   29.5860   45.1260 O   0  0  0  0  0  0  0  0  0  0  0  0
   59.2670   28.0490   46.9420 C   0  0  0  0  0  0  0  0  0  0  0  0
   58.1900   27.6790   47.8790 N   0  0  0  0  0  0  0  0  0  0  0  0
   57.4780   26.4440   47.4950 C   0  0  2  0  0  0  0  0  0  0  0  0
   58.4810   25.3170   47.1350 C   0  0  0  0  0  0  0  0  0  0  0  0
   59.0640   25.3410   45.7030 C   0  0  0  0  0  0  0  0  0  0  0  0
   58.1130   24.8250   44.6080 C   0  0  0  0  0  0  0  0  0  0  0  0
   57.3940   25.9200   43.9480 N   0  0  0  0  0  0  0  0  0  0  0  0
   57.9440   26.8550   43.2180 C   0  0  0  0  0  0  0  0  0  0  0  0
   58.0480   28.1840   43.7390 N   0  0  0  0  0  0  0  0  0  0  0  0
   58.4390   26.5940   41.8960 N   0  0  0  0  0  0  0  0  0  0  0  0
   56.5020   26.6810   46.3700 C   0  0  0  0  0  0  0  0  0  0  0  0
   56.5580   27.7490   45.7040 O   0  0  0  0  0  0  0  0  0  0  0  0
   55.5090   25.7510   46.0830 O   0  0  0  0  0  0  0  0  0  0  0  0
   56.2530   31.1160   45.2400 H   0  0  0  0  0  0  0  0  0  0  0  0
   57.2050   29.7590   44.9930 H   0  0  0  0  0  0  0  0  0  0  0  0
   55.2571   28.7145   43.8465 H   0  0  0  0  0  0  0  0  0  0  0  0
   54.5649   30.3765   43.8654 H   0  0  0  0  0  0  0  0  0  0  0  0
   56.5492   29.2553   42.0809 H   0  0  0  0  0  0  0  0  0  0  0  0
   55.8012   30.9149   42.0884 H   0  0  0  0  0  0  0  0  0  0  0  0
   57.8200   30.5820   44.0700 H   0  0  0  0  0  0  0  0  0  0  0  0
   58.4057   32.4236   42.0053 H   0  0  0  0  0  0  0  0  0  0  0  0
   56.6828   32.5515   42.5076 H   0  0  0  0  0  0  0  0  0  0  0  0
   59.2046   33.0224   44.1059 H   0  0  0  0  0  0  0  0  0  0  0  0
   57.6556   33.9427   44.0873 H   0  0  0  0  0  0  0  0  0  0  0  0
   57.9900   31.2150   45.1890 H   0  0  0  0  0  0  0  0  0  0  0  0
   58.9685   33.4875   46.3033 H   0  0  0  0  0  0  0  0  0  0  0  0
   57.3494   33.2914   47.0526 H   0  0  0  0  0  0  0  0  0  0  0  0
   59.8044   31.6373   47.3439 H   0  0  0  0  0  0  0  0  0  0  0  0
   58.3948   31.8154   48.4439 H   0  0  0  0  0  0  0  0  0  0  0  0
   59.3661   27.2669   46.1749 H   0  0  0  0  0  0  0  0  0  0  0  0
   60.2099   28.1490   47.4997 H   0  0  0  0  0  0  0  0  0  0  0  0
   57.4950   28.4620   47.8580 H   0  0  0  0  0  0  0  0  0  0  0  0
   56.8924   26.1194   48.3677 H   0  0  0  0  0  0  0  0  0  0  0  0
   59.3233   25.3822   47.8395 H   0  0  0  0  0  0  0  0  0  0  0  0
   57.9029   24.3832   47.1974 H   0  0  0  0  0  0  0  0  0  0  0  0
   59.3327   26.3798   45.4607 H   0  0  0  0  0  0  0  0  0  0  0  0
   59.9267   24.6586   45.7094 H   0  0  0  0  0  0  0  0  0  0  0  0
   58.7006   24.2801   43.8544 H   0  0  0  0  0  0  0  0  0  0  0  0
   57.3705   24.1671   45.0834 H   0  0  0  0  0  0  0  0  0  0  0  0
   56.3550   25.9280   44.0630 H   0  0  0  0  0  0  0  0  0  0  0  0
   57.7040   28.4160   44.6970 H   0  0  0  0  0  0  0  0  0  0  0  0
   58.4760   28.9440   43.1660 H   0  0  0  0  0  0  0  0  0  0  0  0
   58.9120   27.3570   41.3630 H   0  0  0  0  0  0  0  0  0  0  0  0
   58.3120   25.6820   41.4090 H   0  0  0  0  0  0  0  0  0  0  0  0
  1  2  1  0
  2  3  1  0
  3  4  1  0
  4  5  1  0
  5  6  1  0
  6  7  1  0
  7  8  1  0
  8  9  1  0
  9 10  1  0
 10 11  1  0
 11 12  2  0
 11 13  1  0
 13 14  1  0
 14 15  1  0
 15 16  1  0
 16 17  1  0
 17 18  1  0
 18 19  1  0
 19 20  2  3
 20 21  1  0
 20 22  1  0
 15 23  1  0
 23 24  2  0
 23 25  1  0
  1 26  1  0
  1 27  1  0
  2 28  1  0
  2 29  1  0
  3 30  1  0
  3 31  1  0
  4 32  1  0
  5 33  1  0
  5 34  1  0
  6 35  1  0
  6 36  1  0
  7 37  1  0
  8 38  1  0
  8 39  1  0
  9 40  1  0
  9 41  1  0
 13 42  1  0
 13 43  1  0
 14 44  1  0
 15 45  1  1
 16 46  1  0
 16 47  1  0
 17 48  1  0
 17 49  1  0
 18 50  1  0
 18 51  1  0
 19 52  1  0
 21 53  1  0
 21 54  1  0
 22 55  1  0
 22 56  1  0
M  CHG  3  10  -1  19   1  25  -1
M  END
>  <UniqueID>  (10) 
9

>  <SMILES>  (10) 
NCCNCCNCC[N-]C(=O)CN[C@H](CCC[NH+]=C(N)N)C(=O)[O-]

>  <Energy>  (10) 
37.8638715465248

>  <Genealogy>  (10) 
NCCNCCNCC[N-]C(=O)CNC(CCC[NH+]=C(N)N)C(=O)[O-] (protonated)
NCCNCCNCC[N-]C(=O)CN[C@H](CCC[NH+]=C(N)N)C(=O)[O-] (chirality)
NCCNCCNCC[N-]C(=O)CN[C@H](CCC[NH+]=C(N)N)C(=O)[O-] (3D coordinates assigned)
NCCNCCNCC[N-]C(=O)CN[C@H](CCC[NH+]=C(N)N)C(=O)[O-] (optimized conformer: 37.8638715465248 kcal/mol)

>  <smiles>  (10) 
NCCNCCNCCNC(=O)CNC(CCCN=C(N)N)C(=O)O

>  <score_type>  (10) 
oracle

>  <origin>  (10) 
adg

>  <m_score__min__energy>  (10) 
-7.3499999999999996

>  <m_primary>  (10) 
energy

$$$$
10:0
     RDKit          3D

 37 37  0  0  0  0  0  0  0  0999 V2000
   58.9420   29.3360   48.4720 C   0  0  0  0  0  0  0  0  0  0  0  0
   59.8650   28.8950   47.3380 C   0  0  0  0  0  0  0  0  0  0  0  0
   59.4720   27.5760   46.7860 N   0  0  0  0  0  0  0  0  0  0  0  0
   58.2060   27.0920   47.3830 C   0  0  0  0  0  0  0  0  0  0  0  0
   57.2300   26.6810   46.2860 C   0  0  0  0  0  0  0  0  0  0  0  0
   59.4510   27.5240   45.3030 C   0  0  0  0  0  0  0  0  0  0  0  0
   59.1230   28.8790   44.6300 C   0  0  0  0  0  0  0  0  0  0  0  0
   57.9560   28.8040   43.7400 N   0  0  0  0  0  0  0  0  0  0  0  0
   56.8550   30.1350   43.9640 S   0  0  0  0  0  0  0  0  0  0  0  0
   55.7400   29.6980   44.8720 O   0  0  0  0  0  0  0  0  0  0  0  0
   56.2590   30.5200   42.6370 O   0  0  0  0  0  0  0  0  0  0  0  0
   57.6590   31.5240   44.6960 C   0  0  0  0  0  0  0  0  0  0  0  0
   57.9420   32.6530   43.9140 C   0  0  0  0  0  0  0  0  0  0  0  0
   58.5550   33.7700   44.4890 C   0  0  0  0  0  0  0  0  0  0  0  0
   58.8910   33.7640   45.8460 C   0  0  0  0  0  0  0  0  0  0  0  0
   59.6560   35.1680   46.5680 Cl  0  0  0  0  0  0  0  0  0  0  0  0
   58.6160   32.6380   46.6280 C   0  0  0  0  0  0  0  0  0  0  0  0
   58.0020   31.5200   46.0560 C   0  0  0  0  0  0  0  0  0  0  0  0
   59.4152   29.1099   49.4389 H   0  0  0  0  0  0  0  0  0  0  0  0
   58.7602   30.4183   48.3969 H   0  0  0  0  0  0  0  0  0  0  0  0
   57.9858   28.7975   48.3969 H   0  0  0  0  0  0  0  0  0  0  0  0
   59.8228   29.6440   46.5335 H   0  0  0  0  0  0  0  0  0  0  0  0
   60.8837   28.8050   47.7432 H   0  0  0  0  0  0  0  0  0  0  0  0
   58.4158   26.2247   48.0263 H   0  0  0  0  0  0  0  0  0  0  0  0
   57.7573   27.9011   47.9780 H   0  0  0  0  0  0  0  0  0  0  0  0
   56.3076   26.2926   46.7425 H   0  0  0  0  0  0  0  0  0  0  0  0
   56.9906   27.5547   45.6620 H   0  0  0  0  0  0  0  0  0  0  0  0
   57.6877   25.8992   45.6620 H   0  0  0  0  0  0  0  0  0  0  0  0
   60.4412   27.1954   44.9544 H   0  0  0  0  0  0  0  0  0  0  0  0
   58.6492   26.8260   45.0204 H   0  0  0  0  0  0  0  0  0  0  0  0
   58.9190   29.6215   45.4155 H   0  0  0  0  0  0  0  0  0  0  0  0
   59.9905   29.1630   44.0161 H   0  0  0  0  0  0  0  0  0  0  0  0
   58.2780   28.8090   42.7440 H   0  0  0  0  0  0  0  0  0  0  0  0
   57.6810   32.6597   42.8454 H   0  0  0  0  0  0  0  0  0  0  0  0
   58.7733   34.6548   43.8730 H   0  0  0  0  0  0  0  0  0  0  0  0
   58.8832   32.6319   47.6950 H   0  0  0  0  0  0  0  0  0  0  0  0
   57.7874   30.6354   46.6737 H   0  0  0  0  0  0  0  0  0  0  0  0
  1  2  1  0
  2  3  1  0
  3  4  1  0
  4  5  1  0
  3  6  1  0
  6  7  1  0
  7  8  1  0
  8  9  1  0
  9 10  2  0
  9 11  2  0
  9 12  1  0
 12 13  2  0
 13 14  1  0
 14 15  2  0
 15 16  1  0
 15 17  1  0
 17 18  2  0
 18 12  1  0
  1 19  1  0
  1 20  1  0
  1 21  1  0
  2 22  1  0
  2 23  1  0
  4 24  1  0
  4 25  1  0
  5 26  1  0
  5 27  1  0
  5 28  1  0
  6 29  1  0
  6 30  1  0
  7 31  1  0
  7 32  1  0
  8 33  1  0
 13 34  1  0
 14 35  1  0
 17 36  1  0
 18 37  1  0
M  END
>  <UniqueID>  (11) 
10

>  <SMILES>  (11) 
CCN(CC)CCNS(=O)(=O)c1ccc(Cl)cc1

>  <Energy>  (11) 
33.47916693706066

>  <Genealogy>  (11) 
CCN(CC)CCNS(=O)(=O)c1ccc(Cl)cc1 (3D coordinates assigned)
CCN(CC)CCNS(=O)(=O)c1ccc(Cl)cc1 (optimized conformer: 33.47916693706066 kcal/mol)

>  <smiles>  (11) 
CCN(CC)CCNS(=O)(=O)c1ccc(Cl)cc1

>  <score_type>  (11) 
oracle

>  <origin>  (11) 
adg

>  <m_score__min__energy>  (11) 
-6.6699999999999999

>  <m_primary>  (11) 
energy

$$$$
11:0
     RDKit          3D

 38 39  0  0  0  0  0  0  0  0999 V2000
   58.8820   31.6540   49.5160 C   0  0  0  0  0  0  0  0  0  0  0  0
   58.7790   31.7370   48.0990 O   0  0  0  0  0  0  0  0  0  0  0  0
   58.7330   30.6270   47.2430 C   0  0  0  0  0  0  0  0  0  0  0  0
   58.9380   29.3030   47.7020 C   0  0  0  0  0  0  0  0  0  0  0  0
   58.9000   28.2160   46.8030 C   0  0  0  0  0  0  0  0  0  0  0  0
   58.6610   28.4300   45.4360 C   0  0  0  0  0  0  0  0  0  0  0  0
   58.4590   29.7380   45.0050 C   0  0  0  0  0  0  0  0  0  0  0  0
   58.2180   30.1410   43.7460 N   0  0  0  0  0  0  0  0  0  0  0  0
   58.0910   31.4860   43.8030 C   0  0  0  0  0  0  0  0  0  0  0  0
   57.7770   32.3270   42.6040 C   0  0  0  0  0  0  0  0  0  0  0  0
   58.2370   31.9410   45.1160 C   0  0  0  0  0  0  0  0  0  0  0  0
   58.1090   33.3590   45.6080 C   0  0  0  0  0  0  0  0  0  0  0  0
   59.4710   34.0670   45.7740 C   0  0  0  0  0  0  0  0  0  0  0  0
   60.2060   33.6390   46.9960 N   0  0  0  0  0  0  0  0  0  0  0  0
   59.9840   34.5980   48.0940 C   0  0  0  0  0  0  0  0  0  0  0  0
   61.6550   33.5250   46.7410 C   0  0  0  0  0  0  0  0  0  0  0  0
   58.4850   30.8040   45.8740 C   0  0  0  0  0  0  0  0  0  0  0  0
   58.1045   32.2805   49.9775 H   0  0  0  0  0  0  0  0  0  0  0  0
   58.7470   30.6093   49.8329 H   0  0  0  0  0  0  0  0  0  0  0  0
   59.8741   32.0080   49.8329 H   0  0  0  0  0  0  0  0  0  0  0  0
   59.1287   29.1202   48.7698 H   0  0  0  0  0  0  0  0  0  0  0  0
   59.0588   27.1934   47.1759 H   0  0  0  0  0  0  0  0  0  0  0  0
   58.6342   27.5893   44.7271 H   0  0  0  0  0  0  0  0  0  0  0  0
   58.1400   29.5360   42.8990 H   0  0  0  0  0  0  0  0  0  0  0  0
   57.4098   33.3106   42.9321 H   0  0  0  0  0  0  0  0  0  0  0  0
   58.6867   32.4582   41.9997 H   0  0  0  0  0  0  0  0  0  0  0  0
   57.0039   31.8299   41.9997 H   0  0  0  0  0  0  0  0  0  0  0  0
   57.5047   33.9272   44.8855 H   0  0  0  0  0  0  0  0  0  0  0  0
   57.6358   33.3208   46.6003 H   0  0  0  0  0  0  0  0  0  0  0  0
   60.0923   33.8416   44.8947 H   0  0  0  0  0  0  0  0  0  0  0  0
   59.2712   35.1443   45.8716 H   0  0  0  0  0  0  0  0  0  0  0  0
   59.8560   32.7100   47.3250 H   0  0  0  0  0  0  0  0  0  0  0  0
   60.1030   34.0841   49.0593 H   0  0  0  0  0  0  0  0  0  0  0  0
   60.7167   35.4152   48.0209 H   0  0  0  0  0  0  0  0  0  0  0  0
   58.9667   35.0101   48.0209 H   0  0  0  0  0  0  0  0  0  0  0  0
   62.1937   33.4826   47.6991 H   0  0  0  0  0  0  0  0  0  0  0  0
   61.8553   32.6083   46.1669 H   0  0  0  0  0  0  0  0  0  0  0  0
   61.9962   34.3991   46.1669 H   0  0  0  0  0  0  0  0  0  0  0  0
  1  2  1  0
  2  3  1  0
  3  4  2  0
  4  5  1  0
  5  6  2  0
  6  7  1  0
  7  8  1  0
  8  9  1  0
  9 10  1  0
  9 11  2  0
 11 12  1  0
 12 13  1  0
 13 14  1  0
 14 15  1  0
 14 16  1  0
 11 17  1  0
 17  3  1  0
 17  7  2  0
  1 18  1  0
  1 19  1  0
  1 20  1  0
  4 21  1  0
  5 22  1  0
  6 23  1  0
  8 24  1  0
 10 25  1  0
 10 26  1  0
 10 27  1  0
 12 28  1  0
 12 29  1  0
 13 30  1  0
 13 31  1  0
 14 32  1  0
 15 33  1  0
 15 34  1  0
 15 35  1  0
 16 36  1  0
 16 37  1  0
 16 38  1  0
M  CHG  1  14   1
M  END
>  <UniqueID>  (12) 
11

>  <SMILES>  (12) 
COc1cccc2[nH]c(C)c(CC[NH+](C)C)c12

>  <Energy>  (12) 
68.82157516927238

>  <Genealogy>  (12) 
COc1cccc2[nH]c(C)c(CC[NH+](C)C)c12 (protonated)
COc1cccc2[nH]c(C)c(CC[NH+](C)C)c12 (3D coordinates assigned)
COc1cccc2[nH]c(C)c(CC[NH+](C)C)c12 (optimized conformer: 68.82157516927238 kcal/mol)

>  <smiles>  (12) 
COc1cccc2[nH]c(C)c(CCN(C)C)c12

>  <score_type>  (12) 
oracle

>  <origin>  (12) 
adg

>  <m_score__min__energy>  (12) 
-3.6200000000000001

>  <m_primary>  (12) 
energy

$$$$
12:0
     RDKit          3D

 31 32  0  0  0  0  0  0  0  0999 V2000
   55.4140   29.3440   44.8620 O   0  0  0  0  0  0  0  0  0  0  0  0
   56.2410   30.1760   44.4020 C   0  0  0  0  0  0  0  0  0  0  0  0
   57.2370   29.7410   43.3670 C   0  0  0  0  0  0  0  0  0  0  0  0
   57.5510   28.3070   43.4830 N   0  0  0  0  0  0  0  0  0  0  0  0
   58.2900   28.0240   44.6920 C   0  0  0  0  0  0  0  0  0  0  0  0
   59.6560   28.3550   44.7780 C   0  0  0  0  0  0  0  0  0  0  0  0
   60.3890   28.0460   45.9270 C   0  0  0  0  0  0  0  0  0  0  0  0
   59.7710   27.4030   47.0010 C   0  0  0  0  0  0  0  0  0  0  0  0
   58.4160   27.0690   46.9300 C   0  0  0  0  0  0  0  0  0  0  0  0
   57.6750   27.3760   45.7840 C   0  0  0  0  0  0  0  0  0  0  0  0
   56.3620   27.0370   45.7370 F   0  0  0  0  0  0  0  0  0  0  0  0
   56.2480   31.5360   44.8550 N   0  0  0  0  0  0  0  0  0  0  0  0
   57.3950   32.3060   45.2420 C   0  0  0  0  0  0  0  0  0  0  0  0
   58.4390   31.7610   46.0130 C   0  0  0  0  0  0  0  0  0  0  0  0
   59.5220   32.5580   46.3960 C   0  0  0  0  0  0  0  0  0  0  0  0
   59.5660   33.9050   46.0260 C   0  0  0  0  0  0  0  0  0  0  0  0
   60.6160   34.6780   46.4000 F   0  0  0  0  0  0  0  0  0  0  0  0
   58.5230   34.4580   45.2790 C   0  0  0  0  0  0  0  0  0  0  0  0
   57.4380   33.6640   44.8950 C   0  0  0  0  0  0  0  0  0  0  0  0
   56.8206   29.9352   42.3676 H   0  0  0  0  0  0  0  0  0  0  0  0
   58.1656   30.3094   43.5240 H   0  0  0  0  0  0  0  0  0  0  0  0
   58.0790   27.9900   42.6370 H   0  0  0  0  0  0  0  0  0  0  0  0
   56.6530   27.7700   43.5020 H   0  0  0  0  0  0  0  0  0  0  0  0
   60.1496   28.8604   43.9348 H   0  0  0  0  0  0  0  0  0  0  0  0
   61.4553   28.3100   45.9853 H   0  0  0  0  0  0  0  0  0  0  0  0
   60.3509   27.1592   47.9034 H   0  0  0  0  0  0  0  0  0  0  0  0
   57.9307   26.5632   47.7777 H   0  0  0  0  0  0  0  0  0  0  0  0
   58.4026   30.7040   46.3153 H   0  0  0  0  0  0  0  0  0  0  0  0
   60.3405   32.1243   46.9893 H   0  0  0  0  0  0  0  0  0  0  0  0
   58.5554   35.5195   44.9925 H   0  0  0  0  0  0  0  0  0  0  0  0
   56.6134   34.1072   44.3174 H   0  0  0  0  0  0  0  0  0  0  0  0
  1  2  2  0
  2  3  1  0
  3  4  1  0
  4  5  1  0
  5  6  2  0
  6  7  1  0
  7  8  2  0
  8  9  1  0
  9 10  2  0
 10 11  1  0
  2 12  1  0
 12 13  1  0
 13 14  2  0
 14 15  1  0
 15 16  2  0
 16 17  1  0
 16 18  1  0
 18 19  2  0
 10  5  1  0
 19 13  1  0
  3 20  1  0
  3 21  1  0
  4 22  1  0
  4 23  1  0
  6 24  1  0
  7 25  1  0
  8 26  1  0
  9 27  1  0
 14 28  1  0
 15 29  1  0
 18 30  1  0
 19 31  1  0
M  CHG  2   4   1  12  -1
M  END
>  <UniqueID>  (13) 
12

>  <SMILES>  (13) 
O=C(C[NH2+]c1ccccc1F)[N-]c1ccc(F)cc1

>  <Energy>  (13) 
34.64773073352499

>  <Genealogy>  (13) 
O=C(C[NH2+]c1ccccc1F)[N-]c1ccc(F)cc1 (protonated)
O=C(C[NH2+]c1ccccc1F)[N-]c1ccc(F)cc1 (3D coordinates assigned)
O=C(C[NH2+]c1ccccc1F)[N-]c1ccc(F)cc1 (optimized conformer: 34.64773073352499 kcal/mol)

>  <smiles>  (13) 
O=C(CNc1ccccc1F)Nc1ccc(F)cc1

>  <score_type>  (13) 
oracle

>  <origin>  (13) 
adg

>  <m_score__min__energy>  (13) 
-7.3200000000000003

>  <m_primary>  (13) 
energy

$$$$
13:0
     RDKit          3D

 44 46  0  0  0  0  0  0  0  0999 V2000
   58.3210   34.3380   45.4710 C   0  0  0  0  0  0  0  0  0  0  0  0
   58.2420   32.8400   45.4490 C   0  0  0  0  0  0  0  0  0  0  0  0
   59.2830   32.0720   45.9880 C   0  0  0  0  0  0  0  0  0  0  0  0
   59.2240   30.6780   45.9450 C   0  0  0  0  0  0  0  0  0  0  0  0
   58.1330   30.0320   45.3490 C   0  0  0  0  0  0  0  0  0  0  0  0
   58.0960   28.6000   45.3320 N   0  0  0  0  0  0  0  0  0  0  0  0
   58.2890   27.8520   46.5780 C   0  0  0  0  0  0  0  0  0  0  0  0
   57.2370   26.7440   46.6880 C   0  0  0  0  0  0  0  0  0  0  0  0
   57.1280   25.9740   45.4390 N   0  0  0  0  0  0  0  0  0  0  0  0
   56.2130   24.8640   45.3890 C   0  0  0  0  0  0  0  0  0  0  0  0
   55.1090   24.9430   45.9940 O   0  0  0  0  0  0  0  0  0  0  0  0
   56.5160   23.6260   44.6420 C   0  0  0  0  0  0  0  0  0  0  0  0
   55.7300   23.1820   43.6510 C   0  0  0  0  0  0  0  0  0  0  0  0
   56.0340   21.9750   43.0100 O   0  0  0  0  0  0  0  0  0  0  0  0
   57.0070   21.0720   43.5370 C   0  0  0  0  0  0  0  0  0  0  0  0
   58.1770   21.8640   44.1230 C   0  0  0  0  0  0  0  0  0  0  0  0
   57.6780   22.9080   44.9630 O   0  0  0  0  0  0  0  0  0  0  0  0
   57.8830   26.3840   44.2450 C   0  0  0  0  0  0  0  0  0  0  0  0
   57.8140   27.9050   44.0700 C   0  0  0  0  0  0  0  0  0  0  0  0
   57.0980   30.7960   44.7670 C   0  0  0  0  0  0  0  0  0  0  0  0
   55.9080   30.1360   44.1260 C   0  0  0  0  0  0  0  0  0  0  0  0
   57.1580   32.1980   44.8310 C   0  0  0  0  0  0  0  0  0  0  0  0
   58.3395   34.6889   46.5134 H   0  0  0  0  0  0  0  0  0  0  0  0
   59.2376   34.6644   44.9579 H   0  0  0  0  0  0  0  0  0  0  0  0
   57.4438   34.7590   44.9579 H   0  0  0  0  0  0  0  0  0  0  0  0
   60.1501   32.5697   46.4468 H   0  0  0  0  0  0  0  0  0  0  0  0
   60.0394   30.0828   46.3819 H   0  0  0  0  0  0  0  0  0  0  0  0
   59.2933   27.4034   46.5825 H   0  0  0  0  0  0  0  0  0  0  0  0
   58.1846   28.5372   47.4321 H   0  0  0  0  0  0  0  0  0  0  0  0
   57.5203   26.0626   47.5037 H   0  0  0  0  0  0  0  0  0  0  0  0
   56.2627   27.2136   46.8885 H   0  0  0  0  0  0  0  0  0  0  0  0
   54.8491   23.7641   43.3425 H   0  0  0  0  0  0  0  0  0  0  0  0
   56.5479   20.4589   44.3265 H   0  0  0  0  0  0  0  0  0  0  0  0
   57.3744   20.4195   42.7312 H   0  0  0  0  0  0  0  0  0  0  0  0
   58.8143   21.1909   44.7153 H   0  0  0  0  0  0  0  0  0  0  0  0
   58.7658   22.3041   43.3047 H   0  0  0  0  0  0  0  0  0  0  0  0
   58.9338   26.0787   44.3573 H   0  0  0  0  0  0  0  0  0  0  0  0
   57.4435   25.9011   43.3598 H   0  0  0  0  0  0  0  0  0  0  0  0
   58.5550   28.2132   43.3177 H   0  0  0  0  0  0  0  0  0  0  0  0
   56.7971   28.1717   43.7463 H   0  0  0  0  0  0  0  0  0  0  0  0
   55.2314   29.7608   44.9080 H   0  0  0  0  0  0  0  0  0  0  0  0
   55.3755   30.8677   43.5006 H   0  0  0  0  0  0  0  0  0  0  0  0
   56.2468   29.2969   43.5006 H   0  0  0  0  0  0  0  0  0  0  0  0
   56.3474   32.7984   44.3924 H   0  0  0  0  0  0  0  0  0  0  0  0
  1  2  1  0
  2  3  2  0
  3  4  1  0
  4  5  2  0
  5  6  1  0
  6  7  1  0
  7  8  1  0
  8  9  1  0
  9 10  1  0
 10 11  2  0
 10 12  1  0
 12 13  2  0
 13 14  1  0
 14 15  1  0
 15 16  1  0
 16 17  1  0
  9 18  1  0
 18 19  1  0
  5 20  1  0
 20 21  1  0
 20 22  2  0
 22  2  1  0
 19  6  1  0
 17 12  1  0
  1 23  1  0
  1 24  1  0
  1 25  1  0
  3 26  1  0
  4 27  1  0
  7 28  1  0
  7 29  1  0
  8 30  1  0
  8 31  1  0
 13 32  1  0
 15 33  1  0
 15 34  1  0
 16 35  1  0
 16 36  1  0
 18 37  1  0
 18 38  1  0
 19 39  1  0
 19 40  1  0
 21 41  1  0
 21 42  1  0
 21 43  1  0
 22 44  1  0
M  END
>  <UniqueID>  (14) 
13

>  <SMILES>  (14) 
Cc1ccc(N2CCN(C(=O)C3=COCCO3)CC2)c(C)c1

>  <Energy>  (14) 
52.65998003282953

>  <Genealogy>  (14) 
Cc1ccc(N2CCN(C(=O)C3=COCCO3)CC2)c(C)c1 (3D coordinates assigned)
Cc1ccc(N2CCN(C(=O)C3=COCCO3)CC2)c(C)c1 (nonaromatic ring conformer: 52.65998003282953 kcal/mol)

>  <smiles>  (14) 
Cc1ccc(N2CCN(C(=O)C3=COCCO3)CC2)c(C)c1

>  <score_type>  (14) 
oracle

>  <origin>  (14) 
adg

>  <m_score__min__energy>  (14) 
-8.1199999999999992

>  <m_primary>  (14) 
energy

$$$$
14:0
     RDKit          3D

 43 46  0  0  1  0  0  0  0  0999 V2000
   57.0870   31.2440   42.3280 C   0  0  0  0  0  0  0  0  0  0  0  0
   57.5850   31.8450   43.6050 C   0  0  0  0  0  0  0  0  0  0  0  0
   58.3310   33.0270   43.5790 C   0  0  0  0  0  0  0  0  0  0  0  0
   58.7630   33.5400   44.7600 C   0  0  0  0  0  0  0  0  0  0  0  0
   58.5200   32.9760   45.9990 C   0  0  0  0  0  0  0  0  0  0  0  0
   57.7720   31.7970   45.9840 C   0  0  0  0  0  0  0  0  0  0  0  0
   57.3090   31.2320   44.8320 C   0  0  0  0  0  0  0  0  0  0  0  0
   56.5440   30.0320   44.7790 N   0  0  0  0  0  0  0  0  0  0  0  0
   56.9070   28.9810   45.4140 C   0  0  0  0  0  0  0  0  0  0  0  0
   56.0510   27.9220   45.3890 N   0  0  0  0  0  0  0  0  0  0  0  0
   56.3660   26.7910   46.0310 C   0  0  0  0  0  0  0  0  0  0  0  0
   55.5730   25.8150   45.9870 N   0  0  0  0  0  0  0  0  0  0  0  0
   55.6260   24.6700   45.1530 C   0  0  0  0  0  0  0  0  0  0  0  0
   56.8800   24.4320   44.3910 C   0  0  0  0  0  0  0  0  0  0  0  0
   57.9240   23.9850   45.1740 F   0  0  0  0  0  0  0  0  0  0  0  0
   56.6480   23.5940   43.3320 F   0  0  0  0  0  0  0  0  0  0  0  0
   57.3740   25.6060   43.8070 F   0  0  0  0  0  0  0  0  0  0  0  0
   57.5310   26.6930   46.7090 C   0  0  0  0  0  0  0  0  0  0  0  0
   58.1000   25.7070   47.4440 C   0  0  0  0  0  0  0  0  0  0  0  0
   59.2860   26.2330   47.8770 N   0  0  0  0  0  0  0  0  0  0  0  0
   59.4630   27.4620   47.4520 N   0  0  0  0  0  0  0  0  0  0  0  0
   60.6350   28.2630   47.7600 C   0  0  0  0  0  0  0  0  0  0  0  0
   60.7290   29.6810   47.2970 C   0  0  0  0  0  0  0  0  0  0  0  0
   60.6020   29.3110   48.7750 C   0  0  0  0  0  0  0  0  0  0  0  0
   58.3800   27.7720   46.7210 C   0  0  0  0  0  0  0  0  0  0  0  0
   58.0810   28.9220   46.0790 N   0  0  0  0  0  0  0  0  0  0  0  0
   56.4004   30.4154   42.5560 H   0  0  0  0  0  0  0  0  0  0  0  0
   56.5557   32.0105   41.7447 H   0  0  0  0  0  0  0  0  0  0  0  0
   57.9389   30.8644   41.7447 H   0  0  0  0  0  0  0  0  0  0  0  0
   58.5619   33.5282   42.6274 H   0  0  0  0  0  0  0  0  0  0  0  0
   59.3482   34.4709   44.7287 H   0  0  0  0  0  0  0  0  0  0  0  0
   58.8905   33.4253   46.9322 H   0  0  0  0  0  0  0  0  0  0  0  0
   57.5468   31.3034   46.9409 H   0  0  0  0  0  0  0  0  0  0  0  0
   55.1460   27.9820   44.8700 H   0  0  0  0  0  0  0  0  0  0  0  0
   55.4562   23.7900   45.7908 H   0  0  0  0  0  0  0  0  0  0  0  0
   54.8607   24.8489   44.3834 H   0  0  0  0  0  0  0  0  0  0  0  0
   57.6967   24.7041   47.6476 H   0  0  0  0  0  0  0  0  0  0  0  0
   61.2529   27.3638   47.6200 H   0  0  0  0  0  0  0  0  0  0  0  0
   61.6767   30.0754   46.9018 H   0  0  0  0  0  0  0  0  0  0  0  0
   60.1786   30.3210   46.5916 H   0  0  0  0  0  0  0  0  0  0  0  0
   61.4581   29.4483   49.4520 H   0  0  0  0  0  0  0  0  0  0  0  0
   59.9146   29.5842   49.5891 H   0  0  0  0  0  0  0  0  0  0  0  0
   58.7100   29.7440   46.0780 H   0  0  0  0  0  0  0  0  0  0  0  0
  1  2  1  0
  2  3  2  0
  3  4  1  0
  4  5  2  0
  5  6  1  0
  6  7  2  0
  7  8  1  0
  8  9  2  0
  9 10  1  0
 10 11  1  0
 11 12  2  0
 12 13  1  0
 13 14  1  0
 14 15  1  0
 14 16  1  0
 14 17  1  0
 11 18  1  0
 18 19  1  0
 19 20  2  0
 20 21  1  0
 21 22  1  0
 22 23  1  0
 23 24  1  0
 21 25  1  0
 25 26  1  0
  7  2  1  0
 26  9  1  0
 25 18  2  0
 24 22  1  0
  1 27  1  0
  1 28  1  0
  1 29  1  0
  3 30  1  0
  4 31  1  0
  5 32  1  0
  6 33  1  0
 10 34  1  0
 13 35  1  0
 13 36  1  0
 19 37  1  0
 22 38  1  0
 23 39  1  0
 23 40  1  0
 24 41  1  0
 24 42  1  0
 26 43  1  0
M  END
>  <smiles>  (15) 
Cc1ccccc1N=c1[nH]c(=NCC(F)(F)F)c2cnn(C3CC3)c2[nH]1

>  <score_type>  (15) 
oracle

>  <origin>  (15) 
adg

>  <m_score__min__energy>  (15) 
-7.0999999999999996

>  <m_primary>  (15) 
energy

$$$$
15:0
     RDKit          3D

 57 59  0  0  0  0  0  0  0  0999 V2000
   57.8040   31.8900   51.2460 C   0  0  0  0  0  0  0  0  0  0  0  0
   58.3710   32.2760   49.8840 C   0  0  0  0  0  0  0  0  0  0  0  0
   59.7000   33.0250   50.0320 C   0  0  0  0  0  0  0  0  0  0  0  0
   60.8280   32.1250   49.7630 N   0  0  0  0  0  0  0  0  0  0  0  0
   62.2030   32.5370   50.0830 C   0  0  0  0  0  0  0  0  0  0  0  0
   62.6260   33.7750   49.2800 C   0  0  0  0  0  0  0  0  0  0  0  0
   63.7380   33.4580   48.2830 C   0  0  0  0  0  0  0  0  0  0  0  0
   60.5890   30.9350   48.9900 C   0  0  0  0  0  0  0  0  0  0  0  0
   60.2630   29.7970   49.6550 N   0  0  0  0  0  0  0  0  0  0  0  0
   60.0520   28.6280   49.0120 C   0  0  0  0  0  0  0  0  0  0  0  0
   60.1860   28.5540   47.6220 C   0  0  0  0  0  0  0  0  0  0  0  0
   59.9660   27.2560   46.9280 C   0  0  0  0  0  0  0  0  0  0  0  0
   60.7460   26.2820   47.1270 O   0  0  0  0  0  0  0  0  0  0  0  0
   58.8630   27.1060   46.0230 N   0  0  0  0  0  0  0  0  0  0  0  0
   57.5440   27.6890   46.2460 C   0  0  0  0  0  0  0  0  0  0  0  0
   57.2640   28.7450   45.2260 C   0  0  0  0  0  0  0  0  0  0  0  0
   58.2160   29.4370   44.4880 C   0  0  0  0  0  0  0  0  0  0  0  0
   57.6600   30.4010   43.6410 C   0  0  0  0  0  0  0  0  0  0  0  0
   56.2750   30.4740   43.7140 C   0  0  0  0  0  0  0  0  0  0  0  0
   55.7420   29.3400   44.8360 S   0  0  0  0  0  0  0  0  0  0  0  0
   60.5360   29.7370   46.9360 C   0  0  0  0  0  0  0  0  0  0  0  0
   60.6760   29.7110   45.6810 O   0  0  0  0  0  0  0  0  0  0  0  0
   60.7230   30.9160   47.6210 N   0  0  0  0  0  0  0  0  0  0  0  0
   61.0900   32.1340   46.8660 C   0  0  0  0  0  0  0  0  0  0  0  0
   59.8720   32.8810   46.3680 C   0  0  0  0  0  0  0  0  0  0  0  0
   58.5950   32.3330   46.5690 C   0  0  0  0  0  0  0  0  0  0  0  0
   57.4580   32.9880   46.0840 C   0  0  0  0  0  0  0  0  0  0  0  0
   57.5870   34.1880   45.3840 C   0  0  0  0  0  0  0  0  0  0  0  0
   58.8530   34.7350   45.1620 C   0  0  0  0  0  0  0  0  0  0  0  0
   59.9930   34.0840   45.6460 C   0  0  0  0  0  0  0  0  0  0  0  0
   58.4333   32.3184   52.0400 H   0  0  0  0  0  0  0  0  0  0  0  0
   56.7794   32.2790   51.3402 H   0  0  0  0  0  0  0  0  0  0  0  0
   57.7903   30.7941   51.3402 H   0  0  0  0  0  0  0  0  0  0  0  0
   58.5367   31.3637   49.2921 H   0  0  0  0  0  0  0  0  0  0  0  0
   57.6510   32.9379   49.3805 H   0  0  0  0  0  0  0  0  0  0  0  0
   59.7258   33.8617   49.3183 H   0  0  0  0  0  0  0  0  0  0  0  0
   59.7834   33.4033   51.0615 H   0  0  0  0  0  0  0  0  0  0  0  0
   62.2647   32.7700   51.1563 H   0  0  0  0  0  0  0  0  0  0  0  0
   62.8789   31.7100   49.8197 H   0  0  0  0  0  0  0  0  0  0  0  0
   61.7534   34.1562   48.7293 H   0  0  0  0  0  0  0  0  0  0  0  0
   63.0084   34.5248   49.9882 H   0  0  0  0  0  0  0  0  0  0  0  0
   64.6563   33.1962   48.8290 H   0  0  0  0  0  0  0  0  0  0  0  0
   63.4332   32.6110   47.6508 H   0  0  0  0  0  0  0  0  0  0  0  0
   63.9256   34.3384   47.6508 H   0  0  0  0  0  0  0  0  0  0  0  0
   59.7736   27.7306   49.5840 H   0  0  0  0  0  0  0  0  0  0  0  0
   56.7811   26.9001   46.1703 H   0  0  0  0  0  0  0  0  0  0  0  0
   57.5185   28.1433   47.2475 H   0  0  0  0  0  0  0  0  0  0  0  0
   59.2968   29.2462   44.5622 H   0  0  0  0  0  0  0  0  0  0  0  0
   58.2626   31.0408   42.9796 H   0  0  0  0  0  0  0  0  0  0  0  0
   55.6353   31.1573   43.1362 H   0  0  0  0  0  0  0  0  0  0  0  0
   61.6696   32.7983   47.5238 H   0  0  0  0  0  0  0  0  0  0  0  0
   61.6809   31.8260   45.9908 H   0  0  0  0  0  0  0  0  0  0  0  0
   58.4879   31.3821   47.1116 H   0  0  0  0  0  0  0  0  0  0  0  0
   56.4608   32.5563   46.2548 H   0  0  0  0  0  0  0  0  0  0  0  0
   56.6915   34.7035   45.0068 H   0  0  0  0  0  0  0  0  0  0  0  0
   58.9538   35.6787   44.6060 H   0  0  0  0  0  0  0  0  0  0  0  0
   60.9886   34.5140   45.4617 H   0  0  0  0  0  0  0  0  0  0  0  0
  1  2  1  0
  2  3  1  0
  3  4  1  0
  4  5  1  0
  5  6  1  0
  6  7  1  0
  4  8  1  0
  8  9  2  0
  9 10  1  0
 10 11  2  0
 11 12  1  0
 12 13  2  0
 12 14  1  0
 14 15  1  0
 15 16  1  0
 16 17  2  0
 17 18  1  0
 18 19  2  0
 19 20  1  0
 11 21  1  0
 21 22  2  0
 21 23  1  0
 23 24  1  0
 24 25  1  0
 25 26  2  0
 26 27  1  0
 27 28  2  0
 28 29  1  0
 29 30  2  0
 23  8  1  0
 30 25  1  0
 20 16  1  0
  1 31  1  0
  1 32  1  0
  1 33  1  0
  2 34  1  0
  2 35  1  0
  3 36  1  0
  3 37  1  0
  5 38  1  0
  5 39  1  0
  6 40  1  0
  6 41  1  0
  7 42  1  0
  7 43  1  0
  7 44  1  0
 10 45  1  0
 15 46  1  0
 15 47  1  0
 17 48  1  0
 18 49  1  0
 19 50  1  0
 24 51  1  0
 24 52  1  0
 26 53  1  0
 27 54  1  0
 28 55  1  0
 29 56  1  0
 30 57  1  0
M  CHG  1  14  -1
M  END
>  <UniqueID>  (16) 
14

>  <SMILES>  (16) 
CCCN(CCC)c1ncc(C(=O)[N-]Cc2cccs2)c(=O)n1Cc1ccccc1

>  <Energy>  (16) 
82.54232781927506

>  <Genealogy>  (16) 
CCCN(CCC)c1ncc(C(=O)[N-]Cc2cccs2)c(=O)n1Cc1ccccc1 (protonated)
CCCN(CCC)c1ncc(C(=O)[N-]Cc2cccs2)c(=O)n1Cc1ccccc1 (3D coordinates assigned)
CCCN(CCC)c1ncc(C(=O)[N-]Cc2cccs2)c(=O)n1Cc1ccccc1 (optimized conformer: 82.54232781927506 kcal/mol)

>  <smiles>  (16) 
CCCN(CCC)c1ncc(C(=O)NCc2cccs2)c(=O)n1Cc1ccccc1

>  <score_type>  (16) 
oracle

>  <origin>  (16) 
adg

>  <m_score__min__energy>  (16) 
-10.15

>  <m_primary>  (16) 
energy

$$$$
16:0
     RDKit          3D

 28 29  0  0  0  0  0  0  0  0999 V2000
   63.3630   33.8470   46.3710 C   0  0  0  0  0  0  0  0  0  0  0  0
   63.3710   33.0390   47.4350 C   0  0  0  0  0  0  0  0  0  0  0  0
   62.6830   31.7010   47.4200 C   0  0  0  0  0  0  0  0  0  0  0  0
   61.3020   31.7790   48.0980 C   0  0  0  0  0  0  0  0  0  0  0  0
   60.0920   31.4390   47.2310 C   0  0  0  0  0  0  0  0  0  0  0  0
   59.5990   30.1810   47.1680 C   0  0  0  0  0  0  0  0  0  0  0  0
   58.4300   29.8430   46.3450 C   0  0  0  0  0  0  0  0  0  0  0  0
   57.9990   28.6580   46.3190 O   0  0  0  0  0  0  0  0  0  0  0  0
   57.7710   30.8880   45.5620 C   0  0  0  0  0  0  0  0  0  0  0  0
   56.7590   30.6120   44.8620 O   0  0  0  0  0  0  0  0  0  0  0  0
   58.3150   32.2580   45.6100 C   0  0  0  0  0  0  0  0  0  0  0  0
   57.7180   33.2840   44.8580 C   0  0  0  0  0  0  0  0  0  0  0  0
   58.2380   34.5780   44.8920 C   0  0  0  0  0  0  0  0  0  0  0  0
   59.3570   34.8600   45.6720 C   0  0  0  0  0  0  0  0  0  0  0  0
   59.9610   33.8510   46.4260 C   0  0  0  0  0  0  0  0  0  0  0  0
   59.4510   32.5340   46.4160 C   0  0  0  0  0  0  0  0  0  0  0  0
   63.8758   34.8191   46.4148 H   0  0  0  0  0  0  0  0  0  0  0  0
   62.8436   33.5401   45.4512 H   0  0  0  0  0  0  0  0  0  0  0  0
   63.8950   33.3608   48.3471 H   0  0  0  0  0  0  0  0  0  0  0  0
   62.5533   31.3756   46.3773 H   0  0  0  0  0  0  0  0  0  0  0  0
   63.3043   30.9828   47.9751 H   0  0  0  0  0  0  0  0  0  0  0  0
   61.3087   31.0820   48.9490 H   0  0  0  0  0  0  0  0  0  0  0  0
   61.1736   32.8367   48.3713 H   0  0  0  0  0  0  0  0  0  0  0  0
   60.0884   29.3867   47.7508 H   0  0  0  0  0  0  0  0  0  0  0  0
   56.8354   33.0655   44.2389 H   0  0  0  0  0  0  0  0  0  0  0  0
   57.7639   35.3764   44.3023 H   0  0  0  0  0  0  0  0  0  0  0  0
   59.7665   35.8807   45.6943 H   0  0  0  0  0  0  0  0  0  0  0  0
   60.8459   34.0854   47.0359 H   0  0  0  0  0  0  0  0  0  0  0  0
  1  2  2  0
  2  3  1  0
  3  4  1  0
  4  5  1  0
  5  6  2  0
  6  7  1  0
  7  8  2  0
  7  9  1  0
  9 10  2  0
  9 11  1  0
 11 12  2  0
 12 13  1  0
 13 14  2  0
 14 15  1  0
 15 16  2  0
 16  5  1  0
 16 11  1  0
  1 17  1  0
  1 18  1  0
  2 19  1  0
  3 20  1  0
  3 21  1  0
  4 22  1  0
  4 23  1  0
  6 24  1  0
 12 25  1  0
 13 26  1  0
 14 27  1  0
 15 28  1  0
M  END
>  <UniqueID>  (17) 
15

>  <SMILES>  (17) 
C=CCCC1=CC(=O)C(=O)c2ccccc21

>  <Energy>  (17) 
30.6621287804656

>  <Genealogy>  (17) 
C=CCCC1=CC(=O)C(=O)c2ccccc21 (3D coordinates assigned)
C=CCCC1=CC(=O)C(=O)c2ccccc21 (nonaromatic ring conformer: 30.6621287804656 kcal/mol)

>  <smiles>  (17) 
C=CCCC1=CC(=O)C(=O)c2ccccc21

>  <score_type>  (17) 
oracle

>  <origin>  (17) 
adg

>  <m_score__min__energy>  (17) 
-6.6100000000000003

>  <m_primary>  (17) 
energy

$$$$
17:0
     RDKit          3D

 39 42  0  0  0  0  0  0  0  0999 V2000
   56.6740   21.3520   43.0360 C   0  0  0  0  0  0  0  0  0  0  0  0
   55.8560   22.4430   43.4490 O   0  0  0  0  0  0  0  0  0  0  0  0
   56.3460   23.6280   44.0170 C   0  0  0  0  0  0  0  0  0  0  0  0
   57.3010   24.4380   43.3730 C   0  0  0  0  0  0  0  0  0  0  0  0
   57.7590   25.6090   43.9840 C   0  0  0  0  0  0  0  0  0  0  0  0
   57.2840   25.9800   45.2510 C   0  0  0  0  0  0  0  0  0  0  0  0
   57.7430   27.2320   45.8930 C   0  0  0  0  0  0  0  0  0  0  0  0
   57.3820   28.4020   45.3070 N   0  0  0  0  0  0  0  0  0  0  0  0
   57.7870   29.6000   45.7850 C   0  0  0  0  0  0  0  0  0  0  0  0
   57.4000   30.7100   45.1680 O   0  0  0  0  0  0  0  0  0  0  0  0
   57.7670   31.9210   45.5690 C   0  0  0  0  0  0  0  0  0  0  0  0
   57.3190   33.0480   44.8690 C   0  0  0  0  0  0  0  0  0  0  0  0
   57.6980   34.3280   45.2810 C   0  0  0  0  0  0  0  0  0  0  0  0
   58.5270   34.4900   46.3940 C   0  0  0  0  0  0  0  0  0  0  0  0
   58.9810   33.3730   47.1020 C   0  0  0  0  0  0  0  0  0  0  0  0
   58.6050   32.0780   46.6960 C   0  0  0  0  0  0  0  0  0  0  0  0
   59.0350   30.9250   47.3780 C   0  0  0  0  0  0  0  0  0  0  0  0
   59.7830   31.0330   48.3890 O   0  0  0  0  0  0  0  0  0  0  0  0
   58.6180   29.6560   46.9180 C   0  0  0  0  0  0  0  0  0  0  0  0
   58.9800   28.4360   47.5320 C   0  0  0  0  0  0  0  0  0  0  0  0
   59.7390   28.4430   48.5420 O   0  0  0  0  0  0  0  0  0  0  0  0
   58.5090   27.2430   47.0380 N   0  0  0  0  0  0  0  0  0  0  0  0
   58.8470   25.9880   47.7360 C   0  0  0  0  0  0  0  0  0  0  0  0
   56.3180   25.1850   45.8840 C   0  0  0  0  0  0  0  0  0  0  0  0
   55.8600   24.0130   45.2730 C   0  0  0  0  0  0  0  0  0  0  0  0
   57.0648   20.8307   43.9223 H   0  0  0  0  0  0  0  0  0  0  0  0
   56.0757   20.6527   42.4334 H   0  0  0  0  0  0  0  0  0  0  0  0
   57.5129   21.7303   42.4334 H   0  0  0  0  0  0  0  0  0  0  0  0
   57.6882   24.1481   42.3851 H   0  0  0  0  0  0  0  0  0  0  0  0
   58.4957   26.2429   43.4687 H   0  0  0  0  0  0  0  0  0  0  0  0
   56.6666   32.9251   43.9919 H   0  0  0  0  0  0  0  0  0  0  0  0
   57.3430   35.2101   44.7280 H   0  0  0  0  0  0  0  0  0  0  0  0
   58.8235   35.4997   46.7143 H   0  0  0  0  0  0  0  0  0  0  0  0
   59.6331   33.5060   47.9778 H   0  0  0  0  0  0  0  0  0  0  0  0
   58.8034   26.1499   48.8231 H   0  0  0  0  0  0  0  0  0  0  0  0
   58.1276   25.2056   47.4526 H   0  0  0  0  0  0  0  0  0  0  0  0
   59.8621   25.6728   47.4526 H   0  0  0  0  0  0  0  0  0  0  0  0
   55.9189   25.4840   46.8645 H   0  0  0  0  0  0  0  0  0  0  0  0
   55.1119   23.3885   45.7832 H   0  0  0  0  0  0  0  0  0  0  0  0
  1  2  1  0
  2  3  1  0
  3  4  2  0
  4  5  1  0
  5  6  2  0
  6  7  1  0
  7  8  2  0
  8  9  1  0
  9 10  1  0
 10 11  1  0
 11 12  2  0
 12 13  1  0
 13 14  2  0
 14 15  1  0
 15 16  2  0
 16 17  1  0
 17 18  2  0
 17 19  1  0
 19 20  1  0
 20 21  2  0
 20 22  1  0
 22 23  1  0
  6 24  1  0
 24 25  2  0
 25  3  1  0
 22  7  1  0
 19  9  2  0
 16 11  1  0
  1 26  1  0
  1 27  1  0
  1 28  1  0
  4 29  1  0
  5 30  1  0
 12 31  1  0
 13 32  1  0
 14 33  1  0
 15 34  1  0
 23 35  1  0
 23 36  1  0
 23 37  1  0
 24 38  1  0
 25 39  1  0
M  END
>  <UniqueID>  (18) 
16

>  <SMILES>  (18) 
COc1ccc(-c2nc3oc4ccccc4c(=O)c3c(=O)n2C)cc1

>  <Energy>  (18) 
65.25763013501235

>  <Genealogy>  (18) 
COc1ccc(-c2nc3oc4ccccc4c(=O)c3c(=O)n2C)cc1 (3D coordinates assigned)
COc1ccc(-c2nc3oc4ccccc4c(=O)c3c(=O)n2C)cc1 (optimized conformer: 65.25763013501235 kcal/mol)

>  <smiles>  (18) 
COc1ccc(-c2nc3oc4ccccc4c(=O)c3c(=O)n2C)cc1

>  <score_type>  (18) 
oracle

>  <origin>  (18) 
adg

>  <m_score__min__energy>  (18) 
-7.6299999999999999

>  <m_primary>  (18) 
energy

$$$$
18:0
     RDKit          3D

 28 27  0  0  0  0  0  0  0  0999 V2000
   58.1130   26.9290   42.5340 C   0  0  0  0  0  0  0  0  0  0  0  0
   57.8820   26.3100   43.9180 C   0  0  0  0  0  0  0  0  0  0  0  0
   57.4570   27.2590   44.9840 N   0  0  0  0  0  0  0  0  0  0  0  0
   56.9010   26.5950   46.1980 C   0  0  0  0  0  0  0  0  0  0  0  0
   57.2730   25.1120   46.3670 C   0  0  0  0  0  0  0  0  0  0  0  0
   58.3980   28.3470   45.2690 C   0  0  0  0  0  0  0  0  0  0  0  0
   59.7740   28.0400   45.5870 S   0  0  0  0  0  0  0  0  0  0  0  0
   57.8570   30.0440   45.5970 S   0  0  0  0  0  0  0  0  0  0  0  0
   57.3460   30.4040   43.8780 C   0  0  0  0  0  0  0  0  0  0  0  0
   55.8620   30.0960   43.6780 C   0  0  0  0  0  0  0  0  0  0  0  0
   55.3270   29.3580   44.8190 N   0  0  0  0  0  0  0  0  0  0  0  0
   58.4954   27.9538   42.6499 H   0  0  0  0  0  0  0  0  0  0  0  0
   58.8461   26.3246   41.9797 H   0  0  0  0  0  0  0  0  0  0  0  0
   57.1632   26.9526   41.9797 H   0  0  0  0  0  0  0  0  0  0  0  0
   57.1019   25.5408   43.8189 H   0  0  0  0  0  0  0  0  0  0  0  0
   58.8576   25.9151   44.2379 H   0  0  0  0  0  0  0  0  0  0  0  0
   56.6270   27.7290   44.5410 H   0  0  0  0  0  0  0  0  0  0  0  0
   57.2674   27.1396   47.0807 H   0  0  0  0  0  0  0  0  0  0  0  0
   55.8072   26.6224   46.0846 H   0  0  0  0  0  0  0  0  0  0  0  0
   57.3339   24.8690   47.4381 H   0  0  0  0  0  0  0  0  0  0  0  0
   56.5044   24.4847   45.8919 H   0  0  0  0  0  0  0  0  0  0  0  0
   58.2467   24.9218   45.8919 H   0  0  0  0  0  0  0  0  0  0  0  0
   57.5258   31.4678   43.6634 H   0  0  0  0  0  0  0  0  0  0  0  0
   57.9328   29.7717   43.1955 H   0  0  0  0  0  0  0  0  0  0  0  0
   55.3092   31.0407   43.5683 H   0  0  0  0  0  0  0  0  0  0  0  0
   55.7487   29.4788   42.7745 H   0  0  0  0  0  0  0  0  0  0  0  0
   54.3850   28.9880   44.5610 H   0  0  0  0  0  0  0  0  0  0  0  0
   55.1700   30.0420   45.5930 H   0  0  0  0  0  0  0  0  0  0  0  0
  1  2  1  0
  2  3  1  0
  3  4  1  0
  4  5  1  0
  3  6  1  0
  6  7  2  0
  6  8  1  0
  8  9  1  0
  9 10  1  0
 10 11  1  0
  1 12  1  0
  1 13  1  0
  1 14  1  0
  2 15  1  0
  2 16  1  0
  3 17  1  0
  4 18  1  0
  4 19  1  0
  5 20  1  0
  5 21  1  0
  5 22  1  0
  9 23  1  0
  9 24  1  0
 10 25  1  0
 10 26  1  0
 11 27  1  0
 11 28  1  0
M  CHG  1   3   1
M  END
>  <UniqueID>  (19) 
17

>  <SMILES>  (19) 
CC[NH+](CC)C(=S)SCCN

>  <Energy>  (19) 
29.429434345339377

>  <Genealogy>  (19) 
CC[NH+](CC)C(=S)SCCN (protonated)
CC[NH+](CC)C(=S)SCCN (3D coordinates assigned)
CC[NH+](CC)C(=S)SCCN (optimized conformer: 29.429434345339377 kcal/mol)

>  <smiles>  (19) 
CCN(CC)C(=S)SCCN

>  <score_type>  (19) 
oracle

>  <origin>  (19) 
adg

>  <m_score__min__energy>  (19) 
-3.4300000000000002

>  <m_primary>  (19) 
energy

$$$$
19:0
     RDKit          3D

 41 43  0  0  0  0  0  0  0  0999 V2000
   58.1842   35.4982   44.7962 H   0  0  0  0  0  0  0  0  0  0  0  0
   58.6000   34.5890   45.2550 C   0  0  0  0  0  0  0  0  0  0  0  0
   58.7890   33.4180   44.6620 C   0  0  0  0  0  0  0  0  0  0  0  0
   58.4880   33.0770   43.2570 C   0  0  0  0  0  0  0  0  0  0  0  0
   58.9628   33.6737   42.4642 H   0  0  0  0  0  0  0  0  0  0  0  0
   57.6670   32.0790   42.8940 C   0  0  0  0  0  0  0  0  0  0  0  0
   57.1312   32.1681   41.9375 H   0  0  0  0  0  0  0  0  0  0  0  0
   57.4430   30.8620   43.7130 C   0  0  0  0  0  0  0  0  0  0  0  0
   56.1250   30.4890   44.0200 C   0  0  0  0  0  0  0  0  0  0  0  0
   55.2870   31.1033   43.6588 H   0  0  0  0  0  0  0  0  0  0  0  0
   55.8670   29.3450   44.7800 C   0  0  0  0  0  0  0  0  0  0  0  0
   54.8285   29.0716   45.0184 H   0  0  0  0  0  0  0  0  0  0  0  0
   56.9170   28.5450   45.2400 C   0  0  0  0  0  0  0  0  0  0  0  0
   56.6060   27.4080   46.0010 O   0  0  0  0  0  0  0  0  0  0  0  0
   57.5530   26.4210   46.3960 C   0  0  0  0  0  0  0  0  0  0  0  0
   57.5977   26.3744   47.4941 H   0  0  0  0  0  0  0  0  0  0  0  0
   57.2484   25.4412   45.9995 H   0  0  0  0  0  0  0  0  0  0  0  0
   58.5446   26.6848   45.9995 H   0  0  0  0  0  0  0  0  0  0  0  0
   58.2410   28.9030   44.9220 C   0  0  0  0  0  0  0  0  0  0  0  0
   59.0757   28.2788   45.2737 H   0  0  0  0  0  0  0  0  0  0  0  0
   58.5010   30.0470   44.1620 C   0  0  0  0  0  0  0  0  0  0  0  0
   59.5389   30.3128   43.9127 H   0  0  0  0  0  0  0  0  0  0  0  0
   59.3370   32.4840   45.5400 O   0  0  0  0  0  0  0  0  0  0  0  0
   59.5570   33.0450   46.8340 C   0  0  2  0  0  0  0  0  0  0  0  0
   61.0370   33.0370   47.2020 C   0  0  0  0  0  0  0  0  0  0  0  0
   61.9640   33.8550   46.5230 C   0  0  0  0  0  0  0  0  0  0  0  0
   61.6173   34.5200   45.7182 H   0  0  0  0  0  0  0  0  0  0  0  0
   63.3200   33.8280   46.8640 C   0  0  0  0  0  0  0  0  0  0  0  0
   64.0332   34.4727   46.3295 H   0  0  0  0  0  0  0  0  0  0  0  0
   63.7710   32.9840   47.8820 C   0  0  0  0  0  0  0  0  0  0  0  0
   64.8373   32.9675   48.1518 H   0  0  0  0  0  0  0  0  0  0  0  0
   62.8670   32.1620   48.5560 C   0  0  0  0  0  0  0  0  0  0  0  0
   63.2228   31.4948   49.3549 H   0  0  0  0  0  0  0  0  0  0  0  0
   61.5110   32.1840   48.2190 C   0  0  0  0  0  0  0  0  0  0  0  0
   60.8066   31.5291   48.7527 H   0  0  0  0  0  0  0  0  0  0  0  0
   58.7130   32.2860   47.8640 C   0  0  0  0  0  0  0  0  0  0  0  0
   59.0293   32.5704   48.8784 H   0  0  0  0  0  0  0  0  0  0  0  0
   57.6514   32.5392   47.7264 H   0  0  0  0  0  0  0  0  0  0  0  0
   58.8526   31.2036   47.7264 H   0  0  0  0  0  0  0  0  0  0  0  0
   59.0480   34.4380   46.6260 C   0  0  0  0  0  0  0  0  0  0  0  0
   58.9850   35.3410   47.5030 O   0  0  0  0  0  0  0  0  0  0  0  0
  1  2  1  0
  2  3  2  0
  3  4  1  0
  4  5  1  0
  4  6  2  0
  6  7  1  0
  6  8  1  0
  8  9  2  0
  9 10  1  0
  9 11  1  0
 11 12  1  0
 11 13  2  0
 13 14  1  0
 14 15  1  0
 15 16  1  0
 15 17  1  0
 15 18  1  0
 13 19  1  0
 19 20  1  0
 19 21  2  0
 21 22  1  0
  3 23  1  0
 23 24  1  0
 24 25  1  0
 25 26  2  0
 26 27  1  0
 26 28  1  0
 28 29  1  0
 28 30  2  0
 30 31  1  0
 30 32  1  0
 32 33  1  0
 32 34  2  0
 34 35  1  0
 24 36  1  1
 36 37  1  0
 36 38  1  0
 36 39  1  0
 24 40  1  0
 40 41  2  0
 40  2  1  0
 21  8  1  0
 34 25  1  0
M  END
>  <UniqueID>  (20) 
18

>  <SMILES>  (20) 
COc1ccc(/C=C/C2=CC(=O)[C@](C)(c3ccccc3)O2)cc1

>  <Energy>  (20) 
63.35952324819132

>  <Genealogy>  (20) 
COc1ccc(C=CC2=CC(=O)[C@](C)(c3ccccc3)O2)cc1 (chirality)
COc1ccc(/C=C/C2=CC(=O)[C@](C)(c3ccccc3)O2)cc1 (cis-trans isomerization)
COc1ccc(/C=C/C2=CC(=O)[C@](C)(c3ccccc3)O2)cc1 (3D coordinates assigned)
COc1ccc(/C=C/C2=CC(=O)[C@](C)(c3ccccc3)O2)cc1 (nonaromatic ring conformer: 63.35952324819132 kcal/mol)

>  <smiles>  (20) 
COc1ccc(C=CC2=CC(=O)C(C)(c3ccccc3)O2)cc1

>  <score_type>  (20) 
oracle

>  <origin>  (20) 
adg

>  <m_score__min__energy>  (20) 
-8.2400000000000002

>  <m_primary>  (20) 
energy

$$$$
20:0
     RDKit          3D

 56 59  0  0  1  0  0  0  0  0999 V2000
   56.1950   22.0960   47.8330 C   0  0  0  0  0  0  0  0  0  0  0  0
   57.3260   22.2900   46.9850 O   0  0  0  0  0  0  0  0  0  0  0  0
   57.0660   22.7240   45.6960 C   0  0  0  0  0  0  0  0  0  0  0  0
   56.8270   21.8520   44.6410 C   0  0  0  0  0  0  0  0  0  0  0  0
   56.5680   22.2810   43.3590 C   0  0  0  0  0  0  0  0  0  0  0  0
   56.5460   23.6330   43.1150 C   0  0  0  0  0  0  0  0  0  0  0  0
   56.7820   24.5010   44.1540 C   0  0  0  0  0  0  0  0  0  0  0  0
   57.0440   24.0640   45.4550 C   0  0  0  0  0  0  0  0  0  0  0  0
   57.2880   25.1220   46.4580 C   0  0  0  0  0  0  0  0  0  0  0  0
   56.3320   26.1870   46.4490 N   0  0  0  0  0  0  0  0  0  0  0  0
   56.7960   27.3590   46.0840 C   0  0  0  0  0  0  0  0  0  0  0  0
   56.0820   28.1370   45.2440 N   0  0  0  0  0  0  0  0  0  0  0  0
   56.5370   29.3490   44.8200 C   0  0  0  0  0  0  0  0  0  0  0  0
   55.7220   30.1710   43.9000 C   0  0  0  0  0  0  0  0  0  0  0  0
   57.7370   29.7510   45.2720 N   0  0  0  0  0  0  0  0  0  0  0  0
   58.4900   29.0090   46.1140 C   0  0  0  0  0  0  0  0  0  0  0  0
   58.0330   27.7770   46.5480 C   0  0  0  0  0  0  0  0  0  0  0  0
   58.9790   27.3010   47.3500 N   0  0  0  0  0  0  0  0  0  0  0  0
   59.9880   28.1940   47.4170 C   0  0  0  0  0  0  0  0  0  0  0  0
   59.6980   29.2600   46.6530 N   0  0  0  0  0  0  0  0  0  0  0  0
   60.4580   30.4620   46.3880 C   0  0  0  0  0  0  0  0  0  0  0  0
   60.0780   31.6300   47.2470 C   0  0  0  0  0  0  0  0  0  0  0  0
   59.3650   32.6510   46.5880 N   0  0  0  0  0  0  0  0  0  0  0  0
   60.0850   33.6610   45.9410 C   0  0  0  0  0  0  0  0  0  0  0  0
   59.2660   34.8920   45.6320 C   0  0  0  0  0  0  0  0  0  0  0  0
   57.9800   34.5610   44.9340 C   0  0  0  0  0  0  0  0  0  0  0  0
   57.6350   33.0810   45.0080 C   0  0  0  0  0  0  0  0  0  0  0  0
   57.9870   32.5140   46.3700 C   0  0  0  0  0  0  0  0  0  0  0  0
   56.5119   22.1503   48.8850 H   0  0  0  0  0  0  0  0  0  0  0  0
   55.4488   22.8793   47.6339 H   0  0  0  0  0  0  0  0  0  0  0  0
   55.7525   21.1088   47.6339 H   0  0  0  0  0  0  0  0  0  0  0  0
   56.8456   20.7702   44.8392 H   0  0  0  0  0  0  0  0  0  0  0  0
   56.3832   21.5592   42.5497 H   0  0  0  0  0  0  0  0  0  0  0  0
   56.3426   24.0147   42.1036 H   0  0  0  0  0  0  0  0  0  0  0  0
   56.7639   25.5824   43.9535 H   0  0  0  0  0  0  0  0  0  0  0  0
   57.2747   24.6582   47.4553 H   0  0  0  0  0  0  0  0  0  0  0  0
   58.2582   25.5735   46.2033 H   0  0  0  0  0  0  0  0  0  0  0  0
   55.1440   27.8690   44.8700 H   0  0  0  0  0  0  0  0  0  0  0  0
   55.0656   30.8331   44.4838 H   0  0  0  0  0  0  0  0  0  0  0  0
   56.3849   30.7781   43.2659 H   0  0  0  0  0  0  0  0  0  0  0  0
   55.1093   29.5134   43.2659 H   0  0  0  0  0  0  0  0  0  0  0  0
   60.9077   28.0683   48.0072 H   0  0  0  0  0  0  0  0  0  0  0  0
   61.5224   30.2415   46.5565 H   0  0  0  0  0  0  0  0  0  0  0  0
   60.2423   30.7501   45.3486 H   0  0  0  0  0  0  0  0  0  0  0  0
   59.4538   31.2569   48.0724 H   0  0  0  0  0  0  0  0  0  0  0  0
   61.0226   32.0836   47.5817 H   0  0  0  0  0  0  0  0  0  0  0  0
   60.9248   33.9565   46.5871 H   0  0  0  0  0  0  0  0  0  0  0  0
   60.4195   33.2488   44.9775 H   0  0  0  0  0  0  0  0  0  0  0  0
   59.0337   35.4080   46.5753 H   0  0  0  0  0  0  0  0  0  0  0  0
   59.8587   35.5300   44.9599 H   0  0  0  0  0  0  0  0  0  0  0  0
   57.1674   35.1355   45.4026 H   0  0  0  0  0  0  0  0  0  0  0  0
   58.1023   34.8206   43.8721 H   0  0  0  0  0  0  0  0  0  0  0  0
   56.5569   32.9526   44.8315 H   0  0  0  0  0  0  0  0  0  0  0  0
   58.2146   32.5449   44.2421 H   0  0  0  0  0  0  0  0  0  0  0  0
   57.4358   33.0609   47.1491 H   0  0  0  0  0  0  0  0  0  0  0  0
   57.7125   31.4495   46.4076 H   0  0  0  0  0  0  0  0  0  0  0  0
  1  2  1  0
  2  3  1  0
  3  4  2  0
  4  5  1  0
  5  6  2  0
  6  7  1  0
  7  8  2  0
  8  9  1  0
  9 10  1  0
 10 11  2  0
 11 12  1  0
 12 13  1  0
 13 14  1  0
 13 15  2  0
 15 16  1  0
 16 17  2  0
 17 18  1  0
 18 19  2  0
 19 20  1  0
 20 21  1  0
 21 22  1  0
 22 23  1  0
 23 24  1  0
 24 25  1  0
 25 26  1  0
 26 27  1  0
 27 28  1  0
  8  3  1  0
 17 11  1  0
 28 23  1  0
 20 16  1  0
  1 29  1  0
  1 30  1  0
  1 31  1  0
  4 32  1  0
  5 33  1  0
  6 34  1  0
  7 35  1  0
  9 36  1  0
  9 37  1  0
 12 38  1  0
 14 39  1  0
 14 40  1  0
 14 41  1  0
 19 42  1  0
 21 43  1  0
 21 44  1  0
 22 45  1  0
 22 46  1  0
 24 47  1  0
 24 48  1  0
 25 49  1  0
 25 50  1  0
 26 51  1  0
 26 52  1  0
 27 53  1  0
 27 54  1  0
 28 55  1  0
 28 56  1  0
M  END
>  <smiles>  (21) 
COc1ccccc1CN=c1[nH]c(C)nc2c1ncn2CCN1CCCCC1

>  <score_type>  (21) 
oracle

>  <origin>  (21) 
adg

>  <m_score__min__energy>  (21) 
-8.9399999999999995

>  <m_primary>  (21) 
energy

$$$$
21:0
     RDKit          3D

 40 41  0  0  0  0  0  0  0  0999 V2000
   57.0280   26.6850   46.2960 C   0  0  0  0  0  0  0  0  0  0  0  0
   58.4300   27.0220   45.7660 C   0  0  0  0  0  0  0  0  0  0  0  0
   58.5200   28.3200   45.0420 N   0  0  0  0  0  0  0  0  0  0  0  0
   59.9180   28.7770   44.8220 C   0  0  0  0  0  0  0  0  0  0  0  0
   60.4780   29.5850   45.9980 C   0  0  0  0  0  0  0  0  0  0  0  0
   57.7700   28.2670   43.7550 C   0  0  0  0  0  0  0  0  0  0  0  0
   56.6750   29.3390   43.6580 C   0  0  0  0  0  0  0  0  0  0  0  0
   56.6500   30.1200   44.8500 O   0  0  0  0  0  0  0  0  0  0  0  0
   57.3650   31.3140   45.0350 C   0  0  0  0  0  0  0  0  0  0  0  0
   57.6510   32.0940   43.9080 C   0  0  0  0  0  0  0  0  0  0  0  0
   58.3580   33.2920   44.0300 C   0  0  0  0  0  0  0  0  0  0  0  0
   58.7910   33.7300   45.2890 C   0  0  0  0  0  0  0  0  0  0  0  0
   59.5030   34.9320   45.4230 C   0  0  0  0  0  0  0  0  0  0  0  0
   59.9300   35.3570   46.6840 C   0  0  0  0  0  0  0  0  0  0  0  0
   59.6510   34.5880   47.8180 C   0  0  0  0  0  0  0  0  0  0  0  0
   58.9430   33.3890   47.6970 C   0  0  0  0  0  0  0  0  0  0  0  0
   58.5090   32.9490   46.4360 C   0  0  0  0  0  0  0  0  0  0  0  0
   57.7980   31.7470   46.3030 C   0  0  0  0  0  0  0  0  0  0  0  0
   57.0413   26.6882   47.3959 H   0  0  0  0  0  0  0  0  0  0  0  0
   56.3095   27.4360   45.9358 H   0  0  0  0  0  0  0  0  0  0  0  0
   56.7293   25.6895   45.9358 H   0  0  0  0  0  0  0  0  0  0  0  0
   59.1215   27.0565   46.6208 H   0  0  0  0  0  0  0  0  0  0  0  0
   58.6861   26.2386   45.0375 H   0  0  0  0  0  0  0  0  0  0  0  0
   58.0540   29.0240   45.6620 H   0  0  0  0  0  0  0  0  0  0  0  0
   60.5553   27.8935   44.6691 H   0  0  0  0  0  0  0  0  0  0  0  0
   59.9128   29.4378   43.9426 H   0  0  0  0  0  0  0  0  0  0  0  0
   60.1587   29.1243   46.9445 H   0  0  0  0  0  0  0  0  0  0  0  0
   61.5768   29.5937   45.9467 H   0  0  0  0  0  0  0  0  0  0  0  0
   60.1004   30.6169   45.9467 H   0  0  0  0  0  0  0  0  0  0  0  0
   58.4804   28.4148   42.9283 H   0  0  0  0  0  0  0  0  0  0  0  0
   57.2771   27.2852   43.6999 H   0  0  0  0  0  0  0  0  0  0  0  0
   56.8810   29.9933   42.7981 H   0  0  0  0  0  0  0  0  0  0  0  0
   55.6994   28.8477   43.5279 H   0  0  0  0  0  0  0  0  0  0  0  0
   57.3150   31.7594   42.9155 H   0  0  0  0  0  0  0  0  0  0  0  0
   58.5758   33.8938   43.1353 H   0  0  0  0  0  0  0  0  0  0  0  0
   59.7253   35.5406   44.5341 H   0  0  0  0  0  0  0  0  0  0  0  0
   60.4876   36.2998   46.7848 H   0  0  0  0  0  0  0  0  0  0  0  0
   59.9896   34.9276   48.8080 H   0  0  0  0  0  0  0  0  0  0  0  0
   58.7251   32.7882   48.5923 H   0  0  0  0  0  0  0  0  0  0  0  0
   57.5777   31.1399   47.1934 H   0  0  0  0  0  0  0  0  0  0  0  0
  1  2  1  0
  2  3  1  0
  3  4  1  0
  4  5  1  0
  3  6  1  0
  6  7  1  0
  7  8  1  0
  8  9  1  0
  9 10  2  0
 10 11  1  0
 11 12  2  0
 12 13  1  0
 13 14  2  0
 14 15  1  0
 15 16  2  0
 16 17  1  0
 17 18  2  0
 18  9  1  0
 17 12  1  0
  1 19  1  0
  1 20  1  0
  1 21  1  0
  2 22  1  0
  2 23  1  0
  3 24  1  0
  4 25  1  0
  4 26  1  0
  5 27  1  0
  5 28  1  0
  5 29  1  0
  6 30  1  0
  6 31  1  0
  7 32  1  0
  7 33  1  0
 10 34  1  0
 11 35  1  0
 13 36  1  0
 14 37  1  0
 15 38  1  0
 16 39  1  0
 18 40  1  0
M  CHG  1   3   1
M  END
>  <UniqueID>  (22) 
19

>  <SMILES>  (22) 
CC[NH+](CC)CCOc1ccc2ccccc2c1

>  <Energy>  (22) 
44.139358300740966

>  <Genealogy>  (22) 
CC[NH+](CC)CCOc1ccc2ccccc2c1 (protonated)
CC[NH+](CC)CCOc1ccc2ccccc2c1 (3D coordinates assigned)
CC[NH+](CC)CCOc1ccc2ccccc2c1 (optimized conformer: 44.139358300740966 kcal/mol)

>  <smiles>  (22) 
CCN(CC)CCOc1ccc2ccccc2c1

>  <score_type>  (22) 
oracle

>  <origin>  (22) 
adg

>  <m_score__min__energy>  (22) 
-4.3200000000000003

>  <m_primary>  (22) 
energy

$$$$
22:0
     RDKit          3D

 41 44  0  0  0  0  0  0  0  0999 V2000
   54.5410   24.8510   45.6010 C   0  0  0  0  0  0  0  0  0  0  0  0
   55.1680   26.0670   45.9920 O   0  0  0  0  0  0  0  0  0  0  0  0
   56.5570   26.2550   46.0700 C   0  0  0  0  0  0  0  0  0  0  0  0
   57.3860   25.1380   45.9180 C   0  0  0  0  0  0  0  0  0  0  0  0
   58.7740   25.2730   45.9870 C   0  0  0  0  0  0  0  0  0  0  0  0
   59.3480   26.5260   46.2100 C   0  0  0  0  0  0  0  0  0  0  0  0
   58.5350   27.6620   46.3670 C   0  0  0  0  0  0  0  0  0  0  0  0
   59.1440   28.9900   46.6040 C   0  0  0  0  0  0  0  0  0  0  0  0
   58.5670   30.1490   46.2150 N   0  0  0  0  0  0  0  0  0  0  0  0
   59.4320   31.1000   46.6110 C   0  0  0  0  0  0  0  0  0  0  0  0
   59.2350   32.5340   46.3030 C   0  0  0  0  0  0  0  0  0  0  0  0
   59.8120   33.5340   47.1000 C   0  0  0  0  0  0  0  0  0  0  0  0
   59.6220   34.8770   46.7670 C   0  0  0  0  0  0  0  0  0  0  0  0
   58.8950   35.2100   45.6670 N   0  0  0  0  0  0  0  0  0  0  0  0
   58.3420   34.2620   44.8650 C   0  0  0  0  0  0  0  0  0  0  0  0
   58.5080   32.9070   45.1630 C   0  0  0  0  0  0  0  0  0  0  0  0
   60.5100   30.4950   47.2410 C   0  0  0  0  0  0  0  0  0  0  0  0
   61.6550   31.1390   47.9190 C   0  0  0  0  0  0  0  0  0  0  0  0
   62.5990   31.8520   47.1610 C   0  0  0  0  0  0  0  0  0  0  0  0
   63.6980   32.4500   47.7860 C   0  0  0  0  0  0  0  0  0  0  0  0
   63.8700   32.3290   49.1670 C   0  0  0  0  0  0  0  0  0  0  0  0
   64.9370   32.9090   49.7710 F   0  0  0  0  0  0  0  0  0  0  0  0
   62.9490   31.6030   49.9250 C   0  0  0  0  0  0  0  0  0  0  0  0
   61.8490   31.0030   49.3050 C   0  0  0  0  0  0  0  0  0  0  0  0
   60.3280   29.1620   47.2300 N   0  0  0  0  0  0  0  0  0  0  0  0
   57.1370   27.5190   46.2960 C   0  0  0  0  0  0  0  0  0  0  0  0
   54.2488   24.2844   46.4974 H   0  0  0  0  0  0  0  0  0  0  0  0
   53.6465   25.0759   45.0017 H   0  0  0  0  0  0  0  0  0  0  0  0
   55.2430   24.2527   45.0017 H   0  0  0  0  0  0  0  0  0  0  0  0
   56.9413   24.1472   45.7430 H   0  0  0  0  0  0  0  0  0  0  0  0
   59.4174   24.3892   45.8653 H   0  0  0  0  0  0  0  0  0  0  0  0
   60.4423   26.6248   46.2631 H   0  0  0  0  0  0  0  0  0  0  0  0
   60.4105   33.2620   47.9819 H   0  0  0  0  0  0  0  0  0  0  0  0
   60.0609   35.6662   47.3951 H   0  0  0  0  0  0  0  0  0  0  0  0
   57.7626   34.5622   43.9795 H   0  0  0  0  0  0  0  0  0  0  0  0
   58.0716   32.1383   44.5082 H   0  0  0  0  0  0  0  0  0  0  0  0
   62.4732   31.9402   46.0718 H   0  0  0  0  0  0  0  0  0  0  0  0
   64.4280   33.0165   47.1892 H   0  0  0  0  0  0  0  0  0  0  0  0
   63.0892   31.5031   51.0114 H   0  0  0  0  0  0  0  0  0  0  0  0
   61.1322   30.4221   49.9040 H   0  0  0  0  0  0  0  0  0  0  0  0
   56.4916   28.4014   46.4180 H   0  0  0  0  0  0  0  0  0  0  0  0
  1  2  1  0
  2  3  1  0
  3  4  2  0
  4  5  1  0
  5  6  2  0
  6  7  1  0
  7  8  1  0
  8  9  2  0
  9 10  1  0
 10 11  1  0
 11 12  2  0
 12 13  1  0
 13 14  2  0
 14 15  1  0
 15 16  2  0
 10 17  2  0
 17 18  1  0
 18 19  2  0
 19 20  1  0
 20 21  2  0
 21 22  1  0
 21 23  1  0
 23 24  2  0
 17 25  1  0
  7 26  2  0
 26  3  1  0
 25  8  1  0
 16 11  1  0
 24 18  1  0
  1 27  1  0
  1 28  1  0
  1 29  1  0
  4 30  1  0
  5 31  1  0
  6 32  1  0
 12 33  1  0
 13 34  1  0
 15 35  1  0
 16 36  1  0
 19 37  1  0
 20 38  1  0
 23 39  1  0
 24 40  1  0
 26 41  1  0
M  CHG  1  25  -1
M  END
>  <UniqueID>  (23) 
20

>  <SMILES>  (23) 
COc1cccc(-c2nc(-c3ccncc3)c(-c3ccc(F)cc3)[n-]2)c1

>  <Energy>  (23) 
82.2686796979468

>  <Genealogy>  (23) 
COc1cccc(-c2nc(-c3ccncc3)c(-c3ccc(F)cc3)[n-]2)c1 (protonated)
COc1cccc(-c2nc(-c3ccncc3)c(-c3ccc(F)cc3)[n-]2)c1 (3D coordinates assigned)
COc1cccc(-c2nc(-c3ccncc3)c(-c3ccc(F)cc3)[n-]2)c1 (optimized conformer: 82.2686796979468 kcal/mol)

>  <smiles>  (23) 
COc1cccc(-c2nc(-c3ccncc3)c(-c3ccc(F)cc3)[nH]2)c1

>  <score_type>  (23) 
oracle

>  <origin>  (23) 
adg

>  <m_score__min__energy>  (23) 
-8.7100000000000009

>  <m_primary>  (23) 
energy

$$$$
23:0
     RDKit          3D

 37 38  0  0  0  0  0  0  0  0999 V2000
   58.2160   32.5670   47.7330 C   0  0  0  0  0  0  0  0  0  0  0  0
   57.5540   33.1610   46.4770 C   0  0  0  0  0  0  0  0  0  0  0  0
   58.4110   33.2540   45.2560 N   0  0  0  0  0  0  0  0  0  0  0  0
   59.2470   34.4840   45.2340 C   0  0  0  0  0  0  0  0  0  0  0  0
   60.3290   34.5400   46.3180 C   0  0  0  0  0  0  0  0  0  0  0  0
   57.7270   33.0100   43.9500 C   0  0  0  0  0  0  0  0  0  0  0  0
   58.0840   31.6510   43.3130 C   0  0  0  0  0  0  0  0  0  0  0  0
   57.5230   30.4800   44.0630 C   0  0  0  0  0  0  0  0  0  0  0  0
   56.1780   30.1610   44.2240 C   0  0  0  0  0  0  0  0  0  0  0  0
   56.0440   29.0380   44.9660 N   0  0  0  0  0  0  0  0  0  0  0  0
   57.2920   28.6510   45.2820 C   0  0  0  0  0  0  0  0  0  0  0  0
   57.6670   27.5410   46.0370 C   0  0  0  0  0  0  0  0  0  0  0  0
   59.0410   27.3220   46.2460 C   0  0  0  0  0  0  0  0  0  0  0  0
   59.9980   28.2070   45.7050 C   0  0  0  0  0  0  0  0  0  0  0  0
   59.5910   29.3200   44.9460 C   0  0  0  0  0  0  0  0  0  0  0  0
   58.2220   29.5100   44.7540 C   0  0  0  0  0  0  0  0  0  0  0  0
   57.7438   32.9907   48.6316 H   0  0  0  0  0  0  0  0  0  0  0  0
   58.0889   31.4744   47.7326 H   0  0  0  0  0  0  0  0  0  0  0  0
   59.2885   32.8114   47.7326 H   0  0  0  0  0  0  0  0  0  0  0  0
   56.6844   32.5347   46.2288 H   0  0  0  0  0  0  0  0  0  0  0  0
   57.3062   34.1999   46.7404 H   0  0  0  0  0  0  0  0  0  0  0  0
   59.1200   32.4900   45.3700 H   0  0  0  0  0  0  0  0  0  0  0  0
   59.7408   34.5456   44.2530 H   0  0  0  0  0  0  0  0  0  0  0  0
   58.5670   35.3264   45.4287 H   0  0  0  0  0  0  0  0  0  0  0  0
   59.8553   34.5155   47.3105 H   0  0  0  0  0  0  0  0  0  0  0  0
   61.0006   33.6754   46.2108 H   0  0  0  0  0  0  0  0  0  0  0  0
   60.9077   35.4693   46.2108 H   0  0  0  0  0  0  0  0  0  0  0  0
   56.6399   33.0424   44.1149 H   0  0  0  0  0  0  0  0  0  0  0  0
   58.0671   33.7923   43.2554 H   0  0  0  0  0  0  0  0  0  0  0  0
   57.6876   31.6312   42.2871 H   0  0  0  0  0  0  0  0  0  0  0  0
   59.1798   31.5580   43.3352 H   0  0  0  0  0  0  0  0  0  0  0  0
   55.3415   30.7406   43.8065 H   0  0  0  0  0  0  0  0  0  0  0  0
   55.1510   28.5710   45.2360 H   0  0  0  0  0  0  0  0  0  0  0  0
   56.9131   26.8583   46.4559 H   0  0  0  0  0  0  0  0  0  0  0  0
   59.3719   26.4543   46.8356 H   0  0  0  0  0  0  0  0  0  0  0  0
   61.0691   28.0256   45.8777 H   0  0  0  0  0  0  0  0  0  0  0  0
   60.3272   30.0166   44.5185 H   0  0  0  0  0  0  0  0  0  0  0  0
  1  2  1  0
  2  3  1  0
  3  4  1  0
  4  5  1  0
  3  6  1  0
  6  7  1  0
  7  8  1  0
  8  9  2  0
  9 10  1  0
 10 11  1  0
 11 12  2  0
 12 13  1  0
 13 14  2  0
 14 15  1  0
 15 16  2  0
 16  8  1  0
 16 11  1  0
  1 17  1  0
  1 18  1  0
  1 19  1  0
  2 20  1  0
  2 21  1  0
  3 22  1  0
  4 23  1  0
  4 24  1  0
  5 25  1  0
  5 26  1  0
  5 27  1  0
  6 28  1  0
  6 29  1  0
  7 30  1  0
  7 31  1  0
  9 32  1  0
 10 33  1  0
 12 34  1  0
 13 35  1  0
 14 36  1  0
 15 37  1  0
M  CHG  1   3   1
M  END
>  <UniqueID>  (24) 
21

>  <SMILES>  (24) 
CC[NH+](CC)CCc1c[nH]c2ccccc12

>  <Energy>  (24) 
76.77446573586194

>  <Genealogy>  (24) 
CC[NH+](CC)CCc1c[nH]c2ccccc12 (protonated)
CC[NH+](CC)CCc1c[nH]c2ccccc12 (3D coordinates assigned)
CC[NH+](CC)CCc1c[nH]c2ccccc12 (optimized conformer: 76.77446573586194 kcal/mol)

>  <smiles>  (24) 
CCN(CC)CCc1c[nH]c2ccccc12

>  <score_type>  (24) 
oracle

>  <origin>  (24) 
adg

>  <m_score__min__energy>  (24) 
-4.79

>  <m_primary>  (24) 
energy

$$$$
24:0
     RDKit          3D

 49 51  0  0  0  0  0  0  0  0999 V2000
   60.8610   30.1140   49.0070 C   0  0  0  0  0  0  0  0  0  0  0  0
   61.5640   30.8580   47.8780 C   0  0  0  0  0  0  0  0  0  0  0  0
   62.6600   31.6700   48.4100 N   0  0  0  0  0  0  0  0  0  0  0  0
   63.4320   31.2750   49.4100 N   0  0  0  0  0  0  0  0  0  0  0  0
   64.3290   32.2440   49.6690 C   0  0  0  0  0  0  0  0  0  0  0  0
   65.4110   32.1430   50.6920 C   0  0  0  0  0  0  0  0  0  0  0  0
   64.1340   33.2940   48.7930 C   0  0  0  0  0  0  0  0  0  0  0  0
   63.0590   32.9020   48.0100 C   0  0  0  0  0  0  0  0  0  0  0  0
   62.4250   33.7260   46.9530 C   0  0  0  0  0  0  0  0  0  0  0  0
   63.1460   34.2210   46.0450 O   0  0  0  0  0  0  0  0  0  0  0  0
   60.9990   33.9230   46.9060 N   0  0  0  0  0  0  0  0  0  0  0  0
   60.3510   34.0810   45.5950 C   0  0  0  0  0  0  0  0  0  0  0  0
   58.8280   34.2460   45.7230 C   0  0  0  0  0  0  0  0  0  0  0  0
   58.2160   33.2880   46.7690 C   0  0  0  0  0  0  0  0  0  0  0  0
   58.1020   31.8720   46.2170 C   0  0  0  0  0  0  0  0  0  0  0  0
   58.6420   30.7960   46.9430 C   0  0  0  0  0  0  0  0  0  0  0  0
   58.5110   29.4880   46.4740 C   0  0  0  0  0  0  0  0  0  0  0  0
   57.8410   29.2330   45.2770 C   0  0  0  0  0  0  0  0  0  0  0  0
   57.3040   30.2900   44.5260 C   0  0  0  0  0  0  0  0  0  0  0  0
   56.5310   30.0190   43.2590 C   0  0  0  0  0  0  0  0  0  0  0  0
   56.6650   31.0980   42.4040 F   0  0  0  0  0  0  0  0  0  0  0  0
   55.1890   29.8250   43.5330 F   0  0  0  0  0  0  0  0  0  0  0  0
   57.0130   28.8830   42.6310 F   0  0  0  0  0  0  0  0  0  0  0  0
   57.4130   31.6020   45.0180 C   0  0  0  0  0  0  0  0  0  0  0  0
   58.9410   33.3440   48.1460 C   0  0  0  0  0  0  0  0  0  0  0  0
   60.2280   34.1830   48.1280 C   0  0  0  0  0  0  0  0  0  0  0  0
   61.2195   30.4934   49.9752 H   0  0  0  0  0  0  0  0  0  0  0  0
   59.7752   30.2726   48.9303 H   0  0  0  0  0  0  0  0  0  0  0  0
   61.0808   29.0389   48.9303 H   0  0  0  0  0  0  0  0  0  0  0  0
   61.9677   30.1295   47.1594 H   0  0  0  0  0  0  0  0  0  0  0  0
   60.8394   31.5179   47.3786 H   0  0  0  0  0  0  0  0  0  0  0  0
   63.3510   30.3580   49.9040 H   0  0  0  0  0  0  0  0  0  0  0  0
   64.9690   32.1843   51.6985 H   0  0  0  0  0  0  0  0  0  0  0  0
   65.9473   31.1909   50.5658 H   0  0  0  0  0  0  0  0  0  0  0  0
   66.1142   32.9794   50.5658 H   0  0  0  0  0  0  0  0  0  0  0  0
   64.7046   34.2324   48.7305 H   0  0  0  0  0  0  0  0  0  0  0  0
   60.7645   34.9716   45.0992 H   0  0  0  0  0  0  0  0  0  0  0  0
   60.5466   33.1722   45.0070 H   0  0  0  0  0  0  0  0  0  0  0  0
   58.6091   35.2816   46.0222 H   0  0  0  0  0  0  0  0  0  0  0  0
   58.3820   34.0047   44.7468 H   0  0  0  0  0  0  0  0  0  0  0  0
   57.1943   33.6424   46.9703 H   0  0  0  0  0  0  0  0  0  0  0  0
   59.1718   30.9864   47.8880 H   0  0  0  0  0  0  0  0  0  0  0  0
   58.9380   28.6543   47.0507 H   0  0  0  0  0  0  0  0  0  0  0  0
   57.7331   28.1981   44.9201 H   0  0  0  0  0  0  0  0  0  0  0  0
   56.9536   32.4303   44.4587 H   0  0  0  0  0  0  0  0  0  0  0  0
   58.2520   33.7794   48.8847 H   0  0  0  0  0  0  0  0  0  0  0  0
   59.2302   32.3138   48.4012 H   0  0  0  0  0  0  0  0  0  0  0  0
   59.9641   35.2501   48.1685 H   0  0  0  0  0  0  0  0  0  0  0  0
   60.8416   33.9087   48.9988 H   0  0  0  0  0  0  0  0  0  0  0  0
  1  2  1  0
  2  3  1  0
  3  4  1  0
  4  5  2  0
  5  6  1  0
  5  7  1  0
  7  8  2  0
  8  9  1  0
  9 10  2  0
  9 11  1  0
 11 12  1  0
 12 13  1  0
 13 14  1  0
 14 15  1  0
 15 16  2  0
 16 17  1  0
 17 18  2  0
 18 19  1  0
 19 20  1  0
 20 21  1  0
 20 22  1  0
 20 23  1  0
 19 24  2  0
 14 25  1  0
 25 26  1  0
  8  3  1  0
 26 11  1  0
 24 15  1  0
  1 27  1  0
  1 28  1  0
  1 29  1  0
  2 30  1  0
  2 31  1  0
  4 32  1  0
  6 33  1  0
  6 34  1  0
  6 35  1  0
  7 36  1  0
 12 37  1  0
 12 38  1  0
 13 39  1  0
 13 40  1  0
 14 41  1  0
 16 42  1  0
 17 43  1  0
 18 44  1  0
 24 45  1  0
 25 46  1  0
 25 47  1  0
 26 48  1  0
 26 49  1  0
M  CHG  1   4   1
M  END
>  <UniqueID>  (25) 
22

>  <SMILES>  (25) 
CCn1[nH+]c(C)cc1C(=O)N1CCC(c2cccc(C(F)(F)F)c2)CC1

>  <Energy>  (25) 
83.7922975615261

>  <Genealogy>  (25) 
CCn1[nH+]c(C)cc1C(=O)N1CCC(c2cccc(C(F)(F)F)c2)CC1 (protonated)
CCn1[nH+]c(C)cc1C(=O)N1CCC(c2cccc(C(F)(F)F)c2)CC1 (3D coordinates assigned)
CCn1[nH+]c(C)cc1C(=O)N1CCC(c2cccc(C(F)(F)F)c2)CC1 (nonaromatic ring conformer: 83.7922975615261 kcal/mol)

>  <smiles>  (25) 
CCn1nc(C)cc1C(=O)N1CCC(c2cccc(C(F)(F)F)c2)CC1

>  <score_type>  (25) 
oracle

>  <origin>  (25) 
adg

>  <m_score__min__energy>  (25) 
-6.7000000000000002

>  <m_primary>  (25) 
energy

$$$$
25:0
     RDKit          3D

 55 58  0  0  0  0  0  0  0  0999 V2000
   56.2290   29.6920   42.6890 C   0  0  0  0  0  0  0  0  0  0  0  0
   55.8990   30.0770   44.1380 C   0  0  0  0  0  0  0  0  0  0  0  0
   57.0190   30.7370   44.8460 N   0  0  0  0  0  0  0  0  0  0  0  0
   58.3290   30.1040   44.5620 C   0  0  0  0  0  0  0  0  0  0  0  0
   58.4670   28.8170   45.3320 C   0  0  0  0  0  0  0  0  0  0  0  0
   58.1690   28.7880   46.6560 C   0  0  0  0  0  0  0  0  0  0  0  0
   58.2400   27.4750   47.4080 C   0  0  2  0  0  0  0  0  0  0  0  0
   59.7060   27.1020   47.6410 C   0  0  0  0  0  0  0  0  0  0  0  0
   60.1050   26.3130   46.3820 C   0  0  0  0  0  0  0  0  0  0  0  0
   58.8340   26.2870   45.5240 C   0  0  2  0  0  0  0  0  0  0  0  0
   58.7820   27.5190   44.5770 C   0  0  0  0  0  0  0  0  0  0  0  0
   57.7710   26.4380   46.5030 N   0  0  0  0  0  0  0  0  0  0  0  0
   56.3950   26.1030   46.2610 C   0  0  0  0  0  0  0  0  0  0  0  0
   55.5940   26.9970   45.8810 O   0  0  0  0  0  0  0  0  0  0  0  0
   55.8970   24.6950   46.4150 C   0  0  0  0  0  0  0  0  0  0  0  0
   56.4460   23.8470   45.3600 N   0  0  0  0  0  0  0  0  0  0  0  0
   55.8350   23.5310   44.2020 C   0  0  0  0  0  0  0  0  0  0  0  0
   56.7030   22.7430   43.4790 C   0  0  0  0  0  0  0  0  0  0  0  0
   56.4920   22.2110   42.2500 F   0  0  0  0  0  0  0  0  0  0  0  0
   57.8340   22.6120   44.2570 C   0  0  0  0  0  0  0  0  0  0  0  0
   57.6520   23.2960   45.4040 N   0  0  0  0  0  0  0  0  0  0  0  0
   57.0250   32.2020   44.6320 C   0  0  0  0  0  0  0  0  0  0  0  0
   57.9270   32.8850   45.6230 C   0  0  0  0  0  0  0  0  0  0  0  0
   58.3330   34.2100   45.4010 C   0  0  0  0  0  0  0  0  0  0  0  0
   59.2200   34.8170   46.2930 C   0  0  0  0  0  0  0  0  0  0  0  0
   59.6910   34.1040   47.3950 C   0  0  0  0  0  0  0  0  0  0  0  0
   59.2570   32.7910   47.5960 C   0  0  0  0  0  0  0  0  0  0  0  0
   58.3930   32.2120   46.7160 N   0  0  0  0  0  0  0  0  0  0  0  0
   56.9449   28.8568   42.6855 H   0  0  0  0  0  0  0  0  0  0  0  0
   55.3074   29.3871   42.1716 H   0  0  0  0  0  0  0  0  0  0  0  0
   56.6712   30.5562   42.1716 H   0  0  0  0  0  0  0  0  0  0  0  0
   55.0405   30.7647   44.1281 H   0  0  0  0  0  0  0  0  0  0  0  0
   55.6815   29.1437   44.6780 H   0  0  0  0  0  0  0  0  0  0  0  0
   58.4035   29.8921   43.4852 H   0  0  0  0  0  0  0  0  0  0  0  0
   59.1316   30.7912   44.8679 H   0  0  0  0  0  0  0  0  0  0  0  0
   57.8781   29.7110   47.1789 H   0  0  0  0  0  0  0  0  0  0  0  0
   57.6698   27.5623   48.3446 H   0  0  0  0  0  0  0  0  0  0  0  0
   60.3252   28.0049   47.7470 H   0  0  0  0  0  0  0  0  0  0  0  0
   59.8490   26.5199   48.5634 H   0  0  0  0  0  0  0  0  0  0  0  0
   60.9232   26.8196   45.8491 H   0  0  0  0  0  0  0  0  0  0  0  0
   60.4687   25.3026   46.6202 H   0  0  0  0  0  0  0  0  0  0  0  0
   58.7708   25.3803   44.9044 H   0  0  0  0  0  0  0  0  0  0  0  0
   59.7578   27.6257   44.0806 H   0  0  0  0  0  0  0  0  0  0  0  0
   57.9776   27.3496   43.8461 H   0  0  0  0  0  0  0  0  0  0  0  0
   56.2095   24.3043   47.3946 H   0  0  0  0  0  0  0  0  0  0  0  0
   54.7994   24.6928   46.3423 H   0  0  0  0  0  0  0  0  0  0  0  0
   54.8276   23.8447   43.8908 H   0  0  0  0  0  0  0  0  0  0  0  0
   58.7358   22.0432   43.9862 H   0  0  0  0  0  0  0  0  0  0  0  0
   57.3814   32.4158   43.6135 H   0  0  0  0  0  0  0  0  0  0  0  0
   56.0016   32.5815   44.7683 H   0  0  0  0  0  0  0  0  0  0  0  0
   57.9553   34.7666   44.5306 H   0  0  0  0  0  0  0  0  0  0  0  0
   59.5460   35.8543   46.1267 H   0  0  0  0  0  0  0  0  0  0  0  0
   60.3966   34.5701   48.0985 H   0  0  0  0  0  0  0  0  0  0  0  0
   59.6142   32.2230   48.4677 H   0  0  0  0  0  0  0  0  0  0  0  0
   58.0890   31.2270   46.8930 H   0  0  0  0  0  0  0  0  0  0  0  0
  1  2  1  0
  2  3  1  0
  3  4  1  0
  4  5  1  0
  5  6  2  0
  6  7  1  0
  7  8  1  0
  8  9  1  0
  9 10  1  0
 10 11  1  0
 10 12  1  0
 12 13  1  0
 13 14  2  0
 13 15  1  0
 15 16  1  0
 16 17  1  0
 17 18  2  0
 18 19  1  0
 18 20  1  0
 20 21  2  0
  3 22  1  0
 22 23  1  0
 23 24  2  0
 24 25  1  0
 25 26  2  0
 26 27  1  0
 27 28  2  0
 11  5  1  0
 21 16  1  0
 28 23  1  0
 12  7  1  0
  1 29  1  0
  1 30  1  0
  1 31  1  0
  2 32  1  0
  2 33  1  0
  4 34  1  0
  4 35  1  0
  6 36  1  0
  7 37  1  1
  8 38  1  0
  8 39  1  0
  9 40  1  0
  9 41  1  0
 10 42  1  6
 11 43  1  0
 11 44  1  0
 15 45  1  0
 15 46  1  0
 17 47  1  0
 20 48  1  0
 22 49  1  0
 22 50  1  0
 24 51  1  0
 25 52  1  0
 26 53  1  0
 27 54  1  0
 28 55  1  0
M  CHG  1  28   1
M  END
>  <UniqueID>  (26) 
23

>  <SMILES>  (26) 
CCN(CC1=C[C@@H]2CC[C@H](C1)N2C(=O)Cn1cc(F)cn1)Cc1cccc[nH+]1

>  <Energy>  (26) 
100.59036178013733

>  <Genealogy>  (26) 
CCN(CC1=CC2CCC(C1)N2C(=O)Cn1cc(F)cn1)Cc1cccc[nH+]1 (protonated)
CCN(CC1=C[C@@H]2CC[C@H](C1)N2C(=O)Cn1cc(F)cn1)Cc1cccc[nH+]1 (chirality)
CCN(CC1=C[C@@H]2CC[C@H](C1)N2C(=O)Cn1cc(F)cn1)Cc1cccc[nH+]1 (3D coordinates assigned)
CCN(CC1=C[C@@H]2CC[C@H](C1)N2C(=O)Cn1cc(F)cn1)Cc1cccc[nH+]1 (nonaromatic ring conformer: 100.59036178013733 kcal/mol)

>  <smiles>  (26) 
CCN(CC1=CC2CCC(C1)N2C(=O)Cn1cc(F)cn1)Cc1ccccn1

>  <score_type>  (26) 
oracle

>  <origin>  (26) 
adg

>  <m_score__min__energy>  (26) 
-7.04

>  <m_primary>  (26) 
energy

$$$$
26:0
     RDKit          3D

 59 61  0  0  0  0  0  0  0  0999 V2000
   62.4200   30.1270   50.9430 C   0  0  0  0  0  0  0  0  0  0  0  0
   61.1130   29.3910   50.6700 C   0  0  0  0  0  0  0  0  0  0  0  0
   61.2470   28.5150   49.5520 O   0  0  0  0  0  0  0  0  0  0  0  0
   60.2220   28.1690   48.6570 C   0  0  0  0  0  0  0  0  0  0  0  0
   59.2260   29.1170   48.3970 C   0  0  0  0  0  0  0  0  0  0  0  0
   58.1820   28.8300   47.5140 C   0  0  0  0  0  0  0  0  0  0  0  0
   58.1230   27.5830   46.8780 C   0  0  0  0  0  0  0  0  0  0  0  0
   56.8250   27.2080   45.7460 S   0  0  0  0  0  0  0  0  0  0  0  0
   55.8380   26.2680   46.3780 O   0  0  0  0  0  0  0  0  0  0  0  0
   57.4190   26.5340   44.5420 O   0  0  0  0  0  0  0  0  0  0  0  0
   56.0090   28.6590   45.2400 N   0  0  0  0  0  0  0  0  0  0  0  0
   56.7560   29.3580   44.1910 C   0  0  0  0  0  0  0  0  0  0  0  0
   57.3680   30.6300   44.7160 C   0  0  0  0  0  0  0  0  0  0  0  0
   56.6330   31.8240   44.7200 C   0  0  0  0  0  0  0  0  0  0  0  0
   57.2130   33.0060   45.1880 C   0  0  0  0  0  0  0  0  0  0  0  0
   58.5340   33.0150   45.6700 C   0  0  0  0  0  0  0  0  0  0  0  0
   59.1420   34.2850   46.1480 C   0  0  0  0  0  0  0  0  0  0  0  0
   59.3160   35.2210   45.3190 O   0  0  0  0  0  0  0  0  0  0  0  0
   59.5940   34.4340   47.5210 N   0  0  1  0  0  0  0  0  0  0  0  0
   58.9500   33.4360   48.4010 C   0  0  0  0  0  0  0  0  0  0  0  0
   59.9930   32.4010   48.8160 C   0  0  0  0  0  0  0  0  0  0  0  0
   61.2570   32.7740   48.0430 C   0  0  2  0  0  0  0  0  0  0  0  0
   62.5460   32.4890   48.7340 N   0  0  0  0  0  0  0  0  0  0  0  0
   63.6400   31.9960   47.8730 C   0  0  0  0  0  0  0  0  0  0  0  0
   62.9890   33.6450   49.5310 C   0  0  0  0  0  0  0  0  0  0  0  0
   61.0490   34.2380   47.6550 C   0  0  0  0  0  0  0  0  0  0  0  0
   59.2670   31.8130   45.6630 C   0  0  0  0  0  0  0  0  0  0  0  0
   58.6870   30.6320   45.1920 C   0  0  0  0  0  0  0  0  0  0  0  0
   59.1180   26.6310   47.1270 C   0  0  0  0  0  0  0  0  0  0  0  0
   60.1630   26.9190   48.0090 C   0  0  0  0  0  0  0  0  0  0  0  0
   62.5725   30.2129   52.0290 H   0  0  0  0  0  0  0  0  0  0  0  0
   63.2559   29.5670   50.4985 H   0  0  0  0  0  0  0  0  0  0  0  0
   62.3745   31.1322   50.4985 H   0  0  0  0  0  0  0  0  0  0  0  0
   60.8386   28.8026   51.5579 H   0  0  0  0  0  0  0  0  0  0  0  0
   60.3322   30.1323   50.4445 H   0  0  0  0  0  0  0  0  0  0  0  0
   59.2655   30.0981   48.8929 H   0  0  0  0  0  0  0  0  0  0  0  0
   57.4054   29.5840   47.3179 H   0  0  0  0  0  0  0  0  0  0  0  0
   57.5564   28.7003   43.8212 H   0  0  0  0  0  0  0  0  0  0  0  0
   56.0599   29.6148   43.3789 H   0  0  0  0  0  0  0  0  0  0  0  0
   55.5959   31.8303   44.3534 H   0  0  0  0  0  0  0  0  0  0  0  0
   56.6303   33.9389   45.1793 H   0  0  0  0  0  0  0  0  0  0  0  0
   59.3680   35.4020   47.8520 H   0  0  0  0  0  0  0  0  0  0  0  0
   58.5486   33.9356   49.2951 H   0  0  0  0  0  0  0  0  0  0  0  0
   58.1255   32.9423   47.8659 H   0  0  0  0  0  0  0  0  0  0  0  0
   60.1750   32.4499   49.8997 H   0  0  0  0  0  0  0  0  0  0  0  0
   59.6641   31.3747   48.5957 H   0  0  0  0  0  0  0  0  0  0  0  0
   61.3783   32.1297   47.1597 H   0  0  0  0  0  0  0  0  0  0  0  0
   64.4628   31.6252   48.5019 H   0  0  0  0  0  0  0  0  0  0  0  0
   63.2670   31.1790   47.2379 H   0  0  0  0  0  0  0  0  0  0  0  0
   64.0050   32.8166   47.2379 H   0  0  0  0  0  0  0  0  0  0  0  0
   62.8984   33.4087   50.6015 H   0  0  0  0  0  0  0  0  0  0  0  0
   64.0384   33.8736   49.2935 H   0  0  0  0  0  0  0  0  0  0  0  0
   62.3611   34.5164   49.2935 H   0  0  0  0  0  0  0  0  0  0  0  0
   61.4509   34.8990   48.4371 H   0  0  0  0  0  0  0  0  0  0  0  0
   61.5704   34.4783   46.7167 H   0  0  0  0  0  0  0  0  0  0  0  0
   60.3036   31.8034   46.0309 H   0  0  0  0  0  0  0  0  0  0  0  0
   59.2687   29.6984   45.1947 H   0  0  0  0  0  0  0  0  0  0  0  0
   59.0774   25.6523   46.6266 H   0  0  0  0  0  0  0  0  0  0  0  0
   60.9429   26.1667   48.1983 H   0  0  0  0  0  0  0  0  0  0  0  0
  1  2  1  0
  2  3  1  0
  3  4  1  0
  4  5  2  0
  5  6  1  0
  6  7  2  0
  7  8  1  0
  8  9  2  0
  8 10  2  0
  8 11  1  0
 11 12  1  0
 12 13  1  0
 13 14  2  0
 14 15  1  0
 15 16  2  0
 16 17  1  0
 17 18  2  0
 17 19  1  0
 19 20  1  0
 20 21  1  0
 21 22  1  0
 22 23  1  0
 23 24  1  0
 23 25  1  0
 22 26  1  0
 16 27  1  0
 27 28  2  0
  7 29  1  0
 29 30  2  0
 30  4  1  0
 28 13  1  0
 26 19  1  0
  1 31  1  0
  1 32  1  0
  1 33  1  0
  2 34  1  0
  2 35  1  0
  5 36  1  0
  6 37  1  0
 12 38  1  0
 12 39  1  0
 14 40  1  0
 15 41  1  0
 19 42  1  1
 20 43  1  0
 20 44  1  0
 21 45  1  0
 21 46  1  0
 22 47  1  6
 24 48  1  0
 24 49  1  0
 24 50  1  0
 25 51  1  0
 25 52  1  0
 25 53  1  0
 26 54  1  0
 26 55  1  0
 27 56  1  0
 28 57  1  0
 29 58  1  0
 30 59  1  0
M  CHG  2  11  -1  19   1
M  END
>  <UniqueID>  (27) 
24

>  <SMILES>  (27) 
CCOc1ccc(S(=O)(=O)[N-]Cc2ccc(C(=O)[N@H+]3CC[C@H](N(C)C)C3)cc2)cc1

>  <Energy>  (27) 
73.27993111774865

>  <Genealogy>  (27) 
CCOc1ccc(S(=O)(=O)[N-]Cc2ccc(C(=O)[NH+]3CCC(N(C)C)C3)cc2)cc1 (protonated)
CCOc1ccc(S(=O)(=O)[N-]Cc2ccc(C(=O)[N@H+]3CC[C@H](N(C)C)C3)cc2)cc1 (chirality)
CCOc1ccc(S(=O)(=O)[N-]Cc2ccc(C(=O)[N@H+]3CC[C@H](N(C)C)C3)cc2)cc1 (3D coordinates assigned)
CCOc1ccc(S(=O)(=O)[N-]Cc2ccc(C(=O)[N@H+]3CC[C@H](N(C)C)C3)cc2)cc1 (nonaromatic ring conformer: 73.27993111774865 kcal/mol)

>  <smiles>  (27) 
CCOc1ccc(S(=O)(=O)NCc2ccc(C(=O)N3CCC(N(C)C)C3)cc2)cc1

>  <score_type>  (27) 
oracle

>  <origin>  (27) 
adg

>  <m_score__min__energy>  (27) 
-8.4000000000000004

>  <m_primary>  (27) 
energy

$$$$
27:0
     RDKit          3D

 69 72  0  0  0  0  0  0  0  0999 V2000
   57.6030   23.4470   44.0370 C   0  0  0  0  0  0  0  0  0  0  0  0
   57.5980   24.5070   45.1000 C   0  0  0  0  0  0  0  0  0  0  0  0
   57.7810   24.1590   46.4490 C   0  0  0  0  0  0  0  0  0  0  0  0
   57.7290   25.1420   47.4430 C   0  0  0  0  0  0  0  0  0  0  0  0
   57.4840   26.4730   47.0980 C   0  0  0  0  0  0  0  0  0  0  0  0
   57.2950   26.8300   45.7580 C   0  0  0  0  0  0  0  0  0  0  0  0
   57.0680   28.1620   45.4130 O   0  0  0  0  0  0  0  0  0  0  0  0
   57.3800   28.6720   44.1200 C   0  0  0  0  0  0  0  0  0  0  0  0
   56.5220   29.9150   43.8190 C   0  0  1  0  0  0  0  0  0  0  0  0
   55.4250   29.9860   44.6980 O   0  0  0  0  0  0  0  0  0  0  0  0
   57.3410   31.2150   43.8900 C   0  0  0  0  0  0  0  0  0  0  0  0
   57.1200   31.8840   45.1960 N   0  0  0  0  0  0  0  0  0  0  0  0
   57.0220   33.3530   45.0870 C   0  0  0  0  0  0  0  0  0  0  0  0
   58.4010   34.0160   44.8880 C   0  0  0  0  0  0  0  0  0  0  0  0
   59.3890   33.6050   45.9090 N   0  0  0  0  0  0  0  0  0  0  0  0
   59.1900   34.2510   47.2290 C   0  0  0  0  0  0  0  0  0  0  0  0
   60.3950   33.9960   48.1430 C   0  0  0  0  0  0  0  0  0  0  0  0
   60.4040   32.6070   48.6210 N   0  0  0  0  0  0  0  0  0  0  0  0
   59.2370   32.0540   49.2610 C   0  0  0  0  0  0  0  0  0  0  0  0
   58.1500   32.6930   49.2670 O   0  0  0  0  0  0  0  0  0  0  0  0
   59.3030   30.7240   49.9570 C   0  0  0  0  0  0  0  0  0  0  0  0
   60.2800   29.7520   49.2480 C   0  0  0  0  0  0  0  0  0  0  0  0
   59.7340   29.2730   47.8900 C   0  0  0  0  0  0  0  0  0  0  0  0
   60.3270   27.8880   47.6600 C   0  0  0  0  0  0  0  0  0  0  0  0
   60.7570   27.3590   49.0280 C   0  0  0  0  0  0  0  0  0  0  0  0
   60.4250   28.4470   50.0450 C   0  0  0  0  0  0  0  0  0  0  0  0
   61.6660   30.4350   49.0870 C   0  0  0  0  0  0  0  0  0  0  0  0
   61.5530   31.7660   48.3980 C   0  0  0  0  0  0  0  0  0  0  0  0
   62.4930   32.1540   47.6500 O   0  0  0  0  0  0  0  0  0  0  0  0
   59.4750   32.1330   46.0000 C   0  0  0  0  0  0  0  0  0  0  0  0
   58.0960   31.4870   46.2320 C   0  0  0  0  0  0  0  0  0  0  0  0
   57.3550   25.8490   44.7600 C   0  0  0  0  0  0  0  0  0  0  0  0
   57.6077   22.4537   44.5097 H   0  0  0  0  0  0  0  0  0  0  0  0
   56.7044   23.5510   43.4112 H   0  0  0  0  0  0  0  0  0  0  0  0
   58.5006   23.5595   43.4112 H   0  0  0  0  0  0  0  0  0  0  0  0
   57.9658   23.1102   46.7244 H   0  0  0  0  0  0  0  0  0  0  0  0
   57.8812   24.8665   48.4970 H   0  0  0  0  0  0  0  0  0  0  0  0
   57.4394   27.2432   47.8820 H   0  0  0  0  0  0  0  0  0  0  0  0
   58.4443   28.9476   44.0849 H   0  0  0  0  0  0  0  0  0  0  0  0
   57.1683   27.8981   43.3675 H   0  0  0  0  0  0  0  0  0  0  0  0
   56.1528   29.8096   42.7882 H   0  0  0  0  0  0  0  0  0  0  0  0
   55.7840   30.0910   45.6180 H   0  0  0  0  0  0  0  0  0  0  0  0
   58.4095   30.9788   43.7780 H   0  0  0  0  0  0  0  0  0  0  0  0
   57.0206   31.8880   43.0810 H   0  0  0  0  0  0  0  0  0  0  0  0
   56.3817   33.6026   44.2281 H   0  0  0  0  0  0  0  0  0  0  0  0
   56.5968   33.7338   46.0273 H   0  0  0  0  0  0  0  0  0  0  0  0
   58.7848   33.7370   43.8956 H   0  0  0  0  0  0  0  0  0  0  0  0
   58.2616   35.1031   44.9817 H   0  0  0  0  0  0  0  0  0  0  0  0
   59.0678   35.3348   47.0861 H   0  0  0  0  0  0  0  0  0  0  0  0
   58.2918   33.8251   47.7000 H   0  0  0  0  0  0  0  0  0  0  0  0
   61.3207   34.1899   47.5814 H   0  0  0  0  0  0  0  0  0  0  0  0
   60.3260   34.6669   49.0120 H   0  0  0  0  0  0  0  0  0  0  0  0
   59.6435   30.8798   50.9913 H   0  0  0  0  0  0  0  0  0  0  0  0
   58.2986   30.2761   49.9350 H   0  0  0  0  0  0  0  0  0  0  0  0
   58.6357   29.2181   47.9182 H   0  0  0  0  0  0  0  0  0  0  0  0
   60.0067   29.9661   47.0805 H   0  0  0  0  0  0  0  0  0  0  0  0
   59.5723   27.2218   47.2165 H   0  0  0  0  0  0  0  0  0  0  0  0
   61.1811   27.9342   46.9684 H   0  0  0  0  0  0  0  0  0  0  0  0
   60.2076   26.4365   49.2672 H   0  0  0  0  0  0  0  0  0  0  0  0
   61.8310   27.1217   49.0399 H   0  0  0  0  0  0  0  0  0  0  0  0
   59.4837   28.2102   50.5626 H   0  0  0  0  0  0  0  0  0  0  0  0
   61.2099   28.5313   50.8110 H   0  0  0  0  0  0  0  0  0  0  0  0
   62.1071   30.5856   50.0834 H   0  0  0  0  0  0  0  0  0  0  0  0
   62.3005   29.7820   48.4697 H   0  0  0  0  0  0  0  0  0  0  0  0
   59.8962   31.7433   45.0615 H   0  0  0  0  0  0  0  0  0  0  0  0
   60.1158   31.8828   46.8583 H   0  0  0  0  0  0  0  0  0  0  0  0
   58.2083   30.3929   46.2141 H   0  0  0  0  0  0  0  0  0  0  0  0
   57.7180   31.8310   47.2060 H   0  0  0  0  0  0  0  0  0  0  0  0
   57.2114   26.1299   43.7062 H   0  0  0  0  0  0  0  0  0  0  0  0
  1  2  1  0
  2  3  2  0
  3  4  1  0
  4  5  2  0
  5  6  1  0
  6  7  1  0
  7  8  1  0
  8  9  1  0
  9 10  1  0
  9 11  1  0
 11 12  1  0
 12 13  1  0
 13 14  1  0
 14 15  1  0
 15 16  1  0
 16 17  1  0
 17 18  1  0
 18 19  1  0
 19 20  2  0
 19 21  1  0
 21 22  1  0
 22 23  1  0
 23 24  1  0
 24 25  1  0
 25 26  1  0
 22 27  1  0
 27 28  1  0
 28 29  2  0
 15 30  1  0
 30 31  1  0
  6 32  2  0
 32  2  1  0
 31 12  1  0
 28 18  1  0
 26 22  1  0
  1 33  1  0
  1 34  1  0
  1 35  1  0
  3 36  1  0
  4 37  1  0
  5 38  1  0
  8 39  1  0
  8 40  1  0
  9 41  1  6
 10 42  1  0
 11 43  1  0
 11 44  1  0
 13 45  1  0
 13 46  1  0
 14 47  1  0
 14 48  1  0
 16 49  1  0
 16 50  1  0
 17 51  1  0
 17 52  1  0
 21 53  1  0
 21 54  1  0
 23 55  1  0
 23 56  1  0
 24 57  1  0
 24 58  1  0
 25 59  1  0
 25 60  1  0
 26 61  1  0
 26 62  1  0
 27 63  1  0
 27 64  1  0
 30 65  1  0
 30 66  1  0
 31 67  1  0
 31 68  1  0
 32 69  1  0
M  END
>  <UniqueID>  (28) 
25

>  <SMILES>  (28) 
Cc1cccc(OC[C@@H](O)CN2CCN(CCN3C(=O)CC4(CCCC4)CC3=O)CC2)c1

>  <Energy>  (28) 
84.30778186825306

>  <Genealogy>  (28) 
Cc1cccc(OC[C@@H](O)CN2CCN(CCN3C(=O)CC4(CCCC4)CC3=O)CC2)c1 (chirality)
Cc1cccc(OC[C@@H](O)CN2CCN(CCN3C(=O)CC4(CCCC4)CC3=O)CC2)c1 (3D coordinates assigned)
Cc1cccc(OC[C@@H](O)CN2CCN(CCN3C(=O)CC4(CCCC4)CC3=O)CC2)c1 (nonaromatic ring conformer: 84.30778186825306 kcal/mol)

>  <smiles>  (28) 
Cc1cccc(OCC(O)CN2CCN(CCN3C(=O)CC4(CCCC4)CC3=O)CC2)c1

>  <score_type>  (28) 
oracle

>  <origin>  (28) 
adg

>  <m_score__min__energy>  (28) 
-9.7200000000000006

>  <m_primary>  (28) 
energy

$$$$
28:0
     RDKit          3D

 45 48  0  0  0  0  0  0  0  0999 V2000
   57.3580   31.1490   43.3720 C   0  0  0  0  0  0  0  0  0  0  0  0
   56.6400   29.9790   44.0430 C   0  0  0  0  0  0  0  0  0  0  0  0
   57.3950   28.6560   43.8880 C   0  0  0  0  0  0  0  0  0  0  0  0
   57.0080   27.5010   45.2580 S   0  0  0  0  0  0  0  0  0  0  0  0
   58.3150   28.0850   46.3360 C   0  0  0  0  0  0  0  0  0  0  0  0
   58.9640   27.1880   47.2200 C   0  0  0  0  0  0  0  0  0  0  0  0
   59.9730   27.6590   48.0790 C   0  0  0  0  0  0  0  0  0  0  0  0
   60.2860   29.0130   48.0070 C   0  0  0  0  0  0  0  0  0  0  0  0
   61.1520   29.7230   48.7450 N   0  0  0  0  0  0  0  0  0  0  0  0
   61.0140   30.9990   48.2920 C   0  0  0  0  0  0  0  0  0  0  0  0
   61.8310   32.1200   48.8090 C   0  0  0  0  0  0  0  0  0  0  0  0
   61.2700   33.0810   49.6690 C   0  0  0  0  0  0  0  0  0  0  0  0
   62.0490   34.1410   50.1460 C   0  0  0  0  0  0  0  0  0  0  0  0
   63.3880   34.2540   49.7610 C   0  0  0  0  0  0  0  0  0  0  0  0
   63.9480   33.3120   48.8950 C   0  0  0  0  0  0  0  0  0  0  0  0
   63.1730   32.2520   48.4160 C   0  0  0  0  0  0  0  0  0  0  0  0
   60.0830   31.1010   47.2970 N   0  0  0  0  0  0  0  0  0  0  0  0
   59.5330   32.2770   46.6760 C   0  0  0  0  0  0  0  0  0  0  0  0
   60.3730   33.3260   46.2650 C   0  0  0  0  0  0  0  0  0  0  0  0
   59.8320   34.4760   45.6810 C   0  0  0  0  0  0  0  0  0  0  0  0
   58.4500   34.5900   45.5130 C   0  0  0  0  0  0  0  0  0  0  0  0
   57.6060   33.5570   45.9280 C   0  0  0  0  0  0  0  0  0  0  0  0
   58.1440   32.4050   46.5100 C   0  0  0  0  0  0  0  0  0  0  0  0
   59.6510   29.8390   47.1360 C   0  0  0  0  0  0  0  0  0  0  0  0
   58.6670   29.4050   46.3100 N   0  0  0  0  0  0  0  0  0  0  0  0
   57.7685   31.8179   44.1427 H   0  0  0  0  0  0  0  0  0  0  0  0
   58.1767   30.7659   42.7451 H   0  0  0  0  0  0  0  0  0  0  0  0
   56.6457   31.7055   42.7451 H   0  0  0  0  0  0  0  0  0  0  0  0
   56.5331   30.1998   45.1153 H   0  0  0  0  0  0  0  0  0  0  0  0
   55.6623   29.8634   43.5524 H   0  0  0  0  0  0  0  0  0  0  0  0
   57.1074   28.1893   42.9343 H   0  0  0  0  0  0  0  0  0  0  0  0
   58.4741   28.8686   43.9086 H   0  0  0  0  0  0  0  0  0  0  0  0
   58.6793   26.1256   47.2344 H   0  0  0  0  0  0  0  0  0  0  0  0
   60.4922   26.9863   48.7775 H   0  0  0  0  0  0  0  0  0  0  0  0
   61.7910   29.3690   49.4920 H   0  0  0  0  0  0  0  0  0  0  0  0
   60.2146   32.9990   49.9679 H   0  0  0  0  0  0  0  0  0  0  0  0
   61.6074   34.8858   50.8244 H   0  0  0  0  0  0  0  0  0  0  0  0
   64.0009   35.0850   50.1402 H   0  0  0  0  0  0  0  0  0  0  0  0
   65.0007   33.4045   48.5895 H   0  0  0  0  0  0  0  0  0  0  0  0
   63.6164   31.5174   47.7277 H   0  0  0  0  0  0  0  0  0  0  0  0
   61.4611   33.2423   46.4032 H   0  0  0  0  0  0  0  0  0  0  0  0
   60.4948   35.2907   45.3540 H   0  0  0  0  0  0  0  0  0  0  0  0
   58.0255   35.4946   45.0532 H   0  0  0  0  0  0  0  0  0  0  0  0
   56.5178   33.6499   45.7969 H   0  0  0  0  0  0  0  0  0  0  0  0
   57.4764   31.5952   46.8394 H   0  0  0  0  0  0  0  0  0  0  0  0
  1  2  1  0
  2  3  1  0
  3  4  1  0
  4  5  1  0
  5  6  2  0
  6  7  1  0
  7  8  2  0
  8  9  1  0
  9 10  2  0
 10 11  1  0
 11 12  2  0
 12 13  1  0
 13 14  2  0
 14 15  1  0
 15 16  2  0
 10 17  1  0
 17 18  1  0
 18 19  2  0
 19 20  1  0
 20 21  2  0
 21 22  1  0
 22 23  2  0
 17 24  1  0
 24 25  2  0
 25  5  1  0
 24  8  1  0
 16 11  1  0
 23 18  1  0
  1 26  1  0
  1 27  1  0
  1 28  1  0
  2 29  1  0
  2 30  1  0
  3 31  1  0
  3 32  1  0
  6 33  1  0
  7 34  1  0
  9 35  1  0
 12 36  1  0
 13 37  1  0
 14 38  1  0
 15 39  1  0
 16 40  1  0
 19 41  1  0
 20 42  1  0
 21 43  1  0
 22 44  1  0
 23 45  1  0
M  CHG  1   9   1
M  END
>  <UniqueID>  (29) 
26

>  <SMILES>  (29) 
CCCSc1ccc2[nH+]c(-c3ccccc3)n(-c3ccccc3)c2n1

>  <Energy>  (29) 
91.65758629526356

>  <Genealogy>  (29) 
CCCSc1ccc2[nH+]c(-c3ccccc3)n(-c3ccccc3)c2n1 (protonated)
CCCSc1ccc2[nH+]c(-c3ccccc3)n(-c3ccccc3)c2n1 (3D coordinates assigned)
CCCSc1ccc2[nH+]c(-c3ccccc3)n(-c3ccccc3)c2n1 (optimized conformer: 91.65758629526356 kcal/mol)

>  <smiles>  (29) 
CCCSc1ccc2nc(-c3ccccc3)n(-c3ccccc3)c2n1

>  <score_type>  (29) 
oracle

>  <origin>  (29) 
adg

>  <m_score__min__energy>  (29) 
-6.4100000000000001

>  <m_primary>  (29) 
energy

$$$$
29:0
     RDKit          3D

 38 39  0  0  0  0  0  0  0  0999 V2000
   60.0780   32.9990   51.0340 C   0  0  0  0  0  0  0  0  0  0  0  0
   59.9990   34.1210   49.5990 S   0  0  0  0  0  0  0  0  0  0  0  0
   61.2740   33.2550   48.6690 C   0  0  0  0  0  0  0  0  0  0  0  0
   62.5890   33.7400   48.7250 C   0  0  0  0  0  0  0  0  0  0  0  0
   63.6110   33.0920   48.0300 C   0  0  0  0  0  0  0  0  0  0  0  0
   63.3340   31.9390   47.2970 C   0  0  0  0  0  0  0  0  0  0  0  0
   62.0340   31.4280   47.2600 C   0  0  0  0  0  0  0  0  0  0  0  0
   60.9900   32.0820   47.9320 C   0  0  0  0  0  0  0  0  0  0  0  0
   59.3540   31.3150   47.9670 S   0  0  0  0  0  0  0  0  0  0  0  0
   58.6750   32.2970   46.6150 C   0  0  0  0  0  0  0  0  0  0  0  0
   58.8440   33.6870   46.6570 C   0  0  0  0  0  0  0  0  0  0  0  0
   58.3640   34.4930   45.6250 C   0  0  0  0  0  0  0  0  0  0  0  0
   57.6800   33.9210   44.5530 C   0  0  0  0  0  0  0  0  0  0  0  0
   57.4510   32.5440   44.5260 C   0  0  0  0  0  0  0  0  0  0  0  0
   57.9320   31.7130   45.5570 C   0  0  0  0  0  0  0  0  0  0  0  0
   57.5520   30.3190   45.5700 N   0  0  0  0  0  0  0  0  0  0  0  0
   57.5500   29.7850   44.2000 C   0  0  0  0  0  0  0  0  0  0  0  0
   56.1300   29.4130   43.7610 C   0  0  0  0  0  0  0  0  0  0  0  0
   55.1880   29.6540   44.8490 N   0  0  0  0  0  0  0  0  0  0  0  0
   60.0366   33.5876   51.9624 H   0  0  0  0  0  0  0  0  0  0  0  0
   59.2266   32.3032   51.0027 H   0  0  0  0  0  0  0  0  0  0  0  0
   61.0185   32.4293   51.0027 H   0  0  0  0  0  0  0  0  0  0  0  0
   62.8160   34.6366   49.3204 H   0  0  0  0  0  0  0  0  0  0  0  0
   64.6356   33.4912   48.0606 H   0  0  0  0  0  0  0  0  0  0  0  0
   64.1398   31.4309   46.7471 H   0  0  0  0  0  0  0  0  0  0  0  0
   61.8271   30.5047   46.6990 H   0  0  0  0  0  0  0  0  0  0  0  0
   59.3603   34.1473   47.5123 H   0  0  0  0  0  0  0  0  0  0  0  0
   58.5251   35.5807   45.6568 H   0  0  0  0  0  0  0  0  0  0  0  0
   57.3208   34.5546   43.7286 H   0  0  0  0  0  0  0  0  0  0  0  0
   56.8885   32.1028   43.6900 H   0  0  0  0  0  0  0  0  0  0  0  0
   56.6060   30.1940   45.9910 H   0  0  0  0  0  0  0  0  0  0  0  0
   58.2280   29.7760   46.1570 H   0  0  0  0  0  0  0  0  0  0  0  0
   57.9506   30.5473   43.5156 H   0  0  0  0  0  0  0  0  0  0  0  0
   58.1746   28.8799   44.1744 H   0  0  0  0  0  0  0  0  0  0  0  0
   55.8461   30.0248   42.8921 H   0  0  0  0  0  0  0  0  0  0  0  0
   56.1044   28.3464   43.4931 H   0  0  0  0  0  0  0  0  0  0  0  0
   54.7760   30.6070   44.7200 H   0  0  0  0  0  0  0  0  0  0  0  0
   54.4000   28.9750   44.7450 H   0  0  0  0  0  0  0  0  0  0  0  0
  1  2  1  0
  2  3  1  0
  3  4  2  0
  4  5  1  0
  5  6  2  0
  6  7  1  0
  7  8  2  0
  8  9  1  0
  9 10  1  0
 10 11  2  0
 11 12  1  0
 12 13  2  0
 13 14  1  0
 14 15  2  0
 15 16  1  0
 16 17  1  0
 17 18  1  0
 18 19  1  0
  8  3  1  0
 15 10  1  0
  1 20  1  0
  1 21  1  0
  1 22  1  0
  4 23  1  0
  5 24  1  0
  6 25  1  0
  7 26  1  0
 11 27  1  0
 12 28  1  0
 13 29  1  0
 14 30  1  0
 16 31  1  0
 16 32  1  0
 17 33  1  0
 17 34  1  0
 18 35  1  0
 18 36  1  0
 19 37  1  0
 19 38  1  0
M  CHG  1  16   1
M  END
>  <UniqueID>  (30) 
27

>  <SMILES>  (30) 
CSc1ccccc1Sc1ccccc1[NH2+]CCN

>  <Energy>  (30) 
31.402009456648592

>  <Genealogy>  (30) 
CSc1ccccc1Sc1ccccc1[NH2+]CCN (protonated)
CSc1ccccc1Sc1ccccc1[NH2+]CCN (3D coordinates assigned)
CSc1ccccc1Sc1ccccc1[NH2+]CCN (optimized conformer: 31.402009456648592 kcal/mol)

>  <smiles>  (30) 
CSc1ccccc1Sc1ccccc1NCCN

>  <score_type>  (30) 
oracle

>  <origin>  (30) 
adg

>  <m_score__min__energy>  (30) 
-5.96

>  <m_primary>  (30) 
energy

$$$$
30:0
     RDKit          3D

 51 53  0  0  1  0  0  0  0  0999 V2000
   60.3310   29.8380   46.4530 C   0  0  0  0  0  0  0  0  0  0  0  0
   60.3340   28.4800   46.9150 N   0  0  0  0  0  0  0  0  0  0  0  0
   59.2520   28.1680   47.8230 C   0  0  0  0  0  0  0  0  0  0  0  0
   60.4080   27.5220   45.8230 C   0  0  0  0  0  0  0  0  0  0  0  0
   60.3250   26.1370   46.4090 C   0  0  0  0  0  0  0  0  0  0  0  0
   59.0750   25.5780   46.5210 O   0  0  0  0  0  0  0  0  0  0  0  0
   58.4820   24.7200   45.6660 C   0  0  0  0  0  0  0  0  0  0  0  0
   58.5220   23.3500   45.6710 C   0  0  0  0  0  0  0  0  0  0  0  0
   57.8550   22.5770   44.7110 C   0  0  0  0  0  0  0  0  0  0  0  0
   57.1230   23.1800   43.7130 C   0  0  0  0  0  0  0  0  0  0  0  0
   57.0710   24.5560   43.6920 C   0  0  0  0  0  0  0  0  0  0  0  0
   57.7200   25.2850   44.6250 C   0  0  0  0  0  0  0  0  0  0  0  0
   57.6260   26.7460   44.5480 C   0  0  0  0  0  0  0  0  0  0  0  0
   58.1590   27.5660   43.7190 N   0  0  0  0  0  0  0  0  0  0  0  0
   58.0130   28.8300   43.7390 N   0  0  0  0  0  0  0  0  0  0  0  0
   57.2270   29.3260   44.7230 C   0  0  0  0  0  0  0  0  0  0  0  0
   56.8530   30.5090   45.0590 N   0  0  0  0  0  0  0  0  0  0  0  0
   57.4790   31.6430   44.4380 C   0  0  0  0  0  0  0  0  0  0  0  0
   57.6280   31.5750   43.1870 O   0  0  0  0  0  0  0  0  0  0  0  0
   57.8980   32.7640   45.2100 N   0  0  0  0  0  0  0  0  0  0  0  0
   57.6820   32.7440   46.6330 C   0  0  0  0  0  0  0  0  0  0  0  0
   58.5030   33.7420   47.3920 C   0  0  0  0  0  0  0  0  0  0  0  0
   59.7750   34.0710   46.6600 C   0  0  0  0  0  0  0  0  0  0  0  0
   59.3890   34.7200   45.3520 C   0  0  0  0  0  0  0  0  0  0  0  0
   58.5190   33.8610   44.4970 C   0  0  0  0  0  0  0  0  0  0  0  0
   56.7040   27.7880   45.6380 S   0  0  0  0  0  0  0  0  0  0  0  0
   60.3295   30.5191   47.3167 H   0  0  0  0  0  0  0  0  0  0  0  0
   61.2287   30.0201   45.8440 H   0  0  0  0  0  0  0  0  0  0  0  0
   59.4325   30.0161   45.8440 H   0  0  0  0  0  0  0  0  0  0  0  0
   59.6032   28.2693   48.8605 H   0  0  0  0  0  0  0  0  0  0  0  0
   58.4161   28.8617   47.6495 H   0  0  0  0  0  0  0  0  0  0  0  0
   58.9138   27.1357   47.6495 H   0  0  0  0  0  0  0  0  0  0  0  0
   59.5709   27.6835   45.1280 H   0  0  0  0  0  0  0  0  0  0  0  0
   61.3511   27.6461   45.2705 H   0  0  0  0  0  0  0  0  0  0  0  0
   60.9295   25.4721   45.7746 H   0  0  0  0  0  0  0  0  0  0  0  0
   60.6821   26.2444   47.4439 H   0  0  0  0  0  0  0  0  0  0  0  0
   59.0981   22.8390   46.4565 H   0  0  0  0  0  0  0  0  0  0  0  0
   57.9168   21.4796   44.7552 H   0  0  0  0  0  0  0  0  0  0  0  0
   56.5959   22.5811   42.9557 H   0  0  0  0  0  0  0  0  0  0  0  0
   56.4945   25.0667   42.9066 H   0  0  0  0  0  0  0  0  0  0  0  0
   58.4590   29.5040   43.0460 H   0  0  0  0  0  0  0  0  0  0  0  0
   56.6194   32.9547   46.8238 H   0  0  0  0  0  0  0  0  0  0  0  0
   57.9885   31.7482   46.9858 H   0  0  0  0  0  0  0  0  0  0  0  0
   57.9163   34.6632   47.5233 H   0  0  0  0  0  0  0  0  0  0  0  0
   58.7657   33.3064   48.3673 H   0  0  0  0  0  0  0  0  0  0  0  0
   60.3844   34.7644   47.2582 H   0  0  0  0  0  0  0  0  0  0  0  0
   60.3670   33.1611   46.4821 H   0  0  0  0  0  0  0  0  0  0  0  0
   58.8493   35.6530   45.5718 H   0  0  0  0  0  0  0  0  0  0  0  0
   60.3187   34.8988   44.7920 H   0  0  0  0  0  0  0  0  0  0  0  0
   57.7247   34.4899   44.0685 H   0  0  0  0  0  0  0  0  0  0  0  0
   59.1662   33.4165   43.7266 H   0  0  0  0  0  0  0  0  0  0  0  0
  1  2  1  0
  2  3  1  0
  2  4  1  0
  4  5  1  0
  5  6  1  0
  6  7  1  0
  7  8  2  0
  8  9  1  0
  9 10  2  0
 10 11  1  0
 11 12  2  0
 12 13  1  0
 13 14  2  0
 14 15  1  0
 15 16  1  0
 16 17  2  0
 17 18  1  0
 18 19  2  0
 18 20  1  0
 20 21  1  0
 21 22  1  0
 22 23  1  0
 23 24  1  0
 24 25  1  0
 16 26  1  0
 12  7  1  0
 26 13  1  0
 25 20  1  0
  1 27  1  0
  1 28  1  0
  1 29  1  0
  3 30  1  0
  3 31  1  0
  3 32  1  0
  4 33  1  0
  4 34  1  0
  5 35  1  0
  5 36  1  0
  8 37  1  0
  9 38  1  0
 10 39  1  0
 11 40  1  0
 15 41  1  0
 21 42  1  0
 21 43  1  0
 22 44  1  0
 22 45  1  0
 23 46  1  0
 23 47  1  0
 24 48  1  0
 24 49  1  0
 25 50  1  0
 25 51  1  0
M  END
>  <smiles>  (31) 
CN(C)CCOc1ccccc1-c1n[nH]c(=NC(=O)N2CCCCC2)s1

>  <score_type>  (31) 
oracle

>  <origin>  (31) 
adg

>  <m_score__min__energy>  (31) 
-8.4199999999999999

>  <m_primary>  (31) 
energy

$$$$
31:0
     RDKit          3D

 43 45  0  0  0  0  0  0  0  0999 V2000
   60.7450   27.8210   49.3930 C   0  0  0  0  0  0  0  0  0  0  0  0
   60.7350   29.2120   48.9070 N   0  0  0  0  0  0  0  0  0  0  0  0
   59.8510   29.3320   47.7210 C   0  0  0  0  0  0  0  0  0  0  0  0
   59.3630   30.7750   47.5350 C   0  0  0  0  0  0  0  0  0  0  0  0
   58.5300   31.2150   48.6790 N   0  0  0  0  0  0  0  0  0  0  0  0
   58.5260   32.6900   48.7770 C   0  0  0  0  0  0  0  0  0  0  0  0
   58.6850   33.3150   47.4060 C   0  0  0  0  0  0  0  0  0  0  0  0
   57.5310   33.4970   46.6240 C   0  0  0  0  0  0  0  0  0  0  0  0
   57.6050   34.1210   45.3790 C   0  0  0  0  0  0  0  0  0  0  0  0
   58.8320   34.5770   44.8970 C   0  0  0  0  0  0  0  0  0  0  0  0
   59.9900   34.4020   45.6550 C   0  0  0  0  0  0  0  0  0  0  0  0
   59.9350   33.7630   46.9050 C   0  0  0  0  0  0  0  0  0  0  0  0
   61.1970   33.5850   47.6550 C   0  0  0  0  0  0  0  0  0  0  0  0
   61.3770   34.2230   48.8920 C   0  0  0  0  0  0  0  0  0  0  0  0
   62.5710   34.0580   49.6000 C   0  0  0  0  0  0  0  0  0  0  0  0
   63.5950   33.2640   49.0730 C   0  0  0  0  0  0  0  0  0  0  0  0
   65.2250   33.0380   50.0430 Br  0  0  0  0  0  0  0  0  0  0  0  0
   63.4270   32.6390   47.8320 C   0  0  0  0  0  0  0  0  0  0  0  0
   62.2340   32.8020   47.1220 C   0  0  0  0  0  0  0  0  0  0  0  0
   58.9050   30.5690   49.9640 C   0  0  0  0  0  0  0  0  0  0  0  0
   60.3860   30.1590   50.0010 C   0  0  0  0  0  0  0  0  0  0  0  0
   60.7450   27.8169   50.4930 H   0  0  0  0  0  0  0  0  0  0  0  0
   59.8506   27.2974   49.0244 H   0  0  0  0  0  0  0  0  0  0  0  0
   61.6468   27.3103   49.0244 H   0  0  0  0  0  0  0  0  0  0  0  0
   61.7130   29.4330   48.5990 H   0  0  0  0  0  0  0  0  0  0  0  0
   60.4095   29.0240   46.8248 H   0  0  0  0  0  0  0  0  0  0  0  0
   58.9744   28.6853   47.8737 H   0  0  0  0  0  0  0  0  0  0  0  0
   60.2353   31.4399   47.4506 H   0  0  0  0  0  0  0  0  0  0  0  0
   58.7498   30.8186   46.6228 H   0  0  0  0  0  0  0  0  0  0  0  0
   57.5736   33.0207   49.2170 H   0  0  0  0  0  0  0  0  0  0  0  0
   59.3675   33.0060   49.4110 H   0  0  0  0  0  0  0  0  0  0  0  0
   56.5590   33.1433   46.9983 H   0  0  0  0  0  0  0  0  0  0  0  0
   56.6945   34.2538   44.7762 H   0  0  0  0  0  0  0  0  0  0  0  0
   58.8866   35.0753   43.9178 H   0  0  0  0  0  0  0  0  0  0  0  0
   60.9539   34.7672   45.2709 H   0  0  0  0  0  0  0  0  0  0  0  0
   60.5767   34.8544   49.3054 H   0  0  0  0  0  0  0  0  0  0  0  0
   62.7055   34.5533   50.5729 H   0  0  0  0  0  0  0  0  0  0  0  0
   64.2344   32.0191   47.4151 H   0  0  0  0  0  0  0  0  0  0  0  0
   62.1071   32.3158   46.1435 H   0  0  0  0  0  0  0  0  0  0  0  0
   58.7132   31.2761   50.7845 H   0  0  0  0  0  0  0  0  0  0  0  0
   58.3006   29.6561   50.0705 H   0  0  0  0  0  0  0  0  0  0  0  0
   61.0061   31.0618   49.8992 H   0  0  0  0  0  0  0  0  0  0  0  0
   60.5719   29.6514   50.9590 H   0  0  0  0  0  0  0  0  0  0  0  0
  1  2  1  0
  2  3  1  0
  3  4  1  0
  4  5  1  0
  5  6  1  0
  6  7  1  0
  7  8  2  0
  8  9  1  0
  9 10  2  0
 10 11  1  0
 11 12  2  0
 12 13  1  0
 13 14  2  0
 14 15  1  0
 15 16  2  0
 16 17  1  0
 16 18  1  0
 18 19  2  0
  5 20  1  0
 20 21  1  0
 21  2  1  0
 12  7  1  0
 19 13  1  0
  1 22  1  0
  1 23  1  0
  1 24  1  0
  2 25  1  0
  3 26  1  0
  3 27  1  0
  4 28  1  0
  4 29  1  0
  6 30  1  0
  6 31  1  0
  8 32  1  0
  9 33  1  0
 10 34  1  0
 11 35  1  0
 14 36  1  0
 15 37  1  0
 18 38  1  0
 19 39  1  0
 20 40  1  0
 20 41  1  0
 21 42  1  0
 21 43  1  0
M  CHG  1   2   1
M  END
>  <UniqueID>  (32) 
28

>  <SMILES>  (32) 
C[NH+]1CCN(Cc2ccccc2-c2ccc(Br)cc2)CC1

>  <Energy>  (32) 
64.08909005317086

>  <Genealogy>  (32) 
C[NH+]1CCN(Cc2ccccc2-c2ccc(Br)cc2)CC1 (protonated)
C[NH+]1CCN(Cc2ccccc2-c2ccc(Br)cc2)CC1 (3D coordinates assigned)
C[NH+]1CCN(Cc2ccccc2-c2ccc(Br)cc2)CC1 (nonaromatic ring conformer: 64.08909005317086 kcal/mol)

>  <smiles>  (32) 
CN1CCN(Cc2ccccc2-c2ccc(Br)cc2)CC1

>  <score_type>  (32) 
oracle

>  <origin>  (32) 
adg

>  <m_score__min__energy>  (32) 
-5.8899999999999997

>  <m_primary>  (32) 
energy

$$$$
32:0
     RDKit          3D

 60 63  0  0  0  0  0  0  0  0999 V2000
   62.5920   33.1580   50.0980 C   0  0  0  0  0  0  0  0  0  0  0  0
   61.9150   31.7910   50.1120 C   0  0  0  0  0  0  0  0  0  0  0  0
   60.5270   31.8790   50.5940 N   0  0  0  0  0  0  0  0  0  0  0  0
   60.0430   30.8790   51.5470 C   0  0  0  0  0  0  0  0  0  0  0  0
   59.0310   31.4940   52.5290 C   0  0  0  0  0  0  0  0  0  0  0  0
   59.5640   32.6090   53.3430 N   0  0  0  0  0  0  0  0  0  0  0  0
   60.7780   32.2640   54.1020 C   0  0  0  0  0  0  0  0  0  0  0  0
   59.6390   33.9100   52.6460 C   0  0  0  0  0  0  0  0  0  0  0  0
   59.2210   33.8630   51.1940 C   0  0  0  0  0  0  0  0  0  0  0  0
   59.7130   33.0280   50.2570 C   0  0  0  0  0  0  0  0  0  0  0  0
   59.4560   33.3460   48.8360 C   0  0  0  0  0  0  0  0  0  0  0  0
   59.8410   34.5900   48.3230 C   0  0  0  0  0  0  0  0  0  0  0  0
   59.5900   34.8950   46.9860 C   0  0  0  0  0  0  0  0  0  0  0  0
   58.9620   33.9540   46.1640 C   0  0  0  0  0  0  0  0  0  0  0  0
   58.6870   34.2380   44.8190 C   0  0  0  0  0  0  0  0  0  0  0  0
   58.0580   33.2830   44.0150 C   0  0  0  0  0  0  0  0  0  0  0  0
   57.7100   32.0300   44.5400 C   0  0  0  0  0  0  0  0  0  0  0  0
   57.0010   31.0150   43.6770 C   0  0  0  0  0  0  0  0  0  0  0  0
   56.6760   29.7450   44.4300 C   0  0  0  0  0  0  0  0  0  0  0  0
   55.4760   29.5080   44.7450 O   0  0  0  0  0  0  0  0  0  0  0  0
   57.7120   28.8230   44.8380 N   0  0  0  0  0  0  0  0  0  0  0  0
   59.1180   29.0610   44.4760 C   0  0  0  0  0  0  0  0  0  0  0  0
   60.0580   28.3280   45.4410 C   0  0  0  0  0  0  0  0  0  0  0  0
   59.6870   26.9700   45.5700 O   0  0  0  0  0  0  0  0  0  0  0  0
   58.4220   26.8870   46.1930 C   0  0  0  0  0  0  0  0  0  0  0  0
   57.3360   27.4750   45.2880 C   0  0  0  0  0  0  0  0  0  0  0  0
   57.9760   31.7460   45.8890 C   0  0  0  0  0  0  0  0  0  0  0  0
   58.6000   32.7000   46.7070 C   0  0  0  0  0  0  0  0  0  0  0  0
   58.8560   32.4290   48.0200 N   0  0  0  0  0  0  0  0  0  0  0  0
   62.7589   33.4951   51.1317 H   0  0  0  0  0  0  0  0  0  0  0  0
   63.5575   33.0837   49.5761 H   0  0  0  0  0  0  0  0  0  0  0  0
   61.9478   33.8809   49.5761 H   0  0  0  0  0  0  0  0  0  0  0  0
   61.9130   31.3831   49.0904 H   0  0  0  0  0  0  0  0  0  0  0  0
   62.4757   31.1362   50.7952 H   0  0  0  0  0  0  0  0  0  0  0  0
   59.5563   30.0620   50.9943 H   0  0  0  0  0  0  0  0  0  0  0  0
   60.9010   30.4997   52.1214 H   0  0  0  0  0  0  0  0  0  0  0  0
   58.1753   31.8705   51.9493 H   0  0  0  0  0  0  0  0  0  0  0  0
   58.7557   30.6961   53.2344 H   0  0  0  0  0  0  0  0  0  0  0  0
   60.5661   32.3242   55.1797 H   0  0  0  0  0  0  0  0  0  0  0  0
   61.0918   31.2411   53.8466 H   0  0  0  0  0  0  0  0  0  0  0  0
   61.5828   32.9690   53.8466 H   0  0  0  0  0  0  0  0  0  0  0  0
   58.9828   34.6201   53.1705 H   0  0  0  0  0  0  0  0  0  0  0  0
   60.6960   34.2142   52.6598 H   0  0  0  0  0  0  0  0  0  0  0  0
   58.4456   34.5742   50.8731 H   0  0  0  0  0  0  0  0  0  0  0  0
   60.3398   35.3244   48.9724 H   0  0  0  0  0  0  0  0  0  0  0  0
   59.8852   35.8733   46.5787 H   0  0  0  0  0  0  0  0  0  0  0  0
   58.9667   35.2140   44.3956 H   0  0  0  0  0  0  0  0  0  0  0  0
   57.8345   33.5159   42.9634 H   0  0  0  0  0  0  0  0  0  0  0  0
   56.0634   31.4574   43.3092 H   0  0  0  0  0  0  0  0  0  0  0  0
   57.6743   30.7506   42.8482 H   0  0  0  0  0  0  0  0  0  0  0  0
   59.2943   28.6961   43.4534 H   0  0  0  0  0  0  0  0  0  0  0  0
   59.3208   30.1405   44.5365 H   0  0  0  0  0  0  0  0  0  0  0  0
   61.0867   28.3856   45.0556 H   0  0  0  0  0  0  0  0  0  0  0  0
   59.9915   28.8067   46.4292 H   0  0  0  0  0  0  0  0  0  0  0  0
   58.1889   25.8319   46.3988 H   0  0  0  0  0  0  0  0  0  0  0  0
   58.4505   27.4604   47.1313 H   0  0  0  0  0  0  0  0  0  0  0  0
   57.2050   26.8244   44.4108 H   0  0  0  0  0  0  0  0  0  0  0  0
   56.3968   27.5400   45.8570 H   0  0  0  0  0  0  0  0  0  0  0  0
   57.6932   30.7688   46.3075 H   0  0  0  0  0  0  0  0  0  0  0  0
   58.5750   31.5040   48.4190 H   0  0  0  0  0  0  0  0  0  0  0  0
  1  2  1  0
  2  3  1  0
  3  4  1  0
  4  5  1  0
  5  6  1  0
  6  7  1  0
  6  8  1  0
  8  9  1  0
  9 10  2  0
 10 11  1  0
 11 12  2  0
 12 13  1  0
 13 14  2  0
 14 15  1  0
 15 16  2  0
 16 17  1  0
 17 18  1  0
 18 19  1  0
 19 20  2  0
 19 21  1  0
 21 22  1  0
 22 23  1  0
 23 24  1  0
 24 25  1  0
 25 26  1  0
 17 27  2  0
 27 28  1  0
 28 29  2  0
 10  3  1  0
 29 11  1  0
 28 14  1  0
 26 21  1  0
  1 30  1  0
  1 31  1  0
  1 32  1  0
  2 33  1  0
  2 34  1  0
  4 35  1  0
  4 36  1  0
  5 37  1  0
  5 38  1  0
  7 39  1  0
  7 40  1  0
  7 41  1  0
  8 42  1  0
  8 43  1  0
  9 44  1  0
 12 45  1  0
 13 46  1  0
 15 47  1  0
 16 48  1  0
 18 49  1  0
 18 50  1  0
 22 51  1  0
 22 52  1  0
 23 53  1  0
 23 54  1  0
 25 55  1  0
 25 56  1  0
 26 57  1  0
 26 58  1  0
 27 59  1  0
 29 60  1  0
M  CHG  1  29   1
M  END
>  <UniqueID>  (33) 
29

>  <SMILES>  (33) 
CCN1CCN(C)CC=C1c1ccc2ccc(CC(=O)N3CCOCC3)cc2[nH+]1

>  <Energy>  (33) 
82.6754125883653

>  <Genealogy>  (33) 
CCN1CCN(C)CC=C1c1ccc2ccc(CC(=O)N3CCOCC3)cc2[nH+]1 (protonated)
CCN1CCN(C)CC=C1c1ccc2ccc(CC(=O)N3CCOCC3)cc2[nH+]1 (3D coordinates assigned)
CCN1CCN(C)CC=C1c1ccc2ccc(CC(=O)N3CCOCC3)cc2[nH+]1 (nonaromatic ring conformer: 82.6754125883653 kcal/mol)

>  <smiles>  (33) 
CCN1CCN(C)CC=C1c1ccc2ccc(CC(=O)N3CCOCC3)cc2n1

>  <score_type>  (33) 
oracle

>  <origin>  (33) 
adg

>  <m_score__min__energy>  (33) 
-5.71

>  <m_primary>  (33) 
energy

$$$$
33:0
     RDKit          3D

 40 41  0  0  0  0  0  0  0  0999 V2000
   57.6720   32.6070   40.8820 C   0  0  0  0  0  0  0  0  0  0  0  0
   57.7460   32.6450   42.3040 O   0  0  0  0  0  0  0  0  0  0  0  0
   57.3920   31.5770   43.1410 C   0  0  0  0  0  0  0  0  0  0  0  0
   56.6870   30.5010   42.5940 C   0  0  0  0  0  0  0  0  0  0  0  0
   56.3310   29.4140   43.3940 C   0  0  0  0  0  0  0  0  0  0  0  0
   56.6850   29.4110   44.7450 C   0  0  0  0  0  0  0  0  0  0  0  0
   56.3390   28.3140   45.5420 O   0  0  0  0  0  0  0  0  0  0  0  0
   57.2720   27.3280   45.9800 C   0  0  0  0  0  0  0  0  0  0  0  0
   57.7460   26.4570   44.8120 C   0  0  0  0  0  0  0  0  0  0  0  0
   57.0630   25.1410   44.8340 N   0  0  0  0  0  0  0  0  0  0  0  0
   57.9990   24.0050   44.7240 C   0  0  0  0  0  0  0  0  0  0  0  0
   57.3800   22.8880   43.9370 C   0  0  0  0  0  0  0  0  0  0  0  0
   57.8500   21.5980   43.8210 C   0  0  0  0  0  0  0  0  0  0  0  0
   56.9510   20.9520   42.9970 C   0  0  0  0  0  0  0  0  0  0  0  0
   56.0020   21.7860   42.6330 O   0  0  0  0  0  0  0  0  0  0  0  0
   56.2320   22.9590   43.1770 C   0  0  0  0  0  0  0  0  0  0  0  0
   56.1110   25.0010   45.9640 C   0  0  0  0  0  0  0  0  0  0  0  0
   54.6420   24.7870   45.5450 C   0  0  0  0  0  0  0  0  0  0  0  0
   53.9360   25.9740   45.6250 F   0  0  0  0  0  0  0  0  0  0  0  0
   54.0530   23.8730   46.3990 F   0  0  0  0  0  0  0  0  0  0  0  0
   57.3630   30.4720   45.2670 N   0  0  0  0  0  0  0  0  0  0  0  0
   57.7210   31.5410   44.5080 C   0  0  0  0  0  0  0  0  0  0  0  0
   56.7320   32.1242   40.5765 H   0  0  0  0  0  0  0  0  0  0  0  0
   57.7031   33.6326   40.4857 H   0  0  0  0  0  0  0  0  0  0  0  0
   58.5237   32.0348   40.4857 H   0  0  0  0  0  0  0  0  0  0  0  0
   56.4117   30.5109   41.5290 H   0  0  0  0  0  0  0  0  0  0  0  0
   55.7764   28.5669   42.9640 H   0  0  0  0  0  0  0  0  0  0  0  0
   58.1414   27.8308   46.4287 H   0  0  0  0  0  0  0  0  0  0  0  0
   56.7749   26.6811   46.7179 H   0  0  0  0  0  0  0  0  0  0  0  0
   57.5182   26.9671   43.8644 H   0  0  0  0  0  0  0  0  0  0  0  0
   58.8302   26.2964   44.9055 H   0  0  0  0  0  0  0  0  0  0  0  0
   58.9163   24.3396   44.2174 H   0  0  0  0  0  0  0  0  0  0  0  0
   58.2352   23.6398   45.7344 H   0  0  0  0  0  0  0  0  0  0  0  0
   58.7513   21.1729   44.2867 H   0  0  0  0  0  0  0  0  0  0  0  0
   57.0183   19.8976   42.6907 H   0  0  0  0  0  0  0  0  0  0  0  0
   55.6080   23.8555   43.0469 H   0  0  0  0  0  0  0  0  0  0  0  0
   56.4236   24.1384   46.5708 H   0  0  0  0  0  0  0  0  0  0  0  0
   56.1417   25.9518   46.5164 H   0  0  0  0  0  0  0  0  0  0  0  0
   54.6245   24.4196   44.5083 H   0  0  0  0  0  0  0  0  0  0  0  0
   58.2688   32.3792   44.9634 H   0  0  0  0  0  0  0  0  0  0  0  0
  1  2  1  0
  2  3  1  0
  3  4  2  0
  4  5  1  0
  5  6  2  0
  6  7  1  0
  7  8  1  0
  8  9  1  0
  9 10  1  0
 10 11  1  0
 11 12  1  0
 12 13  1  0
 13 14  2  0
 14 15  1  0
 15 16  1  0
 10 17  1  0
 17 18  1  0
 18 19  1  0
 18 20  1  0
  6 21  1  0
 21 22  2  0
 22  3  1  0
 16 12  2  0
  1 23  1  0
  1 24  1  0
  1 25  1  0
  4 26  1  0
  5 27  1  0
  8 28  1  0
  8 29  1  0
  9 30  1  0
  9 31  1  0
 11 32  1  0
 11 33  1  0
 13 34  1  0
 14 35  1  0
 16 36  1  0
 17 37  1  0
 17 38  1  0
 18 39  1  0
 22 40  1  0
M  END
>  <UniqueID>  (34) 
30

>  <SMILES>  (34) 
COc1ccc(OCCN(Cc2ccoc2)CC(F)F)nc1

>  <Energy>  (34) 
63.33783684466285

>  <Genealogy>  (34) 
COc1ccc(OCCN(Cc2ccoc2)CC(F)F)nc1 (3D coordinates assigned)
COc1ccc(OCCN(Cc2ccoc2)CC(F)F)nc1 (optimized conformer: 63.33783684466285 kcal/mol)

>  <smiles>  (34) 
COc1ccc(OCCN(Cc2ccoc2)CC(F)F)nc1

>  <score_type>  (34) 
oracle

>  <origin>  (34) 
adg

>  <m_score__min__energy>  (34) 
-5.9500000000000002

>  <m_primary>  (34) 
energy

$$$$
34:0
     RDKit          3D

 37 38  0  0  0  0  0  0  0  0999 V2000
   57.2230   32.3290   41.0220 C   0  0  0  0  0  0  0  0  0  0  0  0
   57.4040   31.7480   42.3880 C   0  0  0  0  0  0  0  0  0  0  0  0
   57.9110   32.5470   43.4360 C   0  0  0  0  0  0  0  0  0  0  0  0
   58.0720   31.9790   44.7120 C   0  0  0  0  0  0  0  0  0  0  0  0
   58.5740   32.7600   45.8100 N   0  0  0  0  0  0  0  0  0  0  0  0
   59.8960   32.4880   46.3740 C   0  0  0  0  0  0  0  0  0  0  0  0
   57.7590   33.8430   46.3610 C   0  0  0  0  0  0  0  0  0  0  0  0
   57.7320   30.6710   44.8650 N   0  0  0  0  0  0  0  0  0  0  0  0
   57.8290   29.8420   45.9230 C   0  0  0  0  0  0  0  0  0  0  0  0
   57.3800   28.5940   45.5090 C   0  0  0  0  0  0  0  0  0  0  0  0
   57.3590   27.3460   46.3360 C   0  0  0  0  0  0  0  0  0  0  0  0
   56.7550   26.2320   45.5780 N   0  0  0  0  0  0  0  0  0  0  0  0
   57.7230   25.6610   44.6240 C   0  0  0  0  0  0  0  0  0  0  0  0
   56.3010   25.1820   46.5030 C   0  0  0  0  0  0  0  0  0  0  0  0
   57.0230   28.6480   44.2050 N   0  0  0  0  0  0  0  0  0  0  0  0
   57.2570   29.9250   43.8560 C   0  0  0  0  0  0  0  0  0  0  0  0
   57.0860   30.4390   42.6140 N   0  0  0  0  0  0  0  0  0  0  0  0
   56.8969   33.3759   41.1091 H   0  0  0  0  0  0  0  0  0  0  0  0
   58.1770   32.2864   40.4760 H   0  0  0  0  0  0  0  0  0  0  0  0
   56.4620   31.7521   40.4760 H   0  0  0  0  0  0  0  0  0  0  0  0
   58.1763   33.5993   43.2566 H   0  0  0  0  0  0  0  0  0  0  0  0
   59.8357   32.5004   47.4723 H   0  0  0  0  0  0  0  0  0  0  0  0
   60.2422   31.4998   46.0369 H   0  0  0  0  0  0  0  0  0  0  0  0
   60.6042   33.2592   46.0369 H   0  0  0  0  0  0  0  0  0  0  0  0
   57.7896   33.8023   47.4598 H   0  0  0  0  0  0  0  0  0  0  0  0
   58.1550   34.8105   46.0187 H   0  0  0  0  0  0  0  0  0  0  0  0
   56.7197   33.7304   46.0187 H   0  0  0  0  0  0  0  0  0  0  0  0
   58.1951   30.1043   46.9266 H   0  0  0  0  0  0  0  0  0  0  0  0
   58.3893   27.0783   46.6132 H   0  0  0  0  0  0  0  0  0  0  0  0
   56.7579   27.5283   47.2390 H   0  0  0  0  0  0  0  0  0  0  0  0
   58.5418   25.1780   45.1774 H   0  0  0  0  0  0  0  0  0  0  0  0
   57.2184   24.9159   43.9914 H   0  0  0  0  0  0  0  0  0  0  0  0
   58.1311   26.4631   43.9914 H   0  0  0  0  0  0  0  0  0  0  0  0
   56.4466   25.5188   47.5400 H   0  0  0  0  0  0  0  0  0  0  0  0
   55.2341   24.9775   46.3303 H   0  0  0  0  0  0  0  0  0  0  0  0
   56.8828   24.2646   46.3303 H   0  0  0  0  0  0  0  0  0  0  0  0
   56.6740   27.8710   43.6010 H   0  0  0  0  0  0  0  0  0  0  0  0
  1  2  1  0
  2  3  1  0
  3  4  2  0
  4  5  1  0
  5  6  1  0
  5  7  1  0
  4  8  1  0
  8  9  1  0
  9 10  2  0
 10 11  1  0
 11 12  1  0
 12 13  1  0
 12 14  1  0
 10 15  1  0
 15 16  2  0
 16 17  1  0
 17  2  2  0
 16  8  1  0
  1 18  1  0
  1 19  1  0
  1 20  1  0
  3 21  1  0
  6 22  1  0
  6 23  1  0
  6 24  1  0
  7 25  1  0
  7 26  1  0
  7 27  1  0
  9 28  1  0
 11 29  1  0
 11 30  1  0
 13 31  1  0
 13 32  1  0
 13 33  1  0
 14 34  1  0
 14 35  1  0
 14 36  1  0
 15 37  1  0
M  CHG  1  15   1
M  END
>  <UniqueID>  (35) 
31

>  <SMILES>  (35) 
Cc1cc(N(C)C)n2cc(CN(C)C)[nH+]c2n1

>  <Energy>  (35) 
73.93393970239362

>  <Genealogy>  (35) 
Cc1cc(N(C)C)n2cc(CN(C)C)[nH+]c2n1 (protonated)
Cc1cc(N(C)C)n2cc(CN(C)C)[nH+]c2n1 (3D coordinates assigned)
Cc1cc(N(C)C)n2cc(CN(C)C)[nH+]c2n1 (optimized conformer: 73.93393970239362 kcal/mol)

>  <smiles>  (35) 
Cc1cc(N(C)C)n2cc(CN(C)C)nc2n1

>  <score_type>  (35) 
oracle

>  <origin>  (35) 
adg

>  <m_score__min__energy>  (35) 
-4.0999999999999996

>  <m_primary>  (35) 
energy

$$$$
35:0
     RDKit          3D

 48 49  0  0  0  0  0  0  0  0999 V2000
   60.7730   26.2990   46.3640 C   0  0  0  0  0  0  0  0  0  0  0  0
   60.2960   27.1440   47.5460 C   0  0  0  0  0  0  0  0  0  0  0  0
   59.1800   28.0350   47.1530 N   0  0  0  0  0  0  0  0  0  0  0  0
   58.8300   28.9930   48.2340 C   0  0  0  0  0  0  0  0  0  0  0  0
   59.9090   28.9680   49.3110 C   0  0  0  0  0  0  0  0  0  0  0  0
   58.0060   27.2400   46.7230 C   0  0  0  0  0  0  0  0  0  0  0  0
   57.1760   28.0020   45.6800 C   0  0  0  0  0  0  0  0  0  0  0  0
   57.8720   29.2110   45.2410 N   0  0  0  0  0  0  0  0  0  0  0  0
   57.1870   30.3380   44.6750 C   0  0  0  0  0  0  0  0  0  0  0  0
   55.9320   30.3240   44.5560 O   0  0  0  0  0  0  0  0  0  0  0  0
   57.9600   31.5340   44.2010 C   0  0  0  0  0  0  0  0  0  0  0  0
   58.5780   32.2430   45.3440 N   0  0  0  0  0  0  0  0  0  0  0  0
   58.1490   33.5050   45.7050 C   0  0  0  0  0  0  0  0  0  0  0  0
   57.0280   34.2070   44.9750 C   0  0  0  0  0  0  0  0  0  0  0  0
   58.7390   34.1660   46.7920 C   0  0  0  0  0  0  0  0  0  0  0  0
   59.7800   33.5660   47.4970 C   0  0  0  0  0  0  0  0  0  0  0  0
   60.3780   34.2250   48.5830 C   0  0  0  0  0  0  0  0  0  0  0  0
   61.4280   33.6210   49.2800 C   0  0  0  0  0  0  0  0  0  0  0  0
   61.8860   32.3590   48.9000 C   0  0  0  0  0  0  0  0  0  0  0  0
   61.2980   31.6950   47.8200 C   0  0  0  0  0  0  0  0  0  0  0  0
   60.2380   32.2910   47.1080 C   0  0  0  0  0  0  0  0  0  0  0  0
   59.6220   31.6450   46.0180 C   0  0  0  0  0  0  0  0  0  0  0  0
   60.0400   30.5080   45.6600 O   0  0  0  0  0  0  0  0  0  0  0  0
   61.2814   25.3984   46.7386 H   0  0  0  0  0  0  0  0  0  0  0  0
   59.9082   26.0039   45.7516 H   0  0  0  0  0  0  0  0  0  0  0  0
   61.4725   26.8869   45.7516 H   0  0  0  0  0  0  0  0  0  0  0  0
   59.9550   26.4755   48.3503 H   0  0  0  0  0  0  0  0  0  0  0  0
   61.1348   27.7676   47.8888 H   0  0  0  0  0  0  0  0  0  0  0  0
   58.7556   30.0070   47.8142 H   0  0  0  0  0  0  0  0  0  0  0  0
   57.8653   28.7056   48.6776 H   0  0  0  0  0  0  0  0  0  0  0  0
   59.4361   28.9790   50.3041 H   0  0  0  0  0  0  0  0  0  0  0  0
   60.5139   28.0556   49.2029 H   0  0  0  0  0  0  0  0  0  0  0  0
   60.5555   29.8514   49.2029 H   0  0  0  0  0  0  0  0  0  0  0  0
   58.3541   26.2935   46.2837 H   0  0  0  0  0  0  0  0  0  0  0  0
   57.3727   27.0478   47.6016 H   0  0  0  0  0  0  0  0  0  0  0  0
   57.0035   27.3501   44.8109 H   0  0  0  0  0  0  0  0  0  0  0  0
   56.2191   28.2939   46.1374 H   0  0  0  0  0  0  0  0  0  0  0  0
   58.9030   29.2700   45.3960 H   0  0  0  0  0  0  0  0  0  0  0  0
   58.7503   31.2031   43.5111 H   0  0  0  0  0  0  0  0  0  0  0  0
   57.2703   32.2212   43.6891 H   0  0  0  0  0  0  0  0  0  0  0  0
   56.3312   34.6434   45.7058 H   0  0  0  0  0  0  0  0  0  0  0  0
   57.4450   35.0056   44.3438 H   0  0  0  0  0  0  0  0  0  0  0  0
   56.4916   33.4832   44.3438 H   0  0  0  0  0  0  0  0  0  0  0  0
   58.3785   35.1619   47.0890 H   0  0  0  0  0  0  0  0  0  0  0  0
   60.0190   35.2196   48.8861 H   0  0  0  0  0  0  0  0  0  0  0  0
   61.8942   34.1414   50.1296 H   0  0  0  0  0  0  0  0  0  0  0  0
   62.7116   31.8857   49.4517 H   0  0  0  0  0  0  0  0  0  0  0  0
   61.6648   30.7011   47.5239 H   0  0  0  0  0  0  0  0  0  0  0  0
  1  2  1  0
  2  3  1  0
  3  4  1  0
  4  5  1  0
  3  6  1  0
  6  7  1  0
  7  8  1  0
  8  9  1  0
  9 10  2  0
  9 11  1  0
 11 12  1  0
 12 13  1  0
 13 14  1  0
 13 15  2  0
 15 16  1  0
 16 17  2  0
 17 18  1  0
 18 19  2  0
 19 20  1  0
 20 21  2  0
 21 22  1  0
 22 23  2  0
 22 12  1  0
 21 16  1  0
  1 24  1  0
  1 25  1  0
  1 26  1  0
  2 27  1  0
  2 28  1  0
  4 29  1  0
  4 30  1  0
  5 31  1  0
  5 32  1  0
  5 33  1  0
  6 34  1  0
  6 35  1  0
  7 36  1  0
  7 37  1  0
  8 38  1  0
 11 39  1  0
 11 40  1  0
 14 41  1  0
 14 42  1  0
 14 43  1  0
 15 44  1  0
 17 45  1  0
 18 46  1  0
 19 47  1  0
 20 48  1  0
M  END
>  <UniqueID>  (36) 
32

>  <SMILES>  (36) 
CCN(CC)CCNC(=O)Cn1c(C)cc2ccccc2c1=O

>  <Energy>  (36) 
51.47678914460431

>  <Genealogy>  (36) 
CCN(CC)CCNC(=O)Cn1c(C)cc2ccccc2c1=O (3D coordinates assigned)
CCN(CC)CCNC(=O)Cn1c(C)cc2ccccc2c1=O (optimized conformer: 51.47678914460431 kcal/mol)

>  <smiles>  (36) 
CCN(CC)CCNC(=O)Cn1c(C)cc2ccccc2c1=O

>  <score_type>  (36) 
oracle

>  <origin>  (36) 
adg

>  <m_score__min__energy>  (36) 
-6.2199999999999998

>  <m_primary>  (36) 
energy

$$$$
36:0
     RDKit          3D

 33 35  0  0  0  0  0  0  0  0999 V2000
   57.3760   32.0490   41.5570 C   0  0  0  0  0  0  0  0  0  0  0  0
   57.2690   31.3920   42.8650 N   0  0  0  0  0  0  0  0  0  0  0  0
   56.4310   30.1930   42.9900 C   0  0  0  0  0  0  0  0  0  0  0  0
   57.9820   31.9190   44.0160 C   0  0  0  0  0  0  0  0  0  0  0  0
   58.4960   31.0560   45.0060 C   0  0  0  0  0  0  0  0  0  0  0  0
   59.1790   31.5640   46.1150 C   0  0  0  0  0  0  0  0  0  0  0  0
   59.3590   32.9460   46.2670 C   0  0  0  0  0  0  0  0  0  0  0  0
   60.0900   33.4930   47.4300 C   0  0  0  0  0  0  0  0  0  0  0  0
   59.5190   34.2300   48.4130 N   0  0  0  0  0  0  0  0  0  0  0  0
   60.4310   34.5840   49.3120 N   0  0  0  0  0  0  0  0  0  0  0  0
   61.5990   34.0580   48.9030 C   0  0  0  0  0  0  0  0  0  0  0  0
   62.8340   34.1410   49.5410 C   0  0  0  0  0  0  0  0  0  0  0  0
   63.9230   33.4750   48.9480 C   0  0  0  0  0  0  0  0  0  0  0  0
   63.7500   32.7410   47.7530 C   0  0  0  0  0  0  0  0  0  0  0  0
   62.4880   32.6730   47.1330 C   0  0  0  0  0  0  0  0  0  0  0  0
   61.4330   33.3640   47.7320 C   0  0  0  0  0  0  0  0  0  0  0  0
   58.8670   33.8100   45.2800 C   0  0  0  0  0  0  0  0  0  0  0  0
   58.1820   33.3060   44.1720 C   0  0  0  0  0  0  0  0  0  0  0  0
   57.5513   33.1254   41.7006 H   0  0  0  0  0  0  0  0  0  0  0  0
   58.2149   31.6126   40.9950 H   0  0  0  0  0  0  0  0  0  0  0  0
   56.4420   31.9014   40.9950 H   0  0  0  0  0  0  0  0  0  0  0  0
   56.2723   29.9659   44.0545 H   0  0  0  0  0  0  0  0  0  0  0  0
   55.4603   30.3719   42.5046 H   0  0  0  0  0  0  0  0  0  0  0  0
   56.9326   29.3428   42.5046 H   0  0  0  0  0  0  0  0  0  0  0  0
   58.3577   29.9695   44.9043 H   0  0  0  0  0  0  0  0  0  0  0  0
   59.5780   30.8746   46.8736 H   0  0  0  0  0  0  0  0  0  0  0  0
   58.5150   34.5090   48.4680 H   0  0  0  0  0  0  0  0  0  0  0  0
   62.9543   34.7075   50.4762 H   0  0  0  0  0  0  0  0  0  0  0  0
   64.9161   33.5263   49.4183 H   0  0  0  0  0  0  0  0  0  0  0  0
   64.6078   32.2189   47.3039 H   0  0  0  0  0  0  0  0  0  0  0  0
   62.3383   32.0956   46.2088 H   0  0  0  0  0  0  0  0  0  0  0  0
   59.0215   34.8946   45.3785 H   0  0  0  0  0  0  0  0  0  0  0  0
   57.7938   33.9997   43.4117 H   0  0  0  0  0  0  0  0  0  0  0  0
  1  2  1  0
  2  3  1  0
  2  4  1  0
  4  5  2  0
  5  6  1  0
  6  7  2  0
  7  8  1  0
  8  9  1  0
  9 10  1  0
 10 11  2  0
 11 12  1  0
 12 13  2  0
 13 14  1  0
 14 15  2  0
 15 16  1  0
  7 17  1  0
 17 18  2  0
 18  4  1  0
 16  8  2  0
 16 11  1  0
  1 19  1  0
  1 20  1  0
  1 21  1  0
  3 22  1  0
  3 23  1  0
  3 24  1  0
  5 25  1  0
  6 26  1  0
  9 27  1  0
 12 28  1  0
 13 29  1  0
 14 30  1  0
 15 31  1  0
 17 32  1  0
 18 33  1  0
M  END
>  <UniqueID>  (37) 
33

>  <SMILES>  (37) 
CN(C)c1ccc(-c2[nH]nc3ccccc23)cc1

>  <Energy>  (37) 
79.29333803686423

>  <Genealogy>  (37) 
CN(C)c1ccc(-c2[nH]nc3ccccc23)cc1 (3D coordinates assigned)
CN(C)c1ccc(-c2[nH]nc3ccccc23)cc1 (optimized conformer: 79.29333803686423 kcal/mol)

>  <smiles>  (37) 
CN(C)c1ccc(-c2[nH]nc3ccccc23)cc1

>  <score_type>  (37) 
oracle

>  <origin>  (37) 
adg

>  <m_score__min__energy>  (37) 
-6.4900000000000002

>  <m_primary>  (37) 
energy

$$$$
37:0
     RDKit          3D

 39 41  0  0  0  0  0  0  0  0999 V2000
   57.1101   32.0275   42.5957 H   0  0  0  0  0  0  0  0  0  0  0  0
   57.0240   31.2560   43.3750 C   0  0  0  0  0  0  0  0  0  0  0  0
   56.3610   29.7210   43.1730 S   0  0  0  0  0  0  0  0  0  0  0  0
   56.6390   29.2880   44.7680 C   0  0  0  0  0  0  0  0  0  0  0  0
   56.3120   28.1370   45.2720 N   0  0  0  0  0  0  0  0  0  0  0  0
   57.0140   27.4980   46.3840 C   0  0  0  0  0  0  0  0  0  0  0  0
   56.3560   27.4836   47.2654 H   0  0  0  0  0  0  0  0  0  0  0  0
   57.9289   28.0697   46.5986 H   0  0  0  0  0  0  0  0  0  0  0  0
   57.4000   26.0810   46.0310 C   0  0  0  0  0  0  0  0  0  0  0  0
   58.7580   25.7350   45.9180 C   0  0  0  0  0  0  0  0  0  0  0  0
   59.5319   26.5026   46.0662 H   0  0  0  0  0  0  0  0  0  0  0  0
   59.1300   24.4240   45.6190 C   0  0  0  0  0  0  0  0  0  0  0  0
   60.1946   24.1607   45.5338 H   0  0  0  0  0  0  0  0  0  0  0  0
   58.1530   23.4470   45.4280 C   0  0  0  0  0  0  0  0  0  0  0  0
   58.4488   22.4146   45.1901 H   0  0  0  0  0  0  0  0  0  0  0  0
   56.8010   23.7760   45.5380 C   0  0  0  0  0  0  0  0  0  0  0  0
   56.0358   23.0006   45.3856 H   0  0  0  0  0  0  0  0  0  0  0  0
   56.4100   25.0950   45.8430 C   0  0  0  0  0  0  0  0  0  0  0  0
   55.0590   25.4580   45.9690 O   0  0  0  0  0  0  0  0  0  0  0  0
   53.9740   24.7650   45.3600 C   0  0  0  0  0  0  0  0  0  0  0  0
   54.2430   24.4972   44.3276 H   0  0  0  0  0  0  0  0  0  0  0  0
   53.0843   25.4118   45.3505 H   0  0  0  0  0  0  0  0  0  0  0  0
   53.6740   23.5010   46.1500 C   0  0  0  0  0  0  0  0  0  0  0  0
   53.7261   23.7205   47.2266 H   0  0  0  0  0  0  0  0  0  0  0  0
   52.6656   23.1414   45.8975 H   0  0  0  0  0  0  0  0  0  0  0  0
   54.4133   22.7266   45.8975 H   0  0  0  0  0  0  0  0  0  0  0  0
   57.2260   30.2790   45.4690 N   0  0  0  0  0  0  0  0  0  0  0  0
   57.4470   31.3830   44.7040 C   0  0  0  0  0  0  0  0  0  0  0  0
   58.0660   32.6050   45.2780 C   0  0  0  0  0  0  0  0  0  0  0  0
   58.3320   33.7350   44.4820 C   0  0  0  0  0  0  0  0  0  0  0  0
   58.0790   33.7287   43.4115 H   0  0  0  0  0  0  0  0  0  0  0  0
   58.9180   34.8630   45.0570 C   0  0  0  0  0  0  0  0  0  0  0  0
   59.1287   35.7490   44.4401 H   0  0  0  0  0  0  0  0  0  0  0  0
   59.2360   34.8660   46.4130 C   0  0  0  0  0  0  0  0  0  0  0  0
   59.6943   35.7530   46.8747 H   0  0  0  0  0  0  0  0  0  0  0  0
   58.9670   33.7320   47.1790 C   0  0  0  0  0  0  0  0  0  0  0  0
   59.2156   33.7231   48.2505 H   0  0  0  0  0  0  0  0  0  0  0  0
   58.3980   32.6360   46.6060 N   0  0  0  0  0  0  0  0  0  0  0  0
   58.2070   31.8110   47.2170 H   0  0  0  0  0  0  0  0  0  0  0  0
  1  2  1  0
  2  3  1  0
  3  4  1  0
  4  5  2  0
  5  6  1  0
  6  7  1  0
  6  8  1  0
  6  9  1  0
  9 10  2  0
 10 11  1  0
 10 12  1  0
 12 13  1  0
 12 14  2  0
 14 15  1  0
 14 16  1  0
 16 17  1  0
 16 18  2  0
 18 19  1  0
 19 20  1  0
 20 21  1  0
 20 22  1  0
 20 23  1  0
 23 24  1  0
 23 25  1  0
 23 26  1  0
  4 27  1  0
 27 28  1  0
 28 29  1  0
 29 30  2  0
 30 31  1  0
 30 32  1  0
 32 33  1  0
 32 34  2  0
 34 35  1  0
 34 36  1  0
 36 37  1  0
 36 38  2  0
 38 39  1  0
 28  2  2  0
 38 29  1  0
 18  9  1  0
M  CHG  2  27  -1  38   1
M  END
>  <UniqueID>  (38) 
34

>  <SMILES>  (38) 
CCOc1ccccc1C/N=c1\[n-]c(-c2cccc[nH+]2)cs1

>  <Energy>  (38) 
68.35222611441571

>  <Genealogy>  (38) 
CCOc1ccccc1CN=c1[n-]c(-c2cccc[nH+]2)cs1 (protonated)
CCOc1ccccc1C/N=c1\[n-]c(-c2cccc[nH+]2)cs1 (cis-trans isomerization)
CCOc1ccccc1C/N=c1\[n-]c(-c2cccc[nH+]2)cs1 (3D coordinates assigned)
CCOc1ccccc1C/N=c1\[n-]c(-c2cccc[nH+]2)cs1 (optimized conformer: 68.35222611441571 kcal/mol)

>  <smiles>  (38) 
CCOc1ccccc1CN=c1[nH]c(-c2ccccn2)cs1

>  <score_type>  (38) 
oracle

>  <origin>  (38) 
adg

>  <m_score__min__energy>  (38) 
-7.4199999999999999

>  <m_primary>  (38) 
energy

$$$$
38:0
     RDKit          3D

 35 38  0  0  0  0  0  0  0  0999 V2000
   55.8300   29.7150   43.2250 C   0  0  0  0  0  0  0  0  0  0  0  0
   57.0290   29.9740   44.0900 C   0  0  0  0  0  0  0  0  0  0  0  0
   57.8730   28.9170   44.4580 C   0  0  0  0  0  0  0  0  0  0  0  0
   59.0120   29.1550   45.2320 C   0  0  0  0  0  0  0  0  0  0  0  0
   59.3280   30.4590   45.6410 C   0  0  0  0  0  0  0  0  0  0  0  0
   60.4420   30.7020   46.4000 N   0  0  0  0  0  0  0  0  0  0  0  0
   60.7800   31.9650   46.7990 C   0  0  0  0  0  0  0  0  0  0  0  0
   62.0020   32.1840   47.6070 C   0  0  0  0  0  0  0  0  0  0  0  0
   62.9740   33.1010   47.1750 C   0  0  0  0  0  0  0  0  0  0  0  0
   64.1220   33.3260   47.9410 C   0  0  0  0  0  0  0  0  0  0  0  0
   64.3030   32.6460   49.1480 C   0  0  0  0  0  0  0  0  0  0  0  0
   65.4170   32.8650   49.8910 F   0  0  0  0  0  0  0  0  0  0  0  0
   63.3350   31.7400   49.5920 C   0  0  0  0  0  0  0  0  0  0  0  0
   62.1850   31.5130   48.8280 C   0  0  0  0  0  0  0  0  0  0  0  0
   59.9350   33.0210   46.4210 C   0  0  0  0  0  0  0  0  0  0  0  0
   60.0220   34.3650   46.7390 C   0  0  0  0  0  0  0  0  0  0  0  0
   58.9290   34.9670   46.1410 C   0  0  0  0  0  0  0  0  0  0  0  0
   58.2170   33.9710   45.4940 C   0  0  0  0  0  0  0  0  0  0  0  0
   58.8370   32.7870   45.6780 N   0  0  0  0  0  0  0  0  0  0  0  0
   58.4900   31.5350   45.2600 C   0  0  0  0  0  0  0  0  0  0  0  0
   57.3460   31.2860   44.4790 C   0  0  0  0  0  0  0  0  0  0  0  0
   54.9529   29.5255   43.8612 H   0  0  0  0  0  0  0  0  0  0  0  0
   55.6396   30.5927   42.5899 H   0  0  0  0  0  0  0  0  0  0  0  0
   56.0188   28.8369   42.5899 H   0  0  0  0  0  0  0  0  0  0  0  0
   57.6370   27.8923   44.1351 H   0  0  0  0  0  0  0  0  0  0  0  0
   59.6629   28.3169   45.5215 H   0  0  0  0  0  0  0  0  0  0  0  0
   61.0610   29.9010   46.6670 H   0  0  0  0  0  0  0  0  0  0  0  0
   62.8316   33.6449   46.2295 H   0  0  0  0  0  0  0  0  0  0  0  0
   64.8836   34.0393   47.5928 H   0  0  0  0  0  0  0  0  0  0  0  0
   63.4777   31.2053   50.5426 H   0  0  0  0  0  0  0  0  0  0  0  0
   61.4211   30.8064   49.1846 H   0  0  0  0  0  0  0  0  0  0  0  0
   60.8002   34.8543   47.3431 H   0  0  0  0  0  0  0  0  0  0  0  0
   58.6735   36.0364   46.1735 H   0  0  0  0  0  0  0  0  0  0  0  0
   57.2909   34.1216   44.9199 H   0  0  0  0  0  0  0  0  0  0  0  0
   56.6986   32.1208   44.1725 H   0  0  0  0  0  0  0  0  0  0  0  0
  1  2  1  0
  2  3  2  0
  3  4  1  0
  4  5  2  0
  5  6  1  0
  6  7  2  0
  7  8  1  0
  8  9  2  0
  9 10  1  0
 10 11  2  0
 11 12  1  0
 11 13  1  0
 13 14  2  0
  7 15  1  0
 15 16  2  0
 16 17  1  0
 17 18  2  0
 18 19  1  0
 19 20  1  0
 20 21  2  0
 21  2  1  0
 20  5  1  0
 14  8  1  0
 19 15  1  0
  1 22  1  0
  1 23  1  0
  1 24  1  0
  3 25  1  0
  4 26  1  0
  6 27  1  0
  9 28  1  0
 10 29  1  0
 13 30  1  0
 14 31  1  0
 16 32  1  0
 17 33  1  0
 18 34  1  0
 21 35  1  0
M  CHG  1   6   1
M  END
>  <UniqueID>  (39) 
35

>  <SMILES>  (39) 
Cc1ccc2[nH+]c(-c3ccc(F)cc3)c3cccn3c2c1

>  <Energy>  (39) 
81.09126299770426

>  <Genealogy>  (39) 
Cc1ccc2[nH+]c(-c3ccc(F)cc3)c3cccn3c2c1 (protonated)
Cc1ccc2[nH+]c(-c3ccc(F)cc3)c3cccn3c2c1 (3D coordinates assigned)
Cc1ccc2[nH+]c(-c3ccc(F)cc3)c3cccn3c2c1 (optimized conformer: 81.09126299770426 kcal/mol)

>  <smiles>  (39) 
Cc1ccc2nc(-c3ccc(F)cc3)c3cccn3c2c1

>  <score_type>  (39) 
oracle

>  <origin>  (39) 
adg

>  <m_score__min__energy>  (39) 
-6.1200000000000001

>  <m_primary>  (39) 
energy

$$$$
39:0
     RDKit          3D

 35 36  0  0  0  0  0  0  0  0999 V2000
   60.0590   30.9800   46.7830 C   0  0  0  0  0  0  0  0  0  0  0  0
   59.1560   32.0030   46.1500 C   0  0  0  0  0  0  0  0  0  0  0  0
   59.6050   33.3300   46.0370 C   0  0  0  0  0  0  0  0  0  0  0  0
   58.8110   34.2970   45.4150 C   0  0  0  0  0  0  0  0  0  0  0  0
   57.5620   33.9510   44.9010 C   0  0  0  0  0  0  0  0  0  0  0  0
   57.0940   32.6420   45.0240 C   0  0  0  0  0  0  0  0  0  0  0  0
   57.8660   31.6690   45.6710 C   0  0  0  0  0  0  0  0  0  0  0  0
   57.3310   30.3450   45.7910 N   0  0  0  0  0  0  0  0  0  0  0  0
   56.5970   29.6840   44.7550 C   0  0  0  0  0  0  0  0  0  0  0  0
   55.3400   29.6080   44.8120 O   0  0  0  0  0  0  0  0  0  0  0  0
   57.3200   29.1490   43.5620 C   0  0  0  0  0  0  0  0  0  0  0  0
   58.7280   28.1030   44.0720 S   0  0  0  0  0  0  0  0  0  0  0  0
   57.7510   26.5990   44.2290 C   0  0  0  0  0  0  0  0  0  0  0  0
   57.8230   25.6850   43.2270 N   0  0  0  0  0  0  0  0  0  0  0  0
   57.1480   24.5400   43.2870 N   0  0  0  0  0  0  0  0  0  0  0  0
   56.3660   24.2410   44.3530 C   0  0  0  0  0  0  0  0  0  0  0  0
   55.6230   22.9400   44.3870 C   0  0  0  0  0  0  0  0  0  0  0  0
   56.2680   25.1720   45.3960 C   0  0  0  0  0  0  0  0  0  0  0  0
   55.5380   24.9190   46.3940 O   0  0  0  0  0  0  0  0  0  0  0  0
   56.9590   26.3510   45.3210 N   0  0  0  0  0  0  0  0  0  0  0  0
   56.8400   27.2990   46.3610 N   0  0  0  0  0  0  0  0  0  0  0  0
   59.9903   31.0578   47.8781 H   0  0  0  0  0  0  0  0  0  0  0  0
   59.7502   29.9727   46.4669 H   0  0  0  0  0  0  0  0  0  0  0  0
   61.0969   31.1614   46.4669 H   0  0  0  0  0  0  0  0  0  0  0  0
   60.5891   33.6095   46.4413 H   0  0  0  0  0  0  0  0  0  0  0  0
   59.1719   35.3327   45.3307 H   0  0  0  0  0  0  0  0  0  0  0  0
   56.9450   34.7103   44.3982 H   0  0  0  0  0  0  0  0  0  0  0  0
   56.1113   32.3724   44.6096 H   0  0  0  0  0  0  0  0  0  0  0  0
   56.6242   28.5478   42.9583 H   0  0  0  0  0  0  0  0  0  0  0  0
   57.7044   29.9954   42.9739 H   0  0  0  0  0  0  0  0  0  0  0  0
   55.4529   22.6421   45.4321 H   0  0  0  0  0  0  0  0  0  0  0  0
   54.6555   23.0569   43.8769 H   0  0  0  0  0  0  0  0  0  0  0  0
   56.2153   22.1661   43.8769 H   0  0  0  0  0  0  0  0  0  0  0  0
   57.2850   28.2410   46.3060 H   0  0  0  0  0  0  0  0  0  0  0  0
   56.2780   27.0990   47.2180 H   0  0  0  0  0  0  0  0  0  0  0  0
  1  2  1  0
  2  3  2  0
  3  4  1  0
  4  5  2  0
  5  6  1  0
  6  7  2  0
  7  8  1  0
  8  9  1  0
  9 10  2  0
  9 11  1  0
 11 12  1  0
 12 13  1  0
 13 14  2  0
 14 15  1  0
 15 16  2  0
 16 17  1  0
 16 18  1  0
 18 19  2  0
 18 20  1  0
 20 21  1  0
  7  2  1  0
 20 13  1  0
  1 22  1  0
  1 23  1  0
  1 24  1  0
  3 25  1  0
  4 26  1  0
  5 27  1  0
  6 28  1  0
 11 29  1  0
 11 30  1  0
 17 31  1  0
 17 32  1  0
 17 33  1  0
 21 34  1  0
 21 35  1  0
M  CHG  1   8  -1
M  END
>  <UniqueID>  (40) 
36

>  <SMILES>  (40) 
Cc1ccccc1[N-]C(=O)CSc1nnc(C)c(=O)n1N

>  <Energy>  (40) 
40.13624331191877

>  <Genealogy>  (40) 
Cc1ccccc1[N-]C(=O)CSc1nnc(C)c(=O)n1N (protonated)
Cc1ccccc1[N-]C(=O)CSc1nnc(C)c(=O)n1N (3D coordinates assigned)
Cc1ccccc1[N-]C(=O)CSc1nnc(C)c(=O)n1N (optimized conformer: 40.13624331191877 kcal/mol)

>  <smiles>  (40) 
Cc1ccccc1NC(=O)CSc1nnc(C)c(=O)n1N

>  <score_type>  (40) 
oracle

>  <origin>  (40) 
adg

>  <m_score__min__energy>  (40) 
-8.75

>  <m_primary>  (40) 
energy

$$$$
40:0
     RDKit          3D

 51 54  0  0  0  0  0  0  0  0999 V2000
   56.1510   29.7200   43.3770 C   0  0  0  0  0  0  0  0  0  0  0  0
   57.0790   30.2450   44.4410 C   0  0  0  0  0  0  0  0  0  0  0  0
   57.3900   31.6140   44.4680 C   0  0  0  0  0  0  0  0  0  0  0  0
   58.2500   32.1290   45.4390 C   0  0  0  0  0  0  0  0  0  0  0  0
   58.8160   31.2830   46.4010 C   0  0  0  0  0  0  0  0  0  0  0  0
   59.7050   31.8190   47.4050 N   0  0  0  0  0  0  0  0  0  0  0  0
   61.0420   31.5560   47.3320 C   0  0  0  0  0  0  0  0  0  0  0  0
   61.4990   30.8640   46.3770 O   0  0  0  0  0  0  0  0  0  0  0  0
   61.9110   32.0560   48.3080 C   0  0  0  0  0  0  0  0  0  0  0  0
   63.2930   31.7820   48.2600 C   0  0  0  0  0  0  0  0  0  0  0  0
   64.1460   32.2780   49.2440 C   0  0  0  0  0  0  0  0  0  0  0  0
   63.6360   33.0480   50.2830 C   0  0  0  0  0  0  0  0  0  0  0  0
   62.2710   33.3340   50.3440 C   0  0  0  0  0  0  0  0  0  0  0  0
   61.3780   32.8450   49.3550 C   0  0  0  0  0  0  0  0  0  0  0  0
   60.0220   33.1110   49.3910 N   0  0  0  0  0  0  0  0  0  0  0  0
   59.4270   33.9280   50.4760 C   0  0  0  0  0  0  0  0  0  0  0  0
   58.7190   33.0550   51.4720 C   0  0  0  0  0  0  0  0  0  0  0  0
   59.1400   33.0040   52.6590 O   0  0  0  0  0  0  0  0  0  0  0  0
   57.5350   32.3400   51.0900 N   0  0  0  0  0  0  0  0  0  0  0  0
   57.0230   31.1990   51.8020 C   0  0  0  0  0  0  0  0  0  0  0  0
   55.6390   31.0750   51.9990 C   0  0  0  0  0  0  0  0  0  0  0  0
   55.1170   29.9620   52.6650 C   0  0  0  0  0  0  0  0  0  0  0  0
   55.9710   28.9580   53.1270 C   0  0  0  0  0  0  0  0  0  0  0  0
   57.3480   29.0620   52.9170 C   0  0  0  0  0  0  0  0  0  0  0  0
   57.8750   30.1730   52.2530 C   0  0  0  0  0  0  0  0  0  0  0  0
   59.1980   32.5820   48.4240 C   0  0  0  0  0  0  0  0  0  0  0  0
   57.9500   32.7850   48.4770 O   0  0  0  0  0  0  0  0  0  0  0  0
   58.5170   29.9150   46.3800 C   0  0  0  0  0  0  0  0  0  0  0  0
   57.6560   29.3820   45.4040 C   0  0  0  0  0  0  0  0  0  0  0  0
   57.3520   27.9070   45.4150 C   0  0  0  0  0  0  0  0  0  0  0  0
   55.2875   29.2315   43.8521 H   0  0  0  0  0  0  0  0  0  0  0  0
   55.8017   30.5543   42.7509 H   0  0  0  0  0  0  0  0  0  0  0  0
   56.6862   28.9908   42.7509 H   0  0  0  0  0  0  0  0  0  0  0  0
   56.9515   32.2871   43.7165 H   0  0  0  0  0  0  0  0  0  0  0  0
   58.4843   33.2037   45.4488 H   0  0  0  0  0  0  0  0  0  0  0  0
   63.7008   31.1725   47.4402 H   0  0  0  0  0  0  0  0  0  0  0  0
   65.2233   32.0602   49.1986 H   0  0  0  0  0  0  0  0  0  0  0  0
   64.3113   33.4338   51.0609 H   0  0  0  0  0  0  0  0  0  0  0  0
   61.8819   33.9471   51.1703 H   0  0  0  0  0  0  0  0  0  0  0  0
   60.2256   34.4850   50.9878 H   0  0  0  0  0  0  0  0  0  0  0  0
   58.6980   34.6237   50.0350 H   0  0  0  0  0  0  0  0  0  0  0  0
   56.9910   32.6930   50.2710 H   0  0  0  0  0  0  0  0  0  0  0  0
   54.9613   31.8577   51.6274 H   0  0  0  0  0  0  0  0  0  0  0  0
   54.0321   29.8769   52.8254 H   0  0  0  0  0  0  0  0  0  0  0  0
   55.5594   28.0858   53.6560 H   0  0  0  0  0  0  0  0  0  0  0  0
   58.0192   28.2675   53.2751 H   0  0  0  0  0  0  0  0  0  0  0  0
   58.9592   30.2461   52.0822 H   0  0  0  0  0  0  0  0  0  0  0  0
   58.9606   29.2498   47.1355 H   0  0  0  0  0  0  0  0  0  0  0  0
   57.2795   27.5553   46.4547 H   0  0  0  0  0  0  0  0  0  0  0  0
   56.3976   27.7255   44.8991 H   0  0  0  0  0  0  0  0  0  0  0  0
   58.1569   27.3629   44.8991 H   0  0  0  0  0  0  0  0  0  0  0  0
  1  2  1  0
  2  3  2  0
  3  4  1  0
  4  5  2  0
  5  6  1  0
  6  7  1  0
  7  8  2  0
  7  9  1  0
  9 10  2  0
 10 11  1  0
 11 12  2  0
 12 13  1  0
 13 14  2  0
 14 15  1  0
 15 16  1  0
 16 17  1  0
 17 18  2  0
 17 19  1  0
 19 20  1  0
 20 21  2  0
 21 22  1  0
 22 23  2  0
 23 24  1  0
 24 25  2  0
 15 26  1  0
 26 27  2  0
  5 28  1  0
 28 29  2  0
 29 30  1  0
 29  2  1  0
 26  6  1  0
 14  9  1  0
 25 20  1  0
  1 31  1  0
  1 32  1  0
  1 33  1  0
  3 34  1  0
  4 35  1  0
 10 36  1  0
 11 37  1  0
 12 38  1  0
 13 39  1  0
 16 40  1  0
 16 41  1  0
 19 42  1  0
 21 43  1  0
 22 44  1  0
 23 45  1  0
 24 46  1  0
 25 47  1  0
 28 48  1  0
 30 49  1  0
 30 50  1  0
 30 51  1  0
M  END
>  <UniqueID>  (41) 
37

>  <SMILES>  (41) 
Cc1ccc(-n2c(=O)c3ccccc3n(CC(=O)Nc3ccccc3)c2=O)cc1C

>  <Energy>  (41) 
79.31426449209674

>  <Genealogy>  (41) 
Cc1ccc(-n2c(=O)c3ccccc3n(CC(=O)Nc3ccccc3)c2=O)cc1C (3D coordinates assigned)
Cc1ccc(-n2c(=O)c3ccccc3n(CC(=O)Nc3ccccc3)c2=O)cc1C (optimized conformer: 79.31426449209674 kcal/mol)

>  <smiles>  (41) 
Cc1ccc(-n2c(=O)c3ccccc3n(CC(=O)Nc3ccccc3)c2=O)cc1C

>  <score_type>  (41) 
oracle

>  <origin>  (41) 
adg

>  <m_score__min__energy>  (41) 
-8.4199999999999999

>  <m_primary>  (41) 
energy

$$$$
41:0
     RDKit          3D

 64 68  0  0  0  0  0  0  0  0999 V2000
   56.0840   28.4460   54.2080 C   0  0  0  0  0  0  0  0  0  0  0  0
   55.1610   29.2620   53.3390 C   0  0  0  0  0  0  0  0  0  0  0  0
   53.9030   28.7270   53.0090 C   0  0  0  0  0  0  0  0  0  0  0  0
   53.0230   29.4320   52.1850 C   0  0  0  0  0  0  0  0  0  0  0  0
   53.3900   30.6730   51.6720 C   0  0  0  0  0  0  0  0  0  0  0  0
   54.6380   31.2160   51.9790 C   0  0  0  0  0  0  0  0  0  0  0  0
   55.5430   30.5250   52.8100 C   0  0  0  0  0  0  0  0  0  0  0  0
   56.8390   31.1120   53.0840 N   0  0  0  0  0  0  0  0  0  0  0  0
   57.7880   30.7720   52.0510 C   0  0  0  0  0  0  0  0  0  0  0  0
   58.6280   29.6590   52.1950 C   0  0  0  0  0  0  0  0  0  0  0  0
   59.5510   29.3350   51.2030 C   0  0  0  0  0  0  0  0  0  0  0  0
   59.6650   30.1220   50.0390 C   0  0  0  0  0  0  0  0  0  0  0  0
   60.5630   29.7840   49.0100 O   0  0  0  0  0  0  0  0  0  0  0  0
   60.4270   28.6930   48.1000 C   0  0  0  0  0  0  0  0  0  0  0  0
   60.2600   29.2060   46.6650 C   0  0  0  0  0  0  0  0  0  0  0  0
   59.1940   28.4550   45.9700 N   0  0  0  0  0  0  0  0  0  0  0  0
   59.3740   28.5330   44.5020 C   0  0  0  0  0  0  0  0  0  0  0  0
   58.0930   28.1140   43.7650 C   0  0  0  0  0  0  0  0  0  0  0  0
   56.9360   28.9790   44.1050 N   0  0  0  0  0  0  0  0  0  0  0  0
   56.6280   29.9180   43.0150 C   0  0  0  0  0  0  0  0  0  0  0  0
   57.0950   29.7090   45.3820 C   0  0  0  0  0  0  0  0  0  0  0  0
   57.8350   28.8560   46.4220 C   0  0  0  0  0  0  0  0  0  0  0  0
   58.8510   31.2710   49.9000 C   0  0  0  0  0  0  0  0  0  0  0  0
   58.9270   32.1590   48.7120 C   0  0  0  0  0  0  0  0  0  0  0  0
   58.1850   31.9500   47.5930 N   0  0  0  0  0  0  0  0  0  0  0  0
   58.4050   32.9110   46.6600 C   0  0  0  0  0  0  0  0  0  0  0  0
   57.7870   32.9520   45.4090 C   0  0  0  0  0  0  0  0  0  0  0  0
   58.1040   34.0060   44.5340 C   0  0  0  0  0  0  0  0  0  0  0  0
   59.0270   35.0010   44.9180 C   0  0  0  0  0  0  0  0  0  0  0  0
   59.6400   34.9490   46.1810 C   0  0  0  0  0  0  0  0  0  0  0  0
   59.3100   33.8930   47.0260 C   0  0  0  0  0  0  0  0  0  0  0  0
   59.8680   33.5680   48.5720 S   0  0  0  0  0  0  0  0  0  0  0  0
   57.9220   31.5800   50.9100 C   0  0  0  0  0  0  0  0  0  0  0  0
   55.8606   28.6435   55.2668 H   0  0  0  0  0  0  0  0  0  0  0  0
   55.9375   27.3767   53.9956 H   0  0  0  0  0  0  0  0  0  0  0  0
   57.1273   28.7225   53.9956 H   0  0  0  0  0  0  0  0  0  0  0  0
   53.6092   27.7433   53.4039 H   0  0  0  0  0  0  0  0  0  0  0  0
   52.0386   29.0061   51.9410 H   0  0  0  0  0  0  0  0  0  0  0  0
   52.6949   31.2264   51.0235 H   0  0  0  0  0  0  0  0  0  0  0  0
   54.9195   32.1964   51.5671 H   0  0  0  0  0  0  0  0  0  0  0  0
   56.7670   32.1560   53.1300 H   0  0  0  0  0  0  0  0  0  0  0  0
   57.1720   30.8090   54.0270 H   0  0  0  0  0  0  0  0  0  0  0  0
   58.5578   29.0361   53.0989 H   0  0  0  0  0  0  0  0  0  0  0  0
   60.1984   28.4547   51.3295 H   0  0  0  0  0  0  0  0  0  0  0  0
   61.3257   28.0612   48.1559 H   0  0  0  0  0  0  0  0  0  0  0  0
   59.5352   28.1106   48.3748 H   0  0  0  0  0  0  0  0  0  0  0  0
   59.9941   30.2731   46.6903 H   0  0  0  0  0  0  0  0  0  0  0  0
   61.2069   29.0650   46.1233 H   0  0  0  0  0  0  0  0  0  0  0  0
   59.6257   29.5675   44.2253 H   0  0  0  0  0  0  0  0  0  0  0  0
   60.1840   27.8475   44.2123 H   0  0  0  0  0  0  0  0  0  0  0  0
   58.2730   28.1745   42.6815 H   0  0  0  0  0  0  0  0  0  0  0  0
   57.8475   27.0879   44.0761 H   0  0  0  0  0  0  0  0  0  0  0  0
   56.3118   30.8821   43.4399 H   0  0  0  0  0  0  0  0  0  0  0  0
   57.5244   30.0669   42.3951 H   0  0  0  0  0  0  0  0  0  0  0  0
   55.8176   29.5071   42.3951 H   0  0  0  0  0  0  0  0  0  0  0  0
   57.6686   30.6297   45.1997 H   0  0  0  0  0  0  0  0  0  0  0  0
   56.0949   29.9456   45.7742 H   0  0  0  0  0  0  0  0  0  0  0  0
   57.9299   29.4371   47.3512 H   0  0  0  0  0  0  0  0  0  0  0  0
   57.2504   27.9371   46.5762 H   0  0  0  0  0  0  0  0  0  0  0  0
   57.0664   32.1752   45.1136 H   0  0  0  0  0  0  0  0  0  0  0  0
   57.6289   34.0549   43.5431 H   0  0  0  0  0  0  0  0  0  0  0  0
   59.2679   35.8211   44.2256 H   0  0  0  0  0  0  0  0  0  0  0  0
   60.3597   35.7201   46.4931 H   0  0  0  0  0  0  0  0  0  0  0  0
   57.2877   32.4724   50.8041 H   0  0  0  0  0  0  0  0  0  0  0  0
  1  2  1  0
  2  3  2  0
  3  4  1  0
  4  5  2  0
  5  6  1  0
  6  7  2  0
  7  8  1  0
  8  9  1  0
  9 10  2  0
 10 11  1  0
 11 12  2  0
 12 13  1  0
 13 14  1  0
 14 15  1  0
 15 16  1  0
 16 17  1  0
 17 18  1  0
 18 19  1  0
 19 20  1  0
 19 21  1  0
 21 22  1  0
 12 23  1  0
 23 24  1  0
 24 25  2  0
 25 26  1  0
 26 27  2  0
 27 28  1  0
 28 29  2  0
 29 30  1  0
 30 31  2  0
 31 32  1  0
 23 33  2  0
  7  2  1  0
 33  9  1  0
 22 16  1  0
 32 24  1  0
 31 26  1  0
  1 34  1  0
  1 35  1  0
  1 36  1  0
  3 37  1  0
  4 38  1  0
  5 39  1  0
  6 40  1  0
  8 41  1  0
  8 42  1  0
 10 43  1  0
 11 44  1  0
 14 45  1  0
 14 46  1  0
 15 47  1  0
 15 48  1  0
 17 49  1  0
 17 50  1  0
 18 51  1  0
 18 52  1  0
 20 53  1  0
 20 54  1  0
 20 55  1  0
 21 56  1  0
 21 57  1  0
 22 58  1  0
 22 59  1  0
 27 60  1  0
 28 61  1  0
 29 62  1  0
 30 63  1  0
 33 64  1  0
M  CHG  1   8   1
M  END
>  <UniqueID>  (42) 
38

>  <SMILES>  (42) 
Cc1ccccc1[NH2+]c1ccc(OCCN2CCN(C)CC2)c(-c2nc3ccccc3s2)c1

>  <Energy>  (42) 
121.84617917880304

>  <Genealogy>  (42) 
Cc1ccccc1[NH2+]c1ccc(OCCN2CCN(C)CC2)c(-c2nc3ccccc3s2)c1 (protonated)
Cc1ccccc1[NH2+]c1ccc(OCCN2CCN(C)CC2)c(-c2nc3ccccc3s2)c1 (3D coordinates assigned)
Cc1ccccc1[NH2+]c1ccc(OCCN2CCN(C)CC2)c(-c2nc3ccccc3s2)c1 (nonaromatic ring conformer: 121.84617917880304 kcal/mol)

>  <smiles>  (42) 
Cc1ccccc1Nc1ccc(OCCN2CCN(C)CC2)c(-c2nc3ccccc3s2)c1

>  <score_type>  (42) 
oracle

>  <origin>  (42) 
adg

>  <m_score__min__energy>  (42) 
-7.5899999999999999

>  <m_primary>  (42) 
energy

$$$$
42:0
     RDKit          3D

 37 39  0  0  0  0  0  0  0  0999 V2000
   60.4180   26.8730   48.1190 C   0  0  0  0  0  0  0  0  0  0  0  0
   59.4880   28.0820   48.1110 C   0  0  0  0  0  0  0  0  0  0  0  0
   59.0270   28.3840   46.7380 N   0  0  0  0  0  0  0  0  0  0  0  0
   60.0650   29.1410   46.0100 C   0  0  0  0  0  0  0  0  0  0  0  0
   59.8010   29.2110   44.4880 C   0  0  0  0  0  0  0  0  0  0  0  0
   58.4440   28.7860   44.0990 N   0  0  0  0  0  0  0  0  0  0  0  0
   57.2450   30.0550   44.2340 S   0  0  0  0  0  0  0  0  0  0  0  0
   56.2210   29.6320   45.2500 O   0  0  0  0  0  0  0  0  0  0  0  0
   56.5230   30.2130   42.9260 O   0  0  0  0  0  0  0  0  0  0  0  0
   57.9320   31.6060   44.7580 C   0  0  0  0  0  0  0  0  0  0  0  0
   58.1470   32.6060   43.7910 C   0  0  0  0  0  0  0  0  0  0  0  0
   58.7460   33.8280   44.1280 C   0  0  0  0  0  0  0  0  0  0  0  0
   59.1410   34.0880   45.4430 C   0  0  0  0  0  0  0  0  0  0  0  0
   58.9280   33.1210   46.4220 C   0  0  0  0  0  0  0  0  0  0  0  0
   59.2750   33.3140   47.7230 N   0  0  0  0  0  0  0  0  0  0  0  0
   58.7930   31.8800   48.3910 S   0  0  0  0  0  0  0  0  0  0  0  0
   58.1720   31.0150   47.1320 N   0  0  0  0  0  0  0  0  0  0  0  0
   58.3240   31.8700   46.0880 C   0  0  0  0  0  0  0  0  0  0  0  0
   58.0020   27.5010   44.6840 C   0  0  0  0  0  0  0  0  0  0  0  0
   58.7120   27.1520   45.9990 C   0  0  0  0  0  0  0  0  0  0  0  0
   60.6382   26.5867   49.1580 H   0  0  0  0  0  0  0  0  0  0  0  0
   59.9313   26.0326   47.6024 H   0  0  0  0  0  0  0  0  0  0  0  0
   61.3551   27.1278   47.6024 H   0  0  0  0  0  0  0  0  0  0  0  0
   58.6150   27.8691   48.7454 H   0  0  0  0  0  0  0  0  0  0  0  0
   60.0395   28.9524   48.4961 H   0  0  0  0  0  0  0  0  0  0  0  0
   60.0966   30.1658   46.4084 H   0  0  0  0  0  0  0  0  0  0  0  0
   61.0205   28.6159   46.1559 H   0  0  0  0  0  0  0  0  0  0  0  0
   59.9468   30.2502   44.1582 H   0  0  0  0  0  0  0  0  0  0  0  0
   60.5045   28.5144   44.0086 H   0  0  0  0  0  0  0  0  0  0  0  0
   57.8390   32.4252   42.7506 H   0  0  0  0  0  0  0  0  0  0  0  0
   58.9065   34.5891   43.3502 H   0  0  0  0  0  0  0  0  0  0  0  0
   59.6151   35.0462   45.7019 H   0  0  0  0  0  0  0  0  0  0  0  0
   57.7390   30.0700   47.1730 H   0  0  0  0  0  0  0  0  0  0  0  0
   56.9206   27.5596   44.8768 H   0  0  0  0  0  0  0  0  0  0  0  0
   58.2539   26.7118   43.9603 H   0  0  0  0  0  0  0  0  0  0  0  0
   58.0549   26.5169   46.6113 H   0  0  0  0  0  0  0  0  0  0  0  0
   59.6451   26.6139   45.7759 H   0  0  0  0  0  0  0  0  0  0  0  0
  1  2  1  0
  2  3  1  0
  3  4  1  0
  4  5  1  0
  5  6  1  0
  6  7  1  0
  7  8  2  0
  7  9  2  0
  7 10  1  0
 10 11  2  0
 11 12  1  0
 12 13  2  0
 13 14  1  0
 14 15  2  0
 15 16  1  0
 16 17  1  0
 17 18  2  0
  6 19  1  0
 19 20  1  0
 20  3  1  0
 18 10  1  0
 18 14  1  0
  1 21  1  0
  1 22  1  0
  1 23  1  0
  2 24  1  0
  2 25  1  0
  4 26  1  0
  4 27  1  0
  5 28  1  0
  5 29  1  0
 11 30  1  0
 12 31  1  0
 13 32  1  0
 17 33  1  0
 19 34  1  0
 19 35  1  0
 20 36  1  0
 20 37  1  0
M  CHG  1  17   1
M  END
>  <UniqueID>  (43) 
39

>  <SMILES>  (43) 
CCN1CCN(S(=O)(=O)c2cccc3ns[nH+]c23)CC1

>  <Energy>  (43) 
87.5321787124336

>  <Genealogy>  (43) 
CCN1CCN(S(=O)(=O)c2cccc3ns[nH+]c23)CC1 (protonated)
CCN1CCN(S(=O)(=O)c2cccc3ns[nH+]c23)CC1 (3D coordinates assigned)
CCN1CCN(S(=O)(=O)c2cccc3ns[nH+]c23)CC1 (nonaromatic ring conformer: 87.5321787124336 kcal/mol)

>  <smiles>  (43) 
CCN1CCN(S(=O)(=O)c2cccc3nsnc23)CC1

>  <score_type>  (43) 
oracle

>  <origin>  (43) 
adg

>  <m_score__min__energy>  (43) 
-5.5099999999999998

>  <m_primary>  (43) 
energy

$$$$
43:0
     RDKit          3D

 24 24  0  0  0  0  0  0  0  0999 V2000
   58.2425   29.8873   43.2970 H   0  0  0  0  0  0  0  0  0  0  0  0
   57.9710   30.0650   44.3480 C   0  0  0  0  0  0  0  0  0  0  0  0
   57.6260   29.0020   45.1060 C   0  0  0  0  0  0  0  0  0  0  0  0
   56.2010   28.5990   45.2050 C   0  0  0  0  0  0  0  0  0  0  0  0
   55.8780   27.4540   45.6210 O   0  0  0  0  0  0  0  0  0  0  0  0
   55.1960   29.4870   44.8390 O   0  0  0  0  0  0  0  0  0  0  0  0
   58.6690   28.1410   45.7920 C   0  0  0  0  0  0  0  0  0  0  0  0
   58.4005   27.0816   45.6668 H   0  0  0  0  0  0  0  0  0  0  0  0
   58.6975   28.4067   46.8591 H   0  0  0  0  0  0  0  0  0  0  0  0
   60.0520   28.3800   45.1930 C   0  0  0  0  0  0  0  0  0  0  0  0
   60.7855   28.5067   46.0029 H   0  0  0  0  0  0  0  0  0  0  0  0
   60.3367   27.5177   44.5721 H   0  0  0  0  0  0  0  0  0  0  0  0
   60.0308   29.2878   44.5721 H   0  0  0  0  0  0  0  0  0  0  0  0
   58.0040   31.4510   44.8510 C   0  0  0  0  0  0  0  0  0  0  0  0
   58.1480   31.6730   46.2280 C   0  0  0  0  0  0  0  0  0  0  0  0
   58.2258   30.8180   46.9157 H   0  0  0  0  0  0  0  0  0  0  0  0
   58.1930   32.9770   46.7300 C   0  0  0  0  0  0  0  0  0  0  0  0
   58.2955   33.1460   47.8121 H   0  0  0  0  0  0  0  0  0  0  0  0
   58.1080   34.0650   45.8590 C   0  0  0  0  0  0  0  0  0  0  0  0
   58.1388   35.0902   46.2565 H   0  0  0  0  0  0  0  0  0  0  0  0
   57.9840   33.8540   44.4840 C   0  0  0  0  0  0  0  0  0  0  0  0
   57.9230   34.7140   43.8009 H   0  0  0  0  0  0  0  0  0  0  0  0
   57.9370   32.5520   43.9720 C   0  0  0  0  0  0  0  0  0  0  0  0
   57.8120   32.3290   42.2300 Cl  0  0  0  0  0  0  0  0  0  0  0  0
  1  2  1  0
  2  3  2  0
  3  4  1  0
  4  5  2  0
  4  6  1  0
  3  7  1  0
  7  8  1  0
  7  9  1  0
  7 10  1  0
 10 11  1  0
 10 12  1  0
 10 13  1  0
  2 14  1  0
 14 15  2  0
 15 16  1  0
 15 17  1  0
 17 18  1  0
 17 19  2  0
 19 20  1  0
 19 21  1  0
 21 22  1  0
 21 23  2  0
 23 24  1  0
 23 14  1  0
M  CHG  1   6  -1
M  END
>  <UniqueID>  (44) 
40

>  <SMILES>  (44) 
CC/C(=C\c1ccccc1Cl)C(=O)[O-]

>  <Energy>  (44) 
28.185926881173284

>  <Genealogy>  (44) 
CCC(=Cc1ccccc1Cl)C(=O)[O-] (protonated)
CC/C(=C\c1ccccc1Cl)C(=O)[O-] (cis-trans isomerization)
CC/C(=C\c1ccccc1Cl)C(=O)[O-] (3D coordinates assigned)
CC/C(=C\c1ccccc1Cl)C(=O)[O-] (optimized conformer: 28.185926881173284 kcal/mol)

>  <smiles>  (44) 
CCC(=Cc1ccccc1Cl)C(=O)O

>  <score_type>  (44) 
oracle

>  <origin>  (44) 
adg

>  <m_score__min__energy>  (44) 
-9.2100000000000009

>  <m_primary>  (44) 
energy

$$$$
44:0
     RDKit          3D

 50 50  0  0  0  0  0  0  0  0999 V2000
   59.5960   27.1180   46.7160 C   0  0  0  0  0  0  0  0  0  0  0  0
   58.0920   27.0620   46.9720 C   0  0  0  0  0  0  0  0  0  0  0  0
   57.3140   26.8930   45.6580 C   0  0  0  0  0  0  0  0  0  0  0  0
   58.2330   26.8560   44.4250 C   0  0  0  0  0  0  0  0  0  0  0  0
   57.7710   27.7670   43.3650 N   0  0  0  0  0  0  0  0  0  0  0  0
   57.6710   29.1100   43.8800 C   0  0  0  0  0  0  0  0  0  0  0  0
   56.5070   29.8680   43.6670 C   0  0  0  0  0  0  0  0  0  0  0  0
   56.4180   31.1790   44.1440 C   0  0  0  0  0  0  0  0  0  0  0  0
   57.4940   31.7600   44.8360 C   0  0  0  0  0  0  0  0  0  0  0  0
   57.3980   33.1520   45.3290 C   0  0  0  0  0  0  0  0  0  0  0  0
   56.7520   33.4050   46.3830 O   0  0  0  0  0  0  0  0  0  0  0  0
   58.0370   34.1850   44.6290 O   0  0  0  0  0  0  0  0  0  0  0  0
   59.2920   34.7430   45.0170 C   0  0  0  0  0  0  0  0  0  0  0  0
   59.3600   34.9390   46.5330 C   0  0  0  0  0  0  0  0  0  0  0  0
   59.9700   33.7540   47.1800 N   0  0  0  0  0  0  0  0  0  0  0  0
   59.3470   33.4250   48.4840 C   0  0  0  0  0  0  0  0  0  0  0  0
   58.7920   31.9960   48.5670 C   0  0  0  0  0  0  0  0  0  0  0  0
   61.4500   33.8320   47.2070 C   0  0  0  0  0  0  0  0  0  0  0  0
   62.0930   32.4490   47.1220 C   0  0  0  0  0  0  0  0  0  0  0  0
   58.6650   31.0070   45.0330 C   0  0  0  0  0  0  0  0  0  0  0  0
   58.7540   29.6960   44.5570 C   0  0  0  0  0  0  0  0  0  0  0  0
   60.1310   27.1379   47.6769 H   0  0  0  0  0  0  0  0  0  0  0  0
   59.9038   26.2307   46.1433 H   0  0  0  0  0  0  0  0  0  0  0  0
   59.8369   28.0257   46.1433 H   0  0  0  0  0  0  0  0  0  0  0  0
   57.8713   26.2105   47.6324 H   0  0  0  0  0  0  0  0  0  0  0  0
   57.7820   28.0065   47.4430 H   0  0  0  0  0  0  0  0  0  0  0  0
   56.7474   25.9512   45.7031 H   0  0  0  0  0  0  0  0  0  0  0  0
   56.6492   27.7628   45.5511 H   0  0  0  0  0  0  0  0  0  0  0  0
   59.2479   27.1513   44.7296 H   0  0  0  0  0  0  0  0  0  0  0  0
   58.2203   25.8324   44.0225 H   0  0  0  0  0  0  0  0  0  0  0  0
   56.8380   27.4560   43.0070 H   0  0  0  0  0  0  0  0  0  0  0  0
   58.4450   27.7580   42.5650 H   0  0  0  0  0  0  0  0  0  0  0  0
   55.6601   29.4267   43.1212 H   0  0  0  0  0  0  0  0  0  0  0  0
   55.4990   31.7599   43.9764 H   0  0  0  0  0  0  0  0  0  0  0  0
   60.0993   34.0638   44.7056 H   0  0  0  0  0  0  0  0  0  0  0  0
   59.4045   35.7236   44.5315 H   0  0  0  0  0  0  0  0  0  0  0  0
   59.9686   35.8276   46.7567 H   0  0  0  0  0  0  0  0  0  0  0  0
   58.3396   35.0722   46.9217 H   0  0  0  0  0  0  0  0  0  0  0  0
   60.1058   33.5478   49.2709 H   0  0  0  0  0  0  0  0  0  0  0  0
   58.4927   34.1064   48.6100 H   0  0  0  0  0  0  0  0  0  0  0  0
   58.6797   31.7070   49.6224 H   0  0  0  0  0  0  0  0  0  0  0  0
   57.8121   31.9537   48.0690 H   0  0  0  0  0  0  0  0  0  0  0  0
   59.4865   31.3034   48.0690 H   0  0  0  0  0  0  0  0  0  0  0  0
   61.7903   34.4359   46.3529 H   0  0  0  0  0  0  0  0  0  0  0  0
   61.7507   34.2907   48.1605 H   0  0  0  0  0  0  0  0  0  0  0  0
   62.2717   32.0647   48.1371 H   0  0  0  0  0  0  0  0  0  0  0  0
   61.4208   31.7645   46.5839 H   0  0  0  0  0  0  0  0  0  0  0  0
   63.0496   32.5218   46.5839 H   0  0  0  0  0  0  0  0  0  0  0  0
   59.5176   31.4532   45.5659 H   0  0  0  0  0  0  0  0  0  0  0  0
   59.6776   29.1193   44.7133 H   0  0  0  0  0  0  0  0  0  0  0  0
  1  2  1  0
  2  3  1  0
  3  4  1  0
  4  5  1  0
  5  6  1  0
  6  7  2  0
  7  8  1  0
  8  9  2  0
  9 10  1  0
 10 11  2  0
 10 12  1  0
 12 13  1  0
 13 14  1  0
 14 15  1  0
 15 16  1  0
 16 17  1  0
 15 18  1  0
 18 19  1  0
  9 20  1  0
 20 21  2  0
 21  6  1  0
  1 22  1  0
  1 23  1  0
  1 24  1  0
  2 25  1  0
  2 26  1  0
  3 27  1  0
  3 28  1  0
  4 29  1  0
  4 30  1  0
  5 31  1  0
  5 32  1  0
  7 33  1  0
  8 34  1  0
 13 35  1  0
 13 36  1  0
 14 37  1  0
 14 38  1  0
 16 39  1  0
 16 40  1  0
 17 41  1  0
 17 42  1  0
 17 43  1  0
 18 44  1  0
 18 45  1  0
 19 46  1  0
 19 47  1  0
 19 48  1  0
 20 49  1  0
 21 50  1  0
M  CHG  1   5   1
M  END
>  <UniqueID>  (45) 
41

>  <SMILES>  (45) 
CCCC[NH2+]c1ccc(C(=O)OCCN(CC)CC)cc1

>  <Energy>  (45) 
41.117633887755005

>  <Genealogy>  (45) 
CCCC[NH2+]c1ccc(C(=O)OCCN(CC)CC)cc1 (protonated)
CCCC[NH2+]c1ccc(C(=O)OCCN(CC)CC)cc1 (3D coordinates assigned)
CCCC[NH2+]c1ccc(C(=O)OCCN(CC)CC)cc1 (optimized conformer: 41.117633887755005 kcal/mol)

>  <smiles>  (45) 
CCCCNc1ccc(C(=O)OCCN(CC)CC)cc1

>  <score_type>  (45) 
oracle

>  <origin>  (45) 
adg

>  <m_score__min__energy>  (45) 
-4.8200000000000003

>  <m_primary>  (45) 
energy

$$$$
45:0
     RDKit          3D

 68 67  0  0  0  0  0  0  0  0999 V2000
   57.0770   28.7930   45.0600 C   0  0  0  0  0  0  0  0  0  0  0  0
   57.9000   29.9640   44.5210 C   0  0  0  0  0  0  0  0  0  0  0  0
   57.0470   31.2090   44.2210 C   0  0  0  0  0  0  0  0  0  0  0  0
   57.8530   32.4900   43.9470 C   0  0  0  0  0  0  0  0  0  0  0  0
   57.8270   33.4750   45.1300 C   0  0  0  0  0  0  0  0  0  0  0  0
   58.8550   34.6080   44.9730 C   0  0  0  0  0  0  0  0  0  0  0  0
   59.6300   34.8810   46.2740 C   0  0  0  0  0  0  0  0  0  0  0  0
   60.8900   34.0080   46.4210 C   0  0  0  0  0  0  0  0  0  0  0  0
   61.4520   33.8530   47.8550 C   0  0  0  0  0  0  0  0  0  0  0  0
   61.9080   32.4920   48.2640 N   0  0  2  0  0  0  0  0  0  0  0  0
   62.9280   32.4990   49.3570 C   0  0  0  0  0  0  0  0  0  0  0  0
   62.7310   31.4580   50.4840 C   0  0  0  0  0  0  0  0  0  0  0  0
   61.5880   30.5930   50.2050 N   0  0  0  0  0  0  0  0  0  0  0  0
   62.1780   31.5780   47.1210 C   0  0  0  0  0  0  0  0  0  0  0  0
   61.1110   30.4690   46.9970 C   0  0  0  0  0  0  0  0  0  0  0  0
   60.0460   30.5950   48.0210 N   0  0  0  0  0  0  0  0  0  0  0  0
   59.5910   29.3080   48.6040 C   0  0  0  0  0  0  0  0  0  0  0  0
   59.5640   28.1460   47.6020 C   0  0  0  0  0  0  0  0  0  0  0  0
   58.9160   31.4270   47.5410 C   0  0  0  0  0  0  0  0  0  0  0  0
   58.5500   32.4760   48.5970 C   0  0  0  0  0  0  0  0  0  0  0  0
   59.2410   32.2180   49.8780 N   0  0  0  0  0  0  0  0  0  0  0  0
   58.3650   31.4570   50.7830 C   0  0  0  0  0  0  0  0  0  0  0  0
   59.6410   33.4780   50.5290 C   0  0  0  0  0  0  0  0  0  0  0  0
   57.0899   28.8113   46.1598 H   0  0  0  0  0  0  0  0  0  0  0  0
   56.0398   28.8792   44.7039 H   0  0  0  0  0  0  0  0  0  0  0  0
   57.5094   27.8463   44.7039 H   0  0  0  0  0  0  0  0  0  0  0  0
   58.6606   30.2319   45.2691 H   0  0  0  0  0  0  0  0  0  0  0  0
   58.3538   29.6392   43.5731 H   0  0  0  0  0  0  0  0  0  0  0  0
   56.4302   30.9964   43.3354 H   0  0  0  0  0  0  0  0  0  0  0  0
   56.4527   31.4037   45.1260 H   0  0  0  0  0  0  0  0  0  0  0  0
   58.8977   32.2115   43.7443 H   0  0  0  0  0  0  0  0  0  0  0  0
   57.3910   32.9944   43.0855 H   0  0  0  0  0  0  0  0  0  0  0  0
   56.8221   33.9170   45.1995 H   0  0  0  0  0  0  0  0  0  0  0  0
   58.0842   32.9128   46.0399 H   0  0  0  0  0  0  0  0  0  0  0  0
   59.5718   34.3283   44.1869 H   0  0  0  0  0  0  0  0  0  0  0  0
   58.3065   35.5247   44.7106 H   0  0  0  0  0  0  0  0  0  0  0  0
   59.9333   35.9383   46.2855 H   0  0  0  0  0  0  0  0  0  0  0  0
   58.9611   34.6353   47.1120 H   0  0  0  0  0  0  0  0  0  0  0  0
   60.6474   33.0030   46.0454 H   0  0  0  0  0  0  0  0  0  0  0  0
   61.6753   34.5273   45.8522 H   0  0  0  0  0  0  0  0  0  0  0  0
   62.3119   34.5325   47.9490 H   0  0  0  0  0  0  0  0  0  0  0  0
   60.6045   34.0800   48.5185 H   0  0  0  0  0  0  0  0  0  0  0  0
   61.0480   32.1050   48.7230 H   0  0  0  0  0  0  0  0  0  0  0  0
   63.9112   32.3155   48.8992 H   0  0  0  0  0  0  0  0  0  0  0  0
   62.8301   33.4806   49.8436 H   0  0  0  0  0  0  0  0  0  0  0  0
   63.6377   30.8405   50.5656 H   0  0  0  0  0  0  0  0  0  0  0  0
   62.5428   31.9936   51.4262 H   0  0  0  0  0  0  0  0  0  0  0  0
   60.7580   31.2060   50.0400 H   0  0  0  0  0  0  0  0  0  0  0  0
   61.7690   30.0920   49.3060 H   0  0  0  0  0  0  0  0  0  0  0  0
   62.1874   32.1662   46.1915 H   0  0  0  0  0  0  0  0  0  0  0  0
   63.1497   31.0937   47.2979 H   0  0  0  0  0  0  0  0  0  0  0  0
   60.6515   30.5303   45.9995 H   0  0  0  0  0  0  0  0  0  0  0  0
   61.6120   29.5017   47.1501 H   0  0  0  0  0  0  0  0  0  0  0  0
   60.2712   29.0406   49.4261 H   0  0  0  0  0  0  0  0  0  0  0  0
   58.5561   29.4600   48.9443 H   0  0  0  0  0  0  0  0  0  0  0  0
   59.5418   27.1914   48.1481 H   0  0  0  0  0  0  0  0  0  0  0  0
   58.6675   28.2277   46.9698 H   0  0  0  0  0  0  0  0  0  0  0  0
   60.4633   28.1860   46.9698 H   0  0  0  0  0  0  0  0  0  0  0  0
   59.2075   31.9344   46.6096 H   0  0  0  0  0  0  0  0  0  0  0  0
   58.0449   30.7808   47.3577 H   0  0  0  0  0  0  0  0  0  0  0  0
   58.8401   33.4709   48.2283 H   0  0  0  0  0  0  0  0  0  0  0  0
   57.4654   32.4251   48.7732 H   0  0  0  0  0  0  0  0  0  0  0  0
   58.6282   31.6857   51.8263 H   0  0  0  0  0  0  0  0  0  0  0  0
   57.3170   31.7363   50.5996 H   0  0  0  0  0  0  0  0  0  0  0  0
   58.4950   30.3802   50.5996 H   0  0  0  0  0  0  0  0  0  0  0  0
   59.6019   33.3548   51.6214 H   0  0  0  0  0  0  0  0  0  0  0  0
   60.6659   33.7381   50.2258 H   0  0  0  0  0  0  0  0  0  0  0  0
   58.9538   34.2816   50.2258 H   0  0  0  0  0  0  0  0  0  0  0  0
  1  2  1  0
  2  3  1  0
  3  4  1  0
  4  5  1  0
  5  6  1  0
  6  7  1  0
  7  8  1  0
  8  9  1  0
  9 10  1  0
 10 11  1  0
 11 12  1  0
 12 13  1  0
 10 14  1  0
 14 15  1  0
 15 16  1  0
 16 17  1  0
 17 18  1  0
 16 19  1  0
 19 20  1  0
 20 21  1  0
 21 22  1  0
 21 23  1  0
  1 24  1  0
  1 25  1  0
  1 26  1  0
  2 27  1  0
  2 28  1  0
  3 29  1  0
  3 30  1  0
  4 31  1  0
  4 32  1  0
  5 33  1  0
  5 34  1  0
  6 35  1  0
  6 36  1  0
  7 37  1  0
  7 38  1  0
  8 39  1  0
  8 40  1  0
  9 41  1  0
  9 42  1  0
 10 43  1  1
 11 44  1  0
 11 45  1  0
 12 46  1  0
 12 47  1  0
 13 48  1  0
 13 49  1  0
 14 50  1  0
 14 51  1  0
 15 52  1  0
 15 53  1  0
 17 54  1  0
 17 55  1  0
 18 56  1  0
 18 57  1  0
 18 58  1  0
 19 59  1  0
 19 60  1  0
 20 61  1  0
 20 62  1  0
 22 63  1  0
 22 64  1  0
 22 65  1  0
 23 66  1  0
 23 67  1  0
 23 68  1  0
M  CHG  1  10   1
M  END
>  <UniqueID>  (46) 
42

>  <SMILES>  (46) 
CCCCCCCCC[N@H+](CCN)CCN(CC)CCN(C)C

>  <Energy>  (46) 
64.07228025206341

>  <Genealogy>  (46) 
CCCCCCCCC[NH+](CCN)CCN(CC)CCN(C)C (protonated)
CCCCCCCCC[N@H+](CCN)CCN(CC)CCN(C)C (chirality)
CCCCCCCCC[N@H+](CCN)CCN(CC)CCN(C)C (3D coordinates assigned)
CCCCCCCCC[N@H+](CCN)CCN(CC)CCN(C)C (optimized conformer: 64.07228025206341 kcal/mol)

>  <smiles>  (46) 
CCCCCCCCCN(CCN)CCN(CC)CCN(C)C

>  <score_type>  (46) 
oracle

>  <origin>  (46) 
adg

>  <m_score__min__energy>  (46) 
-2.4199999999999999

>  <m_primary>  (46) 
energy

$$$$
46:0
     RDKit          3D

 45 47  0  0  0  0  0  0  0  0999 V2000
   58.1180   28.3750   44.0480 C   0  0  0  0  0  0  0  0  0  0  0  0
   57.4570   29.6370   43.4840 C   0  0  1  0  0  0  0  0  0  0  0  0
   55.9330   29.5970   43.6950 C   0  0  0  0  0  0  0  0  0  0  0  0
   55.5390   30.4760   44.7940 N   0  0  0  0  0  0  0  0  0  0  0  0
   58.0580   30.8680   44.1200 C   0  0  0  0  0  0  0  0  0  0  0  0
   57.8160   32.0040   43.6270 O   0  0  0  0  0  0  0  0  0  0  0  0
   58.9160   30.7430   45.2640 N   0  0  0  0  0  0  0  0  0  0  0  0
   59.4900   31.9100   45.9500 C   0  0  1  0  0  0  0  0  0  0  0  0
   58.4190   32.7280   46.6420 C   0  0  0  0  0  0  0  0  0  0  0  0
   57.2190   32.7120   46.2570 O   0  0  0  0  0  0  0  0  0  0  0  0
   58.8320   33.6070   47.7030 N   0  0  0  0  0  0  0  0  0  0  0  0
   59.8170   34.6490   47.3550 C   0  0  2  0  0  0  0  0  0  0  0  0
   59.6120   35.2270   46.0120 C   0  0  0  0  0  0  0  0  0  0  0  0
   59.4500   35.6790   44.9580 N   0  0  0  0  0  0  0  0  0  0  0  0
   61.1950   33.9570   47.5110 C   0  0  0  0  0  0  0  0  0  0  0  0
   60.8540   32.5660   48.1100 C   0  0  2  0  0  0  0  0  0  0  0  0
   60.6650   31.5310   46.9340 C   0  0  1  0  0  0  0  0  0  0  0  0
   60.6060   30.1130   47.3600 N   0  0  0  0  0  0  0  0  0  0  0  0
   60.0420   29.8340   48.6850 C   0  0  0  0  0  0  0  0  0  0  0  0
   58.6420   30.4220   48.8600 C   0  0  0  0  0  0  0  0  0  0  0  0
   58.6800   31.8120   49.4900 C   0  0  0  0  0  0  0  0  0  0  0  0
   59.5170   32.9070   48.7810 C   0  0  2  0  0  0  0  0  0  0  0  0
   58.0991   28.4112   45.1472 H   0  0  0  0  0  0  0  0  0  0  0  0
   57.5691   27.4872   43.7008 H   0  0  0  0  0  0  0  0  0  0  0  0
   59.1604   28.3206   43.7008 H   0  0  0  0  0  0  0  0  0  0  0  0
   57.6451   29.6774   42.4010 H   0  0  0  0  0  0  0  0  0  0  0  0
   55.4323   29.9260   42.7725 H   0  0  0  0  0  0  0  0  0  0  0  0
   55.6380   28.5669   43.9437 H   0  0  0  0  0  0  0  0  0  0  0  0
   56.1330   31.3350   44.7430 H   0  0  0  0  0  0  0  0  0  0  0  0
   54.5550   30.7910   44.6310 H   0  0  0  0  0  0  0  0  0  0  0  0
   59.0120   29.7960   45.6910 H   0  0  0  0  0  0  0  0  0  0  0  0
   59.9400   32.5393   45.1681 H   0  0  0  0  0  0  0  0  0  0  0  0
   59.7219   35.5245   48.0142 H   0  0  0  0  0  0  0  0  0  0  0  0
   61.6915   33.8510   46.5352 H   0  0  0  0  0  0  0  0  0  0  0  0
   61.8868   34.5315   48.1444 H   0  0  0  0  0  0  0  0  0  0  0  0
   61.6011   32.1183   48.7818 H   0  0  0  0  0  0  0  0  0  0  0  0
   61.5985   31.6167   46.3585 H   0  0  0  0  0  0  0  0  0  0  0  0
   61.5750   29.7170   47.3500 H   0  0  0  0  0  0  0  0  0  0  0  0
   59.9867   28.7440   48.8227 H   0  0  0  0  0  0  0  0  0  0  0  0
   60.6978   30.3030   49.4333 H   0  0  0  0  0  0  0  0  0  0  0  0
   58.1605   30.4923   47.8735 H   0  0  0  0  0  0  0  0  0  0  0  0
   58.0770   29.7596   49.5323 H   0  0  0  0  0  0  0  0  0  0  0  0
   57.6433   32.1757   49.5439 H   0  0  0  0  0  0  0  0  0  0  0  0
   59.1831   31.6630   50.4568 H   0  0  0  0  0  0  0  0  0  0  0  0
   59.6948   33.4806   49.7026 H   0  0  0  0  0  0  0  0  0  0  0  0
  1  2  1  0
  2  3  1  0
  3  4  1  0
  2  5  1  0
  5  6  2  0
  5  7  1  0
  7  8  1  0
  8  9  1  0
  9 10  2  0
  9 11  1  0
 11 12  1  0
 12 13  1  0
 13 14  3  0
 12 15  1  0
 15 16  1  0
 16 17  1  0
 17 18  1  0
 18 19  1  0
 19 20  1  0
 20 21  1  0
 21 22  1  0
 17  8  1  0
 22 11  1  0
 22 16  1  0
  1 23  1  0
  1 24  1  0
  1 25  1  0
  2 26  1  6
  3 27  1  0
  3 28  1  0
  4 29  1  0
  4 30  1  0
  7 31  1  0
  8 32  1  6
 12 33  1  1
 15 34  1  0
 15 35  1  0
 16 36  1  1
 17 37  1  6
 18 38  1  0
 19 39  1  0
 19 40  1  0
 20 41  1  0
 20 42  1  0
 21 43  1  0
 21 44  1  0
 22 45  1  1
M  END
>  <UniqueID>  (47) 
43

>  <SMILES>  (47) 
C[C@@H](CN)C(=O)N[C@H]1C(=O)N2C(C#N)CC3C1NCCCC32

>  <Energy>  (47) 
96.19168563425345

>  <Genealogy>  (47) 
C[C@@H](CN)C(=O)N[C@H]1C(=O)N2C(C#N)CC3C1NCCCC32 (chirality)
C[C@@H](CN)C(=O)N[C@H]1C(=O)N2C(C#N)CC3C1NCCCC32 (3D coordinates assigned)
C[C@@H](CN)C(=O)N[C@H]1C(=O)N2C(C#N)CC3C1NCCCC32 (nonaromatic ring conformer: 96.19168563425345 kcal/mol)

>  <smiles>  (47) 
CC(CN)C(=O)NC1C(=O)N2C(C#N)CC3C1NCCCC32

>  <score_type>  (47) 
oracle

>  <origin>  (47) 
adg

>  <m_score__min__energy>  (47) 
-5.5999999999999996

>  <m_primary>  (47) 
energy

$$$$
47:0
     RDKit          3D

 51 54  0  0  0  0  0  0  0  0999 V2000
   56.8320   30.2930   44.2950 C   0  0  0  0  0  0  0  0  0  0  0  0
   57.0040   29.6790   45.5690 O   0  0  0  0  0  0  0  0  0  0  0  0
   57.6840   28.4710   45.7910 C   0  0  0  0  0  0  0  0  0  0  0  0
   57.2190   27.2570   45.2420 C   0  0  0  0  0  0  0  0  0  0  0  0
   57.8770   26.0570   45.5130 C   0  0  0  0  0  0  0  0  0  0  0  0
   59.0040   26.0470   46.3340 C   0  0  0  0  0  0  0  0  0  0  0  0
   59.4830   27.2400   46.8780 C   0  0  0  0  0  0  0  0  0  0  0  0
   58.8440   28.4620   46.6020 C   0  0  0  0  0  0  0  0  0  0  0  0
   59.4020   29.7020   47.1920 C   0  0  0  0  0  0  0  0  0  0  0  0
   58.7570   30.5940   48.0300 C   0  0  0  0  0  0  0  0  0  0  0  0
   59.6080   31.5950   48.3100 N   0  0  0  0  0  0  0  0  0  0  0  0
   59.3800   32.6600   49.2900 C   0  0  0  0  0  0  0  0  0  0  0  0
   59.3140   34.0300   48.5850 C   0  0  0  0  0  0  0  0  0  0  0  0
   59.0870   33.9600   47.1240 N   0  0  0  0  0  0  0  0  0  0  0  0
   59.5940   35.1280   46.3820 C   0  0  0  0  0  0  0  0  0  0  0  0
   59.3030   34.9690   44.8760 C   0  0  0  0  0  0  0  0  0  0  0  0
   58.8300   33.6690   44.5770 O   0  0  0  0  0  0  0  0  0  0  0  0
   57.5920   33.4460   45.2300 C   0  0  0  0  0  0  0  0  0  0  0  0
   57.6940   33.6550   46.7560 C   0  0  0  0  0  0  0  0  0  0  0  0
   60.7480   31.2960   47.6430 C   0  0  0  0  0  0  0  0  0  0  0  0
   61.9980   32.0760   47.7120 C   0  0  0  0  0  0  0  0  0  0  0  0
   62.9480   31.8310   48.7140 C   0  0  0  0  0  0  0  0  0  0  0  0
   64.1280   32.5770   48.7380 C   0  0  0  0  0  0  0  0  0  0  0  0
   64.3450   33.5430   47.8060 N   0  0  0  0  0  0  0  0  0  0  0  0
   63.4310   33.8150   46.8370 C   0  0  0  0  0  0  0  0  0  0  0  0
   62.2370   33.0920   46.7780 C   0  0  0  0  0  0  0  0  0  0  0  0
   60.6540   30.1420   46.9480 N   0  0  0  0  0  0  0  0  0  0  0  0
   56.5376   31.3441   44.4313 H   0  0  0  0  0  0  0  0  0  0  0  0
   57.7777   30.2468   43.7350 H   0  0  0  0  0  0  0  0  0  0  0  0
   56.0480   29.7622   43.7350 H   0  0  0  0  0  0  0  0  0  0  0  0
   56.3297   27.2568   44.5946 H   0  0  0  0  0  0  0  0  0  0  0  0
   57.5061   25.1171   45.0782 H   0  0  0  0  0  0  0  0  0  0  0  0
   59.5160   25.0984   46.5531 H   0  0  0  0  0  0  0  0  0  0  0  0
   60.3694   27.2241   47.5292 H   0  0  0  0  0  0  0  0  0  0  0  0
   57.7262   30.4999   48.4024 H   0  0  0  0  0  0  0  0  0  0  0  0
   58.4302   32.4748   49.8130 H   0  0  0  0  0  0  0  0  0  0  0  0
   60.2112   32.6677   50.0104 H   0  0  0  0  0  0  0  0  0  0  0  0
   58.4917   34.6072   49.0329 H   0  0  0  0  0  0  0  0  0  0  0  0
   60.2980   34.5011   48.7257 H   0  0  0  0  0  0  0  0  0  0  0  0
   59.0993   36.0374   46.7537 H   0  0  0  0  0  0  0  0  0  0  0  0
   60.6811   35.2042   46.5316 H   0  0  0  0  0  0  0  0  0  0  0  0
   58.5409   35.7045   44.5789 H   0  0  0  0  0  0  0  0  0  0  0  0
   60.2395   35.1330   44.3227 H   0  0  0  0  0  0  0  0  0  0  0  0
   56.8464   34.1462   44.8252 H   0  0  0  0  0  0  0  0  0  0  0  0
   57.2978   32.4014   45.0503 H   0  0  0  0  0  0  0  0  0  0  0  0
   57.0455   34.4919   47.0544 H   0  0  0  0  0  0  0  0  0  0  0  0
   57.3741   32.7373   47.2712 H   0  0  0  0  0  0  0  0  0  0  0  0
   62.7651   31.0577   49.4746 H   0  0  0  0  0  0  0  0  0  0  0  0
   64.8841   32.3827   49.5130 H   0  0  0  0  0  0  0  0  0  0  0  0
   63.6318   34.6052   46.0986 H   0  0  0  0  0  0  0  0  0  0  0  0
   61.4898   33.3191   46.0034 H   0  0  0  0  0  0  0  0  0  0  0  0
  1  2  1  0
  2  3  1  0
  3  4  2  0
  4  5  1  0
  5  6  2  0
  6  7  1  0
  7  8  2  0
  8  9  1  0
  9 10  2  0
 10 11  1  0
 11 12  1  0
 12 13  1  0
 13 14  1  0
 14 15  1  0
 15 16  1  0
 16 17  1  0
 17 18  1  0
 18 19  1  0
 11 20  1  0
 20 21  1  0
 21 22  2  0
 22 23  1  0
 23 24  2  0
 24 25  1  0
 25 26  2  0
 20 27  2  0
  8  3  1  0
 27  9  1  0
 19 14  1  0
 26 21  1  0
  1 28  1  0
  1 29  1  0
  1 30  1  0
  4 31  1  0
  5 32  1  0
  6 33  1  0
  7 34  1  0
 10 35  1  0
 12 36  1  0
 12 37  1  0
 13 38  1  0
 13 39  1  0
 15 40  1  0
 15 41  1  0
 16 42  1  0
 16 43  1  0
 18 44  1  0
 18 45  1  0
 19 46  1  0
 19 47  1  0
 22 48  1  0
 23 49  1  0
 25 50  1  0
 26 51  1  0
M  END
>  <UniqueID>  (48) 
44

>  <SMILES>  (48) 
COc1ccccc1-c1cn(CCN2CCOCC2)c(-c2ccncc2)n1

>  <Energy>  (48) 
103.50330604320104

>  <Genealogy>  (48) 
COc1ccccc1-c1cn(CCN2CCOCC2)c(-c2ccncc2)n1 (3D coordinates assigned)
COc1ccccc1-c1cn(CCN2CCOCC2)c(-c2ccncc2)n1 (nonaromatic ring conformer: 103.50330604320104 kcal/mol)

>  <smiles>  (48) 
COc1ccccc1-c1cn(CCN2CCOCC2)c(-c2ccncc2)n1

>  <score_type>  (48) 
oracle

>  <origin>  (48) 
adg

>  <m_score__min__energy>  (48) 
-7.3099999999999996

>  <m_primary>  (48) 
energy

$$$$
48:0
     RDKit          3D

 40 41  0  0  0  0  0  0  0  0999 V2000
   63.3890   31.9650   47.1260 C   0  0  0  0  0  0  0  0  0  0  0  0
   62.2530   32.2820   47.9940 N   0  0  0  0  0  0  0  0  0  0  0  0
   62.5170   33.4980   48.7760 C   0  0  0  0  0  0  0  0  0  0  0  0
   61.2230   34.2710   49.0810 C   0  0  0  0  0  0  0  0  0  0  0  0
   60.0230   33.5220   48.6650 N   0  0  0  0  0  0  0  0  0  0  0  0
   59.3390   33.8260   47.4270 C   0  0  0  0  0  0  0  0  0  0  0  0
   59.9410   34.6360   46.4440 C   0  0  0  0  0  0  0  0  0  0  0  0
   59.2730   34.9140   45.2470 C   0  0  0  0  0  0  0  0  0  0  0  0
   58.0000   34.3880   45.0150 C   0  0  0  0  0  0  0  0  0  0  0  0
   57.3930   33.5820   45.9790 C   0  0  0  0  0  0  0  0  0  0  0  0
   58.0560   33.3000   47.1770 C   0  0  0  0  0  0  0  0  0  0  0  0
   59.4730   32.5220   49.5450 C   0  0  0  0  0  0  0  0  0  0  0  0
   59.5130   31.1560   49.1980 C   0  0  0  0  0  0  0  0  0  0  0  0
   60.1360   30.7790   47.9970 O   0  0  0  0  0  0  0  0  0  0  0  0
   59.5320   29.9740   46.9910 C   0  0  0  0  0  0  0  0  0  0  0  0
   58.9520   30.2060   50.0730 C   0  0  0  0  0  0  0  0  0  0  0  0
   58.3810   30.6080   51.2830 C   0  0  0  0  0  0  0  0  0  0  0  0
   57.8480   29.6830   52.1190 F   0  0  0  0  0  0  0  0  0  0  0  0
   58.3690   31.9580   51.6360 C   0  0  0  0  0  0  0  0  0  0  0  0
   57.8250   32.3450   52.8170 F   0  0  0  0  0  0  0  0  0  0  0  0
   58.9160   32.9130   50.7750 C   0  0  0  0  0  0  0  0  0  0  0  0
   58.9000   34.2210   51.1340 F   0  0  0  0  0  0  0  0  0  0  0  0
   64.2655   31.7204   47.7439 H   0  0  0  0  0  0  0  0  0  0  0  0
   63.1360   31.1031   46.4910 H   0  0  0  0  0  0  0  0  0  0  0  0
   63.6188   32.8333   46.4910 H   0  0  0  0  0  0  0  0  0  0  0  0
   62.0900   31.4710   48.6340 H   0  0  0  0  0  0  0  0  0  0  0  0
   61.4070   32.4280   47.3950 H   0  0  0  0  0  0  0  0  0  0  0  0
   62.9949   33.2144   49.7253 H   0  0  0  0  0  0  0  0  0  0  0  0
   63.1744   34.1508   48.1829 H   0  0  0  0  0  0  0  0  0  0  0  0
   61.1676   34.4583   50.1635 H   0  0  0  0  0  0  0  0  0  0  0  0
   61.2486   35.2143   48.5157 H   0  0  0  0  0  0  0  0  0  0  0  0
   60.9438   35.0529   46.6192 H   0  0  0  0  0  0  0  0  0  0  0  0
   59.7514   35.5485   44.4864 H   0  0  0  0  0  0  0  0  0  0  0  0
   57.4764   34.6089   44.0732 H   0  0  0  0  0  0  0  0  0  0  0  0
   56.3906   33.1676   45.7958 H   0  0  0  0  0  0  0  0  0  0  0  0
   57.5719   32.6619   47.9310 H   0  0  0  0  0  0  0  0  0  0  0  0
   58.9363   29.1801   47.4653 H   0  0  0  0  0  0  0  0  0  0  0  0
   58.8780   30.5988   46.3650 H   0  0  0  0  0  0  0  0  0  0  0  0
   60.3148   29.5208   46.3650 H   0  0  0  0  0  0  0  0  0  0  0  0
   58.9634   29.1400   49.8019 H   0  0  0  0  0  0  0  0  0  0  0  0
  1  2  1  0
  2  3  1  0
  3  4  1  0
  4  5  1  0
  5  6  1  0
  6  7  2  0
  7  8  1  0
  8  9  2  0
  9 10  1  0
 10 11  2  0
  5 12  1  0
 12 13  2  0
 13 14  1  0
 14 15  1  0
 13 16  1  0
 16 17  2  0
 17 18  1  0
 17 19  1  0
 19 20  1  0
 19 21  2  0
 21 22  1  0
 11  6  1  0
 21 12  1  0
  1 23  1  0
  1 24  1  0
  1 25  1  0
  2 26  1  0
  2 27  1  0
  3 28  1  0
  3 29  1  0
  4 30  1  0
  4 31  1  0
  7 32  1  0
  8 33  1  0
  9 34  1  0
 10 35  1  0
 11 36  1  0
 15 37  1  0
 15 38  1  0
 15 39  1  0
 16 40  1  0
M  CHG  1   2   1
M  END
>  <UniqueID>  (49) 
45

>  <SMILES>  (49) 
C[NH2+]CCN(c1ccccc1)c1c(OC)cc(F)c(F)c1F

>  <Energy>  (49) 
46.39105698859983

>  <Genealogy>  (49) 
C[NH2+]CCN(c1ccccc1)c1c(OC)cc(F)c(F)c1F (protonated)
C[NH2+]CCN(c1ccccc1)c1c(OC)cc(F)c(F)c1F (3D coordinates assigned)
C[NH2+]CCN(c1ccccc1)c1c(OC)cc(F)c(F)c1F (optimized conformer: 46.39105698859983 kcal/mol)

>  <smiles>  (49) 
CNCCN(c1ccccc1)c1c(OC)cc(F)c(F)c1F

>  <score_type>  (49) 
oracle

>  <origin>  (49) 
adg

>  <m_score__min__energy>  (49) 
-3.6400000000000001

>  <m_primary>  (49) 
energy

$$$$
