0:0
     RDKit          3D

 40 41  0  0  1  0  0  0  0  0999 V2000
   56.6070   29.4680   42.6440 C   0  0  0  0  0  0  0  0  0  0  0  0
   55.7550   29.7110   43.8780 C   0  0  0  0  0  0  0  0  0  0  0  0
   56.1810   30.7650   44.6500 O   0  0  0  0  0  0  0  0  0  0  0  0
   57.1510   31.5460   44.0470 C   0  0  0  0  0  0  0  0  0  0  0  0
   57.8250   32.3810   45.0950 C   0  0  0  0  0  0  0  0  0  0  0  0
   58.2840   31.8390   46.2790 C   0  0  0  0  0  0  0  0  0  0  0  0
   58.9020   32.6840   47.2030 C   0  0  0  0  0  0  0  0  0  0  0  0
   59.0660   34.0320   46.9700 C   0  0  0  0  0  0  0  0  0  0  0  0
   59.7170   34.9520   47.9320 C   0  0  0  0  0  0  0  0  0  0  0  0
   60.3500   34.1560   48.9800 N   0  0  0  0  0  0  0  0  0  0  0  0
   61.6140   33.8590   48.8940 C   0  0  0  0  0  0  0  0  0  0  0  0
   62.4530   33.8490   49.9880 C   0  0  0  0  0  0  0  0  0  0  0  0
   63.7890   33.5280   49.8580 C   0  0  0  0  0  0  0  0  0  0  0  0
   64.6700   33.5210   51.0350 C   0  0  0  0  0  0  0  0  0  0  0  0
   64.2690   33.2210   48.6300 N   0  0  0  0  0  0  0  0  0  0  0  0
   63.4570   33.2270   47.5460 C   0  0  0  0  0  0  0  0  0  0  0  0
   63.9670   32.9240   46.3820 N   0  0  0  0  0  0  0  0  0  0  0  0
   62.1590   33.5410   47.6860 N   0  0  0  0  0  0  0  0  0  0  0  0
   58.5900   34.5380   45.7640 C   0  0  0  0  0  0  0  0  0  0  0  0
   57.9730   33.7360   44.8240 C   0  0  0  0  0  0  0  0  0  0  0  0
   57.6228   29.1783   42.9510 H   0  0  0  0  0  0  0  0  0  0  0  0
   56.1612   28.6612   42.0437 H   0  0  0  0  0  0  0  0  0  0  0  0
   56.6539   30.3886   42.0437 H   0  0  0  0  0  0  0  0  0  0  0  0
   54.7241   29.9145   43.5526 H   0  0  0  0  0  0  0  0  0  0  0  0
   55.8306   28.8077   44.5012 H   0  0  0  0  0  0  0  0  0  0  0  0
   57.8934   30.8991   43.5567 H   0  0  0  0  0  0  0  0  0  0  0  0
   56.6874   32.1986   43.2925 H   0  0  0  0  0  0  0  0  0  0  0  0
   58.1655   30.7659   46.4896 H   0  0  0  0  0  0  0  0  0  0  0  0
   59.2702   32.2593   48.1485 H   0  0  0  0  0  0  0  0  0  0  0  0
   60.4775   35.5539   47.4130 H   0  0  0  0  0  0  0  0  0  0  0  0
   58.9687   35.6274   48.3723 H   0  0  0  0  0  0  0  0  0  0  0  0
   62.0511   34.1009   50.9805 H   0  0  0  0  0  0  0  0  0  0  0  0
   64.0595   33.5259   51.9500 H   0  0  0  0  0  0  0  0  0  0  0  0
   65.2977   32.6178   51.0178 H   0  0  0  0  0  0  0  0  0  0  0  0
   65.3120   34.4141   51.0178 H   0  0  0  0  0  0  0  0  0  0  0  0
   65.2710   32.9710   48.4720 H   0  0  0  0  0  0  0  0  0  0  0  0
   64.8570   32.3700   46.3480 H   0  0  0  0  0  0  0  0  0  0  0  0
   61.5640   33.5320   46.8070 H   0  0  0  0  0  0  0  0  0  0  0  0
   58.7090   35.6109   45.5528 H   0  0  0  0  0  0  0  0  0  0  0  0
   57.6056   34.1617   43.8786 H   0  0  0  0  0  0  0  0  0  0  0  0
  1  2  1  0
  2  3  1  0
  3  4  1  0
  4  5  1  0
  5  6  2  0
  6  7  1  0
  7  8  2  0
  8  9  1  0
  9 10  1  0
 10 11  2  0
 11 12  1  0
 12 13  2  0
 13 14  1  0
 13 15  1  0
 15 16  1  0
 16 17  2  3
 16 18  1  0
  8 19  1  0
 19 20  2  0
 20  5  1  0
 18 11  1  0
  1 21  1  0
  1 22  1  0
  1 23  1  0
  2 24  1  0
  2 25  1  0
  4 26  1  0
  4 27  1  0
  6 28  1  0
  7 29  1  0
  9 30  1  0
  9 31  1  0
 12 32  1  0
 14 33  1  0
 14 34  1  0
 14 35  1  0
 15 36  1  0
 17 37  1  0
 18 38  1  0
 19 39  1  0
 20 40  1  0
M  END
>  <smiles>  (1) 
CCOCc1ccc(CN=c2cc(C)[nH]c(=N)[nH]2)cc1

>  <score_type>  (1) 
oracle

>  <origin>  (1) 
adg

>  <m_score__min__energy>  (1) 
-7.5599999999999996

>  <m_primary>  (1) 
energy

$$$$
1:0
     RDKit          3D

 46 50  0  0  1  0  0  0  0  0999 V2000
   57.3950   29.4850   51.9080 N   0  0  0  0  0  0  0  0  0  0  0  0
   57.9930   30.4950   51.3710 C   0  0  0  0  0  0  0  0  0  0  0  0
   58.8660   31.2740   52.0260 N   0  0  0  0  0  0  0  0  0  0  0  0
   59.2980   32.2130   51.2080 N   0  0  0  0  0  0  0  0  0  0  0  0
   58.6860   32.0110   50.0280 C   0  0  0  0  0  0  0  0  0  0  0  0
   58.8930   32.8480   48.8270 C   0  0  0  0  0  0  0  0  0  0  0  0
   59.5130   34.0890   48.9390 C   0  0  0  0  0  0  0  0  0  0  0  0
   59.6570   34.7800   47.7840 N   0  0  0  0  0  0  0  0  0  0  0  0
   59.2290   34.3000   46.6060 C   0  0  0  0  0  0  0  0  0  0  0  0
   59.2880   34.8140   45.3710 N   0  0  0  0  0  0  0  0  0  0  0  0
   58.7330   33.9570   44.4930 C   0  0  0  0  0  0  0  0  0  0  0  0
   58.2810   32.8180   45.1690 C   0  0  0  0  0  0  0  0  0  0  0  0
   57.6630   31.7140   44.4890 C   0  0  0  0  0  0  0  0  0  0  0  0
   57.3200   31.6200   43.1730 C   0  0  0  0  0  0  0  0  0  0  0  0
   56.7460   30.4610   42.6210 C   0  0  0  0  0  0  0  0  0  0  0  0
   56.5190   29.3920   43.4040 N   0  0  0  0  0  0  0  0  0  0  0  0
   56.8660   29.5090   44.6960 C   0  0  0  0  0  0  0  0  0  0  0  0
   56.6600   28.4900   45.4820 N   0  0  0  0  0  0  0  0  0  0  0  0
   57.7620   27.6990   46.0080 C   0  0  0  0  0  0  0  0  0  0  0  0
   58.1490   28.2640   47.3580 C   0  0  0  0  0  0  0  0  0  0  0  0
   59.5630   28.8570   47.3010 C   0  0  0  0  0  0  0  0  0  0  0  0
   60.4620   27.8590   46.9260 O   0  0  0  0  0  0  0  0  0  0  0  0
   60.2360   27.4930   45.6210 C   0  0  0  0  0  0  0  0  0  0  0  0
   58.9260   27.9270   45.0490 C   0  0  0  0  0  0  0  0  0  0  0  0
   57.4120   30.6010   45.2410 N   0  0  0  0  0  0  0  0  0  0  0  0
   58.6060   33.0630   46.4770 C   0  0  0  0  0  0  0  0  0  0  0  0
   58.4490   32.3430   47.6270 C   0  0  0  0  0  0  0  0  0  0  0  0
   57.9050   30.9660   50.1610 O   0  0  0  0  0  0  0  0  0  0  0  0
   56.4010   29.3270   51.6210 H   0  0  0  0  0  0  0  0  0  0  0  0
   59.1920   31.2080   53.0180 H   0  0  0  0  0  0  0  0  0  0  0  0
   59.8636   34.4831   49.9043 H   0  0  0  0  0  0  0  0  0  0  0  0
   59.7100   35.7500   45.1550 H   0  0  0  0  0  0  0  0  0  0  0  0
   58.6479   34.1264   43.4095 H   0  0  0  0  0  0  0  0  0  0  0  0
   57.4993   32.4847   42.5171 H   0  0  0  0  0  0  0  0  0  0  0  0
   56.4839   30.4292   41.5532 H   0  0  0  0  0  0  0  0  0  0  0  0
   56.0940   28.5190   43.0230 H   0  0  0  0  0  0  0  0  0  0  0  0
   57.5012   26.6349   46.1062 H   0  0  0  0  0  0  0  0  0  0  0  0
   57.4357   29.0527   47.6394 H   0  0  0  0  0  0  0  0  0  0  0  0
   58.1297   27.4553   48.1035 H   0  0  0  0  0  0  0  0  0  0  0  0
   59.5906   29.6733   46.5642 H   0  0  0  0  0  0  0  0  0  0  0  0
   59.8392   29.2519   48.2898 H   0  0  0  0  0  0  0  0  0  0  0  0
   61.0360   27.9277   45.0037 H   0  0  0  0  0  0  0  0  0  0  0  0
   60.2189   26.3932   45.6145 H   0  0  0  0  0  0  0  0  0  0  0  0
   58.9829   28.9999   44.8130 H   0  0  0  0  0  0  0  0  0  0  0  0
   58.7391   27.3226   44.1491 H   0  0  0  0  0  0  0  0  0  0  0  0
   57.9656   31.3555   47.5934 H   0  0  0  0  0  0  0  0  0  0  0  0
  1  2  2  3
  2  3  1  0
  3  4  1  0
  4  5  2  0
  5  6  1  0
  6  7  2  0
  7  8  1  0
  8  9  2  0
  9 10  1  0
 10 11  1  0
 11 12  2  0
 12 13  1  0
 13 14  1  0
 14 15  2  0
 15 16  1  0
 16 17  1  0
 17 18  2  0
 18 19  1  0
 19 20  1  0
 20 21  1  0
 21 22  1  0
 22 23  1  0
 23 24  1  0
 17 25  1  0
 12 26  1  0
 26 27  2  0
  5 28  1  0
 28  2  1  0
 27  6  1  0
 26  9  1  0
 25 13  2  0
 24 19  1  0
  1 29  1  0
  3 30  1  0
  7 31  1  0
 10 32  1  0
 11 33  1  0
 14 34  1  0
 15 35  1  0
 16 36  1  0
 19 37  1  0
 20 38  1  0
 20 39  1  0
 21 40  1  0
 21 41  1  0
 23 42  1  0
 23 43  1  0
 24 44  1  0
 24 45  1  0
 27 46  1  0
M  END
>  <smiles>  (2) 
N=c1[nH]nc(-c2cnc3[nH]cc(-c4cc[nH]c(=NC5CCOCC5)n4)c3c2)o1

>  <score_type>  (2) 
oracle

>  <origin>  (2) 
adg

>  <m_score__min__energy>  (2) 
-8.6999999999999993

>  <m_primary>  (2) 
energy

$$$$
2:0
     RDKit          3D

 36 38  0  0  0  0  0  0  0  0999 V2000
   58.8000   30.1440   46.9180 C   0  0  0  0  0  0  0  0  0  0  0  0
   57.7750   30.8850   46.2660 O   0  0  0  0  0  0  0  0  0  0  0  0
   57.3920   30.7110   44.9270 C   0  0  0  0  0  0  0  0  0  0  0  0
   56.9730   29.4580   44.4340 C   0  0  0  0  0  0  0  0  0  0  0  0
   56.6020   29.3100   43.0960 C   0  0  0  0  0  0  0  0  0  0  0  0
   56.6420   30.4050   42.2330 C   0  0  0  0  0  0  0  0  0  0  0  0
   57.0530   31.6520   42.7050 C   0  0  0  0  0  0  0  0  0  0  0  0
   57.4270   31.8190   44.0500 C   0  0  0  0  0  0  0  0  0  0  0  0
   57.8900   33.1780   44.5130 C   0  0  0  0  0  0  0  0  0  0  0  0
   59.0390   33.0440   45.4050 N   0  0  0  0  0  0  0  0  0  0  0  0
   59.6590   34.1760   46.0340 C   0  0  0  0  0  0  0  0  0  0  0  0
   59.3010   35.3430   45.7160 O   0  0  0  0  0  0  0  0  0  0  0  0
   60.7160   34.0070   47.0480 C   0  0  0  0  0  0  0  0  0  0  0  0
   62.0260   33.5650   46.8270 C   0  0  0  0  0  0  0  0  0  0  0  0
   62.7750   33.5010   48.0060 C   0  0  0  0  0  0  0  0  0  0  0  0
   64.1100   33.0980   48.1140 C   0  0  0  0  0  0  0  0  0  0  0  0
   64.7130   33.0900   49.3830 C   0  0  0  0  0  0  0  0  0  0  0  0
   63.9840   33.4820   50.5240 C   0  0  0  0  0  0  0  0  0  0  0  0
   62.6450   33.8840   50.4040 C   0  0  0  0  0  0  0  0  0  0  0  0
   62.0690   33.8840   49.1360 C   0  0  0  0  0  0  0  0  0  0  0  0
   60.5060   34.3060   48.7030 S   0  0  0  0  0  0  0  0  0  0  0  0
   58.6790   30.2315   48.0078 H   0  0  0  0  0  0  0  0  0  0  0  0
   58.7305   29.0860   46.6251 H   0  0  0  0  0  0  0  0  0  0  0  0
   59.7829   30.5417   46.6251 H   0  0  0  0  0  0  0  0  0  0  0  0
   56.9381   28.5901   45.1090 H   0  0  0  0  0  0  0  0  0  0  0  0
   56.2775   28.3278   42.7218 H   0  0  0  0  0  0  0  0  0  0  0  0
   56.3493   30.2854   41.1794 H   0  0  0  0  0  0  0  0  0  0  0  0
   57.0847   32.5115   42.0192 H   0  0  0  0  0  0  0  0  0  0  0  0
   58.1772   33.7810   43.6390 H   0  0  0  0  0  0  0  0  0  0  0  0
   57.0699   33.6701   45.0564 H   0  0  0  0  0  0  0  0  0  0  0  0
   59.4170   32.0840   45.5650 H   0  0  0  0  0  0  0  0  0  0  0  0
   62.4219   33.2978   45.8361 H   0  0  0  0  0  0  0  0  0  0  0  0
   64.6772   32.7931   47.2222 H   0  0  0  0  0  0  0  0  0  0  0  0
   65.7619   32.7755   49.4869 H   0  0  0  0  0  0  0  0  0  0  0  0
   64.4667   33.4727   51.5124 H   0  0  0  0  0  0  0  0  0  0  0  0
   62.0660   34.1908   51.2875 H   0  0  0  0  0  0  0  0  0  0  0  0
  1  2  1  0
  2  3  1  0
  3  4  2  0
  4  5  1  0
  5  6  2  0
  6  7  1  0
  7  8  2  0
  8  9  1  0
  9 10  1  0
 10 11  1  0
 11 12  2  0
 11 13  1  0
 13 14  2  0
 14 15  1  0
 15 16  2  0
 16 17  1  0
 17 18  2  0
 18 19  1  0
 19 20  2  0
 20 21  1  0
  8  3  1  0
 21 13  1  0
 20 15  1  0
  1 22  1  0
  1 23  1  0
  1 24  1  0
  4 25  1  0
  5 26  1  0
  6 27  1  0
  7 28  1  0
  9 29  1  0
  9 30  1  0
 10 31  1  0
 14 32  1  0
 16 33  1  0
 17 34  1  0
 18 35  1  0
 19 36  1  0
M  END
>  <UniqueID>  (3) 
1

>  <SMILES>  (3) 
COc1ccccc1CNC(=O)c1cc2ccccc2s1

>  <Energy>  (3) 
66.96605993731725

>  <Genealogy>  (3) 
COc1ccccc1CNC(=O)c1cc2ccccc2s1 (3D coordinates assigned)
COc1ccccc1CNC(=O)c1cc2ccccc2s1 (optimized conformer: 66.96605993731725 kcal/mol)

>  <smiles>  (3) 
COc1ccccc1CNC(=O)c1cc2ccccc2s1

>  <score_type>  (3) 
oracle

>  <origin>  (3) 
adg

>  <m_score__min__energy>  (3) 
-7.1699999999999999

>  <m_primary>  (3) 
energy

$$$$
3:0
     RDKit          3D

 39 40  0  0  0  0  0  0  0  0999 V2000
   57.2418   29.1628   42.7255 H   0  0  0  0  0  0  0  0  0  0  0  0
   57.3130   29.2690   43.8180 C   0  0  0  0  0  0  0  0  0  0  0  0
   56.2260   29.9930   44.5000 C   0  0  0  0  0  0  0  0  0  0  0  0
   55.1940   29.3570   44.8470 O   0  0  0  0  0  0  0  0  0  0  0  0
   56.3660   31.3490   44.8250 O   0  0  0  0  0  0  0  0  0  0  0  0
   57.4090   32.1710   44.3100 C   0  0  0  0  0  0  0  0  0  0  0  0
   57.0510   32.6901   43.4087 H   0  0  0  0  0  0  0  0  0  0  0  0
   58.2741   31.5390   44.0608 H   0  0  0  0  0  0  0  0  0  0  0  0
   57.8240   33.1880   45.3370 C   0  0  0  0  0  0  0  0  0  0  0  0
   58.0090   34.3790   44.9750 O   0  0  0  0  0  0  0  0  0  0  0  0
   58.0870   32.8300   46.7010 N   0  0  0  0  0  0  0  0  0  0  0  0
   59.3300   33.0080   47.3920 C   0  0  0  0  0  0  0  0  0  0  0  0
   60.4680   33.3410   46.6490 C   0  0  0  0  0  0  0  0  0  0  0  0
   60.3928   33.4478   45.5568 H   0  0  0  0  0  0  0  0  0  0  0  0
   61.7030   33.5400   47.2820 C   0  0  0  0  0  0  0  0  0  0  0  0
   62.9280   33.8390   46.4710 C   0  0  0  0  0  0  0  0  0  0  0  0
   63.7726   34.0451   47.1449 H   0  0  0  0  0  0  0  0  0  0  0  0
   63.1681   32.9731   45.8365 H   0  0  0  0  0  0  0  0  0  0  0  0
   62.7421   34.7181   45.8365 H   0  0  0  0  0  0  0  0  0  0  0  0
   61.7950   33.3870   48.6710 C   0  0  0  0  0  0  0  0  0  0  0  0
   62.7681   33.5040   49.1703 H   0  0  0  0  0  0  0  0  0  0  0  0
   60.6600   33.0870   49.4260 C   0  0  0  0  0  0  0  0  0  0  0  0
   60.7412   32.9866   50.5184 H   0  0  0  0  0  0  0  0  0  0  0  0
   59.4110   32.9120   48.7980 C   0  0  0  0  0  0  0  0  0  0  0  0
   58.2410   32.6630   49.5330 O   0  0  0  0  0  0  0  0  0  0  0  0
   58.1920   31.9210   50.7470 C   0  0  0  0  0  0  0  0  0  0  0  0
   58.2377   32.6123   51.6014 H   0  0  0  0  0  0  0  0  0  0  0  0
   57.2541   31.3479   50.7888 H   0  0  0  0  0  0  0  0  0  0  0  0
   59.0464   31.2295   50.7888 H   0  0  0  0  0  0  0  0  0  0  0  0
   58.3820   28.7290   44.4210 C   0  0  0  0  0  0  0  0  0  0  0  0
   58.8938   27.9095   43.8952 H   0  0  0  0  0  0  0  0  0  0  0  0
   58.9320   29.1370   45.7270 C   0  0  0  0  0  0  0  0  0  0  0  0
   58.2400   29.0910   46.8420 O   0  0  0  0  0  0  0  0  0  0  0  0
   59.0130   29.4700   47.8340 C   0  0  0  0  0  0  0  0  0  0  0  0
   58.7029   29.5399   48.8871 H   0  0  0  0  0  0  0  0  0  0  0  0
   60.2720   29.7670   47.3560 C   0  0  0  0  0  0  0  0  0  0  0  0
   61.1372   30.1114   47.9414 H   0  0  0  0  0  0  0  0  0  0  0  0
   60.2270   29.5450   45.9960 C   0  0  0  0  0  0  0  0  0  0  0  0
   61.0489   29.6667   45.2751 H   0  0  0  0  0  0  0  0  0  0  0  0
  1  2  1  0
  2  3  1  0
  3  4  2  0
  3  5  1  0
  5  6  1  0
  6  7  1  0
  6  8  1  0
  6  9  1  0
  9 10  2  0
  9 11  1  0
 11 12  1  0
 12 13  2  0
 13 14  1  0
 13 15  1  0
 15 16  1  0
 16 17  1  0
 16 18  1  0
 16 19  1  0
 15 20  2  0
 20 21  1  0
 20 22  1  0
 22 23  1  0
 22 24  2  0
 24 25  1  0
 25 26  1  0
 26 27  1  0
 26 28  1  0
 26 29  1  0
  2 30  2  0
 30 31  1  0
 30 32  1  0
 32 33  1  0
 33 34  1  0
 34 35  1  0
 34 36  2  0
 36 37  1  0
 36 38  1  0
 38 39  1  0
 24 12  1  0
 38 32  2  0
M  CHG  1  11  -1
M  END
>  <UniqueID>  (4) 
2

>  <SMILES>  (4) 
COc1ccc(C)cc1[N-]C(=O)COC(=O)/C=C\c1ccco1

>  <Energy>  (4) 
73.0067964578778

>  <Genealogy>  (4) 
COc1ccc(C)cc1[N-]C(=O)COC(=O)C=Cc1ccco1 (protonated)
COc1ccc(C)cc1[N-]C(=O)COC(=O)/C=C\c1ccco1 (cis-trans isomerization)
COc1ccc(C)cc1[N-]C(=O)COC(=O)/C=C\c1ccco1 (3D coordinates assigned)
COc1ccc(C)cc1[N-]C(=O)COC(=O)/C=C\c1ccco1 (optimized conformer: 73.0067964578778 kcal/mol)

>  <smiles>  (4) 
COc1ccc(C)cc1NC(=O)COC(=O)C=Cc1ccco1

>  <score_type>  (4) 
oracle

>  <origin>  (4) 
adg

>  <m_score__min__energy>  (4) 
-9.8300000000000001

>  <m_primary>  (4) 
energy

$$$$
4:0
     RDKit          3D

 64 65  0  0  0  0  0  0  0  0999 V2000
   59.1260   33.7970   51.6110 C   0  0  0  0  0  0  0  0  0  0  0  0
   59.6300   33.4440   50.2120 C   0  0  0  0  0  0  0  0  0  0  0  0
   61.1570   33.5780   50.0690 C   0  0  0  0  0  0  0  0  0  0  0  0
   61.6290   34.2130   48.7460 C   0  0  0  0  0  0  0  0  0  0  0  0
   62.8030   33.4950   48.0490 C   0  0  0  0  0  0  0  0  0  0  0  0
   62.3770   32.5950   46.8800 C   0  0  0  0  0  0  0  0  0  0  0  0
   61.1690   31.8250   47.1920 C   0  0  0  0  0  0  0  0  0  0  0  0
   60.1840   31.1800   47.4550 C   0  0  0  0  0  0  0  0  0  0  0  0
   58.9710   30.3990   47.7630 C   0  0  2  0  0  0  0  0  0  0  0  0
   59.3350   29.3270   48.7700 C   0  0  0  0  0  0  0  0  0  0  0  0
   59.2570   29.6770   50.2150 C   0  0  0  0  0  0  0  0  0  0  0  0
   60.2990   29.9160   50.8840 O   0  0  0  0  0  0  0  0  0  0  0  0
   58.0070   29.7080   50.8430 O   0  0  0  0  0  0  0  0  0  0  0  0
   57.5620   30.8180   51.6140 C   0  0  0  0  0  0  0  0  0  0  0  0
   59.8220   28.1460   48.3060 C   0  0  0  0  0  0  0  0  0  0  0  0
   60.3940   27.0860   49.2030 C   0  0  0  0  0  0  0  0  0  0  0  0
   59.7860   27.8580   46.8970 N   0  0  0  0  0  0  0  0  0  0  0  0
   59.1570   28.5840   46.0200 C   0  0  0  0  0  0  0  0  0  0  0  0
   59.0940   28.0790   44.6080 C   0  0  0  0  0  0  0  0  0  0  0  0
   58.3420   29.7780   46.4900 C   0  0  2  0  0  0  0  0  0  0  0  0
   58.1320   30.8310   45.4280 C   0  0  0  0  0  0  0  0  0  0  0  0
   58.9880   30.9980   44.5140 O   0  0  0  0  0  0  0  0  0  0  0  0
   57.0210   31.6760   45.5220 O   0  0  0  0  0  0  0  0  0  0  0  0
   57.1160   33.0790   45.7750 C   0  0  0  0  0  0  0  0  0  0  0  0
   57.7170   33.8100   44.5460 C   0  0  0  0  0  0  0  0  0  0  0  0
   59.2370   33.9630   44.6570 C   0  0  0  0  0  0  0  0  0  0  0  0
   59.6360   34.7890   45.8960 C   0  0  0  0  0  0  0  0  0  0  0  0
   58.6440   34.6540   47.0680 C   0  0  0  0  0  0  0  0  0  0  0  0
   57.9450   33.2910   47.0620 C   0  0  0  0  0  0  0  0  0  0  0  0
   59.7827   33.3371   52.3642 H   0  0  0  0  0  0  0  0  0  0  0  0
   59.1315   34.8896   51.7379 H   0  0  0  0  0  0  0  0  0  0  0  0
   58.1010   33.4183   51.7379 H   0  0  0  0  0  0  0  0  0  0  0  0
   59.3474   32.4044   49.9900 H   0  0  0  0  0  0  0  0  0  0  0  0
   59.1709   34.1545   49.5088 H   0  0  0  0  0  0  0  0  0  0  0  0
   61.5250   34.2005   50.8979 H   0  0  0  0  0  0  0  0  0  0  0  0
   61.5603   32.5547   50.0826 H   0  0  0  0  0  0  0  0  0  0  0  0
   60.7764   34.2226   48.0510 H   0  0  0  0  0  0  0  0  0  0  0  0
   61.9987   35.2158   49.0062 H   0  0  0  0  0  0  0  0  0  0  0  0
   63.4959   34.2577   47.6641 H   0  0  0  0  0  0  0  0  0  0  0  0
   63.2691   32.8416   48.8012 H   0  0  0  0  0  0  0  0  0  0  0  0
   62.1792   33.2251   46.0003 H   0  0  0  0  0  0  0  0  0  0  0  0
   63.1926   31.8833   46.6842 H   0  0  0  0  0  0  0  0  0  0  0  0
   58.2096   31.0702   48.1869 H   0  0  0  0  0  0  0  0  0  0  0  0
   57.6564   30.5824   52.6843 H   0  0  0  0  0  0  0  0  0  0  0  0
   58.1764   31.6991   51.3769 H   0  0  0  0  0  0  0  0  0  0  0  0
   56.5091   31.0306   51.3769 H   0  0  0  0  0  0  0  0  0  0  0  0
   60.2395   27.3723   50.2538 H   0  0  0  0  0  0  0  0  0  0  0  0
   59.8903   26.1281   49.0061 H   0  0  0  0  0  0  0  0  0  0  0  0
   61.4711   26.9812   49.0061 H   0  0  0  0  0  0  0  0  0  0  0  0
   58.9578   26.9875   44.6147 H   0  0  0  0  0  0  0  0  0  0  0  0
   58.2478   28.5509   44.0872 H   0  0  0  0  0  0  0  0  0  0  0  0
   60.0302   28.3285   44.0872 H   0  0  0  0  0  0  0  0  0  0  0  0
   57.3412   29.3885   46.7281 H   0  0  0  0  0  0  0  0  0  0  0  0
   56.1181   33.5137   45.9341 H   0  0  0  0  0  0  0  0  0  0  0  0
   57.4834   33.2321   43.6396 H   0  0  0  0  0  0  0  0  0  0  0  0
   57.2763   34.8168   44.5002 H   0  0  0  0  0  0  0  0  0  0  0  0
   59.6916   32.9642   44.7325 H   0  0  0  0  0  0  0  0  0  0  0  0
   59.5956   34.4916   43.7614 H   0  0  0  0  0  0  0  0  0  0  0  0
   60.6258   34.4508   46.2364 H   0  0  0  0  0  0  0  0  0  0  0  0
   59.6389   35.8466   45.5936 H   0  0  0  0  0  0  0  0  0  0  0  0
   59.1922   34.7697   48.0146 H   0  0  0  0  0  0  0  0  0  0  0  0
   57.8763   35.4344   46.9602 H   0  0  0  0  0  0  0  0  0  0  0  0
   58.7062   32.4998   47.1300 H   0  0  0  0  0  0  0  0  0  0  0  0
   57.2594   33.2536   47.9214 H   0  0  0  0  0  0  0  0  0  0  0  0
  1  2  1  0
  2  3  1  0
  3  4  1  0
  4  5  1  0
  5  6  1  0
  6  7  1  0
  7  8  3  0
  8  9  1  0
  9 10  1  0
 10 11  1  0
 11 12  2  0
 11 13  1  0
 13 14  1  0
 10 15  2  0
 15 16  1  0
 15 17  1  0
 17 18  2  0
 18 19  1  0
 18 20  1  0
 20 21  1  0
 21 22  2  0
 21 23  1  0
 23 24  1  0
 24 25  1  0
 25 26  1  0
 26 27  1  0
 27 28  1  0
 28 29  1  0
 20  9  1  0
 29 24  1  0
  1 30  1  0
  1 31  1  0
  1 32  1  0
  2 33  1  0
  2 34  1  0
  3 35  1  0
  3 36  1  0
  4 37  1  0
  4 38  1  0
  5 39  1  0
  5 40  1  0
  6 41  1  0
  6 42  1  0
  9 43  1  1
 14 44  1  0
 14 45  1  0
 14 46  1  0
 16 47  1  0
 16 48  1  0
 16 49  1  0
 19 50  1  0
 19 51  1  0
 19 52  1  0
 20 53  1  1
 24 54  1  0
 25 55  1  0
 25 56  1  0
 26 57  1  0
 26 58  1  0
 27 59  1  0
 27 60  1  0
 28 61  1  0
 28 62  1  0
 29 63  1  0
 29 64  1  0
M  END
>  <UniqueID>  (5) 
3

>  <SMILES>  (5) 
CCCCCCC#C[C@@H]1C(C(=O)OC)=C(C)N=C(C)[C@@H]1C(=O)OC1CCCCC1

>  <Energy>  (5) 
49.613994815827986

>  <Genealogy>  (5) 
CCCCCCC#C[C@@H]1C(C(=O)OC)=C(C)N=C(C)[C@@H]1C(=O)OC1CCCCC1 (chirality)
CCCCCCC#C[C@@H]1C(C(=O)OC)=C(C)N=C(C)[C@@H]1C(=O)OC1CCCCC1 (3D coordinates assigned)
CCCCCCC#C[C@@H]1C(C(=O)OC)=C(C)N=C(C)[C@@H]1C(=O)OC1CCCCC1 (nonaromatic ring conformer: 49.613994815827986 kcal/mol)

>  <smiles>  (5) 
CCCCCCC#CC1C(C(=O)OC)=C(C)N=C(C)C1C(=O)OC1CCCCC1

>  <score_type>  (5) 
oracle

>  <origin>  (5) 
adg

>  <m_score__min__energy>  (5) 
-7.79

>  <m_primary>  (5) 
energy

$$$$
5:0
     RDKit          3D

 43 44  0  0  0  0  0  0  0  0999 V2000
   56.3570   22.3740   47.5680 C   0  0  0  0  0  0  0  0  0  0  0  0
   56.5890   23.8620   47.8280 C   0  0  0  0  0  0  0  0  0  0  0  0
   55.5230   24.6550   47.2280 N   0  0  0  0  0  0  0  0  0  0  0  0
   55.5690   25.1840   45.8990 C   0  0  0  0  0  0  0  0  0  0  0  0
   55.1330   26.3380   45.6570 O   0  0  0  0  0  0  0  0  0  0  0  0
   56.1250   24.3840   44.8450 N   0  0  0  0  0  0  0  0  0  0  0  0
   55.2390   23.3870   44.2320 C   0  0  0  0  0  0  0  0  0  0  0  0
   55.8960   22.7130   43.0170 C   0  0  0  0  0  0  0  0  0  0  0  0
   57.2900   22.1600   43.3520 C   0  0  0  0  0  0  0  0  0  0  0  0
   58.1350   23.0970   44.2420 C   0  0  0  0  0  0  0  0  0  0  0  0
   57.5290   24.5090   44.3800 C   0  0  2  0  0  0  0  0  0  0  0  0
   58.4230   25.4200   45.2610 C   0  0  0  0  0  0  0  0  0  0  0  0
   58.0710   26.8390   45.1410 N   0  0  0  0  0  0  0  0  0  0  0  0
   59.0500   27.8920   45.2110 C   0  0  0  0  0  0  0  0  0  0  0  0
   60.2780   27.5980   45.2600 O   0  0  0  0  0  0  0  0  0  0  0  0
   58.6500   29.3240   45.2520 C   0  0  0  0  0  0  0  0  0  0  0  0
   59.2170   30.2290   46.1720 C   0  0  0  0  0  0  0  0  0  0  0  0
   58.8480   31.5770   46.1570 C   0  0  0  0  0  0  0  0  0  0  0  0
   57.8960   32.0370   45.2440 C   0  0  0  0  0  0  0  0  0  0  0  0
   57.3960   33.8810   45.2270 Br  0  0  0  0  0  0  0  0  0  0  0  0
   57.3020   31.1430   44.3520 C   0  0  0  0  0  0  0  0  0  0  0  0
   57.6780   29.7970   44.3530 C   0  0  0  0  0  0  0  0  0  0  0  0
   56.2742   21.8427   48.5276 H   0  0  0  0  0  0  0  0  0  0  0  0
   55.4275   22.2425   46.9946 H   0  0  0  0  0  0  0  0  0  0  0  0
   57.2023   21.9658   46.9946 H   0  0  0  0  0  0  0  0  0  0  0  0
   56.6077   24.0417   48.9131 H   0  0  0  0  0  0  0  0  0  0  0  0
   57.5490   24.1572   47.3794 H   0  0  0  0  0  0  0  0  0  0  0  0
   54.9977   22.6170   44.9796 H   0  0  0  0  0  0  0  0  0  0  0  0
   54.3296   23.9017   43.8884 H   0  0  0  0  0  0  0  0  0  0  0  0
   55.2559   21.8839   42.6811 H   0  0  0  0  0  0  0  0  0  0  0  0
   56.0107   23.4707   42.2278 H   0  0  0  0  0  0  0  0  0  0  0  0
   57.1658   21.2016   43.8774 H   0  0  0  0  0  0  0  0  0  0  0  0
   57.8289   22.0512   42.3992 H   0  0  0  0  0  0  0  0  0  0  0  0
   58.2144   22.6505   45.2442 H   0  0  0  0  0  0  0  0  0  0  0  0
   59.1183   23.2074   43.7615 H   0  0  0  0  0  0  0  0  0  0  0  0
   57.5003   25.0166   43.4045 H   0  0  0  0  0  0  0  0  0  0  0  0
   58.3088   25.1160   46.3120 H   0  0  0  0  0  0  0  0  0  0  0  0
   59.4610   25.3032   44.9163 H   0  0  0  0  0  0  0  0  0  0  0  0
   57.0740   27.0640   44.9310 H   0  0  0  0  0  0  0  0  0  0  0  0
   59.9543   29.8722   46.9062 H   0  0  0  0  0  0  0  0  0  0  0  0
   59.3093   32.2789   46.8673 H   0  0  0  0  0  0  0  0  0  0  0  0
   56.5363   31.4985   43.6468 H   0  0  0  0  0  0  0  0  0  0  0  0
   57.2085   29.1003   43.6429 H   0  0  0  0  0  0  0  0  0  0  0  0
  1  2  1  0
  2  3  1  0
  3  4  1  0
  4  5  2  0
  4  6  1  0
  6  7  1  0
  7  8  1  0
  8  9  1  0
  9 10  1  0
 10 11  1  0
 11 12  1  0
 12 13  1  0
 13 14  1  0
 14 15  2  0
 14 16  1  0
 16 17  2  0
 17 18  1  0
 18 19  2  0
 19 20  1  0
 19 21  1  0
 21 22  2  0
 11  6  1  0
 22 16  1  0
  1 23  1  0
  1 24  1  0
  1 25  1  0
  2 26  1  0
  2 27  1  0
  7 28  1  0
  7 29  1  0
  8 30  1  0
  8 31  1  0
  9 32  1  0
  9 33  1  0
 10 34  1  0
 10 35  1  0
 11 36  1  6
 12 37  1  0
 12 38  1  0
 13 39  1  0
 17 40  1  0
 18 41  1  0
 21 42  1  0
 22 43  1  0
M  CHG  1   3  -1
M  END
>  <UniqueID>  (6) 
4

>  <SMILES>  (6) 
CC[N-]C(=O)N1CCCC[C@@H]1CNC(=O)c1ccc(Br)cc1

>  <Energy>  (6) 
47.815270200152185

>  <Genealogy>  (6) 
CC[N-]C(=O)N1CCCCC1CNC(=O)c1ccc(Br)cc1 (protonated)
CC[N-]C(=O)N1CCCC[C@@H]1CNC(=O)c1ccc(Br)cc1 (chirality)
CC[N-]C(=O)N1CCCC[C@@H]1CNC(=O)c1ccc(Br)cc1 (3D coordinates assigned)
CC[N-]C(=O)N1CCCC[C@@H]1CNC(=O)c1ccc(Br)cc1 (nonaromatic ring conformer: 47.815270200152185 kcal/mol)

>  <smiles>  (6) 
CCNC(=O)N1CCCCC1CNC(=O)c1ccc(Br)cc1

>  <score_type>  (6) 
oracle

>  <origin>  (6) 
adg

>  <m_score__min__energy>  (6) 
-9.0399999999999991

>  <m_primary>  (6) 
energy

$$$$
6:0
     RDKit          3D

 67 70  0  0  0  0  0  0  0  0999 V2000
   63.6575   32.1486   46.1210 H   0  0  0  0  0  0  0  0  0  0  0  0
   63.3560   32.4500   47.1350 C   0  0  0  0  0  0  0  0  0  0  0  0
   63.1138   31.6847   47.8871 H   0  0  0  0  0  0  0  0  0  0  0  0
   63.2840   33.7450   47.4530 C   0  0  0  0  0  0  0  0  0  0  0  0
   63.5292   34.4985   46.6901 H   0  0  0  0  0  0  0  0  0  0  0  0
   62.8770   34.1990   48.8250 C   0  0  0  0  0  0  0  0  0  0  0  0
   63.7729   34.2928   49.4564 H   0  0  0  0  0  0  0  0  0  0  0  0
   62.3689   35.1712   48.7431 H   0  0  0  0  0  0  0  0  0  0  0  0
   61.9600   33.2340   49.4300 N   0  0  0  0  0  0  0  0  0  0  0  0
   62.3830   32.4280   49.9410 H   0  0  0  0  0  0  0  0  0  0  0  0
   60.6150   33.5980   49.7810 C   0  0  0  0  0  0  0  0  0  0  0  0
   59.7660   34.0170   48.8850 N   0  0  0  0  0  0  0  0  0  0  0  0
   59.2890   33.2820   47.7480 C   0  0  0  0  0  0  0  0  0  0  0  0
   58.3790   33.8610   46.8240 C   0  0  0  0  0  0  0  0  0  0  0  0
   58.0228   34.8896   46.9821 H   0  0  0  0  0  0  0  0  0  0  0  0
   57.9290   33.1320   45.7090 C   0  0  0  0  0  0  0  0  0  0  0  0
   57.2054   33.5639   45.0020 H   0  0  0  0  0  0  0  0  0  0  0  0
   58.4310   31.8420   45.5290 C   0  0  0  0  0  0  0  0  0  0  0  0
   59.3250   31.2950   46.4040 C   0  0  0  0  0  0  0  0  0  0  0  0
   59.7880   31.9840   47.5210 C   0  0  0  0  0  0  0  0  0  0  0  0
   60.5201   31.5298   48.2048 H   0  0  0  0  0  0  0  0  0  0  0  0
   59.6140   30.0390   46.0270 N   0  0  0  0  0  0  0  0  0  0  0  0
   60.2310   29.3560   46.5190 H   0  0  0  0  0  0  0  0  0  0  0  0
   58.8790   29.8440   44.9030 C   0  0  0  0  0  0  0  0  0  0  0  0
   58.8620   28.5270   44.1570 C   0  0  0  0  0  0  0  0  0  0  0  0
   58.1874   28.6303   43.2943 H   0  0  0  0  0  0  0  0  0  0  0  0
   59.9031   28.3190   43.8691 H   0  0  0  0  0  0  0  0  0  0  0  0
   58.4100   27.3680   44.9600 N   0  0  0  0  0  0  0  0  0  0  0  0
   57.4300   27.6670   46.0030 C   0  0  0  0  0  0  0  0  0  0  0  0
   57.9276   28.1031   46.8818 H   0  0  0  0  0  0  0  0  0  0  0  0
   56.6823   28.3961   45.6574 H   0  0  0  0  0  0  0  0  0  0  0  0
   56.7870   26.3370   46.3650 C   0  0  0  0  0  0  0  0  0  0  0  0
   57.2591   25.9128   47.2634 H   0  0  0  0  0  0  0  0  0  0  0  0
   55.7159   26.4474   46.5899 H   0  0  0  0  0  0  0  0  0  0  0  0
   57.0240   25.4340   45.1610 C   0  0  0  0  0  0  0  0  0  0  0  0
   57.5737   24.5299   45.4617 H   0  0  0  0  0  0  0  0  0  0  0  0
   56.0775   25.1008   44.7104 H   0  0  0  0  0  0  0  0  0  0  0  0
   57.8520   26.2590   44.1850 C   0  0  0  0  0  0  0  0  0  0  0  0
   58.6604   25.6470   43.7583 H   0  0  0  0  0  0  0  0  0  0  0  0
   57.2393   26.6233   43.3472 H   0  0  0  0  0  0  0  0  0  0  0  0
   58.1410   30.9420   44.5670 N   0  0  0  0  0  0  0  0  0  0  0  0
   57.1270   31.0740   43.5160 C   0  0  0  0  0  0  0  0  0  0  0  0
   56.7452   32.1056   43.5080 H   0  0  0  0  0  0  0  0  0  0  0  0
   57.5852   30.8335   42.5453 H   0  0  0  0  0  0  0  0  0  0  0  0
   55.9710   30.1120   43.7700 C   0  0  0  0  0  0  0  0  0  0  0  0
   55.8259   29.9912   44.8537 H   0  0  0  0  0  0  0  0  0  0  0  0
   55.0522   30.5159   43.3198 H   0  0  0  0  0  0  0  0  0  0  0  0
   56.2012   29.1351   43.3198 H   0  0  0  0  0  0  0  0  0  0  0  0
   60.2200   33.5260   51.1590 N   0  0  0  0  0  0  0  0  0  0  0  0
   60.9540   33.2770   51.8590 H   0  0  0  0  0  0  0  0  0  0  0  0
   58.8620   33.8600   51.6150 C   0  0  0  0  0  0  0  0  0  0  0  0
   58.4544   34.6399   50.9550 H   0  0  0  0  0  0  0  0  0  0  0  0
   58.8930   34.4300   53.0470 C   0  0  0  0  0  0  0  0  0  0  0  0
   59.6000   35.2723   53.0734 H   0  0  0  0  0  0  0  0  0  0  0  0
   57.8690   34.7442   53.2975 H   0  0  0  0  0  0  0  0  0  0  0  0
   59.3270   33.3910   54.1020 C   0  0  0  0  0  0  0  0  0  0  0  0
   60.4181   33.4554   54.2255 H   0  0  0  0  0  0  0  0  0  0  0  0
   58.7867   33.6282   55.0303 H   0  0  0  0  0  0  0  0  0  0  0  0
   58.9640   31.9420   53.7250 C   0  0  0  0  0  0  0  0  0  0  0  0
   59.8045   31.4947   53.1741 H   0  0  0  0  0  0  0  0  0  0  0  0
   58.7622   31.3844   54.6515 H   0  0  0  0  0  0  0  0  0  0  0  0
   57.7100   31.8880   52.8490 C   0  0  0  0  0  0  0  0  0  0  0  0
   57.4622   30.8362   52.6432 H   0  0  0  0  0  0  0  0  0  0  0  0
   56.8895   32.3841   53.3881 H   0  0  0  0  0  0  0  0  0  0  0  0
   57.9260   32.6230   51.5120 C   0  0  0  0  0  0  0  0  0  0  0  0
   58.3665   31.9146   50.7950 H   0  0  0  0  0  0  0  0  0  0  0  0
   56.9419   32.9943   51.1901 H   0  0  0  0  0  0  0  0  0  0  0  0
  1  2  1  0
  2  3  1  0
  2  4  2  0
  4  5  1  0
  4  6  1  0
  6  7  1  0
  6  8  1  0
  6  9  1  0
  9 10  1  0
  9 11  1  0
 11 12  2  0
 12 13  1  0
 13 14  2  0
 14 15  1  0
 14 16  1  0
 16 17  1  0
 16 18  2  0
 18 19  1  0
 19 20  2  0
 20 21  1  0
 19 22  1  0
 22 23  1  0
 22 24  2  0
 24 25  1  0
 25 26  1  0
 25 27  1  0
 25 28  1  0
 28 29  1  0
 29 30  1  0
 29 31  1  0
 29 32  1  0
 32 33  1  0
 32 34  1  0
 32 35  1  0
 35 36  1  0
 35 37  1  0
 35 38  1  0
 38 39  1  0
 38 40  1  0
 24 41  1  0
 41 42  1  0
 42 43  1  0
 42 44  1  0
 42 45  1  0
 45 46  1  0
 45 47  1  0
 45 48  1  0
 11 49  1  0
 49 50  1  0
 49 51  1  0
 51 52  1  0
 51 53  1  0
 53 54  1  0
 53 55  1  0
 53 56  1  0
 56 57  1  0
 56 58  1  0
 56 59  1  0
 59 60  1  0
 59 61  1  0
 59 62  1  0
 62 63  1  0
 62 64  1  0
 62 65  1  0
 65 66  1  0
 65 67  1  0
 20 13  1  0
 38 28  1  0
 65 51  1  0
 41 18  1  0
M  CHG  1  22   1
M  END
>  <UniqueID>  (7) 
5

>  <SMILES>  (7) 
C=CCN/C(=N\c1ccc2c(c1)[nH+]c(CN1CCCC1)n2CC)NC1CCCCC1

>  <Energy>  (7) 
114.71063057195083

>  <Genealogy>  (7) 
C=CCNC(=Nc1ccc2c(c1)[nH+]c(CN1CCCC1)n2CC)NC1CCCCC1 (protonated)
C=CCN/C(=N\c1ccc2c(c1)[nH+]c(CN1CCCC1)n2CC)NC1CCCCC1 (cis-trans isomerization)
C=CCN/C(=N\c1ccc2c(c1)[nH+]c(CN1CCCC1)n2CC)NC1CCCCC1 (3D coordinates assigned)
C=CCN/C(=N\c1ccc2c(c1)[nH+]c(CN1CCCC1)n2CC)NC1CCCCC1 (nonaromatic ring conformer: 114.71063057195083 kcal/mol)

>  <smiles>  (7) 
C=CCNC(=Nc1ccc2c(c1)nc(CN1CCCC1)n2CC)NC1CCCCC1

>  <score_type>  (7) 
oracle

>  <origin>  (7) 
adg

>  <m_score__min__energy>  (7) 
-6.7199999999999998

>  <m_primary>  (7) 
energy

$$$$
7:0
     RDKit          3D

 54 57  0  0  0  0  0  0  0  0999 V2000
   63.0230   29.7330   52.0560 C   0  0  0  0  0  0  0  0  0  0  0  0
   63.5510   30.2550   50.8420 O   0  0  0  0  0  0  0  0  0  0  0  0
   64.6460   31.1300   50.7610 C   0  0  0  0  0  0  0  0  0  0  0  0
   65.8120   30.9360   51.5290 C   0  0  0  0  0  0  0  0  0  0  0  0
   66.8950   31.8100   51.4050 C   0  0  0  0  0  0  0  0  0  0  0  0
   66.8300   32.8830   50.5170 C   0  0  0  0  0  0  0  0  0  0  0  0
   65.6800   33.0900   49.7530 C   0  0  0  0  0  0  0  0  0  0  0  0
   64.5820   32.2240   49.8730 C   0  0  0  0  0  0  0  0  0  0  0  0
   63.4030   32.4660   49.0840 N   0  0  0  0  0  0  0  0  0  0  0  0
   62.0690   32.4280   49.6880 C   0  0  0  0  0  0  0  0  0  0  0  0
   61.2580   33.6400   49.2260 C   0  0  0  0  0  0  0  0  0  0  0  0
   61.3460   33.7880   47.7650 N   0  0  0  0  0  0  0  0  0  0  0  0
   60.2140   34.2520   46.9960 C   0  0  0  0  0  0  0  0  0  0  0  0
   60.4070   34.9630   45.9710 O   0  0  0  0  0  0  0  0  0  0  0  0
   58.8030   33.9120   47.4040 C   0  0  0  0  0  0  0  0  0  0  0  0
   58.2630   32.8020   46.5980 N   0  0  0  0  0  0  0  0  0  0  0  0
   57.3110   33.0900   45.5550 C   0  0  0  0  0  0  0  0  0  0  0  0
   56.7430   34.2150   45.4920 O   0  0  0  0  0  0  0  0  0  0  0  0
   57.0430   32.0700   44.4920 C   0  0  0  0  0  0  0  0  0  0  0  0
   57.1450   30.7480   45.0160 O   0  0  0  0  0  0  0  0  0  0  0  0
   58.0220   30.4090   46.0510 C   0  0  0  0  0  0  0  0  0  0  0  0
   58.2880   29.0610   46.3030 C   0  0  0  0  0  0  0  0  0  0  0  0
   59.1450   28.6920   47.3390 C   0  0  0  0  0  0  0  0  0  0  0  0
   59.7480   29.6740   48.1370 C   0  0  0  0  0  0  0  0  0  0  0  0
   60.6270   29.2740   49.2860 C   0  0  0  0  0  0  0  0  0  0  0  0
   59.4610   31.0280   47.9060 C   0  0  0  0  0  0  0  0  0  0  0  0
   58.6080   31.4150   46.8490 C   0  0  0  0  0  0  0  0  0  0  0  0
   62.6880   33.8120   47.1650 C   0  0  0  0  0  0  0  0  0  0  0  0
   63.4980   32.6000   47.6280 C   0  0  0  0  0  0  0  0  0  0  0  0
   63.5161   30.2205   52.9099 H   0  0  0  0  0  0  0  0  0  0  0  0
   61.9409   29.9262   52.0983 H   0  0  0  0  0  0  0  0  0  0  0  0
   63.2038   28.6488   52.0983 H   0  0  0  0  0  0  0  0  0  0  0  0
   65.8696   30.0908   52.2307 H   0  0  0  0  0  0  0  0  0  0  0  0
   67.8005   31.6513   52.0090 H   0  0  0  0  0  0  0  0  0  0  0  0
   67.6857   33.5671   50.4183 H   0  0  0  0  0  0  0  0  0  0  0  0
   65.6341   33.9370   49.0527 H   0  0  0  0  0  0  0  0  0  0  0  0
   61.5548   31.5055   49.3806 H   0  0  0  0  0  0  0  0  0  0  0  0
   62.1649   32.4505   50.7836 H   0  0  0  0  0  0  0  0  0  0  0  0
   60.2052   33.5030   49.5138 H   0  0  0  0  0  0  0  0  0  0  0  0
   61.6648   34.5445   49.7018 H   0  0  0  0  0  0  0  0  0  0  0  0
   58.7976   33.6200   48.4645 H   0  0  0  0  0  0  0  0  0  0  0  0
   58.1720   34.7980   47.2400 H   0  0  0  0  0  0  0  0  0  0  0  0
   56.0286   32.2223   44.0947 H   0  0  0  0  0  0  0  0  0  0  0  0
   57.7910   32.1898   43.6944 H   0  0  0  0  0  0  0  0  0  0  0  0
   57.8183   28.2856   45.6800 H   0  0  0  0  0  0  0  0  0  0  0  0
   59.3483   27.6281   47.5305 H   0  0  0  0  0  0  0  0  0  0  0  0
   60.1191   29.5051   50.2340 H   0  0  0  0  0  0  0  0  0  0  0  0
   60.8310   28.1944   49.2330 H   0  0  0  0  0  0  0  0  0  0  0  0
   61.5750   29.8293   49.2330 H   0  0  0  0  0  0  0  0  0  0  0  0
   59.9054   31.7966   48.5555 H   0  0  0  0  0  0  0  0  0  0  0  0
   62.5960   33.7898   46.0691 H   0  0  0  0  0  0  0  0  0  0  0  0
   63.2050   34.7300   47.4812 H   0  0  0  0  0  0  0  0  0  0  0  0
   63.1010   31.6917   47.1511 H   0  0  0  0  0  0  0  0  0  0  0  0
   64.5518   32.7376   47.3440 H   0  0  0  0  0  0  0  0  0  0  0  0
  1  2  1  0
  2  3  1  0
  3  4  2  0
  4  5  1  0
  5  6  2  0
  6  7  1  0
  7  8  2  0
  8  9  1  0
  9 10  1  0
 10 11  1  0
 11 12  1  0
 12 13  1  0
 13 14  2  0
 13 15  1  0
 15 16  1  0
 16 17  1  0
 17 18  2  0
 17 19  1  0
 19 20  1  0
 20 21  1  0
 21 22  2  0
 22 23  1  0
 23 24  2  0
 24 25  1  0
 24 26  1  0
 26 27  2  0
 12 28  1  0
 28 29  1  0
  8  3  1  0
 29  9  1  0
 27 16  1  0
 27 21  1  0
  1 30  1  0
  1 31  1  0
  1 32  1  0
  4 33  1  0
  5 34  1  0
  6 35  1  0
  7 36  1  0
 10 37  1  0
 10 38  1  0
 11 39  1  0
 11 40  1  0
 15 41  1  0
 15 42  1  0
 19 43  1  0
 19 44  1  0
 22 45  1  0
 23 46  1  0
 25 47  1  0
 25 48  1  0
 25 49  1  0
 26 50  1  0
 28 51  1  0
 28 52  1  0
 29 53  1  0
 29 54  1  0
M  END
>  <UniqueID>  (8) 
6

>  <SMILES>  (8) 
COc1ccccc1N1CCN(C(=O)CN2C(=O)COc3ccc(C)cc32)CC1

>  <Energy>  (8) 
66.06066440466994

>  <Genealogy>  (8) 
COc1ccccc1N1CCN(C(=O)CN2C(=O)COc3ccc(C)cc32)CC1 (3D coordinates assigned)
COc1ccccc1N1CCN(C(=O)CN2C(=O)COc3ccc(C)cc32)CC1 (nonaromatic ring conformer: 66.06066440466994 kcal/mol)

>  <smiles>  (8) 
COc1ccccc1N1CCN(C(=O)CN2C(=O)COc3ccc(C)cc32)CC1

>  <score_type>  (8) 
oracle

>  <origin>  (8) 
adg

>  <m_score__min__energy>  (8) 
-7.5199999999999996

>  <m_primary>  (8) 
energy

$$$$
8:0
     RDKit          3D

 48 49  0  0  0  0  0  0  0  0999 V2000
   60.9590   30.4700   47.9090 C   0  0  0  0  0  0  0  0  0  0  0  0
   61.8470   31.4270   47.1190 C   0  0  0  0  0  0  0  0  0  0  0  0
   63.0080   31.8770   47.9220 N   0  0  0  0  0  0  0  0  0  0  0  0
   63.7610   33.0070   47.3250 C   0  0  0  0  0  0  0  0  0  0  0  0
   62.9330   33.8810   46.3720 C   0  0  0  0  0  0  0  0  0  0  0  0
   62.6430   32.1180   49.3370 C   0  0  0  0  0  0  0  0  0  0  0  0
   62.3090   33.6020   49.5570 C   0  0  0  0  0  0  0  0  0  0  0  0
   61.3510   33.8150   50.7320 C   0  0  0  0  0  0  0  0  0  0  0  0
   60.0610   34.1900   50.2570 O   0  0  0  0  0  0  0  0  0  0  0  0
   59.3100   33.3930   49.3890 C   0  0  0  0  0  0  0  0  0  0  0  0
   58.6900   32.3860   49.8320 O   0  0  0  0  0  0  0  0  0  0  0  0
   59.2630   33.7210   47.9470 C   0  0  0  0  0  0  0  0  0  0  0  0
   59.7590   34.9480   47.4730 C   0  0  0  0  0  0  0  0  0  0  0  0
   59.6720   35.2670   46.1160 C   0  0  0  0  0  0  0  0  0  0  0  0
   59.0910   34.3700   45.2180 C   0  0  0  0  0  0  0  0  0  0  0  0
   58.6000   33.1340   45.6690 C   0  0  0  0  0  0  0  0  0  0  0  0
   57.9810   32.1780   44.7190 C   0  0  0  0  0  0  0  0  0  0  0  0
   57.4850   30.9410   45.1700 C   0  0  0  0  0  0  0  0  0  0  0  0
   56.9200   30.0350   44.2670 C   0  0  0  0  0  0  0  0  0  0  0  0
   56.8400   30.3540   42.9090 C   0  0  0  0  0  0  0  0  0  0  0  0
   56.2940   29.4720   42.0360 F   0  0  0  0  0  0  0  0  0  0  0  0
   57.3230   31.5820   42.4520 C   0  0  0  0  0  0  0  0  0  0  0  0
   57.8880   32.4920   43.3510 C   0  0  0  0  0  0  0  0  0  0  0  0
   58.6930   32.8170   47.0350 C   0  0  0  0  0  0  0  0  0  0  0  0
   61.1108   30.6336   48.9861 H   0  0  0  0  0  0  0  0  0  0  0  0
   59.9046   30.6542   47.6552 H   0  0  0  0  0  0  0  0  0  0  0  0
   61.2214   29.4323   47.6552 H   0  0  0  0  0  0  0  0  0  0  0  0
   62.2130   30.9135   46.2177 H   0  0  0  0  0  0  0  0  0  0  0  0
   61.2494   32.3106   46.8503 H   0  0  0  0  0  0  0  0  0  0  0  0
   64.1329   33.6434   48.1415 H   0  0  0  0  0  0  0  0  0  0  0  0
   64.5712   32.5658   46.7259 H   0  0  0  0  0  0  0  0  0  0  0  0
   62.2926   34.5570   46.9576 H   0  0  0  0  0  0  0  0  0  0  0  0
   63.6086   34.4738   45.7378 H   0  0  0  0  0  0  0  0  0  0  0  0
   62.3046   33.2384   45.7378 H   0  0  0  0  0  0  0  0  0  0  0  0
   61.7656   31.5066   49.5945 H   0  0  0  0  0  0  0  0  0  0  0  0
   63.4944   31.8443   49.9775 H   0  0  0  0  0  0  0  0  0  0  0  0
   63.2423   34.1484   49.7582 H   0  0  0  0  0  0  0  0  0  0  0  0
   61.8135   33.9733   48.6478 H   0  0  0  0  0  0  0  0  0  0  0  0
   61.2685   32.8808   51.3068 H   0  0  0  0  0  0  0  0  0  0  0  0
   61.7437   34.6184   51.3726 H   0  0  0  0  0  0  0  0  0  0  0  0
   60.2179   35.6604   48.1743 H   0  0  0  0  0  0  0  0  0  0  0  0
   60.0630   36.2291   45.7534 H   0  0  0  0  0  0  0  0  0  0  0  0
   59.0174   34.6325   44.1523 H   0  0  0  0  0  0  0  0  0  0  0  0
   57.5420   30.6853   46.2383 H   0  0  0  0  0  0  0  0  0  0  0  0
   56.5375   29.0685   44.6268 H   0  0  0  0  0  0  0  0  0  0  0  0
   57.2589   31.8339   41.3831 H   0  0  0  0  0  0  0  0  0  0  0  0
   58.2622   33.4598   42.9860 H   0  0  0  0  0  0  0  0  0  0  0  0
   58.3147   31.8488   47.3947 H   0  0  0  0  0  0  0  0  0  0  0  0
  1  2  1  0
  2  3  1  0
  3  4  1  0
  4  5  1  0
  3  6  1  0
  6  7  1  0
  7  8  1  0
  8  9  1  0
  9 10  1  0
 10 11  2  0
 10 12  1  0
 12 13  2  0
 13 14  1  0
 14 15  2  0
 15 16  1  0
 16 17  1  0
 17 18  2  0
 18 19  1  0
 19 20  2  0
 20 21  1  0
 20 22  1  0
 22 23  2  0
 16 24  2  0
 24 12  1  0
 23 17  1  0
  1 25  1  0
  1 26  1  0
  1 27  1  0
  2 28  1  0
  2 29  1  0
  4 30  1  0
  4 31  1  0
  5 32  1  0
  5 33  1  0
  5 34  1  0
  6 35  1  0
  6 36  1  0
  7 37  1  0
  7 38  1  0
  8 39  1  0
  8 40  1  0
 13 41  1  0
 14 42  1  0
 15 43  1  0
 18 44  1  0
 19 45  1  0
 22 46  1  0
 23 47  1  0
 24 48  1  0
M  END
>  <UniqueID>  (9) 
7

>  <SMILES>  (9) 
CCN(CC)CCCOC(=O)c1cccc(-c2ccc(F)cc2)c1

>  <Energy>  (9) 
46.549150829599924

>  <Genealogy>  (9) 
CCN(CC)CCCOC(=O)c1cccc(-c2ccc(F)cc2)c1 (3D coordinates assigned)
CCN(CC)CCCOC(=O)c1cccc(-c2ccc(F)cc2)c1 (optimized conformer: 46.549150829599924 kcal/mol)

>  <smiles>  (9) 
CCN(CC)CCCOC(=O)c1cccc(-c2ccc(F)cc2)c1

>  <score_type>  (9) 
oracle

>  <origin>  (9) 
adg

>  <m_score__min__energy>  (9) 
-7.0599999999999996

>  <m_primary>  (9) 
energy

$$$$
9:0
     RDKit          3D

 40 42  0  0  0  0  0  0  0  0999 V2000
   57.0100   30.6310   43.4700 C   0  0  0  0  0  0  0  0  0  0  0  0
   56.8980   30.9400   44.8560 O   0  0  0  0  0  0  0  0  0  0  0  0
   57.7020   31.8720   45.5280 C   0  0  0  0  0  0  0  0  0  0  0  0
   58.1450   31.5570   46.8130 C   0  0  0  0  0  0  0  0  0  0  0  0
   58.9370   32.4520   47.5310 C   0  0  0  0  0  0  0  0  0  0  0  0
   59.2980   33.6980   46.9850 C   0  0  0  0  0  0  0  0  0  0  0  0
   60.1120   34.6040   47.7700 N   0  0  0  0  0  0  0  0  0  0  0  0
   61.0430   33.8910   48.6170 C   0  0  0  0  0  0  0  0  0  0  0  0
   62.3350   33.4800   48.2900 C   0  0  0  0  0  0  0  0  0  0  0  0
   63.0390   33.6360   46.9770 C   0  0  0  0  0  0  0  0  0  0  0  0
   64.0890   32.6330   46.8440 N   0  0  0  0  0  0  0  0  0  0  0  0
   62.9270   32.9280   49.3760 N   0  0  0  0  0  0  0  0  0  0  0  0
   61.9880   33.0270   50.3390 C   0  0  0  0  0  0  0  0  0  0  0  0
   62.1380   32.6030   51.6570 C   0  0  0  0  0  0  0  0  0  0  0  0
   61.0650   32.8110   52.5370 C   0  0  0  0  0  0  0  0  0  0  0  0
   59.8880   33.4350   52.0860 C   0  0  0  0  0  0  0  0  0  0  0  0
   59.7910   33.8450   50.7490 C   0  0  0  0  0  0  0  0  0  0  0  0
   60.8490   33.6150   49.9220 N   0  0  0  0  0  0  0  0  0  0  0  0
   58.8870   34.0090   45.6600 C   0  0  0  0  0  0  0  0  0  0  0  0
   59.2690   35.3030   44.9910 C   0  0  0  0  0  0  0  0  0  0  0  0
   58.0770   33.1000   44.9570 C   0  0  0  0  0  0  0  0  0  0  0  0
   57.3827   29.6028   43.3525 H   0  0  0  0  0  0  0  0  0  0  0  0
   56.0225   30.7198   42.9936 H   0  0  0  0  0  0  0  0  0  0  0  0
   57.7113   31.3319   42.9936 H   0  0  0  0  0  0  0  0  0  0  0  0
   57.8667   30.5931   47.2640 H   0  0  0  0  0  0  0  0  0  0  0  0
   59.2847   32.1804   48.5386 H   0  0  0  0  0  0  0  0  0  0  0  0
   59.4820   35.2170   48.3290 H   0  0  0  0  0  0  0  0  0  0  0  0
   60.6690   35.2390   47.1540 H   0  0  0  0  0  0  0  0  0  0  0  0
   62.3136   33.5127   46.1593 H   0  0  0  0  0  0  0  0  0  0  0  0
   63.4923   34.6372   46.9305 H   0  0  0  0  0  0  0  0  0  0  0  0
   64.9230   33.0880   46.4060 H   0  0  0  0  0  0  0  0  0  0  0  0
   64.3770   32.3430   47.8060 H   0  0  0  0  0  0  0  0  0  0  0  0
   63.0666   32.1211   51.9969 H   0  0  0  0  0  0  0  0  0  0  0  0
   61.1448   32.4845   53.5844 H   0  0  0  0  0  0  0  0  0  0  0  0
   59.0490   33.6002   52.7779 H   0  0  0  0  0  0  0  0  0  0  0  0
   58.8824   34.3406   50.3765 H   0  0  0  0  0  0  0  0  0  0  0  0
   59.4924   36.0599   45.7573 H   0  0  0  0  0  0  0  0  0  0  0  0
   60.1582   35.1428   44.3635 H   0  0  0  0  0  0  0  0  0  0  0  0
   58.4354   35.6514   44.3635 H   0  0  0  0  0  0  0  0  0  0  0  0
   57.7314   33.3540   43.9441 H   0  0  0  0  0  0  0  0  0  0  0  0
  1  2  1  0
  2  3  1  0
  3  4  2  0
  4  5  1  0
  5  6  2  0
  6  7  1  0
  7  8  1  0
  8  9  2  0
  9 10  1  0
 10 11  1  0
  9 12  1  0
 12 13  2  0
 13 14  1  0
 14 15  2  0
 15 16  1  0
 16 17  2  0
 17 18  1  0
  6 19  1  0
 19 20  1  0
 19 21  2  0
 21  3  1  0
 18  8  1  0
 18 13  1  0
  1 22  1  0
  1 23  1  0
  1 24  1  0
  4 25  1  0
  5 26  1  0
  7 27  1  0
  7 28  1  0
 10 29  1  0
 10 30  1  0
 11 31  1  0
 11 32  1  0
 14 33  1  0
 15 34  1  0
 16 35  1  0
 17 36  1  0
 20 37  1  0
 20 38  1  0
 20 39  1  0
 21 40  1  0
M  CHG  1   7   1
M  END
>  <UniqueID>  (10) 
8

>  <SMILES>  (10) 
COc1ccc([NH2+]c2c(CN)nc3ccccn23)c(C)c1

>  <Energy>  (10) 
79.03589089939366

>  <Genealogy>  (10) 
COc1ccc([NH2+]c2c(CN)nc3ccccn23)c(C)c1 (protonated)
COc1ccc([NH2+]c2c(CN)nc3ccccn23)c(C)c1 (3D coordinates assigned)
COc1ccc([NH2+]c2c(CN)nc3ccccn23)c(C)c1 (optimized conformer: 79.03589089939366 kcal/mol)

>  <smiles>  (10) 
COc1ccc(Nc2c(CN)nc3ccccn23)c(C)c1

>  <score_type>  (10) 
oracle

>  <origin>  (10) 
adg

>  <m_score__min__energy>  (10) 
-5.9800000000000004

>  <m_primary>  (10) 
energy

$$$$
10:0
     RDKit          3D

 39 40  0  0  0  0  0  0  0  0999 V2000
   55.6950   29.0300   53.0370 C   0  0  0  0  0  0  0  0  0  0  0  0
   55.7870   30.0780   52.0070 N   0  0  0  0  0  0  0  0  0  0  0  0
   54.4410   30.6000   51.7140 C   0  0  0  0  0  0  0  0  0  0  0  0
   56.6920   31.1580   52.4580 C   0  0  0  0  0  0  0  0  0  0  0  0
   57.9910   31.1760   51.6400 C   0  0  0  0  0  0  0  0  0  0  0  0
   58.0450   30.0500   50.7070 N   0  0  0  0  0  0  0  0  0  0  0  0
   58.9480   29.9980   49.5950 C   0  0  0  0  0  0  0  0  0  0  0  0
   60.0920   29.2310   49.5150 C   0  0  0  0  0  0  0  0  0  0  0  0
   60.6800   29.4880   48.3320 N   0  0  0  0  0  0  0  0  0  0  0  0
   59.9530   30.3790   47.6740 N   0  0  0  0  0  0  0  0  0  0  0  0
   60.3010   30.9320   46.3660 C   0  0  0  0  0  0  0  0  0  0  0  0
   59.3770   32.0830   46.0220 C   0  0  0  0  0  0  0  0  0  0  0  0
   58.1960   31.8470   45.2770 C   0  0  0  0  0  0  0  0  0  0  0  0
   57.7210   30.2310   44.7650 Cl  0  0  0  0  0  0  0  0  0  0  0  0
   57.3650   32.9150   44.9210 C   0  0  0  0  0  0  0  0  0  0  0  0
   57.6950   34.2180   45.2860 C   0  0  0  0  0  0  0  0  0  0  0  0
   58.8600   34.4670   46.0090 C   0  0  0  0  0  0  0  0  0  0  0  0
   59.7060   33.4140   46.3770 C   0  0  0  0  0  0  0  0  0  0  0  0
   61.1660   33.8200   47.2750 Cl  0  0  0  0  0  0  0  0  0  0  0  0
   58.8760   30.7110   48.4140 C   0  0  0  0  0  0  0  0  0  0  0  0
   55.7355   29.4918   54.0346 H   0  0  0  0  0  0  0  0  0  0  0  0
   54.7457   28.4862   52.9230 H   0  0  0  0  0  0  0  0  0  0  0  0
   56.5351   28.3291   52.9230 H   0  0  0  0  0  0  0  0  0  0  0  0
   53.9137   30.8045   52.6574 H   0  0  0  0  0  0  0  0  0  0  0  0
   54.5269   31.5300   51.1329 H   0  0  0  0  0  0  0  0  0  0  0  0
   53.8774   29.8553   51.1329 H   0  0  0  0  0  0  0  0  0  0  0  0
   56.1815   32.1253   52.3410 H   0  0  0  0  0  0  0  0  0  0  0  0
   56.9485   30.9780   53.5124 H   0  0  0  0  0  0  0  0  0  0  0  0
   58.0437   32.1160   51.0712 H   0  0  0  0  0  0  0  0  0  0  0  0
   58.8405   31.0941   52.3340 H   0  0  0  0  0  0  0  0  0  0  0  0
   57.3950   29.2460   50.8600 H   0  0  0  0  0  0  0  0  0  0  0  0
   60.4586   28.5331   50.2822 H   0  0  0  0  0  0  0  0  0  0  0  0
   61.5710   29.0650   47.9850 H   0  0  0  0  0  0  0  0  0  0  0  0
   61.3394   31.2941   46.3892 H   0  0  0  0  0  0  0  0  0  0  0  0
   60.1944   30.1459   45.6040 H   0  0  0  0  0  0  0  0  0  0  0  0
   56.4450   32.7242   44.3491 H   0  0  0  0  0  0  0  0  0  0  0  0
   57.0352   35.0515   45.0032 H   0  0  0  0  0  0  0  0  0  0  0  0
   59.1167   35.4983   46.2926 H   0  0  0  0  0  0  0  0  0  0  0  0
   58.0846   31.4200   48.1294 H   0  0  0  0  0  0  0  0  0  0  0  0
  1  2  1  0
  2  3  1  0
  2  4  1  0
  4  5  1  0
  5  6  1  0
  6  7  1  0
  7  8  1  0
  8  9  2  0
  9 10  1  0
 10 11  1  0
 11 12  1  0
 12 13  2  0
 13 14  1  0
 13 15  1  0
 15 16  2  0
 16 17  1  0
 17 18  2  0
 18 19  1  0
 10 20  1  0
 20  7  2  0
 18 12  1  0
  1 21  1  0
  1 22  1  0
  1 23  1  0
  3 24  1  0
  3 25  1  0
  3 26  1  0
  4 27  1  0
  4 28  1  0
  5 29  1  0
  5 30  1  0
  6 31  1  0
  8 32  1  0
  9 33  1  0
 11 34  1  0
 11 35  1  0
 15 36  1  0
 16 37  1  0
 17 38  1  0
 20 39  1  0
M  CHG  1   9   1
M  END
>  <UniqueID>  (11) 
9

>  <SMILES>  (11) 
CN(C)CCNc1c[nH+]n(Cc2c(Cl)cccc2Cl)c1

>  <Energy>  (11) 
67.7844823927263

>  <Genealogy>  (11) 
CN(C)CCNc1c[nH+]n(Cc2c(Cl)cccc2Cl)c1 (protonated)
CN(C)CCNc1c[nH+]n(Cc2c(Cl)cccc2Cl)c1 (3D coordinates assigned)
CN(C)CCNc1c[nH+]n(Cc2c(Cl)cccc2Cl)c1 (optimized conformer: 67.7844823927263 kcal/mol)

>  <smiles>  (11) 
CN(C)CCNc1cnn(Cc2c(Cl)cccc2Cl)c1

>  <score_type>  (11) 
oracle

>  <origin>  (11) 
adg

>  <m_score__min__energy>  (11) 
-4.7999999999999998

>  <m_primary>  (11) 
energy

$$$$
11:0
     RDKit          3D

 54 57  0  0  0  0  0  0  0  0999 V2000
   60.7440   28.9720   44.8670 C   0  0  0  0  0  0  0  0  0  0  0  0
   60.6910   28.1940   46.1820 C   0  0  0  0  0  0  0  0  0  0  0  0
   60.0010   28.9520   47.2570 N   0  0  0  0  0  0  0  0  0  0  0  0
   59.2080   28.1040   48.1880 C   0  0  0  0  0  0  0  0  0  0  0  0
   59.6160   26.6230   48.1940 C   0  0  0  0  0  0  0  0  0  0  0  0
   60.9320   29.8440   47.9860 C   0  0  0  0  0  0  0  0  0  0  0  0
   60.2790   31.2160   48.2860 C   0  0  0  0  0  0  0  0  0  0  0  0
   58.9660   31.3750   47.6240 N   0  0  0  0  0  0  0  0  0  0  0  0
   59.0050   32.4300   46.6320 C   0  0  0  0  0  0  0  0  0  0  0  0
   59.7370   33.6030   46.9030 C   0  0  0  0  0  0  0  0  0  0  0  0
   59.7040   34.6850   46.0220 C   0  0  0  0  0  0  0  0  0  0  0  0
   58.9310   34.6200   44.8640 C   0  0  0  0  0  0  0  0  0  0  0  0
   58.1950   33.4690   44.5760 C   0  0  0  0  0  0  0  0  0  0  0  0
   58.2290   32.3640   45.4420 C   0  0  0  0  0  0  0  0  0  0  0  0
   57.4400   31.1700   45.0810 C   0  0  0  0  0  0  0  0  0  0  0  0
   56.2770   31.2230   44.3160 C   0  0  0  0  0  0  0  0  0  0  0  0
   55.6620   29.6650   44.1830 S   0  0  0  0  0  0  0  0  0  0  0  0
   56.8490   28.9160   45.1090 C   0  0  0  0  0  0  0  0  0  0  0  0
   56.9020   27.4810   45.4190 C   0  0  0  0  0  0  0  0  0  0  0  0
   55.8530   26.8090   45.9630 N   0  0  0  0  0  0  0  0  0  0  0  0
   56.3360   25.5610   46.0760 C   0  0  0  0  0  0  0  0  0  0  0  0
   55.6790   24.4380   46.5730 C   0  0  0  0  0  0  0  0  0  0  0  0
   56.3920   23.2220   46.5930 C   0  0  0  0  0  0  0  0  0  0  0  0
   57.7220   23.1640   46.1170 C   0  0  0  0  0  0  0  0  0  0  0  0
   58.3500   24.3250   45.6230 C   0  0  0  0  0  0  0  0  0  0  0  0
   57.6180   25.5090   45.6220 C   0  0  0  0  0  0  0  0  0  0  0  0
   58.0050   26.7170   45.1890 N   0  0  0  0  0  0  0  0  0  0  0  0
   57.7520   29.8800   45.5400 C   0  0  0  0  0  0  0  0  0  0  0  0
   60.8173   30.0486   45.0806 H   0  0  0  0  0  0  0  0  0  0  0  0
   61.6225   28.6526   44.2871 H   0  0  0  0  0  0  0  0  0  0  0  0
   59.8303   28.7746   44.2871 H   0  0  0  0  0  0  0  0  0  0  0  0
   60.1525   27.2498   46.0131 H   0  0  0  0  0  0  0  0  0  0  0  0
   61.7258   28.0130   46.5083 H   0  0  0  0  0  0  0  0  0  0  0  0
   59.3329   28.5002   49.2065 H   0  0  0  0  0  0  0  0  0  0  0  0
   58.1652   28.1429   47.8401 H   0  0  0  0  0  0  0  0  0  0  0  0
   59.7123   26.2734   49.2325 H   0  0  0  0  0  0  0  0  0  0  0  0
   58.8480   26.0290   47.6769 H   0  0  0  0  0  0  0  0  0  0  0  0
   60.5798   26.5061   47.6769 H   0  0  0  0  0  0  0  0  0  0  0  0
   61.2153   29.3668   48.9358 H   0  0  0  0  0  0  0  0  0  0  0  0
   61.8173   30.0117   47.3550 H   0  0  0  0  0  0  0  0  0  0  0  0
   60.1397   31.3103   49.3731 H   0  0  0  0  0  0  0  0  0  0  0  0
   60.9474   31.9971   47.8947 H   0  0  0  0  0  0  0  0  0  0  0  0
   58.2390   31.5780   48.3450 H   0  0  0  0  0  0  0  0  0  0  0  0
   58.6550   30.4840   47.1730 H   0  0  0  0  0  0  0  0  0  0  0  0
   60.3416   33.6668   47.8197 H   0  0  0  0  0  0  0  0  0  0  0  0
   60.2889   35.5903   46.2419 H   0  0  0  0  0  0  0  0  0  0  0  0
   58.9007   35.4774   44.1755 H   0  0  0  0  0  0  0  0  0  0  0  0
   57.5832   33.4274   43.6628 H   0  0  0  0  0  0  0  0  0  0  0  0
   55.8368   32.1293   43.8747 H   0  0  0  0  0  0  0  0  0  0  0  0
   54.6425   24.4976   46.9364 H   0  0  0  0  0  0  0  0  0  0  0  0
   55.9104   22.3125   46.9814 H   0  0  0  0  0  0  0  0  0  0  0  0
   58.2685   22.2095   46.1323 H   0  0  0  0  0  0  0  0  0  0  0  0
   59.3846   24.2965   45.2505 H   0  0  0  0  0  0  0  0  0  0  0  0
   58.6216   29.6559   46.1752 H   0  0  0  0  0  0  0  0  0  0  0  0
  1  2  1  0
  2  3  1  0
  3  4  1  0
  4  5  1  0
  3  6  1  0
  6  7  1  0
  7  8  1  0
  8  9  1  0
  9 10  2  0
 10 11  1  0
 11 12  2  0
 12 13  1  0
 13 14  2  0
 14 15  1  0
 15 16  2  0
 16 17  1  0
 17 18  1  0
 18 19  1  0
 19 20  2  0
 20 21  1  0
 21 22  2  0
 22 23  1  0
 23 24  2  0
 24 25  1  0
 25 26  2  0
 26 27  1  0
 18 28  2  0
 14  9  1  0
 28 15  1  0
 27 19  1  0
 26 21  1  0
  1 29  1  0
  1 30  1  0
  1 31  1  0
  2 32  1  0
  2 33  1  0
  4 34  1  0
  4 35  1  0
  5 36  1  0
  5 37  1  0
  5 38  1  0
  6 39  1  0
  6 40  1  0
  7 41  1  0
  7 42  1  0
  8 43  1  0
  8 44  1  0
 10 45  1  0
 11 46  1  0
 12 47  1  0
 13 48  1  0
 16 49  1  0
 22 50  1  0
 23 51  1  0
 24 52  1  0
 25 53  1  0
 28 54  1  0
M  CHG  2   8   1  27  -1
M  END
>  <UniqueID>  (12) 
10

>  <SMILES>  (12) 
CCN(CC)CC[NH2+]c1ccccc1-c1csc(-c2nc3ccccc3[n-]2)c1

>  <Energy>  (12) 
131.92400244110704

>  <Genealogy>  (12) 
CCN(CC)CC[NH2+]c1ccccc1-c1csc(-c2nc3ccccc3[n-]2)c1 (protonated)
CCN(CC)CC[NH2+]c1ccccc1-c1csc(-c2nc3ccccc3[n-]2)c1 (3D coordinates assigned)
CCN(CC)CC[NH2+]c1ccccc1-c1csc(-c2nc3ccccc3[n-]2)c1 (optimized conformer: 131.92400244110704 kcal/mol)

>  <smiles>  (12) 
CCN(CC)CCNc1ccccc1-c1csc(-c2nc3ccccc3[nH]2)c1

>  <score_type>  (12) 
oracle

>  <origin>  (12) 
adg

>  <m_score__min__energy>  (12) 
-7.96

>  <m_primary>  (12) 
energy

$$$$
12:0
     RDKit          3D

 72 73  0  0  0  0  0  0  0  0999 V2000
   56.2330   30.0220   45.6250 H   0  0  0  0  0  0  0  0  0  0  0  0
   55.5040   29.5050   45.1910 O   0  0  0  0  0  0  0  0  0  0  0  0
   55.6100   29.7360   43.8130 C   0  0  0  0  0  0  0  0  0  0  0  0
   54.6285   30.0366   43.4176 H   0  0  0  0  0  0  0  0  0  0  0  0
   55.9455   28.8132   43.3171 H   0  0  0  0  0  0  0  0  0  0  0  0
   56.6300   30.8520   43.5440 C   0  0  0  0  0  0  0  0  0  0  0  0
   56.2207   31.5290   42.7797 H   0  0  0  0  0  0  0  0  0  0  0  0
   57.5637   30.3805   43.2035 H   0  0  0  0  0  0  0  0  0  0  0  0
   56.9350   31.6350   44.7580 N   0  0  0  0  0  0  0  0  0  0  0  0
   57.5290   31.1080   45.4380 H   0  0  0  0  0  0  0  0  0  0  0  0
   57.5100   32.9590   44.4770 C   0  0  0  0  0  0  0  0  0  0  0  0
   56.7402   33.5798   43.9952 H   0  0  0  0  0  0  0  0  0  0  0  0
   58.3830   32.8057   43.8256 H   0  0  0  0  0  0  0  0  0  0  0  0
   58.0030   33.6840   45.7410 C   0  0  0  0  0  0  0  0  0  0  0  0
   57.1357   34.0826   46.2876 H   0  0  0  0  0  0  0  0  0  0  0  0
   58.6761   34.4987   45.4358 H   0  0  0  0  0  0  0  0  0  0  0  0
   58.7420   32.7750   46.6160 N   0  0  0  0  0  0  0  0  0  0  0  0
   58.1610   31.8480   47.3800 N   0  0  0  0  0  0  0  0  0  0  0  0
   59.1380   31.2670   48.1200 C   0  0  0  0  0  0  0  0  0  0  0  0
   58.9540   30.3670   49.0340 N   0  0  0  0  0  0  0  0  0  0  0  0
   59.4120   28.9860   48.9380 C   0  0  0  0  0  0  0  0  0  0  0  0
   60.3981   28.8939   49.4166 H   0  0  0  0  0  0  0  0  0  0  0  0
   58.6915   28.3277   49.4455 H   0  0  0  0  0  0  0  0  0  0  0  0
   59.5210   28.5780   47.4650 C   0  0  0  0  0  0  0  0  0  0  0  0
   60.1406   29.3180   46.9373 H   0  0  0  0  0  0  0  0  0  0  0  0
   59.9729   27.5759   47.4246 H   0  0  0  0  0  0  0  0  0  0  0  0
   58.1450   28.5040   46.7790 C   0  0  0  0  0  0  0  0  0  0  0  0
   57.8092   27.4567   46.7563 H   0  0  0  0  0  0  0  0  0  0  0  0
   57.4340   29.1218   47.3472 H   0  0  0  0  0  0  0  0  0  0  0  0
   58.2200   29.0200   45.3930 N   0  0  0  0  0  0  0  0  0  0  0  0
   59.4950   29.7270   45.1860 C   0  0  0  0  0  0  0  0  0  0  0  0
   59.9400   29.9737   46.1612 H   0  0  0  0  0  0  0  0  0  0  0  0
   60.1843   29.0822   44.6211 H   0  0  0  0  0  0  0  0  0  0  0  0
   59.3132   30.6532   44.6211 H   0  0  0  0  0  0  0  0  0  0  0  0
   58.1050   27.9230   44.4120 C   0  0  0  0  0  0  0  0  0  0  0  0
   58.0046   26.9650   44.9433 H   0  0  0  0  0  0  0  0  0  0  0  0
   57.2191   28.0869   43.7809 H   0  0  0  0  0  0  0  0  0  0  0  0
   59.0056   27.8996   43.7809 H   0  0  0  0  0  0  0  0  0  0  0  0
   60.3380   31.8390   47.8080 C   0  0  0  0  0  0  0  0  0  0  0  0
   61.5710   31.6380   48.3240 N   0  0  0  0  0  0  0  0  0  0  0  0
   62.6070   32.4230   47.8920 C   0  0  0  0  0  0  0  0  0  0  0  0
   63.8030   32.2650   48.3840 N   0  0  0  0  0  0  0  0  0  0  0  0
   64.4350   33.1940   49.3250 C   0  0  0  0  0  0  0  0  0  0  0  0
   65.0904   33.8788   48.7669 H   0  0  0  0  0  0  0  0  0  0  0  0
   65.0145   32.6090   50.0543 H   0  0  0  0  0  0  0  0  0  0  0  0
   63.3840   34.0170   50.0880 C   0  0  0  0  0  0  0  0  0  0  0  0
   62.5481   34.2487   49.4116 H   0  0  0  0  0  0  0  0  0  0  0  0
   63.8570   34.9429   50.4472 H   0  0  0  0  0  0  0  0  0  0  0  0
   62.8470   33.2360   51.3040 C   0  0  0  0  0  0  0  0  0  0  0  0
   62.1675   33.8898   51.8704 H   0  0  0  0  0  0  0  0  0  0  0  0
   63.7117   32.9271   51.9097 H   0  0  0  0  0  0  0  0  0  0  0  0
   62.1080   32.0050   50.9130 N   0  0  0  0  0  0  0  0  0  0  0  0
   62.1930   31.8930   49.8730 H   0  0  0  0  0  0  0  0  0  0  0  0
   62.6580   30.7960   51.6050 C   0  0  0  0  0  0  0  0  0  0  0  0
   62.3385   30.8131   52.6574 H   0  0  0  0  0  0  0  0  0  0  0  0
   63.7544   30.8262   51.5214 H   0  0  0  0  0  0  0  0  0  0  0  0
   62.1700   29.4940   50.9610 C   0  0  0  0  0  0  0  0  0  0  0  0
   61.9003   28.7743   51.7480 H   0  0  0  0  0  0  0  0  0  0  0  0
   61.2887   29.7017   50.3364 H   0  0  0  0  0  0  0  0  0  0  0  0
   62.9707   29.0713   50.3364 H   0  0  0  0  0  0  0  0  0  0  0  0
   60.6600   32.1410   51.2240 C   0  0  0  0  0  0  0  0  0  0  0  0
   60.1226   31.3049   50.7527 H   0  0  0  0  0  0  0  0  0  0  0  0
   60.5623   32.1349   52.3196 H   0  0  0  0  0  0  0  0  0  0  0  0
   60.0470   33.4570   50.7230 C   0  0  0  0  0  0  0  0  0  0  0  0
   59.7578   34.0779   51.5837 H   0  0  0  0  0  0  0  0  0  0  0  0
   60.7862   33.9971   50.1132 H   0  0  0  0  0  0  0  0  0  0  0  0
   59.1579   33.2386   50.1132 H   0  0  0  0  0  0  0  0  0  0  0  0
   62.3760   33.4240   46.9120 C   0  0  0  0  0  0  0  0  0  0  0  0
   63.2081   34.0516   46.5603 H   0  0  0  0  0  0  0  0  0  0  0  0
   61.0790   33.6140   46.3890 C   0  0  0  0  0  0  0  0  0  0  0  0
   60.8743   34.3831   45.6297 H   0  0  0  0  0  0  0  0  0  0  0  0
   60.0680   32.7860   46.8750 C   0  0  0  0  0  0  0  0  0  0  0  0
  1  2  1  0
  2  3  1  0
  3  4  1  0
  3  5  1  0
  3  6  1  0
  6  7  1  0
  6  8  1  0
  6  9  1  0
  9 10  1  0
  9 11  1  0
 11 12  1  0
 11 13  1  0
 11 14  1  0
 14 15  1  0
 14 16  1  0
 14 17  1  0
 17 18  1  0
 18 19  1  0
 19 20  2  0
 20 21  1  0
 21 22  1  0
 21 23  1  0
 21 24  1  0
 24 25  1  0
 24 26  1  0
 24 27  1  0
 27 28  1  0
 27 29  1  0
 27 30  1  0
 30 31  1  0
 31 32  1  0
 31 33  1  0
 31 34  1  0
 30 35  1  0
 35 36  1  0
 35 37  1  0
 35 38  1  0
 19 39  1  0
 39 40  1  0
 40 41  1  0
 41 42  2  0
 42 43  1  0
 43 44  1  0
 43 45  1  0
 43 46  1  0
 46 47  1  0
 46 48  1  0
 46 49  1  0
 49 50  1  0
 49 51  1  0
 49 52  1  0
 52 53  1  0
 52 54  1  0
 54 55  1  0
 54 56  1  0
 54 57  1  0
 57 58  1  0
 57 59  1  0
 57 60  1  0
 52 61  1  0
 61 62  1  0
 61 63  1  0
 61 64  1  0
 64 65  1  0
 64 66  1  0
 64 67  1  0
 41 68  1  0
 68 69  1  0
 68 70  2  0
 70 71  1  0
 70 72  1  0
 72 17  1  0
 72 39  2  0
M  CHG  3  18  -1  40  -1  52   1
M  END
>  <UniqueID>  (13) 
11

>  <SMILES>  (13) 
CC[NH+](CC)CCC/N=c1/ccc2c([n-]1)/c(=N/CCCN(C)C)[n-]n2CCNCCO

>  <Energy>  (13) 
106.29509208126987

>  <Genealogy>  (13) 
CC[NH+](CC)CCCN=c1ccc2c([n-]1)c(=NCCCN(C)C)[n-]n2CCNCCO (protonated)
CC[NH+](CC)CCC/N=c1/ccc2c([n-]1)/c(=N/CCCN(C)C)[n-]n2CCNCCO (cis-trans isomerization)
CC[NH+](CC)CCC/N=c1/ccc2c([n-]1)/c(=N/CCCN(C)C)[n-]n2CCNCCO (3D coordinates assigned)
CC[NH+](CC)CCC/N=c1/ccc2c([n-]1)/c(=N/CCCN(C)C)[n-]n2CCNCCO (optimized conformer: 106.29509208126987 kcal/mol)

>  <smiles>  (13) 
CCN(CC)CCCN=c1ccc2c([nH]1)c(=NCCCN(C)C)[nH]n2CCNCCO

>  <score_type>  (13) 
oracle

>  <origin>  (13) 
adg

>  <m_score__min__energy>  (13) 
-8.4800000000000004

>  <m_primary>  (13) 
energy

$$$$
13:0
     RDKit          3D

 43 46  0  0  0  0  0  0  0  0999 V2000
   65.6980   31.7400   50.5130 C   0  0  0  0  0  0  0  0  0  0  0  0
   65.2390   33.4420   50.0620 S   0  0  0  0  0  0  0  0  0  0  0  0
   63.7070   32.9440   49.2710 C   0  0  0  0  0  0  0  0  0  0  0  0
   62.4780   33.3440   49.8090 C   0  0  0  0  0  0  0  0  0  0  0  0
   61.2840   32.9540   49.1960 C   0  0  0  0  0  0  0  0  0  0  0  0
   61.3110   32.1600   48.0390 C   0  0  0  0  0  0  0  0  0  0  0  0
   60.0840   31.7420   47.4190 N   0  0  0  0  0  0  0  0  0  0  0  0
   59.5040   30.5160   47.4920 C   0  0  0  0  0  0  0  0  0  0  0  0
   59.9500   29.4070   48.3680 C   0  0  0  0  0  0  0  0  0  0  0  0
   60.2320   29.6330   49.7270 C   0  0  0  0  0  0  0  0  0  0  0  0
   60.6520   28.5800   50.5450 C   0  0  0  0  0  0  0  0  0  0  0  0
   60.7840   27.2930   50.0190 C   0  0  0  0  0  0  0  0  0  0  0  0
   60.4910   27.0550   48.6740 C   0  0  0  0  0  0  0  0  0  0  0  0
   60.0720   28.1050   47.8520 C   0  0  0  0  0  0  0  0  0  0  0  0
   58.4270   30.4390   46.6180 C   0  0  0  0  0  0  0  0  0  0  0  0
   58.3660   31.6700   46.0000 C   0  0  0  0  0  0  0  0  0  0  0  0
   59.3720   32.4480   46.5130 C   0  0  0  0  0  0  0  0  0  0  0  0
   59.7170   33.7950   45.9360 C   0  0  0  0  0  0  0  0  0  0  0  0
   58.4740   34.4280   45.2740 C   0  0  0  0  0  0  0  0  0  0  0  0
   57.7710   33.4660   44.2880 C   0  0  0  0  0  0  0  0  0  0  0  0
   57.4860   32.1300   44.9240 C   0  0  0  0  0  0  0  0  0  0  0  0
   56.5540   31.4000   44.4940 O   0  0  0  0  0  0  0  0  0  0  0  0
   62.5450   31.7550   47.5090 C   0  0  0  0  0  0  0  0  0  0  0  0
   63.7380   32.1450   48.1220 C   0  0  0  0  0  0  0  0  0  0  0  0
   65.7236   31.6452   51.6086 H   0  0  0  0  0  0  0  0  0  0  0  0
   64.9568   31.0391   50.1015 H   0  0  0  0  0  0  0  0  0  0  0  0
   66.6911   31.5068   50.1015 H   0  0  0  0  0  0  0  0  0  0  0  0
   62.4520   33.9663   50.7157 H   0  0  0  0  0  0  0  0  0  0  0  0
   60.3203   33.2703   49.6216 H   0  0  0  0  0  0  0  0  0  0  0  0
   60.1216   30.6431   50.1484 H   0  0  0  0  0  0  0  0  0  0  0  0
   60.8790   28.7655   51.6052 H   0  0  0  0  0  0  0  0  0  0  0  0
   61.1186   26.4669   50.6637 H   0  0  0  0  0  0  0  0  0  0  0  0
   60.5901   26.0402   48.2614 H   0  0  0  0  0  0  0  0  0  0  0  0
   59.8363   27.9114   46.7951 H   0  0  0  0  0  0  0  0  0  0  0  0
   57.7629   29.5776   46.4536 H   0  0  0  0  0  0  0  0  0  0  0  0
   60.0747   34.4539   46.7409 H   0  0  0  0  0  0  0  0  0  0  0  0
   60.5021   33.6685   45.1760 H   0  0  0  0  0  0  0  0  0  0  0  0
   57.7597   34.7089   46.0619 H   0  0  0  0  0  0  0  0  0  0  0  0
   58.8113   35.3045   44.7012 H   0  0  0  0  0  0  0  0  0  0  0  0
   56.8213   33.9173   43.9649 H   0  0  0  0  0  0  0  0  0  0  0  0
   58.4404   33.3029   43.4305 H   0  0  0  0  0  0  0  0  0  0  0  0
   62.5733   31.1272   46.6062 H   0  0  0  0  0  0  0  0  0  0  0  0
   64.7025   31.8241   47.7016 H   0  0  0  0  0  0  0  0  0  0  0  0
  1  2  1  0
  2  3  1  0
  3  4  2  0
  4  5  1  0
  5  6  2  0
  6  7  1  0
  7  8  1  0
  8  9  1  0
  9 10  2  0
 10 11  1  0
 11 12  2  0
 12 13  1  0
 13 14  2  0
  8 15  2  0
 15 16  1  0
 16 17  2  0
 17 18  1  0
 18 19  1  0
 19 20  1  0
 20 21  1  0
 21 22  2  0
  6 23  1  0
 23 24  2  0
 24  3  1  0
 17  7  1  0
 14  9  1  0
 21 16  1  0
  1 25  1  0
  1 26  1  0
  1 27  1  0
  4 28  1  0
  5 29  1  0
 10 30  1  0
 11 31  1  0
 12 32  1  0
 13 33  1  0
 14 34  1  0
 15 35  1  0
 18 36  1  0
 18 37  1  0
 19 38  1  0
 19 39  1  0
 20 40  1  0
 20 41  1  0
 23 42  1  0
 24 43  1  0
M  END
>  <UniqueID>  (14) 
12

>  <SMILES>  (14) 
CSc1ccc(-n2c(-c3ccccc3)cc3c2CCCC3=O)cc1

>  <Energy>  (14) 
79.8586141005559

>  <Genealogy>  (14) 
CSc1ccc(-n2c(-c3ccccc3)cc3c2CCCC3=O)cc1 (3D coordinates assigned)
CSc1ccc(-n2c(-c3ccccc3)cc3c2CCCC3=O)cc1 (nonaromatic ring conformer: 79.8586141005559 kcal/mol)

>  <smiles>  (14) 
CSc1ccc(-n2c(-c3ccccc3)cc3c2CCCC3=O)cc1

>  <score_type>  (14) 
oracle

>  <origin>  (14) 
adg

>  <m_score__min__energy>  (14) 
-7.7699999999999996

>  <m_primary>  (14) 
energy

$$$$
14:0
     RDKit          3D

 54 56  0  0  0  0  0  0  0  0999 V2000
   57.9870   26.9950   46.3570 C   0  0  0  0  0  0  0  0  0  0  0  0
   57.0260   27.4440   45.2590 C   0  0  0  0  0  0  0  0  0  0  0  0
   57.1980   28.8850   44.9760 N   0  0  0  0  0  0  0  0  0  0  0  0
   56.6370   29.2230   43.6490 C   0  0  0  0  0  0  0  0  0  0  0  0
   57.0180   30.6530   43.2150 C   0  0  0  0  0  0  0  0  0  0  0  0
   57.5150   31.4250   44.3710 N   0  0  0  0  0  0  0  0  0  0  0  0
   57.7550   32.8360   44.0100 C   0  0  0  0  0  0  0  0  0  0  0  0
   57.4560   33.7370   45.1760 C   0  0  0  0  0  0  0  0  0  0  0  0
   56.6060   34.6570   45.0380 O   0  0  0  0  0  0  0  0  0  0  0  0
   58.1700   33.6100   46.4620 C   0  0  0  0  0  0  0  0  0  0  0  0
   57.8690   32.6740   47.4300 C   0  0  0  0  0  0  0  0  0  0  0  0
   58.7090   32.9280   48.4950 C   0  0  0  0  0  0  0  0  0  0  0  0
   58.6550   32.2020   49.8050 C   0  0  0  0  0  0  0  0  0  0  0  0
   59.5110   33.9850   48.2230 N   0  0  0  0  0  0  0  0  0  0  0  0
   60.4730   34.6030   49.1480 C   0  0  0  0  0  0  0  0  0  0  0  0
   61.8480   34.0210   48.9490 C   0  0  0  0  0  0  0  0  0  0  0  0
   62.7330   33.8880   50.0340 C   0  0  0  0  0  0  0  0  0  0  0  0
   64.0080   33.3490   49.8420 C   0  0  0  0  0  0  0  0  0  0  0  0
   64.4100   32.9370   48.5680 C   0  0  0  0  0  0  0  0  0  0  0  0
   63.5350   33.0610   47.4860 C   0  0  0  0  0  0  0  0  0  0  0  0
   62.2580   33.5980   47.6740 C   0  0  0  0  0  0  0  0  0  0  0  0
   59.2070   34.3910   46.9650 C   0  0  0  0  0  0  0  0  0  0  0  0
   59.9270   35.4880   46.2310 C   0  0  0  0  0  0  0  0  0  0  0  0
   58.7540   30.8120   44.8940 C   0  0  0  0  0  0  0  0  0  0  0  0
   58.6190   29.2820   45.0370 C   0  0  0  0  0  0  0  0  0  0  0  0
   57.5420   27.2029   47.3413 H   0  0  0  0  0  0  0  0  0  0  0  0
   58.1755   25.9156   46.2604 H   0  0  0  0  0  0  0  0  0  0  0  0
   58.9359   27.5430   46.2604 H   0  0  0  0  0  0  0  0  0  0  0  0
   57.2286   26.8688   44.3435 H   0  0  0  0  0  0  0  0  0  0  0  0
   55.9939   27.2691   45.5969 H   0  0  0  0  0  0  0  0  0  0  0  0
   57.0245   28.5101   42.9063 H   0  0  0  0  0  0  0  0  0  0  0  0
   55.5405   29.1661   43.7161 H   0  0  0  0  0  0  0  0  0  0  0  0
   57.8047   30.6017   42.4479 H   0  0  0  0  0  0  0  0  0  0  0  0
   56.1264   31.1526   42.8083 H   0  0  0  0  0  0  0  0  0  0  0  0
   58.8080   32.9605   43.7172 H   0  0  0  0  0  0  0  0  0  0  0  0
   57.0938   33.1062   43.1734 H   0  0  0  0  0  0  0  0  0  0  0  0
   57.1090   31.8813   47.3655 H   0  0  0  0  0  0  0  0  0  0  0  0
   58.7090   32.9284   50.6293 H   0  0  0  0  0  0  0  0  0  0  0  0
   57.7125   31.6390   49.8736 H   0  0  0  0  0  0  0  0  0  0  0  0
   59.5038   31.5057   49.8736 H   0  0  0  0  0  0  0  0  0  0  0  0
   60.5086   35.6866   48.9620 H   0  0  0  0  0  0  0  0  0  0  0  0
   60.1499   34.4049   50.1806 H   0  0  0  0  0  0  0  0  0  0  0  0
   62.4202   34.2097   51.0383 H   0  0  0  0  0  0  0  0  0  0  0  0
   64.6961   33.2488   50.6943 H   0  0  0  0  0  0  0  0  0  0  0  0
   65.4148   32.5154   48.4176 H   0  0  0  0  0  0  0  0  0  0  0  0
   63.8515   32.7354   46.4841 H   0  0  0  0  0  0  0  0  0  0  0  0
   61.5713   33.6896   46.8196 H   0  0  0  0  0  0  0  0  0  0  0  0
   60.3804   36.1788   46.9571 H   0  0  0  0  0  0  0  0  0  0  0  0
   60.7145   35.0511   45.5994 H   0  0  0  0  0  0  0  0  0  0  0  0
   59.2128   36.0367   45.5994 H   0  0  0  0  0  0  0  0  0  0  0  0
   59.5804   31.0336   44.2027 H   0  0  0  0  0  0  0  0  0  0  0  0
   58.9497   31.2330   45.8912 H   0  0  0  0  0  0  0  0  0  0  0  0
   59.1683   28.7913   44.2200 H   0  0  0  0  0  0  0  0  0  0  0  0
   59.0348   28.9753   46.0081 H   0  0  0  0  0  0  0  0  0  0  0  0
  1  2  1  0
  2  3  1  0
  3  4  1  0
  4  5  1  0
  5  6  1  0
  6  7  1  0
  7  8  1  0
  8  9  2  0
  8 10  1  0
 10 11  1  0
 11 12  2  0
 12 13  1  0
 12 14  1  0
 14 15  1  0
 15 16  1  0
 16 17  2  0
 17 18  1  0
 18 19  2  0
 19 20  1  0
 20 21  2  0
 14 22  1  0
 22 23  1  0
  6 24  1  0
 24 25  1  0
 25  3  1  0
 22 10  2  0
 21 16  1  0
  1 26  1  0
  1 27  1  0
  1 28  1  0
  2 29  1  0
  2 30  1  0
  4 31  1  0
  4 32  1  0
  5 33  1  0
  5 34  1  0
  7 35  1  0
  7 36  1  0
 11 37  1  0
 13 38  1  0
 13 39  1  0
 13 40  1  0
 15 41  1  0
 15 42  1  0
 17 43  1  0
 18 44  1  0
 19 45  1  0
 20 46  1  0
 21 47  1  0
 23 48  1  0
 23 49  1  0
 23 50  1  0
 24 51  1  0
 24 52  1  0
 25 53  1  0
 25 54  1  0
M  END
>  <UniqueID>  (15) 
13

>  <SMILES>  (15) 
CCN1CCN(CC(=O)c2cc(C)n(Cc3ccccc3)c2C)CC1

>  <Energy>  (15) 
88.50942648684908

>  <Genealogy>  (15) 
CCN1CCN(CC(=O)c2cc(C)n(Cc3ccccc3)c2C)CC1 (3D coordinates assigned)
CCN1CCN(CC(=O)c2cc(C)n(Cc3ccccc3)c2C)CC1 (nonaromatic ring conformer: 88.50942648684908 kcal/mol)

>  <smiles>  (15) 
CCN1CCN(CC(=O)c2cc(C)n(Cc3ccccc3)c2C)CC1

>  <score_type>  (15) 
oracle

>  <origin>  (15) 
adg

>  <m_score__min__energy>  (15) 
-8.1099999999999994

>  <m_primary>  (15) 
energy

$$$$
15:0
     RDKit          3D

 58 60  0  0  0  0  0  0  0  0999 V2000
   59.8210   33.2730   50.9880 C   0  0  0  0  0  0  0  0  0  0  0  0
   60.3250   32.5750   49.8550 O   0  0  0  0  0  0  0  0  0  0  0  0
   61.5630   32.8370   49.2420 C   0  0  0  0  0  0  0  0  0  0  0  0
   62.7170   32.0860   49.5450 C   0  0  0  0  0  0  0  0  0  0  0  0
   63.9310   32.3740   48.9190 C   0  0  0  0  0  0  0  0  0  0  0  0
   64.0120   33.4100   47.9880 C   0  0  0  0  0  0  0  0  0  0  0  0
   62.8770   34.1610   47.6780 C   0  0  0  0  0  0  0  0  0  0  0  0
   61.6480   33.8830   48.2990 C   0  0  0  0  0  0  0  0  0  0  0  0
   60.4320   34.7120   47.9640 C   0  0  0  0  0  0  0  0  0  0  0  0
   59.6270   34.0460   46.9180 N   0  0  0  0  0  0  0  0  0  0  0  0
   59.4840   34.9220   45.7320 C   0  0  0  0  0  0  0  0  0  0  0  0
   59.6560   34.1800   44.3950 C   0  0  0  0  0  0  0  0  0  0  0  0
   58.4660   33.2590   44.0950 C   0  0  0  0  0  0  0  0  0  0  0  0
   58.0970   32.4150   45.2400 N   0  0  0  0  0  0  0  0  0  0  0  0
   57.9660   31.0050   44.9920 C   0  0  0  0  0  0  0  0  0  0  0  0
   56.8330   30.5320   44.3100 C   0  0  0  0  0  0  0  0  0  0  0  0
   56.7010   29.1740   44.0150 C   0  0  0  0  0  0  0  0  0  0  0  0
   57.6990   28.2760   44.3940 C   0  0  0  0  0  0  0  0  0  0  0  0
   58.8310   28.7320   45.0740 C   0  0  0  0  0  0  0  0  0  0  0  0
   58.9770   30.0970   45.3840 C   0  0  0  0  0  0  0  0  0  0  0  0
   60.1890   30.5530   46.1720 C   0  0  0  0  0  0  0  0  0  0  0  0
   59.9380   30.5360   47.6320 N   0  0  0  0  0  0  0  0  0  0  0  0
   60.9810   29.7500   48.3140 C   0  0  0  0  0  0  0  0  0  0  0  0
   58.6100   29.9760   47.9460 C   0  0  0  0  0  0  0  0  0  0  0  0
   57.3790   32.9880   46.3870 C   0  0  0  0  0  0  0  0  0  0  0  0
   58.3640   33.4840   47.4580 C   0  0  0  0  0  0  0  0  0  0  0  0
   60.1745   32.7834   51.9074 H   0  0  0  0  0  0  0  0  0  0  0  0
   60.1776   34.3134   50.9662 H   0  0  0  0  0  0  0  0  0  0  0  0
   58.7213   33.2618   50.9662 H   0  0  0  0  0  0  0  0  0  0  0  0
   62.6605   31.2685   50.2788 H   0  0  0  0  0  0  0  0  0  0  0  0
   64.8264   31.7824   49.1604 H   0  0  0  0  0  0  0  0  0  0  0  0
   64.9708   33.6351   47.4980 H   0  0  0  0  0  0  0  0  0  0  0  0
   62.9454   34.9760   46.9425 H   0  0  0  0  0  0  0  0  0  0  0  0
   59.8186   34.8378   48.8684 H   0  0  0  0  0  0  0  0  0  0  0  0
   60.7606   35.6933   47.5909 H   0  0  0  0  0  0  0  0  0  0  0  0
   58.4815   35.3744   45.7524 H   0  0  0  0  0  0  0  0  0  0  0  0
   60.2836   35.6753   45.7885 H   0  0  0  0  0  0  0  0  0  0  0  0
   59.7456   34.9203   43.5863 H   0  0  0  0  0  0  0  0  0  0  0  0
   60.5602   33.5574   44.4643 H   0  0  0  0  0  0  0  0  0  0  0  0
   57.6002   33.8806   43.8230 H   0  0  0  0  0  0  0  0  0  0  0  0
   58.7628   32.5911   43.2729 H   0  0  0  0  0  0  0  0  0  0  0  0
   56.0445   31.2363   44.0063 H   0  0  0  0  0  0  0  0  0  0  0  0
   55.8090   28.8116   43.4831 H   0  0  0  0  0  0  0  0  0  0  0  0
   57.5945   27.2069   44.1570 H   0  0  0  0  0  0  0  0  0  0  0  0
   59.6144   28.0185   45.3694 H   0  0  0  0  0  0  0  0  0  0  0  0
   61.0315   29.8820   45.9483 H   0  0  0  0  0  0  0  0  0  0  0  0
   60.4169   31.5881   45.8776 H   0  0  0  0  0  0  0  0  0  0  0  0
   59.9750   31.5130   48.0060 H   0  0  0  0  0  0  0  0  0  0  0  0
   60.8572   29.8433   49.4030 H   0  0  0  0  0  0  0  0  0  0  0  0
   60.8917   28.6927   48.0241 H   0  0  0  0  0  0  0  0  0  0  0  0
   61.9728   30.1272   48.0241 H   0  0  0  0  0  0  0  0  0  0  0  0
   58.4833   29.9226   49.0374 H   0  0  0  0  0  0  0  0  0  0  0  0
   57.8292   30.6215   47.5174 H   0  0  0  0  0  0  0  0  0  0  0  0
   58.5272   28.9663   47.5174 H   0  0  0  0  0  0  0  0  0  0  0  0
   56.7658   33.8337   46.0422 H   0  0  0  0  0  0  0  0  0  0  0  0
   56.7426   32.2073   46.8291 H   0  0  0  0  0  0  0  0  0  0  0  0
   57.8645   34.2661   48.0486 H   0  0  0  0  0  0  0  0  0  0  0  0
   58.6433   32.6053   48.0579 H   0  0  0  0  0  0  0  0  0  0  0  0
  1  2  1  0
  2  3  1  0
  3  4  2  0
  4  5  1  0
  5  6  2  0
  6  7  1  0
  7  8  2  0
  8  9  1  0
  9 10  1  0
 10 11  1  0
 11 12  1  0
 12 13  1  0
 13 14  1  0
 14 15  1  0
 15 16  2  0
 16 17  1  0
 17 18  2  0
 18 19  1  0
 19 20  2  0
 20 21  1  0
 21 22  1  0
 22 23  1  0
 22 24  1  0
 14 25  1  0
 25 26  1  0
  8  3  1  0
 26 10  1  0
 20 15  1  0
  1 27  1  0
  1 28  1  0
  1 29  1  0
  4 30  1  0
  5 31  1  0
  6 32  1  0
  7 33  1  0
  9 34  1  0
  9 35  1  0
 11 36  1  0
 11 37  1  0
 12 38  1  0
 12 39  1  0
 13 40  1  0
 13 41  1  0
 16 42  1  0
 17 43  1  0
 18 44  1  0
 19 45  1  0
 21 46  1  0
 21 47  1  0
 22 48  1  0
 23 49  1  0
 23 50  1  0
 23 51  1  0
 24 52  1  0
 24 53  1  0
 24 54  1  0
 25 55  1  0
 25 56  1  0
 26 57  1  0
 26 58  1  0
M  CHG  1  22   1
M  END
>  <UniqueID>  (16) 
14

>  <SMILES>  (16) 
COc1ccccc1CN1CCCN(c2ccccc2C[NH+](C)C)CC1

>  <Energy>  (16) 
72.69083491808983

>  <Genealogy>  (16) 
COc1ccccc1CN1CCCN(c2ccccc2C[NH+](C)C)CC1 (protonated)
COc1ccccc1CN1CCCN(c2ccccc2C[NH+](C)C)CC1 (3D coordinates assigned)
COc1ccccc1CN1CCCN(c2ccccc2C[NH+](C)C)CC1 (nonaromatic ring conformer: 72.69083491808983 kcal/mol)

>  <smiles>  (16) 
COc1ccccc1CN1CCCN(c2ccccc2CN(C)C)CC1

>  <score_type>  (16) 
oracle

>  <origin>  (16) 
adg

>  <m_score__min__energy>  (16) 
-5.1900000000000004

>  <m_primary>  (16) 
energy

$$$$
16:0
     RDKit          3D

 53 55  0  0  0  0  0  0  0  0999 V2000
   58.2990   32.1300   50.9570 C   0  0  0  0  0  0  0  0  0  0  0  0
   58.1820   31.7730   49.5840 O   0  0  0  0  0  0  0  0  0  0  0  0
   59.2540   31.3650   48.7750 C   0  0  0  0  0  0  0  0  0  0  0  0
   59.3870   30.0400   48.3220 C   0  0  0  0  0  0  0  0  0  0  0  0
   60.5050   29.6540   47.5670 C   0  0  0  0  0  0  0  0  0  0  0  0
   60.6580   28.2240   47.1080 C   0  0  0  0  0  0  0  0  0  0  0  0
   59.9130   27.8760   45.8670 N   0  0  0  0  0  0  0  0  0  0  0  0
   59.9190   28.9290   44.8170 C   0  0  0  0  0  0  0  0  0  0  0  0
   58.7200   29.8860   44.8680 C   0  0  0  0  0  0  0  0  0  0  0  0
   57.4760   29.1320   45.0130 N   0  0  0  0  0  0  0  0  0  0  0  0
   56.2710   29.5260   44.3220 C   0  0  0  0  0  0  0  0  0  0  0  0
   56.3210   30.1630   42.9680 C   0  0  0  0  0  0  0  0  0  0  0  0
   55.1460   29.3420   44.8620 O   0  0  0  0  0  0  0  0  0  0  0  0
   57.4110   28.2080   46.1410 C   0  0  0  0  0  0  0  0  0  0  0  0
   58.5930   27.2300   46.0910 C   0  0  0  0  0  0  0  0  0  0  0  0
   61.4370   30.6260   47.1750 C   0  0  0  0  0  0  0  0  0  0  0  0
   61.3090   31.9480   47.6120 C   0  0  0  0  0  0  0  0  0  0  0  0
   62.5080   33.1320   47.1180 Cl  0  0  0  0  0  0  0  0  0  0  0  0
   60.2320   32.3110   48.4360 C   0  0  0  0  0  0  0  0  0  0  0  0
   60.1350   33.6070   48.9500 O   0  0  0  0  0  0  0  0  0  0  0  0
   59.4280   34.6370   48.2610 C   0  0  0  0  0  0  0  0  0  0  0  0
   58.8870   34.1160   46.9560 C   0  0  0  0  0  0  0  0  0  0  0  0
   59.5680   34.3730   45.7550 C   0  0  0  0  0  0  0  0  0  0  0  0
   59.0200   33.9670   44.5350 C   0  0  0  0  0  0  0  0  0  0  0  0
   57.7850   33.3130   44.5040 C   0  0  0  0  0  0  0  0  0  0  0  0
   57.0960   33.0640   45.6950 C   0  0  0  0  0  0  0  0  0  0  0  0
   57.6410   33.4680   46.9170 C   0  0  0  0  0  0  0  0  0  0  0  0
   58.0176   31.2714   51.5844 H   0  0  0  0  0  0  0  0  0  0  0  0
   59.3384   32.4175   51.1738 H   0  0  0  0  0  0  0  0  0  0  0  0
   57.6314   32.9770   51.1738 H   0  0  0  0  0  0  0  0  0  0  0  0
   58.6085   29.3007   48.5615 H   0  0  0  0  0  0  0  0  0  0  0  0
   61.7268   28.0365   46.9278 H   0  0  0  0  0  0  0  0  0  0  0  0
   60.2321   27.5987   47.9065 H   0  0  0  0  0  0  0  0  0  0  0  0
   60.5020   27.1110   45.4570 H   0  0  0  0  0  0  0  0  0  0  0  0
   60.8377   29.5230   44.9314 H   0  0  0  0  0  0  0  0  0  0  0  0
   59.8616   28.4071   43.8504 H   0  0  0  0  0  0  0  0  0  0  0  0
   58.8344   30.5660   45.7251 H   0  0  0  0  0  0  0  0  0  0  0  0
   58.6822   30.4630   43.9322 H   0  0  0  0  0  0  0  0  0  0  0  0
   56.4066   31.2540   43.0790 H   0  0  0  0  0  0  0  0  0  0  0  0
   57.1919   29.7812   42.4151 H   0  0  0  0  0  0  0  0  0  0  0  0
   55.4012   29.9218   42.4151 H   0  0  0  0  0  0  0  0  0  0  0  0
   57.4501   28.7781   47.0809 H   0  0  0  0  0  0  0  0  0  0  0  0
   56.4709   27.6394   46.0867 H   0  0  0  0  0  0  0  0  0  0  0  0
   58.6325   26.6883   47.0476 H   0  0  0  0  0  0  0  0  0  0  0  0
   58.4169   26.5671   45.2310 H   0  0  0  0  0  0  0  0  0  0  0  0
   62.2746   30.3463   46.5191 H   0  0  0  0  0  0  0  0  0  0  0  0
   58.5931   34.9853   48.8868 H   0  0  0  0  0  0  0  0  0  0  0  0
   60.1177   35.4691   48.0559 H   0  0  0  0  0  0  0  0  0  0  0  0
   60.5358   34.8955   45.7745 H   0  0  0  0  0  0  0  0  0  0  0  0
   59.5615   34.1625   43.5977 H   0  0  0  0  0  0  0  0  0  0  0  0
   57.3552   32.9943   43.5429 H   0  0  0  0  0  0  0  0  0  0  0  0
   56.1240   32.5496   45.6702 H   0  0  0  0  0  0  0  0  0  0  0  0
   57.0925   33.2780   47.8514 H   0  0  0  0  0  0  0  0  0  0  0  0
  1  2  1  0
  2  3  1  0
  3  4  2  0
  4  5  1  0
  5  6  1  0
  6  7  1  0
  7  8  1  0
  8  9  1  0
  9 10  1  0
 10 11  1  0
 11 12  1  0
 11 13  2  0
 10 14  1  0
 14 15  1  0
  5 16  2  0
 16 17  1  0
 17 18  1  0
 17 19  2  0
 19 20  1  0
 20 21  1  0
 21 22  1  0
 22 23  2  0
 23 24  1  0
 24 25  2  0
 25 26  1  0
 26 27  2  0
 19  3  1  0
 27 22  1  0
 15  7  1  0
  1 28  1  0
  1 29  1  0
  1 30  1  0
  4 31  1  0
  6 32  1  0
  6 33  1  0
  7 34  1  0
  8 35  1  0
  8 36  1  0
  9 37  1  0
  9 38  1  0
 12 39  1  0
 12 40  1  0
 12 41  1  0
 14 42  1  0
 14 43  1  0
 15 44  1  0
 15 45  1  0
 16 46  1  0
 21 47  1  0
 21 48  1  0
 23 49  1  0
 24 50  1  0
 25 51  1  0
 26 52  1  0
 27 53  1  0
M  CHG  1   7   1
M  END
>  <UniqueID>  (17) 
15

>  <SMILES>  (17) 
COc1cc(C[NH+]2CCN(C(C)=O)CC2)cc(Cl)c1OCc1ccccc1

>  <Energy>  (17) 
65.73107276197574

>  <Genealogy>  (17) 
COc1cc(C[NH+]2CCN(C(C)=O)CC2)cc(Cl)c1OCc1ccccc1 (protonated)
COc1cc(C[NH+]2CCN(C(C)=O)CC2)cc(Cl)c1OCc1ccccc1 (3D coordinates assigned)
COc1cc(C[NH+]2CCN(C(C)=O)CC2)cc(Cl)c1OCc1ccccc1 (nonaromatic ring conformer: 65.73107276197574 kcal/mol)

>  <smiles>  (17) 
COc1cc(CN2CCN(C(C)=O)CC2)cc(Cl)c1OCc1ccccc1

>  <score_type>  (17) 
oracle

>  <origin>  (17) 
adg

>  <m_score__min__energy>  (17) 
-6.7300000000000004

>  <m_primary>  (17) 
energy

$$$$
17:0
     RDKit          3D

 28 29  0  0  0  0  0  0  0  0999 V2000
   56.2710   29.7180   42.6280 C   0  0  0  0  0  0  0  0  0  0  0  0
   55.5600   30.1340   43.9110 C   0  0  0  0  0  0  0  0  0  0  0  0
   55.6150   29.0890   44.8800 O   0  0  0  0  0  0  0  0  0  0  0  0
   56.8020   28.4550   45.2620 C   0  0  0  0  0  0  0  0  0  0  0  0
   56.7770   27.3820   45.9250 O   0  0  0  0  0  0  0  0  0  0  0  0
   58.1130   29.0920   44.9310 C   0  0  0  0  0  0  0  0  0  0  0  0
   58.4100   30.1440   45.8990 N   0  0  0  0  0  0  0  0  0  0  0  0
   58.7870   29.9770   47.1930 C   0  0  0  0  0  0  0  0  0  0  0  0
   58.9100   31.1560   47.8510 N   0  0  0  0  0  0  0  0  0  0  0  0
   58.5860   32.0860   46.9360 C   0  0  0  0  0  0  0  0  0  0  0  0
   58.5270   33.4680   47.0950 C   0  0  0  0  0  0  0  0  0  0  0  0
   58.1330   34.2350   45.9830 C   0  0  0  0  0  0  0  0  0  0  0  0
   57.8090   33.6080   44.7570 C   0  0  0  0  0  0  0  0  0  0  0  0
   57.8770   32.2080   44.6320 C   0  0  0  0  0  0  0  0  0  0  0  0
   58.2770   31.4770   45.7530 C   0  0  0  0  0  0  0  0  0  0  0  0
   57.1952   29.1772   42.8798 H   0  0  0  0  0  0  0  0  0  0  0  0
   55.6118   29.0631   42.0393 H   0  0  0  0  0  0  0  0  0  0  0  0
   56.5189   30.6135   42.0393 H   0  0  0  0  0  0  0  0  0  0  0  0
   56.0480   31.0312   44.3195 H   0  0  0  0  0  0  0  0  0  0  0  0
   54.5058   30.3451   43.6783 H   0  0  0  0  0  0  0  0  0  0  0  0
   58.9070   28.3314   44.9631 H   0  0  0  0  0  0  0  0  0  0  0  0
   58.0599   29.5300   43.9234 H   0  0  0  0  0  0  0  0  0  0  0  0
   58.9717   28.9960   47.6550 H   0  0  0  0  0  0  0  0  0  0  0  0
   59.1790   31.3030   48.8490 H   0  0  0  0  0  0  0  0  0  0  0  0
   58.7791   33.9428   48.0547 H   0  0  0  0  0  0  0  0  0  0  0  0
   58.0765   35.3303   46.0677 H   0  0  0  0  0  0  0  0  0  0  0  0
   57.5018   34.2190   43.8955 H   0  0  0  0  0  0  0  0  0  0  0  0
   57.6243   31.7074   43.6857 H   0  0  0  0  0  0  0  0  0  0  0  0
  1  2  1  0
  2  3  1  0
  3  4  1  0
  4  5  2  0
  4  6  1  0
  6  7  1  0
  7  8  1  0
  8  9  2  0
  9 10  1  0
 10 11  2  0
 11 12  1  0
 12 13  2  0
 13 14  1  0
 14 15  2  0
 15  7  1  0
 15 10  1  0
  1 16  1  0
  1 17  1  0
  1 18  1  0
  2 19  1  0
  2 20  1  0
  6 21  1  0
  6 22  1  0
  8 23  1  0
  9 24  1  0
 11 25  1  0
 12 26  1  0
 13 27  1  0
 14 28  1  0
M  CHG  1   9   1
M  END
>  <UniqueID>  (18) 
16

>  <SMILES>  (18) 
CCOC(=O)Cn1c[nH+]c2ccccc21

>  <Energy>  (18) 
60.55014643707235

>  <Genealogy>  (18) 
CCOC(=O)Cn1c[nH+]c2ccccc21 (protonated)
CCOC(=O)Cn1c[nH+]c2ccccc21 (3D coordinates assigned)
CCOC(=O)Cn1c[nH+]c2ccccc21 (optimized conformer: 60.55014643707235 kcal/mol)

>  <smiles>  (18) 
CCOC(=O)Cn1cnc2ccccc21

>  <score_type>  (18) 
oracle

>  <origin>  (18) 
adg

>  <m_score__min__energy>  (18) 
-4.0099999999999998

>  <m_primary>  (18) 
energy

$$$$
18:0
     RDKit          3D

 37 39  0  0  0  0  0  0  0  0999 V2000
   56.5110   25.2060   45.3170 C   0  0  0  0  0  0  0  0  0  0  0  0
   56.1350   26.5000   45.7770 O   0  0  0  0  0  0  0  0  0  0  0  0
   57.0370   27.5430   46.0430 C   0  0  0  0  0  0  0  0  0  0  0  0
   58.2230   27.3380   46.7720 C   0  0  0  0  0  0  0  0  0  0  0  0
   59.0960   28.3980   47.0170 C   0  0  0  0  0  0  0  0  0  0  0  0
   58.8040   29.6870   46.5430 C   0  0  0  0  0  0  0  0  0  0  0  0
   59.7310   30.8170   46.8060 C   0  0  0  0  0  0  0  0  0  0  0  0
   59.5830   32.0780   46.2270 C   0  0  0  0  0  0  0  0  0  0  0  0
   60.8330   33.0520   46.7860 S   0  0  0  0  0  0  0  0  0  0  0  0
   61.5210   31.8490   47.7430 C   0  0  0  0  0  0  0  0  0  0  0  0
   62.7410   32.0120   48.5720 C   0  0  0  0  0  0  0  0  0  0  0  0
   62.9290   31.2250   49.7240 C   0  0  0  0  0  0  0  0  0  0  0  0
   64.0770   31.3730   50.5070 C   0  0  0  0  0  0  0  0  0  0  0  0
   65.0550   32.3040   50.1480 C   0  0  0  0  0  0  0  0  0  0  0  0
   66.6250   32.5040   51.2170 Br  0  0  0  0  0  0  0  0  0  0  0  0
   64.8850   33.0860   49.0020 C   0  0  0  0  0  0  0  0  0  0  0  0
   63.7370   32.9420   48.2180 C   0  0  0  0  0  0  0  0  0  0  0  0
   60.8060   30.7030   47.6390 N   0  0  0  0  0  0  0  0  0  0  0  0
   57.6210   29.8920   45.8110 C   0  0  0  0  0  0  0  0  0  0  0  0
   56.7360   28.8250   45.5600 C   0  0  0  0  0  0  0  0  0  0  0  0
   55.5470   28.9980   44.8310 O   0  0  0  0  0  0  0  0  0  0  0  0
   55.4450   29.7300   43.6140 C   0  0  0  0  0  0  0  0  0  0  0  0
   56.7013   24.5510   46.1800 H   0  0  0  0  0  0  0  0  0  0  0  0
   55.6986   24.7830   44.7078 H   0  0  0  0  0  0  0  0  0  0  0  0
   57.4236   25.2843   44.7078 H   0  0  0  0  0  0  0  0  0  0  0  0
   58.4636   26.3340   47.1516 H   0  0  0  0  0  0  0  0  0  0  0  0
   60.0208   28.2226   47.5862 H   0  0  0  0  0  0  0  0  0  0  0  0
   58.7889   32.3807   45.5286 H   0  0  0  0  0  0  0  0  0  0  0  0
   62.1654   30.4869   50.0104 H   0  0  0  0  0  0  0  0  0  0  0  0
   64.2109   30.7555   51.4074 H   0  0  0  0  0  0  0  0  0  0  0  0
   65.6564   33.8163   48.7166 H   0  0  0  0  0  0  0  0  0  0  0  0
   63.6106   33.5603   47.3170 H   0  0  0  0  0  0  0  0  0  0  0  0
   61.0760   29.8090   48.1060 H   0  0  0  0  0  0  0  0  0  0  0  0
   57.3840   30.8964   45.4302 H   0  0  0  0  0  0  0  0  0  0  0  0
   55.2964   30.7965   43.8389 H   0  0  0  0  0  0  0  0  0  0  0  0
   56.3695   29.6035   43.0314 H   0  0  0  0  0  0  0  0  0  0  0  0
   54.5904   29.3556   43.0314 H   0  0  0  0  0  0  0  0  0  0  0  0
  1  2  1  0
  2  3  1  0
  3  4  2  0
  4  5  1  0
  5  6  2  0
  6  7  1  0
  7  8  2  0
  8  9  1  0
  9 10  1  0
 10 11  1  0
 11 12  2  0
 12 13  1  0
 13 14  2  0
 14 15  1  0
 14 16  1  0
 16 17  2  0
 10 18  2  0
  6 19  1  0
 19 20  2  0
 20 21  1  0
 21 22  1  0
 20  3  1  0
 18  7  1  0
 17 11  1  0
  1 23  1  0
  1 24  1  0
  1 25  1  0
  4 26  1  0
  5 27  1  0
  8 28  1  0
 12 29  1  0
 13 30  1  0
 16 31  1  0
 17 32  1  0
 18 33  1  0
 19 34  1  0
 22 35  1  0
 22 36  1  0
 22 37  1  0
M  CHG  1  18   1
M  END
>  <UniqueID>  (19) 
17

>  <SMILES>  (19) 
COc1ccc(-c2csc(-c3ccc(Br)cc3)[nH+]2)cc1OC

>  <Energy>  (19) 
73.30221625364864

>  <Genealogy>  (19) 
COc1ccc(-c2csc(-c3ccc(Br)cc3)[nH+]2)cc1OC (protonated)
COc1ccc(-c2csc(-c3ccc(Br)cc3)[nH+]2)cc1OC (3D coordinates assigned)
COc1ccc(-c2csc(-c3ccc(Br)cc3)[nH+]2)cc1OC (optimized conformer: 73.30221625364864 kcal/mol)

>  <smiles>  (19) 
COc1ccc(-c2csc(-c3ccc(Br)cc3)n2)cc1OC

>  <score_type>  (19) 
oracle

>  <origin>  (19) 
adg

>  <m_score__min__energy>  (19) 
-5.6100000000000003

>  <m_primary>  (19) 
energy

$$$$
19:0
     RDKit          3D

 56 59  0  0  0  0  0  0  0  0999 V2000
   56.5470   29.2220   45.5030 O   0  0  0  0  0  0  0  0  0  0  0  0
   57.7310   28.9870   45.8640 C   0  0  0  0  0  0  0  0  0  0  0  0
   58.5290   30.0670   46.5360 C   0  0  0  0  0  0  0  0  0  0  0  0
   59.9610   29.9460   46.1940 N   0  0  1  0  0  0  0  0  0  0  0  0
   60.8030   30.9620   46.8150 C   0  0  0  0  0  0  0  0  0  0  0  0
   62.0150   30.7840   46.8210 O   0  0  0  0  0  0  0  0  0  0  0  0
   60.2450   32.1800   47.5510 C   0  0  1  0  0  0  0  0  0  0  0  0
   60.4240   32.0230   49.0780 C   0  0  0  0  0  0  0  0  0  0  0  0
   60.5020   33.3750   49.8090 C   0  0  0  0  0  0  0  0  0  0  0  0
   59.7240   34.4550   49.0510 C   0  0  0  0  0  0  0  0  0  0  0  0
   60.2850   34.7000   47.6960 N   0  0  0  0  0  0  0  0  0  0  0  0
   59.2830   35.3240   46.8050 C   0  0  0  0  0  0  0  0  0  0  0  0
   58.6990   34.3090   45.8550 C   0  0  0  0  0  0  0  0  0  0  0  0
   59.2320   34.1480   44.5650 C   0  0  0  0  0  0  0  0  0  0  0  0
   58.7010   33.1860   43.6990 C   0  0  0  0  0  0  0  0  0  0  0  0
   57.6390   32.3770   44.1160 C   0  0  0  0  0  0  0  0  0  0  0  0
   56.9760   31.1700   43.0290 Cl  0  0  0  0  0  0  0  0  0  0  0  0
   57.1090   32.5290   45.4020 C   0  0  0  0  0  0  0  0  0  0  0  0
   57.6380   33.4890   46.2690 C   0  0  0  0  0  0  0  0  0  0  0  0
   60.8970   33.4970   47.0700 C   0  0  0  0  0  0  0  0  0  0  0  0
   60.4600   28.5970   46.5290 C   0  0  0  0  0  0  0  0  0  0  0  0
   59.7700   27.5350   45.6600 C   0  0  0  0  0  0  0  0  0  0  0  0
   58.3070   27.6770   45.6940 N   0  0  0  0  0  0  0  0  0  0  0  0
   57.4680   26.5390   45.4070 C   0  0  0  0  0  0  0  0  0  0  0  0
   56.3380   26.2610   46.2010 C   0  0  0  0  0  0  0  0  0  0  0  0
   55.5230   25.1630   45.9110 C   0  0  0  0  0  0  0  0  0  0  0  0
   55.8230   24.3350   44.8260 C   0  0  0  0  0  0  0  0  0  0  0  0
   56.9370   24.6060   44.0270 C   0  0  0  0  0  0  0  0  0  0  0  0
   57.7550   25.7020   44.3140 C   0  0  0  0  0  0  0  0  0  0  0  0
   58.1599   31.0486   46.2040 H   0  0  0  0  0  0  0  0  0  0  0  0
   58.4152   29.9657   47.6254 H   0  0  0  0  0  0  0  0  0  0  0  0
   60.0440   30.0820   45.1570 H   0  0  0  0  0  0  0  0  0  0  0  0
   59.1713   32.2355   47.3184 H   0  0  0  0  0  0  0  0  0  0  0  0
   59.5692   31.4565   49.4761 H   0  0  0  0  0  0  0  0  0  0  0  0
   61.3752   31.4976   49.2487 H   0  0  0  0  0  0  0  0  0  0  0  0
   60.0747   33.2643   50.8165 H   0  0  0  0  0  0  0  0  0  0  0  0
   61.5571   33.6804   49.8691 H   0  0  0  0  0  0  0  0  0  0  0  0
   58.6773   34.1326   48.9488 H   0  0  0  0  0  0  0  0  0  0  0  0
   59.7985   35.3914   49.6233 H   0  0  0  0  0  0  0  0  0  0  0  0
   58.4746   35.7516   47.4163 H   0  0  0  0  0  0  0  0  0  0  0  0
   59.7782   36.1106   46.2168 H   0  0  0  0  0  0  0  0  0  0  0  0
   60.0694   34.7803   44.2349 H   0  0  0  0  0  0  0  0  0  0  0  0
   59.1193   33.0657   42.6888 H   0  0  0  0  0  0  0  0  0  0  0  0
   56.2748   31.8920   45.7311 H   0  0  0  0  0  0  0  0  0  0  0  0
   57.2209   33.6024   47.2805 H   0  0  0  0  0  0  0  0  0  0  0  0
   60.7804   33.5698   45.9786 H   0  0  0  0  0  0  0  0  0  0  0  0
   61.9567   33.4710   47.3638 H   0  0  0  0  0  0  0  0  0  0  0  0
   61.5452   28.5588   46.3532 H   0  0  0  0  0  0  0  0  0  0  0  0
   60.2386   28.3891   47.5862 H   0  0  0  0  0  0  0  0  0  0  0  0
   60.1154   27.6438   44.6213 H   0  0  0  0  0  0  0  0  0  0  0  0
   60.0293   26.5427   46.0576 H   0  0  0  0  0  0  0  0  0  0  0  0
   56.0956   26.9117   47.0541 H   0  0  0  0  0  0  0  0  0  0  0  0
   54.6443   24.9504   46.5377 H   0  0  0  0  0  0  0  0  0  0  0  0
   55.1822   23.4698   44.6008 H   0  0  0  0  0  0  0  0  0  0  0  0
   57.1703   23.9557   43.1710 H   0  0  0  0  0  0  0  0  0  0  0  0
   58.6295   25.9115   43.6805 H   0  0  0  0  0  0  0  0  0  0  0  0
  1  2  2  0
  2  3  1  0
  3  4  1  0
  4  5  1  0
  5  6  2  0
  5  7  1  0
  7  8  1  0
  8  9  1  0
  9 10  1  0
 10 11  1  0
 11 12  1  0
 12 13  1  0
 13 14  2  0
 14 15  1  0
 15 16  2  0
 16 17  1  0
 16 18  1  0
 18 19  2  0
 11 20  1  0
  4 21  1  0
 21 22  1  0
 22 23  1  0
 23 24  1  0
 24 25  2  0
 25 26  1  0
 26 27  2  0
 27 28  1  0
 28 29  2  0
 23  2  1  0
 29 24  1  0
 20  7  1  0
 19 13  1  0
  3 30  1  0
  3 31  1  0
  4 32  1  6
  7 33  1  1
  8 34  1  0
  8 35  1  0
  9 36  1  0
  9 37  1  0
 10 38  1  0
 10 39  1  0
 12 40  1  0
 12 41  1  0
 14 42  1  0
 15 43  1  0
 18 44  1  0
 19 45  1  0
 20 46  1  0
 20 47  1  0
 21 48  1  0
 21 49  1  0
 22 50  1  0
 22 51  1  0
 25 52  1  0
 26 53  1  0
 27 54  1  0
 28 55  1  0
 29 56  1  0
M  CHG  1   4   1
M  END
>  <UniqueID>  (20) 
18

>  <SMILES>  (20) 
O=C1C[N@@H+](C(=O)[C@H]2CCCN(Cc3ccc(Cl)cc3)C2)CCN1c1ccccc1

>  <Energy>  (20) 
78.31468632105849

>  <Genealogy>  (20) 
O=C1C[NH+](C(=O)C2CCCN(Cc3ccc(Cl)cc3)C2)CCN1c1ccccc1 (protonated)
O=C1C[N@@H+](C(=O)[C@H]2CCCN(Cc3ccc(Cl)cc3)C2)CCN1c1ccccc1 (chirality)
O=C1C[N@@H+](C(=O)[C@H]2CCCN(Cc3ccc(Cl)cc3)C2)CCN1c1ccccc1 (3D coordinates assigned)
O=C1C[N@@H+](C(=O)[C@H]2CCCN(Cc3ccc(Cl)cc3)C2)CCN1c1ccccc1 (nonaromatic ring conformer: 78.31468632105849 kcal/mol)

>  <smiles>  (20) 
O=C(C1CCCN(Cc2ccc(Cl)cc2)C1)N1CCN(c2ccccc2)C(=O)C1

>  <score_type>  (20) 
oracle

>  <origin>  (20) 
adg

>  <m_score__min__energy>  (20) 
-7.6399999999999997

>  <m_primary>  (20) 
energy

$$$$
20:0
     RDKit          3D

 46 48  0  0  0  0  0  0  0  0999 V2000
   59.3250   34.5140   48.6000 C   0  0  0  0  0  0  0  0  0  0  0  0
   60.2210   33.9160   47.6050 N   0  0  0  0  0  0  0  0  0  0  0  0
   59.7140   33.7060   46.2380 C   0  0  0  0  0  0  0  0  0  0  0  0
   59.1540   32.3150   46.0490 C   0  0  0  0  0  0  0  0  0  0  0  0
   58.1740   32.0920   45.0700 C   0  0  0  0  0  0  0  0  0  0  0  0
   57.6650   30.8090   44.8480 C   0  0  0  0  0  0  0  0  0  0  0  0
   58.1360   29.7170   45.5990 C   0  0  0  0  0  0  0  0  0  0  0  0
   57.6140   28.3480   45.3750 C   0  0  0  0  0  0  0  0  0  0  0  0
   56.8470   28.1370   44.3960 O   0  0  0  0  0  0  0  0  0  0  0  0
   57.9660   27.2640   46.2540 N   0  0  0  0  0  0  0  0  0  0  0  0
   57.4830   25.9220   46.0780 C   0  0  0  0  0  0  0  0  0  0  0  0
   58.3890   24.8490   46.0210 C   0  0  0  0  0  0  0  0  0  0  0  0
   57.9270   23.5360   45.9000 C   0  0  0  0  0  0  0  0  0  0  0  0
   56.5570   23.2800   45.8470 C   0  0  0  0  0  0  0  0  0  0  0  0
   55.6440   24.3350   45.9130 C   0  0  0  0  0  0  0  0  0  0  0  0
   56.0940   25.6590   46.0300 C   0  0  0  0  0  0  0  0  0  0  0  0
   55.1340   26.7230   46.0660 N   0  0  0  0  0  0  0  0  0  0  0  0
   59.1410   29.9340   46.5560 C   0  0  0  0  0  0  0  0  0  0  0  0
   59.6480   31.2180   46.7780 C   0  0  0  0  0  0  0  0  0  0  0  0
   61.5780   33.5570   47.9680 C   0  0  0  0  0  0  0  0  0  0  0  0
   62.6430   33.7340   47.0590 C   0  0  0  0  0  0  0  0  0  0  0  0
   63.9480   33.3790   47.4130 C   0  0  0  0  0  0  0  0  0  0  0  0
   64.2110   32.8410   48.6730 C   0  0  0  0  0  0  0  0  0  0  0  0
   63.1690   32.6560   49.5830 C   0  0  0  0  0  0  0  0  0  0  0  0
   61.8620   33.0080   49.2360 C   0  0  0  0  0  0  0  0  0  0  0  0
   59.6863   34.2729   49.6106 H   0  0  0  0  0  0  0  0  0  0  0  0
   59.3069   35.6059   48.4679 H   0  0  0  0  0  0  0  0  0  0  0  0
   58.3097   34.1118   48.4679 H   0  0  0  0  0  0  0  0  0  0  0  0
   58.9188   34.4392   46.0377 H   0  0  0  0  0  0  0  0  0  0  0  0
   60.5555   33.8310   45.5407 H   0  0  0  0  0  0  0  0  0  0  0  0
   57.8021   32.9360   44.4705 H   0  0  0  0  0  0  0  0  0  0  0  0
   56.8917   30.6526   44.0815 H   0  0  0  0  0  0  0  0  0  0  0  0
   58.6080   27.4420   47.0580 H   0  0  0  0  0  0  0  0  0  0  0  0
   59.4703   25.0445   46.0721 H   0  0  0  0  0  0  0  0  0  0  0  0
   58.6442   22.7037   45.8465 H   0  0  0  0  0  0  0  0  0  0  0  0
   56.1949   22.2456   45.7531 H   0  0  0  0  0  0  0  0  0  0  0  0
   54.5647   24.1265   45.8730 H   0  0  0  0  0  0  0  0  0  0  0  0
   54.3630   26.7180   46.7710 H   0  0  0  0  0  0  0  0  0  0  0  0
   55.1460   27.5010   45.3710 H   0  0  0  0  0  0  0  0  0  0  0  0
   59.5329   29.0857   47.1363 H   0  0  0  0  0  0  0  0  0  0  0  0
   60.4383   31.3713   47.5276 H   0  0  0  0  0  0  0  0  0  0  0  0
   62.4443   34.1553   46.0625 H   0  0  0  0  0  0  0  0  0  0  0  0
   64.7696   33.5243   46.6962 H   0  0  0  0  0  0  0  0  0  0  0  0
   65.2388   32.5628   48.9491 H   0  0  0  0  0  0  0  0  0  0  0  0
   63.3773   32.2318   50.5763 H   0  0  0  0  0  0  0  0  0  0  0  0
   61.0467   32.8555   49.9586 H   0  0  0  0  0  0  0  0  0  0  0  0
  1  2  1  0
  2  3  1  0
  3  4  1  0
  4  5  2  0
  5  6  1  0
  6  7  2  0
  7  8  1  0
  8  9  2  0
  8 10  1  0
 10 11  1  0
 11 12  2  0
 12 13  1  0
 13 14  2  0
 14 15  1  0
 15 16  2  0
 16 17  1  0
  7 18  1  0
 18 19  2  0
  2 20  1  0
 20 21  2  0
 21 22  1  0
 22 23  2  0
 23 24  1  0
 24 25  2  0
 19  4  1  0
 25 20  1  0
 16 11  1  0
  1 26  1  0
  1 27  1  0
  1 28  1  0
  3 29  1  0
  3 30  1  0
  5 31  1  0
  6 32  1  0
 10 33  1  0
 12 34  1  0
 13 35  1  0
 14 36  1  0
 15 37  1  0
 17 38  1  0
 17 39  1  0
 18 40  1  0
 19 41  1  0
 21 42  1  0
 22 43  1  0
 23 44  1  0
 24 45  1  0
 25 46  1  0
M  END
>  <UniqueID>  (21) 
19

>  <SMILES>  (21) 
CN(Cc1ccc(C(=O)Nc2ccccc2N)cc1)c1ccccc1

>  <Energy>  (21) 
59.23146570321635

>  <Genealogy>  (21) 
CN(Cc1ccc(C(=O)Nc2ccccc2N)cc1)c1ccccc1 (3D coordinates assigned)
CN(Cc1ccc(C(=O)Nc2ccccc2N)cc1)c1ccccc1 (optimized conformer: 59.23146570321635 kcal/mol)

>  <smiles>  (21) 
CN(Cc1ccc(C(=O)Nc2ccccc2N)cc1)c1ccccc1

>  <score_type>  (21) 
oracle

>  <origin>  (21) 
adg

>  <m_score__min__energy>  (21) 
-8.2400000000000002

>  <m_primary>  (21) 
energy

$$$$
21:0
     RDKit          3D

 40 41  0  0  0  0  0  0  0  0999 V2000
   57.7060   27.1590   45.3460 C   0  0  0  0  0  0  0  0  0  0  0  0
   58.4380   27.8420   44.1870 C   0  0  0  0  0  0  0  0  0  0  0  0
   57.5160   28.5370   43.2700 N   0  0  0  0  0  0  0  0  0  0  0  0
   56.5710   29.4110   43.9850 C   0  0  0  0  0  0  0  0  0  0  0  0
   57.2700   30.6530   44.4750 C   0  0  0  0  0  0  0  0  0  0  0  0
   57.4060   31.7660   43.6350 C   0  0  0  0  0  0  0  0  0  0  0  0
   58.0860   32.9070   44.0750 C   0  0  0  0  0  0  0  0  0  0  0  0
   58.6520   32.9510   45.3640 C   0  0  0  0  0  0  0  0  0  0  0  0
   59.3790   34.1560   45.8510 C   0  0  0  0  0  0  0  0  0  0  0  0
   59.5810   35.1180   45.0600 O   0  0  0  0  0  0  0  0  0  0  0  0
   59.8780   34.2540   47.2710 C   0  0  0  0  0  0  0  0  0  0  0  0
   61.2840   33.8670   47.3720 N   0  0  0  0  0  0  0  0  0  0  0  0
   62.1870   33.8330   46.3700 C   0  0  0  0  0  0  0  0  0  0  0  0
   63.4060   33.4600   46.9010 C   0  0  0  0  0  0  0  0  0  0  0  0
   63.2520   33.2890   48.2300 N   0  0  0  0  0  0  0  0  0  0  0  0
   64.2610   32.8250   49.1720 C   0  0  0  0  0  0  0  0  0  0  0  0
   61.9540   33.5340   48.4920 C   0  0  0  0  0  0  0  0  0  0  0  0
   58.5240   31.8220   46.1960 C   0  0  0  0  0  0  0  0  0  0  0  0
   57.8450   30.6830   45.7540 C   0  0  0  0  0  0  0  0  0  0  0  0
   58.1046   27.5309   46.3014 H   0  0  0  0  0  0  0  0  0  0  0  0
   56.6311   27.3845   45.2845 H   0  0  0  0  0  0  0  0  0  0  0  0
   57.8566   26.0711   45.2845 H   0  0  0  0  0  0  0  0  0  0  0  0
   59.1454   28.5763   44.5999 H   0  0  0  0  0  0  0  0  0  0  0  0
   58.9568   27.0609   43.6119 H   0  0  0  0  0  0  0  0  0  0  0  0
   58.0920   29.1270   42.6230 H   0  0  0  0  0  0  0  0  0  0  0  0
   56.9910   27.8380   42.6930 H   0  0  0  0  0  0  0  0  0  0  0  0
   55.7569   29.6985   43.3035 H   0  0  0  0  0  0  0  0  0  0  0  0
   56.1657   28.8655   44.8500 H   0  0  0  0  0  0  0  0  0  0  0  0
   56.9754   31.7427   42.6230 H   0  0  0  0  0  0  0  0  0  0  0  0
   58.1793   33.7771   43.4085 H   0  0  0  0  0  0  0  0  0  0  0  0
   59.7670   35.2919   47.6182 H   0  0  0  0  0  0  0  0  0  0  0  0
   59.2852   33.5677   47.8936 H   0  0  0  0  0  0  0  0  0  0  0  0
   61.9868   34.0627   45.3130 H   0  0  0  0  0  0  0  0  0  0  0  0
   64.3411   33.3256   46.3374 H   0  0  0  0  0  0  0  0  0  0  0  0
   63.9056   32.9885   50.2001 H   0  0  0  0  0  0  0  0  0  0  0  0
   64.4446   31.7520   49.0137 H   0  0  0  0  0  0  0  0  0  0  0  0
   65.1950   33.3840   49.0137 H   0  0  0  0  0  0  0  0  0  0  0  0
   61.4995   33.4704   49.4917 H   0  0  0  0  0  0  0  0  0  0  0  0
   58.9631   31.8367   47.2045 H   0  0  0  0  0  0  0  0  0  0  0  0
   57.7612   29.8058   46.4125 H   0  0  0  0  0  0  0  0  0  0  0  0
  1  2  1  0
  2  3  1  0
  3  4  1  0
  4  5  1  0
  5  6  2  0
  6  7  1  0
  7  8  2  0
  8  9  1  0
  9 10  2  0
  9 11  1  0
 11 12  1  0
 12 13  1  0
 13 14  2  0
 14 15  1  0
 15 16  1  0
 15 17  1  0
  8 18  1  0
 18 19  2  0
 19  5  1  0
 17 12  2  0
  1 20  1  0
  1 21  1  0
  1 22  1  0
  2 23  1  0
  2 24  1  0
  3 25  1  0
  3 26  1  0
  4 27  1  0
  4 28  1  0
  6 29  1  0
  7 30  1  0
 11 31  1  0
 11 32  1  0
 13 33  1  0
 14 34  1  0
 16 35  1  0
 16 36  1  0
 16 37  1  0
 17 38  1  0
 18 39  1  0
 19 40  1  0
M  CHG  2   3   1  12   1
M  END
>  <UniqueID>  (22) 
20

>  <SMILES>  (22) 
CC[NH2+]Cc1ccc(C(=O)C[n+]2ccn(C)c2)cc1

>  <Energy>  (22) 
67.98132289540071

>  <Genealogy>  (22) 
CC[NH2+]Cc1ccc(C(=O)C[n+]2ccn(C)c2)cc1 (protonated)
CC[NH2+]Cc1ccc(C(=O)C[n+]2ccn(C)c2)cc1 (3D coordinates assigned)
CC[NH2+]Cc1ccc(C(=O)C[n+]2ccn(C)c2)cc1 (optimized conformer: 67.98132289540071 kcal/mol)

>  <smiles>  (22) 
CCNCc1ccc(C(=O)C[n+]2ccn(C)c2)cc1

>  <score_type>  (22) 
oracle

>  <origin>  (22) 
adg

>  <m_score__min__energy>  (22) 
-4.1100000000000003

>  <m_primary>  (22) 
energy

$$$$
22:0
     RDKit          3D

 44 47  0  0  0  0  0  0  0  0999 V2000
   56.6400   29.3620   43.6410 C   0  0  0  0  0  0  0  0  0  0  0  0
   57.2250   30.4420   44.4240 N   0  0  0  0  0  0  0  0  0  0  0  0
   58.4530   30.4390   44.9740 C   0  0  0  0  0  0  0  0  0  0  0  0
   58.5930   31.6050   45.6940 C   0  0  0  0  0  0  0  0  0  0  0  0
   59.7670   32.0140   46.5280 C   0  0  0  0  0  0  0  0  0  0  0  0
   59.8080   33.4830   46.6540 N   0  0  0  0  0  0  0  0  0  0  0  0
   59.1260   34.0150   47.8560 C   0  0  0  0  0  0  0  0  0  0  0  0
   59.8700   33.7430   49.1880 C   0  0  0  0  0  0  0  0  0  0  0  0
   61.1810   34.5210   49.3890 C   0  0  0  0  0  0  0  0  0  0  0  0
   62.3000   33.9630   48.5600 C   0  0  0  0  0  0  0  0  0  0  0  0
   62.2550   33.8090   47.1930 C   0  0  0  0  0  0  0  0  0  0  0  0
   63.4620   33.2220   46.8610 C   0  0  0  0  0  0  0  0  0  0  0  0
   64.1970   33.0540   47.9800 N   0  0  0  0  0  0  0  0  0  0  0  0
   63.4950   33.5150   49.0040 N   0  0  0  0  0  0  0  0  0  0  0  0
   63.9660   33.4500   50.3850 C   0  0  0  0  0  0  0  0  0  0  0  0
   63.3230   32.2540   51.0970 C   0  0  0  0  0  0  0  0  0  0  0  0
   64.0780   30.9390   50.9680 C   0  0  0  0  0  0  0  0  0  0  0  0
   62.7930   31.1610   50.1820 C   0  0  0  0  0  0  0  0  0  0  0  0
   61.1040   34.1050   46.2670 C   0  0  0  0  0  0  0  0  0  0  0  0
   57.3880   32.2670   45.5590 C   0  0  0  0  0  0  0  0  0  0  0  0
   56.5670   31.5340   44.7820 N   0  0  0  0  0  0  0  0  0  0  0  0
   56.2272   28.5999   44.3184 H   0  0  0  0  0  0  0  0  0  0  0  0
   55.8358   29.7630   43.0066 H   0  0  0  0  0  0  0  0  0  0  0  0
   57.4152   28.9075   43.0066 H   0  0  0  0  0  0  0  0  0  0  0  0
   59.2094   29.6475   44.8677 H   0  0  0  0  0  0  0  0  0  0  0  0
   59.6777   31.5648   47.5281 H   0  0  0  0  0  0  0  0  0  0  0  0
   60.6921   31.6667   46.0447 H   0  0  0  0  0  0  0  0  0  0  0  0
   59.0195   35.1034   47.7376 H   0  0  0  0  0  0  0  0  0  0  0  0
   58.1595   33.4942   47.9246 H   0  0  0  0  0  0  0  0  0  0  0  0
   59.1917   34.0042   50.0137 H   0  0  0  0  0  0  0  0  0  0  0  0
   60.1523   32.6801   49.1627 H   0  0  0  0  0  0  0  0  0  0  0  0
   61.0178   35.5709   49.1043 H   0  0  0  0  0  0  0  0  0  0  0  0
   61.4676   34.4350   50.4475 H   0  0  0  0  0  0  0  0  0  0  0  0
   63.7738   32.9370   45.8453 H   0  0  0  0  0  0  0  0  0  0  0  0
   65.0599   33.3347   50.3928 H   0  0  0  0  0  0  0  0  0  0  0  0
   63.6874   34.3768   50.9079 H   0  0  0  0  0  0  0  0  0  0  0  0
   62.9109   32.8375   51.9335 H   0  0  0  0  0  0  0  0  0  0  0  0
   65.0449   30.9088   50.4444 H   0  0  0  0  0  0  0  0  0  0  0  0
   64.4365   30.1750   51.6736 H   0  0  0  0  0  0  0  0  0  0  0  0
   62.8315   31.2909   49.0904 H   0  0  0  0  0  0  0  0  0  0  0  0
   61.8382   30.6235   50.0844 H   0  0  0  0  0  0  0  0  0  0  0  0
   60.9631   35.1955   46.2358 H   0  0  0  0  0  0  0  0  0  0  0  0
   61.3741   33.6710   45.2930 H   0  0  0  0  0  0  0  0  0  0  0  0
   57.1387   33.2373   46.0132 H   0  0  0  0  0  0  0  0  0  0  0  0
  1  2  1  0
  2  3  1  0
  3  4  2  0
  4  5  1  0
  5  6  1  0
  6  7  1  0
  7  8  1  0
  8  9  1  0
  9 10  1  0
 10 11  2  0
 11 12  1  0
 12 13  2  0
 13 14  1  0
 14 15  1  0
 15 16  1  0
 16 17  1  0
 17 18  1  0
 11 19  1  0
  4 20  1  0
 20 21  2  0
 21  2  1  0
 19  6  1  0
 14 10  1  0
 18 16  1  0
  1 22  1  0
  1 23  1  0
  1 24  1  0
  3 25  1  0
  5 26  1  0
  5 27  1  0
  7 28  1  0
  7 29  1  0
  8 30  1  0
  8 31  1  0
  9 32  1  0
  9 33  1  0
 12 34  1  0
 15 35  1  0
 15 36  1  0
 16 37  1  0
 17 38  1  0
 17 39  1  0
 18 40  1  0
 18 41  1  0
 19 42  1  0
 19 43  1  0
 20 44  1  0
M  END
>  <UniqueID>  (23) 
21

>  <SMILES>  (23) 
Cn1cc(CN2CCCc3c(cnn3CC3CC3)C2)cn1

>  <Energy>  (23) 
381.06699500017925

>  <Genealogy>  (23) 
Cn1cc(CN2CCCc3c(cnn3CC3CC3)C2)cn1 (3D coordinates assigned)
Cn1cc(CN2CCCc3c(cnn3CC3CC3)C2)cn1 (nonaromatic ring conformer: 381.06699500017925 kcal/mol)

>  <smiles>  (23) 
Cn1cc(CN2CCCc3c(cnn3CC3CC3)C2)cn1

>  <score_type>  (23) 
oracle

>  <origin>  (23) 
adg

>  <m_score__min__energy>  (23) 
-5.6500000000000004

>  <m_primary>  (23) 
energy

$$$$
23:0
     RDKit          3D

 32 34  0  0  0  0  0  0  0  0999 V2000
   54.6760   25.0070   45.6150 C   0  0  0  0  0  0  0  0  0  0  0  0
   55.1360   26.2840   46.0460 O   0  0  0  0  0  0  0  0  0  0  0  0
   56.4790   26.6860   46.0410 C   0  0  0  0  0  0  0  0  0  0  0  0
   57.4620   26.0420   46.8170 C   0  0  0  0  0  0  0  0  0  0  0  0
   58.7850   26.4920   46.7890 C   0  0  0  0  0  0  0  0  0  0  0  0
   59.1420   27.5750   45.9830 C   0  0  0  0  0  0  0  0  0  0  0  0
   58.1810   28.2120   45.1840 C   0  0  0  0  0  0  0  0  0  0  0  0
   58.5690   29.3370   44.3780 N   0  0  0  0  0  0  0  0  0  0  0  0
   58.5800   30.6950   44.8480 C   0  0  0  0  0  0  0  0  0  0  0  0
   57.7840   31.6640   44.2180 C   0  0  0  0  0  0  0  0  0  0  0  0
   57.7790   32.9400   44.6860 N   0  0  0  0  0  0  0  0  0  0  0  0
   58.5250   33.2970   45.7630 C   0  0  0  0  0  0  0  0  0  0  0  0
   58.5140   34.6140   46.2380 C   0  0  0  0  0  0  0  0  0  0  0  0
   59.2890   34.9600   47.3500 C   0  0  0  0  0  0  0  0  0  0  0  0
   60.0740   33.9930   47.9890 C   0  0  0  0  0  0  0  0  0  0  0  0
   60.0890   32.6750   47.5200 C   0  0  0  0  0  0  0  0  0  0  0  0
   59.3170   32.3250   46.4070 C   0  0  0  0  0  0  0  0  0  0  0  0
   59.3180   31.0510   45.9360 N   0  0  0  0  0  0  0  0  0  0  0  0
   56.8470   27.7710   45.2340 C   0  0  0  0  0  0  0  0  0  0  0  0
   54.4512   24.3829   46.4925 H   0  0  0  0  0  0  0  0  0  0  0  0
   53.7658   25.1302   45.0098 H   0  0  0  0  0  0  0  0  0  0  0  0
   55.4557   24.5215   45.0098 H   0  0  0  0  0  0  0  0  0  0  0  0
   57.1880   25.1827   47.4467 H   0  0  0  0  0  0  0  0  0  0  0  0
   59.5475   25.9914   47.4039 H   0  0  0  0  0  0  0  0  0  0  0  0
   60.1829   27.9307   45.9746 H   0  0  0  0  0  0  0  0  0  0  0  0
   58.7770   29.1650   43.3680 H   0  0  0  0  0  0  0  0  0  0  0  0
   57.1667   31.3920   43.3491 H   0  0  0  0  0  0  0  0  0  0  0  0
   57.8972   35.3751   45.7378 H   0  0  0  0  0  0  0  0  0  0  0  0
   59.2816   35.9947   47.7233 H   0  0  0  0  0  0  0  0  0  0  0  0
   60.6813   34.2705   48.8632 H   0  0  0  0  0  0  0  0  0  0  0  0
   60.7056   31.9166   48.0246 H   0  0  0  0  0  0  0  0  0  0  0  0
   56.0825   28.2841   44.6321 H   0  0  0  0  0  0  0  0  0  0  0  0
  1  2  1  0
  2  3  1  0
  3  4  2  0
  4  5  1  0
  5  6  2  0
  6  7  1  0
  7  8  1  0
  8  9  1  0
  9 10  2  0
 10 11  1  0
 11 12  2  0
 12 13  1  0
 13 14  2  0
 14 15  1  0
 15 16  2  0
 16 17  1  0
 17 18  2  0
  7 19  2  0
 19  3  1  0
 18  9  1  0
 17 12  1  0
  1 20  1  0
  1 21  1  0
  1 22  1  0
  4 23  1  0
  5 24  1  0
  6 25  1  0
  8 26  1  0
 10 27  1  0
 13 28  1  0
 14 29  1  0
 15 30  1  0
 16 31  1  0
 19 32  1  0
M  END
>  <UniqueID>  (24) 
22

>  <SMILES>  (24) 
COc1cccc(Nc2cnc3ccccc3n2)c1

>  <Energy>  (24) 
41.5199686941762

>  <Genealogy>  (24) 
COc1cccc(Nc2cnc3ccccc3n2)c1 (3D coordinates assigned)
COc1cccc(Nc2cnc3ccccc3n2)c1 (optimized conformer: 41.5199686941762 kcal/mol)

>  <smiles>  (24) 
COc1cccc(Nc2cnc3ccccc3n2)c1

>  <score_type>  (24) 
oracle

>  <origin>  (24) 
adg

>  <m_score__min__energy>  (24) 
-6.9900000000000002

>  <m_primary>  (24) 
energy

$$$$
24:0
     RDKit          3D

 35 37  0  0  0  0  0  0  0  0999 V2000
   59.3910   35.5040   44.2090 H   0  0  0  0  0  0  0  0  0  0  0  0
   59.6280   34.5460   44.1310 O   0  0  0  0  0  0  0  0  0  0  0  0
   59.1030   33.8650   45.5730 S   0  0  0  0  0  0  0  0  0  0  0  0
   60.3470   33.8510   46.8080 C   0  0  0  0  0  0  0  0  0  0  0  0
   60.0330   34.1780   48.1340 C   0  0  0  0  0  0  0  0  0  0  0  0
   59.0000   34.4412   48.4052 H   0  0  0  0  0  0  0  0  0  0  0  0
   61.0320   34.1700   49.1130 C   0  0  0  0  0  0  0  0  0  0  0  0
   60.7848   34.4286   50.1532 H   0  0  0  0  0  0  0  0  0  0  0  0
   62.3460   33.8330   48.7690 C   0  0  0  0  0  0  0  0  0  0  0  0
   63.1313   33.8264   49.5392 H   0  0  0  0  0  0  0  0  0  0  0  0
   62.6610   33.5050   47.4480 C   0  0  0  0  0  0  0  0  0  0  0  0
   63.6942   33.2403   47.1788 H   0  0  0  0  0  0  0  0  0  0  0  0
   61.6630   33.5130   46.4670 C   0  0  0  0  0  0  0  0  0  0  0  0
   61.9121   33.2537   45.4274 H   0  0  0  0  0  0  0  0  0  0  0  0
   58.3270   32.3100   45.3440 C   0  0  0  0  0  0  0  0  0  0  0  0
   57.3810   32.1460   44.3050 C   0  0  0  0  0  0  0  0  0  0  0  0
   57.1417   32.9939   43.6463 H   0  0  0  0  0  0  0  0  0  0  0  0
   56.7430   30.9060   44.1070 C   0  0  0  0  0  0  0  0  0  0  0  0
   56.0070   30.7644   43.3019 H   0  0  0  0  0  0  0  0  0  0  0  0
   57.0800   29.8660   44.9700 C   0  0  0  0  0  0  0  0  0  0  0  0
   57.9940   30.0180   45.9680 C   0  0  0  0  0  0  0  0  0  0  0  0
   58.1530   28.8640   46.6400 N   0  0  0  0  0  0  0  0  0  0  0  0
   57.2900   28.0270   46.0050 C   0  0  0  0  0  0  0  0  0  0  0  0
   57.1710   26.7800   46.3610 N   0  0  0  0  0  0  0  0  0  0  0  0
   55.9940   25.9640   46.3340 C   0  0  0  0  0  0  0  0  0  0  0  0
   55.0130   26.3370   45.6360 O   0  0  0  0  0  0  0  0  0  0  0  0
   55.9440   24.7430   47.0130 O   0  0  0  0  0  0  0  0  0  0  0  0
   56.9010   23.7100   46.8070 C   0  0  0  0  0  0  0  0  0  0  0  0
   57.2496   23.3337   47.7801 H   0  0  0  0  0  0  0  0  0  0  0  0
   56.4377   22.8885   46.2408 H   0  0  0  0  0  0  0  0  0  0  0  0
   57.7554   24.1093   46.2408 H   0  0  0  0  0  0  0  0  0  0  0  0
   56.6220   28.6070   44.9710 N   0  0  0  0  0  0  0  0  0  0  0  0
   55.9460   28.1980   44.2920 H   0  0  0  0  0  0  0  0  0  0  0  0
   58.6460   31.2280   46.1910 C   0  0  0  0  0  0  0  0  0  0  0  0
   59.3840   31.3363   46.9994 H   0  0  0  0  0  0  0  0  0  0  0  0
  1  2  1  0
  3  2  1  6
  3  4  1  0
  4  5  2  0
  5  6  1  0
  5  7  1  0
  7  8  1  0
  7  9  2  0
  9 10  1  0
  9 11  1  0
 11 12  1  0
 11 13  2  0
 13 14  1  0
  3 15  1  0
 15 16  2  0
 16 17  1  0
 16 18  1  0
 18 19  1  0
 18 20  2  0
 20 21  1  0
 21 22  1  0
 22 23  1  0
 23 24  2  0
 24 25  1  0
 25 26  2  0
 25 27  1  0
 27 28  1  0
 28 29  1  0
 28 30  1  0
 28 31  1  0
 23 32  1  0
 32 33  1  0
 21 34  2  0
 34 35  1  0
 13  4  1  0
 34 15  1  0
 32 20  1  0
M  CHG  2   3   1  22  -1
M  END
>  <UniqueID>  (25) 
23

>  <SMILES>  (25) 
COC(=O)/N=c1/[n-]c2cc([S@+](O)c3ccccc3)ccc2[nH]1

>  <Energy>  (25) 
73.50116036780983

>  <Genealogy>  (25) 
COC(=O)N=c1[n-]c2cc([S+](O)c3ccccc3)ccc2[nH]1 (protonated)
COC(=O)N=c1[n-]c2cc([S@+](O)c3ccccc3)ccc2[nH]1 (chirality)
COC(=O)/N=c1/[n-]c2cc([S@+](O)c3ccccc3)ccc2[nH]1 (cis-trans isomerization)
COC(=O)/N=c1/[n-]c2cc([S@+](O)c3ccccc3)ccc2[nH]1 (3D coordinates assigned)
COC(=O)/N=c1/[n-]c2cc([S@+](O)c3ccccc3)ccc2[nH]1 (optimized conformer: 73.50116036780983 kcal/mol)

>  <smiles>  (25) 
COC(=O)N=c1[nH]c2ccc([S+]([O-])c3ccccc3)cc2[nH]1

>  <score_type>  (25) 
oracle

>  <origin>  (25) 
adg

>  <m_score__min__energy>  (25) 
-8.0700000000000003

>  <m_primary>  (25) 
energy

$$$$
25:0
     RDKit          3D

 29 31  0  0  0  0  0  0  0  0999 V2000
   59.7740   34.1670   49.8760 C   0  0  0  0  0  0  0  0  0  0  0  0
   60.8840   33.8230   48.9860 N   0  0  0  0  0  0  0  0  0  0  0  0
   60.8610   33.6610   47.6350 C   0  0  0  0  0  0  0  0  0  0  0  0
   59.6680   33.7530   46.7660 C   0  0  0  0  0  0  0  0  0  0  0  0
   58.5290   32.9820   47.0530 C   0  0  0  0  0  0  0  0  0  0  0  0
   57.3890   33.0770   46.2480 C   0  0  0  0  0  0  0  0  0  0  0  0
   57.3730   33.9500   45.1570 C   0  0  0  0  0  0  0  0  0  0  0  0
   58.4940   34.7340   44.8750 C   0  0  0  0  0  0  0  0  0  0  0  0
   59.6360   34.6420   45.6770 C   0  0  0  0  0  0  0  0  0  0  0  0
   62.1480   33.3810   47.1890 C   0  0  0  0  0  0  0  0  0  0  0  0
   62.9470   33.3440   48.2680 N   0  0  0  0  0  0  0  0  0  0  0  0
   64.2790   33.0910   48.3490 C   0  0  0  0  0  0  0  0  0  0  0  0
   64.8780   33.1010   49.6160 C   0  0  0  0  0  0  0  0  0  0  0  0
   64.0920   33.3670   50.7530 C   0  0  0  0  0  0  0  0  0  0  0  0
   62.7170   33.6230   50.6230 C   0  0  0  0  0  0  0  0  0  0  0  0
   62.1720   33.6050   49.3340 C   0  0  0  0  0  0  0  0  0  0  0  0
   60.0983   34.0665   50.9223 H   0  0  0  0  0  0  0  0  0  0  0  0
   59.4606   35.2044   49.6873 H   0  0  0  0  0  0  0  0  0  0  0  0
   58.9289   33.4886   49.6873 H   0  0  0  0  0  0  0  0  0  0  0  0
   58.5338   32.2997   47.9158 H   0  0  0  0  0  0  0  0  0  0  0  0
   56.5042   32.4638   46.4740 H   0  0  0  0  0  0  0  0  0  0  0  0
   56.4783   34.0197   44.5208 H   0  0  0  0  0  0  0  0  0  0  0  0
   58.4786   35.4257   44.0198 H   0  0  0  0  0  0  0  0  0  0  0  0
   60.5130   35.2678   45.4550 H   0  0  0  0  0  0  0  0  0  0  0  0
   62.4551   33.2196   46.1451 H   0  0  0  0  0  0  0  0  0  0  0  0
   64.8711   32.8840   47.4454 H   0  0  0  0  0  0  0  0  0  0  0  0
   65.9548   32.9024   49.7212 H   0  0  0  0  0  0  0  0  0  0  0  0
   64.5575   33.3744   51.7496 H   0  0  0  0  0  0  0  0  0  0  0  0
   62.0907   33.8303   51.5032 H   0  0  0  0  0  0  0  0  0  0  0  0
  1  2  1  0
  2  3  1  0
  3  4  1  0
  4  5  2  0
  5  6  1  0
  6  7  2  0
  7  8  1  0
  8  9  2  0
  3 10  2  0
 10 11  1  0
 11 12  1  0
 12 13  2  0
 13 14  1  0
 14 15  2  0
 15 16  1  0
 16  2  2  0
  9  4  1  0
 16 11  1  0
  1 17  1  0
  1 18  1  0
  1 19  1  0
  5 20  1  0
  6 21  1  0
  7 22  1  0
  8 23  1  0
  9 24  1  0
 10 25  1  0
 12 26  1  0
 13 27  1  0
 14 28  1  0
 15 29  1  0
M  CHG  1   2   1
M  END
>  <UniqueID>  (26) 
24

>  <SMILES>  (26) 
C[n+]1c(-c2ccccc2)cn2ccccc21

>  <Energy>  (26) 
73.5597567530644

>  <Genealogy>  (26) 
C[n+]1c(-c2ccccc2)cn2ccccc21 (3D coordinates assigned)
C[n+]1c(-c2ccccc2)cn2ccccc21 (optimized conformer: 73.5597567530644 kcal/mol)

>  <smiles>  (26) 
C[n+]1c(-c2ccccc2)cn2ccccc21

>  <score_type>  (26) 
oracle

>  <origin>  (26) 
adg

>  <m_score__min__energy>  (26) 
-4.71

>  <m_primary>  (26) 
energy

$$$$
26:0
     RDKit          3D

 41 43  0  0  0  0  0  0  0  0999 V2000
   61.3950   34.2100   49.3190 C   0  0  0  0  0  0  0  0  0  0  0  0
   60.0000   34.2700   49.0450 O   0  0  0  0  0  0  0  0  0  0  0  0
   59.3710   33.6290   47.9630 C   0  0  0  0  0  0  0  0  0  0  0  0
   58.8510   34.3500   46.8740 C   0  0  0  0  0  0  0  0  0  0  0  0
   58.2430   33.6850   45.8070 C   0  0  0  0  0  0  0  0  0  0  0  0
   58.1470   32.2830   45.8000 C   0  0  0  0  0  0  0  0  0  0  0  0
   57.5040   31.5570   44.6730 C   0  0  0  0  0  0  0  0  0  0  0  0
   57.7010   31.9460   43.3350 C   0  0  0  0  0  0  0  0  0  0  0  0
   57.0780   31.2280   42.3110 C   0  0  0  0  0  0  0  0  0  0  0  0
   56.2720   30.1330   42.6190 C   0  0  0  0  0  0  0  0  0  0  0  0
   56.1040   29.7660   43.9550 C   0  0  0  0  0  0  0  0  0  0  0  0
   56.7170   30.4760   44.9380 N   0  0  0  0  0  0  0  0  0  0  0  0
   58.6530   31.5640   46.8960 C   0  0  0  0  0  0  0  0  0  0  0  0
   59.2610   32.2250   47.9760 C   0  0  0  0  0  0  0  0  0  0  0  0
   59.8300   31.4240   49.1220 C   0  0  0  0  0  0  0  0  0  0  0  0
   58.7460   30.9050   49.9810 N   0  0  0  0  0  0  0  0  0  0  0  0
   57.9420   32.0060   50.5540 C   0  0  0  0  0  0  0  0  0  0  0  0
   56.9990   31.4880   51.6590 C   0  0  0  0  0  0  0  0  0  0  0  0
   56.9070   30.0790   51.6240 O   0  0  0  0  0  0  0  0  0  0  0  0
   58.1650   29.5110   51.9430 C   0  0  0  0  0  0  0  0  0  0  0  0
   59.3030   30.0730   51.0630 C   0  0  0  0  0  0  0  0  0  0  0  0
   61.5549   34.2031   50.4073 H   0  0  0  0  0  0  0  0  0  0  0  0
   61.8156   33.2929   48.8808 H   0  0  0  0  0  0  0  0  0  0  0  0
   61.8928   35.0876   48.8808 H   0  0  0  0  0  0  0  0  0  0  0  0
   58.9236   35.4475   46.8622 H   0  0  0  0  0  0  0  0  0  0  0  0
   57.8357   34.2636   44.9648 H   0  0  0  0  0  0  0  0  0  0  0  0
   58.3406   32.8088   43.0971 H   0  0  0  0  0  0  0  0  0  0  0  0
   57.2234   31.5266   41.2623 H   0  0  0  0  0  0  0  0  0  0  0  0
   55.7746   29.5652   41.8189 H   0  0  0  0  0  0  0  0  0  0  0  0
   55.4748   28.9012   44.2124 H   0  0  0  0  0  0  0  0  0  0  0  0
   58.5718   30.4671   46.9084 H   0  0  0  0  0  0  0  0  0  0  0  0
   60.4092   30.5794   48.7205 H   0  0  0  0  0  0  0  0  0  0  0  0
   60.4784   32.0772   49.7243 H   0  0  0  0  0  0  0  0  0  0  0  0
   58.6188   32.7594   50.9833 H   0  0  0  0  0  0  0  0  0  0  0  0
   57.3316   32.4469   49.7521 H   0  0  0  0  0  0  0  0  0  0  0  0
   57.3883   31.7992   52.6396 H   0  0  0  0  0  0  0  0  0  0  0  0
   55.9969   31.9097   51.4918 H   0  0  0  0  0  0  0  0  0  0  0  0
   58.3935   29.7272   52.9971 H   0  0  0  0  0  0  0  0  0  0  0  0
   58.1013   28.4283   51.7591 H   0  0  0  0  0  0  0  0  0  0  0  0
   59.9737   30.6853   51.6836 H   0  0  0  0  0  0  0  0  0  0  0  0
   59.8617   29.2352   50.6203 H   0  0  0  0  0  0  0  0  0  0  0  0
  1  2  1  0
  2  3  1  0
  3  4  2  0
  4  5  1  0
  5  6  2  0
  6  7  1  0
  7  8  2  0
  8  9  1  0
  9 10  2  0
 10 11  1  0
 11 12  2  0
  6 13  1  0
 13 14  2  0
 14 15  1  0
 15 16  1  0
 16 17  1  0
 17 18  1  0
 18 19  1  0
 19 20  1  0
 20 21  1  0
 14  3  1  0
 21 16  1  0
 12  7  1  0
  1 22  1  0
  1 23  1  0
  1 24  1  0
  4 25  1  0
  5 26  1  0
  8 27  1  0
  9 28  1  0
 10 29  1  0
 11 30  1  0
 13 31  1  0
 15 32  1  0
 15 33  1  0
 17 34  1  0
 17 35  1  0
 18 36  1  0
 18 37  1  0
 20 38  1  0
 20 39  1  0
 21 40  1  0
 21 41  1  0
M  END
>  <UniqueID>  (27) 
25

>  <SMILES>  (27) 
COc1ccc(-c2ccccn2)cc1CN1CCOCC1

>  <Energy>  (27) 
55.485435252981105

>  <Genealogy>  (27) 
COc1ccc(-c2ccccn2)cc1CN1CCOCC1 (3D coordinates assigned)
COc1ccc(-c2ccccn2)cc1CN1CCOCC1 (nonaromatic ring conformer: 55.485435252981105 kcal/mol)

>  <smiles>  (27) 
COc1ccc(-c2ccccn2)cc1CN1CCOCC1

>  <score_type>  (27) 
oracle

>  <origin>  (27) 
adg

>  <m_score__min__energy>  (27) 
-7.1900000000000004

>  <m_primary>  (27) 
energy

$$$$
27:0
     RDKit          3D

 38 40  0  0  0  0  0  0  0  0999 V2000
   57.2390   32.6420   52.3950 C   0  0  0  0  0  0  0  0  0  0  0  0
   57.5280   31.7840   51.3300 C   0  0  0  0  0  0  0  0  0  0  0  0
   58.7090   31.9470   50.6000 C   0  0  0  0  0  0  0  0  0  0  0  0
   59.6170   32.9670   50.9360 C   0  0  0  0  0  0  0  0  0  0  0  0
   60.9040   33.1230   50.1600 C   0  0  0  0  0  0  0  0  0  0  0  0
   60.7000   33.3210   48.6370 C   0  0  0  0  0  0  0  0  0  0  0  0
   59.7900   34.5230   48.2890 C   0  0  0  0  0  0  0  0  0  0  0  0
   58.9620   34.2720   47.0510 C   0  0  0  0  0  0  0  0  0  0  0  0
   57.8100   33.4680   47.1240 C   0  0  0  0  0  0  0  0  0  0  0  0
   57.0350   33.2410   45.9830 C   0  0  0  0  0  0  0  0  0  0  0  0
   57.4030   33.8080   44.7610 C   0  0  0  0  0  0  0  0  0  0  0  0
   58.5510   34.6010   44.6770 C   0  0  0  0  0  0  0  0  0  0  0  0
   59.3290   34.8320   45.8160 C   0  0  0  0  0  0  0  0  0  0  0  0
   61.9900   33.4080   47.9390 N   0  0  0  0  0  0  0  0  0  0  0  0
   63.1990   32.9970   48.3710 C   0  0  0  0  0  0  0  0  0  0  0  0
   64.1230   33.1800   47.4150 N   0  0  0  0  0  0  0  0  0  0  0  0
   63.4280   33.7080   46.3900 C   0  0  0  0  0  0  0  0  0  0  0  0
   62.1220   33.8450   46.6950 N   0  0  0  0  0  0  0  0  0  0  0  0
   59.3130   33.8300   52.0020 C   0  0  0  0  0  0  0  0  0  0  0  0
   58.1290   33.6650   52.7290 C   0  0  0  0  0  0  0  0  0  0  0  0
   56.3104   32.5114   52.9701 H   0  0  0  0  0  0  0  0  0  0  0  0
   56.8255   30.9798   51.0661 H   0  0  0  0  0  0  0  0  0  0  0  0
   58.9292   31.2739   49.7583 H   0  0  0  0  0  0  0  0  0  0  0  0
   61.4418   33.9980   50.5538 H   0  0  0  0  0  0  0  0  0  0  0  0
   61.4683   32.1874   50.2871 H   0  0  0  0  0  0  0  0  0  0  0  0
   60.1680   32.4270   48.2797 H   0  0  0  0  0  0  0  0  0  0  0  0
   59.1134   34.7118   49.1355 H   0  0  0  0  0  0  0  0  0  0  0  0
   60.4370   35.3906   48.0924 H   0  0  0  0  0  0  0  0  0  0  0  0
   57.5177   33.0159   48.0833 H   0  0  0  0  0  0  0  0  0  0  0  0
   56.1333   32.6144   46.0478 H   0  0  0  0  0  0  0  0  0  0  0  0
   56.7898   33.6307   43.8651 H   0  0  0  0  0  0  0  0  0  0  0  0
   58.8430   35.0441   43.7135 H   0  0  0  0  0  0  0  0  0  0  0  0
   60.2326   35.4552   45.7445 H   0  0  0  0  0  0  0  0  0  0  0  0
   63.3997   32.5721   49.3656 H   0  0  0  0  0  0  0  0  0  0  0  0
   65.1420   32.9520   47.4520 H   0  0  0  0  0  0  0  0  0  0  0  0
   63.8706   33.9922   45.4239 H   0  0  0  0  0  0  0  0  0  0  0  0
   60.0093   34.6395   52.2664 H   0  0  0  0  0  0  0  0  0  0  0  0
   57.8989   34.3421   53.5648 H   0  0  0  0  0  0  0  0  0  0  0  0
  1  2  2  0
  2  3  1  0
  3  4  2  0
  4  5  1  0
  5  6  1  0
  6  7  1  0
  7  8  1  0
  8  9  2  0
  9 10  1  0
 10 11  2  0
 11 12  1  0
 12 13  2  0
  6 14  1  0
 14 15  1  0
 15 16  2  0
 16 17  1  0
 17 18  2  0
  4 19  1  0
 19 20  2  0
 20  1  1  0
 13  8  1  0
 18 14  1  0
  1 21  1  0
  2 22  1  0
  3 23  1  0
  5 24  1  0
  5 25  1  0
  6 26  1  0
  7 27  1  0
  7 28  1  0
  9 29  1  0
 10 30  1  0
 11 31  1  0
 12 32  1  0
 13 33  1  0
 15 34  1  0
 16 35  1  0
 17 36  1  0
 19 37  1  0
 20 38  1  0
M  CHG  1  16   1
M  END
>  <UniqueID>  (28) 
26

>  <SMILES>  (28) 
c1ccc(CC(Cc2ccccc2)n2c[nH+]cn2)cc1

>  <Energy>  (28) 
72.15535658482557

>  <Genealogy>  (28) 
c1ccc(CC(Cc2ccccc2)n2c[nH+]cn2)cc1 (protonated)
c1ccc(CC(Cc2ccccc2)n2c[nH+]cn2)cc1 (3D coordinates assigned)
c1ccc(CC(Cc2ccccc2)n2c[nH+]cn2)cc1 (optimized conformer: 72.15535658482557 kcal/mol)

>  <smiles>  (28) 
c1ccc(CC(Cc2ccccc2)n2cncn2)cc1

>  <score_type>  (28) 
oracle

>  <origin>  (28) 
adg

>  <m_score__min__energy>  (28) 
-5.9500000000000002

>  <m_primary>  (28) 
energy

$$$$
28:0
     RDKit          3D

 40 42  0  0  0  0  0  0  0  0999 V2000
   56.4970   23.9080   43.7460 C   0  0  0  0  0  0  0  0  0  0  0  0
   56.4030   24.5170   45.0290 O   0  0  0  0  0  0  0  0  0  0  0  0
   57.1380   25.6430   45.4230 C   0  0  0  0  0  0  0  0  0  0  0  0
   57.2380   26.0530   46.7780 C   0  0  0  0  0  0  0  0  0  0  0  0
   57.9830   27.1910   47.1240 C   0  0  0  0  0  0  0  0  0  0  0  0
   58.6070   27.8910   46.0950 C   0  0  0  0  0  0  0  0  0  0  0  0
   59.3690   29.0440   46.1380 C   0  0  0  0  0  0  0  0  0  0  0  0
   59.6950   29.8770   47.3370 C   0  0  0  0  0  0  0  0  0  0  0  0
   58.7100   30.9570   47.4460 N   0  0  0  0  0  0  0  0  0  0  0  0
   59.1260   32.1480   46.6960 C   0  0  0  0  0  0  0  0  0  0  0  0
   57.9120   32.7770   46.0050 C   0  0  0  0  0  0  0  0  0  0  0  0
   57.4230   31.9010   44.8840 C   0  0  0  0  0  0  0  0  0  0  0  0
   57.7610   32.1860   43.5510 C   0  0  0  0  0  0  0  0  0  0  0  0
   57.3560   31.3130   42.5400 C   0  0  0  0  0  0  0  0  0  0  0  0
   56.6270   30.1660   42.8620 C   0  0  0  0  0  0  0  0  0  0  0  0
   56.3120   29.9110   44.1990 C   0  0  0  0  0  0  0  0  0  0  0  0
   56.7190   30.7710   45.1710 N   0  0  0  0  0  0  0  0  0  0  0  0
   59.7030   29.2940   44.8100 C   0  0  0  0  0  0  0  0  0  0  0  0
   59.1640   28.3270   44.0350 N   0  0  0  0  0  0  0  0  0  0  0  0
   58.5050   27.4900   44.8190 N   0  0  0  0  0  0  0  0  0  0  0  0
   57.7990   26.3950   44.4370 C   0  0  0  0  0  0  0  0  0  0  0  0
   56.6638   22.8272   43.8645 H   0  0  0  0  0  0  0  0  0  0  0  0
   55.5623   24.0761   43.1910 H   0  0  0  0  0  0  0  0  0  0  0  0
   57.3375   24.3501   43.1910 H   0  0  0  0  0  0  0  0  0  0  0  0
   56.7280   25.4748   47.5626 H   0  0  0  0  0  0  0  0  0  0  0  0
   58.0707   27.5181   48.1706 H   0  0  0  0  0  0  0  0  0  0  0  0
   59.6596   29.2521   48.2416 H   0  0  0  0  0  0  0  0  0  0  0  0
   60.7043   30.3018   47.2328 H   0  0  0  0  0  0  0  0  0  0  0  0
   57.8010   30.6170   47.0520 H   0  0  0  0  0  0  0  0  0  0  0  0
   59.5712   32.8781   47.3879 H   0  0  0  0  0  0  0  0  0  0  0  0
   59.8664   31.8580   45.9359 H   0  0  0  0  0  0  0  0  0  0  0  0
   57.1045   32.9056   46.7409 H   0  0  0  0  0  0  0  0  0  0  0  0
   58.2085   33.7509   45.5882 H   0  0  0  0  0  0  0  0  0  0  0  0
   58.3396   33.0889   43.3059 H   0  0  0  0  0  0  0  0  0  0  0  0
   57.6105   31.5280   41.4917 H   0  0  0  0  0  0  0  0  0  0  0  0
   56.3046   29.4716   42.0722 H   0  0  0  0  0  0  0  0  0  0  0  0
   55.7342   29.0138   44.4659 H   0  0  0  0  0  0  0  0  0  0  0  0
   60.3068   30.1402   44.4503 H   0  0  0  0  0  0  0  0  0  0  0  0
   59.2360   28.2500   42.9950 H   0  0  0  0  0  0  0  0  0  0  0  0
   57.7456   26.1027   43.3779 H   0  0  0  0  0  0  0  0  0  0  0  0
  1  2  1  0
  2  3  1  0
  3  4  1  0
  4  5  2  0
  5  6  1  0
  6  7  2  0
  7  8  1  0
  8  9  1  0
  9 10  1  0
 10 11  1  0
 11 12  1  0
 12 13  2  0
 13 14  1  0
 14 15  2  0
 15 16  1  0
 16 17  2  0
  7 18  1  0
 18 19  2  0
 19 20  1  0
 20 21  1  0
 21  3  2  0
 20  6  1  0
 17 12  1  0
  1 22  1  0
  1 23  1  0
  1 24  1  0
  4 25  1  0
  5 26  1  0
  8 27  1  0
  8 28  1  0
  9 29  1  0
 10 30  1  0
 10 31  1  0
 11 32  1  0
 11 33  1  0
 13 34  1  0
 14 35  1  0
 15 36  1  0
 16 37  1  0
 18 38  1  0
 19 39  1  0
 21 40  1  0
M  CHG  1  19   1
M  END
>  <UniqueID>  (29) 
27

>  <SMILES>  (29) 
COc1ccc2c(CNCCc3ccccn3)c[nH+]n2c1

>  <Energy>  (29) 
71.29973678089398

>  <Genealogy>  (29) 
COc1ccc2c(CNCCc3ccccn3)c[nH+]n2c1 (protonated)
COc1ccc2c(CNCCc3ccccn3)c[nH+]n2c1 (3D coordinates assigned)
COc1ccc2c(CNCCc3ccccn3)c[nH+]n2c1 (optimized conformer: 71.29973678089398 kcal/mol)

>  <smiles>  (29) 
COc1ccc2c(CNCCc3ccccn3)cnn2c1

>  <score_type>  (29) 
oracle

>  <origin>  (29) 
adg

>  <m_score__min__energy>  (29) 
-6.0800000000000001

>  <m_primary>  (29) 
energy

$$$$
29:0
     RDKit          3D

 66 68  0  0  0  0  0  0  0  0999 V2000
   55.1340   26.3490   46.7560 H   0  0  0  0  0  0  0  0  0  0  0  0
   54.9910   25.7980   45.9210 O   0  0  0  0  0  0  0  0  0  0  0  0
   55.8920   24.8350   45.4460 C   0  0  0  0  0  0  0  0  0  0  0  0
   57.2440   24.9530   45.8020 C   0  0  0  0  0  0  0  0  0  0  0  0
   57.6790   26.1030   46.6410 C   0  0  0  0  0  0  0  0  0  0  0  0
   58.3969   25.9291   47.4561 H   0  0  0  0  0  0  0  0  0  0  0  0
   57.2340   27.3070   46.4370 N   0  0  0  0  0  0  0  0  0  0  0  0
   57.9250   28.2780   45.5920 C   0  0  0  0  0  0  0  0  0  0  0  0
   57.6222   28.1264   44.5454 H   0  0  0  0  0  0  0  0  0  0  0  0
   59.0100   28.1325   45.6995 H   0  0  0  0  0  0  0  0  0  0  0  0
   57.5740   29.7110   46.0160 C   0  0  0  0  0  0  0  0  0  0  0  0
   58.4864   30.2172   46.3642 H   0  0  0  0  0  0  0  0  0  0  0  0
   56.8278   29.6659   46.8229 H   0  0  0  0  0  0  0  0  0  0  0  0
   56.9990   30.4730   44.8810 N   0  0  0  0  0  0  0  0  0  0  0  0
   55.8060   29.7890   44.3470 C   0  0  0  0  0  0  0  0  0  0  0  0
   55.1838   29.4323   45.1810 H   0  0  0  0  0  0  0  0  0  0  0  0
   55.2256   30.4915   43.7309 H   0  0  0  0  0  0  0  0  0  0  0  0
   56.1190   28.9332   43.7309 H   0  0  0  0  0  0  0  0  0  0  0  0
   57.9870   30.7360   43.8060 C   0  0  0  0  0  0  0  0  0  0  0  0
   59.0031   30.6345   44.2150 H   0  0  0  0  0  0  0  0  0  0  0  0
   57.8319   30.0105   42.9939 H   0  0  0  0  0  0  0  0  0  0  0  0
   57.8050   32.1630   43.2440 C   0  0  0  0  0  0  0  0  0  0  0  0
   58.7530   32.4776   42.7832 H   0  0  0  0  0  0  0  0  0  0  0  0
   56.9785   32.1185   42.5194 H   0  0  0  0  0  0  0  0  0  0  0  0
   57.4130   33.2050   44.3070 C   0  0  0  0  0  0  0  0  0  0  0  0
   57.2329   34.1710   43.8126 H   0  0  0  0  0  0  0  0  0  0  0  0
   56.5045   32.8542   44.8185 H   0  0  0  0  0  0  0  0  0  0  0  0
   58.4820   33.3720   45.3160 N   0  0  0  0  0  0  0  0  0  0  0  0
   59.1620   34.6760   45.1520 C   0  0  0  0  0  0  0  0  0  0  0  0
   59.8029   34.6266   44.2594 H   0  0  0  0  0  0  0  0  0  0  0  0
   58.3800   35.4436   45.0560 H   0  0  0  0  0  0  0  0  0  0  0  0
   60.0390   35.0610   46.3670 C   0  0  0  0  0  0  0  0  0  0  0  0
   61.0088   35.4308   46.0025 H   0  0  0  0  0  0  0  0  0  0  0  0
   59.5079   35.8365   46.9384 H   0  0  0  0  0  0  0  0  0  0  0  0
   60.2720   33.9170   47.2600 N   0  0  0  0  0  0  0  0  0  0  0  0
   61.5390   33.7690   47.9300 C   0  0  0  0  0  0  0  0  0  0  0  0
   62.6900   33.4520   47.1880 C   0  0  0  0  0  0  0  0  0  0  0  0
   62.6193   33.3206   46.0982 H   0  0  0  0  0  0  0  0  0  0  0  0
   63.9230   33.3030   47.8270 C   0  0  0  0  0  0  0  0  0  0  0  0
   64.8201   33.0592   47.2390 H   0  0  0  0  0  0  0  0  0  0  0  0
   64.0190   33.4630   49.2110 C   0  0  0  0  0  0  0  0  0  0  0  0
   64.9903   33.3402   49.7125 H   0  0  0  0  0  0  0  0  0  0  0  0
   62.8820   33.7790   49.9590 C   0  0  0  0  0  0  0  0  0  0  0  0
   62.9597   33.9062   51.0488 H   0  0  0  0  0  0  0  0  0  0  0  0
   61.6440   33.9340   49.3240 C   0  0  0  0  0  0  0  0  0  0  0  0
   60.5510   34.2190   50.0740 F   0  0  0  0  0  0  0  0  0  0  0  0
   59.1620   33.0250   47.6250 C   0  0  0  0  0  0  0  0  0  0  0  0
   59.5018   31.9810   47.5576 H   0  0  0  0  0  0  0  0  0  0  0  0
   58.8451   33.2602   48.6517 H   0  0  0  0  0  0  0  0  0  0  0  0
   57.9720   33.2250   46.6890 C   0  0  0  0  0  0  0  0  0  0  0  0
   57.3036   32.3532   46.7459 H   0  0  0  0  0  0  0  0  0  0  0  0
   57.4073   34.1227   46.9812 H   0  0  0  0  0  0  0  0  0  0  0  0
   58.1390   23.9660   45.3480 C   0  0  0  0  0  0  0  0  0  0  0  0
   59.3660   24.0500   45.6350 O   0  0  0  0  0  0  0  0  0  0  0  0
   57.6870   22.9170   44.5940 N   0  0  0  0  0  0  0  0  0  0  0  0
   58.6400   21.8980   44.1150 C   0  0  0  0  0  0  0  0  0  0  0  0
   59.1069   21.3988   44.9768 H   0  0  0  0  0  0  0  0  0  0  0  0
   58.1059   21.1542   43.5055 H   0  0  0  0  0  0  0  0  0  0  0  0
   59.4178   22.3812   43.5055 H   0  0  0  0  0  0  0  0  0  0  0  0
   56.3700   22.8520   44.2200 C   0  0  0  0  0  0  0  0  0  0  0  0
   55.9820   21.9120   43.4680 O   0  0  0  0  0  0  0  0  0  0  0  0
   55.4720   23.7980   44.6490 N   0  0  0  0  0  0  0  0  0  0  0  0
   54.0520   23.7090   44.2620 C   0  0  0  0  0  0  0  0  0  0  0  0
   53.4272   23.6698   45.1665 H   0  0  0  0  0  0  0  0  0  0  0  0
   53.7785   24.5918   43.6654 H   0  0  0  0  0  0  0  0  0  0  0  0
   53.8909   22.7990   43.6654 H   0  0  0  0  0  0  0  0  0  0  0  0
  1  2  1  0
  2  3  1  0
  3  4  2  0
  4  5  1  0
  5  6  1  0
  5  7  2  0
  7  8  1  0
  8  9  1  0
  8 10  1  0
  8 11  1  0
 11 12  1  0
 11 13  1  0
 11 14  1  0
 14 15  1  0
 15 16  1  0
 15 17  1  0
 15 18  1  0
 14 19  1  0
 19 20  1  0
 19 21  1  0
 19 22  1  0
 22 23  1  0
 22 24  1  0
 22 25  1  0
 25 26  1  0
 25 27  1  0
 25 28  1  0
 28 29  1  0
 29 30  1  0
 29 31  1  0
 29 32  1  0
 32 33  1  0
 32 34  1  0
 32 35  1  0
 35 36  1  0
 36 37  2  0
 37 38  1  0
 37 39  1  0
 39 40  1  0
 39 41  2  0
 41 42  1  0
 41 43  1  0
 43 44  1  0
 43 45  2  0
 45 46  1  0
 35 47  1  0
 47 48  1  0
 47 49  1  0
 47 50  1  0
 50 51  1  0
 50 52  1  0
  4 53  1  0
 53 54  2  0
 53 55  1  0
 55 56  1  0
 56 57  1  0
 56 58  1  0
 56 59  1  0
 55 60  1  0
 60 61  2  0
 60 62  1  0
 62 63  1  0
 63 64  1  0
 63 65  1  0
 63 66  1  0
 62  3  1  0
 50 28  1  0
 45 36  1  0
M  END
>  <UniqueID>  (30) 
28

>  <SMILES>  (30) 
CN(CCCN1CCN(c2ccccc2F)CC1)CC/N=C/c1c(O)n(C)c(=O)n(C)c1=O

>  <Energy>  (30) 
89.1401682157909

>  <Genealogy>  (30) 
CN(CCCN1CCN(c2ccccc2F)CC1)CC/N=C/c1c(O)n(C)c(=O)n(C)c1=O (cis-trans isomerization)
CN(CCCN1CCN(c2ccccc2F)CC1)CC/N=C/c1c(O)n(C)c(=O)n(C)c1=O (3D coordinates assigned)
CN(CCCN1CCN(c2ccccc2F)CC1)CC/N=C/c1c(O)n(C)c(=O)n(C)c1=O (nonaromatic ring conformer: 89.1401682157909 kcal/mol)

>  <smiles>  (30) 
CN(CCCN1CCN(c2ccccc2F)CC1)CCN=Cc1c(O)n(C)c(=O)n(C)c1=O

>  <score_type>  (30) 
oracle

>  <origin>  (30) 
adg

>  <m_score__min__energy>  (30) 
-10.31

>  <m_primary>  (30) 
energy

$$$$
30:0
     RDKit          3D

 64 68  0  0  0  0  0  0  0  0999 V2000
   60.0270   29.1620   45.1840 O   0  0  0  0  0  0  0  0  0  0  0  0
   59.0820   28.9610   45.9950 C   0  0  0  0  0  0  0  0  0  0  0  0
   59.0920   29.6730   47.3350 C   0  0  1  0  0  0  0  0  0  0  0  0
   59.0940   28.6610   48.4920 C   0  0  0  0  0  0  0  0  0  0  0  0
   60.2400   29.0790   49.3850 C   0  0  0  0  0  0  0  0  0  0  0  0
   61.1450   29.8860   48.4780 C   0  0  0  0  0  0  0  0  0  0  0  0
   60.2900   30.5530   47.4740 N   0  0  2  0  0  0  0  0  0  0  0  0
   59.9260   31.9440   47.8870 C   0  0  0  0  0  0  0  0  0  0  0  0
   61.1400   32.7490   48.3340 C   0  0  0  0  0  0  0  0  0  0  0  0
   61.0740   33.6240   49.4350 C   0  0  0  0  0  0  0  0  0  0  0  0
   62.2050   34.3420   49.8390 C   0  0  0  0  0  0  0  0  0  0  0  0
   63.4070   34.2060   49.1430 C   0  0  0  0  0  0  0  0  0  0  0  0
   63.4850   33.3450   48.0470 C   0  0  0  0  0  0  0  0  0  0  0  0
   62.3630   32.6150   47.6470 C   0  0  0  0  0  0  0  0  0  0  0  0
   59.1950   32.7300   46.7980 C   0  0  0  0  0  0  0  0  0  0  0  0
   59.7980   33.8850   46.2670 C   0  0  0  0  0  0  0  0  0  0  0  0
   59.1730   34.6120   45.2510 C   0  0  0  0  0  0  0  0  0  0  0  0
   57.9470   34.1890   44.7410 C   0  0  0  0  0  0  0  0  0  0  0  0
   57.3390   33.0420   45.2510 C   0  0  0  0  0  0  0  0  0  0  0  0
   57.9550   32.3130   46.2710 C   0  0  0  0  0  0  0  0  0  0  0  0
   57.9970   28.0850   45.6250 N   0  0  0  0  0  0  0  0  0  0  0  0
   57.5160   27.0550   46.5470 C   0  0  0  0  0  0  0  0  0  0  0  0
   58.0180   25.6880   46.0840 C   0  0  0  0  0  0  0  0  0  0  0  0
   57.7450   25.5000   44.6560 N   0  0  0  0  0  0  0  0  0  0  0  0
   57.4810   24.1740   44.1610 C   0  0  0  0  0  0  0  0  0  0  0  0
   58.2960   23.0920   44.5340 C   0  0  0  0  0  0  0  0  0  0  0  0
   58.0190   21.8030   44.0610 C   0  0  0  0  0  0  0  0  0  0  0  0
   56.9340   21.5860   43.2100 C   0  0  0  0  0  0  0  0  0  0  0  0
   56.1230   22.6580   42.8310 C   0  0  0  0  0  0  0  0  0  0  0  0
   56.3920   23.9460   43.3040 C   0  0  0  0  0  0  0  0  0  0  0  0
   58.1500   26.5650   43.7220 C   0  0  0  0  0  0  0  0  0  0  0  0
   57.6330   27.9150   44.2170 C   0  0  0  0  0  0  0  0  0  0  0  0
   58.1810   30.2880   47.3776 H   0  0  0  0  0  0  0  0  0  0  0  0
   58.1421   28.7023   49.0418 H   0  0  0  0  0  0  0  0  0  0  0  0
   59.2094   27.6276   48.1330 H   0  0  0  0  0  0  0  0  0  0  0  0
   59.8777   29.6943   50.2218 H   0  0  0  0  0  0  0  0  0  0  0  0
   60.7561   28.2192   49.8371 H   0  0  0  0  0  0  0  0  0  0  0  0
   61.6907   30.6388   49.0658 H   0  0  0  0  0  0  0  0  0  0  0  0
   61.8815   29.2333   47.9865 H   0  0  0  0  0  0  0  0  0  0  0  0
   60.8400   30.5950   46.5840 H   0  0  0  0  0  0  0  0  0  0  0  0
   59.2397   31.8066   48.7356 H   0  0  0  0  0  0  0  0  0  0  0  0
   60.1268   33.7440   49.9814 H   0  0  0  0  0  0  0  0  0  0  0  0
   62.1466   35.0151   50.7071 H   0  0  0  0  0  0  0  0  0  0  0  0
   64.2927   34.7772   49.4580 H   0  0  0  0  0  0  0  0  0  0  0  0
   64.4320   33.2411   47.4971 H   0  0  0  0  0  0  0  0  0  0  0  0
   62.4348   31.9303   46.7891 H   0  0  0  0  0  0  0  0  0  0  0  0
   60.7713   34.2189   46.6558 H   0  0  0  0  0  0  0  0  0  0  0  0
   59.6494   35.5200   44.8528 H   0  0  0  0  0  0  0  0  0  0  0  0
   57.4591   34.7593   43.9368 H   0  0  0  0  0  0  0  0  0  0  0  0
   56.3706   32.7102   44.8484 H   0  0  0  0  0  0  0  0  0  0  0  0
   57.4699   31.4080   46.6657 H   0  0  0  0  0  0  0  0  0  0  0  0
   57.8945   27.2620   47.5589 H   0  0  0  0  0  0  0  0  0  0  0  0
   56.4161   27.0580   46.5613 H   0  0  0  0  0  0  0  0  0  0  0  0
   59.1023   25.6223   46.2574 H   0  0  0  0  0  0  0  0  0  0  0  0
   57.4960   24.9047   46.6532 H   0  0  0  0  0  0  0  0  0  0  0  0
   59.1553   23.2579   45.2004 H   0  0  0  0  0  0  0  0  0  0  0  0
   58.6582   20.9595   44.3609 H   0  0  0  0  0  0  0  0  0  0  0  0
   56.7183   20.5732   42.8388 H   0  0  0  0  0  0  0  0  0  0  0  0
   55.2696   22.4884   42.1580 H   0  0  0  0  0  0  0  0  0  0  0  0
   55.7473   24.7850   43.0033 H   0  0  0  0  0  0  0  0  0  0  0  0
   59.2477   26.5960   43.6580 H   0  0  0  0  0  0  0  0  0  0  0  0
   57.7254   26.3566   42.7289 H   0  0  0  0  0  0  0  0  0  0  0  0
   58.0835   28.7222   43.6208 H   0  0  0  0  0  0  0  0  0  0  0  0
   56.5387   27.9519   44.1119 H   0  0  0  0  0  0  0  0  0  0  0  0
  1  2  2  0
  2  3  1  0
  3  4  1  0
  4  5  1  0
  5  6  1  0
  6  7  1  0
  7  8  1  0
  8  9  1  0
  9 10  2  0
 10 11  1  0
 11 12  2  0
 12 13  1  0
 13 14  2  0
  8 15  1  0
 15 16  2  0
 16 17  1  0
 17 18  2  0
 18 19  1  0
 19 20  2  0
  2 21  1  0
 21 22  1  0
 22 23  1  0
 23 24  1  0
 24 25  1  0
 25 26  2  0
 26 27  1  0
 27 28  2  0
 28 29  1  0
 29 30  2  0
 24 31  1  0
 31 32  1  0
  7  3  1  0
 14  9  1  0
 20 15  1  0
 32 21  1  0
 30 25  1  0
  3 33  1  1
  4 34  1  0
  4 35  1  0
  5 36  1  0
  5 37  1  0
  6 38  1  0
  6 39  1  0
  7 40  1  6
  8 41  1  0
 10 42  1  0
 11 43  1  0
 12 44  1  0
 13 45  1  0
 14 46  1  0
 16 47  1  0
 17 48  1  0
 18 49  1  0
 19 50  1  0
 20 51  1  0
 22 52  1  0
 22 53  1  0
 23 54  1  0
 23 55  1  0
 26 56  1  0
 27 57  1  0
 28 58  1  0
 29 59  1  0
 30 60  1  0
 31 61  1  0
 31 62  1  0
 32 63  1  0
 32 64  1  0
M  CHG  1   7   1
M  END
>  <UniqueID>  (31) 
29

>  <SMILES>  (31) 
O=C([C@H]1CCC[N@@H+]1C(c1ccccc1)c1ccccc1)N1CCN(c2ccccc2)CC1

>  <Energy>  (31) 
84.3588270858533

>  <Genealogy>  (31) 
O=C(C1CCC[NH+]1C(c1ccccc1)c1ccccc1)N1CCN(c2ccccc2)CC1 (protonated)
O=C([C@H]1CCC[N@@H+]1C(c1ccccc1)c1ccccc1)N1CCN(c2ccccc2)CC1 (chirality)
O=C([C@H]1CCC[N@@H+]1C(c1ccccc1)c1ccccc1)N1CCN(c2ccccc2)CC1 (3D coordinates assigned)
O=C([C@H]1CCC[N@@H+]1C(c1ccccc1)c1ccccc1)N1CCN(c2ccccc2)CC1 (nonaromatic ring conformer: 84.3588270858533 kcal/mol)

>  <smiles>  (31) 
O=C(C1CCCN1C(c1ccccc1)c1ccccc1)N1CCN(c2ccccc2)CC1

>  <score_type>  (31) 
oracle

>  <origin>  (31) 
adg

>  <m_score__min__energy>  (31) 
-7.96

>  <m_primary>  (31) 
energy

$$$$
31:0
     RDKit          3D

 40 42  0  0  0  0  0  0  0  0999 V2000
   57.3300   24.9040   44.8460 C   0  0  0  0  0  0  0  0  0  0  0  0
   57.4180   25.2240   43.3590 C   0  0  0  0  0  0  0  0  0  0  0  0
   58.2680   26.3460   43.1310 O   0  0  0  0  0  0  0  0  0  0  0  0
   57.9540   27.6220   43.6080 C   0  0  0  0  0  0  0  0  0  0  0  0
   57.0380   28.3730   42.9390 N   0  0  0  0  0  0  0  0  0  0  0  0
   56.6840   29.6160   43.3560 C   0  0  0  0  0  0  0  0  0  0  0  0
   57.2700   30.1800   44.4930 C   0  0  0  0  0  0  0  0  0  0  0  0
   56.9000   31.5110   44.8780 N   0  0  0  0  0  0  0  0  0  0  0  0
   57.5660   32.6660   44.2750 C   0  0  0  0  0  0  0  0  0  0  0  0
   58.2680   33.4700   45.3340 C   0  0  0  0  0  0  0  0  0  0  0  0
   59.0450   34.5880   44.9850 C   0  0  0  0  0  0  0  0  0  0  0  0
   59.7160   35.3150   45.9740 C   0  0  0  0  0  0  0  0  0  0  0  0
   59.6220   34.9290   47.3130 C   0  0  0  0  0  0  0  0  0  0  0  0
   58.8570   33.8130   47.6670 C   0  0  0  0  0  0  0  0  0  0  0  0
   58.1840   33.0850   46.6820 C   0  0  0  0  0  0  0  0  0  0  0  0
   58.2130   29.4280   45.2240 C   0  0  0  0  0  0  0  0  0  0  0  0
   58.7880   29.9190   46.4120 C   0  0  0  0  0  0  0  0  0  0  0  0
   59.7350   29.1630   47.1060 C   0  0  0  0  0  0  0  0  0  0  0  0
   60.1160   27.9090   46.6300 C   0  0  0  0  0  0  0  0  0  0  0  0
   59.5410   27.3930   45.4680 C   0  0  0  0  0  0  0  0  0  0  0  0
   58.5750   28.1360   44.7640 C   0  0  0  0  0  0  0  0  0  0  0  0
   57.5772   25.8029   45.4298 H   0  0  0  0  0  0  0  0  0  0  0  0
   56.3086   24.5771   45.0909 H   0  0  0  0  0  0  0  0  0  0  0  0
   58.0406   24.1009   45.0909 H   0  0  0  0  0  0  0  0  0  0  0  0
   57.8225   24.3511   42.8258 H   0  0  0  0  0  0  0  0  0  0  0  0
   56.4100   25.4651   42.9904 H   0  0  0  0  0  0  0  0  0  0  0  0
   56.5890   27.9830   42.0790 H   0  0  0  0  0  0  0  0  0  0  0  0
   55.9288   30.1846   42.7936 H   0  0  0  0  0  0  0  0  0  0  0  0
   55.9180   31.6520   45.2090 H   0  0  0  0  0  0  0  0  0  0  0  0
   58.3021   32.3165   43.5361 H   0  0  0  0  0  0  0  0  0  0  0  0
   56.8128   33.2991   43.7831 H   0  0  0  0  0  0  0  0  0  0  0  0
   59.1257   34.8922   43.9310 H   0  0  0  0  0  0  0  0  0  0  0  0
   60.3188   36.1923   45.6966 H   0  0  0  0  0  0  0  0  0  0  0  0
   60.1497   35.5028   48.0891 H   0  0  0  0  0  0  0  0  0  0  0  0
   58.7850   33.5080   48.7214 H   0  0  0  0  0  0  0  0  0  0  0  0
   57.5856   32.2061   46.9639 H   0  0  0  0  0  0  0  0  0  0  0  0
   58.4889   30.9054   46.7962 H   0  0  0  0  0  0  0  0  0  0  0  0
   60.1815   29.5577   48.0305 H   0  0  0  0  0  0  0  0  0  0  0  0
   60.8731   27.3240   47.1728 H   0  0  0  0  0  0  0  0  0  0  0  0
   59.8440   26.4014   45.1007 H   0  0  0  0  0  0  0  0  0  0  0  0
  1  2  1  0
  2  3  1  0
  3  4  1  0
  4  5  2  0
  5  6  1  0
  6  7  2  0
  7  8  1  0
  8  9  1  0
  9 10  1  0
 10 11  2  0
 11 12  1  0
 12 13  2  0
 13 14  1  0
 14 15  2  0
  7 16  1  0
 16 17  2  0
 17 18  1  0
 18 19  2  0
 19 20  1  0
 20 21  2  0
 21  4  1  0
 15 10  1  0
 21 16  1  0
  1 22  1  0
  1 23  1  0
  1 24  1  0
  2 25  1  0
  2 26  1  0
  5 27  1  0
  6 28  1  0
  8 29  1  0
  9 30  1  0
  9 31  1  0
 11 32  1  0
 12 33  1  0
 13 34  1  0
 14 35  1  0
 15 36  1  0
 17 37  1  0
 18 38  1  0
 19 39  1  0
 20 40  1  0
M  CHG  1   5   1
M  END
>  <UniqueID>  (32) 
30

>  <SMILES>  (32) 
CCOc1[nH+]cc(NCc2ccccc2)c2ccccc12

>  <Energy>  (32) 
54.88920315885803

>  <Genealogy>  (32) 
CCOc1[nH+]cc(NCc2ccccc2)c2ccccc12 (protonated)
CCOc1[nH+]cc(NCc2ccccc2)c2ccccc12 (3D coordinates assigned)
CCOc1[nH+]cc(NCc2ccccc2)c2ccccc12 (optimized conformer: 54.88920315885803 kcal/mol)

>  <smiles>  (32) 
CCOc1ncc(NCc2ccccc2)c2ccccc12

>  <score_type>  (32) 
oracle

>  <origin>  (32) 
adg

>  <m_score__min__energy>  (32) 
-5.4000000000000004

>  <m_primary>  (32) 
energy

$$$$
32:0
     RDKit          3D

 37 38  0  0  0  0  0  0  0  0999 V2000
   56.2570   29.3920   42.5560 C   0  0  0  0  0  0  0  0  0  0  0  0
   55.9490   29.7450   44.0100 C   0  0  0  0  0  0  0  0  0  0  0  0
   57.1170   30.3120   44.6910 N   0  0  0  0  0  0  0  0  0  0  0  0
   57.2120   31.5820   45.0580 N   0  0  0  0  0  0  0  0  0  0  0  0
   58.3720   31.7310   45.7270 C   0  0  0  0  0  0  0  0  0  0  0  0
   58.8380   33.0050   46.2860 C   0  0  0  0  0  0  0  0  0  0  0  0
   59.0660   33.2670   47.6320 C   0  0  0  0  0  0  0  0  0  0  0  0
   59.5060   34.5750   47.8730 C   0  0  0  0  0  0  0  0  0  0  0  0
   59.6250   35.3450   46.7230 C   0  0  0  0  0  0  0  0  0  0  0  0
   59.1840   34.3970   45.4050 S   0  0  0  0  0  0  0  0  0  0  0  0
   59.0290   30.5170   45.8080 C   0  0  0  0  0  0  0  0  0  0  0  0
   58.1950   29.6350   45.1520 C   0  0  0  0  0  0  0  0  0  0  0  0
   58.4670   28.1620   44.9730 C   0  0  0  0  0  0  0  0  0  0  0  0
   58.0400   27.3790   46.1550 N   0  0  2  0  0  0  0  0  0  0  0  0
   59.0650   27.3790   47.2130 C   0  0  0  0  0  0  0  0  0  0  0  0
   57.7490   26.0140   45.7620 C   0  0  0  0  0  0  0  0  0  0  0  0
   58.6620   25.2390   45.5010 O   0  0  0  0  0  0  0  0  0  0  0  0
   56.3180   25.5510   45.6460 C   0  0  0  0  0  0  0  0  0  0  0  0
   55.4210   26.5670   46.0110 O   0  0  0  0  0  0  0  0  0  0  0  0
   56.9799   28.5635   42.5251 H   0  0  0  0  0  0  0  0  0  0  0  0
   55.3297   29.0887   42.0480 H   0  0  0  0  0  0  0  0  0  0  0  0
   56.6832   30.2696   42.0480 H   0  0  0  0  0  0  0  0  0  0  0  0
   55.1316   30.4808   44.0325 H   0  0  0  0  0  0  0  0  0  0  0  0
   55.6629   28.8207   44.5334 H   0  0  0  0  0  0  0  0  0  0  0  0
   58.9161   32.5224   48.4276 H   0  0  0  0  0  0  0  0  0  0  0  0
   59.7358   34.9566   48.8788 H   0  0  0  0  0  0  0  0  0  0  0  0
   59.9516   36.3946   46.6813 H   0  0  0  0  0  0  0  0  0  0  0  0
   59.9962   30.3031   46.2864 H   0  0  0  0  0  0  0  0  0  0  0  0
   57.9180   27.8028   44.0901 H   0  0  0  0  0  0  0  0  0  0  0  0
   59.5511   28.0264   44.8450 H   0  0  0  0  0  0  0  0  0  0  0  0
   57.1700   27.8080   46.5480 H   0  0  0  0  0  0  0  0  0  0  0  0
   59.3201   26.3419   47.4763 H   0  0  0  0  0  0  0  0  0  0  0  0
   59.9652   27.8975   46.8514 H   0  0  0  0  0  0  0  0  0  0  0  0
   58.6751   27.8975   48.1013 H   0  0  0  0  0  0  0  0  0  0  0  0
   56.1204   25.2558   44.6049 H   0  0  0  0  0  0  0  0  0  0  0  0
   56.1729   24.6993   46.3268 H   0  0  0  0  0  0  0  0  0  0  0  0
   55.1170   26.3580   46.9330 H   0  0  0  0  0  0  0  0  0  0  0  0
  1  2  1  0
  2  3  1  0
  3  4  1  0
  4  5  2  0
  5  6  1  0
  6  7  2  0
  7  8  1  0
  8  9  2  0
  9 10  1  0
  5 11  1  0
 11 12  2  0
 12 13  1  0
 13 14  1  0
 14 15  1  0
 14 16  1  0
 16 17  2  0
 16 18  1  0
 18 19  1  0
 12  3  1  0
 10  6  1  0
  1 20  1  0
  1 21  1  0
  1 22  1  0
  2 23  1  0
  2 24  1  0
  7 25  1  0
  8 26  1  0
  9 27  1  0
 11 28  1  0
 13 29  1  0
 13 30  1  0
 14 31  1  1
 15 32  1  0
 15 33  1  0
 15 34  1  0
 18 35  1  0
 18 36  1  0
 19 37  1  0
M  CHG  1  14   1
M  END
>  <UniqueID>  (33) 
31

>  <SMILES>  (33) 
CCn1nc(-c2cccs2)cc1C[N@H+](C)C(=O)CO

>  <Energy>  (33) 
89.71692729922248

>  <Genealogy>  (33) 
CCn1nc(-c2cccs2)cc1C[NH+](C)C(=O)CO (protonated)
CCn1nc(-c2cccs2)cc1C[N@H+](C)C(=O)CO (chirality)
CCn1nc(-c2cccs2)cc1C[N@H+](C)C(=O)CO (3D coordinates assigned)
CCn1nc(-c2cccs2)cc1C[N@H+](C)C(=O)CO (optimized conformer: 89.71692729922248 kcal/mol)

>  <smiles>  (33) 
CCn1nc(-c2cccs2)cc1CN(C)C(=O)CO

>  <score_type>  (33) 
oracle

>  <origin>  (33) 
adg

>  <m_score__min__energy>  (33) 
-5.3700000000000001

>  <m_primary>  (33) 
energy

$$$$
33:0
     RDKit          3D

 49 53  0  0  0  0  0  0  0  0999 V2000
   60.6328   34.9936   48.3597 H   0  0  0  0  0  0  0  0  0  0  0  0
   59.9130   34.5800   47.6380 C   0  0  0  0  0  0  0  0  0  0  0  0
   58.9370   33.7330   48.0610 N   0  0  0  0  0  0  0  0  0  0  0  0
   58.0320   33.1970   47.1990 C   0  0  0  0  0  0  0  0  0  0  0  0
   57.2503   32.5204   47.5748 H   0  0  0  0  0  0  0  0  0  0  0  0
   58.0930   33.5050   45.8310 C   0  0  0  0  0  0  0  0  0  0  0  0
   57.0760   32.9470   44.8730 C   0  0  0  0  0  0  0  0  0  0  0  0
   56.9629   33.6366   44.0235 H   0  0  0  0  0  0  0  0  0  0  0  0
   56.1173   32.8325   45.4001 H   0  0  0  0  0  0  0  0  0  0  0  0
   57.5210   31.5760   44.3530 C   0  0  0  0  0  0  0  0  0  0  0  0
   58.5537   31.3833   44.6792 H   0  0  0  0  0  0  0  0  0  0  0  0
   57.4631   31.5773   43.2545 H   0  0  0  0  0  0  0  0  0  0  0  0
   56.6490   30.5220   44.8700 N   0  0  0  0  0  0  0  0  0  0  0  0
   57.0660   29.4260   45.4360 C   0  0  0  0  0  0  0  0  0  0  0  0
   56.3940   28.2470   45.2810 N   0  0  0  0  0  0  0  0  0  0  0  0
   56.8330   27.0970   45.8770 C   0  0  0  0  0  0  0  0  0  0  0  0
   56.1280   25.9020   45.7000 C   0  0  0  0  0  0  0  0  0  0  0  0
   55.2187   25.8870   45.0812 H   0  0  0  0  0  0  0  0  0  0  0  0
   56.5780   24.7260   46.3090 C   0  0  0  0  0  0  0  0  0  0  0  0
   56.0203   23.7884   46.1681 H   0  0  0  0  0  0  0  0  0  0  0  0
   57.7350   24.7370   47.0970 C   0  0  0  0  0  0  0  0  0  0  0  0
   58.0828   23.8072   47.5709 H   0  0  0  0  0  0  0  0  0  0  0  0
   58.4510   25.9230   47.2850 C   0  0  0  0  0  0  0  0  0  0  0  0
   59.3584   25.9282   47.9068 H   0  0  0  0  0  0  0  0  0  0  0  0
   58.0060   27.1080   46.6760 C   0  0  0  0  0  0  0  0  0  0  0  0
   58.6580   28.3380   46.8080 C   0  0  0  0  0  0  0  0  0  0  0  0
   58.1850   29.4330   46.2040 N   0  0  0  0  0  0  0  0  0  0  0  0
   58.9720   30.4580   46.4780 N   0  0  0  0  0  0  0  0  0  0  0  0
   59.9420   29.9440   47.2740 C   0  0  0  0  0  0  0  0  0  0  0  0
   61.0460   30.7440   47.8240 C   0  0  0  0  0  0  0  0  0  0  0  0
   61.4830   30.7900   49.1340 C   0  0  0  0  0  0  0  0  0  0  0  0
   61.0602   30.2115   49.9686 H   0  0  0  0  0  0  0  0  0  0  0  0
   62.5110   31.6580   49.2250 N   0  0  0  0  0  0  0  0  0  0  0  0
   62.7340   32.1440   48.0130 N   0  0  0  0  0  0  0  0  0  0  0  0
   63.7370   33.1620   47.7180 C   0  0  0  0  0  0  0  0  0  0  0  0
   64.7232   32.6839   47.6241 H   0  0  0  0  0  0  0  0  0  0  0  0
   63.7525   33.8979   48.5355 H   0  0  0  0  0  0  0  0  0  0  0  0
   63.3970   33.8740   46.4150 C   0  0  0  0  0  0  0  0  0  0  0  0
   62.9329   34.8459   46.6385 H   0  0  0  0  0  0  0  0  0  0  0  0
   64.3168   34.0321   45.8328 H   0  0  0  0  0  0  0  0  0  0  0  0
   62.6958   33.2581   45.8328 H   0  0  0  0  0  0  0  0  0  0  0  0
   61.8570   31.6200   47.1360 C   0  0  0  0  0  0  0  0  0  0  0  0
   61.7984   31.8502   46.0619 H   0  0  0  0  0  0  0  0  0  0  0  0
   59.7750   28.6180   47.5010 N   0  0  0  0  0  0  0  0  0  0  0  0
   60.3730   27.9790   48.0730 H   0  0  0  0  0  0  0  0  0  0  0  0
   59.0850   34.3890   45.3820 C   0  0  0  0  0  0  0  0  0  0  0  0
   59.1404   34.6597   44.3173 H   0  0  0  0  0  0  0  0  0  0  0  0
   60.0020   34.9250   46.2880 C   0  0  0  0  0  0  0  0  0  0  0  0
   60.7874   35.6128   45.9415 H   0  0  0  0  0  0  0  0  0  0  0  0
  1  2  1  0
  2  3  2  0
  3  4  1  0
  4  5  1  0
  4  6  2  0
  6  7  1  0
  7  8  1  0
  7  9  1  0
  7 10  1  0
 10 11  1  0
 10 12  1  0
 10 13  1  0
 13 14  2  0
 14 15  1  0
 15 16  1  0
 16 17  2  0
 17 18  1  0
 17 19  1  0
 19 20  1  0
 19 21  2  0
 21 22  1  0
 21 23  1  0
 23 24  1  0
 23 25  2  0
 25 26  1  0
 26 27  1  0
 27 28  1  0
 28 29  2  0
 29 30  1  0
 30 31  1  0
 31 32  1  0
 31 33  2  0
 33 34  1  0
 34 35  1  0
 35 36  1  0
 35 37  1  0
 35 38  1  0
 38 39  1  0
 38 40  1  0
 38 41  1  0
 34 42  1  0
 42 43  1  0
 29 44  1  0
 44 45  1  0
  6 46  1  0
 46 47  1  0
 46 48  2  0
 48 49  1  0
 48  2  1  0
 27 14  1  0
 42 30  2  0
 25 16  1  0
 44 26  2  0
M  CHG  2  15  -1  44   1
M  END
>  <UniqueID>  (34) 
32

>  <SMILES>  (34) 
CCn1cc(-c2nn3/c(=N/CCc4cccnc4)[n-]c4ccccc4c3[nH+]2)cn1

>  <Energy>  (34) 
123.02113377512866

>  <Genealogy>  (34) 
CCn1cc(-c2nn3c(=NCCc4cccnc4)[n-]c4ccccc4c3[nH+]2)cn1 (protonated)
CCn1cc(-c2nn3/c(=N/CCc4cccnc4)[n-]c4ccccc4c3[nH+]2)cn1 (cis-trans isomerization)
CCn1cc(-c2nn3/c(=N/CCc4cccnc4)[n-]c4ccccc4c3[nH+]2)cn1 (3D coordinates assigned)
CCn1cc(-c2nn3/c(=N/CCc4cccnc4)[n-]c4ccccc4c3[nH+]2)cn1 (optimized conformer: 123.02113377512866 kcal/mol)

>  <smiles>  (34) 
CCn1cc(-c2nc3c4ccccc4[nH]c(=NCCc4cccnc4)n3n2)cn1

>  <score_type>  (34) 
oracle

>  <origin>  (34) 
adg

>  <m_score__min__energy>  (34) 
-8.4399999999999995

>  <m_primary>  (34) 
energy

$$$$
34:0
     RDKit          3D

 50 53  0  0  0  0  0  0  0  0999 V2000
   64.5920   33.0890   49.0930 C   0  0  0  0  0  0  0  0  0  0  0  0
   63.2480   33.3890   48.5010 C   0  0  0  0  0  0  0  0  0  0  0  0
   62.2310   33.9330   49.2990 C   0  0  0  0  0  0  0  0  0  0  0  0
   60.9840   34.2320   48.7430 C   0  0  0  0  0  0  0  0  0  0  0  0
   60.7390   34.0120   47.3770 C   0  0  0  0  0  0  0  0  0  0  0  0
   59.4340   34.2760   46.8210 N   0  0  0  0  0  0  0  0  0  0  0  0
   59.2730   35.0330   45.5690 C   0  0  0  0  0  0  0  0  0  0  0  0
   58.6550   34.1300   44.4880 C   0  0  0  0  0  0  0  0  0  0  0  0
   57.7490   33.1370   45.0900 N   0  0  0  0  0  0  0  0  0  0  0  0
   57.8490   31.7540   44.7140 C   0  0  0  0  0  0  0  0  0  0  0  0
   56.8180   31.1520   43.9820 C   0  0  0  0  0  0  0  0  0  0  0  0
   56.8790   29.7850   43.7060 C   0  0  0  0  0  0  0  0  0  0  0  0
   57.9540   29.0300   44.1750 C   0  0  0  0  0  0  0  0  0  0  0  0
   58.9660   29.6600   44.9070 C   0  0  0  0  0  0  0  0  0  0  0  0
   60.3260   28.6960   45.5670 S   0  0  0  0  0  0  0  0  0  0  0  0
   60.1520   29.4200   47.1990 C   0  0  0  0  0  0  0  0  0  0  0  0
   61.1520   30.2660   47.6950 C   0  0  0  0  0  0  0  0  0  0  0  0
   61.0110   30.8530   48.9570 C   0  0  0  0  0  0  0  0  0  0  0  0
   59.8730   30.5900   49.7270 C   0  0  0  0  0  0  0  0  0  0  0  0
   58.8770   29.7390   49.2360 C   0  0  0  0  0  0  0  0  0  0  0  0
   59.0160   29.1520   47.9740 C   0  0  0  0  0  0  0  0  0  0  0  0
   58.8980   30.9970   45.1520 N   0  0  0  0  0  0  0  0  0  0  0  0
   57.1350   33.4620   46.3820 C   0  0  0  0  0  0  0  0  0  0  0  0
   58.2480   33.6420   47.4230 C   0  0  0  0  0  0  0  0  0  0  0  0
   61.7680   33.4820   46.5780 C   0  0  0  0  0  0  0  0  0  0  0  0
   63.0150   33.1820   47.1350 C   0  0  0  0  0  0  0  0  0  0  0  0
   64.5210   33.1048   50.1906 H   0  0  0  0  0  0  0  0  0  0  0  0
   64.9250   32.0944   48.7614 H   0  0  0  0  0  0  0  0  0  0  0  0
   65.3163   33.8476   48.7614 H   0  0  0  0  0  0  0  0  0  0  0  0
   62.4154   34.1250   50.3663 H   0  0  0  0  0  0  0  0  0  0  0  0
   60.1874   34.6432   49.3804 H   0  0  0  0  0  0  0  0  0  0  0  0
   58.6126   35.8947   45.7460 H   0  0  0  0  0  0  0  0  0  0  0  0
   60.2583   35.3840   45.2283 H   0  0  0  0  0  0  0  0  0  0  0  0
   58.0884   34.7520   43.7794 H   0  0  0  0  0  0  0  0  0  0  0  0
   59.4653   33.5979   43.9681 H   0  0  0  0  0  0  0  0  0  0  0  0
   55.9668   31.7517   43.6273 H   0  0  0  0  0  0  0  0  0  0  0  0
   56.0815   29.3045   43.1203 H   0  0  0  0  0  0  0  0  0  0  0  0
   58.0055   27.9502   43.9713 H   0  0  0  0  0  0  0  0  0  0  0  0
   62.0491   30.4691   47.0917 H   0  0  0  0  0  0  0  0  0  0  0  0
   61.7946   31.5211   49.3437 H   0  0  0  0  0  0  0  0  0  0  0  0
   59.7613   31.0524   50.7188 H   0  0  0  0  0  0  0  0  0  0  0  0
   57.9835   29.5313   49.8431 H   0  0  0  0  0  0  0  0  0  0  0  0
   58.2339   28.4804   47.5903 H   0  0  0  0  0  0  0  0  0  0  0  0
   59.6440   31.4390   45.7340 H   0  0  0  0  0  0  0  0  0  0  0  0
   56.5567   34.3935   46.2933 H   0  0  0  0  0  0  0  0  0  0  0  0
   56.4596   32.6507   46.6912 H   0  0  0  0  0  0  0  0  0  0  0  0
   57.8766   34.2767   48.2411 H   0  0  0  0  0  0  0  0  0  0  0  0
   58.5352   32.6513   47.8051 H   0  0  0  0  0  0  0  0  0  0  0  0
   61.5906   33.3022   45.5074 H   0  0  0  0  0  0  0  0  0  0  0  0
   63.8170   32.7815   46.4976 H   0  0  0  0  0  0  0  0  0  0  0  0
  1  2  1  0
  2  3  2  0
  3  4  1  0
  4  5  2  0
  5  6  1  0
  6  7  1  0
  7  8  1  0
  8  9  1  0
  9 10  1  0
 10 11  2  0
 11 12  1  0
 12 13  2  0
 13 14  1  0
 14 15  1  0
 15 16  1  0
 16 17  2  0
 17 18  1  0
 18 19  2  0
 19 20  1  0
 20 21  2  0
 14 22  2  0
  9 23  1  0
 23 24  1  0
  5 25  1  0
 25 26  2  0
 26  2  1  0
 24  6  1  0
 22 10  1  0
 21 16  1  0
  1 27  1  0
  1 28  1  0
  1 29  1  0
  3 30  1  0
  4 31  1  0
  7 32  1  0
  7 33  1  0
  8 34  1  0
  8 35  1  0
 11 36  1  0
 12 37  1  0
 13 38  1  0
 17 39  1  0
 18 40  1  0
 19 41  1  0
 20 42  1  0
 21 43  1  0
 22 44  1  0
 23 45  1  0
 23 46  1  0
 24 47  1  0
 24 48  1  0
 25 49  1  0
 26 50  1  0
M  CHG  1  22   1
M  END
>  <UniqueID>  (35) 
33

>  <SMILES>  (35) 
Cc1ccc(N2CCN(c3cccc(Sc4ccccc4)[nH+]3)CC2)cc1

>  <Energy>  (35) 
57.200425125983166

>  <Genealogy>  (35) 
Cc1ccc(N2CCN(c3cccc(Sc4ccccc4)[nH+]3)CC2)cc1 (protonated)
Cc1ccc(N2CCN(c3cccc(Sc4ccccc4)[nH+]3)CC2)cc1 (3D coordinates assigned)
Cc1ccc(N2CCN(c3cccc(Sc4ccccc4)[nH+]3)CC2)cc1 (nonaromatic ring conformer: 57.200425125983166 kcal/mol)

>  <smiles>  (35) 
Cc1ccc(N2CCN(c3cccc(Sc4ccccc4)n3)CC2)cc1

>  <score_type>  (35) 
oracle

>  <origin>  (35) 
adg

>  <m_score__min__energy>  (35) 
-7

>  <m_primary>  (35) 
energy

$$$$
35:0
     RDKit          3D

 48 51  0  0  0  0  0  0  0  0999 V2000
   57.0560   31.1960   42.3360 C   0  0  0  0  0  0  0  0  0  0  0  0
   56.1700   30.1880   43.0600 C   0  0  0  0  0  0  0  0  0  0  0  0
   56.1280   30.4790   44.4450 O   0  0  0  0  0  0  0  0  0  0  0  0
   57.2750   31.2040   44.8330 C   0  0  0  0  0  0  0  0  0  0  0  0
   58.0430   30.4070   45.7870 N   0  0  0  0  0  0  0  0  0  0  0  0
   58.5600   30.8100   46.9700 C   0  0  0  0  0  0  0  0  0  0  0  0
   58.2830   32.4230   47.7140 S   0  0  0  0  0  0  0  0  0  0  0  0
   60.0060   32.9190   47.5590 C   0  0  0  0  0  0  0  0  0  0  0  0
   60.9440   32.3990   48.4760 C   0  0  0  0  0  0  0  0  0  0  0  0
   62.2700   32.8000   48.3590 C   0  0  0  0  0  0  0  0  0  0  0  0
   62.6790   33.6520   47.3870 C   0  0  0  0  0  0  0  0  0  0  0  0
   61.7970   34.1710   46.4440 C   0  0  0  0  0  0  0  0  0  0  0  0
   60.4420   33.7940   46.5250 C   0  0  0  0  0  0  0  0  0  0  0  0
   59.2550   34.4270   45.1620 Br  0  0  0  0  0  0  0  0  0  0  0  0
   64.0370   33.8720   47.5090 O   0  0  0  0  0  0  0  0  0  0  0  0
   64.5100   33.1110   48.6290 C   0  0  0  0  0  0  0  0  0  0  0  0
   63.3500   32.4410   49.1410 O   0  0  0  0  0  0  0  0  0  0  0  0
   59.3730   29.8870   47.5330 N   0  0  0  0  0  0  0  0  0  0  0  0
   59.3600   28.8570   46.6620 C   0  0  0  0  0  0  0  0  0  0  0  0
   60.1740   27.6160   46.8460 C   0  0  0  0  0  0  0  0  0  0  0  0
   58.5370   29.1720   45.5970 C   0  0  0  0  0  0  0  0  0  0  0  0
   58.3510   28.4030   44.3990 N   0  0  0  0  0  0  0  0  0  0  0  0
   57.8450   27.0580   44.3860 C   0  0  0  0  0  0  0  0  0  0  0  0
   57.8920   26.3150   43.1970 C   0  0  0  0  0  0  0  0  0  0  0  0
   57.3890   25.0100   43.1590 C   0  0  0  0  0  0  0  0  0  0  0  0
   56.8220   24.4450   44.3040 C   0  0  0  0  0  0  0  0  0  0  0  0
   56.7520   25.1860   45.4870 C   0  0  0  0  0  0  0  0  0  0  0  0
   57.2540   26.4890   45.5290 C   0  0  0  0  0  0  0  0  0  0  0  0
   57.5941   31.8082   43.0746 H   0  0  0  0  0  0  0  0  0  0  0  0
   57.7811   30.6605   41.7055 H   0  0  0  0  0  0  0  0  0  0  0  0
   56.4319   31.8464   41.7055 H   0  0  0  0  0  0  0  0  0  0  0  0
   55.1515   30.2374   42.6474 H   0  0  0  0  0  0  0  0  0  0  0  0
   56.5846   29.1791   42.9180 H   0  0  0  0  0  0  0  0  0  0  0  0
   57.8933   31.4167   43.9484 H   0  0  0  0  0  0  0  0  0  0  0  0
   56.9736   32.1531   45.3002 H   0  0  0  0  0  0  0  0  0  0  0  0
   60.6343   31.6951   49.2625 H   0  0  0  0  0  0  0  0  0  0  0  0
   62.1477   34.8559   45.6580 H   0  0  0  0  0  0  0  0  0  0  0  0
   65.2675   32.3809   48.3078 H   0  0  0  0  0  0  0  0  0  0  0  0
   64.9873   33.7478   49.3884 H   0  0  0  0  0  0  0  0  0  0  0  0
   60.3036   27.4184   47.9203 H   0  0  0  0  0  0  0  0  0  0  0  0
   59.6576   26.7658   46.3765 H   0  0  0  0  0  0  0  0  0  0  0  0
   61.1596   27.7510   46.3765 H   0  0  0  0  0  0  0  0  0  0  0  0
   58.5620   28.8650   43.4850 H   0  0  0  0  0  0  0  0  0  0  0  0
   58.3265   26.7606   42.2900 H   0  0  0  0  0  0  0  0  0  0  0  0
   57.4400   24.4283   42.2268 H   0  0  0  0  0  0  0  0  0  0  0  0
   56.4308   23.4173   44.2745 H   0  0  0  0  0  0  0  0  0  0  0  0
   56.3007   24.7423   46.3867 H   0  0  0  0  0  0  0  0  0  0  0  0
   57.1870   27.0723   46.4592 H   0  0  0  0  0  0  0  0  0  0  0  0
  1  2  1  0
  2  3  1  0
  3  4  1  0
  4  5  1  0
  5  6  1  0
  6  7  1  0
  7  8  1  0
  8  9  2  0
  9 10  1  0
 10 11  2  0
 11 12  1  0
 12 13  2  0
 13 14  1  0
 11 15  1  0
 15 16  1  0
 16 17  1  0
  6 18  2  0
 18 19  1  0
 19 20  1  0
 19 21  2  0
 21 22  1  0
 22 23  1  0
 23 24  2  0
 24 25  1  0
 25 26  2  0
 26 27  1  0
 27 28  2  0
 21  5  1  0
 28 23  1  0
 13  8  1  0
 17 10  1  0
  1 29  1  0
  1 30  1  0
  1 31  1  0
  2 32  1  0
  2 33  1  0
  4 34  1  0
  4 35  1  0
  9 36  1  0
 12 37  1  0
 16 38  1  0
 16 39  1  0
 20 40  1  0
 20 41  1  0
 20 42  1  0
 22 43  1  0
 24 44  1  0
 25 45  1  0
 26 46  1  0
 27 47  1  0
 28 48  1  0
M  END
>  <UniqueID>  (36) 
34

>  <SMILES>  (36) 
CCOCn1c(Sc2cc3c(cc2Br)OCO3)nc(C)c1Nc1ccccc1

>  <Energy>  (36) 
110.95513793232035

>  <Genealogy>  (36) 
CCOCn1c(Sc2cc3c(cc2Br)OCO3)nc(C)c1Nc1ccccc1 (3D coordinates assigned)
CCOCn1c(Sc2cc3c(cc2Br)OCO3)nc(C)c1Nc1ccccc1 (nonaromatic ring conformer: 110.95513793232035 kcal/mol)

>  <smiles>  (36) 
CCOCn1c(Sc2cc3c(cc2Br)OCO3)nc(C)c1Nc1ccccc1

>  <score_type>  (36) 
oracle

>  <origin>  (36) 
adg

>  <m_score__min__energy>  (36) 
-7.8700000000000001

>  <m_primary>  (36) 
energy

$$$$
36:0
     RDKit          3D

 35 37  0  0  0  0  0  0  0  0999 V2000
   56.2820   34.2214   44.9946 H   0  0  0  0  0  0  0  0  0  0  0  0
   57.2690   34.1180   45.4690 C   0  0  0  0  0  0  0  0  0  0  0  0
   57.3990   33.4070   46.6660 C   0  0  0  0  0  0  0  0  0  0  0  0
   56.5132   32.9524   47.1336 H   0  0  0  0  0  0  0  0  0  0  0  0
   58.6520   33.2730   47.2690 C   0  0  0  0  0  0  0  0  0  0  0  0
   58.7489   32.7142   48.2115 H   0  0  0  0  0  0  0  0  0  0  0  0
   59.7900   33.8490   46.6770 C   0  0  0  0  0  0  0  0  0  0  0  0
   61.0820   33.7190   47.3060 N   0  0  0  0  0  0  0  0  0  0  0  0
   62.1620   33.4130   46.5250 C   0  0  0  0  0  0  0  0  0  0  0  0
   62.0278   33.2819   45.4411 H   0  0  0  0  0  0  0  0  0  0  0  0
   63.4300   33.2650   47.0830 C   0  0  0  0  0  0  0  0  0  0  0  0
   64.2892   33.0160   46.4429 H   0  0  0  0  0  0  0  0  0  0  0  0
   63.6060   33.4340   48.4580 C   0  0  0  0  0  0  0  0  0  0  0  0
   62.4930   33.7560   49.2610 C   0  0  0  0  0  0  0  0  0  0  0  0
   62.6860   33.9240   50.6400 C   0  0  0  0  0  0  0  0  0  0  0  0
   61.8327   34.1747   51.2873 H   0  0  0  0  0  0  0  0  0  0  0  0
   63.9560   33.7740   51.1910 C   0  0  0  0  0  0  0  0  0  0  0  0
   64.1056   33.9045   52.2729 H   0  0  0  0  0  0  0  0  0  0  0  0
   65.0420   33.4570   50.3670 C   0  0  0  0  0  0  0  0  0  0  0  0
   66.2180   33.3250   50.9180 N   0  0  0  0  0  0  0  0  0  0  0  0
   67.2420   32.3300   50.5990 C   0  0  0  0  0  0  0  0  0  0  0  0
   68.1340   32.5210   51.2136 H   0  0  0  0  0  0  0  0  0  0  0  0
   67.4889   32.4090   49.5300 H   0  0  0  0  0  0  0  0  0  0  0  0
   66.7340   30.9190   50.8800 C   0  0  0  0  0  0  0  0  0  0  0  0
   66.6766   30.7596   51.9669 H   0  0  0  0  0  0  0  0  0  0  0  0
   65.7345   30.7943   50.4379 H   0  0  0  0  0  0  0  0  0  0  0  0
   67.4246   30.1858   50.4379 H   0  0  0  0  0  0  0  0  0  0  0  0
   64.8440   33.2900   49.0220 N   0  0  0  0  0  0  0  0  0  0  0  0
   65.6410   33.0430   48.3950 H   0  0  0  0  0  0  0  0  0  0  0  0
   61.2270   33.9010   48.6600 C   0  0  0  0  0  0  0  0  0  0  0  0
   60.2270   34.2120   49.3670 O   0  0  0  0  0  0  0  0  0  0  0  0
   59.6500   34.5660   45.4770 C   0  0  0  0  0  0  0  0  0  0  0  0
   60.5321   35.0264   45.0081 H   0  0  0  0  0  0  0  0  0  0  0  0
   58.3940   34.6970   44.8760 C   0  0  0  0  0  0  0  0  0  0  0  0
   58.2915   35.2569   43.9347 H   0  0  0  0  0  0  0  0  0  0  0  0
  1  2  1  0
  2  3  2  0
  3  4  1  0
  3  5  1  0
  5  6  1  0
  5  7  2  0
  7  8  1  0
  8  9  1  0
  9 10  1  0
  9 11  2  0
 11 12  1  0
 11 13  1  0
 13 14  2  0
 14 15  1  0
 15 16  1  0
 15 17  2  0
 17 18  1  0
 17 19  1  0
 19 20  2  0
 20 21  1  0
 21 22  1  0
 21 23  1  0
 21 24  1  0
 24 25  1  0
 24 26  1  0
 24 27  1  0
 19 28  1  0
 28 29  1  0
 14 30  1  0
 30 31  2  0
  7 32  1  0
 32 33  1  0
 32 34  2  0
 34 35  1  0
 34  2  1  0
 30  8  1  0
 28 13  1  0
M  END
>  <UniqueID>  (37) 
35

>  <SMILES>  (37) 
CC/N=c1/ccc2c(=O)n(-c3ccccc3)ccc2[nH]1

>  <Energy>  (37) 
50.330118090778534

>  <Genealogy>  (37) 
CC/N=c1/ccc2c(=O)n(-c3ccccc3)ccc2[nH]1 (cis-trans isomerization)
CC/N=c1/ccc2c(=O)n(-c3ccccc3)ccc2[nH]1 (3D coordinates assigned)
CC/N=c1/ccc2c(=O)n(-c3ccccc3)ccc2[nH]1 (optimized conformer: 50.330118090778534 kcal/mol)

>  <smiles>  (37) 
CCN=c1ccc2c(=O)n(-c3ccccc3)ccc2[nH]1

>  <score_type>  (37) 
oracle

>  <origin>  (37) 
adg

>  <m_score__min__energy>  (37) 
-6.6900000000000004

>  <m_primary>  (37) 
energy

$$$$
37:0
     RDKit          3D

 45 48  0  0  1  0  0  0  0  0999 V2000
   65.1720   32.7700   49.7670 C   0  0  0  0  0  0  0  0  0  0  0  0
   64.1820   33.7950   49.8900 O   0  0  0  0  0  0  0  0  0  0  0  0
   63.1290   33.7760   48.9860 C   0  0  0  0  0  0  0  0  0  0  0  0
   61.8450   33.9970   49.4550 C   0  0  0  0  0  0  0  0  0  0  0  0
   60.7550   33.9900   48.6040 C   0  0  0  0  0  0  0  0  0  0  0  0
   60.9680   33.7550   47.2550 C   0  0  0  0  0  0  0  0  0  0  0  0
   59.8950   33.7330   46.3200 N   0  0  0  0  0  0  0  0  0  0  0  0
   59.4550   34.9130   45.8040 C   0  0  0  0  0  0  0  0  0  0  0  0
   60.0100   36.0030   46.1670 O   0  0  0  0  0  0  0  0  0  0  0  0
   58.4210   34.9670   44.8950 C   0  0  0  0  0  0  0  0  0  0  0  0
   57.8370   33.7750   44.5170 C   0  0  0  0  0  0  0  0  0  0  0  0
   58.3030   32.5750   45.0580 C   0  0  0  0  0  0  0  0  0  0  0  0
   57.6970   31.3990   44.6610 C   0  0  0  0  0  0  0  0  0  0  0  0
   58.1030   30.1570   45.1530 C   0  0  0  0  0  0  0  0  0  0  0  0
   57.3160   28.6810   44.6240 S   0  0  0  0  0  0  0  0  0  0  0  0
   57.1150   28.6110   43.1550 O   0  0  0  0  0  0  0  0  0  0  0  0
   55.9030   28.7590   45.2090 O   0  0  0  0  0  0  0  0  0  0  0  0
   57.9990   27.2740   45.3230 N   0  0  0  0  0  0  0  0  0  0  0  0
   57.3770   26.3450   45.9240 C   0  0  0  0  0  0  0  0  0  0  0  0
   58.0280   25.5720   46.8580 C   0  0  0  0  0  0  0  0  0  0  0  0
   57.2580   24.5750   47.4650 C   0  0  0  0  0  0  0  0  0  0  0  0
   55.9170   24.4040   47.1200 C   0  0  0  0  0  0  0  0  0  0  0  0
   55.3580   25.2120   46.1890 N   0  0  0  0  0  0  0  0  0  0  0  0
   56.0850   26.1460   45.6220 N   0  0  0  0  0  0  0  0  0  0  0  0
   59.1380   30.1770   46.0540 C   0  0  0  0  0  0  0  0  0  0  0  0
   59.7610   31.3460   46.4690 C   0  0  0  0  0  0  0  0  0  0  0  0
   59.3410   32.5590   45.9670 C   0  0  0  0  0  0  0  0  0  0  0  0
   62.2440   33.5300   46.7540 C   0  0  0  0  0  0  0  0  0  0  0  0
   63.3120   33.5450   47.6340 C   0  0  0  0  0  0  0  0  0  0  0  0
   65.4877   32.4431   50.7687 H   0  0  0  0  0  0  0  0  0  0  0  0
   64.7488   31.9154   49.2188 H   0  0  0  0  0  0  0  0  0  0  0  0
   66.0408   33.1633   49.2188 H   0  0  0  0  0  0  0  0  0  0  0  0
   61.6886   34.1822   50.5280 H   0  0  0  0  0  0  0  0  0  0  0  0
   59.7402   34.1672   48.9898 H   0  0  0  0  0  0  0  0  0  0  0  0
   58.0731   35.9266   44.4849 H   0  0  0  0  0  0  0  0  0  0  0  0
   57.0087   33.7703   43.7932 H   0  0  0  0  0  0  0  0  0  0  0  0
   56.8706   31.4422   43.9363 H   0  0  0  0  0  0  0  0  0  0  0  0
   59.0870   25.7285   47.1111 H   0  0  0  0  0  0  0  0  0  0  0  0
   57.7138   23.9194   48.2216 H   0  0  0  0  0  0  0  0  0  0  0  0
   55.3177   23.6173   47.6016 H   0  0  0  0  0  0  0  0  0  0  0  0
   55.6200   26.7470   44.9110 H   0  0  0  0  0  0  0  0  0  0  0  0
   59.4909   29.2206   46.4672 H   0  0  0  0  0  0  0  0  0  0  0  0
   60.5862   31.3045   47.1952 H   0  0  0  0  0  0  0  0  0  0  0  0
   62.4020   33.3440   45.6814 H   0  0  0  0  0  0  0  0  0  0  0  0
   64.3280   33.3696   47.2505 H   0  0  0  0  0  0  0  0  0  0  0  0
  1  2  1  0
  2  3  1  0
  3  4  2  0
  4  5  1  0
  5  6  2  0
  6  7  1  0
  7  8  1  0
  8  9  2  0
  8 10  1  0
 10 11  2  0
 11 12  1  0
 12 13  2  0
 13 14  1  0
 14 15  1  0
 15 16  2  0
 15 17  2  0
 15 18  1  0
 18 19  2  0
 19 20  1  0
 20 21  2  0
 21 22  1  0
 22 23  2  0
 23 24  1  0
 14 25  2  0
 25 26  1  0
 26 27  2  0
  6 28  1  0
 28 29  2  0
 29  3  1  0
 27  7  1  0
 27 12  1  0
 24 19  1  0
  1 30  1  0
  1 31  1  0
  1 32  1  0
  4 33  1  0
  5 34  1  0
 10 35  1  0
 11 36  1  0
 13 37  1  0
 20 38  1  0
 21 39  1  0
 22 40  1  0
 24 41  1  0
 25 42  1  0
 26 43  1  0
 28 44  1  0
 29 45  1  0
M  END
>  <smiles>  (38) 
COc1ccc(-n2c(=O)ccc3cc(S(=O)(=O)N=c4cccn[nH]4)ccc32)cc1

>  <score_type>  (38) 
oracle

>  <origin>  (38) 
adg

>  <m_score__min__energy>  (38) 
-10.65

>  <m_primary>  (38) 
energy

$$$$
38:0
     RDKit          3D

 38 38  0  0  0  0  0  0  0  0999 V2000
   56.3270   29.7210   42.7780 C   0  0  0  0  0  0  0  0  0  0  0  0
   55.7850   30.1760   44.1270 C   0  0  0  0  0  0  0  0  0  0  0  0
   56.7960   30.8540   44.8680 O   0  0  0  0  0  0  0  0  0  0  0  0
   57.5130   31.9520   44.3820 C   0  0  0  0  0  0  0  0  0  0  0  0
   57.3960   32.2900   43.1710 O   0  0  0  0  0  0  0  0  0  0  0  0
   58.3840   32.7540   45.2850 C   0  0  0  0  0  0  0  0  0  0  0  0
   58.4960   34.1360   45.0340 C   0  0  0  0  0  0  0  0  0  0  0  0
   59.2680   34.9560   45.8590 C   0  0  0  0  0  0  0  0  0  0  0  0
   59.9410   34.4120   46.9500 C   0  0  0  0  0  0  0  0  0  0  0  0
   59.8580   33.0460   47.2130 C   0  0  0  0  0  0  0  0  0  0  0  0
   59.1000   32.1940   46.3850 C   0  0  0  0  0  0  0  0  0  0  0  0
   59.0760   30.7800   46.6890 N   0  0  0  0  0  0  0  0  0  0  0  0
   60.3780   30.1680   46.3760 C   0  0  0  0  0  0  0  0  0  0  0  0
   60.1960   28.9520   45.4410 C   0  0  0  0  0  0  0  0  0  0  0  0
   58.8070   28.4470   45.3590 N   0  0  0  0  0  0  0  0  0  0  0  0
   58.4010   27.6830   46.5500 C   0  0  0  0  0  0  0  0  0  0  0  0
   58.5400   27.6930   44.1250 C   0  0  0  0  0  0  0  0  0  0  0  0
   57.1609   29.0210   42.9351 H   0  0  0  0  0  0  0  0  0  0  0  0
   55.5283   29.2188   42.2124 H   0  0  0  0  0  0  0  0  0  0  0  0
   56.6832   30.5946   42.2124 H   0  0  0  0  0  0  0  0  0  0  0  0
   54.9365   30.8571   43.9652 H   0  0  0  0  0  0  0  0  0  0  0  0
   55.4590   29.2927   44.6957 H   0  0  0  0  0  0  0  0  0  0  0  0
   57.9673   34.5753   44.1752 H   0  0  0  0  0  0  0  0  0  0  0  0
   59.3447   36.0327   45.6471 H   0  0  0  0  0  0  0  0  0  0  0  0
   60.5393   35.0618   47.6055 H   0  0  0  0  0  0  0  0  0  0  0  0
   60.3915   32.6270   48.0789 H   0  0  0  0  0  0  0  0  0  0  0  0
   58.8000   30.6210   47.6830 H   0  0  0  0  0  0  0  0  0  0  0  0
   58.3390   30.3120   46.1100 H   0  0  0  0  0  0  0  0  0  0  0  0
   61.0178   30.9128   45.8801 H   0  0  0  0  0  0  0  0  0  0  0  0
   60.8449   29.8288   47.3125 H   0  0  0  0  0  0  0  0  0  0  0  0
   60.5162   29.2442   44.4300 H   0  0  0  0  0  0  0  0  0  0  0  0
   60.8022   28.1372   45.8636 H   0  0  0  0  0  0  0  0  0  0  0  0
   58.6936   28.2337   47.4562 H   0  0  0  0  0  0  0  0  0  0  0  0
   57.3099   27.5437   46.5419 H   0  0  0  0  0  0  0  0  0  0  0  0
   58.8961   26.7008   46.5419 H   0  0  0  0  0  0  0  0  0  0  0  0
   58.1829   26.6847   44.3814 H   0  0  0  0  0  0  0  0  0  0  0  0
   57.7720   28.2150   43.5353 H   0  0  0  0  0  0  0  0  0  0  0  0
   59.4653   27.6154   43.5353 H   0  0  0  0  0  0  0  0  0  0  0  0
  1  2  1  0
  2  3  1  0
  3  4  1  0
  4  5  2  0
  4  6  1  0
  6  7  2  0
  7  8  1  0
  8  9  2  0
  9 10  1  0
 10 11  2  0
 11 12  1  0
 12 13  1  0
 13 14  1  0
 14 15  1  0
 15 16  1  0
 15 17  1  0
 11  6  1  0
  1 18  1  0
  1 19  1  0
  1 20  1  0
  2 21  1  0
  2 22  1  0
  7 23  1  0
  8 24  1  0
  9 25  1  0
 10 26  1  0
 12 27  1  0
 12 28  1  0
 13 29  1  0
 13 30  1  0
 14 31  1  0
 14 32  1  0
 16 33  1  0
 16 34  1  0
 16 35  1  0
 17 36  1  0
 17 37  1  0
 17 38  1  0
M  CHG  1  12   1
M  END
>  <UniqueID>  (39) 
36

>  <SMILES>  (39) 
CCOC(=O)c1ccccc1[NH2+]CCN(C)C

>  <Energy>  (39) 
38.16224958623967

>  <Genealogy>  (39) 
CCOC(=O)c1ccccc1[NH2+]CCN(C)C (protonated)
CCOC(=O)c1ccccc1[NH2+]CCN(C)C (3D coordinates assigned)
CCOC(=O)c1ccccc1[NH2+]CCN(C)C (optimized conformer: 38.16224958623967 kcal/mol)

>  <smiles>  (39) 
CCOC(=O)c1ccccc1NCCN(C)C

>  <score_type>  (39) 
oracle

>  <origin>  (39) 
adg

>  <m_score__min__energy>  (39) 
-3.7400000000000002

>  <m_primary>  (39) 
energy

$$$$
39:0
     RDKit          3D

 57 60  0  0  0  0  0  0  0  0999 V2000
   62.7940   33.8430   46.0510 C   0  0  0  0  0  0  0  0  0  0  0  0
   62.7100   33.4450   47.4920 C   0  0  0  0  0  0  0  0  0  0  0  0
   63.6990   32.6970   48.0550 N   0  0  0  0  0  0  0  0  0  0  0  0
   63.4650   32.4230   49.3570 C   0  0  0  0  0  0  0  0  0  0  0  0
   64.3660   31.6260   50.2070 C   0  0  0  0  0  0  0  0  0  0  0  0
   63.8640   30.6190   51.0470 C   0  0  0  0  0  0  0  0  0  0  0  0
   64.7480   29.8830   51.8380 C   0  0  0  0  0  0  0  0  0  0  0  0
   66.1160   30.1530   51.7870 C   0  0  0  0  0  0  0  0  0  0  0  0
   66.5820   31.1600   50.9420 C   0  0  0  0  0  0  0  0  0  0  0  0
   65.7060   31.8670   50.1780 N   0  0  0  0  0  0  0  0  0  0  0  0
   62.0150   33.1060   49.8660 S   0  0  0  0  0  0  0  0  0  0  0  0
   61.6750   33.8040   48.3700 C   0  0  0  0  0  0  0  0  0  0  0  0
   60.4180   34.5900   48.0680 C   0  0  0  0  0  0  0  0  0  0  0  0
   59.5490   33.9760   47.0390 N   0  0  0  0  0  0  0  0  0  0  0  0
   58.1570   33.7580   47.4970 C   0  0  0  0  0  0  0  0  0  0  0  0
   57.2010   33.4070   46.3390 C   0  0  0  0  0  0  0  0  0  0  0  0
   57.9490   32.9110   45.1790 N   0  0  0  0  0  0  0  0  0  0  0  0
   57.6610   31.6140   44.6230 C   0  0  0  0  0  0  0  0  0  0  0  0
   57.1290   31.5190   43.3260 C   0  0  0  0  0  0  0  0  0  0  0  0
   56.8120   30.2740   42.7810 C   0  0  0  0  0  0  0  0  0  0  0  0
   57.0250   29.1130   43.5230 C   0  0  0  0  0  0  0  0  0  0  0  0
   57.5580   29.1900   44.8110 C   0  0  0  0  0  0  0  0  0  0  0  0
   57.8820   30.4420   45.3750 C   0  0  0  0  0  0  0  0  0  0  0  0
   58.4450   30.5620   46.6570 O   0  0  0  0  0  0  0  0  0  0  0  0
   59.8350   30.7010   46.9580 C   0  0  0  0  0  0  0  0  0  0  0  0
   60.0380   30.4330   48.4470 C   0  0  0  0  0  0  0  0  0  0  0  0
   60.6580   29.7140   46.1250 C   0  0  0  0  0  0  0  0  0  0  0  0
   59.0620   33.7130   44.6530 C   0  0  0  0  0  0  0  0  0  0  0  0
   59.6180   34.6490   45.7320 C   0  0  0  0  0  0  0  0  0  0  0  0
   63.0207   34.9170   45.9799 H   0  0  0  0  0  0  0  0  0  0  0  0
   63.5903   33.2667   45.5572 H   0  0  0  0  0  0  0  0  0  0  0  0
   61.8327   33.6376   45.5572 H   0  0  0  0  0  0  0  0  0  0  0  0
   62.7842   30.4120   51.0815 H   0  0  0  0  0  0  0  0  0  0  0  0
   64.3668   29.0917   52.5002 H   0  0  0  0  0  0  0  0  0  0  0  0
   66.8195   29.5777   52.4067 H   0  0  0  0  0  0  0  0  0  0  0  0
   67.6581   31.3826   50.8933 H   0  0  0  0  0  0  0  0  0  0  0  0
   59.8380   34.6831   48.9980 H   0  0  0  0  0  0  0  0  0  0  0  0
   60.7423   35.5619   47.6678 H   0  0  0  0  0  0  0  0  0  0  0  0
   58.1501   32.9314   48.2227 H   0  0  0  0  0  0  0  0  0  0  0  0
   57.8035   34.6966   47.9487 H   0  0  0  0  0  0  0  0  0  0  0  0
   56.4983   32.6299   46.6743 H   0  0  0  0  0  0  0  0  0  0  0  0
   56.6549   34.3154   46.0446 H   0  0  0  0  0  0  0  0  0  0  0  0
   56.9612   32.4322   42.7362 H   0  0  0  0  0  0  0  0  0  0  0  0
   56.3939   30.2086   41.7656 H   0  0  0  0  0  0  0  0  0  0  0  0
   56.7722   28.1330   43.0921 H   0  0  0  0  0  0  0  0  0  0  0  0
   57.7263   28.2695   45.3893 H   0  0  0  0  0  0  0  0  0  0  0  0
   60.1707   31.7194   46.7128 H   0  0  0  0  0  0  0  0  0  0  0  0
   59.4759   31.1750   49.0331 H   0  0  0  0  0  0  0  0  0  0  0  0
   59.6762   29.4231   48.6905 H   0  0  0  0  0  0  0  0  0  0  0  0
   61.1081   30.5077   48.6905 H   0  0  0  0  0  0  0  0  0  0  0  0
   61.2163   29.0445   46.7958 H   0  0  0  0  0  0  0  0  0  0  0  0
   59.9846   29.1191   45.4904 H   0  0  0  0  0  0  0  0  0  0  0  0
   61.3642   30.2695   45.4904 H   0  0  0  0  0  0  0  0  0  0  0  0
   59.8624   33.0394   44.3130 H   0  0  0  0  0  0  0  0  0  0  0  0
   58.6917   34.3223   43.8154 H   0  0  0  0  0  0  0  0  0  0  0  0
   60.6645   34.8967   45.5005 H   0  0  0  0  0  0  0  0  0  0  0  0
   59.0234   35.5740   45.7609 H   0  0  0  0  0  0  0  0  0  0  0  0
  1  2  1  0
  2  3  1  0
  3  4  2  0
  4  5  1  0
  5  6  2  0
  6  7  1  0
  7  8  2  0
  8  9  1  0
  9 10  2  0
  4 11  1  0
 11 12  1  0
 12 13  1  0
 13 14  1  0
 14 15  1  0
 15 16  1  0
 16 17  1  0
 17 18  1  0
 18 19  2  0
 19 20  1  0
 20 21  2  0
 21 22  1  0
 22 23  2  0
 23 24  1  0
 24 25  1  0
 25 26  1  0
 25 27  1  0
 17 28  1  0
 28 29  1  0
 12  2  2  0
 29 14  1  0
 10  5  1  0
 23 18  1  0
  1 30  1  0
  1 31  1  0
  1 32  1  0
  6 33  1  0
  7 34  1  0
  8 35  1  0
  9 36  1  0
 13 37  1  0
 13 38  1  0
 15 39  1  0
 15 40  1  0
 16 41  1  0
 16 42  1  0
 19 43  1  0
 20 44  1  0
 21 45  1  0
 22 46  1  0
 25 47  1  0
 26 48  1  0
 26 49  1  0
 26 50  1  0
 27 51  1  0
 27 52  1  0
 27 53  1  0
 28 54  1  0
 28 55  1  0
 29 56  1  0
 29 57  1  0
M  END
>  <UniqueID>  (40) 
37

>  <SMILES>  (40) 
Cc1nc(-c2ccccn2)sc1CN1CCN(c2ccccc2OC(C)C)CC1

>  <Energy>  (40) 
98.61412578506953

>  <Genealogy>  (40) 
Cc1nc(-c2ccccn2)sc1CN1CCN(c2ccccc2OC(C)C)CC1 (3D coordinates assigned)
Cc1nc(-c2ccccn2)sc1CN1CCN(c2ccccc2OC(C)C)CC1 (nonaromatic ring conformer: 98.61412578506953 kcal/mol)

>  <smiles>  (40) 
Cc1nc(-c2ccccn2)sc1CN1CCN(c2ccccc2OC(C)C)CC1

>  <score_type>  (40) 
oracle

>  <origin>  (40) 
adg

>  <m_score__min__energy>  (40) 
-8.6999999999999993

>  <m_primary>  (40) 
energy

$$$$
40:0
     RDKit          3D

 46 48  0  0  0  0  0  0  0  0999 V2000
   56.4380   23.9300   43.9390 C   0  0  0  0  0  0  0  0  0  0  0  0
   55.9750   23.2930   45.2490 C   0  0  0  0  0  0  0  0  0  0  0  0
   55.3640   24.2880   46.1590 N   0  0  0  0  0  0  0  0  0  0  0  0
   54.1850   25.0020   45.6080 C   0  0  0  0  0  0  0  0  0  0  0  0
   53.0300   24.0820   45.1900 C   0  0  0  0  0  0  0  0  0  0  0  0
   56.3660   25.2100   46.7430 C   0  0  0  0  0  0  0  0  0  0  0  0
   57.6390   24.4390   47.1050 C   0  0  0  0  0  0  0  0  0  0  0  0
   58.8270   25.0540   46.5140 N   0  0  0  0  0  0  0  0  0  0  0  0
   59.4110   26.3110   46.8840 C   0  0  0  0  0  0  0  0  0  0  0  0
   60.4400   26.3070   47.6090 O   0  0  0  0  0  0  0  0  0  0  0  0
   58.8790   27.6020   46.4190 C   0  0  0  0  0  0  0  0  0  0  0  0
   57.6600   27.8140   45.7740 C   0  0  0  0  0  0  0  0  0  0  0  0
   57.4310   29.1670   45.4930 C   0  0  0  0  0  0  0  0  0  0  0  0
   56.3120   29.7110   44.8550 C   0  0  0  0  0  0  0  0  0  0  0  0
   55.3720   28.9730   44.4540 O   0  0  0  0  0  0  0  0  0  0  0  0
   56.2450   31.0600   44.6630 N   0  0  0  0  0  0  0  0  0  0  0  0
   57.2360   31.9050   45.0800 C   0  0  0  0  0  0  0  0  0  0  0  0
   57.1220   33.2800   44.8560 C   0  0  0  0  0  0  0  0  0  0  0  0
   58.1330   34.1470   45.2810 C   0  0  0  0  0  0  0  0  0  0  0  0
   59.2640   33.6490   45.9480 C   0  0  0  0  0  0  0  0  0  0  0  0
   60.3630   34.5810   46.3660 C   0  0  0  0  0  0  0  0  0  0  0  0
   59.3950   32.2670   46.1600 C   0  0  0  0  0  0  0  0  0  0  0  0
   58.3820   31.3930   45.7340 C   0  0  0  0  0  0  0  0  0  0  0  0
   58.4460   30.0080   45.9230 C   0  0  0  0  0  0  0  0  0  0  0  0
   59.6440   29.0890   46.6670 S   0  0  0  0  0  0  0  0  0  0  0  0
   57.0717   24.8018   44.1591 H   0  0  0  0  0  0  0  0  0  0  0  0
   57.0143   23.1953   43.3576 H   0  0  0  0  0  0  0  0  0  0  0  0
   55.5613   24.2514   43.3576 H   0  0  0  0  0  0  0  0  0  0  0  0
   55.2320   22.5140   45.0229 H   0  0  0  0  0  0  0  0  0  0  0  0
   56.8556   22.8661   45.7513 H   0  0  0  0  0  0  0  0  0  0  0  0
   53.8124   25.6961   46.3758 H   0  0  0  0  0  0  0  0  0  0  0  0
   54.5247   25.5161   44.6968 H   0  0  0  0  0  0  0  0  0  0  0  0
   52.5331   23.6862   46.0880 H   0  0  0  0  0  0  0  0  0  0  0  0
   52.3049   24.6527   44.5912 H   0  0  0  0  0  0  0  0  0  0  0  0
   53.4241   23.2477   44.5912 H   0  0  0  0  0  0  0  0  0  0  0  0
   56.6105   25.9935   46.0107 H   0  0  0  0  0  0  0  0  0  0  0  0
   55.9494   25.6667   47.6529 H   0  0  0  0  0  0  0  0  0  0  0  0
   57.7501   24.4270   48.1993 H   0  0  0  0  0  0  0  0  0  0  0  0
   57.5470   23.4171   46.7084 H   0  0  0  0  0  0  0  0  0  0  0  0
   56.9572   27.0084   45.5150 H   0  0  0  0  0  0  0  0  0  0  0  0
   56.2347   33.6808   44.3441 H   0  0  0  0  0  0  0  0  0  0  0  0
   58.0419   35.2267   45.0916 H   0  0  0  0  0  0  0  0  0  0  0  0
   60.4112   34.6219   47.4642 H   0  0  0  0  0  0  0  0  0  0  0  0
   61.3227   34.2172   45.9701 H   0  0  0  0  0  0  0  0  0  0  0  0
   60.1608   35.5872   45.9701 H   0  0  0  0  0  0  0  0  0  0  0  0
   60.2907   31.8694   46.6595 H   0  0  0  0  0  0  0  0  0  0  0  0
  1  2  1  0
  2  3  1  0
  3  4  1  0
  4  5  1  0
  3  6  1  0
  6  7  1  0
  7  8  1  0
  8  9  1  0
  9 10  2  0
  9 11  1  0
 11 12  2  0
 12 13  1  0
 13 14  1  0
 14 15  2  0
 14 16  1  0
 16 17  1  0
 17 18  2  0
 18 19  1  0
 19 20  2  0
 20 21  1  0
 20 22  1  0
 22 23  2  0
 23 24  1  0
 24 25  1  0
 25 11  1  0
 24 13  2  0
 23 17  1  0
  1 26  1  0
  1 27  1  0
  1 28  1  0
  2 29  1  0
  2 30  1  0
  4 31  1  0
  4 32  1  0
  5 33  1  0
  5 34  1  0
  5 35  1  0
  6 36  1  0
  6 37  1  0
  7 38  1  0
  7 39  1  0
 12 40  1  0
 18 41  1  0
 19 42  1  0
 21 43  1  0
 21 44  1  0
 21 45  1  0
 22 46  1  0
M  CHG  2   8  -1  16  -1
M  END
>  <UniqueID>  (41) 
38

>  <SMILES>  (41) 
CCN(CC)CC[N-]C(=O)c1cc2c(=O)[n-]c3ccc(C)cc3c2s1

>  <Energy>  (41) 
85.58190405870889

>  <Genealogy>  (41) 
CCN(CC)CC[N-]C(=O)c1cc2c(=O)[n-]c3ccc(C)cc3c2s1 (protonated)
CCN(CC)CC[N-]C(=O)c1cc2c(=O)[n-]c3ccc(C)cc3c2s1 (3D coordinates assigned)
CCN(CC)CC[N-]C(=O)c1cc2c(=O)[n-]c3ccc(C)cc3c2s1 (optimized conformer: 85.58190405870889 kcal/mol)

>  <smiles>  (41) 
CCN(CC)CCNC(=O)c1cc2c(=O)[nH]c3ccc(C)cc3c2s1

>  <score_type>  (41) 
oracle

>  <origin>  (41) 
adg

>  <m_score__min__energy>  (41) 
-10.5

>  <m_primary>  (41) 
energy

$$$$
41:0
     RDKit          3D

 34 36  0  0  0  0  0  0  0  0999 V2000
   55.0860   24.8770   45.6540 C   0  0  0  0  0  0  0  0  0  0  0  0
   55.5020   26.1940   45.9970 O   0  0  0  0  0  0  0  0  0  0  0  0
   56.7970   26.6940   45.7890 C   0  0  0  0  0  0  0  0  0  0  0  0
   57.9090   25.8600   45.5990 C   0  0  0  0  0  0  0  0  0  0  0  0
   59.1410   26.4010   45.4170 N   0  0  0  0  0  0  0  0  0  0  0  0
   59.3570   27.7450   45.4010 C   0  0  0  0  0  0  0  0  0  0  0  0
   60.7680   28.2260   45.2330 C   0  0  0  0  0  0  0  0  0  0  0  0
   58.2590   28.6270   45.5520 C   0  0  0  0  0  0  0  0  0  0  0  0
   58.3910   30.1010   45.5170 C   0  0  0  0  0  0  0  0  0  0  0  0
   58.1200   30.9320   44.4360 C   0  0  0  0  0  0  0  0  0  0  0  0
   58.3070   32.1900   44.8570 N   0  0  0  0  0  0  0  0  0  0  0  0
   58.1570   33.3610   44.1860 C   0  0  0  0  0  0  0  0  0  0  0  0
   58.3950   34.5550   44.8800 C   0  0  0  0  0  0  0  0  0  0  0  0
   58.7750   34.5060   46.2360 C   0  0  0  0  0  0  0  0  0  0  0  0
   58.9270   33.2680   46.8930 C   0  0  0  0  0  0  0  0  0  0  0  0
   59.2920   33.1970   48.3460 C   0  0  0  0  0  0  0  0  0  0  0  0
   58.6670   32.1120   46.1480 C   0  0  0  0  0  0  0  0  0  0  0  0
   58.7220   30.8430   46.6030 N   0  0  0  0  0  0  0  0  0  0  0  0
   56.9860   28.0760   45.7690 C   0  0  0  0  0  0  0  0  0  0  0  0
   54.9035   24.2993   46.5721 H   0  0  0  0  0  0  0  0  0  0  0  0
   54.1600   24.9274   45.0624 H   0  0  0  0  0  0  0  0  0  0  0  0
   55.8729   24.3863   45.0624 H   0  0  0  0  0  0  0  0  0  0  0  0
   57.7827   24.7673   45.5975 H   0  0  0  0  0  0  0  0  0  0  0  0
   61.2228   28.3810   46.2225 H   0  0  0  0  0  0  0  0  0  0  0  0
   61.3477   27.4747   44.6767 H   0  0  0  0  0  0  0  0  0  0  0  0
   60.7681   29.1749   44.6767 H   0  0  0  0  0  0  0  0  0  0  0  0
   57.8113   30.6170   43.4283 H   0  0  0  0  0  0  0  0  0  0  0  0
   57.8572   33.3721   43.1277 H   0  0  0  0  0  0  0  0  0  0  0  0
   58.2860   35.5234   44.3699 H   0  0  0  0  0  0  0  0  0  0  0  0
   58.9545   35.4413   46.7864 H   0  0  0  0  0  0  0  0  0  0  0  0
   58.3950   33.3715   48.9583 H   0  0  0  0  0  0  0  0  0  0  0  0
   59.7028   32.2021   48.5727 H   0  0  0  0  0  0  0  0  0  0  0  0
   60.0458   33.9653   48.5727 H   0  0  0  0  0  0  0  0  0  0  0  0
   56.1257   28.7434   45.9254 H   0  0  0  0  0  0  0  0  0  0  0  0
  1  2  1  0
  2  3  1  0
  3  4  2  0
  4  5  1  0
  5  6  2  0
  6  7  1  0
  6  8  1  0
  8  9  1  0
  9 10  2  0
 10 11  1  0
 11 12  1  0
 12 13  2  0
 13 14  1  0
 14 15  2  0
 15 16  1  0
 15 17  1  0
 17 18  2  0
  8 19  2  0
 19  3  1  0
 18  9  1  0
 17 11  1  0
  1 20  1  0
  1 21  1  0
  1 22  1  0
  4 23  1  0
  7 24  1  0
  7 25  1  0
  7 26  1  0
 10 27  1  0
 12 28  1  0
 13 29  1  0
 14 30  1  0
 16 31  1  0
 16 32  1  0
 16 33  1  0
 19 34  1  0
M  END
>  <UniqueID>  (42) 
39

>  <SMILES>  (42) 
COc1cnc(C)c(-c2cn3cccc(C)c3n2)c1

>  <Energy>  (42) 
75.02832045143917

>  <Genealogy>  (42) 
COc1cnc(C)c(-c2cn3cccc(C)c3n2)c1 (3D coordinates assigned)
COc1cnc(C)c(-c2cn3cccc(C)c3n2)c1 (optimized conformer: 75.02832045143917 kcal/mol)

>  <smiles>  (42) 
COc1cnc(C)c(-c2cn3cccc(C)c3n2)c1

>  <score_type>  (42) 
oracle

>  <origin>  (42) 
adg

>  <m_score__min__energy>  (42) 
-6.6100000000000003

>  <m_primary>  (42) 
energy

$$$$
42:0
     RDKit          3D

 46 48  0  0  0  0  0  0  0  0999 V2000
   56.2900   29.9290   43.4680 C   0  0  0  0  0  0  0  0  0  0  0  0
   57.3500   30.0040   44.5600 C   0  0  0  0  0  0  0  0  0  0  0  0
   57.2650   31.2940   45.2570 N   0  0  0  0  0  0  0  0  0  0  0  0
   58.1540   32.3020   44.6550 C   0  0  0  0  0  0  0  0  0  0  0  0
   57.8610   33.7240   45.1720 C   0  0  0  0  0  0  0  0  0  0  0  0
   57.9770   33.8150   46.7000 C   0  0  0  0  0  0  0  0  0  0  0  0
   58.7770   32.7120   47.2380 N   0  0  0  0  0  0  0  0  0  0  0  0
   59.7390   32.9040   48.2940 C   0  0  0  0  0  0  0  0  0  0  0  0
   61.0600   33.2820   47.9850 C   0  0  0  0  0  0  0  0  0  0  0  0
   61.4590   33.4950   46.6470 C   0  0  0  0  0  0  0  0  0  0  0  0
   62.7830   33.7890   46.3360 C   0  0  0  0  0  0  0  0  0  0  0  0
   63.7350   33.8570   47.3440 C   0  0  0  0  0  0  0  0  0  0  0  0
   63.3640   33.6670   48.6740 C   0  0  0  0  0  0  0  0  0  0  0  0
   62.0140   33.4160   49.0300 C   0  0  0  0  0  0  0  0  0  0  0  0
   61.6240   33.2790   50.3510 N   0  0  0  0  0  0  0  0  0  0  0  0
   62.5430   33.6860   51.4370 C   0  0  0  0  0  0  0  0  0  0  0  0
   60.3620   32.8040   50.6560 C   0  0  0  0  0  0  0  0  0  0  0  0
   60.0040   32.4320   51.9770 C   0  0  0  0  0  0  0  0  0  0  0  0
   58.7000   32.0490   52.2900 C   0  0  0  0  0  0  0  0  0  0  0  0
   57.7250   32.0210   51.3020 C   0  0  0  0  0  0  0  0  0  0  0  0
   58.0570   32.3290   49.9850 C   0  0  0  0  0  0  0  0  0  0  0  0
   59.3820   32.6710   49.6360 C   0  0  0  0  0  0  0  0  0  0  0  0
   55.2935   29.8585   43.9285 H   0  0  0  0  0  0  0  0  0  0  0  0
   56.3422   30.8331   42.8436 H   0  0  0  0  0  0  0  0  0  0  0  0
   56.4690   29.0413   42.8436 H   0  0  0  0  0  0  0  0  0  0  0  0
   57.1880   29.1893   45.2811 H   0  0  0  0  0  0  0  0  0  0  0  0
   58.3458   29.9062   44.1030 H   0  0  0  0  0  0  0  0  0  0  0  0
   56.2750   31.6360   45.2310 H   0  0  0  0  0  0  0  0  0  0  0  0
   59.1957   32.0450   44.8977 H   0  0  0  0  0  0  0  0  0  0  0  0
   57.9815   32.2968   43.5686 H   0  0  0  0  0  0  0  0  0  0  0  0
   58.5804   34.4220   44.7189 H   0  0  0  0  0  0  0  0  0  0  0  0
   56.8283   33.9810   44.8935 H   0  0  0  0  0  0  0  0  0  0  0  0
   58.4555   34.7687   46.9672 H   0  0  0  0  0  0  0  0  0  0  0  0
   56.9664   33.7538   47.1299 H   0  0  0  0  0  0  0  0  0  0  0  0
   58.4800   31.7380   47.0070 H   0  0  0  0  0  0  0  0  0  0  0  0
   60.7138   33.4276   45.8407 H   0  0  0  0  0  0  0  0  0  0  0  0
   63.0755   33.9676   45.2908 H   0  0  0  0  0  0  0  0  0  0  0  0
   64.7861   34.0616   47.0922 H   0  0  0  0  0  0  0  0  0  0  0  0
   64.1311   33.7125   49.4610 H   0  0  0  0  0  0  0  0  0  0  0  0
   62.0748   33.4786   52.4105 H   0  0  0  0  0  0  0  0  0  0  0  0
   63.4824   33.1197   51.3539 H   0  0  0  0  0  0  0  0  0  0  0  0
   62.7550   34.7622   51.3539 H   0  0  0  0  0  0  0  0  0  0  0  0
   60.7680   32.4458   52.7683 H   0  0  0  0  0  0  0  0  0  0  0  0
   58.4434   31.7684   53.3222 H   0  0  0  0  0  0  0  0  0  0  0  0
   56.6892   31.7553   51.5597 H   0  0  0  0  0  0  0  0  0  0  0  0
   57.2786   32.3056   49.2081 H   0  0  0  0  0  0  0  0  0  0  0  0
  1  2  1  0
  2  3  1  0
  3  4  1  0
  4  5  1  0
  5  6  1  0
  6  7  1  0
  7  8  1  0
  8  9  2  0
  9 10  1  0
 10 11  2  0
 11 12  1  0
 12 13  2  0
 13 14  1  0
 14 15  2  0
 15 16  1  0
 15 17  1  0
 17 18  2  0
 18 19  1  0
 19 20  2  0
 20 21  1  0
 21 22  2  0
 22  8  1  0
 14  9  1  0
 22 17  1  0
  1 23  1  0
  1 24  1  0
  1 25  1  0
  2 26  1  0
  2 27  1  0
  3 28  1  0
  4 29  1  0
  4 30  1  0
  5 31  1  0
  5 32  1  0
  6 33  1  0
  6 34  1  0
  7 35  1  0
 10 36  1  0
 11 37  1  0
 12 38  1  0
 13 39  1  0
 16 40  1  0
 16 41  1  0
 16 42  1  0
 18 43  1  0
 19 44  1  0
 20 45  1  0
 21 46  1  0
M  CHG  1  15   1
M  END
>  <UniqueID>  (43) 
40

>  <SMILES>  (43) 
CCNCCCNc1c2ccccc2[n+](C)c2ccccc12

>  <Energy>  (43) 
67.25998217811018

>  <Genealogy>  (43) 
CCNCCCNc1c2ccccc2[n+](C)c2ccccc12 (3D coordinates assigned)
CCNCCCNc1c2ccccc2[n+](C)c2ccccc12 (optimized conformer: 67.25998217811018 kcal/mol)

>  <smiles>  (43) 
CCNCCCNc1c2ccccc2[n+](C)c2ccccc12

>  <score_type>  (43) 
oracle

>  <origin>  (43) 
adg

>  <m_score__min__energy>  (43) 
-6.0300000000000002

>  <m_primary>  (43) 
energy

$$$$
43:0
     RDKit          3D

 37 37  0  0  0  0  0  0  0  0999 V2000
   59.2250   34.8670   45.2690 C   0  0  0  0  0  0  0  0  0  0  0  0
   57.8190   34.3770   44.9380 C   0  0  0  0  0  0  0  0  0  0  0  0
   57.2560   33.5070   46.0660 C   0  0  0  0  0  0  0  0  0  0  0  0
   58.0110   32.2130   46.1560 C   0  0  0  0  0  0  0  0  0  0  0  0
   57.6010   31.1480   45.4200 N   0  0  0  0  0  0  0  0  0  0  0  0
   58.2720   29.9700   45.4510 C   0  0  0  0  0  0  0  0  0  0  0  0
   57.7680   28.8060   44.6440 C   0  0  0  0  0  0  0  0  0  0  0  0
   57.0120   29.2570   43.3850 C   0  0  0  0  0  0  0  0  0  0  0  0
   55.5870   29.7280   43.6820 C   0  0  0  0  0  0  0  0  0  0  0  0
   55.1430   29.2090   44.8860 F   0  0  0  0  0  0  0  0  0  0  0  0
   59.4100   29.8450   46.2540 C   0  0  0  0  0  0  0  0  0  0  0  0
   59.8430   30.9500   47.0060 C   0  0  0  0  0  0  0  0  0  0  0  0
   61.0260   30.8630   47.8410 N   0  0  0  0  0  0  0  0  0  0  0  0
   61.0080   30.0670   49.0730 C   0  0  0  0  0  0  0  0  0  0  0  0
   62.2590   31.5680   47.4670 C   0  0  0  0  0  0  0  0  0  0  0  0
   59.1270   32.1150   46.9320 N   0  0  0  0  0  0  0  0  0  0  0  0
   59.3505   34.9107   46.3609 H   0  0  0  0  0  0  0  0  0  0  0  0
   59.9648   34.1737   44.8424 H   0  0  0  0  0  0  0  0  0  0  0  0
   59.3737   35.8699   44.8424 H   0  0  0  0  0  0  0  0  0  0  0  0
   57.1609   35.2464   44.7928 H   0  0  0  0  0  0  0  0  0  0  0  0
   57.8681   33.7705   44.0216 H   0  0  0  0  0  0  0  0  0  0  0  0
   57.3473   34.0469   47.0200 H   0  0  0  0  0  0  0  0  0  0  0  0
   56.1988   33.2890   45.8544 H   0  0  0  0  0  0  0  0  0  0  0  0
   58.6256   28.1879   44.3399 H   0  0  0  0  0  0  0  0  0  0  0  0
   57.0675   28.2370   45.2729 H   0  0  0  0  0  0  0  0  0  0  0  0
   57.5661   30.0864   42.9212 H   0  0  0  0  0  0  0  0  0  0  0  0
   56.9391   28.3876   42.7150 H   0  0  0  0  0  0  0  0  0  0  0  0
   55.5731   30.8266   43.7349 H   0  0  0  0  0  0  0  0  0  0  0  0
   54.9229   29.3771   42.8783 H   0  0  0  0  0  0  0  0  0  0  0  0
   59.9595   28.8930   46.2964 H   0  0  0  0  0  0  0  0  0  0  0  0
   61.0232   30.7388   49.9439 H   0  0  0  0  0  0  0  0  0  0  0  0
   60.0957   29.4529   49.0995 H   0  0  0  0  0  0  0  0  0  0  0  0
   61.8916   29.4123   49.0995 H   0  0  0  0  0  0  0  0  0  0  0  0
   62.7961   31.8751   48.3765 H   0  0  0  0  0  0  0  0  0  0  0  0
   62.8980   30.8988   46.8722 H   0  0  0  0  0  0  0  0  0  0  0  0
   62.0064   32.4582   46.8722 H   0  0  0  0  0  0  0  0  0  0  0  0
   59.4200   32.9510   47.4830 H   0  0  0  0  0  0  0  0  0  0  0  0
  1  2  1  0
  2  3  1  0
  3  4  1  0
  4  5  2  0
  5  6  1  0
  6  7  1  0
  7  8  1  0
  8  9  1  0
  9 10  1  0
  6 11  2  0
 11 12  1  0
 12 13  1  0
 13 14  1  0
 13 15  1  0
 12 16  2  0
 16  4  1  0
  1 17  1  0
  1 18  1  0
  1 19  1  0
  2 20  1  0
  2 21  1  0
  3 22  1  0
  3 23  1  0
  7 24  1  0
  7 25  1  0
  8 26  1  0
  8 27  1  0
  9 28  1  0
  9 29  1  0
 11 30  1  0
 14 31  1  0
 14 32  1  0
 14 33  1  0
 15 34  1  0
 15 35  1  0
 15 36  1  0
 16 37  1  0
M  CHG  1  16   1
M  END
>  <UniqueID>  (44) 
41

>  <SMILES>  (44) 
CCCc1nc(CCCF)cc(N(C)C)[nH+]1

>  <Energy>  (44) 
24.463685896216962

>  <Genealogy>  (44) 
CCCc1nc(CCCF)cc(N(C)C)[nH+]1 (protonated)
CCCc1nc(CCCF)cc(N(C)C)[nH+]1 (3D coordinates assigned)
CCCc1nc(CCCF)cc(N(C)C)[nH+]1 (optimized conformer: 24.463685896216962 kcal/mol)

>  <smiles>  (44) 
CCCc1nc(CCCF)cc(N(C)C)n1

>  <score_type>  (44) 
oracle

>  <origin>  (44) 
adg

>  <m_score__min__energy>  (44) 
-3.7599999999999998

>  <m_primary>  (44) 
energy

$$$$
44:0
     RDKit          3D

 49 51  0  0  0  0  0  0  0  0999 V2000
   63.3690   33.8790   46.4220 C   0  0  0  0  0  0  0  0  0  0  0  0
   63.1670   32.6290   47.2790 C   0  0  0  0  0  0  0  0  0  0  0  0
   62.3980   32.9200   48.5090 N   0  0  0  0  0  0  0  0  0  0  0  0
   63.2120   32.7520   49.7350 C   0  0  0  0  0  0  0  0  0  0  0  0
   64.6930   32.7700   49.3750 C   0  0  0  0  0  0  0  0  0  0  0  0
   61.6480   34.2020   48.4940 C   0  0  0  0  0  0  0  0  0  0  0  0
   60.2560   34.1190   47.8370 C   0  0  0  0  0  0  0  0  0  0  0  0
   60.0380   32.7780   47.2970 N   0  0  0  0  0  0  0  0  0  0  0  0
   59.1970   32.5230   46.1580 C   0  0  0  0  0  0  0  0  0  0  0  0
   58.8740   33.6070   45.3280 C   0  0  0  0  0  0  0  0  0  0  0  0
   58.1780   33.4220   44.1410 C   0  0  0  0  0  0  0  0  0  0  0  0
   57.7980   32.1370   43.7400 C   0  0  0  0  0  0  0  0  0  0  0  0
   57.1200   31.9120   42.5280 O   0  0  0  0  0  0  0  0  0  0  0  0
   57.5760   32.3490   41.2520 C   0  0  0  0  0  0  0  0  0  0  0  0
   58.1000   31.0430   44.5670 C   0  0  0  0  0  0  0  0  0  0  0  0
   57.6490   29.4940   44.0780 S   0  0  0  0  0  0  0  0  0  0  0  0
   58.0590   28.3160   45.1970 C   0  0  0  0  0  0  0  0  0  0  0  0
   57.7680   26.9710   44.9370 C   0  0  0  0  0  0  0  0  0  0  0  0
   58.0910   25.9950   45.8770 C   0  0  0  0  0  0  0  0  0  0  0  0
   58.6990   26.3590   47.0770 C   0  0  0  0  0  0  0  0  0  0  0  0
   58.9870   27.7020   47.3400 C   0  0  0  0  0  0  0  0  0  0  0  0
   58.6770   28.7170   46.4010 C   0  0  0  0  0  0  0  0  0  0  0  0
   58.9830   30.0840   46.7020 C   0  0  0  0  0  0  0  0  0  0  0  0
   59.4490   30.3170   47.8510 O   0  0  0  0  0  0  0  0  0  0  0  0
   58.7720   31.2000   45.8100 C   0  0  0  0  0  0  0  0  0  0  0  0
   63.5102   34.7526   47.0754 H   0  0  0  0  0  0  0  0  0  0  0  0
   64.2577   33.7486   45.7870 H   0  0  0  0  0  0  0  0  0  0  0  0
   62.4844   34.0351   45.7870 H   0  0  0  0  0  0  0  0  0  0  0  0
   62.6221   31.8777   46.6886 H   0  0  0  0  0  0  0  0  0  0  0  0
   64.1583   32.2572   47.5774 H   0  0  0  0  0  0  0  0  0  0  0  0
   62.9954   33.5740   50.4332 H   0  0  0  0  0  0  0  0  0  0  0  0
   62.9638   31.7904   50.2080 H   0  0  0  0  0  0  0  0  0  0  0  0
   65.2942   32.7773   50.2961 H   0  0  0  0  0  0  0  0  0  0  0  0
   64.9377   31.8748   48.7845 H   0  0  0  0  0  0  0  0  0  0  0  0
   64.9159   33.6709   48.7845 H   0  0  0  0  0  0  0  0  0  0  0  0
   61.5180   34.5365   49.5338 H   0  0  0  0  0  0  0  0  0  0  0  0
   62.2394   34.9040   47.8878 H   0  0  0  0  0  0  0  0  0  0  0  0
   59.4842   34.3388   48.5894 H   0  0  0  0  0  0  0  0  0  0  0  0
   60.1982   34.8519   47.0188 H   0  0  0  0  0  0  0  0  0  0  0  0
   60.5540   31.9800   47.7360 H   0  0  0  0  0  0  0  0  0  0  0  0
   59.1778   34.6222   45.6231 H   0  0  0  0  0  0  0  0  0  0  0  0
   57.9245   34.2892   43.5136 H   0  0  0  0  0  0  0  0  0  0  0  0
   58.3645   33.1046   41.3834 H   0  0  0  0  0  0  0  0  0  0  0  0
   57.9793   31.4915   40.6934 H   0  0  0  0  0  0  0  0  0  0  0  0
   56.7365   32.7884   40.6934 H   0  0  0  0  0  0  0  0  0  0  0  0
   57.2847   26.6854   43.9910 H   0  0  0  0  0  0  0  0  0  0  0  0
   57.8663   24.9378   45.6723 H   0  0  0  0  0  0  0  0  0  0  0  0
   58.9530   25.5879   47.8192 H   0  0  0  0  0  0  0  0  0  0  0  0
   59.4629   27.9755   48.2933 H   0  0  0  0  0  0  0  0  0  0  0  0
  1  2  1  0
  2  3  1  0
  3  4  1  0
  4  5  1  0
  3  6  1  0
  6  7  1  0
  7  8  1  0
  8  9  1  0
  9 10  2  0
 10 11  1  0
 11 12  2  0
 12 13  1  0
 13 14  1  0
 12 15  1  0
 15 16  1  0
 16 17  1  0
 17 18  2  0
 18 19  1  0
 19 20  2  0
 20 21  1  0
 21 22  2  0
 22 23  1  0
 23 24  2  0
 23 25  1  0
 25  9  1  0
 25 15  2  0
 22 17  1  0
  1 26  1  0
  1 27  1  0
  1 28  1  0
  2 29  1  0
  2 30  1  0
  4 31  1  0
  4 32  1  0
  5 33  1  0
  5 34  1  0
  5 35  1  0
  6 36  1  0
  6 37  1  0
  7 38  1  0
  7 39  1  0
  8 40  1  0
 10 41  1  0
 11 42  1  0
 14 43  1  0
 14 44  1  0
 14 45  1  0
 18 46  1  0
 19 47  1  0
 20 48  1  0
 21 49  1  0
M  END
>  <UniqueID>  (45) 
42

>  <SMILES>  (45) 
CCN(CC)CCNc1ccc(OC)c2sc3ccccc3c(=O)c12

>  <Energy>  (45) 
72.63671720841707

>  <Genealogy>  (45) 
CCN(CC)CCNc1ccc(OC)c2sc3ccccc3c(=O)c12 (3D coordinates assigned)
CCN(CC)CCNc1ccc(OC)c2sc3ccccc3c(=O)c12 (optimized conformer: 72.63671720841707 kcal/mol)

>  <smiles>  (45) 
CCN(CC)CCNc1ccc(OC)c2sc3ccccc3c(=O)c12

>  <score_type>  (45) 
oracle

>  <origin>  (45) 
adg

>  <m_score__min__energy>  (45) 
-6.71

>  <m_primary>  (45) 
energy

$$$$
45:0
     RDKit          3D

 43 45  0  0  0  0  0  0  0  0999 V2000
   57.8000   27.1540   44.5820 C   0  0  0  0  0  0  0  0  0  0  0  0
   56.8690   27.9700   45.2850 O   0  0  0  0  0  0  0  0  0  0  0  0
   56.5270   29.2570   44.8620 C   0  0  0  0  0  0  0  0  0  0  0  0
   55.3210   29.6290   44.8520 O   0  0  0  0  0  0  0  0  0  0  0  0
   57.6100   30.1910   44.3920 C   0  0  1  0  0  0  0  0  0  0  0  0
   57.0280   31.5950   44.1200 C   0  0  0  0  0  0  0  0  0  0  0  0
   58.1290   32.6590   44.2090 C   0  0  0  0  0  0  0  0  0  0  0  0
   58.7390   32.7430   45.5690 N   0  0  1  0  0  0  0  0  0  0  0  0
   58.1100   33.8370   46.3530 C   0  0  0  0  0  0  0  0  0  0  0  0
   59.1280   34.8550   46.9050 C   0  0  0  0  0  0  0  0  0  0  0  0
   60.4410   34.6150   46.3980 O   0  0  0  0  0  0  0  0  0  0  0  0
   61.5320   34.1420   47.1440 C   0  0  0  0  0  0  0  0  0  0  0  0
   62.6260   33.5930   46.4420 C   0  0  0  0  0  0  0  0  0  0  0  0
   63.7530   33.1040   47.1250 C   0  0  0  0  0  0  0  0  0  0  0  0
   63.7710   33.1670   48.5180 C   0  0  0  0  0  0  0  0  0  0  0  0
   64.7960   32.7290   49.2920 N   0  0  0  0  0  0  0  0  0  0  0  0
   64.5310   32.9160   50.6090 C   0  0  0  0  0  0  0  0  0  0  0  0
   63.0150   33.6300   50.8510 S   0  0  0  0  0  0  0  0  0  0  0  0
   62.6960   33.7000   49.2060 C   0  0  0  0  0  0  0  0  0  0  0  0
   61.5660   34.1900   48.5570 C   0  0  0  0  0  0  0  0  0  0  0  0
   58.6990   31.4530   46.3170 C   0  0  0  0  0  0  0  0  0  0  0  0
   58.7950   30.2340   45.3880 C   0  0  0  0  0  0  0  0  0  0  0  0
   58.4249   26.6063   45.3028 H   0  0  0  0  0  0  0  0  0  0  0  0
   57.2552   26.4372   43.9500 H   0  0  0  0  0  0  0  0  0  0  0  0
   58.4392   27.7880   43.9500 H   0  0  0  0  0  0  0  0  0  0  0  0
   58.0130   29.8057   43.4438 H   0  0  0  0  0  0  0  0  0  0  0  0
   56.2504   31.8154   44.8662 H   0  0  0  0  0  0  0  0  0  0  0  0
   56.5977   31.6119   43.1078 H   0  0  0  0  0  0  0  0  0  0  0  0
   57.6942   33.6375   43.9571 H   0  0  0  0  0  0  0  0  0  0  0  0
   58.9245   32.3744   43.5046 H   0  0  0  0  0  0  0  0  0  0  0  0
   59.7460   32.9940   45.4270 H   0  0  0  0  0  0  0  0  0  0  0  0
   57.4012   34.3699   45.7022 H   0  0  0  0  0  0  0  0  0  0  0  0
   57.6115   33.3735   47.2171 H   0  0  0  0  0  0  0  0  0  0  0  0
   58.8130   35.8680   46.6142 H   0  0  0  0  0  0  0  0  0  0  0  0
   59.1583   34.7513   47.9997 H   0  0  0  0  0  0  0  0  0  0  0  0
   62.5964   33.5470   45.3434 H   0  0  0  0  0  0  0  0  0  0  0  0
   64.6039   32.6800   46.5717 H   0  0  0  0  0  0  0  0  0  0  0  0
   65.2180   32.6374   51.4217 H   0  0  0  0  0  0  0  0  0  0  0  0
   60.7218   34.6036   49.1282 H   0  0  0  0  0  0  0  0  0  0  0  0
   57.7530   31.3978   46.8755 H   0  0  0  0  0  0  0  0  0  0  0  0
   59.5675   31.4296   46.9916 H   0  0  0  0  0  0  0  0  0  0  0  0
   58.7849   29.3179   45.9968 H   0  0  0  0  0  0  0  0  0  0  0  0
   59.7296   30.3086   44.8127 H   0  0  0  0  0  0  0  0  0  0  0  0
  1  2  1  0
  2  3  1  0
  3  4  2  0
  3  5  1  0
  5  6  1  0
  6  7  1  0
  7  8  1  0
  8  9  1  0
  9 10  1  0
 10 11  1  0
 11 12  1  0
 12 13  2  0
 13 14  1  0
 14 15  2  0
 15 16  1  0
 16 17  2  0
 17 18  1  0
 18 19  1  0
 19 20  2  0
  8 21  1  0
 21 22  1  0
 22  5  1  0
 20 12  1  0
 19 15  1  0
  1 23  1  0
  1 24  1  0
  1 25  1  0
  5 26  1  6
  6 27  1  0
  6 28  1  0
  7 29  1  0
  7 30  1  0
  8 31  1  6
  9 32  1  0
  9 33  1  0
 10 34  1  0
 10 35  1  0
 13 36  1  0
 14 37  1  0
 17 38  1  0
 20 39  1  0
 21 40  1  0
 21 41  1  0
 22 42  1  0
 22 43  1  0
M  CHG  1   8   1
M  END
>  <UniqueID>  (46) 
43

>  <SMILES>  (46) 
COC(=O)C1CC[NH+](CCOc2ccc3ncsc3c2)CC1

>  <Energy>  (46) 
84.54235452004664

>  <Genealogy>  (46) 
COC(=O)C1CC[NH+](CCOc2ccc3ncsc3c2)CC1 (protonated)
COC(=O)C1CC[NH+](CCOc2ccc3ncsc3c2)CC1 (3D coordinates assigned)
COC(=O)C1CC[NH+](CCOc2ccc3ncsc3c2)CC1 (nonaromatic ring conformer: 84.54235452004664 kcal/mol)

>  <smiles>  (46) 
COC(=O)C1CCN(CCOc2ccc3ncsc3c2)CC1

>  <score_type>  (46) 
oracle

>  <origin>  (46) 
adg

>  <m_score__min__energy>  (46) 
-5.9299999999999997

>  <m_primary>  (46) 
energy

$$$$
46:0
     RDKit          3D

143145  0  0  0  0  0  0  0  0999 V2000
   56.1140   30.1070   44.1380 C   0  0  0  0  0  0  0  0  0  0  0  0
   57.3200   30.7840   44.7750 C   0  0  0  0  0  0  0  0  0  0  0  0
   57.3110   32.2210   44.4200 N   0  0  0  0  0  0  0  0  0  0  0  0
   58.1550   32.5360   43.2420 C   0  0  0  0  0  0  0  0  0  0  0  0
   57.5790   32.0320   41.9090 C   0  0  0  0  0  0  0  0  0  0  0  0
   57.4950   33.1190   45.5850 C   0  0  0  0  0  0  0  0  0  0  0  0
   58.9590   33.1420   46.0590 C   0  0  0  0  0  0  0  0  0  0  0  0
   59.2360   34.3830   46.9510 C   0  0  0  0  0  0  0  0  0  0  0  0
   60.0630   34.1360   48.1650 N   0  0  0  0  0  0  0  0  0  0  0  0
   59.2470   33.4740   49.2290 C   0  0  0  0  0  0  0  0  0  0  0  0
   59.3570   31.9290   49.2210 C   0  0  0  0  0  0  0  0  0  0  0  0
   60.1550   31.3860   50.3460 N   0  0  0  0  0  0  0  0  0  0  0  0
   59.2790   31.0890   51.4970 C   0  0  0  0  0  0  0  0  0  0  0  0
   60.8780   30.1530   49.9420 C   0  0  0  0  0  0  0  0  0  0  0  0
   60.3430   28.8910   50.6650 C   0  0  0  0  0  0  0  0  0  0  0  0
   60.4100   27.6080   49.9050 N   0  0  0  0  0  0  0  0  0  0  0  0
   60.7490   27.7770   48.4740 C   0  0  0  0  0  0  0  0  0  0  0  0
   59.6500   27.2390   47.5450 C   0  0  0  0  0  0  0  0  0  0  0  0
   59.3110   28.2490   46.5090 N   0  0  0  0  0  0  0  0  0  0  0  0
   59.6680   29.6060   46.9630 C   0  0  0  0  0  0  0  0  0  0  0  0
   59.9750   27.9620   45.2210 C   0  0  0  0  0  0  0  0  0  0  0  0
   59.0010   28.1540   44.0470 C   0  0  0  0  0  0  0  0  0  0  0  0
   58.1040   26.9290   43.8480 C   0  0  0  0  0  0  0  0  0  0  0  0
   58.1010   26.0910   45.0560 N   0  0  0  0  0  0  0  0  0  0  0  0
   57.0240   25.0970   45.0100 C   0  0  0  0  0  0  0  0  0  0  0  0
   57.5700   23.7420   44.6500 C   0  0  0  0  0  0  0  0  0  0  0  0
   58.6970   23.1680   45.2050 C   0  0  0  0  0  0  0  0  0  0  0  0
   58.8240   21.9200   44.6270 C   0  0  0  0  0  0  0  0  0  0  0  0
   57.7680   21.7770   43.7490 C   0  0  0  0  0  0  0  0  0  0  0  0
   57.0040   22.8870   43.7680 N   0  0  0  0  0  0  0  0  0  0  0  0
   55.8020   23.1140   42.9700 C   0  0  0  0  0  0  0  0  0  0  0  0
   61.2710   26.6100   50.5840 C   0  0  0  0  0  0  0  0  0  0  0  0
   61.0550   26.5370   52.1100 C   0  0  0  0  0  0  0  0  0  0  0  0
   62.2060   25.9440   52.8300 N   0  0  0  0  0  0  0  0  0  0  0  0
   63.2090   25.4990   51.8420 C   0  0  0  0  0  0  0  0  0  0  0  0
   62.7920   26.9330   53.7630 C   0  0  0  0  0  0  0  0  0  0  0  0
   62.0850   28.3010   53.6680 C   0  0  0  0  0  0  0  0  0  0  0  0
   62.9940   29.3640   53.1860 N   0  0  0  0  0  0  0  0  0  0  0  0
   62.2720   30.6460   53.0520 C   0  0  0  0  0  0  0  0  0  0  0  0
   63.5830   28.9700   51.8820 C   0  0  0  0  0  0  0  0  0  0  0  0
   64.8340   29.8070   51.5490 C   0  0  0  0  0  0  0  0  0  0  0  0
   66.1020   29.1230   51.9020 N   0  0  0  0  0  0  0  0  0  0  0  0
   65.9880   27.6730   51.6130 C   0  0  0  0  0  0  0  0  0  0  0  0
   67.1450   27.1530   50.7570 C   0  0  0  0  0  0  0  0  0  0  0  0
   67.3140   29.7580   51.3160 C   0  0  0  0  0  0  0  0  0  0  0  0
   67.1290   31.2150   50.8710 C   0  0  0  0  0  0  0  0  0  0  0  0
   61.3300   33.3860   47.8770 C   0  0  1  0  0  0  0  0  0  0  0  0
   62.2100   33.9660   46.7310 C   0  0  0  0  0  0  0  0  0  0  0  0
   63.4730   33.0900   46.4610 C   0  0  0  0  0  0  0  0  0  0  0  0
   63.7610   32.0180   47.5420 C   0  0  0  0  0  0  0  0  0  0  0  0
   63.4510   32.5630   48.9060 C   0  0  0  0  0  0  0  0  0  0  0  0
   64.3650   32.4720   49.9110 N   0  0  0  0  0  0  0  0  0  0  0  0
   64.1990   33.1390   51.0820 C   0  0  0  0  0  0  0  0  0  0  0  0
   63.1190   34.0090   51.2400 C   0  0  0  0  0  0  0  0  0  0  0  0
   62.1730   34.1210   50.2170 C   0  0  0  0  0  0  0  0  0  0  0  0
   62.2720   33.3090   49.0760 C   0  0  0  0  0  0  0  0  0  0  0  0
   55.4453   29.7316   44.9266 H   0  0  0  0  0  0  0  0  0  0  0  0
   55.5731   30.8333   43.5136 H   0  0  0  0  0  0  0  0  0  0  0  0
   56.4524   29.2670   43.5136 H   0  0  0  0  0  0  0  0  0  0  0  0
   57.2695   30.6742   45.8683 H   0  0  0  0  0  0  0  0  0  0  0  0
   58.2453   30.3166   44.4069 H   0  0  0  0  0  0  0  0  0  0  0  0
   58.2679   33.6284   43.1793 H   0  0  0  0  0  0  0  0  0  0  0  0
   59.1148   32.0194   43.3902 H   0  0  0  0  0  0  0  0  0  0  0  0
   56.7647   31.3195   42.1074 H   0  0  0  0  0  0  0  0  0  0  0  0
   57.1886   32.8838   41.3328 H   0  0  0  0  0  0  0  0  0  0  0  0
   58.3715   31.5320   41.3328 H   0  0  0  0  0  0  0  0  0  0  0  0
   57.1963   34.1386   45.3001 H   0  0  0  0  0  0  0  0  0  0  0  0
   56.8728   32.7426   46.4103 H   0  0  0  0  0  0  0  0  0  0  0  0
   59.1639   32.2297   46.6384 H   0  0  0  0  0  0  0  0  0  0  0  0
   59.6125   33.1925   45.1756 H   0  0  0  0  0  0  0  0  0  0  0  0
   59.7553   35.1322   46.3354 H   0  0  0  0  0  0  0  0  0  0  0  0
   58.2532   34.7114   47.3202 H   0  0  0  0  0  0  0  0  0  0  0  0
   59.5872   33.8421   50.2082 H   0  0  0  0  0  0  0  0  0  0  0  0
   58.1942   33.7243   49.0318 H   0  0  0  0  0  0  0  0  0  0  0  0
   58.3425   31.5077   49.2788 H   0  0  0  0  0  0  0  0  0  0  0  0
   59.8744   31.6468   48.2922 H   0  0  0  0  0  0  0  0  0  0  0  0
   59.8271   31.2748   52.4325 H   0  0  0  0  0  0  0  0  0  0  0  0
   58.3903   31.7361   51.4580 H   0  0  0  0  0  0  0  0  0  0  0  0
   58.9671   30.0349   51.4580 H   0  0  0  0  0  0  0  0  0  0  0  0
   60.7615   30.0146   48.8570 H   0  0  0  0  0  0  0  0  0  0  0  0
   61.9347   30.2770   50.2213 H   0  0  0  0  0  0  0  0  0  0  0  0
   60.9263   28.7628   51.5888 H   0  0  0  0  0  0  0  0  0  0  0  0
   59.2709   29.0793   50.8233 H   0  0  0  0  0  0  0  0  0  0  0  0
   60.8920   28.8482   48.2688 H   0  0  0  0  0  0  0  0  0  0  0  0
   61.6663   27.2031   48.2763 H   0  0  0  0  0  0  0  0  0  0  0  0
   60.0066   26.3214   47.0543 H   0  0  0  0  0  0  0  0  0  0  0  0
   58.7514   27.0224   48.1414 H   0  0  0  0  0  0  0  0  0  0  0  0
   59.6755   29.6346   48.0626 H   0  0  0  0  0  0  0  0  0  0  0  0
   60.6660   29.8693   46.5825 H   0  0  0  0  0  0  0  0  0  0  0  0
   58.9288   30.3263   46.5825 H   0  0  0  0  0  0  0  0  0  0  0  0
   60.8287   28.6443   45.0960 H   0  0  0  0  0  0  0  0  0  0  0  0
   60.3166   26.9164   45.2269 H   0  0  0  0  0  0  0  0  0  0  0  0
   58.3676   29.0303   44.2491 H   0  0  0  0  0  0  0  0  0  0  0  0
   59.5928   28.2976   43.1309 H   0  0  0  0  0  0  0  0  0  0  0  0
   57.0774   27.2627   43.6364 H   0  0  0  0  0  0  0  0  0  0  0  0
   58.4918   26.3373   43.0057 H   0  0  0  0  0  0  0  0  0  0  0  0
   57.9200   26.7150   45.8770 H   0  0  0  0  0  0  0  0  0  0  0  0
   56.5406   25.0417   45.9965 H   0  0  0  0  0  0  0  0  0  0  0  0
   56.2937   25.4000   44.2452 H   0  0  0  0  0  0  0  0  0  0  0  0
   59.3618   23.6160   45.9582 H   0  0  0  0  0  0  0  0  0  0  0  0
   59.6145   21.1819   44.8276 H   0  0  0  0  0  0  0  0  0  0  0  0
   57.5786   20.8897   43.1270 H   0  0  0  0  0  0  0  0  0  0  0  0
   54.9434   23.2761   43.6383 H   0  0  0  0  0  0  0  0  0  0  0  0
   55.9453   24.0010   42.3354 H   0  0  0  0  0  0  0  0  0  0  0  0
   55.6120   22.2359   42.3354 H   0  0  0  0  0  0  0  0  0  0  0  0
   61.0579   25.6195   50.1558 H   0  0  0  0  0  0  0  0  0  0  0  0
   62.3131   26.9230   50.4225 H   0  0  0  0  0  0  0  0  0  0  0  0
   60.8913   27.5562   52.4900 H   0  0  0  0  0  0  0  0  0  0  0  0
   60.1853   25.8875   52.2884 H   0  0  0  0  0  0  0  0  0  0  0  0
   64.0924   25.1071   52.3674 H   0  0  0  0  0  0  0  0  0  0  0  0
   62.7767   24.7082   51.2113 H   0  0  0  0  0  0  0  0  0  0  0  0
   63.5052   26.3502   51.2113 H   0  0  0  0  0  0  0  0  0  0  0  0
   62.6955   26.5532   54.7908 H   0  0  0  0  0  0  0  0  0  0  0  0
   63.8483   27.0750   53.4908 H   0  0  0  0  0  0  0  0  0  0  0  0
   61.2383   28.2152   52.9711 H   0  0  0  0  0  0  0  0  0  0  0  0
   61.7446   28.5776   54.6768 H   0  0  0  0  0  0  0  0  0  0  0  0
   62.0467   31.0461   54.0516 H   0  0  0  0  0  0  0  0  0  0  0  0
   62.8985   31.3639   52.5023 H   0  0  0  0  0  0  0  0  0  0  0  0
   61.3333   30.4825   52.5023 H   0  0  0  0  0  0  0  0  0  0  0  0
   63.8650   27.9076   51.9240 H   0  0  0  0  0  0  0  0  0  0  0  0
   62.8321   29.1462   51.0977 H   0  0  0  0  0  0  0  0  0  0  0  0
   64.8379   30.0164   50.4691 H   0  0  0  0  0  0  0  0  0  0  0  0
   64.7809   30.7288   52.1468 H   0  0  0  0  0  0  0  0  0  0  0  0
   65.9792   27.1231   52.5657 H   0  0  0  0  0  0  0  0  0  0  0  0
   65.0576   27.5172   51.0473 H   0  0  0  0  0  0  0  0  0  0  0  0
   67.9514   26.7906   51.4116 H   0  0  0  0  0  0  0  0  0  0  0  0
   66.7895   26.3281   50.1221 H   0  0  0  0  0  0  0  0  0  0  0  0
   67.5258   27.9665   50.1221 H   0  0  0  0  0  0  0  0  0  0  0  0
   68.1133   29.7302   52.0712 H   0  0  0  0  0  0  0  0  0  0  0  0
   67.5533   29.1859   50.4074 H   0  0  0  0  0  0  0  0  0  0  0  0
   67.0469   31.8614   51.7572 H   0  0  0  0  0  0  0  0  0  0  0  0
   67.9947   31.5271   50.2684 H   0  0  0  0  0  0  0  0  0  0  0  0
   66.2127   31.3008   50.2684 H   0  0  0  0  0  0  0  0  0  0  0  0
   60.9266   32.4041   47.5888 H   0  0  0  0  0  0  0  0  0  0  0  0
   61.6084   34.0142   45.8114 H   0  0  0  0  0  0  0  0  0  0  0  0
   62.5502   34.9661   47.0378 H   0  0  0  0  0  0  0  0  0  0  0  0
   63.3345   32.5768   45.4980 H   0  0  0  0  0  0  0  0  0  0  0  0
   64.3333   33.7755   46.4665 H   0  0  0  0  0  0  0  0  0  0  0  0
   63.1349   31.1335   47.3529 H   0  0  0  0  0  0  0  0  0  0  0  0
   64.8246   31.7405   47.4989 H   0  0  0  0  0  0  0  0  0  0  0  0
   64.9145   32.9940   51.9048 H   0  0  0  0  0  0  0  0  0  0  0  0
   63.0133   34.6010   52.1610 H   0  0  0  0  0  0  0  0  0  0  0  0
   61.3504   34.8459   50.3060 H   0  0  0  0  0  0  0  0  0  0  0  0
  1  2  1  0
  2  3  1  0
  3  4  1  0
  4  5  1  0
  3  6  1  0
  6  7  1  0
  7  8  1  0
  8  9  1  0
  9 10  1  0
 10 11  1  0
 11 12  1  0
 12 13  1  0
 12 14  1  0
 14 15  1  0
 15 16  1  0
 16 17  1  0
 17 18  1  0
 18 19  1  0
 19 20  1  0
 19 21  1  0
 21 22  1  0
 22 23  1  0
 23 24  1  0
 24 25  1  0
 25 26  1  0
 26 27  2  0
 27 28  1  0
 28 29  2  0
 29 30  1  0
 30 31  1  0
 16 32  1  0
 32 33  1  0
 33 34  1  0
 34 35  1  0
 34 36  1  0
 36 37  1  0
 37 38  1  0
 38 39  1  0
 38 40  1  0
 40 41  1  0
 41 42  1  0
 42 43  1  0
 43 44  1  0
 42 45  1  0
 45 46  1  0
  9 47  1  0
 47 48  1  0
 48 49  1  0
 49 50  1  0
 50 51  1  0
 51 52  2  0
 52 53  1  0
 53 54  2  0
 54 55  1  0
 55 56  2  0
 30 26  1  0
 56 47  1  0
 56 51  1  0
  1 57  1  0
  1 58  1  0
  1 59  1  0
  2 60  1  0
  2 61  1  0
  4 62  1  0
  4 63  1  0
  5 64  1  0
  5 65  1  0
  5 66  1  0
  6 67  1  0
  6 68  1  0
  7 69  1  0
  7 70  1  0
  8 71  1  0
  8 72  1  0
 10 73  1  0
 10 74  1  0
 11 75  1  0
 11 76  1  0
 13 77  1  0
 13 78  1  0
 13 79  1  0
 14 80  1  0
 14 81  1  0
 15 82  1  0
 15 83  1  0
 17 84  1  0
 17 85  1  0
 18 86  1  0
 18 87  1  0
 20 88  1  0
 20 89  1  0
 20 90  1  0
 21 91  1  0
 21 92  1  0
 22 93  1  0
 22 94  1  0
 23 95  1  0
 23 96  1  0
 24 97  1  0
 25 98  1  0
 25 99  1  0
 27100  1  0
 28101  1  0
 29102  1  0
 31103  1  0
 31104  1  0
 31105  1  0
 32106  1  0
 32107  1  0
 33108  1  0
 33109  1  0
 35110  1  0
 35111  1  0
 35112  1  0
 36113  1  0
 36114  1  0
 37115  1  0
 37116  1  0
 39117  1  0
 39118  1  0
 39119  1  0
 40120  1  0
 40121  1  0
 41122  1  0
 41123  1  0
 43124  1  0
 43125  1  0
 44126  1  0
 44127  1  0
 44128  1  0
 45129  1  0
 45130  1  0
 46131  1  0
 46132  1  0
 46133  1  0
 47134  1  6
 48135  1  0
 48136  1  0
 49137  1  0
 49138  1  0
 50139  1  0
 50140  1  0
 53141  1  0
 54142  1  0
 55143  1  0
M  END
>  <UniqueID>  (47) 
44

>  <SMILES>  (47) 
CCN(CC)CCCN(CCN(C)CCN(CCN(C)CCCNCc1cccn1C)CCN(C)CCN(C)CCN(CC)CC)[C@H]1CCCc2ncccc21

>  <Energy>  (47) 
191.70903261808485

>  <Genealogy>  (47) 
CCN(CC)CCCN(CCN(C)CCN(CCN(C)CCCNCc1cccn1C)CCN(C)CCN(C)CCN(CC)CC)[C@H]1CCCc2ncccc21 (chirality)
CCN(CC)CCCN(CCN(C)CCN(CCN(C)CCCNCc1cccn1C)CCN(C)CCN(C)CCN(CC)CC)[C@H]1CCCc2ncccc21 (3D coordinates assigned)
CCN(CC)CCCN(CCN(C)CCN(CCN(C)CCCNCc1cccn1C)CCN(C)CCN(C)CCN(CC)CC)[C@H]1CCCc2ncccc21 (nonaromatic ring conformer: 191.70903261808485 kcal/mol)

>  <smiles>  (47) 
CCN(CC)CCCN(CCN(C)CCN(CCN(C)CCCNCc1cccn1C)CCN(C)CCN(C)CCN(CC)CC)C1CCCc2ncccc21

>  <score_type>  (47) 
oracle

>  <origin>  (47) 
adg

>  <m_score__min__energy>  (47) 
-7.3799999999999999

>  <m_primary>  (47) 
energy

$$$$
47:0
     RDKit          3D

 45 46  0  0  0  0  0  0  0  0999 V2000
   60.7655   29.1514   47.4223 H   0  0  0  0  0  0  0  0  0  0  0  0
   60.0410   29.0660   46.5990 C   0  0  0  0  0  0  0  0  0  0  0  0
   59.7230   27.8130   46.0850 C   0  0  0  0  0  0  0  0  0  0  0  0
   60.5030   26.3780   46.7290 Cl  0  0  0  0  0  0  0  0  0  0  0  0
   58.7860   27.7000   45.0600 C   0  0  0  0  0  0  0  0  0  0  0  0
   58.5268   26.7063   44.6658 H   0  0  0  0  0  0  0  0  0  0  0  0
   58.1700   28.8420   44.5260 C   0  0  0  0  0  0  0  0  0  0  0  0
   58.5080   30.1450   45.0120 C   0  0  0  0  0  0  0  0  0  0  0  0
   59.4460   30.2160   46.0760 C   0  0  0  0  0  0  0  0  0  0  0  0
   59.7094   31.1975   46.4970 H   0  0  0  0  0  0  0  0  0  0  0  0
   57.8520   31.2720   44.4060 C   0  0  0  0  0  0  0  0  0  0  0  0
   58.0670   32.5380   44.6660 N   0  0  0  0  0  0  0  0  0  0  0  0
   57.5020   33.4710   45.6330 C   0  0  0  0  0  0  0  0  0  0  0  0
   57.2436   32.9290   46.5547 H   0  0  0  0  0  0  0  0  0  0  0  0
   56.5987   33.9315   45.2065 H   0  0  0  0  0  0  0  0  0  0  0  0
   58.5230   34.5690   45.9580 C   0  0  0  0  0  0  0  0  0  0  0  0
   58.4607   34.7922   47.0333 H   0  0  0  0  0  0  0  0  0  0  0  0
   58.2691   35.4361   45.3305 H   0  0  0  0  0  0  0  0  0  0  0  0
   59.9760   34.1890   45.6260 C   0  0  0  0  0  0  0  0  0  0  0  0
   60.5657   35.1126   45.5297 H   0  0  0  0  0  0  0  0  0  0  0  0
   59.9572   33.6114   44.6900 H   0  0  0  0  0  0  0  0  0  0  0  0
   60.6300   33.3010   46.6980 C   0  0  0  0  0  0  0  0  0  0  0  0
   61.0489   32.4017   46.2229 H   0  0  0  0  0  0  0  0  0  0  0  0
   59.8734   33.0065   47.4401 H   0  0  0  0  0  0  0  0  0  0  0  0
   61.7110   34.0510   47.3700 N   0  0  0  0  0  0  0  0  0  0  0  0
   63.0440   33.5190   47.0090 C   0  0  0  0  0  0  0  0  0  0  0  0
   63.8229   34.1390   47.4768 H   0  0  0  0  0  0  0  0  0  0  0  0
   63.1581   33.5406   45.9152 H   0  0  0  0  0  0  0  0  0  0  0  0
   63.1800   32.0820   47.4990 C   0  0  0  0  0  0  0  0  0  0  0  0
   63.1813   32.0682   48.5989 H   0  0  0  0  0  0  0  0  0  0  0  0
   62.3343   31.4858   47.1258 H   0  0  0  0  0  0  0  0  0  0  0  0
   64.1226   31.6550   47.1258 H   0  0  0  0  0  0  0  0  0  0  0  0
   61.5270   34.0780   48.8370 C   0  0  0  0  0  0  0  0  0  0  0  0
   61.9765   33.1747   49.2753 H   0  0  0  0  0  0  0  0  0  0  0  0
   62.0147   34.9774   49.2411 H   0  0  0  0  0  0  0  0  0  0  0  0
   60.0410   34.1210   49.1870 C   0  0  0  0  0  0  0  0  0  0  0  0
   59.9218   34.1244   50.2805 H   0  0  0  0  0  0  0  0  0  0  0  0
   59.5914   35.0325   48.7663 H   0  0  0  0  0  0  0  0  0  0  0  0
   59.5395   33.2370   48.7663 H   0  0  0  0  0  0  0  0  0  0  0  0
   56.8890   31.0350   43.4150 C   0  0  0  0  0  0  0  0  0  0  0  0
   56.3520   31.8839   42.9668 H   0  0  0  0  0  0  0  0  0  0  0  0
   56.6040   29.7460   42.9920 C   0  0  0  0  0  0  0  0  0  0  0  0
   55.8574   29.5836   42.2007 H   0  0  0  0  0  0  0  0  0  0  0  0
   57.2370   28.6870   43.5450 N   0  0  0  0  0  0  0  0  0  0  0  0
   56.9880   27.7320   43.2000 H   0  0  0  0  0  0  0  0  0  0  0  0
  1  2  1  0
  2  3  2  0
  3  4  1  0
  3  5  1  0
  5  6  1  0
  5  7  2  0
  7  8  1  0
  8  9  2  0
  9 10  1  0
  8 11  1  0
 11 12  2  0
 12 13  1  0
 13 14  1  0
 13 15  1  0
 13 16  1  0
 16 17  1  0
 16 18  1  0
 16 19  1  0
 19 20  1  0
 19 21  1  0
 19 22  1  0
 22 23  1  0
 22 24  1  0
 22 25  1  0
 25 26  1  0
 26 27  1  0
 26 28  1  0
 26 29  1  0
 29 30  1  0
 29 31  1  0
 29 32  1  0
 25 33  1  0
 33 34  1  0
 33 35  1  0
 33 36  1  0
 36 37  1  0
 36 38  1  0
 36 39  1  0
 11 40  1  0
 40 41  1  0
 40 42  2  0
 42 43  1  0
 42 44  1  0
 44 45  1  0
  9  2  1  0
 44  7  1  0
M  END
>  <UniqueID>  (48) 
45

>  <SMILES>  (48) 
CCN(CC)CCCC/N=c1/cc[nH]c2cc(Cl)ccc12

>  <Energy>  (48) 
56.85903845510875

>  <Genealogy>  (48) 
CCN(CC)CCCC/N=c1/cc[nH]c2cc(Cl)ccc12 (cis-trans isomerization)
CCN(CC)CCCC/N=c1/cc[nH]c2cc(Cl)ccc12 (3D coordinates assigned)
CCN(CC)CCCC/N=c1/cc[nH]c2cc(Cl)ccc12 (optimized conformer: 56.85903845510875 kcal/mol)

>  <smiles>  (48) 
CCN(CC)CCCCN=c1cc[nH]c2cc(Cl)ccc12

>  <score_type>  (48) 
oracle

>  <origin>  (48) 
adg

>  <m_score__min__energy>  (48) 
-6.8099999999999996

>  <m_primary>  (48) 
energy

$$$$
48:0
     RDKit          3D

 48 51  0  0  1  0  0  0  0  0999 V2000
   55.4030   18.9710   45.4260 C   0  0  0  0  0  0  0  0  0  0  0  0
   54.8790   20.2620   45.3260 O   0  0  0  0  0  0  0  0  0  0  0  0
   55.5840   21.4210   45.1030 C   0  0  0  0  0  0  0  0  0  0  0  0
   56.6310   21.5400   44.2140 C   0  0  0  0  0  0  0  0  0  0  0  0
   57.3100   22.7450   44.0310 C   0  0  0  0  0  0  0  0  0  0  0  0
   56.9320   23.8560   44.7530 C   0  0  0  0  0  0  0  0  0  0  0  0
   55.8880   23.7320   45.6380 C   0  0  0  0  0  0  0  0  0  0  0  0
   55.2110   22.5420   45.8250 C   0  0  0  0  0  0  0  0  0  0  0  0
   55.5120   24.8380   46.3570 O   0  0  0  0  0  0  0  0  0  0  0  0
   56.1770   26.0390   46.1850 C   0  0  0  0  0  0  0  0  0  0  0  0
   57.1820   26.2260   45.3560 C   0  0  0  0  0  0  0  0  0  0  0  0
   57.8640   27.5160   45.2010 C   0  0  0  0  0  0  0  0  0  0  0  0
   59.2140   27.6230   44.9500 C   0  0  0  0  0  0  0  0  0  0  0  0
   59.8440   28.8530   44.8050 C   0  0  0  0  0  0  0  0  0  0  0  0
   61.2290   28.9540   44.5470 N   0  0  0  0  0  0  0  0  0  0  0  0
   59.1220   29.9840   44.9110 N   0  0  0  0  0  0  0  0  0  0  0  0
   57.8160   29.8550   45.1560 C   0  0  0  0  0  0  0  0  0  0  0  0
   57.1280   30.9590   45.2560 N   0  0  0  0  0  0  0  0  0  0  0  0
   57.7960   32.1820   45.5970 C   0  0  0  0  0  0  0  0  0  0  0  0
   58.2640   32.4130   46.8880 C   0  0  0  0  0  0  0  0  0  0  0  0
   58.8980   33.6130   47.1410 C   0  0  0  0  0  0  0  0  0  0  0  0
   59.0720   34.5730   46.1500 C   0  0  0  0  0  0  0  0  0  0  0  0
   58.6000   34.3260   44.8730 C   0  0  0  0  0  0  0  0  0  0  0  0
   57.9600   33.1280   44.5880 C   0  0  0  0  0  0  0  0  0  0  0  0
   57.4880   32.8860   43.3030 O   0  0  0  0  0  0  0  0  0  0  0  0
   58.1010   32.0130   42.3990 C   0  0  0  0  0  0  0  0  0  0  0  0
   57.1820   28.6780   45.2990 N   0  0  0  0  0  0  0  0  0  0  0  0
   57.6840   25.1070   44.5200 C   0  0  0  0  0  0  0  0  0  0  0  0
   55.5126   18.7009   46.4867 H   0  0  0  0  0  0  0  0  0  0  0  0
   54.7223   18.2599   44.9350 H   0  0  0  0  0  0  0  0  0  0  0  0
   56.3867   18.9355   44.9350 H   0  0  0  0  0  0  0  0  0  0  0  0
   56.9400   20.6592   43.6320 H   0  0  0  0  0  0  0  0  0  0  0  0
   58.1423   22.8077   43.3145 H   0  0  0  0  0  0  0  0  0  0  0  0
   54.3801   22.4856   46.5437 H   0  0  0  0  0  0  0  0  0  0  0  0
   55.8419   26.8988   46.7837 H   0  0  0  0  0  0  0  0  0  0  0  0
   59.8131   26.7047   44.8614 H   0  0  0  0  0  0  0  0  0  0  0  0
   61.8180   29.4610   45.2160 H   0  0  0  0  0  0  0  0  0  0  0  0
   61.6630   28.5210   43.6900 H   0  0  0  0  0  0  0  0  0  0  0  0
   59.6170   30.8990   44.7990 H   0  0  0  0  0  0  0  0  0  0  0  0
   58.1326   31.6627   47.6816 H   0  0  0  0  0  0  0  0  0  0  0  0
   59.2758   33.8153   48.1541 H   0  0  0  0  0  0  0  0  0  0  0  0
   59.5807   35.5209   46.3795 H   0  0  0  0  0  0  0  0  0  0  0  0
   58.7322   35.0799   44.0830 H   0  0  0  0  0  0  0  0  0  0  0  0
   58.6471   31.2353   42.9531 H   0  0  0  0  0  0  0  0  0  0  0  0
   57.3341   31.5423   41.7663 H   0  0  0  0  0  0  0  0  0  0  0  0
   58.8041   32.5746   41.7663 H   0  0  0  0  0  0  0  0  0  0  0  0
   57.5884   25.3858   43.4602 H   0  0  0  0  0  0  0  0  0  0  0  0
   58.7341   24.9259   44.7928 H   0  0  0  0  0  0  0  0  0  0  0  0
  1  2  1  0
  2  3  1  0
  3  4  2  0
  4  5  1  0
  5  6  2  0
  6  7  1  0
  7  8  2  0
  7  9  1  0
  9 10  1  0
 10 11  2  0
 11 12  1  0
 12 13  1  0
 13 14  2  0
 14 15  1  0
 14 16  1  0
 16 17  1  0
 17 18  2  0
 18 19  1  0
 19 20  2  0
 20 21  1  0
 21 22  2  0
 22 23  1  0
 23 24  2  0
 24 25  1  0
 25 26  1  0
 17 27  1  0
 11 28  1  0
  8  3  1  0
 27 12  2  0
 28  6  1  0
 24 19  1  0
  1 29  1  0
  1 30  1  0
  1 31  1  0
  4 32  1  0
  5 33  1  0
  8 34  1  0
 10 35  1  0
 13 36  1  0
 15 37  1  0
 15 38  1  0
 16 39  1  0
 20 40  1  0
 21 41  1  0
 22 42  1  0
 23 43  1  0
 26 44  1  0
 26 45  1  0
 26 46  1  0
 28 47  1  0
 28 48  1  0
M  END
>  <smiles>  (49) 
COc1ccc2c(c1)OC=C(c1cc(N)[nH]c(=Nc3ccccc3OC)n1)C2

>  <score_type>  (49) 
oracle

>  <origin>  (49) 
adg

>  <m_score__min__energy>  (49) 
-8.4399999999999995

>  <m_primary>  (49) 
energy

$$$$
