0:0
     RDKit          3D

 54 55  0  0  0  0  0  0  0  0999 V2000
   63.4230   32.0900   47.1340 C   0  0  0  0  0  0  0  0  0  0  0  0
   63.3670   33.2260   48.1550 C   0  0  0  0  0  0  0  0  0  0  0  0
   62.0920   34.0780   48.0200 C   0  0  0  0  0  0  0  0  0  0  0  0
   61.2840   34.2030   49.3270 C   0  0  0  0  0  0  0  0  0  0  0  0
   59.8250   33.7120   49.2250 C   0  0  0  0  0  0  0  0  0  0  0  0
   59.6640   32.6210   48.2320 N   0  0  0  0  0  0  0  0  0  0  0  0
   60.1570   31.3810   48.5710 C   0  0  0  0  0  0  0  0  0  0  0  0
   60.7040   31.1880   49.6930 O   0  0  0  0  0  0  0  0  0  0  0  0
   60.0700   30.3050   47.6940 C   0  0  0  0  0  0  0  0  0  0  0  0
   59.4780   30.4570   46.4400 C   0  0  0  0  0  0  0  0  0  0  0  0
   59.3800   29.3870   45.5290 O   0  0  0  0  0  0  0  0  0  0  0  0
   60.3760   28.3920   45.2940 C   0  0  0  0  0  0  0  0  0  0  0  0
   60.0650   27.1170   46.0770 C   0  0  0  0  0  0  0  0  0  0  0  0
   58.7500   27.2480   46.7290 N   0  0  0  0  0  0  0  0  0  0  0  0
   57.7810   26.2510   46.2510 C   0  0  0  0  0  0  0  0  0  0  0  0
   56.4710   26.8970   45.9250 C   0  0  0  0  0  0  0  0  0  0  0  0
   55.4040   26.2270   46.0050 O   0  0  0  0  0  0  0  0  0  0  0  0
   56.4470   28.2340   45.5060 O   0  0  0  0  0  0  0  0  0  0  0  0
   57.0150   28.6810   44.2770 C   0  0  0  0  0  0  0  0  0  0  0  0
   56.1290   29.7320   43.6180 C   0  0  0  0  0  0  0  0  0  0  0  0
   58.9640   31.7120   46.0830 C   0  0  0  0  0  0  0  0  0  0  0  0
   58.3600   31.8920   44.8230 C   0  0  0  0  0  0  0  0  0  0  0  0
   57.8570   33.1340   44.4480 C   0  0  0  0  0  0  0  0  0  0  0  0
   57.9490   34.2120   45.3190 C   0  0  0  0  0  0  0  0  0  0  0  0
   58.5400   34.0600   46.5730 C   0  0  0  0  0  0  0  0  0  0  0  0
   59.0600   32.8070   46.9940 C   0  0  0  0  0  0  0  0  0  0  0  0
   63.4705   31.1255   47.6608 H   0  0  0  0  0  0  0  0  0  0  0  0
   62.5223   32.1192   46.5032 H   0  0  0  0  0  0  0  0  0  0  0  0
   64.3164   32.2077   46.5032 H   0  0  0  0  0  0  0  0  0  0  0  0
   63.3967   32.7934   49.1659 H   0  0  0  0  0  0  0  0  0  0  0  0
   64.2293   33.8836   47.9708 H   0  0  0  0  0  0  0  0  0  0  0  0
   62.3828   35.0877   47.6945 H   0  0  0  0  0  0  0  0  0  0  0  0
   61.4438   33.5700   47.2908 H   0  0  0  0  0  0  0  0  0  0  0  0
   61.7922   33.6121   50.1032 H   0  0  0  0  0  0  0  0  0  0  0  0
   61.2377   35.2758   49.5655 H   0  0  0  0  0  0  0  0  0  0  0  0
   59.5068   33.3422   50.2109 H   0  0  0  0  0  0  0  0  0  0  0  0
   59.2077   34.5604   48.8946 H   0  0  0  0  0  0  0  0  0  0  0  0
   60.4716   29.3252   47.9919 H   0  0  0  0  0  0  0  0  0  0  0  0
   60.4049   28.1574   44.2197 H   0  0  0  0  0  0  0  0  0  0  0  0
   61.3492   28.7818   45.6272 H   0  0  0  0  0  0  0  0  0  0  0  0
   60.0489   26.2590   45.3888 H   0  0  0  0  0  0  0  0  0  0  0  0
   60.8391   26.9594   46.8424 H   0  0  0  0  0  0  0  0  0  0  0  0
   58.3620   28.1940   46.5000 H   0  0  0  0  0  0  0  0  0  0  0  0
   58.1787   25.7659   45.3474 H   0  0  0  0  0  0  0  0  0  0  0  0
   57.6194   25.5073   47.0452 H   0  0  0  0  0  0  0  0  0  0  0  0
   58.0048   29.1178   44.4756 H   0  0  0  0  0  0  0  0  0  0  0  0
   57.1038   27.8204   43.5976 H   0  0  0  0  0  0  0  0  0  0  0  0
   55.6269   30.3276   44.3947 H   0  0  0  0  0  0  0  0  0  0  0  0
   56.7471   30.3923   42.9919 H   0  0  0  0  0  0  0  0  0  0  0  0
   55.3737   29.2345   42.9919 H   0  0  0  0  0  0  0  0  0  0  0  0
   58.2853   31.0421   44.1286 H   0  0  0  0  0  0  0  0  0  0  0  0
   57.3866   33.2621   43.4619 H   0  0  0  0  0  0  0  0  0  0  0  0
   57.5528   35.1929   45.0175 H   0  0  0  0  0  0  0  0  0  0  0  0
   58.6046   34.9260   47.2482 H   0  0  0  0  0  0  0  0  0  0  0  0
  1  2  1  0
  2  3  1  0
  3  4  1  0
  4  5  1  0
  5  6  1  0
  6  7  1  0
  7  8  2  0
  7  9  1  0
  9 10  2  0
 10 11  1  0
 11 12  1  0
 12 13  1  0
 13 14  1  0
 14 15  1  0
 15 16  1  0
 16 17  2  0
 16 18  1  0
 18 19  1  0
 19 20  1  0
 10 21  1  0
 21 22  2  0
 22 23  1  0
 23 24  2  0
 24 25  1  0
 25 26  2  0
 26  6  1  0
 26 21  1  0
  1 27  1  0
  1 28  1  0
  1 29  1  0
  2 30  1  0
  2 31  1  0
  3 32  1  0
  3 33  1  0
  4 34  1  0
  4 35  1  0
  5 36  1  0
  5 37  1  0
  9 38  1  0
 12 39  1  0
 12 40  1  0
 13 41  1  0
 13 42  1  0
 14 43  1  0
 15 44  1  0
 15 45  1  0
 19 46  1  0
 19 47  1  0
 20 48  1  0
 20 49  1  0
 20 50  1  0
 22 51  1  0
 23 52  1  0
 24 53  1  0
 25 54  1  0
M  END
>  <UniqueID>  (1) 
1

>  <SMILES>  (1) 
CCCCCn1c(=O)cc(OCCNCC(=O)OCC)c2ccccc21

>  <Energy>  (1) 
53.88389508183736

>  <Genealogy>  (1) 
CCCCCn1c(=O)cc(OCCNCC(=O)OCC)c2ccccc21 (3D coordinates assigned)
CCCCCn1c(=O)cc(OCCNCC(=O)OCC)c2ccccc21 (optimized conformer: 53.88389508183736 kcal/mol)

>  <smiles>  (1) 
CCCCCn1c(=O)cc(OCCNCC(=O)OCC)c2ccccc21

>  <score_type>  (1) 
oracle

>  <origin>  (1) 
adg

>  <m_score__min__energy>  (1) 
-7.6200000000000001

>  <m_primary>  (1) 
energy

$$$$
1:0
     RDKit          3D

 44 45  0  0  1  0  0  0  0  0999 V2000
   63.7560   32.3930   48.5930 C   0  0  0  0  0  0  0  0  0  0  0  0
   62.5240   32.8150   47.9110 N   0  0  0  0  0  0  0  0  0  0  0  0
   63.0030   33.5460   46.7370 C   0  0  0  0  0  0  0  0  0  0  0  0
   61.8890   31.5930   47.4680 C   0  0  0  0  0  0  0  0  0  0  0  0
   60.8120   31.1120   48.4540 C   0  0  0  0  0  0  0  0  0  0  0  0
   60.4140   29.7970   47.9280 N   0  0  0  0  0  0  0  0  0  0  0  0
   59.8940   29.6820   46.7490 C   0  0  0  0  0  0  0  0  0  0  0  0
   60.6400   29.0300   45.7920 C   0  0  0  0  0  0  0  0  0  0  0  0
   60.0960   28.9000   44.5280 C   0  0  0  0  0  0  0  0  0  0  0  0
   58.8740   29.4110   44.2910 N   0  0  0  0  0  0  0  0  0  0  0  0
   58.1580   30.0510   45.2540 C   0  0  0  0  0  0  0  0  0  0  0  0
   57.0000   30.4950   44.8980 N   0  0  0  0  0  0  0  0  0  0  0  0
   56.8130   31.9290   44.8500 C   0  0  0  0  0  0  0  0  0  0  0  0
   58.1290   32.5100   44.3410 C   0  0  0  0  0  0  0  0  0  0  0  0
   58.6690   33.3880   45.3970 C   0  0  0  0  0  0  0  0  0  0  0  0
   58.4190   33.0870   46.7280 C   0  0  0  0  0  0  0  0  0  0  0  0
   58.8880   33.8570   47.7630 C   0  0  0  0  0  0  0  0  0  0  0  0
   59.6420   34.9770   47.4460 C   0  0  0  0  0  0  0  0  0  0  0  0
   59.8990   35.2890   46.1130 C   0  0  0  0  0  0  0  0  0  0  0  0
   59.4190   34.5030   45.0840 C   0  0  0  0  0  0  0  0  0  0  0  0
   58.6700   30.1850   46.4820 N   0  0  0  0  0  0  0  0  0  0  0  0
   63.6081   32.4437   49.6818 H   0  0  0  0  0  0  0  0  0  0  0  0
   63.9998   31.3601   48.3037 H   0  0  0  0  0  0  0  0  0  0  0  0
   64.5819   33.0595   48.3037 H   0  0  0  0  0  0  0  0  0  0  0  0
   63.5789   34.4250   47.0622 H   0  0  0  0  0  0  0  0  0  0  0  0
   63.6463   32.8890   46.1332 H   0  0  0  0  0  0  0  0  0  0  0  0
   62.1438   33.8735   46.1332 H   0  0  0  0  0  0  0  0  0  0  0  0
   61.4198   31.7715   46.4892 H   0  0  0  0  0  0  0  0  0  0  0  0
   62.6621   30.8132   47.4031 H   0  0  0  0  0  0  0  0  0  0  0  0
   61.2244   31.0190   49.4695 H   0  0  0  0  0  0  0  0  0  0  0  0
   59.9665   31.8111   48.5335 H   0  0  0  0  0  0  0  0  0  0  0  0
   61.6360   28.6260   46.0260 H   0  0  0  0  0  0  0  0  0  0  0  0
   60.6525   28.3876   43.7295 H   0  0  0  0  0  0  0  0  0  0  0  0
   58.4670   29.3060   43.3190 H   0  0  0  0  0  0  0  0  0  0  0  0
   55.9921   32.1843   44.1637 H   0  0  0  0  0  0  0  0  0  0  0  0
   56.5505   32.3336   45.8386 H   0  0  0  0  0  0  0  0  0  0  0  0
   58.8400   31.6980   44.1288 H   0  0  0  0  0  0  0  0  0  0  0  0
   57.9665   33.0779   43.4130 H   0  0  0  0  0  0  0  0  0  0  0  0
   57.8204   32.1947   46.9636 H   0  0  0  0  0  0  0  0  0  0  0  0
   58.6729   33.5944   48.8093 H   0  0  0  0  0  0  0  0  0  0  0  0
   60.0371   35.6189   48.2472 H   0  0  0  0  0  0  0  0  0  0  0  0
   60.4973   36.1808   45.8748 H   0  0  0  0  0  0  0  0  0  0  0  0
   59.6304   34.7607   44.0357 H   0  0  0  0  0  0  0  0  0  0  0  0
   58.1260   30.6700   47.2110 H   0  0  0  0  0  0  0  0  0  0  0  0
  1  2  1  0
  2  3  1  0
  2  4  1  0
  4  5  1  0
  5  6  1  0
  6  7  2  0
  7  8  1  0
  8  9  2  0
  9 10  1  0
 10 11  1  0
 11 12  2  0
 12 13  1  0
 13 14  1  0
 14 15  1  0
 15 16  2  0
 16 17  1  0
 17 18  2  0
 18 19  1  0
 19 20  2  0
 11 21  1  0
 21  7  1  0
 20 15  1  0
  1 22  1  0
  1 23  1  0
  1 24  1  0
  3 25  1  0
  3 26  1  0
  3 27  1  0
  4 28  1  0
  4 29  1  0
  5 30  1  0
  5 31  1  0
  8 32  1  0
  9 33  1  0
 10 34  1  0
 13 35  1  0
 13 36  1  0
 14 37  1  0
 14 38  1  0
 16 39  1  0
 17 40  1  0
 18 41  1  0
 19 42  1  0
 20 43  1  0
 21 44  1  0
M  END
>  <smiles>  (2) 
CN(C)CCN=c1cc[nH]c(=NCCc2ccccc2)[nH]1

>  <score_type>  (2) 
oracle

>  <origin>  (2) 
adg

>  <m_score__min__energy>  (2) 
-7.2599999999999998

>  <m_primary>  (2) 
energy

$$$$
2:0
     RDKit          3D

 43 47  0  0  0  0  0  0  0  0999 V2000
   57.0170   29.0550   42.9890 C   0  0  0  0  0  0  0  0  0  0  0  0
   57.7770   27.8640   43.0390 C   0  0  0  0  0  0  0  0  0  0  0  0
   58.5140   27.5370   44.1920 C   0  0  0  0  0  0  0  0  0  0  0  0
   58.4600   28.4230   45.2670 C   0  0  0  0  0  0  0  0  0  0  0  0
   59.0800   28.3170   46.4500 N   0  0  0  0  0  0  0  0  0  0  0  0
   58.6750   29.4440   47.0930 C   0  0  0  0  0  0  0  0  0  0  0  0
   59.1420   29.7980   48.4710 C   0  0  0  0  0  0  0  0  0  0  0  0
   60.5860   30.1250   48.4770 N   0  0  0  0  0  0  0  0  0  0  0  0
   61.0880   30.6030   47.1620 C   0  0  0  0  0  0  0  0  0  0  0  0
   60.4790   31.9590   46.7440 C   0  0  0  0  0  0  0  0  0  0  0  0
   60.4060   32.8570   47.8950 N   0  0  0  0  0  0  0  0  0  0  0  0
   60.0780   34.1590   47.9390 C   0  0  0  0  0  0  0  0  0  0  0  0
   59.7060   35.0070   46.7590 C   0  0  0  0  0  0  0  0  0  0  0  0
   58.7990   34.2710   45.8850 N   0  0  0  0  0  0  0  0  0  0  0  0
   57.5940   33.7760   46.2240 C   0  0  0  0  0  0  0  0  0  0  0  0
   57.0370   33.1910   45.1090 C   0  0  0  0  0  0  0  0  0  0  0  0
   57.9750   33.3730   44.1100 C   0  0  0  0  0  0  0  0  0  0  0  0
   59.0380   34.0360   44.6040 N   0  0  0  0  0  0  0  0  0  0  0  0
   60.0280   34.5440   49.2650 C   0  0  0  0  0  0  0  0  0  0  0  0
   60.3260   33.4870   50.0520 N   0  0  0  0  0  0  0  0  0  0  0  0
   60.5320   32.4800   49.1770 C   0  0  0  0  0  0  0  0  0  0  0  0
   60.9180   31.0840   49.5580 C   0  0  0  0  0  0  0  0  0  0  0  0
   57.8480   30.2450   46.3700 N   0  0  0  0  0  0  0  0  0  0  0  0
   57.7280   29.5700   45.2190 C   0  0  0  0  0  0  0  0  0  0  0  0
   56.9880   29.9270   44.0940 C   0  0  0  0  0  0  0  0  0  0  0  0
   56.4454   29.3017   42.0821 H   0  0  0  0  0  0  0  0  0  0  0  0
   57.7922   27.1886   42.1709 H   0  0  0  0  0  0  0  0  0  0  0  0
   59.1116   26.6149   44.2434 H   0  0  0  0  0  0  0  0  0  0  0  0
   58.5748   30.6696   48.8297 H   0  0  0  0  0  0  0  0  0  0  0  0
   58.9772   28.9320   49.1289 H   0  0  0  0  0  0  0  0  0  0  0  0
   62.1809   30.7125   47.2221 H   0  0  0  0  0  0  0  0  0  0  0  0
   60.7923   29.8608   46.4058 H   0  0  0  0  0  0  0  0  0  0  0  0
   61.1089   32.4157   45.9664 H   0  0  0  0  0  0  0  0  0  0  0  0
   59.4638   31.7914   46.3551 H   0  0  0  0  0  0  0  0  0  0  0  0
   59.2100   35.9238   47.1105 H   0  0  0  0  0  0  0  0  0  0  0  0
   60.6162   35.2680   46.1992 H   0  0  0  0  0  0  0  0  0  0  0  0
   57.1331   33.8297   47.2213 H   0  0  0  0  0  0  0  0  0  0  0  0
   56.0611   32.6895   45.0305 H   0  0  0  0  0  0  0  0  0  0  0  0
   57.8693   33.0289   43.0706 H   0  0  0  0  0  0  0  0  0  0  0  0
   59.7835   35.5545   49.6243 H   0  0  0  0  0  0  0  0  0  0  0  0
   62.0008   31.0499   49.7486 H   0  0  0  0  0  0  0  0  0  0  0  0
   60.3576   30.8005   50.4611 H   0  0  0  0  0  0  0  0  0  0  0  0
   56.4017   30.8574   44.0699 H   0  0  0  0  0  0  0  0  0  0  0  0
  1  2  2  0
  2  3  1  0
  3  4  2  0
  4  5  1  0
  5  6  1  0
  6  7  1  0
  7  8  1  0
  8  9  1  0
  9 10  1  0
 10 11  1  0
 11 12  1  0
 12 13  1  0
 13 14  1  0
 14 15  1  0
 15 16  2  0
 16 17  1  0
 17 18  2  0
 12 19  2  0
 19 20  1  0
 20 21  2  0
 21 22  1  0
  6 23  2  0
 23 24  1  0
 24 25  2  0
 25  1  1  0
 24  4  1  0
 22  8  1  0
 21 11  1  0
 18 14  1  0
  1 26  1  0
  2 27  1  0
  3 28  1  0
  7 29  1  0
  7 30  1  0
  9 31  1  0
  9 32  1  0
 10 33  1  0
 10 34  1  0
 13 35  1  0
 13 36  1  0
 15 37  1  0
 16 38  1  0
 17 39  1  0
 19 40  1  0
 22 41  1  0
 22 42  1  0
 25 43  1  0
M  CHG  1   5  -1
M  END
>  <UniqueID>  (3) 
2

>  <SMILES>  (3) 
c1ccc2[n-]c(CN3CCn4c(Cn5cccn5)cnc4C3)nc2c1

>  <Energy>  (3) 
144.66958232482787

>  <Genealogy>  (3) 
c1ccc2[n-]c(CN3CCn4c(Cn5cccn5)cnc4C3)nc2c1 (protonated)
c1ccc2[n-]c(CN3CCn4c(Cn5cccn5)cnc4C3)nc2c1 (3D coordinates assigned)
c1ccc2[n-]c(CN3CCn4c(Cn5cccn5)cnc4C3)nc2c1 (nonaromatic ring conformer: 144.66958232482787 kcal/mol)

>  <smiles>  (3) 
c1ccc2[nH]c(CN3CCn4c(Cn5cccn5)cnc4C3)nc2c1

>  <score_type>  (3) 
oracle

>  <origin>  (3) 
adg

>  <m_score__min__energy>  (3) 
-8.8599999999999994

>  <m_primary>  (3) 
energy

$$$$
3:0
     RDKit          3D

 40 42  0  0  0  0  0  0  0  0999 V2000
   56.0090   30.7510   44.5050 O   0  0  0  0  0  0  0  0  0  0  0  0
   57.0840   30.1920   44.1590 C   0  0  0  0  0  0  0  0  0  0  0  0
   57.0160   29.0530   43.2230 C   0  0  0  0  0  0  0  0  0  0  0  0
   57.7700   27.9540   43.3630 C   0  0  0  0  0  0  0  0  0  0  0  0
   58.3750   27.5350   44.6510 C   0  0  0  0  0  0  0  0  0  0  0  0
   57.6320   26.8950   45.6640 C   0  0  0  0  0  0  0  0  0  0  0  0
   58.2450   26.5300   46.8670 C   0  0  0  0  0  0  0  0  0  0  0  0
   59.5970   26.8060   47.0780 C   0  0  0  0  0  0  0  0  0  0  0  0
   60.3400   27.4540   46.0890 C   0  0  0  0  0  0  0  0  0  0  0  0
   59.7320   27.8220   44.8840 C   0  0  0  0  0  0  0  0  0  0  0  0
   58.3330   30.6310   44.7220 N   0  0  0  0  0  0  0  0  0  0  0  0
   58.5260   31.9320   45.3070 C   0  0  0  0  0  0  0  0  0  0  0  0
   57.6660   32.9960   44.9970 C   0  0  0  0  0  0  0  0  0  0  0  0
   57.8860   34.2540   45.5470 C   0  0  0  0  0  0  0  0  0  0  0  0
   58.9690   34.4510   46.4020 C   0  0  0  0  0  0  0  0  0  0  0  0
   59.8180   33.4220   46.7010 N   0  0  0  0  0  0  0  0  0  0  0  0
   60.9230   33.6740   47.5930 C   0  0  0  0  0  0  0  0  0  0  0  0
   60.6920   33.9790   48.9460 C   0  0  0  0  0  0  0  0  0  0  0  0
   61.7660   34.2310   49.8060 C   0  0  0  0  0  0  0  0  0  0  0  0
   63.0760   34.1850   49.3210 C   0  0  0  0  0  0  0  0  0  0  0  0
   63.3150   33.8880   47.9770 C   0  0  0  0  0  0  0  0  0  0  0  0
   62.2450   33.6360   47.1140 C   0  0  0  0  0  0  0  0  0  0  0  0
   59.6210   32.1750   46.1600 C   0  0  0  0  0  0  0  0  0  0  0  0
   60.4250   31.2350   46.4180 O   0  0  0  0  0  0  0  0  0  0  0  0
   56.3173   29.1084   42.3752 H   0  0  0  0  0  0  0  0  0  0  0  0
   57.9498   27.3294   42.4756 H   0  0  0  0  0  0  0  0  0  0  0  0
   56.5643   26.6816   45.5073 H   0  0  0  0  0  0  0  0  0  0  0  0
   57.6600   26.0240   47.6491 H   0  0  0  0  0  0  0  0  0  0  0  0
   60.0771   26.5130   48.0233 H   0  0  0  0  0  0  0  0  0  0  0  0
   61.4042   27.6753   46.2576 H   0  0  0  0  0  0  0  0  0  0  0  0
   60.3202   28.3402   44.1123 H   0  0  0  0  0  0  0  0  0  0  0  0
   59.1060   29.9330   44.8030 H   0  0  0  0  0  0  0  0  0  0  0  0
   56.8160   32.8349   44.3176 H   0  0  0  0  0  0  0  0  0  0  0  0
   57.2098   35.0883   45.3089 H   0  0  0  0  0  0  0  0  0  0  0  0
   59.1424   35.4447   46.8407 H   0  0  0  0  0  0  0  0  0  0  0  0
   59.6620   34.0196   49.3299 H   0  0  0  0  0  0  0  0  0  0  0  0
   61.5795   34.4655   50.8644 H   0  0  0  0  0  0  0  0  0  0  0  0
   63.9198   34.3829   49.9983 H   0  0  0  0  0  0  0  0  0  0  0  0
   64.3468   33.8524   47.5975 H   0  0  0  0  0  0  0  0  0  0  0  0
   62.4375   33.4069   46.0555 H   0  0  0  0  0  0  0  0  0  0  0  0
  1  2  2  0
  2  3  1  0
  3  4  2  3
  4  5  1  0
  5  6  2  0
  6  7  1  0
  7  8  2  0
  8  9  1  0
  9 10  2  0
  2 11  1  0
 11 12  1  0
 12 13  2  0
 13 14  1  0
 14 15  2  0
 15 16  1  0
 16 17  1  0
 17 18  2  0
 18 19  1  0
 19 20  2  0
 20 21  1  0
 21 22  2  0
 16 23  1  0
 23 24  2  0
 10  5  1  0
 23 12  1  0
 22 17  1  0
  3 25  1  0
  4 26  1  0
  6 27  1  0
  7 28  1  0
  8 29  1  0
  9 30  1  0
 10 31  1  0
 11 32  1  0
 13 33  1  0
 14 34  1  0
 15 35  1  0
 18 36  1  0
 19 37  1  0
 20 38  1  0
 21 39  1  0
 22 40  1  0
M  END
>  <UniqueID>  (4) 
3

>  <SMILES>  (4) 
O=C(C=Cc1ccccc1)Nc1cccn(-c2ccccc2)c1=O

>  <Energy>  (4) 
58.54693598631385

>  <Genealogy>  (4) 
O=C(C=Cc1ccccc1)Nc1cccn(-c2ccccc2)c1=O (3D coordinates assigned)
O=C(C=Cc1ccccc1)Nc1cccn(-c2ccccc2)c1=O (optimized conformer: 58.54693598631385 kcal/mol)

>  <smiles>  (4) 
O=C(C=Cc1ccccc1)Nc1cccn(-c2ccccc2)c1=O

>  <score_type>  (4) 
oracle

>  <origin>  (4) 
adg

>  <m_score__min__energy>  (4) 
-9.0199999999999996

>  <m_primary>  (4) 
energy

$$$$
4:0
     RDKit          3D

 46 47  0  0  0  0  0  0  0  0999 V2000
   57.8730   23.9680   46.6410 C   0  0  0  0  0  0  0  0  0  0  0  0
   57.3760   25.1730   47.2160 O   0  0  0  0  0  0  0  0  0  0  0  0
   57.5730   26.4550   46.6750 C   0  0  0  0  0  0  0  0  0  0  0  0
   58.8160   27.1060   46.7450 C   0  0  0  0  0  0  0  0  0  0  0  0
   58.9920   28.3750   46.1830 C   0  0  0  0  0  0  0  0  0  0  0  0
   60.3470   29.0570   46.2460 C   0  0  0  0  0  0  0  0  0  0  0  0
   60.2900   30.4860   46.6540 N   0  0  0  0  0  0  0  0  0  0  0  0
   59.1850   30.7310   47.6170 C   0  0  0  0  0  0  0  0  0  0  0  0
   58.3850   32.0130   47.3240 C   0  0  0  0  0  0  0  0  0  0  0  0
   59.2180   33.3040   47.1900 C   0  0  0  0  0  0  0  0  0  0  0  0
   60.5760   33.2650   47.9160 C   0  0  0  0  0  0  0  0  0  0  0  0
   61.7270   32.5570   47.1540 C   0  0  0  0  0  0  0  0  0  0  0  0
   61.6260   31.0160   47.0580 C   0  0  0  0  0  0  0  0  0  0  0  0
   57.9010   29.0140   45.5820 C   0  0  0  0  0  0  0  0  0  0  0  0
   56.6460   28.3820   45.4970 C   0  0  0  0  0  0  0  0  0  0  0  0
   55.5610   29.0190   44.8750 O   0  0  0  0  0  0  0  0  0  0  0  0
   55.6350   29.7660   43.6640 C   0  0  0  0  0  0  0  0  0  0  0  0
   56.4840   27.0850   46.0490 C   0  0  0  0  0  0  0  0  0  0  0  0
   55.2740   26.3650   46.0140 O   0  0  0  0  0  0  0  0  0  0  0  0
   55.1080   25.0000   45.6470 C   0  0  0  0  0  0  0  0  0  0  0  0
   58.1605   23.2709   47.4419 H   0  0  0  0  0  0  0  0  0  0  0  0
   57.0908   23.5089   46.0186 H   0  0  0  0  0  0  0  0  0  0  0  0
   58.7514   24.1938   46.0186 H   0  0  0  0  0  0  0  0  0  0  0  0
   59.6607   26.6122   47.2476 H   0  0  0  0  0  0  0  0  0  0  0  0
   60.9727   28.5156   46.9709 H   0  0  0  0  0  0  0  0  0  0  0  0
   60.7606   29.0347   45.2270 H   0  0  0  0  0  0  0  0  0  0  0  0
   60.0260   31.0010   45.7800 H   0  0  0  0  0  0  0  0  0  0  0  0
   58.4954   29.8748   47.5802 H   0  0  0  0  0  0  0  0  0  0  0  0
   59.6436   30.8566   48.6089 H   0  0  0  0  0  0  0  0  0  0  0  0
   57.8396   31.8630   46.3806 H   0  0  0  0  0  0  0  0  0  0  0  0
   57.7326   32.1658   48.1964 H   0  0  0  0  0  0  0  0  0  0  0  0
   59.4048   33.4832   46.1209 H   0  0  0  0  0  0  0  0  0  0  0  0
   58.6323   34.1054   47.6640 H   0  0  0  0  0  0  0  0  0  0  0  0
   60.8862   34.3027   48.1082 H   0  0  0  0  0  0  0  0  0  0  0  0
   60.4112   32.6721   48.8278 H   0  0  0  0  0  0  0  0  0  0  0  0
   61.7498   32.9578   46.1299 H   0  0  0  0  0  0  0  0  0  0  0  0
   62.6383   32.7601   47.7356 H   0  0  0  0  0  0  0  0  0  0  0  0
   62.3649   30.6728   46.3189 H   0  0  0  0  0  0  0  0  0  0  0  0
   61.8082   30.6363   48.0742 H   0  0  0  0  0  0  0  0  0  0  0  0
   58.0264   30.0260   45.1696 H   0  0  0  0  0  0  0  0  0  0  0  0
   55.7409   30.8354   43.8988 H   0  0  0  0  0  0  0  0  0  0  0  0
   56.5044   29.4311   43.0792 H   0  0  0  0  0  0  0  0  0  0  0  0
   54.7168   29.6082   43.0792 H   0  0  0  0  0  0  0  0  0  0  0  0
   55.0330   24.3828   46.5545 H   0  0  0  0  0  0  0  0  0  0  0  0
   54.1898   24.8895   45.0514 H   0  0  0  0  0  0  0  0  0  0  0  0
   55.9730   24.6726   45.0514 H   0  0  0  0  0  0  0  0  0  0  0  0
  1  2  1  0
  2  3  1  0
  3  4  2  0
  4  5  1  0
  5  6  1  0
  6  7  1  0
  7  8  1  0
  8  9  1  0
  9 10  1  0
 10 11  1  0
 11 12  1  0
 12 13  1  0
  5 14  2  0
 14 15  1  0
 15 16  1  0
 16 17  1  0
 15 18  2  0
 18 19  1  0
 19 20  1  0
 18  3  1  0
 13  7  1  0
  1 21  1  0
  1 22  1  0
  1 23  1  0
  4 24  1  0
  6 25  1  0
  6 26  1  0
  7 27  1  0
  8 28  1  0
  8 29  1  0
  9 30  1  0
  9 31  1  0
 10 32  1  0
 10 33  1  0
 11 34  1  0
 11 35  1  0
 12 36  1  0
 12 37  1  0
 13 38  1  0
 13 39  1  0
 14 40  1  0
 17 41  1  0
 17 42  1  0
 17 43  1  0
 20 44  1  0
 20 45  1  0
 20 46  1  0
M  CHG  1   7   1
M  END
>  <UniqueID>  (5) 
4

>  <SMILES>  (5) 
COc1cc(C[NH+]2CCCCCC2)cc(OC)c1OC

>  <Energy>  (5) 
62.27307814679079

>  <Genealogy>  (5) 
COc1cc(C[NH+]2CCCCCC2)cc(OC)c1OC (protonated)
COc1cc(C[NH+]2CCCCCC2)cc(OC)c1OC (3D coordinates assigned)
COc1cc(C[NH+]2CCCCCC2)cc(OC)c1OC (nonaromatic ring conformer: 62.27307814679079 kcal/mol)

>  <smiles>  (5) 
COc1cc(CN2CCCCCC2)cc(OC)c1OC

>  <score_type>  (5) 
oracle

>  <origin>  (5) 
adg

>  <m_score__min__energy>  (5) 
-2.7799999999999998

>  <m_primary>  (5) 
energy

$$$$
5:0
     RDKit          3D

 47 49  0  0  0  0  0  0  0  0999 V2000
   54.4230   30.5710   44.5380 H   0  0  0  0  0  0  0  0  0  0  0  0
   55.3930   30.4940   44.1630 N   0  0  0  0  0  0  0  0  0  0  0  0
   56.2970   29.7300   44.6940 C   0  0  0  0  0  0  0  0  0  0  0  0
   56.0400   28.4540   45.0680 N   0  0  0  0  0  0  0  0  0  0  0  0
   55.1440   27.9250   44.9830 H   0  0  0  0  0  0  0  0  0  0  0  0
   57.1980   28.0360   45.6050 C   0  0  0  0  0  0  0  0  0  0  0  0
   57.4810   26.7980   46.1790 C   0  0  0  0  0  0  0  0  0  0  0  0
   56.7241   26.0006   46.2149 H   0  0  0  0  0  0  0  0  0  0  0  0
   58.7690   26.6040   46.7110 C   0  0  0  0  0  0  0  0  0  0  0  0
   59.0313   25.6388   47.1689 H   0  0  0  0  0  0  0  0  0  0  0  0
   59.7290   27.6420   46.6610 C   0  0  0  0  0  0  0  0  0  0  0  0
   60.7321   27.4786   47.0817 H   0  0  0  0  0  0  0  0  0  0  0  0
   59.4100   28.8820   46.0770 C   0  0  0  0  0  0  0  0  0  0  0  0
   60.1463   29.6983   46.0375 H   0  0  0  0  0  0  0  0  0  0  0  0
   58.1260   29.0410   45.5490 C   0  0  0  0  0  0  0  0  0  0  0  0
   57.5750   30.1220   44.9580 N   0  0  0  0  0  0  0  0  0  0  0  0
   58.1880   31.4390   44.7520 C   0  0  0  0  0  0  0  0  0  0  0  0
   59.2831   31.3365   44.7637 H   0  0  0  0  0  0  0  0  0  0  0  0
   57.8602   31.8411   43.7820 H   0  0  0  0  0  0  0  0  0  0  0  0
   57.7570   32.4000   45.8650 C   0  0  0  0  0  0  0  0  0  0  0  0
   57.9561   33.4305   45.5357 H   0  0  0  0  0  0  0  0  0  0  0  0
   56.6865   32.2298   46.0521 H   0  0  0  0  0  0  0  0  0  0  0  0
   58.5020   32.1550   47.1890 C   0  0  0  0  0  0  0  0  0  0  0  0
   57.8552   31.5537   47.8448 H   0  0  0  0  0  0  0  0  0  0  0  0
   59.4413   31.6406   46.9378 H   0  0  0  0  0  0  0  0  0  0  0  0
   58.8840   33.4480   47.9360 C   0  0  0  0  0  0  0  0  0  0  0  0
   58.0195   34.1281   47.9289 H   0  0  0  0  0  0  0  0  0  0  0  0
   59.1710   33.1698   48.9608 H   0  0  0  0  0  0  0  0  0  0  0  0
   60.0330   34.1370   47.3200 N   0  0  0  0  0  0  0  0  0  0  0  0
   61.3940   33.8320   47.7120 C   0  0  0  0  0  0  0  0  0  0  0  0
   62.3330   33.4040   46.7600 C   0  0  0  0  0  0  0  0  0  0  0  0
   62.0398   33.3147   45.7036 H   0  0  0  0  0  0  0  0  0  0  0  0
   63.6340   33.0920   47.1470 C   0  0  0  0  0  0  0  0  0  0  0  0
   64.3662   32.7478   46.4018 H   0  0  0  0  0  0  0  0  0  0  0  0
   64.0010   33.2190   48.4840 C   0  0  0  0  0  0  0  0  0  0  0  0
   65.0236   32.9606   48.7962 H   0  0  0  0  0  0  0  0  0  0  0  0
   63.1010   33.6620   49.4110 N   0  0  0  0  0  0  0  0  0  0  0  0
   63.4960   33.7580   50.8180 C   0  0  0  0  0  0  0  0  0  0  0  0
   62.6267   33.5467   51.4581 H   0  0  0  0  0  0  0  0  0  0  0  0
   64.2911   33.0269   51.0263 H   0  0  0  0  0  0  0  0  0  0  0  0
   63.8669   34.7724   51.0263 H   0  0  0  0  0  0  0  0  0  0  0  0
   61.8140   33.9520   49.0500 C   0  0  0  0  0  0  0  0  0  0  0  0
   61.0974   34.2836   49.8159 H   0  0  0  0  0  0  0  0  0  0  0  0
   59.7890   35.2290   46.3670 C   0  0  0  0  0  0  0  0  0  0  0  0
   59.5815   36.1577   46.9188 H   0  0  0  0  0  0  0  0  0  0  0  0
   60.6780   35.3691   45.7345 H   0  0  0  0  0  0  0  0  0  0  0  0
   58.9249   34.9774   45.7345 H   0  0  0  0  0  0  0  0  0  0  0  0
  1  2  1  0
  2  3  2  0
  3  4  1  0
  4  5  1  0
  4  6  1  0
  6  7  2  0
  7  8  1  0
  7  9  1  0
  9 10  1  0
  9 11  2  0
 11 12  1  0
 11 13  1  0
 13 14  1  0
 13 15  2  0
 15 16  1  0
 16 17  1  0
 17 18  1  0
 17 19  1  0
 17 20  1  0
 20 21  1  0
 20 22  1  0
 20 23  1  0
 23 24  1  0
 23 25  1  0
 23 26  1  0
 26 27  1  0
 26 28  1  0
 26 29  1  0
 29 30  1  0
 30 31  2  0
 31 32  1  0
 31 33  1  0
 33 34  1  0
 33 35  2  0
 35 36  1  0
 35 37  1  0
 37 38  1  0
 38 39  1  0
 38 40  1  0
 38 41  1  0
 37 42  2  0
 42 43  1  0
 29 44  1  0
 44 45  1  0
 44 46  1  0
 44 47  1  0
 16  3  1  0
 42 30  1  0
 15  6  1  0
M  CHG  1  37   1
M  END
>  <UniqueID>  (6) 
5

>  <SMILES>  (6) 
[H]/N=c1/[nH]c2ccccc2n1CCCCN(C)c1ccc[n+](C)c1

>  <Energy>  (6) 
86.08538496762988

>  <Genealogy>  (6) 
[H]/N=c1/[nH]c2ccccc2n1CCCCN(C)c1ccc[n+](C)c1 (cis-trans isomerization)
[H]/N=c1/[nH]c2ccccc2n1CCCCN(C)c1ccc[n+](C)c1 (3D coordinates assigned)
[H]/N=c1/[nH]c2ccccc2n1CCCCN(C)c1ccc[n+](C)c1 (optimized conformer: 86.08538496762988 kcal/mol)

>  <smiles>  (6) 
CN(CCCCn1c(=N)[nH]c2ccccc21)c1ccc[n+](C)c1

>  <score_type>  (6) 
oracle

>  <origin>  (6) 
adg

>  <m_score__min__energy>  (6) 
-6.3200000000000003

>  <m_primary>  (6) 
energy

$$$$
6:0
     RDKit          3D

 29 31  0  0  0  0  0  0  0  0999 V2000
   57.5830   29.6490   44.7740 C   0  0  0  0  0  0  0  0  0  0  0  0
   57.5580   31.0590   44.2790 C   0  0  0  0  0  0  0  0  0  0  0  0
   57.8280   31.4140   43.0040 N   0  0  0  0  0  0  0  0  0  0  0  0
   58.1180   32.7110   42.9810 N   0  0  0  0  0  0  0  0  0  0  0  0
   57.9340   33.1360   44.2460 C   0  0  0  0  0  0  0  0  0  0  0  0
   57.5910   32.1450   45.0680 N   0  0  0  0  0  0  0  0  0  0  0  0
   58.2130   32.4000   46.3220 C   0  0  0  0  0  0  0  0  0  0  0  0
   58.1480   31.6260   47.3140 O   0  0  0  0  0  0  0  0  0  0  0  0
   58.9390   33.6340   46.3070 N   0  0  0  0  0  0  0  0  0  0  0  0
   59.3540   34.4210   47.4640 C   0  0  0  0  0  0  0  0  0  0  0  0
   60.7990   34.1520   47.7820 C   0  0  0  0  0  0  0  0  0  0  0  0
   61.6900   33.7740   46.7640 C   0  0  0  0  0  0  0  0  0  0  0  0
   63.0240   33.4850   47.0680 C   0  0  0  0  0  0  0  0  0  0  0  0
   63.4750   33.5610   48.3890 C   0  0  0  0  0  0  0  0  0  0  0  0
   64.7670   33.2770   48.6820 F   0  0  0  0  0  0  0  0  0  0  0  0
   62.5900   33.9230   49.4080 C   0  0  0  0  0  0  0  0  0  0  0  0
   61.2560   34.2140   49.1090 C   0  0  0  0  0  0  0  0  0  0  0  0
   58.7440   34.1050   44.9690 C   0  0  0  0  0  0  0  0  0  0  0  0
   59.2530   35.1560   44.4970 O   0  0  0  0  0  0  0  0  0  0  0  0
   57.5830   29.6465   45.8740 H   0  0  0  0  0  0  0  0  0  0  0  0
   56.6942   29.1154   44.4062 H   0  0  0  0  0  0  0  0  0  0  0  0
   58.4902   29.1473   44.4062 H   0  0  0  0  0  0  0  0  0  0  0  0
   57.9420   30.7730   42.1880 H   0  0  0  0  0  0  0  0  0  0  0  0
   59.2235   35.4904   47.2421 H   0  0  0  0  0  0  0  0  0  0  0  0
   58.7369   34.1399   48.3301 H   0  0  0  0  0  0  0  0  0  0  0  0
   61.3373   33.7051   45.7244 H   0  0  0  0  0  0  0  0  0  0  0  0
   63.7198   33.1973   46.2661 H   0  0  0  0  0  0  0  0  0  0  0  0
   62.9440   33.9791   50.4480 H   0  0  0  0  0  0  0  0  0  0  0  0
   60.5617   34.4925   49.9154 H   0  0  0  0  0  0  0  0  0  0  0  0
  1  2  1  0
  2  3  2  0
  3  4  1  0
  4  5  2  0
  5  6  1  0
  6  7  1  0
  7  8  2  0
  7  9  1  0
  9 10  1  0
 10 11  1  0
 11 12  2  0
 12 13  1  0
 13 14  2  0
 14 15  1  0
 14 16  1  0
 16 17  2  0
  9 18  1  0
 18 19  2  0
  6  2  1  0
 17 11  1  0
 18  5  1  0
  1 20  1  0
  1 21  1  0
  1 22  1  0
  3 23  1  0
 10 24  1  0
 10 25  1  0
 12 26  1  0
 13 27  1  0
 16 28  1  0
 17 29  1  0
M  CHG  1   3   1
M  END
>  <UniqueID>  (7) 
6

>  <SMILES>  (7) 
Cc1[nH+]nc2n1C(=O)N(Cc1ccc(F)cc1)C2=O

>  <Energy>  (7) 
118.58869921358293

>  <Genealogy>  (7) 
Cc1[nH+]nc2n1C(=O)N(Cc1ccc(F)cc1)C2=O (protonated)
Cc1[nH+]nc2n1C(=O)N(Cc1ccc(F)cc1)C2=O (3D coordinates assigned)
Cc1[nH+]nc2n1C(=O)N(Cc1ccc(F)cc1)C2=O (nonaromatic ring conformer: 118.58869921358293 kcal/mol)

>  <smiles>  (7) 
Cc1nnc2n1C(=O)N(Cc1ccc(F)cc1)C2=O

>  <score_type>  (7) 
oracle

>  <origin>  (7) 
adg

>  <m_score__min__energy>  (7) 
-5.46

>  <m_primary>  (7) 
energy

$$$$
7:0
     RDKit          3D

 42 44  0  0  0  0  0  0  0  0999 V2000
   58.1680   28.7350   46.3670 C   0  0  0  0  0  0  0  0  0  0  0  0
   57.2550   29.7010   45.8600 O   0  0  0  0  0  0  0  0  0  0  0  0
   57.6220   30.9130   45.2530 C   0  0  0  0  0  0  0  0  0  0  0  0
   57.2520   31.1510   43.9120 C   0  0  0  0  0  0  0  0  0  0  0  0
   56.3430   29.9440   43.0170 Cl  0  0  0  0  0  0  0  0  0  0  0  0
   57.6050   32.3590   43.2700 C   0  0  0  0  0  0  0  0  0  0  0  0
   58.3310   33.3450   43.9550 C   0  0  0  0  0  0  0  0  0  0  0  0
   58.6890   33.0930   45.2790 C   0  0  0  0  0  0  0  0  0  0  0  0
   59.3860   33.8530   46.1970 C   0  0  0  0  0  0  0  0  0  0  0  0
   59.9590   35.2240   45.9970 C   0  0  0  0  0  0  0  0  0  0  0  0
   59.4160   33.0760   47.3590 C   0  0  0  0  0  0  0  0  0  0  0  0
   60.0280   33.4470   48.6570 C   0  0  0  0  0  0  0  0  0  0  0  0
   59.2820   33.8690   49.5850 O   0  0  0  0  0  0  0  0  0  0  0  0
   61.4460   33.3190   48.8970 N   0  0  0  0  0  0  0  0  0  0  0  0
   62.1320   34.2210   49.8370 C   0  0  0  0  0  0  0  0  0  0  0  0
   63.4240   33.5960   50.3720 C   0  0  0  0  0  0  0  0  0  0  0  0
   64.3620   33.1730   49.2290 C   0  0  0  0  0  0  0  0  0  0  0  0
   63.6280   32.5380   48.0150 C   0  0  2  0  0  0  0  0  0  0  0  0
   63.6800   33.4630   46.7880 C   0  0  0  0  0  0  0  0  0  0  0  0
   62.1710   32.1620   48.3450 C   0  0  0  0  0  0  0  0  0  0  0  0
   58.7870   31.9340   47.1470 O   0  0  0  0  0  0  0  0  0  0  0  0
   58.3470   31.9240   45.9100 C   0  0  0  0  0  0  0  0  0  0  0  0
   58.1494   28.7546   47.4667 H   0  0  0  0  0  0  0  0  0  0  0  0
   57.8775   27.7348   46.0132 H   0  0  0  0  0  0  0  0  0  0  0  0
   59.1830   28.9686   46.0132 H   0  0  0  0  0  0  0  0  0  0  0  0
   57.3082   32.5279   42.2244 H   0  0  0  0  0  0  0  0  0  0  0  0
   58.6094   34.2884   43.4625 H   0  0  0  0  0  0  0  0  0  0  0  0
   60.1525   35.6869   46.9759 H   0  0  0  0  0  0  0  0  0  0  0  0
   60.9011   35.1491   45.4342 H   0  0  0  0  0  0  0  0  0  0  0  0
   59.2438   35.8418   45.4342 H   0  0  0  0  0  0  0  0  0  0  0  0
   62.3770   35.1593   49.3179 H   0  0  0  0  0  0  0  0  0  0  0  0
   61.4608   34.4084   50.6881 H   0  0  0  0  0  0  0  0  0  0  0  0
   63.9414   34.3319   51.0050 H   0  0  0  0  0  0  0  0  0  0  0  0
   63.1591   32.6987   50.9505 H   0  0  0  0  0  0  0  0  0  0  0  0
   64.9047   34.0634   48.8787 H   0  0  0  0  0  0  0  0  0  0  0  0
   65.0334   32.4022   49.6353 H   0  0  0  0  0  0  0  0  0  0  0  0
   64.1624   31.6069   47.7753 H   0  0  0  0  0  0  0  0  0  0  0  0
   63.7389   34.5100   47.1203 H   0  0  0  0  0  0  0  0  0  0  0  0
   64.5659   33.2200   46.1829 H   0  0  0  0  0  0  0  0  0  0  0  0
   62.7724   33.3208   46.1829 H   0  0  0  0  0  0  0  0  0  0  0  0
   61.6681   31.8258   47.4263 H   0  0  0  0  0  0  0  0  0  0  0  0
   62.1751   31.3572   49.0949 H   0  0  0  0  0  0  0  0  0  0  0  0
  1  2  1  0
  2  3  1  0
  3  4  2  0
  4  5  1  0
  4  6  1  0
  6  7  2  0
  7  8  1  0
  8  9  1  0
  9 10  1  0
  9 11  2  0
 11 12  1  0
 12 13  2  0
 12 14  1  0
 14 15  1  0
 15 16  1  0
 16 17  1  0
 17 18  1  0
 18 19  1  0
 18 20  1  0
 11 21  1  0
 21 22  1  0
 22  3  1  0
 22  8  2  0
 20 14  1  0
  1 23  1  0
  1 24  1  0
  1 25  1  0
  6 26  1  0
  7 27  1  0
 10 28  1  0
 10 29  1  0
 10 30  1  0
 15 31  1  0
 15 32  1  0
 16 33  1  0
 16 34  1  0
 17 35  1  0
 17 36  1  0
 18 37  1  6
 19 38  1  0
 19 39  1  0
 19 40  1  0
 20 41  1  0
 20 42  1  0
M  END
>  <UniqueID>  (8) 
7

>  <SMILES>  (8) 
COc1c(Cl)ccc2c(C)c(C(=O)N3CCC[C@H](C)C3)oc12

>  <Energy>  (8) 
77.89606686177316

>  <Genealogy>  (8) 
COc1c(Cl)ccc2c(C)c(C(=O)N3CCC[C@H](C)C3)oc12 (chirality)
COc1c(Cl)ccc2c(C)c(C(=O)N3CCC[C@H](C)C3)oc12 (3D coordinates assigned)
COc1c(Cl)ccc2c(C)c(C(=O)N3CCC[C@H](C)C3)oc12 (nonaromatic ring conformer: 77.89606686177316 kcal/mol)

>  <smiles>  (8) 
COc1c(Cl)ccc2c(C)c(C(=O)N3CCCC(C)C3)oc12

>  <score_type>  (8) 
oracle

>  <origin>  (8) 
adg

>  <m_score__min__energy>  (8) 
-8.4600000000000009

>  <m_primary>  (8) 
energy

$$$$
8:0
     RDKit          3D

 47 50  0  0  0  0  0  0  0  0999 V2000
   65.4630   33.1130   50.1510 C   0  0  0  0  0  0  0  0  0  0  0  0
   64.6690   32.2740   49.1560 C   0  0  0  0  0  0  0  0  0  0  0  0
   63.3480   32.9270   48.8440 C   0  0  0  0  0  0  0  0  0  0  0  0
   62.8920   34.0050   49.6140 C   0  0  0  0  0  0  0  0  0  0  0  0
   61.6500   34.5890   49.3440 C   0  0  0  0  0  0  0  0  0  0  0  0
   60.8350   34.1000   48.3100 C   0  0  0  0  0  0  0  0  0  0  0  0
   59.5570   34.7360   48.0750 N   0  0  0  0  0  0  0  0  0  0  0  0
   58.7720   34.7310   46.8320 C   0  0  1  0  0  0  0  0  0  0  0  0
   59.6290   34.9860   45.5760 C   0  0  0  0  0  0  0  0  0  0  0  0
   59.2740   33.8810   44.5580 C   0  0  0  0  0  0  0  0  0  0  0  0
   58.3860   32.9600   45.2510 N   0  0  0  0  0  0  0  0  0  0  0  0
   58.0100   31.6660   44.7590 C   0  0  0  0  0  0  0  0  0  0  0  0
   57.1020   31.5780   43.6940 C   0  0  0  0  0  0  0  0  0  0  0  0
   56.7420   30.3370   43.1680 C   0  0  0  0  0  0  0  0  0  0  0  0
   57.2820   29.1650   43.6980 C   0  0  0  0  0  0  0  0  0  0  0  0
   58.1850   29.2250   44.7700 C   0  0  0  0  0  0  0  0  0  0  0  0
   58.7190   28.0450   45.3100 C   0  0  0  0  0  0  0  0  0  0  0  0
   59.6050   28.1030   46.3870 C   0  0  0  0  0  0  0  0  0  0  0  0
   59.9600   29.3350   46.9380 C   0  0  0  0  0  0  0  0  0  0  0  0
   59.4380   30.5190   46.4110 C   0  0  0  0  0  0  0  0  0  0  0  0
   58.5530   30.4830   45.3140 C   0  0  0  0  0  0  0  0  0  0  0  0
   58.1320   33.4270   46.5620 C   0  0  0  0  0  0  0  0  0  0  0  0
   57.4250   32.7990   47.3960 O   0  0  0  0  0  0  0  0  0  0  0  0
   61.2980   33.0120   47.5440 C   0  0  0  0  0  0  0  0  0  0  0  0
   62.5390   32.4280   47.8150 C   0  0  0  0  0  0  0  0  0  0  0  0
   65.1887   32.8232   51.1761 H   0  0  0  0  0  0  0  0  0  0  0  0
   66.5389   32.9432   49.9974 H   0  0  0  0  0  0  0  0  0  0  0  0
   65.2342   34.1779   49.9974 H   0  0  0  0  0  0  0  0  0  0  0  0
   65.2490   32.1705   48.2271 H   0  0  0  0  0  0  0  0  0  0  0  0
   64.4789   31.2854   49.5993 H   0  0  0  0  0  0  0  0  0  0  0  0
   63.5133   34.3937   50.4343 H   0  0  0  0  0  0  0  0  0  0  0  0
   61.3075   35.4416   49.9488 H   0  0  0  0  0  0  0  0  0  0  0  0
   59.1040   35.2110   48.8890 H   0  0  0  0  0  0  0  0  0  0  0  0
   58.0362   35.5308   47.0022 H   0  0  0  0  0  0  0  0  0  0  0  0
   59.3983   35.9759   45.1554 H   0  0  0  0  0  0  0  0  0  0  0  0
   60.7013   34.9658   45.8206 H   0  0  0  0  0  0  0  0  0  0  0  0
   58.7659   34.3161   43.6848 H   0  0  0  0  0  0  0  0  0  0  0  0
   60.1760   33.3688   44.1919 H   0  0  0  0  0  0  0  0  0  0  0  0
   56.6696   32.4960   43.2694 H   0  0  0  0  0  0  0  0  0  0  0  0
   56.0294   30.2824   42.3318 H   0  0  0  0  0  0  0  0  0  0  0  0
   56.9988   28.1904   43.2739 H   0  0  0  0  0  0  0  0  0  0  0  0
   58.4384   27.0709   44.8830 H   0  0  0  0  0  0  0  0  0  0  0  0
   60.0246   27.1750   46.8026 H   0  0  0  0  0  0  0  0  0  0  0  0
   60.6537   29.3741   47.7908 H   0  0  0  0  0  0  0  0  0  0  0  0
   59.7193   31.4854   46.8548 H   0  0  0  0  0  0  0  0  0  0  0  0
   60.6775   32.6185   46.7254 H   0  0  0  0  0  0  0  0  0  0  0  0
   62.8823   31.5713   47.2165 H   0  0  0  0  0  0  0  0  0  0  0  0
  1  2  1  0
  2  3  1  0
  3  4  2  0
  4  5  1  0
  5  6  2  0
  6  7  1  0
  7  8  1  0
  8  9  1  0
  9 10  1  0
 10 11  1  0
 11 12  1  0
 12 13  2  0
 13 14  1  0
 14 15  2  0
 15 16  1  0
 16 17  2  0
 17 18  1  0
 18 19  2  0
 19 20  1  0
 20 21  2  0
 11 22  1  0
 22 23  2  0
  6 24  1  0
 24 25  2  0
 25  3  1  0
 22  8  1  0
 21 12  1  0
 21 16  1  0
  1 26  1  0
  1 27  1  0
  1 28  1  0
  2 29  1  0
  2 30  1  0
  4 31  1  0
  5 32  1  0
  7 33  1  0
  8 34  1  1
  9 35  1  0
  9 36  1  0
 10 37  1  0
 10 38  1  0
 13 39  1  0
 14 40  1  0
 15 41  1  0
 17 42  1  0
 18 43  1  0
 19 44  1  0
 20 45  1  0
 24 46  1  0
 25 47  1  0
M  END
>  <UniqueID>  (9) 
8

>  <SMILES>  (9) 
CCc1ccc(N[C@H]2CCN(c3cccc4ccccc34)C2=O)cc1

>  <Energy>  (9) 
66.74272143423953

>  <Genealogy>  (9) 
CCc1ccc(N[C@H]2CCN(c3cccc4ccccc34)C2=O)cc1 (chirality)
CCc1ccc(N[C@H]2CCN(c3cccc4ccccc34)C2=O)cc1 (3D coordinates assigned)
CCc1ccc(N[C@H]2CCN(c3cccc4ccccc34)C2=O)cc1 (nonaromatic ring conformer: 66.74272143423953 kcal/mol)

>  <smiles>  (9) 
CCc1ccc(NC2CCN(c3cccc4ccccc34)C2=O)cc1

>  <score_type>  (9) 
oracle

>  <origin>  (9) 
adg

>  <m_score__min__energy>  (9) 
-8.6999999999999993

>  <m_primary>  (9) 
energy

$$$$
9:0
     RDKit          3D

 50 51  0  0  0  0  0  0  0  0999 V2000
   55.9499   30.5012   45.0878 H   0  0  0  0  0  0  0  0  0  0  0  0
   56.8620   30.6180   44.4840 C   0  0  0  0  0  0  0  0  0  0  0  0
   57.3450   31.8400   44.2540 C   0  0  0  0  0  0  0  0  0  0  0  0
   57.9651   32.0205   43.3636 H   0  0  0  0  0  0  0  0  0  0  0  0
   59.0030   33.9330   46.4130 C   0  0  0  0  0  0  0  0  0  0  0  0
   60.3280   33.9000   45.9570 C   0  0  0  0  0  0  0  0  0  0  0  0
   60.5343   33.9291   44.8769 H   0  0  0  0  0  0  0  0  0  0  0  0
   60.7600   30.3670   47.3440 C   0  0  0  0  0  0  0  0  0  0  0  0
   61.6444   30.9970   47.5198 H   0  0  0  0  0  0  0  0  0  0  0  0
   60.0690   29.8170   48.4430 C   0  0  0  0  0  0  0  0  0  0  0  0
   60.5080   30.0720   49.8040 N   0  0  0  0  0  0  0  0  0  0  0  0
   59.7660   29.5190   50.9430 C   0  0  0  0  0  0  0  0  0  0  0  0
   60.2260   29.8618   51.8815 H   0  0  0  0  0  0  0  0  0  0  0  0
   58.7212   29.8605   50.9006 H   0  0  0  0  0  0  0  0  0  0  0  0
   59.7946   28.4202   50.9006 H   0  0  0  0  0  0  0  0  0  0  0  0
   61.7010   30.8870   50.0640 C   0  0  0  0  0  0  0  0  0  0  0  0
   61.8473   30.9869   51.1496 H   0  0  0  0  0  0  0  0  0  0  0  0
   62.5814   30.4008   49.6186 H   0  0  0  0  0  0  0  0  0  0  0  0
   61.5682   31.8840   49.6186 H   0  0  0  0  0  0  0  0  0  0  0  0
   58.9440   29.0090   48.1840 C   0  0  0  0  0  0  0  0  0  0  0  0
   58.3900   28.5645   49.0239 H   0  0  0  0  0  0  0  0  0  0  0  0
   58.7460   33.8430   47.7910 C   0  0  0  0  0  0  0  0  0  0  0  0
   57.7065   33.8266   48.1505 H   0  0  0  0  0  0  0  0  0  0  0  0
   57.9010   33.9660   45.4270 C   0  0  0  0  0  0  0  0  0  0  0  0
   57.7633   34.8929   44.8509 H   0  0  0  0  0  0  0  0  0  0  0  0
   58.7210   29.0300   44.4140 C   0  0  0  0  0  0  0  0  0  0  0  0
   59.3789   28.4539   43.7467 H   0  0  0  0  0  0  0  0  0  0  0  0
   57.5310   29.4220   43.9420 C   0  0  0  0  0  0  0  0  0  0  0  0
   57.0471   28.8447   43.1404 H   0  0  0  0  0  0  0  0  0  0  0  0
   57.0570   32.9540   45.1810 C   0  0  0  0  0  0  0  0  0  0  0  0
   56.0884   32.9528   45.7024 H   0  0  0  0  0  0  0  0  0  0  0  0
   59.2040   29.3280   45.7860 C   0  0  0  0  0  0  0  0  0  0  0  0
   60.3370   30.1230   46.0340 C   0  0  0  0  0  0  0  0  0  0  0  0
   60.8948   30.5563   45.1908 H   0  0  0  0  0  0  0  0  0  0  0  0
   61.3960   33.8300   46.8700 C   0  0  0  0  0  0  0  0  0  0  0  0
   62.7370   33.8130   46.4580 O   0  0  0  0  0  0  0  0  0  0  0  0
   63.7760   33.1030   47.1250 C   0  0  0  0  0  0  0  0  0  0  0  0
   63.6425   33.1942   48.2130 H   0  0  0  0  0  0  0  0  0  0  0  0
   63.7373   32.0417   46.8385 H   0  0  0  0  0  0  0  0  0  0  0  0
   64.7507   33.5247   46.8385 H   0  0  0  0  0  0  0  0  0  0  0  0
   61.1230   33.7740   48.2420 C   0  0  0  0  0  0  0  0  0  0  0  0
   61.9544   33.7295   48.9609 H   0  0  0  0  0  0  0  0  0  0  0  0
   59.7970   33.7740   48.7110 C   0  0  0  0  0  0  0  0  0  0  0  0
   59.4820   33.7020   50.0760 O   0  0  0  0  0  0  0  0  0  0  0  0
   58.6730   32.6880   50.6620 C   0  0  0  0  0  0  0  0  0  0  0  0
   58.7309   32.7605   51.7581 H   0  0  0  0  0  0  0  0  0  0  0  0
   57.6294   32.8201   50.3404 H   0  0  0  0  0  0  0  0  0  0  0  0
   59.0335   31.6998   50.3404 H   0  0  0  0  0  0  0  0  0  0  0  0
   58.5230   28.7650   46.8740 C   0  0  0  0  0  0  0  0  0  0  0  0
   57.6473   28.1239   46.6947 H   0  0  0  0  0  0  0  0  0  0  0  0
  1  2  1  0
  2  3  2  0
  3  4  1  0
  3  5  1  0
  5  6  2  0
  6  7  1  0
  6  8  1  0
  8  9  1  0
  8 10  2  0
 10 11  1  0
 11 12  1  0
 12 13  1  0
 12 14  1  0
 12 15  1  0
 11 16  1  0
 16 17  1  0
 16 18  1  0
 16 19  1  0
 10 20  1  0
 20 21  1  0
 20 22  2  0
 22 23  1  0
  2 24  1  0
 24 25  1  0
 24 26  2  0
 26 27  1  0
 26 28  1  0
 28 29  1  0
 28 30  2  0
 30 31  1  0
 30 32  1  0
 32 33  2  0
 33 34  1  0
 33 35  1  0
 35 36  1  0
 36 37  1  0
 37 38  1  0
 37 39  1  0
 37 40  1  0
 35 41  2  0
 41 42  1  0
 41 43  1  0
 43 44  1  0
 44 45  1  0
 45 46  1  0
 45 47  1  0
 45 48  1  0
 43 49  2  0
 49 50  1  0
 22  5  1  0
 49 32  1  0
M  END
>  <UniqueID>  (10) 
9

>  <SMILES>  (10) 
COc1cc(/C=C\C=C\C=Cc2ccc(N(C)C)cc2)cc(OC)c1

>  <Energy>  (10) 
54.630762149933574

>  <Genealogy>  (10) 
COc1cc(/C=C\C=C\C=Cc2ccc(N(C)C)cc2)cc(OC)c1 (cis-trans isomerization)
COc1cc(/C=C\C=C\C=Cc2ccc(N(C)C)cc2)cc(OC)c1 (3D coordinates assigned)
COc1cc(/C=C\C=C\C=Cc2ccc(N(C)C)cc2)cc(OC)c1 (optimized conformer: 54.630762149933574 kcal/mol)

>  <smiles>  (10) 
COc1cc(C=CC=CC=Cc2ccc(N(C)C)cc2)cc(OC)c1

>  <score_type>  (10) 
oracle

>  <origin>  (10) 
adg

>  <m_score__min__energy>  (10) 
-7.6500000000000004

>  <m_primary>  (10) 
energy

$$$$
10:0
     RDKit          3D

 30 32  0  0  0  0  0  0  0  0999 V2000
   60.8360   29.3770   45.9830 C   0  0  0  0  0  0  0  0  0  0  0  0
   59.5630   29.1940   45.2940 N   0  0  0  0  0  0  0  0  0  0  0  0
   59.1110   27.8820   44.8250 C   0  0  0  0  0  0  0  0  0  0  0  0
   57.6960   28.0950   44.2510 C   0  0  0  0  0  0  0  0  0  0  0  0
   57.4530   29.5450   44.4760 C   0  0  0  0  0  0  0  0  0  0  0  0
   58.5310   30.1540   45.0570 C   0  0  0  0  0  0  0  0  0  0  0  0
   58.4960   31.5380   45.3530 C   0  0  0  0  0  0  0  0  0  0  0  0
   57.2760   32.2150   45.0630 C   0  0  0  0  0  0  0  0  0  0  0  0
   56.2570   31.5640   44.4950 O   0  0  0  0  0  0  0  0  0  0  0  0
   56.3000   30.2710   44.1910 C   0  0  0  0  0  0  0  0  0  0  0  0
   55.3050   29.7150   43.6590 O   0  0  0  0  0  0  0  0  0  0  0  0
   57.0990   33.6840   45.3360 C   0  0  0  0  0  0  0  0  0  0  0  0
   58.0860   34.2050   46.3780 C   0  0  0  0  0  0  0  0  0  0  0  0
   59.5040   33.7870   46.0030 C   0  0  0  0  0  0  0  0  0  0  0  0
   59.6450   32.2610   46.0240 C   0  0  0  0  0  0  0  0  0  0  0  0
   60.6711   29.3533   47.0703 H   0  0  0  0  0  0  0  0  0  0  0  0
   61.5261   28.5688   45.6991 H   0  0  0  0  0  0  0  0  0  0  0  0
   61.2705   30.3468   45.6991 H   0  0  0  0  0  0  0  0  0  0  0  0
   59.7863   27.5027   44.0439 H   0  0  0  0  0  0  0  0  0  0  0  0
   59.1059   27.1443   45.6410 H   0  0  0  0  0  0  0  0  0  0  0  0
   57.6645   27.8514   43.1788 H   0  0  0  0  0  0  0  0  0  0  0  0
   56.9379   27.4522   44.7223 H   0  0  0  0  0  0  0  0  0  0  0  0
   57.2500   34.2384   44.3980 H   0  0  0  0  0  0  0  0  0  0  0  0
   56.0835   33.8317   45.7323 H   0  0  0  0  0  0  0  0  0  0  0  0
   58.0279   35.3027   46.4189 H   0  0  0  0  0  0  0  0  0  0  0  0
   57.8316   33.7828   47.3614 H   0  0  0  0  0  0  0  0  0  0  0  0
   59.7337   34.1565   44.9927 H   0  0  0  0  0  0  0  0  0  0  0  0
   60.2035   34.2159   46.7357 H   0  0  0  0  0  0  0  0  0  0  0  0
   60.5767   31.9904   45.5055 H   0  0  0  0  0  0  0  0  0  0  0  0
   59.6493   31.9514   47.0795 H   0  0  0  0  0  0  0  0  0  0  0  0
  1  2  1  0
  2  3  1  0
  3  4  1  0
  4  5  1  0
  5  6  2  0
  6  7  1  0
  7  8  2  0
  8  9  1  0
  9 10  1  0
 10 11  2  0
  8 12  1  0
 12 13  1  0
 13 14  1  0
 14 15  1  0
  6  2  1  0
 15  7  1  0
 10  5  1  0
  1 16  1  0
  1 17  1  0
  1 18  1  0
  3 19  1  0
  3 20  1  0
  4 21  1  0
  4 22  1  0
 12 23  1  0
 12 24  1  0
 13 25  1  0
 13 26  1  0
 14 27  1  0
 14 28  1  0
 15 29  1  0
 15 30  1  0
M  END
>  <UniqueID>  (11) 
10

>  <SMILES>  (11) 
CN1CCc2c1c1c(oc2=O)CCCC1

>  <Energy>  (11) 
48.08674108250995

>  <Genealogy>  (11) 
CN1CCc2c1c1c(oc2=O)CCCC1 (3D coordinates assigned)
CN1CCc2c1c1c(oc2=O)CCCC1 (nonaromatic ring conformer: 48.08674108250995 kcal/mol)

>  <smiles>  (11) 
CN1CCc2c1c1c(oc2=O)CCCC1

>  <score_type>  (11) 
oracle

>  <origin>  (11) 
adg

>  <m_score__min__energy>  (11) 
-6.4299999999999997

>  <m_primary>  (11) 
energy

$$$$
11:0
     RDKit          3D

 50 53  0  0  0  0  0  0  0  0999 V2000
   55.0010   25.1610   45.6060 C   0  0  0  0  0  0  0  0  0  0  0  0
   55.7470   26.2020   46.2290 O   0  0  0  0  0  0  0  0  0  0  0  0
   57.1450   26.2160   46.3370 C   0  0  0  0  0  0  0  0  0  0  0  0
   57.9760   25.4670   45.4820 C   0  0  0  0  0  0  0  0  0  0  0  0
   59.3640   25.5190   45.6290 C   0  0  0  0  0  0  0  0  0  0  0  0
   59.9340   26.3020   46.6350 C   0  0  0  0  0  0  0  0  0  0  0  0
   59.1220   27.0320   47.5110 C   0  0  0  0  0  0  0  0  0  0  0  0
   59.7550   27.7960   48.5450 N   0  0  0  0  0  0  0  0  0  0  0  0
   59.4360   29.1280   48.9710 C   0  0  0  0  0  0  0  0  0  0  0  0
   58.2480   29.4660   49.2210 O   0  0  0  0  0  0  0  0  0  0  0  0
   60.5430   30.1010   49.2150 C   0  0  0  0  0  0  0  0  0  0  0  0
   61.4390   30.5030   47.6700 S   0  0  0  0  0  0  0  0  0  0  0  0
   59.9670   30.7300   46.6550 C   0  0  0  0  0  0  0  0  0  0  0  0
   59.5780   29.7160   45.8370 N   0  0  0  0  0  0  0  0  0  0  0  0
   58.5100   29.8390   45.0110 C   0  0  0  0  0  0  0  0  0  0  0  0
   58.1400   28.7900   44.1610 C   0  0  0  0  0  0  0  0  0  0  0  0
   57.0450   28.9460   43.3020 C   0  0  0  0  0  0  0  0  0  0  0  0
   56.3190   30.1420   43.2940 C   0  0  0  0  0  0  0  0  0  0  0  0
   56.6870   31.1920   44.1420 C   0  0  0  0  0  0  0  0  0  0  0  0
   57.7830   31.0430   44.9990 C   0  0  0  0  0  0  0  0  0  0  0  0
   58.1520   32.0480   45.8330 N   0  0  0  0  0  0  0  0  0  0  0  0
   59.2190   31.9310   46.6710 C   0  0  0  0  0  0  0  0  0  0  0  0
   59.5160   33.0680   47.6120 C   0  0  0  0  0  0  0  0  0  0  0  0
   60.9790   33.4210   47.6210 C   0  0  0  0  0  0  0  0  0  0  0  0
   61.6700   33.5630   48.8390 C   0  0  0  0  0  0  0  0  0  0  0  0
   63.0390   33.8480   48.8460 C   0  0  0  0  0  0  0  0  0  0  0  0
   63.7300   33.9900   47.6380 C   0  0  0  0  0  0  0  0  0  0  0  0
   63.0540   33.8420   46.4250 C   0  0  0  0  0  0  0  0  0  0  0  0
   61.6850   33.5540   46.4140 C   0  0  0  0  0  0  0  0  0  0  0  0
   57.7260   27.0070   47.3370 C   0  0  0  0  0  0  0  0  0  0  0  0
   54.5447   24.5242   46.3782 H   0  0  0  0  0  0  0  0  0  0  0  0
   54.2110   25.6005   44.9793 H   0  0  0  0  0  0  0  0  0  0  0  0
   55.6711   24.5542   44.9793 H   0  0  0  0  0  0  0  0  0  0  0  0
   57.5308   24.8392   44.6961 H   0  0  0  0  0  0  0  0  0  0  0  0
   60.0096   24.9418   44.9507 H   0  0  0  0  0  0  0  0  0  0  0  0
   61.0281   26.3454   46.7398 H   0  0  0  0  0  0  0  0  0  0  0  0
   60.1195   31.0261   49.6332 H   0  0  0  0  0  0  0  0  0  0  0  0
   61.2554   29.6429   49.9169 H   0  0  0  0  0  0  0  0  0  0  0  0
   58.7069   27.8473   44.1678 H   0  0  0  0  0  0  0  0  0  0  0  0
   56.7544   28.1246   42.6306 H   0  0  0  0  0  0  0  0  0  0  0  0
   55.4574   30.2569   42.6198 H   0  0  0  0  0  0  0  0  0  0  0  0
   56.1162   32.1323   44.1351 H   0  0  0  0  0  0  0  0  0  0  0  0
   58.9392   33.9502   47.2972 H   0  0  0  0  0  0  0  0  0  0  0  0
   59.2350   32.7524   48.6276 H   0  0  0  0  0  0  0  0  0  0  0  0
   61.1301   33.4492   49.7906 H   0  0  0  0  0  0  0  0  0  0  0  0
   63.5725   33.9605   49.8014 H   0  0  0  0  0  0  0  0  0  0  0  0
   64.8060   34.2183   47.6436 H   0  0  0  0  0  0  0  0  0  0  0  0
   63.5992   33.9521   45.4760 H   0  0  0  0  0  0  0  0  0  0  0  0
   61.1591   33.4311   45.4557 H   0  0  0  0  0  0  0  0  0  0  0  0
   57.0845   27.6144   47.9924 H   0  0  0  0  0  0  0  0  0  0  0  0
  1  2  1  0
  2  3  1  0
  3  4  2  0
  4  5  1  0
  5  6  2  0
  6  7  1  0
  7  8  1  0
  8  9  1  0
  9 10  2  0
  9 11  1  0
 11 12  1  0
 12 13  1  0
 13 14  2  0
 14 15  1  0
 15 16  2  0
 16 17  1  0
 17 18  2  0
 18 19  1  0
 19 20  2  0
 20 21  1  0
 21 22  2  0
 22 23  1  0
 23 24  1  0
 24 25  2  0
 25 26  1  0
 26 27  2  0
 27 28  1  0
 28 29  2  0
  7 30  2  0
 30  3  1  0
 22 13  1  0
 29 24  1  0
 20 15  1  0
  1 31  1  0
  1 32  1  0
  1 33  1  0
  4 34  1  0
  5 35  1  0
  6 36  1  0
 11 37  1  0
 11 38  1  0
 16 39  1  0
 17 40  1  0
 18 41  1  0
 19 42  1  0
 23 43  1  0
 23 44  1  0
 25 45  1  0
 26 46  1  0
 27 47  1  0
 28 48  1  0
 29 49  1  0
 30 50  1  0
M  CHG  1   8  -1
M  END
>  <UniqueID>  (12) 
11

>  <SMILES>  (12) 
COc1cccc([N-]C(=O)CSc2nc3ccccc3nc2Cc2ccccc2)c1

>  <Energy>  (12) 
51.005822243809824

>  <Genealogy>  (12) 
COc1cccc([N-]C(=O)CSc2nc3ccccc3nc2Cc2ccccc2)c1 (protonated)
COc1cccc([N-]C(=O)CSc2nc3ccccc3nc2Cc2ccccc2)c1 (3D coordinates assigned)
COc1cccc([N-]C(=O)CSc2nc3ccccc3nc2Cc2ccccc2)c1 (optimized conformer: 51.005822243809824 kcal/mol)

>  <smiles>  (12) 
COc1cccc(NC(=O)CSc2nc3ccccc3nc2Cc2ccccc2)c1

>  <score_type>  (12) 
oracle

>  <origin>  (12) 
adg

>  <m_score__min__energy>  (12) 
-10.25

>  <m_primary>  (12) 
energy

$$$$
12:0
     RDKit          3D

 43 45  0  0  0  0  0  0  0  0999 V2000
   58.7440   32.1620   48.8230 C   0  0  0  0  0  0  0  0  0  0  0  0
   59.4860   33.1820   47.9440 C   0  0  0  0  0  0  0  0  0  0  0  0
   59.3820   34.5770   48.5950 C   0  0  0  0  0  0  0  0  0  0  0  0
   60.9210   32.8260   47.9100 C   0  0  0  0  0  0  0  0  0  0  0  0
   62.0920   32.5450   47.8790 C   0  0  0  0  0  0  0  0  0  0  0  0
   63.5220   32.2130   47.8340 C   0  0  0  0  0  0  0  0  0  0  0  0
   64.4210   33.2550   48.4780 C   0  0  0  0  0  0  0  0  0  0  0  0
   64.1370   31.9460   49.1980 C   0  0  0  0  0  0  0  0  0  0  0  0
   58.9150   33.1280   46.5180 C   0  0  0  0  0  0  0  0  0  0  0  0
   59.5330   33.8610   45.4840 C   0  0  0  0  0  0  0  0  0  0  0  0
   59.0660   33.7950   44.2110 N   0  0  0  0  0  0  0  0  0  0  0  0
   58.0060   33.0200   43.8720 C   0  0  0  0  0  0  0  0  0  0  0  0
   57.3660   32.2420   44.8460 C   0  0  0  0  0  0  0  0  0  0  0  0
   56.2560   31.3870   44.5390 N   0  0  0  0  0  0  0  0  0  0  0  0
   56.3790   29.7290   44.0480 S   0  0  0  0  0  0  0  0  0  0  0  0
   56.4640   29.6650   42.5490 O   0  0  0  0  0  0  0  0  0  0  0  0
   55.1500   28.9900   44.4980 O   0  0  0  0  0  0  0  0  0  0  0  0
   57.7940   28.9840   44.7910 C   0  0  0  0  0  0  0  0  0  0  0  0
   59.0780   29.4830   44.5230 C   0  0  0  0  0  0  0  0  0  0  0  0
   60.1990   28.8990   45.1230 C   0  0  0  0  0  0  0  0  0  0  0  0
   60.0440   27.8130   45.9880 C   0  0  0  0  0  0  0  0  0  0  0  0
   58.7690   27.3090   46.2560 C   0  0  0  0  0  0  0  0  0  0  0  0
   57.6440   27.8890   45.6590 C   0  0  0  0  0  0  0  0  0  0  0  0
   56.4150   27.3820   45.9260 F   0  0  0  0  0  0  0  0  0  0  0  0
   57.8290   32.2960   46.1650 C   0  0  0  0  0  0  0  0  0  0  0  0
   58.9158   32.3982   49.8835 H   0  0  0  0  0  0  0  0  0  0  0  0
   57.6663   32.2073   48.6072 H   0  0  0  0  0  0  0  0  0  0  0  0
   59.1189   31.1506   48.6072 H   0  0  0  0  0  0  0  0  0  0  0  0
   59.3898   34.4721   49.6900 H   0  0  0  0  0  0  0  0  0  0  0  0
   60.2367   35.1935   48.2796 H   0  0  0  0  0  0  0  0  0  0  0  0
   58.4454   35.0599   48.2796 H   0  0  0  0  0  0  0  0  0  0  0  0
   63.5058   31.6870   46.8680 H   0  0  0  0  0  0  0  0  0  0  0  0
   65.4216   33.4494   48.0644 H   0  0  0  0  0  0  0  0  0  0  0  0
   64.3190   34.3204   48.7318 H   0  0  0  0  0  0  0  0  0  0  0  0
   64.9320   31.1934   49.3052 H   0  0  0  0  0  0  0  0  0  0  0  0
   63.7444   31.6720   50.1884 H   0  0  0  0  0  0  0  0  0  0  0  0
   60.4036   34.4936   45.7115 H   0  0  0  0  0  0  0  0  0  0  0  0
   57.6484   33.0021   42.8319 H   0  0  0  0  0  0  0  0  0  0  0  0
   59.2035   30.3356   43.8394 H   0  0  0  0  0  0  0  0  0  0  0  0
   61.2034   29.2954   44.9134 H   0  0  0  0  0  0  0  0  0  0  0  0
   60.9264   27.3545   46.4583 H   0  0  0  0  0  0  0  0  0  0  0  0
   58.6490   26.4542   46.9379 H   0  0  0  0  0  0  0  0  0  0  0  0
   57.3413   31.6829   46.9372 H   0  0  0  0  0  0  0  0  0  0  0  0
  1  2  1  0
  2  3  1  0
  2  4  1  0
  4  5  3  0
  5  6  1  0
  6  7  1  0
  7  8  1  0
  2  9  1  0
  9 10  2  0
 10 11  1  0
 11 12  2  0
 12 13  1  0
 13 14  1  0
 14 15  1  0
 15 16  2  0
 15 17  2  0
 15 18  1  0
 18 19  2  0
 19 20  1  0
 20 21  2  0
 21 22  1  0
 22 23  2  0
 23 24  1  0
 13 25  2  0
  8  6  1  0
 25  9  1  0
 23 18  1  0
  1 26  1  0
  1 27  1  0
  1 28  1  0
  3 29  1  0
  3 30  1  0
  3 31  1  0
  6 32  1  0
  7 33  1  0
  7 34  1  0
  8 35  1  0
  8 36  1  0
 10 37  1  0
 12 38  1  0
 19 39  1  0
 20 40  1  0
 21 41  1  0
 22 42  1  0
 25 43  1  0
M  CHG  1  14  -1
M  END
>  <UniqueID>  (13) 
12

>  <SMILES>  (13) 
CC(C)(C#CC1CC1)c1cncc([N-]S(=O)(=O)c2ccccc2F)c1

>  <Energy>  (13) 
309.21295007120824

>  <Genealogy>  (13) 
CC(C)(C#CC1CC1)c1cncc([N-]S(=O)(=O)c2ccccc2F)c1 (protonated)
CC(C)(C#CC1CC1)c1cncc([N-]S(=O)(=O)c2ccccc2F)c1 (3D coordinates assigned)
CC(C)(C#CC1CC1)c1cncc([N-]S(=O)(=O)c2ccccc2F)c1 (nonaromatic ring conformer: 309.21295007120824 kcal/mol)

>  <smiles>  (13) 
CC(C)(C#CC1CC1)c1cncc(NS(=O)(=O)c2ccccc2F)c1

>  <score_type>  (13) 
oracle

>  <origin>  (13) 
adg

>  <m_score__min__energy>  (13) 
-9.7699999999999996

>  <m_primary>  (13) 
energy

$$$$
13:0
     RDKit          3D

 34 36  0  0  0  0  0  0  0  0999 V2000
   63.8515   31.1933   47.8743 H   0  0  0  0  0  0  0  0  0  0  0  0
   63.1490   31.9520   47.4990 C   0  0  0  0  0  0  0  0  0  0  0  0
   61.4790   31.9360   47.7080 S   0  0  0  0  0  0  0  0  0  0  0  0
   61.1880   33.3650   46.8770 C   0  0  0  0  0  0  0  0  0  0  0  0
   59.6080   34.0920   46.6510 S   0  0  0  0  0  0  0  0  0  0  0  0
   59.1930   34.8330   47.8920 O   0  0  0  0  0  0  0  0  0  0  0  0
   59.6720   35.0540   45.5010 O   0  0  0  0  0  0  0  0  0  0  0  0
   58.4400   32.8600   46.3010 N   0  0  0  0  0  0  0  0  0  0  0  0
   58.2270   32.3620   45.1190 C   0  0  0  0  0  0  0  0  0  0  0  0
   57.7760   33.0510   44.0020 C   0  0  0  0  0  0  0  0  0  0  0  0
   57.4927   34.1113   43.9272 H   0  0  0  0  0  0  0  0  0  0  0  0
   57.7660   32.0920   43.0040 C   0  0  0  0  0  0  0  0  0  0  0  0
   57.4270   32.3260   41.5690 C   0  0  0  0  0  0  0  0  0  0  0  0
   56.5234   32.9497   41.5027 H   0  0  0  0  0  0  0  0  0  0  0  0
   58.2641   32.8395   41.0735 H   0  0  0  0  0  0  0  0  0  0  0  0
   57.2437   31.3612   41.0735 H   0  0  0  0  0  0  0  0  0  0  0  0
   58.2040   30.9180   43.5000 N   0  0  0  0  0  0  0  0  0  0  0  0
   58.3060   30.0250   42.9670 H   0  0  0  0  0  0  0  0  0  0  0  0
   58.4720   31.0740   44.7880 N   0  0  0  0  0  0  0  0  0  0  0  0
   58.9600   30.0220   45.6440 C   0  0  0  0  0  0  0  0  0  0  0  0
   58.5220   29.9170   46.9770 C   0  0  0  0  0  0  0  0  0  0  0  0
   57.8052   30.6491   47.3773 H   0  0  0  0  0  0  0  0  0  0  0  0
   58.9940   28.8860   47.7950 C   0  0  0  0  0  0  0  0  0  0  0  0
   58.6501   28.8112   48.8372 H   0  0  0  0  0  0  0  0  0  0  0  0
   59.9010   27.9510   47.2920 C   0  0  0  0  0  0  0  0  0  0  0  0
   60.2745   27.1437   47.9391 H   0  0  0  0  0  0  0  0  0  0  0  0
   60.3340   28.0410   45.9670 C   0  0  0  0  0  0  0  0  0  0  0  0
   61.0463   27.3025   45.5704 H   0  0  0  0  0  0  0  0  0  0  0  0
   59.8630   29.0690   45.1440 C   0  0  0  0  0  0  0  0  0  0  0  0
   60.2015   29.1317   44.0993 H   0  0  0  0  0  0  0  0  0  0  0  0
   62.3930   33.8810   46.4230 C   0  0  0  0  0  0  0  0  0  0  0  0
   62.4770   34.8159   45.8495 H   0  0  0  0  0  0  0  0  0  0  0  0
   63.4900   33.0860   46.7720 C   0  0  0  0  0  0  0  0  0  0  0  0
   64.5254   33.3353   46.4967 H   0  0  0  0  0  0  0  0  0  0  0  0
  1  2  1  0
  2  3  1  0
  3  4  1  0
  4  5  1  0
  5  6  2  0
  5  7  2  0
  5  8  1  0
  8  9  2  0
  9 10  1  0
 10 11  1  0
 10 12  2  0
 12 13  1  0
 13 14  1  0
 13 15  1  0
 13 16  1  0
 12 17  1  0
 17 18  1  0
 17 19  1  0
 19 20  1  0
 20 21  2  0
 21 22  1  0
 21 23  1  0
 23 24  1  0
 23 25  2  0
 25 26  1  0
 25 27  1  0
 27 28  1  0
 27 29  2  0
 29 30  1  0
  4 31  2  0
 31 32  1  0
 31 33  1  0
 33 34  1  0
 33  2  2  0
 19  9  1  0
 29 20  1  0
M  END
>  <UniqueID>  (14) 
13

>  <SMILES>  (14) 
Cc1c/c(=N\S(=O)(=O)c2cccs2)n(-c2ccccc2)[nH]1

>  <Energy>  (14) 
100.63681456217759

>  <Genealogy>  (14) 
Cc1c/c(=N\S(=O)(=O)c2cccs2)n(-c2ccccc2)[nH]1 (cis-trans isomerization)
Cc1c/c(=N\S(=O)(=O)c2cccs2)n(-c2ccccc2)[nH]1 (3D coordinates assigned)
Cc1c/c(=N\S(=O)(=O)c2cccs2)n(-c2ccccc2)[nH]1 (optimized conformer: 100.63681456217759 kcal/mol)

>  <smiles>  (14) 
Cc1cc(=NS(=O)(=O)c2cccs2)n(-c2ccccc2)[nH]1

>  <score_type>  (14) 
oracle

>  <origin>  (14) 
adg

>  <m_score__min__energy>  (14) 
-7.5700000000000003

>  <m_primary>  (14) 
energy

$$$$
14:0
     RDKit          3D

 43 44  0  0  0  0  0  0  0  0999 V2000
   55.5720   29.7430   46.0960 H   0  0  0  0  0  0  0  0  0  0  0  0
   56.0360   29.6980   45.1990 O   0  0  0  0  0  0  0  0  0  0  0  0
   56.8320   30.7400   44.7850 N   0  0  0  0  0  0  0  0  0  0  0  0
   58.0210   30.9680   45.2620 C   0  0  0  0  0  0  0  0  0  0  0  0
   58.4730   32.3690   45.4210 C   0  0  0  0  0  0  0  0  0  0  0  0
   57.7930   33.3890   44.7390 C   0  0  0  0  0  0  0  0  0  0  0  0
   56.9769   33.1352   44.0466 H   0  0  0  0  0  0  0  0  0  0  0  0
   58.1470   34.7220   44.9350 C   0  0  0  0  0  0  0  0  0  0  0  0
   57.6170   35.5219   44.3971 H   0  0  0  0  0  0  0  0  0  0  0  0
   59.1790   35.0330   45.8190 C   0  0  0  0  0  0  0  0  0  0  0  0
   59.4558   36.0835   45.9917 H   0  0  0  0  0  0  0  0  0  0  0  0
   59.8440   34.0410   46.4680 N   0  0  0  0  0  0  0  0  0  0  0  0
   60.6240   34.2970   47.1150 H   0  0  0  0  0  0  0  0  0  0  0  0
   59.5440   32.7260   46.2760 C   0  0  0  0  0  0  0  0  0  0  0  0
   60.3120   31.7600   46.9430 O   0  0  0  0  0  0  0  0  0  0  0  0
   61.5240   32.0220   47.6020 C   0  0  0  0  0  0  0  0  0  0  0  0
   61.7410   31.4450   48.8570 C   0  0  0  0  0  0  0  0  0  0  0  0
   60.9640   30.8101   49.3077 H   0  0  0  0  0  0  0  0  0  0  0  0
   62.9380   31.6690   49.5430 C   0  0  0  0  0  0  0  0  0  0  0  0
   63.0988   31.2027   50.5262 H   0  0  0  0  0  0  0  0  0  0  0  0
   63.9340   32.4820   48.9890 C   0  0  0  0  0  0  0  0  0  0  0  0
   65.1200   32.6720   49.7140 O   0  0  0  0  0  0  0  0  0  0  0  0
   65.6800   31.7130   50.6030 C   0  0  0  0  0  0  0  0  0  0  0  0
   65.4975   32.0255   51.6418 H   0  0  0  0  0  0  0  0  0  0  0  0
   65.2122   30.7331   50.4273 H   0  0  0  0  0  0  0  0  0  0  0  0
   66.7633   31.6389   50.4273 H   0  0  0  0  0  0  0  0  0  0  0  0
   63.7120   33.0770   47.7320 C   0  0  0  0  0  0  0  0  0  0  0  0
   64.4847   33.7210   47.2869 H   0  0  0  0  0  0  0  0  0  0  0  0
   62.5150   32.8530   47.0480 C   0  0  0  0  0  0  0  0  0  0  0  0
   62.3461   33.3289   46.0708 H   0  0  0  0  0  0  0  0  0  0  0  0
   58.9040   29.8980   45.6530 N   0  0  0  0  0  0  0  0  0  0  0  0
   59.6540   30.1310   46.3430 H   0  0  0  0  0  0  0  0  0  0  0  0
   58.9580   28.6050   44.9680 C   0  0  0  0  0  0  0  0  0  0  0  0
   58.0259   28.0556   45.1661 H   0  0  0  0  0  0  0  0  0  0  0  0
   59.0808   28.7885   43.8904 H   0  0  0  0  0  0  0  0  0  0  0  0
   60.1440   27.7660   45.4530 C   0  0  0  0  0  0  0  0  0  0  0  0
   60.0841   26.7663   44.9981 H   0  0  0  0  0  0  0  0  0  0  0  0
   61.0719   28.2769   45.1563 H   0  0  0  0  0  0  0  0  0  0  0  0
   60.1430   27.5910   47.2760 S   0  0  0  0  0  0  0  0  0  0  0  0
   58.3560   27.2740   47.4410 C   0  0  0  0  0  0  0  0  0  0  0  0
   58.0889   27.2266   48.5070 H   0  0  0  0  0  0  0  0  0  0  0  0
   57.7933   28.0864   46.9578 H   0  0  0  0  0  0  0  0  0  0  0  0
   58.1071   26.3177   46.9578 H   0  0  0  0  0  0  0  0  0  0  0  0
  1  2  1  0
  2  3  1  0
  3  4  2  0
  4  5  1  0
  5  6  2  0
  6  7  1  0
  6  8  1  0
  8  9  1  0
  8 10  2  0
 10 11  1  0
 10 12  1  0
 12 13  1  0
 12 14  2  0
 14 15  1  0
 15 16  1  0
 16 17  2  0
 17 18  1  0
 17 19  1  0
 19 20  1  0
 19 21  2  0
 21 22  1  0
 22 23  1  0
 23 24  1  0
 23 25  1  0
 23 26  1  0
 21 27  1  0
 27 28  1  0
 27 29  2  0
 29 30  1  0
  4 31  1  0
 31 32  1  0
 31 33  1  0
 33 34  1  0
 33 35  1  0
 33 36  1  0
 36 37  1  0
 36 38  1  0
 36 39  1  0
 39 40  1  0
 40 41  1  0
 40 42  1  0
 40 43  1  0
 14  5  1  0
 29 16  1  0
M  CHG  1  12   1
M  END
>  <UniqueID>  (15) 
14

>  <SMILES>  (15) 
COc1ccc(Oc2[nH+]cccc2/C(=N/O)NCCSC)cc1

>  <Energy>  (15) 
49.85607074178786

>  <Genealogy>  (15) 
COc1ccc(Oc2[nH+]cccc2C(=NO)NCCSC)cc1 (protonated)
COc1ccc(Oc2[nH+]cccc2/C(=N/O)NCCSC)cc1 (cis-trans isomerization)
COc1ccc(Oc2[nH+]cccc2/C(=N/O)NCCSC)cc1 (3D coordinates assigned)
COc1ccc(Oc2[nH+]cccc2/C(=N/O)NCCSC)cc1 (optimized conformer: 49.85607074178786 kcal/mol)

>  <smiles>  (15) 
COc1ccc(Oc2ncccc2C(=NO)NCCSC)cc1

>  <score_type>  (15) 
oracle

>  <origin>  (15) 
adg

>  <m_score__min__energy>  (15) 
-5.3499999999999996

>  <m_primary>  (15) 
energy

$$$$
15:0
     RDKit          3D

 47 50  0  0  0  0  0  0  0  0999 V2000
   58.1342   32.5160   41.7987 H   0  0  0  0  0  0  0  0  0  0  0  0
   58.1360   32.3310   42.8830 C   0  0  0  0  0  0  0  0  0  0  0  0
   57.8510   31.0780   43.3600 N   0  0  0  0  0  0  0  0  0  0  0  0
   57.8470   30.8020   44.6990 C   0  0  0  0  0  0  0  0  0  0  0  0
   57.5290   29.4380   45.1740 C   0  0  0  0  0  0  0  0  0  0  0  0
   56.2190   28.9480   45.0600 C   0  0  0  0  0  0  0  0  0  0  0  0
   55.4469   29.5611   44.5721 H   0  0  0  0  0  0  0  0  0  0  0  0
   55.8980   27.7220   45.5480 N   0  0  0  0  0  0  0  0  0  0  0  0
   56.8180   26.9270   46.1630 C   0  0  0  0  0  0  0  0  0  0  0  0
   56.4870   25.7560   46.6210 N   0  0  0  0  0  0  0  0  0  0  0  0
   55.4970   24.8840   45.9970 C   0  0  0  0  0  0  0  0  0  0  0  0
   54.7681   25.4937   45.4430 H   0  0  0  0  0  0  0  0  0  0  0  0
   54.9749   24.3058   46.7736 H   0  0  0  0  0  0  0  0  0  0  0  0
   56.1840   23.9480   45.0540 C   0  0  0  0  0  0  0  0  0  0  0  0
   57.4450   23.5150   45.3320 N   0  0  0  0  0  0  0  0  0  0  0  0
   58.1030   22.6390   44.5220 C   0  0  0  0  0  0  0  0  0  0  0  0
   59.4900   22.2030   44.8690 C   0  0  0  0  0  0  0  0  0  0  0  0
   59.6006   22.1682   45.9629 H   0  0  0  0  0  0  0  0  0  0  0  0
   59.6757   21.2031   44.4497 H   0  0  0  0  0  0  0  0  0  0  0  0
   60.2144   22.9168   44.4497 H   0  0  0  0  0  0  0  0  0  0  0  0
   57.4750   22.1530   43.3680 C   0  0  0  0  0  0  0  0  0  0  0  0
   57.9987   21.4490   42.7046 H   0  0  0  0  0  0  0  0  0  0  0  0
   56.1770   22.5720   43.0690 C   0  0  0  0  0  0  0  0  0  0  0  0
   55.6706   22.1952   42.1681 H   0  0  0  0  0  0  0  0  0  0  0  0
   55.5230   23.4690   43.9140 C   0  0  0  0  0  0  0  0  0  0  0  0
   54.4979   23.7976   43.6879 H   0  0  0  0  0  0  0  0  0  0  0  0
   58.1350   27.3750   46.3020 C   0  0  0  0  0  0  0  0  0  0  0  0
   58.8829   26.7405   46.8002 H   0  0  0  0  0  0  0  0  0  0  0  0
   58.5010   28.6330   45.8060 C   0  0  0  0  0  0  0  0  0  0  0  0
   59.8700   29.0620   45.9150 N   0  0  0  0  0  0  0  0  0  0  0  0
   60.3500   29.6340   47.1720 C   0  0  0  0  0  0  0  0  0  0  0  0
   59.8972   29.0944   48.0169 H   0  0  0  0  0  0  0  0  0  0  0  0
   61.4450   29.5416   47.2224 H   0  0  0  0  0  0  0  0  0  0  0  0
   60.0690   30.6963   47.2224 H   0  0  0  0  0  0  0  0  0  0  0  0
   60.7810   28.9370   44.7760 C   0  0  0  0  0  0  0  0  0  0  0  0
   61.8086   28.7960   45.1422 H   0  0  0  0  0  0  0  0  0  0  0  0
   60.4874   28.0707   44.1650 H   0  0  0  0  0  0  0  0  0  0  0  0
   60.7316   29.8503   44.1650 H   0  0  0  0  0  0  0  0  0  0  0  0
   58.1420   31.8520   45.5700 C   0  0  0  0  0  0  0  0  0  0  0  0
   58.1800   31.9510   46.9470 C   0  0  0  0  0  0  0  0  0  0  0  0
   57.9964   31.1521   47.6805 H   0  0  0  0  0  0  0  0  0  0  0  0
   58.5010   33.2810   47.2060 C   0  0  0  0  0  0  0  0  0  0  0  0
   58.6200   33.7095   48.2121 H   0  0  0  0  0  0  0  0  0  0  0  0
   58.6470   33.9760   46.0530 N   0  0  0  0  0  0  0  0  0  0  0  0
   58.8730   34.9900   45.9530 H   0  0  0  0  0  0  0  0  0  0  0  0
   58.4210   33.0900   45.0730 C   0  0  0  0  0  0  0  0  0  0  0  0
   58.4220   33.3510   43.7440 N   0  0  0  0  0  0  0  0  0  0  0  0
  1  2  1  0
  2  3  2  0
  3  4  1  0
  4  5  1  0
  5  6  2  0
  6  7  1  0
  6  8  1  0
  8  9  1  0
  9 10  2  0
 10 11  1  0
 11 12  1  0
 11 13  1  0
 11 14  1  0
 14 15  2  0
 15 16  1  0
 16 17  1  0
 17 18  1  0
 17 19  1  0
 17 20  1  0
 16 21  2  0
 21 22  1  0
 21 23  1  0
 23 24  1  0
 23 25  2  0
 25 26  1  0
  9 27  1  0
 27 28  1  0
 27 29  2  0
 29 30  1  0
 30 31  1  0
 31 32  1  0
 31 33  1  0
 31 34  1  0
 30 35  1  0
 35 36  1  0
 35 37  1  0
 35 38  1  0
  4 39  2  0
 39 40  1  0
 40 41  1  0
 40 42  2  0
 42 43  1  0
 42 44  1  0
 44 45  1  0
 44 46  1  0
 46 47  2  0
 47  2  1  0
 29  5  1  0
 46 39  1  0
 25 14  1  0
M  CHG  1   8  -1
M  END
>  <UniqueID>  (16) 
15

>  <SMILES>  (16) 
Cc1cccc(C/N=c2/cc(N(C)C)c(-c3ncnc4[nH]ccc34)c[n-]2)n1

>  <Energy>  (16) 
93.8414385021834

>  <Genealogy>  (16) 
Cc1cccc(CN=c2cc(N(C)C)c(-c3ncnc4[nH]ccc34)c[n-]2)n1 (protonated)
Cc1cccc(C/N=c2/cc(N(C)C)c(-c3ncnc4[nH]ccc34)c[n-]2)n1 (cis-trans isomerization)
Cc1cccc(C/N=c2/cc(N(C)C)c(-c3ncnc4[nH]ccc34)c[n-]2)n1 (3D coordinates assigned)
Cc1cccc(C/N=c2/cc(N(C)C)c(-c3ncnc4[nH]ccc34)c[n-]2)n1 (optimized conformer: 93.8414385021834 kcal/mol)

>  <smiles>  (16) 
Cc1cccc(CN=c2cc(N(C)C)c(-c3ncnc4[nH]ccc34)c[nH]2)n1

>  <score_type>  (16) 
oracle

>  <origin>  (16) 
adg

>  <m_score__min__energy>  (16) 
-9.4199999999999999

>  <m_primary>  (16) 
energy

$$$$
16:0
     RDKit          3D

 57 59  0  0  0  0  0  0  0  0999 V2000
   57.7559   29.3410   51.1501 H   0  0  0  0  0  0  0  0  0  0  0  0
   58.1600   30.3330   50.9000 C   0  0  0  0  0  0  0  0  0  0  0  0
   59.0700   30.4720   49.8490 C   0  0  0  0  0  0  0  0  0  0  0  0
   59.3789   29.5895   49.2696 H   0  0  0  0  0  0  0  0  0  0  0  0
   59.5880   31.7300   49.5330 C   0  0  0  0  0  0  0  0  0  0  0  0
   60.3006   31.8350   48.7016 H   0  0  0  0  0  0  0  0  0  0  0  0
   59.2040   32.8620   50.2710 C   0  0  0  0  0  0  0  0  0  0  0  0
   59.7930   34.2110   49.9530 C   0  0  0  0  0  0  0  0  0  0  0  0
   60.3113   34.5981   50.8427 H   0  0  0  0  0  0  0  0  0  0  0  0
   58.9810   34.8925   49.6594 H   0  0  0  0  0  0  0  0  0  0  0  0
   60.7510   34.1080   48.8420 N   0  0  0  0  0  0  0  0  0  0  0  0
   60.4360   34.1250   47.5270 C   0  0  0  0  0  0  0  0  0  0  0  0
   59.2150   34.2620   47.0900 N   0  0  0  0  0  0  0  0  0  0  0  0
   58.3470   33.2460   46.5660 C   0  0  0  0  0  0  0  0  0  0  0  0
   57.1070   33.4350   46.4550 O   0  0  0  0  0  0  0  0  0  0  0  0
   58.9410   31.9270   46.1620 C   0  0  0  0  0  0  0  0  0  0  0  0
   59.5410   32.0694   45.2511 H   0  0  0  0  0  0  0  0  0  0  0  0
   59.5662   31.5624   46.9903 H   0  0  0  0  0  0  0  0  0  0  0  0
   57.8890   30.9150   45.8930 N   0  0  1  0  0  0  0  0  0  0  0  0
   57.0220   31.2250   46.3960 H   0  0  0  0  0  0  0  0  0  0  0  0
   57.5350   30.9090   44.4510 C   0  0  0  0  0  0  0  0  0  0  0  0
   58.4551   31.0168   43.8579 H   0  0  0  0  0  0  0  0  0  0  0  0
   56.8447   31.7449   44.2646 H   0  0  0  0  0  0  0  0  0  0  0  0
   56.8300   29.6070   44.0430 C   0  0  1  0  0  0  0  0  0  0  0  0
   55.9746   29.4461   44.7157 H   0  0  0  0  0  0  0  0  0  0  0  0
   56.2790   29.7010   42.6160 C   0  0  0  0  0  0  0  0  0  0  0  0
   55.1953   29.8859   42.6528 H   0  0  0  0  0  0  0  0  0  0  0  0
   56.7742   30.5276   42.0855 H   0  0  0  0  0  0  0  0  0  0  0  0
   56.4721   28.7569   42.0855 H   0  0  0  0  0  0  0  0  0  0  0  0
   57.7990   28.4170   44.1860 C   0  0  0  0  0  0  0  0  0  0  0  0
   58.4024   28.3453   43.2691 H   0  0  0  0  0  0  0  0  0  0  0  0
   57.1890   27.5166   44.3505 H   0  0  0  0  0  0  0  0  0  0  0  0
   58.7570   28.5520   45.3970 C   0  0  1  0  0  0  0  0  0  0  0  0
   58.7711   27.5712   45.8949 H   0  0  0  0  0  0  0  0  0  0  0  0
   60.2010   28.8520   44.9610 C   0  0  0  0  0  0  0  0  0  0  0  0
   60.8331   28.9833   45.8516 H   0  0  0  0  0  0  0  0  0  0  0  0
   60.5840   28.0143   44.3598 H   0  0  0  0  0  0  0  0  0  0  0  0
   60.2186   29.7730   44.3598 H   0  0  0  0  0  0  0  0  0  0  0  0
   58.2430   29.5710   46.4440 C   0  0  0  0  0  0  0  0  0  0  0  0
   59.0287   29.7083   47.2016 H   0  0  0  0  0  0  0  0  0  0  0  0
   57.3126   29.1504   46.8531 H   0  0  0  0  0  0  0  0  0  0  0  0
   61.5760   33.9020   46.7690 C   0  0  0  0  0  0  0  0  0  0  0  0
   61.6627   33.8571   45.6733 H   0  0  0  0  0  0  0  0  0  0  0  0
   62.5790   33.7490   47.7100 C   0  0  0  0  0  0  0  0  0  0  0  0
   64.0090   33.4300   47.3980 C   0  0  0  0  0  0  0  0  0  0  0  0
   64.5698   33.3049   48.3360 H   0  0  0  0  0  0  0  0  0  0  0  0
   64.0581   32.4988   46.8145 H   0  0  0  0  0  0  0  0  0  0  0  0
   64.4492   34.2520   46.8145 H   0  0  0  0  0  0  0  0  0  0  0  0
   62.0590   33.8880   48.9530 N   0  0  0  0  0  0  0  0  0  0  0  0
   62.7840   33.6920   50.2110 C   0  0  0  0  0  0  0  0  0  0  0  0
   62.1058   33.8753   51.0574 H   0  0  0  0  0  0  0  0  0  0  0  0
   63.1609   32.6597   50.2600 H   0  0  0  0  0  0  0  0  0  0  0  0
   63.6296   34.3938   50.2600 H   0  0  0  0  0  0  0  0  0  0  0  0
   58.2800   32.7160   51.3210 C   0  0  0  0  0  0  0  0  0  0  0  0
   57.9628   33.5970   51.8982 H   0  0  0  0  0  0  0  0  0  0  0  0
   57.7630   31.4550   51.6340 C   0  0  0  0  0  0  0  0  0  0  0  0
   57.0432   31.3456   52.4586 H   0  0  0  0  0  0  0  0  0  0  0  0
  1  2  1  0
  2  3  2  0
  3  4  1  0
  3  5  1  0
  5  6  1  0
  5  7  2  0
  7  8  1  0
  8  9  1  0
  8 10  1  0
  8 11  1  0
 11 12  1  0
 12 13  2  0
 13 14  1  0
 14 15  2  0
 14 16  1  0
 16 17  1  0
 16 18  1  0
 16 19  1  0
 19 20  1  1
 19 21  1  0
 21 22  1  0
 21 23  1  0
 21 24  1  0
 24 25  1  1
 24 26  1  0
 26 27  1  0
 26 28  1  0
 26 29  1  0
 24 30  1  0
 30 31  1  0
 30 32  1  0
 30 33  1  0
 33 34  1  1
 33 35  1  0
 35 36  1  0
 35 37  1  0
 35 38  1  0
 33 39  1  0
 39 40  1  0
 39 41  1  0
 12 42  1  0
 42 43  1  0
 42 44  2  0
 44 45  1  0
 45 46  1  0
 45 47  1  0
 45 48  1  0
 44 49  1  0
 49 50  1  0
 50 51  1  0
 50 52  1  0
 50 53  1  0
  7 54  1  0
 54 55  1  0
 54 56  2  0
 56 57  1  0
 56  2  1  0
 49 11  1  0
 39 19  1  0
M  CHG  1  19   1
M  END
>  <UniqueID>  (17) 
16

>  <SMILES>  (17) 
Cc1c/c(=N\C(=O)C[NH+]2C[C@H](C)C[C@H](C)C2)n(Cc2ccccc2)n1C

>  <Energy>  (17) 
98.63244296536152

>  <Genealogy>  (17) 
Cc1cc(=NC(=O)C[NH+]2CC(C)CC(C)C2)n(Cc2ccccc2)n1C (protonated)
Cc1cc(=NC(=O)C[NH+]2C[C@H](C)C[C@H](C)C2)n(Cc2ccccc2)n1C (chirality)
Cc1c/c(=N\C(=O)C[NH+]2C[C@H](C)C[C@H](C)C2)n(Cc2ccccc2)n1C (cis-trans isomerization)
Cc1c/c(=N\C(=O)C[NH+]2C[C@H](C)C[C@H](C)C2)n(Cc2ccccc2)n1C (3D coordinates assigned)
Cc1c/c(=N\C(=O)C[NH+]2C[C@H](C)C[C@H](C)C2)n(Cc2ccccc2)n1C (nonaromatic ring conformer: 98.63244296536152 kcal/mol)

>  <smiles>  (17) 
Cc1cc(=NC(=O)CN2CC(C)CC(C)C2)n(Cc2ccccc2)n1C

>  <score_type>  (17) 
oracle

>  <origin>  (17) 
adg

>  <m_score__min__energy>  (17) 
-6.54

>  <m_primary>  (17) 
energy

$$$$
17:0
     RDKit          3D

 37 40  0  0  0  0  0  0  0  0999 V2000
   56.3010   29.6920   45.0290 O   0  0  0  0  0  0  0  0  0  0  0  0
   57.5010   29.9670   44.7550 C   0  0  0  0  0  0  0  0  0  0  0  0
   58.3250   29.0020   44.0800 N   0  0  0  0  0  0  0  0  0  0  0  0
   58.0270   27.5960   44.0230 C   0  0  0  0  0  0  0  0  0  0  0  0
   57.8090   26.8450   45.1900 C   0  0  0  0  0  0  0  0  0  0  0  0
   57.5420   25.4740   45.1100 C   0  0  0  0  0  0  0  0  0  0  0  0
   57.5010   24.8250   43.8630 C   0  0  0  0  0  0  0  0  0  0  0  0
   57.2260   23.4110   43.7810 N   0  0  0  0  0  0  0  0  0  0  0  0
   57.5060   22.4800   44.7190 C   0  0  0  0  0  0  0  0  0  0  0  0
   57.0960   21.2360   44.2860 C   0  0  0  0  0  0  0  0  0  0  0  0
   56.5460   21.4160   43.0340 C   0  0  0  0  0  0  0  0  0  0  0  0
   56.6380   22.7630   42.7520 C   0  0  0  0  0  0  0  0  0  0  0  0
   57.7420   25.5770   42.7000 C   0  0  0  0  0  0  0  0  0  0  0  0
   58.0080   26.9460   42.7810 C   0  0  0  0  0  0  0  0  0  0  0  0
   58.0240   31.3010   45.0980 C   0  0  0  0  0  0  0  0  0  0  0  0
   58.4590   31.7210   46.3590 C   0  0  0  0  0  0  0  0  0  0  0  0
   58.8820   33.0540   46.3620 C   0  0  0  0  0  0  0  0  0  0  0  0
   59.3690   33.7620   47.4640 C   0  0  0  0  0  0  0  0  0  0  0  0
   59.7500   35.1040   47.2910 C   0  0  0  0  0  0  0  0  0  0  0  0
   59.6420   35.7200   46.0280 C   0  0  0  0  0  0  0  0  0  0  0  0
   59.1500   35.0000   44.9280 C   0  0  0  0  0  0  0  0  0  0  0  0
   58.7800   33.6720   45.1250 C   0  0  0  0  0  0  0  0  0  0  0  0
   58.1620   32.5870   44.0040 S   0  0  0  0  0  0  0  0  0  0  0  0
   59.1290   29.3510   43.5130 H   0  0  0  0  0  0  0  0  0  0  0  0
   57.8485   27.3379   46.1726 H   0  0  0  0  0  0  0  0  0  0  0  0
   57.3626   24.8988   46.0303 H   0  0  0  0  0  0  0  0  0  0  0  0
   57.9897   22.6838   45.6857 H   0  0  0  0  0  0  0  0  0  0  0  0
   57.1895   20.2860   44.8325 H   0  0  0  0  0  0  0  0  0  0  0  0
   56.1174   20.6369   42.3864 H   0  0  0  0  0  0  0  0  0  0  0  0
   56.2846   23.2394   41.8256 H   0  0  0  0  0  0  0  0  0  0  0  0
   57.7209   25.0830   41.7174 H   0  0  0  0  0  0  0  0  0  0  0  0
   58.2042   27.5188   41.8626 H   0  0  0  0  0  0  0  0  0  0  0  0
   58.4675   31.0749   47.2492 H   0  0  0  0  0  0  0  0  0  0  0  0
   59.4526   33.2782   48.4484 H   0  0  0  0  0  0  0  0  0  0  0  0
   60.1351   35.6773   48.1472 H   0  0  0  0  0  0  0  0  0  0  0  0
   59.9447   36.7702   45.9036 H   0  0  0  0  0  0  0  0  0  0  0  0
   59.0593   35.4715   43.9383 H   0  0  0  0  0  0  0  0  0  0  0  0
  1  2  2  0
  2  3  1  0
  3  4  1  0
  4  5  2  0
  5  6  1  0
  6  7  2  0
  7  8  1  0
  8  9  1  0
  9 10  2  0
 10 11  1  0
 11 12  2  0
  7 13  1  0
 13 14  2  0
  2 15  1  0
 15 16  2  0
 16 17  1  0
 17 18  2  0
 18 19  1  0
 19 20  2  0
 20 21  1  0
 21 22  2  0
 22 23  1  0
 14  4  1  0
 23 15  1  0
 12  8  1  0
 22 17  1  0
  3 24  1  0
  5 25  1  0
  6 26  1  0
  9 27  1  0
 10 28  1  0
 11 29  1  0
 12 30  1  0
 13 31  1  0
 14 32  1  0
 16 33  1  0
 18 34  1  0
 19 35  1  0
 20 36  1  0
 21 37  1  0
M  END
>  <UniqueID>  (18) 
17

>  <SMILES>  (18) 
O=C(Nc1ccc(-n2cccc2)cc1)c1cc2ccccc2s1

>  <Energy>  (18) 
104.99919160475488

>  <Genealogy>  (18) 
O=C(Nc1ccc(-n2cccc2)cc1)c1cc2ccccc2s1 (3D coordinates assigned)
O=C(Nc1ccc(-n2cccc2)cc1)c1cc2ccccc2s1 (optimized conformer: 104.99919160475488 kcal/mol)

>  <smiles>  (18) 
O=C(Nc1ccc(-n2cccc2)cc1)c1cc2ccccc2s1

>  <score_type>  (18) 
oracle

>  <origin>  (18) 
adg

>  <m_score__min__energy>  (18) 
-8.2599999999999998

>  <m_primary>  (18) 
energy

$$$$
18:0
     RDKit          3D

 44 46  0  0  0  0  0  0  0  0999 V2000
   59.0756   35.6601   45.3528 H   0  0  0  0  0  0  0  0  0  0  0  0
   58.8210   34.5930   45.4330 C   0  0  0  0  0  0  0  0  0  0  0  0
   57.4030   33.8710   44.8820 S   0  0  0  0  0  0  0  0  0  0  0  0
   57.8660   32.3440   45.4020 C   0  0  0  0  0  0  0  0  0  0  0  0
   57.1350   31.2800   45.2610 N   0  0  0  0  0  0  0  0  0  0  0  0
   57.6640   29.9730   44.9920 C   0  0  0  0  0  0  0  0  0  0  0  0
   58.6470   29.4620   45.8500 C   0  0  0  0  0  0  0  0  0  0  0  0
   59.0028   30.0688   46.6957 H   0  0  0  0  0  0  0  0  0  0  0  0
   59.1780   28.1880   45.6390 C   0  0  0  0  0  0  0  0  0  0  0  0
   59.9450   27.7926   46.3212 H   0  0  0  0  0  0  0  0  0  0  0  0
   58.7370   27.4160   44.5640 C   0  0  0  0  0  0  0  0  0  0  0  0
   59.1402   26.4038   44.4124 H   0  0  0  0  0  0  0  0  0  0  0  0
   57.7840   27.9270   43.6800 C   0  0  0  0  0  0  0  0  0  0  0  0
   57.4423   27.3145   42.8326 H   0  0  0  0  0  0  0  0  0  0  0  0
   57.2580   29.2170   43.8640 C   0  0  0  0  0  0  0  0  0  0  0  0
   56.2780   29.7570   42.8560 C   0  0  0  0  0  0  0  0  0  0  0  0
   55.4314   30.2235   43.3811 H   0  0  0  0  0  0  0  0  0  0  0  0
   56.7768   30.5076   42.2253 H   0  0  0  0  0  0  0  0  0  0  0  0
   55.9099   28.9343   42.2253 H   0  0  0  0  0  0  0  0  0  0  0  0
   59.0870   32.3500   45.9800 N   0  0  0  0  0  0  0  0  0  0  0  0
   59.6170   33.6020   46.0090 C   0  0  0  0  0  0  0  0  0  0  0  0
   60.9480   33.8860   46.6520 C   0  0  0  0  0  0  0  0  0  0  0  0
   61.6476   34.2344   45.8779 H   0  0  0  0  0  0  0  0  0  0  0  0
   60.7911   34.6517   47.4260 H   0  0  0  0  0  0  0  0  0  0  0  0
   61.5240   32.6850   47.3110 N   0  0  1  0  0  0  0  0  0  0  0  0
   61.1550   31.8440   46.8050 H   0  0  0  0  0  0  0  0  0  0  0  0
   62.9920   32.6810   47.1160 C   0  0  0  0  0  0  0  0  0  0  0  0
   63.4920   32.6796   48.0958 H   0  0  0  0  0  0  0  0  0  0  0  0
   63.2847   31.7821   46.5537 H   0  0  0  0  0  0  0  0  0  0  0  0
   63.2896   33.5783   46.5537 H   0  0  0  0  0  0  0  0  0  0  0  0
   61.0940   32.5700   48.7390 C   0  0  0  0  0  0  0  0  0  0  0  0
   61.9431   32.0224   49.1740 H   0  0  0  0  0  0  0  0  0  0  0  0
   59.8040   31.7730   48.9750 C   0  0  0  0  0  0  0  0  0  0  0  0
   59.0913   31.9343   48.1528 H   0  0  0  0  0  0  0  0  0  0  0  0
   59.9843   30.6888   49.0198 H   0  0  0  0  0  0  0  0  0  0  0  0
   59.2520   32.3210   50.2790 C   0  0  0  0  0  0  0  0  0  0  0  0
   58.1576   32.2142   50.3079 H   0  0  0  0  0  0  0  0  0  0  0  0
   59.6506   31.7796   51.1497 H   0  0  0  0  0  0  0  0  0  0  0  0
   59.6440   33.7940   50.3020 C   0  0  0  0  0  0  0  0  0  0  0  0
   58.8294   34.4096   49.8928 H   0  0  0  0  0  0  0  0  0  0  0  0
   59.8373   34.1362   51.3294 H   0  0  0  0  0  0  0  0  0  0  0  0
   60.8940   33.9290   49.4330 C   0  0  0  0  0  0  0  0  0  0  0  0
   60.7515   34.7211   48.6831 H   0  0  0  0  0  0  0  0  0  0  0  0
   61.7717   34.1988   50.0387 H   0  0  0  0  0  0  0  0  0  0  0  0
  1  2  1  0
  2  3  1  0
  3  4  1  0
  4  5  2  0
  5  6  1  0
  6  7  2  0
  7  8  1  0
  7  9  1  0
  9 10  1  0
  9 11  2  0
 11 12  1  0
 11 13  1  0
 13 14  1  0
 13 15  2  0
 15 16  1  0
 16 17  1  0
 16 18  1  0
 16 19  1  0
  4 20  1  0
 20 21  1  0
 21 22  1  0
 22 23  1  0
 22 24  1  0
 22 25  1  0
 25 26  1  6
 25 27  1  0
 27 28  1  0
 27 29  1  0
 27 30  1  0
 25 31  1  0
 31 32  1  0
 31 33  1  0
 33 34  1  0
 33 35  1  0
 33 36  1  0
 36 37  1  0
 36 38  1  0
 36 39  1  0
 39 40  1  0
 39 41  1  0
 39 42  1  0
 42 43  1  0
 42 44  1  0
 21  2  2  0
 42 31  1  0
 15  6  1  0
M  CHG  2  20  -1  25   1
M  END
>  <UniqueID>  (19) 
18

>  <SMILES>  (19) 
Cc1ccccc1/N=c1\[n-]c(C[N@@H+](C)C2CCCC2)cs1

>  <Energy>  (19) 
89.18395916156602

>  <Genealogy>  (19) 
Cc1ccccc1N=c1[n-]c(C[NH+](C)C2CCCC2)cs1 (protonated)
Cc1ccccc1N=c1[n-]c(C[N@@H+](C)C2CCCC2)cs1 (chirality)
Cc1ccccc1/N=c1\[n-]c(C[N@@H+](C)C2CCCC2)cs1 (cis-trans isomerization)
Cc1ccccc1/N=c1\[n-]c(C[N@@H+](C)C2CCCC2)cs1 (3D coordinates assigned)
Cc1ccccc1/N=c1\[n-]c(C[N@@H+](C)C2CCCC2)cs1 (nonaromatic ring conformer: 89.18395916156602 kcal/mol)

>  <smiles>  (19) 
Cc1ccccc1N=c1[nH]c(CN(C)C2CCCC2)cs1

>  <score_type>  (19) 
oracle

>  <origin>  (19) 
adg

>  <m_score__min__energy>  (19) 
-7.5499999999999998

>  <m_primary>  (19) 
energy

$$$$
19:0
     RDKit          3D

 42 45  0  0  0  0  0  0  0  0999 V2000
   64.2250   33.3960   48.9170 C   0  0  0  0  0  0  0  0  0  0  0  0
   63.0600   32.5620   48.5060 C   0  0  0  0  0  0  0  0  0  0  0  0
   61.8710   32.5740   49.1610 N   0  0  0  0  0  0  0  0  0  0  0  0
   60.9740   31.7710   48.5340 C   0  0  0  0  0  0  0  0  0  0  0  0
   59.7100   31.5640   48.9730 N   0  0  0  0  0  0  0  0  0  0  0  0
   58.8790   30.7370   48.2750 C   0  0  0  0  0  0  0  0  0  0  0  0
   59.2970   30.1270   47.1110 N   0  0  0  0  0  0  0  0  0  0  0  0
   58.3580   29.2650   46.3630 C   0  0  0  0  0  0  0  0  0  0  0  0
   58.1400   29.7680   44.9120 C   0  0  1  0  0  0  0  0  0  0  0  0
   56.8030   29.3640   44.3120 C   0  0  0  0  0  0  0  0  0  0  0  0
   56.6270   30.3290   43.1480 C   0  0  0  0  0  0  0  0  0  0  0  0
   57.7300   31.3800   43.3230 C   0  0  0  0  0  0  0  0  0  0  0  0
   58.2870   31.2210   44.6790 N   0  0  0  0  0  0  0  0  0  0  0  0
   57.5230   32.0730   45.6240 C   0  0  0  0  0  0  0  0  0  0  0  0
   58.3190   33.2950   45.9630 C   0  0  0  0  0  0  0  0  0  0  0  0
   58.4890   33.8210   47.2370 C   0  0  0  0  0  0  0  0  0  0  0  0
   59.2890   34.9700   47.2530 C   0  0  0  0  0  0  0  0  0  0  0  0
   59.7470   35.3480   45.9980 C   0  0  0  0  0  0  0  0  0  0  0  0
   59.1570   34.2520   44.8660 S   0  0  0  0  0  0  0  0  0  0  0  0
   60.5940   30.2990   46.6810 C   0  0  0  0  0  0  0  0  0  0  0  0
   61.0340   29.6960   45.6640 O   0  0  0  0  0  0  0  0  0  0  0  0
   61.4290   31.1430   47.3990 C   0  0  0  0  0  0  0  0  0  0  0  0
   63.0260   31.5810   47.1230 S   0  0  0  0  0  0  0  0  0  0  0  0
   64.2791   33.4347   50.0150 H   0  0  0  0  0  0  0  0  0  0  0  0
   65.1507   32.9541   48.5197 H   0  0  0  0  0  0  0  0  0  0  0  0
   64.1050   34.4147   48.5197 H   0  0  0  0  0  0  0  0  0  0  0  0
   59.3720   32.0280   49.8460 H   0  0  0  0  0  0  0  0  0  0  0  0
   57.8599   30.5540   48.6465 H   0  0  0  0  0  0  0  0  0  0  0  0
   58.7645   28.2435   46.3277 H   0  0  0  0  0  0  0  0  0  0  0  0
   57.3878   29.2887   46.8809 H   0  0  0  0  0  0  0  0  0  0  0  0
   58.9750   29.2557   44.4117 H   0  0  0  0  0  0  0  0  0  0  0  0
   56.8298   28.3227   43.9584 H   0  0  0  0  0  0  0  0  0  0  0  0
   55.9769   29.4131   45.0367 H   0  0  0  0  0  0  0  0  0  0  0  0
   56.7453   29.8022   42.1896 H   0  0  0  0  0  0  0  0  0  0  0  0
   55.6253   30.7834   43.1400 H   0  0  0  0  0  0  0  0  0  0  0  0
   58.5192   31.2239   42.5728 H   0  0  0  0  0  0  0  0  0  0  0  0
   57.3227   32.3930   43.1892 H   0  0  0  0  0  0  0  0  0  0  0  0
   56.5730   32.3737   45.1582 H   0  0  0  0  0  0  0  0  0  0  0  0
   57.3214   31.5044   46.5438 H   0  0  0  0  0  0  0  0  0  0  0  0
   58.0414   33.3805   48.1401 H   0  0  0  0  0  0  0  0  0  0  0  0
   59.5318   35.5214   48.1733 H   0  0  0  0  0  0  0  0  0  0  0  0
   60.3866   36.2161   45.7808 H   0  0  0  0  0  0  0  0  0  0  0  0
  1  2  1  0
  2  3  2  0
  3  4  1  0
  4  5  1  0
  5  6  2  0
  6  7  1  0
  7  8  1  0
  8  9  1  0
  9 10  1  0
 10 11  1  0
 11 12  1  0
 12 13  1  0
 13 14  1  0
 14 15  1  0
 15 16  2  0
 16 17  1  0
 17 18  2  0
 18 19  1  0
  7 20  1  0
 20 21  2  0
 20 22  1  0
 22 23  1  0
 23  2  1  0
 22  4  2  0
 13  9  1  0
 19 15  1  0
  1 24  1  0
  1 25  1  0
  1 26  1  0
  5 27  1  0
  6 28  1  0
  8 29  1  0
  8 30  1  0
  9 31  1  6
 10 32  1  0
 10 33  1  0
 11 34  1  0
 11 35  1  0
 12 36  1  0
 12 37  1  0
 14 38  1  0
 14 39  1  0
 16 40  1  0
 17 41  1  0
 18 42  1  0
M  CHG  1   5   1
M  END
>  <UniqueID>  (20) 
19

>  <SMILES>  (20) 
Cc1nc2[nH+]cn(C[C@H]3CCCN3Cc3cccs3)c(=O)c2s1

>  <Energy>  (20) 
114.84373949333354

>  <Genealogy>  (20) 
Cc1nc2[nH+]cn(CC3CCCN3Cc3cccs3)c(=O)c2s1 (protonated)
Cc1nc2[nH+]cn(C[C@H]3CCCN3Cc3cccs3)c(=O)c2s1 (chirality)
Cc1nc2[nH+]cn(C[C@H]3CCCN3Cc3cccs3)c(=O)c2s1 (3D coordinates assigned)
Cc1nc2[nH+]cn(C[C@H]3CCCN3Cc3cccs3)c(=O)c2s1 (nonaromatic ring conformer: 114.84373949333354 kcal/mol)

>  <smiles>  (20) 
Cc1nc2ncn(CC3CCCN3Cc3cccs3)c(=O)c2s1

>  <score_type>  (20) 
oracle

>  <origin>  (20) 
adg

>  <m_score__min__energy>  (20) 
-6.5999999999999996

>  <m_primary>  (20) 
energy

$$$$
20:0
     RDKit          3D

 40 43  0  0  0  0  0  0  0  0999 V2000
   63.6650   32.9450   47.1310 C   0  0  0  0  0  0  0  0  0  0  0  0
   62.5130   33.2680   47.9040 O   0  0  0  0  0  0  0  0  0  0  0  0
   61.2090   33.3440   47.3910 C   0  0  0  0  0  0  0  0  0  0  0  0
   60.6370   34.6080   47.2240 C   0  0  0  0  0  0  0  0  0  0  0  0
   59.3470   34.7380   46.7100 C   0  0  0  0  0  0  0  0  0  0  0  0
   58.6020   33.6070   46.3610 C   0  0  0  0  0  0  0  0  0  0  0  0
   57.0250   33.8700   45.6240 Cl  0  0  0  0  0  0  0  0  0  0  0  0
   59.1560   32.3170   46.5420 C   0  0  0  0  0  0  0  0  0  0  0  0
   58.4160   31.0770   46.2140 C   0  0  0  0  0  0  0  0  0  0  0  0
   57.4890   31.0110   45.2310 N   0  0  0  0  0  0  0  0  0  0  0  0
   57.0010   29.7520   45.0560 C   0  0  0  0  0  0  0  0  0  0  0  0
   55.9590   29.4710   44.0190 C   0  0  0  0  0  0  0  0  0  0  0  0
   57.5600   28.7860   45.9010 C   0  0  0  0  0  0  0  0  0  0  0  0
   57.2600   27.3450   45.9570 C   0  0  0  0  0  0  0  0  0  0  0  0
   58.1810   26.3820   46.1560 N   0  0  0  0  0  0  0  0  0  0  0  0
   57.5140   25.2700   46.1340 O   0  0  0  0  0  0  0  0  0  0  0  0
   56.2430   25.5200   45.9320 C   0  0  0  0  0  0  0  0  0  0  0  0
   55.1940   24.4850   45.8510 C   0  0  0  0  0  0  0  0  0  0  0  0
   55.4410   23.1890   46.3360 C   0  0  0  0  0  0  0  0  0  0  0  0
   54.4490   22.2060   46.2610 C   0  0  0  0  0  0  0  0  0  0  0  0
   53.2050   22.5070   45.7000 C   0  0  0  0  0  0  0  0  0  0  0  0
   52.2200   21.5280   45.6260 O   0  0  0  0  0  0  0  0  0  0  0  0
   52.9500   23.7930   45.2150 C   0  0  0  0  0  0  0  0  0  0  0  0
   53.9380   24.7790   45.2890 C   0  0  0  0  0  0  0  0  0  0  0  0
   56.0150   26.8440   45.8090 N   0  0  0  0  0  0  0  0  0  0  0  0
   58.6920   29.5540   46.8780 S   0  0  0  0  0  0  0  0  0  0  0  0
   60.4650   32.2010   47.0420 C   0  0  0  0  0  0  0  0  0  0  0  0
   64.5034   32.7099   47.8031 H   0  0  0  0  0  0  0  0  0  0  0  0
   63.4481   32.0730   46.4965 H   0  0  0  0  0  0  0  0  0  0  0  0
   63.9331   33.8026   46.4965 H   0  0  0  0  0  0  0  0  0  0  0  0
   61.2081   35.5067   47.4999 H   0  0  0  0  0  0  0  0  0  0  0  0
   58.9115   35.7394   46.5779 H   0  0  0  0  0  0  0  0  0  0  0  0
   55.0100   29.2151   44.5128 H   0  0  0  0  0  0  0  0  0  0  0  0
   55.8168   30.3629   43.3910 H   0  0  0  0  0  0  0  0  0  0  0  0
   56.2845   28.6285   43.3910 H   0  0  0  0  0  0  0  0  0  0  0  0
   56.4193   22.9468   46.7767 H   0  0  0  0  0  0  0  0  0  0  0  0
   54.6483   21.1943   46.6442 H   0  0  0  0  0  0  0  0  0  0  0  0
   51.9702   24.0294   44.7744 H   0  0  0  0  0  0  0  0  0  0  0  0
   53.7326   25.7895   44.9061 H   0  0  0  0  0  0  0  0  0  0  0  0
   60.9137   31.2039   47.1621 H   0  0  0  0  0  0  0  0  0  0  0  0
  1  2  1  0
  2  3  1  0
  3  4  2  0
  4  5  1  0
  5  6  2  0
  6  7  1  0
  6  8  1  0
  8  9  1  0
  9 10  2  0
 10 11  1  0
 11 12  1  0
 11 13  2  0
 13 14  1  0
 14 15  2  0
 15 16  1  0
 16 17  1  0
 17 18  1  0
 18 19  2  0
 19 20  1  0
 20 21  2  0
 21 22  1  0
 21 23  1  0
 23 24  2  0
 17 25  2  0
 13 26  1  0
  8 27  2  0
 27  3  1  0
 26  9  1  0
 25 14  1  0
 24 18  1  0
  1 28  1  0
  1 29  1  0
  1 30  1  0
  4 31  1  0
  5 32  1  0
 12 33  1  0
 12 34  1  0
 12 35  1  0
 19 36  1  0
 20 37  1  0
 23 38  1  0
 24 39  1  0
 27 40  1  0
M  CHG  1  22  -1
M  END
>  <UniqueID>  (21) 
20

>  <SMILES>  (21) 
COc1ccc(Cl)c(-c2nc(C)c(-c3noc(-c4ccc([O-])cc4)n3)s2)c1

>  <Energy>  (21) 
112.14489797832964

>  <Genealogy>  (21) 
COc1ccc(Cl)c(-c2nc(C)c(-c3noc(-c4ccc([O-])cc4)n3)s2)c1 (protonated)
COc1ccc(Cl)c(-c2nc(C)c(-c3noc(-c4ccc([O-])cc4)n3)s2)c1 (3D coordinates assigned)
COc1ccc(Cl)c(-c2nc(C)c(-c3noc(-c4ccc([O-])cc4)n3)s2)c1 (optimized conformer: 112.14489797832964 kcal/mol)

>  <smiles>  (21) 
COc1ccc(Cl)c(-c2nc(C)c(-c3noc(-c4ccc(O)cc4)n3)s2)c1

>  <score_type>  (21) 
oracle

>  <origin>  (21) 
adg

>  <m_score__min__energy>  (21) 
-10.44

>  <m_primary>  (21) 
energy

$$$$
21:0
     RDKit          3D

 41 43  0  0  0  0  0  0  0  0999 V2000
   56.7630   27.6370   46.0020 O   0  0  0  0  0  0  0  0  0  0  0  0
   56.6740   28.5270   45.1170 C   0  0  0  0  0  0  0  0  0  0  0  0
   55.8170   29.6010   45.2320 O   0  0  0  0  0  0  0  0  0  0  0  0
   55.8240   30.3960   44.0590 C   0  0  0  0  0  0  0  0  0  0  0  0
   57.0410   29.9090   43.2330 C   0  0  1  0  0  0  0  0  0  0  0  0
   58.1380   30.9120   43.2170 N   0  0  0  0  0  0  0  0  0  0  0  0
   57.7490   32.3080   43.5390 C   0  0  0  0  0  0  0  0  0  0  0  0
   58.3050   32.7580   44.8690 C   0  0  0  0  0  0  0  0  0  0  0  0
   59.2480   33.7970   44.9200 C   0  0  0  0  0  0  0  0  0  0  0  0
   59.7550   34.2290   46.1500 C   0  0  0  0  0  0  0  0  0  0  0  0
   59.3260   33.6280   47.3360 C   0  0  0  0  0  0  0  0  0  0  0  0
   60.0190   34.2200   49.0130 Br  0  0  0  0  0  0  0  0  0  0  0  0
   58.3860   32.5930   47.2920 C   0  0  0  0  0  0  0  0  0  0  0  0
   57.8760   32.1590   46.0650 C   0  0  0  0  0  0  0  0  0  0  0  0
   57.3960   28.5040   43.8180 C   0  0  1  0  0  0  0  0  0  0  0  0
   58.8960   28.1450   43.9350 C   0  0  0  0  0  0  0  0  0  0  0  0
   59.4100   28.3390   45.3420 C   0  0  0  0  0  0  0  0  0  0  0  0
   59.5690   27.2400   46.2040 C   0  0  0  0  0  0  0  0  0  0  0  0
   60.0550   27.4270   47.5020 C   0  0  0  0  0  0  0  0  0  0  0  0
   60.3860   28.7090   47.9480 C   0  0  0  0  0  0  0  0  0  0  0  0
   60.8570   28.8880   49.2080 F   0  0  0  0  0  0  0  0  0  0  0  0
   60.2300   29.8070   47.0980 C   0  0  0  0  0  0  0  0  0  0  0  0
   59.7440   29.6250   45.8000 C   0  0  0  0  0  0  0  0  0  0  0  0
   54.8926   30.2519   43.4919 H   0  0  0  0  0  0  0  0  0  0  0  0
   55.8946   31.4682   44.2944 H   0  0  0  0  0  0  0  0  0  0  0  0
   56.8259   29.8012   42.1596 H   0  0  0  0  0  0  0  0  0  0  0  0
   58.8930   30.6040   43.8720 H   0  0  0  0  0  0  0  0  0  0  0  0
   58.5760   30.8640   42.2660 H   0  0  0  0  0  0  0  0  0  0  0  0
   58.1308   32.9738   42.7510 H   0  0  0  0  0  0  0  0  0  0  0  0
   56.6514   32.3497   43.5981 H   0  0  0  0  0  0  0  0  0  0  0  0
   59.5894   34.2731   43.9890 H   0  0  0  0  0  0  0  0  0  0  0  0
   60.4932   35.0438   46.1836 H   0  0  0  0  0  0  0  0  0  0  0  0
   58.0473   32.1194   48.2253 H   0  0  0  0  0  0  0  0  0  0  0  0
   57.1361   31.3455   46.0359 H   0  0  0  0  0  0  0  0  0  0  0  0
   57.0918   27.6958   43.1367 H   0  0  0  0  0  0  0  0  0  0  0  0
   59.0339   27.0923   43.6473 H   0  0  0  0  0  0  0  0  0  0  0  0
   59.4610   28.8136   43.2688 H   0  0  0  0  0  0  0  0  0  0  0  0
   59.3102   26.2290   45.8563 H   0  0  0  0  0  0  0  0  0  0  0  0
   60.1768   26.5636   48.1726 H   0  0  0  0  0  0  0  0  0  0  0  0
   60.4900   30.8160   47.4507 H   0  0  0  0  0  0  0  0  0  0  0  0
   59.6225   30.4921   45.1342 H   0  0  0  0  0  0  0  0  0  0  0  0
  1  2  2  0
  2  3  1  0
  3  4  1  0
  4  5  1  0
  5  6  1  0
  6  7  1  0
  7  8  1  0
  8  9  2  0
  9 10  1  0
 10 11  2  0
 11 12  1  0
 11 13  1  0
 13 14  2  0
  5 15  1  0
 15 16  1  0
 16 17  1  0
 17 18  2  0
 18 19  1  0
 19 20  2  0
 20 21  1  0
 20 22  1  0
 22 23  2  0
 15  2  1  0
 23 17  1  0
 14  8  1  0
  4 24  1  0
  4 25  1  0
  5 26  1  6
  6 27  1  0
  6 28  1  0
  7 29  1  0
  7 30  1  0
  9 31  1  0
 10 32  1  0
 13 33  1  0
 14 34  1  0
 15 35  1  6
 16 36  1  0
 16 37  1  0
 18 38  1  0
 19 39  1  0
 22 40  1  0
 23 41  1  0
M  CHG  1   6   1
M  END
>  <UniqueID>  (22) 
21

>  <SMILES>  (22) 
O=C1OC[C@@H]([NH2+]Cc2ccc(Br)cc2)[C@H]1Cc1ccc(F)cc1

>  <Energy>  (22) 
61.64173981434856

>  <Genealogy>  (22) 
O=C1OCC([NH2+]Cc2ccc(Br)cc2)C1Cc1ccc(F)cc1 (protonated)
O=C1OC[C@@H]([NH2+]Cc2ccc(Br)cc2)[C@H]1Cc1ccc(F)cc1 (chirality)
O=C1OC[C@@H]([NH2+]Cc2ccc(Br)cc2)[C@H]1Cc1ccc(F)cc1 (3D coordinates assigned)
O=C1OC[C@@H]([NH2+]Cc2ccc(Br)cc2)[C@H]1Cc1ccc(F)cc1 (nonaromatic ring conformer: 61.64173981434856 kcal/mol)

>  <smiles>  (22) 
O=C1OCC(NCc2ccc(Br)cc2)C1Cc1ccc(F)cc1

>  <score_type>  (22) 
oracle

>  <origin>  (22) 
adg

>  <m_score__min__energy>  (22) 
-6.6399999999999997

>  <m_primary>  (22) 
energy

$$$$
22:0
     RDKit          3D

 35 36  0  0  0  0  0  0  0  0999 V2000
   62.6080   33.8950   50.3430 C   0  0  0  0  0  0  0  0  0  0  0  0
   61.7440   33.5300   49.2080 N   0  0  0  0  0  0  0  0  0  0  0  0
   60.4330   34.2240   49.3110 C   0  0  0  0  0  0  0  0  0  0  0  0
   59.6980   34.3440   47.9590 C   0  0  0  0  0  0  0  0  0  0  0  0
   60.1810   33.3360   47.0080 N   0  0  0  0  0  0  0  0  0  0  0  0
   59.2580   32.5070   46.2740 C   0  0  0  0  0  0  0  0  0  0  0  0
   58.2940   33.0880   45.4330 C   0  0  0  0  0  0  0  0  0  0  0  0
   57.3910   32.2850   44.7290 C   0  0  0  0  0  0  0  0  0  0  0  0
   57.4290   30.8890   44.8670 C   0  0  0  0  0  0  0  0  0  0  0  0
   56.4820   30.0230   44.0830 C   0  0  0  0  0  0  0  0  0  0  0  0
   55.3180   29.6940   44.8980 N   0  0  0  0  0  0  0  0  0  0  0  0
   58.3940   30.3060   45.7010 C   0  0  0  0  0  0  0  0  0  0  0  0
   59.2960   31.1080   46.4050 C   0  0  0  0  0  0  0  0  0  0  0  0
   61.6240   33.2360   46.7580 C   0  0  0  0  0  0  0  0  0  0  0  0
   62.4220   33.8290   47.9280 C   0  0  0  0  0  0  0  0  0  0  0  0
   62.0867   33.6748   51.2863 H   0  0  0  0  0  0  0  0  0  0  0  0
   63.5409   33.3141   50.2953 H   0  0  0  0  0  0  0  0  0  0  0  0
   62.8419   34.9688   50.2953 H   0  0  0  0  0  0  0  0  0  0  0  0
   61.5790   32.4960   49.2640 H   0  0  0  0  0  0  0  0  0  0  0  0
   59.7938   33.6612   50.0072 H   0  0  0  0  0  0  0  0  0  0  0  0
   60.6323   35.2461   49.6654 H   0  0  0  0  0  0  0  0  0  0  0  0
   58.6198   34.1984   48.1212 H   0  0  0  0  0  0  0  0  0  0  0  0
   59.8927   35.3427   47.5410 H   0  0  0  0  0  0  0  0  0  0  0  0
   58.2492   34.1820   45.3276 H   0  0  0  0  0  0  0  0  0  0  0  0
   56.6478   32.7496   44.0643 H   0  0  0  0  0  0  0  0  0  0  0  0
   56.1553   30.5629   43.1820 H   0  0  0  0  0  0  0  0  0  0  0  0
   56.9958   29.0941   43.7947 H   0  0  0  0  0  0  0  0  0  0  0  0
   55.6170   29.7080   45.9000 H   0  0  0  0  0  0  0  0  0  0  0  0
   54.6150   30.4600   44.7870 H   0  0  0  0  0  0  0  0  0  0  0  0
   58.4411   29.2116   45.8015 H   0  0  0  0  0  0  0  0  0  0  0  0
   60.0410   30.6413   47.0663 H   0  0  0  0  0  0  0  0  0  0  0  0
   61.8963   32.1773   46.6355 H   0  0  0  0  0  0  0  0  0  0  0  0
   61.8638   33.8010   45.8452 H   0  0  0  0  0  0  0  0  0  0  0  0
   63.4309   33.3909   47.9395 H   0  0  0  0  0  0  0  0  0  0  0  0
   62.4894   34.9197   47.8021 H   0  0  0  0  0  0  0  0  0  0  0  0
  1  2  1  0
  2  3  1  0
  3  4  1  0
  4  5  1  0
  5  6  1  0
  6  7  2  0
  7  8  1  0
  8  9  2  0
  9 10  1  0
 10 11  1  0
  9 12  1  0
 12 13  2  0
  5 14  1  0
 14 15  1  0
 15  2  1  0
 13  6  1  0
  1 16  1  0
  1 17  1  0
  1 18  1  0
  2 19  1  0
  3 20  1  0
  3 21  1  0
  4 22  1  0
  4 23  1  0
  7 24  1  0
  8 25  1  0
 10 26  1  0
 10 27  1  0
 11 28  1  0
 11 29  1  0
 12 30  1  0
 13 31  1  0
 14 32  1  0
 14 33  1  0
 15 34  1  0
 15 35  1  0
M  CHG  1   2   1
M  END
>  <UniqueID>  (23) 
22

>  <SMILES>  (23) 
C[NH+]1CCN(c2ccc(CN)cc2)CC1

>  <Energy>  (23) 
41.53748906016851

>  <Genealogy>  (23) 
C[NH+]1CCN(c2ccc(CN)cc2)CC1 (protonated)
C[NH+]1CCN(c2ccc(CN)cc2)CC1 (3D coordinates assigned)
C[NH+]1CCN(c2ccc(CN)cc2)CC1 (nonaromatic ring conformer: 41.53748906016851 kcal/mol)

>  <smiles>  (23) 
CN1CCN(c2ccc(CN)cc2)CC1

>  <score_type>  (23) 
oracle

>  <origin>  (23) 
adg

>  <m_score__min__energy>  (23) 
-4.8700000000000001

>  <m_primary>  (23) 
energy

$$$$
23:0
     RDKit          3D

 61 63  0  0  0  0  0  0  0  0999 V2000
   56.6390   31.5990   51.9460 C   0  0  0  0  0  0  0  0  0  0  0  0
   57.6190   30.5700   52.5040 C   0  0  0  0  0  0  0  0  0  0  0  0
   58.5320   30.0190   51.3970 C   0  0  0  0  0  0  0  0  0  0  0  0
   60.0220   30.3510   51.6250 C   0  0  0  0  0  0  0  0  0  0  0  0
   60.3640   31.7570   51.2970 N   0  0  1  0  0  0  0  0  0  0  0  0
   60.5660   32.5950   52.5050 C   0  0  0  0  0  0  0  0  0  0  0  0
   59.4050   33.5460   52.8410 C   0  0  0  0  0  0  0  0  0  0  0  0
   61.4990   31.8400   50.3930 C   0  0  0  0  0  0  0  0  0  0  0  0
   62.2270   32.8230   50.4000 O   0  0  0  0  0  0  0  0  0  0  0  0
   61.8330   30.6750   49.4890 C   0  0  0  0  0  0  0  0  0  0  0  0
   61.0410   30.7110   48.2550 N   0  0  0  0  0  0  0  0  0  0  0  0
   61.1560   31.5680   47.2080 C   0  0  0  0  0  0  0  0  0  0  0  0
   62.3580   32.9010   47.1210 S   0  0  0  0  0  0  0  0  0  0  0  0
   61.2060   34.1800   47.7390 C   0  0  0  0  0  0  0  0  0  0  0  0
   59.8900   34.1290   46.9950 C   0  0  0  0  0  0  0  0  0  0  0  0
   59.8580   34.5710   45.6580 C   0  0  0  0  0  0  0  0  0  0  0  0
   58.7000   34.4370   44.8910 C   0  0  0  0  0  0  0  0  0  0  0  0
   57.5580   33.8560   45.4430 C   0  0  0  0  0  0  0  0  0  0  0  0
   57.5690   33.4100   46.7660 C   0  0  0  0  0  0  0  0  0  0  0  0
   58.7210   33.5530   47.5610 C   0  0  0  0  0  0  0  0  0  0  0  0
   58.6870   33.0830   48.9200 N   0  0  0  0  0  0  0  0  0  0  0  0
   58.3500   31.9080   49.1720 O   0  0  0  0  0  0  0  0  0  0  0  0
   59.2820   33.8270   49.9120 O   0  0  0  0  0  0  0  0  0  0  0  0
   60.3050   31.2910   46.1830 N   0  0  0  0  0  0  0  0  0  0  0  0
   59.6480   30.2030   46.6230 C   0  0  0  0  0  0  0  0  0  0  0  0
   58.6680   29.4770   45.9510 C   0  0  0  0  0  0  0  0  0  0  0  0
   58.1440   28.3220   46.5850 C   0  0  0  0  0  0  0  0  0  0  0  0
   57.1620   27.5200   45.9860 O   0  0  0  0  0  0  0  0  0  0  0  0
   57.4410   26.3580   45.2120 C   0  0  0  0  0  0  0  0  0  0  0  0
   58.6210   27.9510   47.8670 C   0  0  0  0  0  0  0  0  0  0  0  0
   59.5990   28.7200   48.5240 C   0  0  0  0  0  0  0  0  0  0  0  0
   60.0910   29.8450   47.8630 C   0  0  0  0  0  0  0  0  0  0  0  0
   56.1422   32.1206   52.7773 H   0  0  0  0  0  0  0  0  0  0  0  0
   57.1847   32.3283   51.3293 H   0  0  0  0  0  0  0  0  0  0  0  0
   55.8840   31.0895   51.3293 H   0  0  0  0  0  0  0  0  0  0  0  0
   58.2393   31.0469   53.2772 H   0  0  0  0  0  0  0  0  0  0  0  0
   57.0439   29.7350   52.9307 H   0  0  0  0  0  0  0  0  0  0  0  0
   58.4179   28.9256   51.3601 H   0  0  0  0  0  0  0  0  0  0  0  0
   58.2291   30.4949   50.4527 H   0  0  0  0  0  0  0  0  0  0  0  0
   60.2626   30.1703   52.6831 H   0  0  0  0  0  0  0  0  0  0  0  0
   60.6073   29.7066   50.9525 H   0  0  0  0  0  0  0  0  0  0  0  0
   59.5400   32.1810   50.8140 H   0  0  0  0  0  0  0  0  0  0  0  0
   60.7165   31.9242   53.3638 H   0  0  0  0  0  0  0  0  0  0  0  0
   61.4346   33.2354   52.2918 H   0  0  0  0  0  0  0  0  0  0  0  0
   59.3035   33.6292   53.9331 H   0  0  0  0  0  0  0  0  0  0  0  0
   59.6097   34.5393   52.4151 H   0  0  0  0  0  0  0  0  0  0  0  0
   58.4714   33.1497   52.4151 H   0  0  0  0  0  0  0  0  0  0  0  0
   62.9012   30.7177   49.2300 H   0  0  0  0  0  0  0  0  0  0  0  0
   61.5981   29.7431   50.0241 H   0  0  0  0  0  0  0  0  0  0  0  0
   61.0207   34.0101   48.8099 H   0  0  0  0  0  0  0  0  0  0  0  0
   61.6611   35.1685   47.5789 H   0  0  0  0  0  0  0  0  0  0  0  0
   60.7553   35.0266   45.2138 H   0  0  0  0  0  0  0  0  0  0  0  0
   58.6875   34.7901   43.8493 H   0  0  0  0  0  0  0  0  0  0  0  0
   56.6476   33.7491   44.8350 H   0  0  0  0  0  0  0  0  0  0  0  0
   56.6685   32.9424   47.1908 H   0  0  0  0  0  0  0  0  0  0  0  0
   58.3113   29.7900   44.9586 H   0  0  0  0  0  0  0  0  0  0  0  0
   57.6445   25.5106   45.8831 H   0  0  0  0  0  0  0  0  0  0  0  0
   56.5737   26.1232   44.5774 H   0  0  0  0  0  0  0  0  0  0  0  0
   58.3204   26.5425   44.5774 H   0  0  0  0  0  0  0  0  0  0  0  0
   58.2212   27.0498   48.3549 H   0  0  0  0  0  0  0  0  0  0  0  0
   59.9630   28.4434   49.5245 H   0  0  0  0  0  0  0  0  0  0  0  0
  1  2  1  0
  2  3  1  0
  3  4  1  0
  4  5  1  0
  5  6  1  0
  6  7  1  0
  5  8  1  0
  8  9  2  0
  8 10  1  0
 10 11  1  0
 11 12  1  0
 12 13  1  0
 13 14  1  0
 14 15  1  0
 15 16  2  0
 16 17  1  0
 17 18  2  0
 18 19  1  0
 19 20  2  0
 20 21  1  0
 21 22  2  0
 21 23  1  0
 12 24  2  0
 24 25  1  0
 25 26  2  0
 26 27  1  0
 27 28  1  0
 28 29  1  0
 27 30  2  0
 30 31  1  0
 31 32  2  0
 32 11  1  0
 20 15  1  0
 32 25  1  0
  1 33  1  0
  1 34  1  0
  1 35  1  0
  2 36  1  0
  2 37  1  0
  3 38  1  0
  3 39  1  0
  4 40  1  0
  4 41  1  0
  5 42  1  6
  6 43  1  0
  6 44  1  0
  7 45  1  0
  7 46  1  0
  7 47  1  0
 10 48  1  0
 10 49  1  0
 14 50  1  0
 14 51  1  0
 16 52  1  0
 17 53  1  0
 18 54  1  0
 19 55  1  0
 26 56  1  0
 29 57  1  0
 29 58  1  0
 29 59  1  0
 30 60  1  0
 31 61  1  0
M  CHG  3   5   1  21   1  23  -1
M  END
>  <UniqueID>  (24) 
23

>  <SMILES>  (24) 
CCCC[N@@H+](CC)C(=O)Cn1c(SCc2ccccc2[N+](=O)[O-])nc2cc(OC)ccc21

>  <Energy>  (24) 
95.7607988898286

>  <Genealogy>  (24) 
CCCC[NH+](CC)C(=O)Cn1c(SCc2ccccc2[N+](=O)[O-])nc2cc(OC)ccc21 (protonated)
CCCC[N@@H+](CC)C(=O)Cn1c(SCc2ccccc2[N+](=O)[O-])nc2cc(OC)ccc21 (chirality)
CCCC[N@@H+](CC)C(=O)Cn1c(SCc2ccccc2[N+](=O)[O-])nc2cc(OC)ccc21 (3D coordinates assigned)
CCCC[N@@H+](CC)C(=O)Cn1c(SCc2ccccc2[N+](=O)[O-])nc2cc(OC)ccc21 (optimized conformer: 95.7607988898286 kcal/mol)

>  <smiles>  (24) 
CCCCN(CC)C(=O)Cn1c(SCc2ccccc2[N+](=O)[O-])nc2cc(OC)ccc21

>  <score_type>  (24) 
oracle

>  <origin>  (24) 
adg

>  <m_score__min__energy>  (24) 
-6.0999999999999996

>  <m_primary>  (24) 
energy

$$$$
24:0
     RDKit          3D

 40 42  0  0  0  0  0  0  0  0999 V2000
   66.5360   31.9970   50.6750 C   0  0  0  0  0  0  0  0  0  0  0  0
   65.0430   32.2680   50.4700 C   0  0  0  0  0  0  0  0  0  0  0  0
   64.7870   33.1320   49.3050 N   0  0  0  0  0  0  0  0  0  0  0  0
   63.6150   32.7070   48.5760 C   0  0  0  0  0  0  0  0  0  0  0  0
   62.9280   31.5400   48.9530 C   0  0  0  0  0  0  0  0  0  0  0  0
   61.8050   31.1160   48.2370 C   0  0  0  0  0  0  0  0  0  0  0  0
   61.3600   31.8440   47.1240 C   0  0  0  0  0  0  0  0  0  0  0  0
   60.1730   31.4050   46.3660 C   0  0  0  0  0  0  0  0  0  0  0  0
   59.9300   30.0970   45.9560 C   0  0  0  0  0  0  0  0  0  0  0  0
   58.7240   30.0830   45.3670 N   0  0  0  0  0  0  0  0  0  0  0  0
   58.0140   29.0600   44.8340 C   0  0  0  0  0  0  0  0  0  0  0  0
   56.7380   29.3420   44.3310 C   0  0  0  0  0  0  0  0  0  0  0  0
   56.2520   30.6620   44.4120 C   0  0  0  0  0  0  0  0  0  0  0  0
   57.0160   31.6480   44.9680 N   0  0  0  0  0  0  0  0  0  0  0  0
   58.2530   31.3360   45.4300 C   0  0  0  0  0  0  0  0  0  0  0  0
   59.1120   32.1880   46.0260 N   0  0  0  0  0  0  0  0  0  0  0  0
   58.8260   33.5660   46.4350 C   0  0  0  0  0  0  0  0  0  0  0  0
   58.9990   34.5180   45.2570 C   0  0  0  0  0  0  0  0  0  0  0  0
   62.0300   33.0200   46.7570 C   0  0  0  0  0  0  0  0  0  0  0  0
   63.1530   33.4450   47.4730 C   0  0  0  0  0  0  0  0  0  0  0  0
   66.7569   31.9569   51.7518 H   0  0  0  0  0  0  0  0  0  0  0  0
   66.8014   31.0360   50.2102 H   0  0  0  0  0  0  0  0  0  0  0  0
   67.1222   32.8034   50.2102 H   0  0  0  0  0  0  0  0  0  0  0  0
   64.5267   31.3085   50.3192 H   0  0  0  0  0  0  0  0  0  0  0  0
   64.6694   32.7888   51.3640 H   0  0  0  0  0  0  0  0  0  0  0  0
   65.6270   33.1480   48.6800 H   0  0  0  0  0  0  0  0  0  0  0  0
   64.6380   34.1110   49.6420 H   0  0  0  0  0  0  0  0  0  0  0  0
   63.2767   30.9563   49.8177 H   0  0  0  0  0  0  0  0  0  0  0  0
   61.2681   30.2076   48.5477 H   0  0  0  0  0  0  0  0  0  0  0  0
   60.6011   29.2357   46.0898 H   0  0  0  0  0  0  0  0  0  0  0  0
   58.4264   28.0409   44.7975 H   0  0  0  0  0  0  0  0  0  0  0  0
   56.1257   28.5469   43.8805 H   0  0  0  0  0  0  0  0  0  0  0  0
   55.2503   30.9000   44.0247 H   0  0  0  0  0  0  0  0  0  0  0  0
   57.7907   33.6276   46.8015 H   0  0  0  0  0  0  0  0  0  0  0  0
   59.5274   33.8540   47.2319 H   0  0  0  0  0  0  0  0  0  0  0  0
   59.1839   35.5355   45.6319 H   0  0  0  0  0  0  0  0  0  0  0  0
   59.8526   34.1922   44.6445 H   0  0  0  0  0  0  0  0  0  0  0  0
   58.0853   34.5133   44.6445 H   0  0  0  0  0  0  0  0  0  0  0  0
   61.6702   33.6108   45.9017 H   0  0  0  0  0  0  0  0  0  0  0  0
   63.6784   34.3630   47.1710 H   0  0  0  0  0  0  0  0  0  0  0  0
  1  2  1  0
  2  3  1  0
  3  4  1  0
  4  5  2  0
  5  6  1  0
  6  7  2  0
  7  8  1  0
  8  9  2  0
  9 10  1  0
 10 11  1  0
 11 12  2  0
 12 13  1  0
 13 14  2  0
 14 15  1  0
 15 16  2  0
 16 17  1  0
 17 18  1  0
  7 19  1  0
 19 20  2  0
 20  4  1  0
 16  8  1  0
 15 10  1  0
  1 21  1  0
  1 22  1  0
  1 23  1  0
  2 24  1  0
  2 25  1  0
  3 26  1  0
  3 27  1  0
  5 28  1  0
  6 29  1  0
  9 30  1  0
 11 31  1  0
 12 32  1  0
 13 33  1  0
 17 34  1  0
 17 35  1  0
 18 36  1  0
 18 37  1  0
 18 38  1  0
 19 39  1  0
 20 40  1  0
M  CHG  2   3   1  16   1
M  END
>  <UniqueID>  (25) 
24

>  <SMILES>  (25) 
CC[NH2+]c1ccc(-c2cn3cccnc3[n+]2CC)cc1

>  <Energy>  (25) 
81.37557268087045

>  <Genealogy>  (25) 
CC[NH2+]c1ccc(-c2cn3cccnc3[n+]2CC)cc1 (protonated)
CC[NH2+]c1ccc(-c2cn3cccnc3[n+]2CC)cc1 (3D coordinates assigned)
CC[NH2+]c1ccc(-c2cn3cccnc3[n+]2CC)cc1 (optimized conformer: 81.37557268087045 kcal/mol)

>  <smiles>  (25) 
CCNc1ccc(-c2cn3cccnc3[n+]2CC)cc1

>  <score_type>  (25) 
oracle

>  <origin>  (25) 
adg

>  <m_score__min__energy>  (25) 
-3.6699999999999999

>  <m_primary>  (25) 
energy

$$$$
25:0
     RDKit          3D

 34 36  0  0  0  0  0  0  0  0999 V2000
   56.6240   29.3440   43.1540 C   0  0  0  0  0  0  0  0  0  0  0  0
   57.5940   29.5790   44.2370 N   0  0  0  0  0  0  0  0  0  0  0  0
   57.4780   30.6970   45.0300 C   0  0  0  0  0  0  0  0  0  0  0  0
   56.5360   31.5210   44.8620 O   0  0  0  0  0  0  0  0  0  0  0  0
   58.4320   30.9060   46.0190 C   0  0  0  0  0  0  0  0  0  0  0  0
   59.4510   30.0300   46.1800 C   0  0  0  0  0  0  0  0  0  0  0  0
   60.2640   30.4180   47.1830 N   0  0  0  0  0  0  0  0  0  0  0  0
   59.6830   31.5670   47.6150 C   0  0  0  0  0  0  0  0  0  0  0  0
   58.5660   31.8970   46.9200 N   0  0  0  0  0  0  0  0  0  0  0  0
   57.6900   33.0410   47.1780 C   0  0  0  0  0  0  0  0  0  0  0  0
   58.1580   34.2660   46.3760 C   0  0  0  0  0  0  0  0  0  0  0  0
   57.7580   34.2160   44.9030 C   0  0  0  0  0  0  0  0  0  0  0  0
   59.2280   34.1810   44.5050 C   0  0  0  0  0  0  0  0  0  0  0  0
   59.6310   34.2230   45.9730 C   0  0  0  0  0  0  0  0  0  0  0  0
   59.5900   28.9210   45.4030 N   0  0  0  0  0  0  0  0  0  0  0  0
   60.7370   28.0210   45.5740 C   0  0  0  0  0  0  0  0  0  0  0  0
   58.6640   28.7150   44.4030 C   0  0  0  0  0  0  0  0  0  0  0  0
   58.8000   27.7280   43.6250 O   0  0  0  0  0  0  0  0  0  0  0  0
   55.6413   29.1059   43.5872 H   0  0  0  0  0  0  0  0  0  0  0  0
   56.5416   30.2482   42.5330 H   0  0  0  0  0  0  0  0  0  0  0  0
   56.9646   28.5024   42.5330 H   0  0  0  0  0  0  0  0  0  0  0  0
   60.0788   32.1698   48.4456 H   0  0  0  0  0  0  0  0  0  0  0  0
   56.6622   32.7847   46.8814 H   0  0  0  0  0  0  0  0  0  0  0  0
   57.7248   33.2823   48.2507 H   0  0  0  0  0  0  0  0  0  0  0  0
   57.7873   35.0654   47.0345 H   0  0  0  0  0  0  0  0  0  0  0  0
   57.1948   33.3142   44.6210 H   0  0  0  0  0  0  0  0  0  0  0  0
   57.0854   34.9781   44.4826 H   0  0  0  0  0  0  0  0  0  0  0  0
   59.5295   33.2607   43.9834 H   0  0  0  0  0  0  0  0  0  0  0  0
   59.6295   34.9215   43.7976 H   0  0  0  0  0  0  0  0  0  0  0  0
   60.1650   33.3253   46.3180 H   0  0  0  0  0  0  0  0  0  0  0  0
   60.3304   34.9902   46.3367 H   0  0  0  0  0  0  0  0  0  0  0  0
   60.9285   27.8708   46.6467 H   0  0  0  0  0  0  0  0  0  0  0  0
   60.5166   27.0523   45.1017 H   0  0  0  0  0  0  0  0  0  0  0  0
   61.6255   28.4655   45.1017 H   0  0  0  0  0  0  0  0  0  0  0  0
  1  2  1  0
  2  3  1  0
  3  4  2  0
  3  5  1  0
  5  6  2  0
  6  7  1  0
  7  8  2  0
  8  9  1  0
  9 10  1  0
 10 11  1  0
 11 12  1  0
 12 13  1  0
 13 14  1  0
  6 15  1  0
 15 16  1  0
 15 17  1  0
 17 18  2  0
 17  2  1  0
  9  5  1  0
 14 11  1  0
  1 19  1  0
  1 20  1  0
  1 21  1  0
  8 22  1  0
 10 23  1  0
 10 24  1  0
 11 25  1  0
 12 26  1  0
 12 27  1  0
 13 28  1  0
 13 29  1  0
 14 30  1  0
 14 31  1  0
 16 32  1  0
 16 33  1  0
 16 34  1  0
M  END
>  <UniqueID>  (26) 
25

>  <SMILES>  (26) 
Cn1c(=O)c2c(ncn2CC2CCC2)n(C)c1=O

>  <Energy>  (26) 
137.3809899829473

>  <Genealogy>  (26) 
Cn1c(=O)c2c(ncn2CC2CCC2)n(C)c1=O (3D coordinates assigned)
Cn1c(=O)c2c(ncn2CC2CCC2)n(C)c1=O (nonaromatic ring conformer: 137.3809899829473 kcal/mol)

>  <smiles>  (26) 
Cn1c(=O)c2c(ncn2CC2CCC2)n(C)c1=O

>  <score_type>  (26) 
oracle

>  <origin>  (26) 
adg

>  <m_score__min__energy>  (26) 
-6.0300000000000002

>  <m_primary>  (26) 
energy

$$$$
26:0
     RDKit          3D

 34 36  0  0  0  0  0  0  0  0999 V2000
   57.1019   24.6406   47.4842 H   0  0  0  0  0  0  0  0  0  0  0  0
   56.9360   25.5500   46.8880 C   0  0  0  0  0  0  0  0  0  0  0  0
   55.7850   25.9320   46.3810 O   0  0  0  0  0  0  0  0  0  0  0  0
   55.9170   27.0490   45.7290 N   0  0  0  0  0  0  0  0  0  0  0  0
   55.1440   27.5600   45.2480 H   0  0  0  0  0  0  0  0  0  0  0  0
   57.2070   27.4150   45.8060 C   0  0  0  0  0  0  0  0  0  0  0  0
   57.6590   28.5200   45.2860 N   0  0  0  0  0  0  0  0  0  0  0  0
   56.9110   29.5200   44.5770 C   0  0  0  0  0  0  0  0  0  0  0  0
   55.6920   29.7250   44.8240 O   0  0  0  0  0  0  0  0  0  0  0  0
   57.5930   30.3170   43.5080 C   0  0  0  0  0  0  0  0  0  0  0  0
   57.1735   30.0361   42.5307 H   0  0  0  0  0  0  0  0  0  0  0  0
   58.6703   30.0987   43.5504 H   0  0  0  0  0  0  0  0  0  0  0  0
   57.4000   31.8250   43.7180 C   0  0  0  0  0  0  0  0  0  0  0  0
   56.3251   32.0376   43.8149 H   0  0  0  0  0  0  0  0  0  0  0  0
   57.8270   32.3513   42.8516 H   0  0  0  0  0  0  0  0  0  0  0  0
   58.1070   32.3050   44.9570 C   0  0  0  0  0  0  0  0  0  0  0  0
   59.0420   31.5460   45.5880 N   0  0  0  0  0  0  0  0  0  0  0  0
   59.4630   32.3460   46.5820 C   0  0  0  0  0  0  0  0  0  0  0  0
   60.4220   32.0600   47.5520 C   0  0  0  0  0  0  0  0  0  0  0  0
   60.9424   31.0910   47.5686 H   0  0  0  0  0  0  0  0  0  0  0  0
   60.7020   33.0520   48.5090 C   0  0  0  0  0  0  0  0  0  0  0  0
   61.4542   32.8617   49.2887 H   0  0  0  0  0  0  0  0  0  0  0  0
   60.0240   34.2910   48.4760 C   0  0  0  0  0  0  0  0  0  0  0  0
   60.2502   35.0584   49.2309 H   0  0  0  0  0  0  0  0  0  0  0  0
   59.0610   34.5490   47.4830 C   0  0  0  0  0  0  0  0  0  0  0  0
   58.5238   35.5082   47.4465 H   0  0  0  0  0  0  0  0  0  0  0  0
   58.8110   33.5440   46.5450 C   0  0  0  0  0  0  0  0  0  0  0  0
   57.9590   33.5430   45.5060 N   0  0  0  0  0  0  0  0  0  0  0  0
   57.0100   34.5950   45.1340 C   0  0  0  0  0  0  0  0  0  0  0  0
   56.5960   35.0539   46.0440 H   0  0  0  0  0  0  0  0  0  0  0  0
   57.5275   35.3622   44.5393 H   0  0  0  0  0  0  0  0  0  0  0  0
   56.1938   34.1590   44.5393 H   0  0  0  0  0  0  0  0  0  0  0  0
   57.9040   26.4770   46.5500 C   0  0  0  0  0  0  0  0  0  0  0  0
   58.9729   26.4713   46.8098 H   0  0  0  0  0  0  0  0  0  0  0  0
  1  2  1  0
  2  3  1  0
  3  4  1  0
  4  5  1  0
  4  6  1  0
  6  7  2  0
  7  8  1  0
  8  9  2  0
  8 10  1  0
 10 11  1  0
 10 12  1  0
 10 13  1  0
 13 14  1  0
 13 15  1  0
 13 16  1  0
 16 17  2  0
 17 18  1  0
 18 19  2  0
 19 20  1  0
 19 21  1  0
 21 22  1  0
 21 23  2  0
 23 24  1  0
 23 25  1  0
 25 26  1  0
 25 27  2  0
 27 28  1  0
 28 29  1  0
 29 30  1  0
 29 31  1  0
 29 32  1  0
  6 33  1  0
 33 34  1  0
 33  2  2  0
 28 16  1  0
 27 18  1  0
M  END
>  <UniqueID>  (27) 
26

>  <SMILES>  (27) 
Cn1c(CCC(=O)/N=c2\cco[nH]2)nc2ccccc21

>  <Energy>  (27) 
103.44250906251396

>  <Genealogy>  (27) 
Cn1c(CCC(=O)/N=c2\cco[nH]2)nc2ccccc21 (cis-trans isomerization)
Cn1c(CCC(=O)/N=c2\cco[nH]2)nc2ccccc21 (3D coordinates assigned)
Cn1c(CCC(=O)/N=c2\cco[nH]2)nc2ccccc21 (optimized conformer: 103.44250906251396 kcal/mol)

>  <smiles>  (27) 
Cn1c(CCC(=O)N=c2cco[nH]2)nc2ccccc21

>  <score_type>  (27) 
oracle

>  <origin>  (27) 
adg

>  <m_score__min__energy>  (27) 
-7.9199999999999999

>  <m_primary>  (27) 
energy

$$$$
27:0
     RDKit          3D

 50 52  0  0  0  0  0  0  0  0999 V2000
   57.7570   32.9100   46.2270 C   0  0  0  0  0  0  0  0  0  0  0  0
   57.3550   32.5220   44.8130 C   0  0  0  0  0  0  0  0  0  0  0  0
   56.2380   31.6380   44.8600 O   0  0  0  0  0  0  0  0  0  0  0  0
   56.3160   30.3050   44.4470 C   0  0  0  0  0  0  0  0  0  0  0  0
   55.4970   29.4460   44.8750 O   0  0  0  0  0  0  0  0  0  0  0  0
   57.3880   29.8950   43.4900 C   0  0  0  0  0  0  0  0  0  0  0  0
   58.5430   29.3460   44.2040 N   0  0  0  0  0  0  0  0  0  0  0  0
   59.4880   30.0450   44.8510 C   0  0  0  0  0  0  0  0  0  0  0  0
   60.4790   29.1700   45.2410 C   0  0  0  0  0  0  0  0  0  0  0  0
   60.1680   27.9250   44.8330 N   0  0  0  0  0  0  0  0  0  0  0  0
   58.9690   28.0640   44.2270 C   0  0  0  0  0  0  0  0  0  0  0  0
   58.0820   26.6940   43.4730 S   0  0  0  0  0  0  0  0  0  0  0  0
   58.2070   25.4920   44.8690 C   0  0  1  0  0  0  0  0  0  0  0  0
   57.6510   26.0570   46.1710 C   0  0  0  0  0  0  0  0  0  0  0  0
   56.4590   25.8010   46.5060 O   0  0  0  0  0  0  0  0  0  0  0  0
   58.4840   26.8730   47.0960 C   0  0  0  0  0  0  0  0  0  0  0  0
   59.6220   26.3370   47.7300 C   0  0  0  0  0  0  0  0  0  0  0  0
   60.3960   27.1260   48.5870 C   0  0  0  0  0  0  0  0  0  0  0  0
   60.0500   28.4640   48.8250 C   0  0  0  0  0  0  0  0  0  0  0  0
   60.8560   29.2910   49.7830 C   0  0  0  0  0  0  0  0  0  0  0  0
   58.8980   28.9940   48.2250 C   0  0  0  0  0  0  0  0  0  0  0  0
   58.1250   28.2080   47.3650 C   0  0  0  0  0  0  0  0  0  0  0  0
   57.6600   24.1200   44.4880 C   0  0  0  0  0  0  0  0  0  0  0  0
   58.0480   22.9460   45.1690 C   0  0  0  0  0  0  0  0  0  0  0  0
   57.5610   21.6990   44.7680 C   0  0  0  0  0  0  0  0  0  0  0  0
   56.6750   21.6040   43.6910 C   0  0  0  0  0  0  0  0  0  0  0  0
   56.2560   22.7600   43.0290 C   0  0  0  0  0  0  0  0  0  0  0  0
   56.7390   24.0110   43.4250 C   0  0  0  0  0  0  0  0  0  0  0  0
   57.1599   32.3337   46.9491 H   0  0  0  0  0  0  0  0  0  0  0  0
   58.8247   32.6923   46.3775 H   0  0  0  0  0  0  0  0  0  0  0  0
   57.5772   33.9847   46.3775 H   0  0  0  0  0  0  0  0  0  0  0  0
   57.0831   33.4261   44.2484 H   0  0  0  0  0  0  0  0  0  0  0  0
   58.1988   32.0191   44.3179 H   0  0  0  0  0  0  0  0  0  0  0  0
   56.9888   29.1296   42.8082 H   0  0  0  0  0  0  0  0  0  0  0  0
   57.7126   30.7810   42.9247 H   0  0  0  0  0  0  0  0  0  0  0  0
   59.4742   31.1289   45.0379 H   0  0  0  0  0  0  0  0  0  0  0  0
   61.3852   29.4464   45.8000 H   0  0  0  0  0  0  0  0  0  0  0  0
   59.2751   25.3270   45.0738 H   0  0  0  0  0  0  0  0  0  0  0  0
   59.9042   25.2892   47.5496 H   0  0  0  0  0  0  0  0  0  0  0  0
   61.2812   26.6946   49.0772 H   0  0  0  0  0  0  0  0  0  0  0  0
   60.5908   29.0189   50.8153 H   0  0  0  0  0  0  0  0  0  0  0  0
   61.9272   29.1033   49.6180 H   0  0  0  0  0  0  0  0  0  0  0  0
   60.6408   30.3571   49.6180 H   0  0  0  0  0  0  0  0  0  0  0  0
   58.6015   30.0328   48.4321 H   0  0  0  0  0  0  0  0  0  0  0  0
   57.2280   28.6364   46.8941 H   0  0  0  0  0  0  0  0  0  0  0  0
   58.7392   23.0132   46.0221 H   0  0  0  0  0  0  0  0  0  0  0  0
   57.8757   20.7898   45.3013 H   0  0  0  0  0  0  0  0  0  0  0  0
   56.3081   20.6195   43.3652 H   0  0  0  0  0  0  0  0  0  0  0  0
   55.5440   22.6862   42.1937 H   0  0  0  0  0  0  0  0  0  0  0  0
   56.3981   24.9175   42.9034 H   0  0  0  0  0  0  0  0  0  0  0  0
  1  2  1  0
  2  3  1  0
  3  4  1  0
  4  5  2  0
  4  6  1  0
  6  7  1  0
  7  8  1  0
  8  9  2  0
  9 10  1  0
 10 11  2  0
 11 12  1  0
 12 13  1  0
 13 14  1  0
 14 15  2  0
 14 16  1  0
 16 17  2  0
 17 18  1  0
 18 19  2  0
 19 20  1  0
 19 21  1  0
 21 22  2  0
 13 23  1  0
 23 24  2  0
 24 25  1  0
 25 26  2  0
 26 27  1  0
 27 28  2  0
 11  7  1  0
 22 16  1  0
 28 23  1  0
  1 29  1  0
  1 30  1  0
  1 31  1  0
  2 32  1  0
  2 33  1  0
  6 34  1  0
  6 35  1  0
  8 36  1  0
  9 37  1  0
 13 38  1  1
 17 39  1  0
 18 40  1  0
 20 41  1  0
 20 42  1  0
 20 43  1  0
 21 44  1  0
 22 45  1  0
 24 46  1  0
 25 47  1  0
 26 48  1  0
 27 49  1  0
 28 50  1  0
M  END
>  <UniqueID>  (28) 
27

>  <SMILES>  (28) 
CCOC(=O)Cn1ccnc1S[C@@H](C(=O)c1ccc(C)cc1)c1ccccc1

>  <Energy>  (28) 
77.26177557721225

>  <Genealogy>  (28) 
CCOC(=O)Cn1ccnc1S[C@@H](C(=O)c1ccc(C)cc1)c1ccccc1 (chirality)
CCOC(=O)Cn1ccnc1S[C@@H](C(=O)c1ccc(C)cc1)c1ccccc1 (3D coordinates assigned)
CCOC(=O)Cn1ccnc1S[C@@H](C(=O)c1ccc(C)cc1)c1ccccc1 (optimized conformer: 77.26177557721225 kcal/mol)

>  <smiles>  (28) 
CCOC(=O)Cn1ccnc1SC(C(=O)c1ccc(C)cc1)c1ccccc1

>  <score_type>  (28) 
oracle

>  <origin>  (28) 
adg

>  <m_score__min__energy>  (28) 
-8.1199999999999992

>  <m_primary>  (28) 
energy

$$$$
28:0
     RDKit          3D

 33 34  0  0  0  0  0  0  0  0999 V2000
   59.8300   28.8670   45.0080 C   0  0  0  0  0  0  0  0  0  0  0  0
   58.5120   28.7030   45.7630 C   0  0  0  0  0  0  0  0  0  0  0  0
   57.7600   30.0310   45.9300 C   0  0  0  0  0  0  0  0  0  0  0  0
   57.6320   30.7820   44.6190 C   0  0  0  0  0  0  0  0  0  0  0  0
   57.0440   30.1240   43.5260 C   0  0  0  0  0  0  0  0  0  0  0  0
   56.9740   30.7280   42.3110 N   0  0  0  0  0  0  0  0  0  0  0  0
   57.4670   31.9750   42.0990 C   0  0  0  0  0  0  0  0  0  0  0  0
   57.3650   32.5970   40.7420 C   0  0  0  0  0  0  0  0  0  0  0  0
   58.0630   32.6750   43.1530 C   0  0  0  0  0  0  0  0  0  0  0  0
   58.1440   32.0890   44.4240 C   0  0  0  0  0  0  0  0  0  0  0  0
   58.7620   32.8700   45.5160 C   0  0  0  0  0  0  0  0  0  0  0  0
   59.7630   32.2930   46.3140 C   0  0  0  0  0  0  0  0  0  0  0  0
   60.3630   33.0370   47.3340 C   0  0  0  0  0  0  0  0  0  0  0  0
   59.9800   34.3630   47.5530 C   0  0  0  0  0  0  0  0  0  0  0  0
   58.9990   34.9490   46.7490 C   0  0  0  0  0  0  0  0  0  0  0  0
   58.3950   34.2080   45.7280 C   0  0  0  0  0  0  0  0  0  0  0  0
   60.6549   28.9696   45.7284 H   0  0  0  0  0  0  0  0  0  0  0  0
   60.0029   27.9834   44.3760 H   0  0  0  0  0  0  0  0  0  0  0  0
   59.7811   29.7660   44.3760 H   0  0  0  0  0  0  0  0  0  0  0  0
   57.8717   28.0027   45.2066 H   0  0  0  0  0  0  0  0  0  0  0  0
   58.7480   28.3242   46.7684 H   0  0  0  0  0  0  0  0  0  0  0  0
   56.7525   29.8218   46.3189 H   0  0  0  0  0  0  0  0  0  0  0  0
   58.3336   30.6602   46.6265 H   0  0  0  0  0  0  0  0  0  0  0  0
   56.6365   29.1104   43.6550 H   0  0  0  0  0  0  0  0  0  0  0  0
   57.1878   33.6776   40.8463 H   0  0  0  0  0  0  0  0  0  0  0  0
   58.3024   32.4307   40.1910 H   0  0  0  0  0  0  0  0  0  0  0  0
   56.5298   32.1400   40.1910 H   0  0  0  0  0  0  0  0  0  0  0  0
   58.4676   33.6840   42.9849 H   0  0  0  0  0  0  0  0  0  0  0  0
   60.0756   31.2535   46.1361 H   0  0  0  0  0  0  0  0  0  0  0  0
   61.1380   32.5779   47.9654 H   0  0  0  0  0  0  0  0  0  0  0  0
   60.4510   34.9455   48.3585 H   0  0  0  0  0  0  0  0  0  0  0  0
   58.7014   35.9942   46.9192 H   0  0  0  0  0  0  0  0  0  0  0  0
   57.6305   34.6750   45.0897 H   0  0  0  0  0  0  0  0  0  0  0  0
  1  2  1  0
  2  3  1  0
  3  4  1  0
  4  5  2  0
  5  6  1  0
  6  7  2  0
  7  8  1  0
  7  9  1  0
  9 10  2  0
 10 11  1  0
 11 12  2  0
 12 13  1  0
 13 14  2  0
 14 15  1  0
 15 16  2  0
 10  4  1  0
 16 11  1  0
  1 17  1  0
  1 18  1  0
  1 19  1  0
  2 20  1  0
  2 21  1  0
  3 22  1  0
  3 23  1  0
  5 24  1  0
  8 25  1  0
  8 26  1  0
  8 27  1  0
  9 28  1  0
 12 29  1  0
 13 30  1  0
 14 31  1  0
 15 32  1  0
 16 33  1  0
M  END
>  <UniqueID>  (29) 
28

>  <SMILES>  (29) 
CCCc1cnc(C)cc1-c1ccccc1

>  <Energy>  (29) 
35.71566584042898

>  <Genealogy>  (29) 
CCCc1cnc(C)cc1-c1ccccc1 (3D coordinates assigned)
CCCc1cnc(C)cc1-c1ccccc1 (optimized conformer: 35.71566584042898 kcal/mol)

>  <smiles>  (29) 
CCCc1cnc(C)cc1-c1ccccc1

>  <score_type>  (29) 
oracle

>  <origin>  (29) 
adg

>  <m_score__min__energy>  (29) 
-6.2800000000000002

>  <m_primary>  (29) 
energy

$$$$
29:0
     RDKit          3D

 52 54  0  0  0  0  0  0  0  0999 V2000
   57.3780   31.6230   42.1050 C   0  0  0  0  0  0  0  0  0  0  0  0
   57.7720   31.9830   43.5130 C   0  0  0  0  0  0  0  0  0  0  0  0
   58.2950   33.2670   43.7450 C   0  0  0  0  0  0  0  0  0  0  0  0
   58.6290   33.6830   45.0330 C   0  0  0  0  0  0  0  0  0  0  0  0
   58.4270   32.8350   46.1290 C   0  0  0  0  0  0  0  0  0  0  0  0
   58.7820   33.2630   47.5020 C   0  0  0  0  0  0  0  0  0  0  0  0
   58.2230   32.7070   48.4880 O   0  0  0  0  0  0  0  0  0  0  0  0
   59.7410   34.3080   47.7290 N   0  0  0  0  0  0  0  0  0  0  0  0
   60.3010   34.5800   49.0510 C   0  0  0  0  0  0  0  0  0  0  0  0
   61.7230   34.0950   49.1210 C   0  0  0  0  0  0  0  0  0  0  0  0
   62.4410   34.1540   50.3280 C   0  0  0  0  0  0  0  0  0  0  0  0
   63.7540   33.6760   50.3900 C   0  0  0  0  0  0  0  0  0  0  0  0
   64.3560   33.1330   49.2510 C   0  0  0  0  0  0  0  0  0  0  0  0
   65.6280   32.6680   49.3140 F   0  0  0  0  0  0  0  0  0  0  0  0
   63.6450   33.0650   48.0490 C   0  0  0  0  0  0  0  0  0  0  0  0
   62.3320   33.5420   47.9840 C   0  0  0  0  0  0  0  0  0  0  0  0
   57.9060   31.5500   45.9050 C   0  0  0  0  0  0  0  0  0  0  0  0
   57.5840   31.1040   44.6110 C   0  0  0  0  0  0  0  0  0  0  0  0
   56.9350   29.4510   44.4520 S   0  0  0  0  0  0  0  0  0  0  0  0
   55.4830   29.4760   44.8440 O   0  0  0  0  0  0  0  0  0  0  0  0
   57.0010   28.9850   43.0250 O   0  0  0  0  0  0  0  0  0  0  0  0
   57.7640   28.3000   45.4760 N   0  0  0  0  0  0  0  0  0  0  0  0
   56.9580   27.0910   45.6720 C   0  0  0  0  0  0  0  0  0  0  0  0
   57.6070   26.1790   46.7350 C   0  0  0  0  0  0  0  0  0  0  0  0
   59.0600   26.4130   46.9060 N   0  0  0  0  0  0  0  0  0  0  0  0
   59.3530   27.3930   47.9670 C   0  0  0  0  0  0  0  0  0  0  0  0
   59.7270   26.7500   45.6340 C   0  0  0  0  0  0  0  0  0  0  0  0
   59.0870   27.9640   44.9220 C   0  0  0  0  0  0  0  0  0  0  0  0
   56.5661   30.8812   42.1297 H   0  0  0  0  0  0  0  0  0  0  0  0
   57.0342   32.5255   41.5783 H   0  0  0  0  0  0  0  0  0  0  0  0
   58.2458   31.1994   41.5783 H   0  0  0  0  0  0  0  0  0  0  0  0
   58.4428   33.9533   42.8982 H   0  0  0  0  0  0  0  0  0  0  0  0
   59.0545   34.6852   45.1896 H   0  0  0  0  0  0  0  0  0  0  0  0
   60.0270   34.9310   46.9400 H   0  0  0  0  0  0  0  0  0  0  0  0
   60.2766   35.6633   49.2404 H   0  0  0  0  0  0  0  0  0  0  0  0
   59.7037   34.0533   49.8098 H   0  0  0  0  0  0  0  0  0  0  0  0
   61.9687   34.5775   51.2267 H   0  0  0  0  0  0  0  0  0  0  0  0
   64.3134   33.7273   51.3357 H   0  0  0  0  0  0  0  0  0  0  0  0
   64.1188   32.6360   47.1538 H   0  0  0  0  0  0  0  0  0  0  0  0
   61.7742   33.4835   47.0377 H   0  0  0  0  0  0  0  0  0  0  0  0
   57.7463   30.8777   46.7609 H   0  0  0  0  0  0  0  0  0  0  0  0
   55.9501   27.3775   46.0066 H   0  0  0  0  0  0  0  0  0  0  0  0
   56.8983   26.5433   44.7199 H   0  0  0  0  0  0  0  0  0  0  0  0
   57.1093   26.3593   47.6993 H   0  0  0  0  0  0  0  0  0  0  0  0
   57.4844   25.1417   46.3901 H   0  0  0  0  0  0  0  0  0  0  0  0
   59.2120   26.9215   48.9508 H   0  0  0  0  0  0  0  0  0  0  0  0
   60.3933   27.7372   47.8711 H   0  0  0  0  0  0  0  0  0  0  0  0
   58.6723   28.2518   47.8711 H   0  0  0  0  0  0  0  0  0  0  0  0
   60.7822   26.9811   45.8415 H   0  0  0  0  0  0  0  0  0  0  0  0
   59.6215   25.8824   44.9661 H   0  0  0  0  0  0  0  0  0  0  0  0
   59.7509   28.8333   45.0382 H   0  0  0  0  0  0  0  0  0  0  0  0
   58.9527   27.7017   43.8622 H   0  0  0  0  0  0  0  0  0  0  0  0
  1  2  1  0
  2  3  2  0
  3  4  1  0
  4  5  2  0
  5  6  1  0
  6  7  2  0
  6  8  1  0
  8  9  1  0
  9 10  1  0
 10 11  2  0
 11 12  1  0
 12 13  2  0
 13 14  1  0
 13 15  1  0
 15 16  2  0
  5 17  1  0
 17 18  2  0
 18 19  1  0
 19 20  2  0
 19 21  2  0
 19 22  1  0
 22 23  1  0
 23 24  1  0
 24 25  1  0
 25 26  1  0
 25 27  1  0
 27 28  1  0
 18  2  1  0
 28 22  1  0
 16 10  1  0
  1 29  1  0
  1 30  1  0
  1 31  1  0
  3 32  1  0
  4 33  1  0
  8 34  1  0
  9 35  1  0
  9 36  1  0
 11 37  1  0
 12 38  1  0
 15 39  1  0
 16 40  1  0
 17 41  1  0
 23 42  1  0
 23 43  1  0
 24 44  1  0
 24 45  1  0
 26 46  1  0
 26 47  1  0
 26 48  1  0
 27 49  1  0
 27 50  1  0
 28 51  1  0
 28 52  1  0
M  END
>  <UniqueID>  (30) 
29

>  <SMILES>  (30) 
Cc1ccc(C(=O)NCc2ccc(F)cc2)cc1S(=O)(=O)N1CCN(C)CC1

>  <Energy>  (30) 
65.18457304886137

>  <Genealogy>  (30) 
Cc1ccc(C(=O)NCc2ccc(F)cc2)cc1S(=O)(=O)N1CCN(C)CC1 (3D coordinates assigned)
Cc1ccc(C(=O)NCc2ccc(F)cc2)cc1S(=O)(=O)N1CCN(C)CC1 (nonaromatic ring conformer: 65.18457304886137 kcal/mol)

>  <smiles>  (30) 
Cc1ccc(C(=O)NCc2ccc(F)cc2)cc1S(=O)(=O)N1CCN(C)CC1

>  <score_type>  (30) 
oracle

>  <origin>  (30) 
adg

>  <m_score__min__energy>  (30) 
-10.66

>  <m_primary>  (30) 
energy

$$$$
30:0
     RDKit          3D

 39 42  0  0  0  0  0  0  0  0999 V2000
   62.9540   33.5040   46.7330 C   0  0  0  0  0  0  0  0  0  0  0  0
   62.0910   32.7120   47.7080 C   0  0  0  0  0  0  0  0  0  0  0  0
   60.9370   32.1370   47.0160 N   0  0  0  0  0  0  0  0  0  0  0  0
   60.7430   30.8210   46.7620 C   0  0  0  0  0  0  0  0  0  0  0  0
   59.5780   30.6390   46.0240 C   0  0  0  0  0  0  0  0  0  0  0  0
   59.0600   29.3600   45.4980 C   0  0  0  0  0  0  0  0  0  0  0  0
   58.8480   29.1400   44.1750 N   0  0  0  0  0  0  0  0  0  0  0  0
   58.4510   27.8590   44.1080 C   0  0  0  0  0  0  0  0  0  0  0  0
   58.1340   27.1160   42.9740 C   0  0  0  0  0  0  0  0  0  0  0  0
   57.7670   25.7700   43.1580 C   0  0  0  0  0  0  0  0  0  0  0  0
   57.7350   25.2070   44.4550 C   0  0  0  0  0  0  0  0  0  0  0  0
   58.0690   25.9850   45.5800 C   0  0  0  0  0  0  0  0  0  0  0  0
   58.4200   27.3200   45.3640 C   0  0  0  0  0  0  0  0  0  0  0  0
   58.7900   28.2590   46.2560 N   0  0  0  0  0  0  0  0  0  0  0  0
   58.9130   28.1050   47.7060 C   0  0  0  0  0  0  0  0  0  0  0  0
   59.0620   31.9060   45.8150 C   0  0  0  0  0  0  0  0  0  0  0  0
   57.9110   32.3360   45.1520 C   0  0  0  0  0  0  0  0  0  0  0  0
   57.6510   33.7170   45.1090 C   0  0  0  0  0  0  0  0  0  0  0  0
   58.5340   34.6300   45.7220 C   0  0  0  0  0  0  0  0  0  0  0  0
   59.6810   34.1710   46.3930 C   0  0  0  0  0  0  0  0  0  0  0  0
   59.9150   32.7930   46.4280 C   0  0  0  0  0  0  0  0  0  0  0  0
   63.6505   34.1432   47.2955 H   0  0  0  0  0  0  0  0  0  0  0  0
   63.5245   32.8085   46.0999 H   0  0  0  0  0  0  0  0  0  0  0  0
   62.3099   34.1320   46.0999 H   0  0  0  0  0  0  0  0  0  0  0  0
   62.6910   31.9015   48.1474 H   0  0  0  0  0  0  0  0  0  0  0  0
   61.7329   33.3881   48.4984 H   0  0  0  0  0  0  0  0  0  0  0  0
   61.4111   30.0118   47.0920 H   0  0  0  0  0  0  0  0  0  0  0  0
   59.0100   29.7950   43.3790 H   0  0  0  0  0  0  0  0  0  0  0  0
   58.1692   27.5650   41.9704 H   0  0  0  0  0  0  0  0  0  0  0  0
   57.5033   25.1517   42.2873 H   0  0  0  0  0  0  0  0  0  0  0  0
   57.4470   24.1535   44.5858 H   0  0  0  0  0  0  0  0  0  0  0  0
   58.0541   25.5569   46.5932 H   0  0  0  0  0  0  0  0  0  0  0  0
   58.3025   28.8694   48.2090 H   0  0  0  0  0  0  0  0  0  0  0  0
   58.5627   27.1044   47.9995 H   0  0  0  0  0  0  0  0  0  0  0  0
   59.9663   28.2254   47.9995 H   0  0  0  0  0  0  0  0  0  0  0  0
   57.2281   31.6159   44.6775 H   0  0  0  0  0  0  0  0  0  0  0  0
   56.7527   34.0879   44.5937 H   0  0  0  0  0  0  0  0  0  0  0  0
   58.3238   35.7087   45.6748 H   0  0  0  0  0  0  0  0  0  0  0  0
   60.3740   34.8754   46.8763 H   0  0  0  0  0  0  0  0  0  0  0  0
  1  2  1  0
  2  3  1  0
  3  4  1  0
  4  5  2  0
  5  6  1  0
  6  7  2  0
  7  8  1  0
  8  9  2  0
  9 10  1  0
 10 11  2  0
 11 12  1  0
 12 13  2  0
 13 14  1  0
 14 15  1  0
  5 16  1  0
 16 17  2  0
 17 18  1  0
 18 19  2  0
 19 20  1  0
 20 21  2  0
 21  3  1  0
 14  6  1  0
 21 16  1  0
 13  8  1  0
  1 22  1  0
  1 23  1  0
  1 24  1  0
  2 25  1  0
  2 26  1  0
  4 27  1  0
  7 28  1  0
  9 29  1  0
 10 30  1  0
 11 31  1  0
 12 32  1  0
 15 33  1  0
 15 34  1  0
 15 35  1  0
 17 36  1  0
 18 37  1  0
 19 38  1  0
 20 39  1  0
M  CHG  1   7   1
M  END
>  <UniqueID>  (31) 
30

>  <SMILES>  (31) 
CCn1cc(-c2[nH+]c3ccccc3n2C)c2ccccc21

>  <Energy>  (31) 
116.08949251217153

>  <Genealogy>  (31) 
CCn1cc(-c2[nH+]c3ccccc3n2C)c2ccccc21 (protonated)
CCn1cc(-c2[nH+]c3ccccc3n2C)c2ccccc21 (3D coordinates assigned)
CCn1cc(-c2[nH+]c3ccccc3n2C)c2ccccc21 (optimized conformer: 116.08949251217153 kcal/mol)

>  <smiles>  (31) 
CCn1cc(-c2nc3ccccc3n2C)c2ccccc21

>  <score_type>  (31) 
oracle

>  <origin>  (31) 
adg

>  <m_score__min__energy>  (31) 
-5.7400000000000002

>  <m_primary>  (31) 
energy

$$$$
31:0
     RDKit          3D

 50 53  0  0  0  0  0  0  0  0999 V2000
   57.0490   19.5790   46.0130 C   0  0  0  0  0  0  0  0  0  0  0  0
   57.3530   20.6560   46.8930 O   0  0  0  0  0  0  0  0  0  0  0  0
   57.1930   22.0120   46.5680 C   0  0  0  0  0  0  0  0  0  0  0  0
   57.5950   22.5460   45.3310 C   0  0  0  0  0  0  0  0  0  0  0  0
   57.4170   23.9050   45.0550 C   0  0  0  0  0  0  0  0  0  0  0  0
   56.8400   24.7580   46.0130 C   0  0  0  0  0  0  0  0  0  0  0  0
   56.6350   26.2020   45.7420 C   0  0  0  0  0  0  0  0  0  0  0  0
   55.5140   26.7180   46.0060 O   0  0  0  0  0  0  0  0  0  0  0  0
   57.6850   27.0130   45.1820 N   0  0  0  0  0  0  0  0  0  0  0  0
   57.5850   28.4360   44.9950 C   0  0  0  0  0  0  0  0  0  0  0  0
   57.1190   28.9380   43.7540 C   0  0  0  0  0  0  0  0  0  0  0  0
   57.0340   30.3230   43.5230 C   0  0  0  0  0  0  0  0  0  0  0  0
   57.4310   31.1770   44.5450 C   0  0  0  0  0  0  0  0  0  0  0  0
   57.4560   32.5220   44.5250 N   0  0  0  0  0  0  0  0  0  0  0  0
   57.9450   32.8330   45.7530 C   0  0  0  0  0  0  0  0  0  0  0  0
   58.1890   34.5320   46.2810 S   0  0  0  0  0  0  0  0  0  0  0  0
   59.9160   34.6270   45.6890 C   0  0  0  0  0  0  0  0  0  0  0  0
   60.8820   34.1960   46.7610 C   0  0  0  0  0  0  0  0  0  0  0  0
   62.0880   33.5640   46.4130 C   0  0  0  0  0  0  0  0  0  0  0  0
   62.9710   33.1310   47.4060 C   0  0  0  0  0  0  0  0  0  0  0  0
   62.6570   33.3250   48.7540 C   0  0  0  0  0  0  0  0  0  0  0  0
   61.4600   33.9500   49.1110 C   0  0  0  0  0  0  0  0  0  0  0  0
   60.5710   34.3840   48.1210 C   0  0  0  0  0  0  0  0  0  0  0  0
   59.4070   34.9810   48.4870 F   0  0  0  0  0  0  0  0  0  0  0  0
   58.2160   31.7470   46.5210 N   0  0  0  0  0  0  0  0  0  0  0  0
   58.8210   31.7060   47.8510 C   0  0  0  0  0  0  0  0  0  0  0  0
   57.8940   30.7060   45.7380 C   0  0  0  0  0  0  0  0  0  0  0  0
   58.0010   29.3390   46.0020 C   0  0  0  0  0  0  0  0  0  0  0  0
   56.4270   24.2160   47.2430 C   0  0  0  0  0  0  0  0  0  0  0  0
   56.6080   22.8570   47.5170 C   0  0  0  0  0  0  0  0  0  0  0  0
   56.7966   18.6847   46.6016 H   0  0  0  0  0  0  0  0  0  0  0  0
   56.1934   19.8541   45.3787 H   0  0  0  0  0  0  0  0  0  0  0  0
   57.9221   19.3661   45.3787 H   0  0  0  0  0  0  0  0  0  0  0  0
   58.0525   21.8903   44.5755 H   0  0  0  0  0  0  0  0  0  0  0  0
   57.7305   24.3101   44.0815 H   0  0  0  0  0  0  0  0  0  0  0  0
   58.5570   26.5540   44.8410 H   0  0  0  0  0  0  0  0  0  0  0  0
   56.8201   28.2358   42.9618 H   0  0  0  0  0  0  0  0  0  0  0  0
   56.6653   30.7173   42.5646 H   0  0  0  0  0  0  0  0  0  0  0  0
   60.0327   33.9694   44.8150 H   0  0  0  0  0  0  0  0  0  0  0  0
   60.1359   35.6707   45.4202 H   0  0  0  0  0  0  0  0  0  0  0  0
   62.3384   33.4093   45.3531 H   0  0  0  0  0  0  0  0  0  0  0  0
   63.9134   32.6373   47.1265 H   0  0  0  0  0  0  0  0  0  0  0  0
   63.3534   32.9851   49.5347 H   0  0  0  0  0  0  0  0  0  0  0  0
   61.2155   34.1015   50.1727 H   0  0  0  0  0  0  0  0  0  0  0  0
   58.0313   31.7595   48.6149 H   0  0  0  0  0  0  0  0  0  0  0  0
   59.3828   30.7677   47.9695 H   0  0  0  0  0  0  0  0  0  0  0  0
   59.5042   32.5599   47.9695 H   0  0  0  0  0  0  0  0  0  0  0  0
   58.3961   28.9756   46.9621 H   0  0  0  0  0  0  0  0  0  0  0  0
   55.9577   24.8665   47.9957 H   0  0  0  0  0  0  0  0  0  0  0  0
   56.2877   22.4488   48.4869 H   0  0  0  0  0  0  0  0  0  0  0  0
  1  2  1  0
  2  3  1  0
  3  4  2  0
  4  5  1  0
  5  6  2  0
  6  7  1  0
  7  8  2  0
  7  9  1  0
  9 10  1  0
 10 11  2  0
 11 12  1  0
 12 13  2  0
 13 14  1  0
 14 15  2  0
 15 16  1  0
 16 17  1  0
 17 18  1  0
 18 19  2  0
 19 20  1  0
 20 21  2  0
 21 22  1  0
 22 23  2  0
 23 24  1  0
 15 25  1  0
 25 26  1  0
 25 27  1  0
 27 28  2  0
  6 29  1  0
 29 30  2  0
 30  3  1  0
 28 10  1  0
 27 13  1  0
 23 18  1  0
  1 31  1  0
  1 32  1  0
  1 33  1  0
  4 34  1  0
  5 35  1  0
  9 36  1  0
 11 37  1  0
 12 38  1  0
 17 39  1  0
 17 40  1  0
 19 41  1  0
 20 42  1  0
 21 43  1  0
 22 44  1  0
 26 45  1  0
 26 46  1  0
 26 47  1  0
 28 48  1  0
 29 49  1  0
 30 50  1  0
M  END
>  <UniqueID>  (32) 
31

>  <SMILES>  (32) 
COc1ccc(C(=O)Nc2ccc3nc(SCc4ccccc4F)n(C)c3c2)cc1

>  <Energy>  (32) 
93.07753878002161

>  <Genealogy>  (32) 
COc1ccc(C(=O)Nc2ccc3nc(SCc4ccccc4F)n(C)c3c2)cc1 (3D coordinates assigned)
COc1ccc(C(=O)Nc2ccc3nc(SCc4ccccc4F)n(C)c3c2)cc1 (optimized conformer: 93.07753878002161 kcal/mol)

>  <smiles>  (32) 
COc1ccc(C(=O)Nc2ccc3nc(SCc4ccccc4F)n(C)c3c2)cc1

>  <score_type>  (32) 
oracle

>  <origin>  (32) 
adg

>  <m_score__min__energy>  (32) 
-9

>  <m_primary>  (32) 
energy

$$$$
32:0
     RDKit          3D

 33 34  0  0  0  0  0  0  0  0999 V2000
   60.3240   26.7140   46.8390 C   0  0  0  0  0  0  0  0  0  0  0  0
   59.0260   26.2030   46.2270 C   0  0  0  0  0  0  0  0  0  0  0  0
   58.5270   27.1500   45.2350 N   0  0  0  0  0  0  0  0  0  0  0  0
   58.2010   28.4350   45.4650 C   0  0  0  0  0  0  0  0  0  0  0  0
   57.7180   28.9570   44.2870 C   0  0  0  0  0  0  0  0  0  0  0  0
   57.1670   30.5970   43.9990 S   0  0  0  0  0  0  0  0  0  0  0  0
   55.9600   30.8690   44.8530 O   0  0  0  0  0  0  0  0  0  0  0  0
   56.7790   30.7230   42.5520 O   0  0  0  0  0  0  0  0  0  0  0  0
   58.4580   31.7140   44.3850 N   0  0  0  0  0  0  0  0  0  0  0  0
   58.8970   31.5900   45.7980 C   0  0  0  0  0  0  0  0  0  0  0  0
   58.6810   32.8610   46.6380 C   0  0  0  0  0  0  0  0  0  0  0  0
   57.3010   33.4560   46.3620 C   0  0  0  0  0  0  0  0  0  0  0  0
   57.0990   33.7740   44.8700 C   0  0  0  0  0  0  0  0  0  0  0  0
   58.1370   33.0910   43.9590 C   0  0  0  0  0  0  0  0  0  0  0  0
   57.7730   27.9280   43.3710 C   0  0  0  0  0  0  0  0  0  0  0  0
   58.2640   26.8280   43.9770 N   0  0  0  0  0  0  0  0  0  0  0  0
   60.2487   26.6844   47.9360 H   0  0  0  0  0  0  0  0  0  0  0  0
   61.1593   26.0776   46.5115 H   0  0  0  0  0  0  0  0  0  0  0  0
   60.5013   27.7490   46.5115 H   0  0  0  0  0  0  0  0  0  0  0  0
   59.2105   25.2330   45.7422 H   0  0  0  0  0  0  0  0  0  0  0  0
   58.2753   26.0895   47.0229 H   0  0  0  0  0  0  0  0  0  0  0  0
   58.3021   28.9706   46.4205 H   0  0  0  0  0  0  0  0  0  0  0  0
   58.3332   30.7684   46.2638 H   0  0  0  0  0  0  0  0  0  0  0  0
   59.9810   31.4042   45.7777 H   0  0  0  0  0  0  0  0  0  0  0  0
   58.7590   32.6071   47.7055 H   0  0  0  0  0  0  0  0  0  0  0  0
   59.4484   33.6012   46.3675 H   0  0  0  0  0  0  0  0  0  0  0  0
   56.5333   32.7346   46.6786 H   0  0  0  0  0  0  0  0  0  0  0  0
   57.2179   34.3976   46.9247 H   0  0  0  0  0  0  0  0  0  0  0  0
   56.0957   33.4348   44.5728 H   0  0  0  0  0  0  0  0  0  0  0  0
   57.2204   34.8604   44.7475 H   0  0  0  0  0  0  0  0  0  0  0  0
   57.7369   33.0573   42.9349 H   0  0  0  0  0  0  0  0  0  0  0  0
   59.0648   33.6791   44.0170 H   0  0  0  0  0  0  0  0  0  0  0  0
   57.4661   27.9937   42.3167 H   0  0  0  0  0  0  0  0  0  0  0  0
  1  2  1  0
  2  3  1  0
  3  4  1  0
  4  5  2  0
  5  6  1  0
  6  7  2  0
  6  8  2  0
  6  9  1  0
  9 10  1  0
 10 11  1  0
 11 12  1  0
 12 13  1  0
 13 14  1  0
  5 15  1  0
 15 16  2  0
 16  3  1  0
 14  9  1  0
  1 17  1  0
  1 18  1  0
  1 19  1  0
  2 20  1  0
  2 21  1  0
  4 22  1  0
 10 23  1  0
 10 24  1  0
 11 25  1  0
 11 26  1  0
 12 27  1  0
 12 28  1  0
 13 29  1  0
 13 30  1  0
 14 31  1  0
 14 32  1  0
 15 33  1  0
M  END
>  <UniqueID>  (33) 
32

>  <SMILES>  (33) 
CCn1cc(S(=O)(=O)N2CCCCC2)cn1

>  <Energy>  (33) 
64.90367906467227

>  <Genealogy>  (33) 
CCn1cc(S(=O)(=O)N2CCCCC2)cn1 (3D coordinates assigned)
CCn1cc(S(=O)(=O)N2CCCCC2)cn1 (nonaromatic ring conformer: 64.90367906467227 kcal/mol)

>  <smiles>  (33) 
CCn1cc(S(=O)(=O)N2CCCCC2)cn1

>  <score_type>  (33) 
oracle

>  <origin>  (33) 
adg

>  <m_score__min__energy>  (33) 
-6.46

>  <m_primary>  (33) 
energy

$$$$
33:0
     RDKit          3D

 26 27  0  0  0  0  0  0  0  0999 V2000
   57.5350   31.4480   44.3020 C   0  0  0  0  0  0  0  0  0  0  0  0
   56.7730   30.5240   45.0710 O   0  0  0  0  0  0  0  0  0  0  0  0
   57.2840   29.3400   45.6250 C   0  0  0  0  0  0  0  0  0  0  0  0
   56.7480   28.0740   45.3210 C   0  0  0  0  0  0  0  0  0  0  0  0
   57.2840   26.9100   45.9010 C   0  0  0  0  0  0  0  0  0  0  0  0
   56.7230   25.5760   45.5740 C   0  0  0  0  0  0  0  0  0  0  0  0
   57.5870   24.5230   45.2260 C   0  0  0  0  0  0  0  0  0  0  0  0
   57.0760   23.2620   44.9050 C   0  0  0  0  0  0  0  0  0  0  0  0
   55.6970   23.0370   44.9310 C   0  0  0  0  0  0  0  0  0  0  0  0
   55.1910   21.7850   44.6110 O   0  0  0  0  0  0  0  0  0  0  0  0
   54.8280   24.0740   45.2840 C   0  0  0  0  0  0  0  0  0  0  0  0
   55.3320   25.3380   45.6100 C   0  0  0  0  0  0  0  0  0  0  0  0
   54.4460   26.3410   45.9880 O   0  0  0  0  0  0  0  0  0  0  0  0
   58.3740   27.0210   46.7780 C   0  0  0  0  0  0  0  0  0  0  0  0
   58.9100   28.2750   47.0820 C   0  0  0  0  0  0  0  0  0  0  0  0
   58.3680   29.4290   46.5100 C   0  0  0  0  0  0  0  0  0  0  0  0
   58.9110   30.6700   46.8250 O   0  0  0  0  0  0  0  0  0  0  0  0
   58.0878   32.1183   44.9766 H   0  0  0  0  0  0  0  0  0  0  0  0
   58.2460   30.8985   43.6675 H   0  0  0  0  0  0  0  0  0  0  0  0
   56.8601   32.0413   43.6675 H   0  0  0  0  0  0  0  0  0  0  0  0
   55.9016   27.9944   44.6229 H   0  0  0  0  0  0  0  0  0  0  0  0
   58.6737   24.6927   45.2061 H   0  0  0  0  0  0  0  0  0  0  0  0
   57.7605   22.4455   44.6315 H   0  0  0  0  0  0  0  0  0  0  0  0
   53.7428   23.8953   45.3055 H   0  0  0  0  0  0  0  0  0  0  0  0
   58.8085   26.1163   47.2283 H   0  0  0  0  0  0  0  0  0  0  0  0
   59.7615   28.3541   47.7739 H   0  0  0  0  0  0  0  0  0  0  0  0
  1  2  1  0
  2  3  1  0
  3  4  2  0
  4  5  1  0
  5  6  1  0
  6  7  2  0
  7  8  1  0
  8  9  2  0
  9 10  1  0
  9 11  1  0
 11 12  2  0
 12 13  1  0
  5 14  2  0
 14 15  1  0
 15 16  2  0
 16 17  1  0
 16  3  1  0
 12  6  1  0
  1 18  1  0
  1 19  1  0
  1 20  1  0
  4 21  1  0
  7 22  1  0
  8 23  1  0
 11 24  1  0
 14 25  1  0
 15 26  1  0
M  CHG  3  10  -1  13  -1  17  -1
M  END
>  <UniqueID>  (34) 
33

>  <SMILES>  (34) 
COc1cc(-c2ccc([O-])cc2[O-])ccc1[O-]

>  <Energy>  (34) 
33.21508945908387

>  <Genealogy>  (34) 
COc1cc(-c2ccc([O-])cc2[O-])ccc1[O-] (protonated)
COc1cc(-c2ccc([O-])cc2[O-])ccc1[O-] (3D coordinates assigned)
COc1cc(-c2ccc([O-])cc2[O-])ccc1[O-] (optimized conformer: 33.21508945908387 kcal/mol)

>  <smiles>  (34) 
COc1cc(-c2ccc(O)cc2O)ccc1O

>  <score_type>  (34) 
oracle

>  <origin>  (34) 
adg

>  <m_score__min__energy>  (34) 
-12.140000000000001

>  <m_primary>  (34) 
energy

$$$$
34:0
     RDKit          3D

 31 32  0  0  0  0  0  0  0  0999 V2000
   57.2590   30.9530   42.7530 C   0  0  0  0  0  0  0  0  0  0  0  0
   56.9420   29.5760   43.3430 C   0  0  0  0  0  0  0  0  0  0  0  0
   56.7120   29.5360   44.8760 C   0  0  2  0  0  0  0  0  0  0  0  0
   57.9790   29.5940   45.7340 C   0  0  0  0  0  0  0  0  0  0  0  0
   58.9680   28.6010   45.3200 N   0  0  0  0  0  0  0  0  0  0  0  0
   60.2510   29.0380   44.7610 C   0  0  0  0  0  0  0  0  0  0  0  0
   58.7440   27.2000   45.5570 C   0  0  0  0  0  0  0  0  0  0  0  0
   59.7400   26.2930   45.6150 N   0  0  0  0  0  0  0  0  0  0  0  0
   59.1420   25.1100   45.8240 C   0  0  0  0  0  0  0  0  0  0  0  0
   57.8020   25.2290   45.8930 N   0  0  0  0  0  0  0  0  0  0  0  0
   56.8730   24.1150   46.0840 C   0  0  0  0  0  0  0  0  0  0  0  0
   57.5220   26.5470   45.7220 C   0  0  0  0  0  0  0  0  0  0  0  0
   56.1420   27.1120   45.6880 C   0  0  0  0  0  0  0  0  0  0  0  0
   55.1790   26.3780   46.0280 O   0  0  0  0  0  0  0  0  0  0  0  0
   55.8270   28.4520   45.2870 N   0  0  0  0  0  0  0  0  0  0  0  0
   57.4246   31.6721   43.5687 H   0  0  0  0  0  0  0  0  0  0  0  0
   58.1653   30.8865   42.1332 H   0  0  0  0  0  0  0  0  0  0  0  0
   56.4148   31.2895   42.1332 H   0  0  0  0  0  0  0  0  0  0  0  0
   56.0302   29.2014   42.8549 H   0  0  0  0  0  0  0  0  0  0  0  0
   57.8338   28.9590   43.1582 H   0  0  0  0  0  0  0  0  0  0  0  0
   56.1963   30.4858   45.0807 H   0  0  0  0  0  0  0  0  0  0  0  0
   58.4232   30.5963   45.6437 H   0  0  0  0  0  0  0  0  0  0  0  0
   57.6946   29.3763   46.7741 H   0  0  0  0  0  0  0  0  0  0  0  0
   60.9462   29.2748   45.5800 H   0  0  0  0  0  0  0  0  0  0  0  0
   60.6743   28.2334   44.1418 H   0  0  0  0  0  0  0  0  0  0  0  0
   60.0951   29.9337   44.1418 H   0  0  0  0  0  0  0  0  0  0  0  0
   60.7670   26.4580   45.5240 H   0  0  0  0  0  0  0  0  0  0  0  0
   59.6816   24.1570   45.9267 H   0  0  0  0  0  0  0  0  0  0  0  0
   56.7269   23.9398   47.1601 H   0  0  0  0  0  0  0  0  0  0  0  0
   55.9070   24.3590   45.6178 H   0  0  0  0  0  0  0  0  0  0  0  0
   57.2866   23.2086   45.6178 H   0  0  0  0  0  0  0  0  0  0  0  0
  1  2  1  0
  2  3  1  0
  3  4  1  0
  4  5  1  0
  5  6  1  0
  5  7  1  0
  7  8  1  0
  8  9  2  0
  9 10  1  0
 10 11  1  0
 10 12  1  0
 12 13  1  0
 13 14  2  0
 13 15  1  0
 15  3  1  0
 12  7  2  0
  1 16  1  0
  1 17  1  0
  1 18  1  0
  2 19  1  0
  2 20  1  0
  3 21  1  1
  4 22  1  0
  4 23  1  0
  6 24  1  0
  6 25  1  0
  6 26  1  0
  8 27  1  0
  9 28  1  0
 11 29  1  0
 11 30  1  0
 11 31  1  0
M  CHG  2   8   1  15  -1
M  END
>  <UniqueID>  (35) 
34

>  <SMILES>  (35) 
CC[C@@H]1CN(C)c2[nH+]cn(C)c2C(=O)[N-]1

>  <Energy>  (35) 
66.22881146858846

>  <Genealogy>  (35) 
CCC1CN(C)c2[nH+]cn(C)c2C(=O)[N-]1 (protonated)
CC[C@@H]1CN(C)c2[nH+]cn(C)c2C(=O)[N-]1 (chirality)
CC[C@@H]1CN(C)c2[nH+]cn(C)c2C(=O)[N-]1 (3D coordinates assigned)
CC[C@@H]1CN(C)c2[nH+]cn(C)c2C(=O)[N-]1 (nonaromatic ring conformer: 66.22881146858846 kcal/mol)

>  <smiles>  (35) 
CCC1CN(C)c2ncn(C)c2C(=O)N1

>  <score_type>  (35) 
oracle

>  <origin>  (35) 
adg

>  <m_score__min__energy>  (35) 
-4.04

>  <m_primary>  (35) 
energy

$$$$
35:0
     RDKit          3D

 26 26  0  0  0  0  0  0  0  0999 V2000
   59.9860   34.2320   48.4370 C   0  0  0  0  0  0  0  0  0  0  0  0
   59.9780   34.7550   47.0050 C   0  0  0  0  0  0  0  0  0  0  0  0
   58.6410   34.8880   46.5260 O   0  0  0  0  0  0  0  0  0  0  0  0
   57.9020   33.8230   45.9980 C   0  0  0  0  0  0  0  0  0  0  0  0
   56.8360   33.4460   46.5570 O   0  0  0  0  0  0  0  0  0  0  0  0
   58.3450   33.2030   44.7850 N   0  0  0  0  0  0  0  0  0  0  0  0
   57.7870   31.9900   44.2570 C   0  0  0  0  0  0  0  0  0  0  0  0
   57.7180   31.8210   42.6180 S   0  0  0  0  0  0  0  0  0  0  0  0
   57.5260   30.8600   45.1310 N   0  0  2  0  0  0  0  0  0  0  0  0
   58.7710   30.1450   45.5100 C   0  0  0  0  0  0  0  0  0  0  0  0
   58.7420   28.7550   44.8460 C   0  0  0  0  0  0  0  0  0  0  0  0
   57.4140   28.6320   44.2930 N   0  0  0  0  0  0  0  0  0  0  0  0
   56.7510   29.8630   44.4630 C   0  0  0  0  0  0  0  0  0  0  0  0
   55.1660   30.0600   44.0900 S   0  0  0  0  0  0  0  0  0  0  0  0
   59.9730   35.0802   49.1372 H   0  0  0  0  0  0  0  0  0  0  0  0
   59.0973   33.6055   48.6035 H   0  0  0  0  0  0  0  0  0  0  0  0
   60.8934   33.6329   48.6035 H   0  0  0  0  0  0  0  0  0  0  0  0
   60.4716   35.7376   46.9764 H   0  0  0  0  0  0  0  0  0  0  0  0
   60.5148   34.0404   46.3637 H   0  0  0  0  0  0  0  0  0  0  0  0
   59.0460   33.7210   44.2080 H   0  0  0  0  0  0  0  0  0  0  0  0
   57.0240   31.1560   46.0000 H   0  0  0  0  0  0  0  0  0  0  0  0
   59.6474   30.7088   45.1578 H   0  0  0  0  0  0  0  0  0  0  0  0
   58.8368   30.0451   46.6035 H   0  0  0  0  0  0  0  0  0  0  0  0
   59.4993   28.6906   44.0508 H   0  0  0  0  0  0  0  0  0  0  0  0
   58.9674   27.9507   45.5618 H   0  0  0  0  0  0  0  0  0  0  0  0
   57.0300   27.7890   43.8100 H   0  0  0  0  0  0  0  0  0  0  0  0
  1  2  1  0
  2  3  1  0
  3  4  1  0
  4  5  2  0
  4  6  1  0
  6  7  1  0
  7  8  2  0
  7  9  1  0
  9 10  1  0
 10 11  1  0
 11 12  1  0
 12 13  1  0
 13 14  2  0
 13  9  1  0
  1 15  1  0
  1 16  1  0
  1 17  1  0
  2 18  1  0
  2 19  1  0
  6 20  1  0
  9 21  1  1
 10 22  1  0
 10 23  1  0
 11 24  1  0
 11 25  1  0
 12 26  1  0
M  CHG  1   9   1
M  END
>  <UniqueID>  (36) 
35

>  <SMILES>  (36) 
CCOC(=O)NC(=S)[N@@H+]1CCNC1=S

>  <Energy>  (36) 
33.11214733126604

>  <Genealogy>  (36) 
CCOC(=O)NC(=S)[NH+]1CCNC1=S (protonated)
CCOC(=O)NC(=S)[N@@H+]1CCNC1=S (chirality)
CCOC(=O)NC(=S)[N@@H+]1CCNC1=S (3D coordinates assigned)
CCOC(=O)NC(=S)[N@@H+]1CCNC1=S (nonaromatic ring conformer: 33.11214733126604 kcal/mol)

>  <smiles>  (36) 
CCOC(=O)NC(=S)N1CCNC1=S

>  <score_type>  (36) 
oracle

>  <origin>  (36) 
adg

>  <m_score__min__energy>  (36) 
-3.7999999999999998

>  <m_primary>  (36) 
energy

$$$$
36:0
     RDKit          3D

 42 43  0  0  0  0  0  0  0  0999 V2000
   58.6760   32.3800   50.4580 C   0  0  0  0  0  0  0  0  0  0  0  0
   59.6460   33.5550   50.5950 C   0  0  0  0  0  0  0  0  0  0  0  0
   59.9840   34.2040   49.2330 C   0  0  2  0  0  0  0  0  0  0  0  0
   58.9160   33.9060   48.2560 N   0  0  0  0  0  0  0  0  0  0  0  0
   58.9110   34.8630   47.1410 C   0  0  0  0  0  0  0  0  0  0  0  0
   59.2040   34.1440   45.8640 C   0  0  0  0  0  0  0  0  0  0  0  0
   59.2900   34.7920   44.7870 O   0  0  0  0  0  0  0  0  0  0  0  0
   59.3370   32.7170   45.8790 N   0  0  0  0  0  0  0  0  0  0  0  0
   58.4910   31.7690   45.2090 C   0  0  0  0  0  0  0  0  0  0  0  0
   57.8430   32.0980   44.0040 C   0  0  0  0  0  0  0  0  0  0  0  0
   57.0420   31.1590   43.3520 C   0  0  0  0  0  0  0  0  0  0  0  0
   56.8890   29.8790   43.8840 C   0  0  0  0  0  0  0  0  0  0  0  0
   57.5460   29.5290   45.0640 C   0  0  0  0  0  0  0  0  0  0  0  0
   58.3600   30.4620   45.7360 C   0  0  0  0  0  0  0  0  0  0  0  0
   59.0780   30.0790   47.0120 C   0  0  0  0  0  0  0  0  0  0  0  0
   60.4440   30.2000   46.8290 F   0  0  0  0  0  0  0  0  0  0  0  0
   58.6830   30.9210   48.0360 F   0  0  0  0  0  0  0  0  0  0  0  0
   58.8020   28.7760   47.3890 F   0  0  0  0  0  0  0  0  0  0  0  0
   61.3160   33.6780   48.7250 C   0  0  0  0  0  0  0  0  0  0  0  0
   62.4980   33.9360   49.4400 C   0  0  0  0  0  0  0  0  0  0  0  0
   63.7110   33.4300   48.9690 C   0  0  0  0  0  0  0  0  0  0  0  0
   63.7400   32.6720   47.7980 C   0  0  0  0  0  0  0  0  0  0  0  0
   62.5490   32.4300   47.1120 C   0  0  0  0  0  0  0  0  0  0  0  0
   61.3720   32.9290   47.5820 N   0  0  0  0  0  0  0  0  0  0  0  0
   58.3844   32.0268   51.4581 H   0  0  0  0  0  0  0  0  0  0  0  0
   57.7804   32.7060   49.9087 H   0  0  0  0  0  0  0  0  0  0  0  0
   59.1657   31.5624   49.9087 H   0  0  0  0  0  0  0  0  0  0  0  0
   59.1892   34.3159   51.2449 H   0  0  0  0  0  0  0  0  0  0  0  0
   60.5825   33.1679   51.0230 H   0  0  0  0  0  0  0  0  0  0  0  0
   60.0569   35.2940   49.3620 H   0  0  0  0  0  0  0  0  0  0  0  0
   59.0870   32.9610   47.8350 H   0  0  0  0  0  0  0  0  0  0  0  0
   57.9230   35.3418   47.0735 H   0  0  0  0  0  0  0  0  0  0  0  0
   59.6801   35.6303   47.3138 H   0  0  0  0  0  0  0  0  0  0  0  0
   57.9686   33.1022   43.5728 H   0  0  0  0  0  0  0  0  0  0  0  0
   56.5303   31.4293   42.4165 H   0  0  0  0  0  0  0  0  0  0  0  0
   56.2495   29.1444   43.3727 H   0  0  0  0  0  0  0  0  0  0  0  0
   57.4273   28.5150   45.4735 H   0  0  0  0  0  0  0  0  0  0  0  0
   62.4677   34.5322   50.3639 H   0  0  0  0  0  0  0  0  0  0  0  0
   64.6421   33.6286   49.5201 H   0  0  0  0  0  0  0  0  0  0  0  0
   64.6912   32.2695   47.4196 H   0  0  0  0  0  0  0  0  0  0  0  0
   62.5608   31.8337   46.1877 H   0  0  0  0  0  0  0  0  0  0  0  0
   60.4980   32.7270   47.0460 H   0  0  0  0  0  0  0  0  0  0  0  0
  1  2  1  0
  2  3  1  0
  3  4  1  0
  4  5  1  0
  5  6  1  0
  6  7  2  0
  6  8  1  0
  8  9  1  0
  9 10  2  0
 10 11  1  0
 11 12  2  0
 12 13  1  0
 13 14  2  0
 14 15  1  0
 15 16  1  0
 15 17  1  0
 15 18  1  0
  3 19  1  0
 19 20  2  0
 20 21  1  0
 21 22  2  0
 22 23  1  0
 23 24  2  0
 14  9  1  0
 24 19  1  0
  1 25  1  0
  1 26  1  0
  1 27  1  0
  2 28  1  0
  2 29  1  0
  3 30  1  1
  4 31  1  0
  5 32  1  0
  5 33  1  0
 10 34  1  0
 11 35  1  0
 12 36  1  0
 13 37  1  0
 20 38  1  0
 21 39  1  0
 22 40  1  0
 23 41  1  0
 24 42  1  0
M  CHG  2   8  -1  24   1
M  END
>  <UniqueID>  (37) 
36

>  <SMILES>  (37) 
CC[C@H](NCC(=O)[N-]c1ccccc1C(F)(F)F)c1cccc[nH+]1

>  <Energy>  (37) 
43.54295541231033

>  <Genealogy>  (37) 
CCC(NCC(=O)[N-]c1ccccc1C(F)(F)F)c1cccc[nH+]1 (protonated)
CC[C@H](NCC(=O)[N-]c1ccccc1C(F)(F)F)c1cccc[nH+]1 (chirality)
CC[C@H](NCC(=O)[N-]c1ccccc1C(F)(F)F)c1cccc[nH+]1 (3D coordinates assigned)
CC[C@H](NCC(=O)[N-]c1ccccc1C(F)(F)F)c1cccc[nH+]1 (optimized conformer: 43.54295541231033 kcal/mol)

>  <smiles>  (37) 
CCC(NCC(=O)Nc1ccccc1C(F)(F)F)c1ccccn1

>  <score_type>  (37) 
oracle

>  <origin>  (37) 
adg

>  <m_score__min__energy>  (37) 
-7.5300000000000002

>  <m_primary>  (37) 
energy

$$$$
37:0
     RDKit          3D

 44 46  0  0  1  0  0  0  0  0999 V2000
   54.6220   24.8200   45.6200 C   0  0  0  0  0  0  0  0  0  0  0  0
   54.8710   26.1540   45.9870 O   0  0  0  0  0  0  0  0  0  0  0  0
   56.2120   26.5430   46.0720 C   0  0  0  0  0  0  0  0  0  0  0  0
   56.6580   27.7540   45.5900 C   0  0  0  0  0  0  0  0  0  0  0  0
   57.9910   28.1090   45.6900 C   0  0  0  0  0  0  0  0  0  0  0  0
   58.8450   27.2060   46.2890 C   0  0  0  0  0  0  0  0  0  0  0  0
   60.3150   27.5120   46.4400 C   0  0  0  0  0  0  0  0  0  0  0  0
   60.5210   28.9490   46.1420 C   0  0  0  0  0  0  0  0  0  0  0  0
   60.8870   29.2490   44.9730 O   0  0  0  0  0  0  0  0  0  0  0  0
   60.3370   29.9990   47.0690 N   0  0  0  0  0  0  0  0  0  0  0  0
   60.5540   31.2320   46.8890 C   0  0  0  0  0  0  0  0  0  0  0  0
   61.6940   31.7680   47.3100 N   0  0  0  0  0  0  0  0  0  0  0  0
   61.8750   33.0800   47.0960 C   0  0  0  0  0  0  0  0  0  0  0  0
   63.1550   33.6980   47.5650 C   0  0  0  0  0  0  0  0  0  0  0  0
   63.7170   34.4490   46.5600 F   0  0  0  0  0  0  0  0  0  0  0  0
   64.0350   32.6810   47.8640 F   0  0  0  0  0  0  0  0  0  0  0  0
   62.9880   34.4370   48.7000 F   0  0  0  0  0  0  0  0  0  0  0  0
   60.9350   33.8330   46.4760 N   0  0  0  0  0  0  0  0  0  0  0  0
   59.7760   33.3200   46.0420 C   0  0  0  0  0  0  0  0  0  0  0  0
   58.8020   34.0520   45.4090 C   0  0  0  0  0  0  0  0  0  0  0  0
   57.6180   33.4360   44.9880 C   0  0  0  0  0  0  0  0  0  0  0  0
   57.4260   32.0870   45.2040 C   0  0  0  0  0  0  0  0  0  0  0  0
   56.2890   31.4000   44.8200 O   0  0  0  0  0  0  0  0  0  0  0  0
   56.2650   30.4550   43.7800 C   0  0  0  0  0  0  0  0  0  0  0  0
   58.4160   31.3720   45.8390 C   0  0  0  0  0  0  0  0  0  0  0  0
   59.5670   31.9740   46.2500 C   0  0  0  0  0  0  0  0  0  0  0  0
   58.4050   25.9840   46.7790 C   0  0  0  0  0  0  0  0  0  0  0  0
   57.0690   25.6310   46.6770 C   0  0  0  0  0  0  0  0  0  0  0  0
   54.5074   24.2059   46.5254 H   0  0  0  0  0  0  0  0  0  0  0  0
   53.6990   24.7699   45.0237 H   0  0  0  0  0  0  0  0  0  0  0  0
   55.4648   24.4403   45.0237 H   0  0  0  0  0  0  0  0  0  0  0  0
   55.9451   28.4473   45.1197 H   0  0  0  0  0  0  0  0  0  0  0  0
   58.3560   29.0734   45.3070 H   0  0  0  0  0  0  0  0  0  0  0  0
   60.6368   27.2951   47.4693 H   0  0  0  0  0  0  0  0  0  0  0  0
   60.9054   26.8919   45.7494 H   0  0  0  0  0  0  0  0  0  0  0  0
   61.1050   34.8570   46.3230 H   0  0  0  0  0  0  0  0  0  0  0  0
   58.9529   35.1271   45.2320 H   0  0  0  0  0  0  0  0  0  0  0  0
   56.8396   34.0280   44.4843 H   0  0  0  0  0  0  0  0  0  0  0  0
   56.2393   29.4413   44.2062 H   0  0  0  0  0  0  0  0  0  0  0  0
   55.3706   30.6149   43.1599 H   0  0  0  0  0  0  0  0  0  0  0  0
   57.1663   30.5692   43.1599 H   0  0  0  0  0  0  0  0  0  0  0  0
   58.2754   30.2958   46.0178 H   0  0  0  0  0  0  0  0  0  0  0  0
   59.1197   25.2932   47.2501 H   0  0  0  0  0  0  0  0  0  0  0  0
   56.7012   24.6675   47.0595 H   0  0  0  0  0  0  0  0  0  0  0  0
  1  2  1  0
  2  3  1  0
  3  4  2  0
  4  5  1  0
  5  6  2  0
  6  7  1  0
  7  8  1  0
  8  9  2  0
  8 10  1  0
 10 11  2  0
 11 12  1  0
 12 13  2  0
 13 14  1  0
 14 15  1  0
 14 16  1  0
 14 17  1  0
 13 18  1  0
 18 19  1  0
 19 20  2  0
 20 21  1  0
 21 22  2  0
 22 23  1  0
 23 24  1  0
 22 25  1  0
 25 26  2  0
  6 27  1  0
 27 28  2  0
 28  3  1  0
 26 11  1  0
 26 19  1  0
  1 29  1  0
  1 30  1  0
  1 31  1  0
  4 32  1  0
  5 33  1  0
  7 34  1  0
  7 35  1  0
 18 36  1  0
 20 37  1  0
 21 38  1  0
 24 39  1  0
 24 40  1  0
 24 41  1  0
 25 42  1  0
 27 43  1  0
 28 44  1  0
M  END
>  <smiles>  (38) 
COc1ccc(CC(=O)N=c2nc(C(F)(F)F)[nH]c3ccc(OC)cc23)cc1

>  <score_type>  (38) 
oracle

>  <origin>  (38) 
adg

>  <m_score__min__energy>  (38) 
-7.9100000000000001

>  <m_primary>  (38) 
energy

$$$$
38:0
     RDKit          3D

 30 30  0  0  0  0  0  0  0  0999 V2000
   55.2240   29.3100   44.8470 F   0  0  0  0  0  0  0  0  0  0  0  0
   55.5190   29.7030   43.5530 C   0  0  0  0  0  0  0  0  0  0  0  0
   56.6420   30.7510   43.5600 C   0  0  0  0  0  0  0  0  0  0  0  0
   57.2880   30.8840   44.8950 N   0  0  2  0  0  0  0  0  0  0  0  0
   57.5320   32.3190   45.2090 C   0  0  0  0  0  0  0  0  0  0  0  0
   58.2590   32.5040   46.5490 C   0  0  0  0  0  0  0  0  0  0  0  0
   58.7530   34.2050   46.7460 Cl  0  0  0  0  0  0  0  0  0  0  0  0
   58.5700   30.1270   44.9270 C   0  0  0  0  0  0  0  0  0  0  0  0
   58.3650   28.6610   45.2610 C   0  0  0  0  0  0  0  0  0  0  0  0
   58.0610   27.7530   44.2320 C   0  0  0  0  0  0  0  0  0  0  0  0
   57.8540   26.4010   44.5150 C   0  0  0  0  0  0  0  0  0  0  0  0
   57.9530   25.9380   45.8290 C   0  0  0  0  0  0  0  0  0  0  0  0
   57.6920   24.2390   46.1820 Cl  0  0  0  0  0  0  0  0  0  0  0  0
   58.2640   26.8270   46.8610 C   0  0  0  0  0  0  0  0  0  0  0  0
   58.4730   28.1840   46.5880 C   0  0  0  0  0  0  0  0  0  0  0  0
   58.8900   29.2450   47.9290 Cl  0  0  0  0  0  0  0  0  0  0  0  0
   55.8432   28.8269   42.9721 H   0  0  0  0  0  0  0  0  0  0  0  0
   54.6197   30.1435   43.0978 H   0  0  0  0  0  0  0  0  0  0  0  0
   57.4060   30.4546   42.8262 H   0  0  0  0  0  0  0  0  0  0  0  0
   56.1942   31.7232   43.3065 H   0  0  0  0  0  0  0  0  0  0  0  0
   56.6450   30.4840   45.6180 H   0  0  0  0  0  0  0  0  0  0  0  0
   58.1468   32.7571   44.4090 H   0  0  0  0  0  0  0  0  0  0  0  0
   56.5552   32.8194   45.2828 H   0  0  0  0  0  0  0  0  0  0  0  0
   57.5842   32.2233   47.3711 H   0  0  0  0  0  0  0  0  0  0  0  0
   59.1538   31.8644   46.5652 H   0  0  0  0  0  0  0  0  0  0  0  0
   59.0493   30.2012   43.9397 H   0  0  0  0  0  0  0  0  0  0  0  0
   59.2007   30.5664   45.7139 H   0  0  0  0  0  0  0  0  0  0  0  0
   57.9854   28.1104   43.1944 H   0  0  0  0  0  0  0  0  0  0  0  0
   57.6128   25.7002   43.7022 H   0  0  0  0  0  0  0  0  0  0  0  0
   58.3451   26.4584   47.8942 H   0  0  0  0  0  0  0  0  0  0  0  0
  1  2  1  0
  2  3  1  0
  3  4  1  0
  4  5  1  0
  5  6  1  0
  6  7  1  0
  4  8  1  0
  8  9  1  0
  9 10  2  0
 10 11  1  0
 11 12  2  0
 12 13  1  0
 12 14  1  0
 14 15  2  0
 15 16  1  0
 15  9  1  0
  2 17  1  0
  2 18  1  0
  3 19  1  0
  3 20  1  0
  4 21  1  1
  5 22  1  0
  5 23  1  0
  6 24  1  0
  6 25  1  0
  8 26  1  0
  8 27  1  0
 10 28  1  0
 11 29  1  0
 14 30  1  0
M  CHG  1   4   1
M  END
>  <UniqueID>  (39) 
37

>  <SMILES>  (39) 
FCC[N@H+](CCCl)Cc1ccc(Cl)cc1Cl

>  <Energy>  (39) 
30.4326314791719

>  <Genealogy>  (39) 
FCC[NH+](CCCl)Cc1ccc(Cl)cc1Cl (protonated)
FCC[N@H+](CCCl)Cc1ccc(Cl)cc1Cl (chirality)
FCC[N@H+](CCCl)Cc1ccc(Cl)cc1Cl (3D coordinates assigned)
FCC[N@H+](CCCl)Cc1ccc(Cl)cc1Cl (optimized conformer: 30.4326314791719 kcal/mol)

>  <smiles>  (39) 
FCCN(CCCl)Cc1ccc(Cl)cc1Cl

>  <score_type>  (39) 
oracle

>  <origin>  (39) 
adg

>  <m_score__min__energy>  (39) 
-4.3899999999999997

>  <m_primary>  (39) 
energy

$$$$
39:0
     RDKit          3D

 46 49  0  0  0  0  0  0  0  0999 V2000
   63.1910   31.1460   50.4180 C   0  0  0  0  0  0  0  0  0  0  0  0
   62.0270   30.3620   50.1830 O   0  0  0  0  0  0  0  0  0  0  0  0
   61.1330   30.5670   49.1220 C   0  0  0  0  0  0  0  0  0  0  0  0
   61.5280   30.4730   47.7740 C   0  0  0  0  0  0  0  0  0  0  0  0
   60.5980   30.6880   46.7520 C   0  0  0  0  0  0  0  0  0  0  0  0
   59.2640   31.0000   47.0590 C   0  0  0  0  0  0  0  0  0  0  0  0
   58.3150   31.2290   46.0040 N   0  0  0  0  0  0  0  0  0  0  0  0
   57.6900   32.3890   45.7120 C   0  0  0  0  0  0  0  0  0  0  0  0
   58.1150   33.9950   46.3980 S   0  0  0  0  0  0  0  0  0  0  0  0
   59.7920   34.0490   45.6690 C   0  0  0  0  0  0  0  0  0  0  0  0
   60.8520   34.0470   46.7340 C   0  0  0  0  0  0  0  0  0  0  0  0
   60.5020   34.2410   48.0810 C   0  0  0  0  0  0  0  0  0  0  0  0
   61.4830   34.2020   49.0760 C   0  0  0  0  0  0  0  0  0  0  0  0
   62.8180   33.9650   48.7350 C   0  0  0  0  0  0  0  0  0  0  0  0
   63.7670   33.9210   49.7020 F   0  0  0  0  0  0  0  0  0  0  0  0
   63.1730   33.7680   47.3970 C   0  0  0  0  0  0  0  0  0  0  0  0
   62.1960   33.8090   46.3990 C   0  0  0  0  0  0  0  0  0  0  0  0
   56.6370   32.1930   44.8980 N   0  0  0  0  0  0  0  0  0  0  0  0
   56.5780   30.8940   44.6470 N   0  0  0  0  0  0  0  0  0  0  0  0
   57.5910   30.3130   45.3190 C   0  0  0  0  0  0  0  0  0  0  0  0
   57.8480   28.8550   45.2890 C   0  0  0  0  0  0  0  0  0  0  0  0
   57.9140   28.1830   44.0570 C   0  0  0  0  0  0  0  0  0  0  0  0
   58.1630   26.8080   44.0160 C   0  0  0  0  0  0  0  0  0  0  0  0
   58.3620   26.0960   45.2010 C   0  0  0  0  0  0  0  0  0  0  0  0
   58.3190   26.7600   46.4300 C   0  0  0  0  0  0  0  0  0  0  0  0
   58.0700   28.1340   46.4750 C   0  0  0  0  0  0  0  0  0  0  0  0
   58.8750   31.0930   48.4000 C   0  0  0  0  0  0  0  0  0  0  0  0
   59.8020   30.8780   49.4230 C   0  0  0  0  0  0  0  0  0  0  0  0
   63.3489   31.2523   51.5014 H   0  0  0  0  0  0  0  0  0  0  0  0
   64.0637   30.6509   49.9671 H   0  0  0  0  0  0  0  0  0  0  0  0
   63.0602   32.1408   49.9671 H   0  0  0  0  0  0  0  0  0  0  0  0
   62.5712   30.2297   47.5239 H   0  0  0  0  0  0  0  0  0  0  0  0
   60.9136   30.6122   45.7010 H   0  0  0  0  0  0  0  0  0  0  0  0
   59.9306   33.1687   45.0241 H   0  0  0  0  0  0  0  0  0  0  0  0
   59.8872   34.9775   45.0869 H   0  0  0  0  0  0  0  0  0  0  0  0
   59.4521   34.4242   48.3535 H   0  0  0  0  0  0  0  0  0  0  0  0
   61.2043   34.3580   50.1286 H   0  0  0  0  0  0  0  0  0  0  0  0
   64.2234   33.5804   47.1296 H   0  0  0  0  0  0  0  0  0  0  0  0
   62.4797   33.6545   45.3475 H   0  0  0  0  0  0  0  0  0  0  0  0
   57.7691   28.7413   43.1204 H   0  0  0  0  0  0  0  0  0  0  0  0
   58.2023   26.2858   43.0486 H   0  0  0  0  0  0  0  0  0  0  0  0
   58.5525   25.0132   45.1670 H   0  0  0  0  0  0  0  0  0  0  0  0
   58.4814   26.2002   47.3629 H   0  0  0  0  0  0  0  0  0  0  0  0
   58.0476   28.6544   47.4439 H   0  0  0  0  0  0  0  0  0  0  0  0
   57.8321   31.3371   48.6505 H   0  0  0  0  0  0  0  0  0  0  0  0
   59.4833   30.9537   50.4731 H   0  0  0  0  0  0  0  0  0  0  0  0
  1  2  1  0
  2  3  1  0
  3  4  2  0
  4  5  1  0
  5  6  2  0
  6  7  1  0
  7  8  1  0
  8  9  1  0
  9 10  1  0
 10 11  1  0
 11 12  2  0
 12 13  1  0
 13 14  2  0
 14 15  1  0
 14 16  1  0
 16 17  2  0
  8 18  2  0
 18 19  1  0
 19 20  2  0
 20 21  1  0
 21 22  2  0
 22 23  1  0
 23 24  2  0
 24 25  1  0
 25 26  2  0
  6 27  1  0
 27 28  2  0
 28  3  1  0
 20  7  1  0
 26 21  1  0
 17 11  1  0
  1 29  1  0
  1 30  1  0
  1 31  1  0
  4 32  1  0
  5 33  1  0
 10 34  1  0
 10 35  1  0
 12 36  1  0
 13 37  1  0
 16 38  1  0
 17 39  1  0
 22 40  1  0
 23 41  1  0
 24 42  1  0
 25 43  1  0
 26 44  1  0
 27 45  1  0
 28 46  1  0
M  END
>  <UniqueID>  (40) 
38

>  <SMILES>  (40) 
COc1ccc(-n2c(SCc3ccc(F)cc3)nnc2-c2ccccc2)cc1

>  <Energy>  (40) 
89.57496648100894

>  <Genealogy>  (40) 
COc1ccc(-n2c(SCc3ccc(F)cc3)nnc2-c2ccccc2)cc1 (3D coordinates assigned)
COc1ccc(-n2c(SCc3ccc(F)cc3)nnc2-c2ccccc2)cc1 (optimized conformer: 89.57496648100894 kcal/mol)

>  <smiles>  (40) 
COc1ccc(-n2c(SCc3ccc(F)cc3)nnc2-c2ccccc2)cc1

>  <score_type>  (40) 
oracle

>  <origin>  (40) 
adg

>  <m_score__min__energy>  (40) 
-8.2400000000000002

>  <m_primary>  (40) 
energy

$$$$
40:0
     RDKit          3D

 53 56  0  0  0  0  0  0  0  0999 V2000
   62.5960   33.8100   51.2070 C   0  0  0  0  0  0  0  0  0  0  0  0
   62.3050   34.5220   50.0120 O   0  0  0  0  0  0  0  0  0  0  0  0
   62.1250   33.8860   48.7780 C   0  0  0  0  0  0  0  0  0  0  0  0
   63.1290   33.5390   48.0940 O   0  0  0  0  0  0  0  0  0  0  0  0
   60.7320   33.6240   48.2410 C   0  0  1  0  0  0  0  0  0  0  0  0
   60.0250   34.9480   47.9340 C   0  0  0  0  0  0  0  0  0  0  0  0
   60.7660   32.7730   47.0100 N   0  0  0  0  0  0  0  0  0  0  0  0
   60.1640   31.4530   47.3400 C   0  0  2  0  0  0  0  0  0  0  0  0
   59.0770   31.1020   46.3500 C   0  0  0  0  0  0  0  0  0  0  0  0
   58.6380   32.0380   45.4020 C   0  0  0  0  0  0  0  0  0  0  0  0
   57.6370   31.7070   44.4890 C   0  0  0  0  0  0  0  0  0  0  0  0
   57.0500   30.4300   44.5080 C   0  0  0  0  0  0  0  0  0  0  0  0
   56.0380   30.0620   43.6060 O   0  0  0  0  0  0  0  0  0  0  0  0
   56.2610   29.3570   42.3890 C   0  0  0  0  0  0  0  0  0  0  0  0
   57.4800   29.4840   45.4510 C   0  0  0  0  0  0  0  0  0  0  0  0
   56.8760   28.2180   45.4460 O   0  0  0  0  0  0  0  0  0  0  0  0
   57.5820   26.9860   45.3360 C   0  0  0  0  0  0  0  0  0  0  0  0
   58.4950   29.8250   46.3680 C   0  0  0  0  0  0  0  0  0  0  0  0
   59.6310   31.6290   48.7010 C   0  0  0  0  0  0  0  0  0  0  0  0
   59.9320   32.8190   49.1950 C   0  0  0  0  0  0  0  0  0  0  0  0
   59.3680   32.9070   50.4490 C   0  0  0  0  0  0  0  0  0  0  0  0
   59.4680   33.9930   51.3100 O   0  0  0  0  0  0  0  0  0  0  0  0
   58.7120   31.7490   50.7290 N   0  0  0  0  0  0  0  0  0  0  0  0
   57.9810   31.4300   51.9260 C   0  0  0  0  0  0  0  0  0  0  0  0
   56.7070   30.8420   51.8470 C   0  0  0  0  0  0  0  0  0  0  0  0
   55.9960   30.5360   53.0110 C   0  0  0  0  0  0  0  0  0  0  0  0
   56.5480   30.8150   54.2640 C   0  0  0  0  0  0  0  0  0  0  0  0
   55.8550   30.5210   55.3920 F   0  0  0  0  0  0  0  0  0  0  0  0
   57.8150   31.4000   54.3530 C   0  0  0  0  0  0  0  0  0  0  0  0
   58.5290   31.7060   53.1910 C   0  0  0  0  0  0  0  0  0  0  0  0
   58.8780   30.9570   49.6350 C   0  0  0  0  0  0  0  0  0  0  0  0
   58.3360   29.6870   49.4790 O   0  0  0  0  0  0  0  0  0  0  0  0
   62.3412   34.4335   52.0766 H   0  0  0  0  0  0  0  0  0  0  0  0
   62.0047   32.8829   51.2347 H   0  0  0  0  0  0  0  0  0  0  0  0
   63.6674   33.5625   51.2347 H   0  0  0  0  0  0  0  0  0  0  0  0
   59.7579   35.4482   48.8766 H   0  0  0  0  0  0  0  0  0  0  0  0
   60.6970   35.5963   47.3525 H   0  0  0  0  0  0  0  0  0  0  0  0
   59.1125   34.7502   47.3525 H   0  0  0  0  0  0  0  0  0  0  0  0
   61.7440   32.6240   46.6660 H   0  0  0  0  0  0  0  0  0  0  0  0
   60.8869   30.6254   47.2890 H   0  0  0  0  0  0  0  0  0  0  0  0
   59.0872   33.0418   45.3785 H   0  0  0  0  0  0  0  0  0  0  0  0
   57.3047   32.4502   43.7492 H   0  0  0  0  0  0  0  0  0  0  0  0
   56.5857   28.3304   42.6142 H   0  0  0  0  0  0  0  0  0  0  0  0
   55.3284   29.3271   41.8064 H   0  0  0  0  0  0  0  0  0  0  0  0
   57.0411   29.8689   41.8064 H   0  0  0  0  0  0  0  0  0  0  0  0
   57.8036   26.5993   46.3417 H   0  0  0  0  0  0  0  0  0  0  0  0
   56.9646   26.2570   44.7907 H   0  0  0  0  0  0  0  0  0  0  0  0
   58.5231   27.1501   44.7907 H   0  0  0  0  0  0  0  0  0  0  0  0
   58.8343   29.0825   47.1053 H   0  0  0  0  0  0  0  0  0  0  0  0
   56.2667   30.6213   50.8634 H   0  0  0  0  0  0  0  0  0  0  0  0
   54.9999   30.0746   52.9404 H   0  0  0  0  0  0  0  0  0  0  0  0
   58.2504   31.6197   55.3390 H   0  0  0  0  0  0  0  0  0  0  0  0
   59.5256   32.1655   53.2667 H   0  0  0  0  0  0  0  0  0  0  0  0
  1  2  1  0
  2  3  1  0
  3  4  2  0
  3  5  1  0
  5  6  1  6
  5  7  1  0
  7  8  1  0
  8  9  1  0
  9 10  2  0
 10 11  1  0
 11 12  2  0
 12 13  1  0
 13 14  1  0
 12 15  1  0
 15 16  1  0
 16 17  1  0
 15 18  2  0
  8 19  1  0
 19 20  1  0
 20 21  2  0
 21 22  1  0
 21 23  1  0
 23 24  1  0
 24 25  2  0
 25 26  1  0
 26 27  2  0
 27 28  1  0
 27 29  1  0
 29 30  2  0
 23 31  1  0
 31 32  1  0
 20  5  1  0
 30 24  1  0
 18  9  1  0
 31 19  2  0
  1 33  1  0
  1 34  1  0
  1 35  1  0
  6 36  1  0
  6 37  1  0
  6 38  1  0
  7 39  1  0
  8 40  1  1
 10 41  1  0
 11 42  1  0
 14 43  1  0
 14 44  1  0
 14 45  1  0
 17 46  1  0
 17 47  1  0
 17 48  1  0
 18 49  1  0
 25 50  1  0
 26 51  1  0
 29 52  1  0
 30 53  1  0
M  CHG  2  22  -1  32  -1
M  END
>  <UniqueID>  (41) 
39

>  <SMILES>  (41) 
COC(=O)[C@@]1(C)N[C@H](c2ccc(OC)c(OC)c2)c2c1c([O-])n(-c1ccc(F)cc1)c2[O-]

>  <Energy>  (41) 
114.09773283668147

>  <Genealogy>  (41) 
COC(=O)C1(C)NC(c2ccc(OC)c(OC)c2)c2c1c([O-])n(-c1ccc(F)cc1)c2[O-] (protonated)
COC(=O)[C@@]1(C)N[C@H](c2ccc(OC)c(OC)c2)c2c1c([O-])n(-c1ccc(F)cc1)c2[O-] (chirality)
COC(=O)[C@@]1(C)N[C@H](c2ccc(OC)c(OC)c2)c2c1c([O-])n(-c1ccc(F)cc1)c2[O-] (3D coordinates assigned)
COC(=O)[C@@]1(C)N[C@H](c2ccc(OC)c(OC)c2)c2c1c([O-])n(-c1ccc(F)cc1)c2[O-] (nonaromatic ring conformer: 114.09773283668147 kcal/mol)

>  <smiles>  (41) 
COC(=O)C1(C)NC(c2ccc(OC)c(OC)c2)c2c1c(O)n(-c1ccc(F)cc1)c2O

>  <score_type>  (41) 
oracle

>  <origin>  (41) 
adg

>  <m_score__min__energy>  (41) 
-9.6899999999999995

>  <m_primary>  (41) 
energy

$$$$
41:0
     RDKit          3D

 46 48  0  0  0  0  0  0  0  0999 V2000
   58.8730   33.0830   44.8530 C   0  0  0  0  0  0  0  0  0  0  0  0
   58.1890   31.7500   44.9490 C   0  0  0  0  0  0  0  0  0  0  0  0
   58.3990   30.9280   46.0630 C   0  0  0  0  0  0  0  0  0  0  0  0
   57.7360   29.7040   46.1710 C   0  0  0  0  0  0  0  0  0  0  0  0
   56.8490   29.2800   45.1640 C   0  0  0  0  0  0  0  0  0  0  0  0
   56.1370   28.0360   45.2720 N   0  0  0  0  0  0  0  0  0  0  0  0
   56.6440   26.8000   45.7920 C   0  0  0  0  0  0  0  0  0  0  0  0
   55.9220   26.0630   46.5180 O   0  0  0  0  0  0  0  0  0  0  0  0
   58.0290   26.4100   45.5130 C   0  0  0  0  0  0  0  0  0  0  0  0
   58.4630   26.4370   44.3300 O   0  0  0  0  0  0  0  0  0  0  0  0
   58.8770   25.9860   46.5860 N   0  0  0  0  0  0  0  0  0  0  0  0
   60.0380   26.7390   47.0490 C   0  0  0  0  0  0  0  0  0  0  0  0
   59.8780   27.1630   48.5120 C   0  0  0  0  0  0  0  0  0  0  0  0
   59.8980   28.6560   48.6520 C   0  0  0  0  0  0  0  0  0  0  0  0
   59.0140   29.3550   49.4690 C   0  0  0  0  0  0  0  0  0  0  0  0
   59.4060   30.9850   49.3580 S   0  0  0  0  0  0  0  0  0  0  0  0
   60.6850   30.7360   48.2890 C   0  0  0  0  0  0  0  0  0  0  0  0
   61.5650   31.7870   47.7300 C   0  0  0  0  0  0  0  0  0  0  0  0
   61.0120   32.9940   47.2580 C   0  0  0  0  0  0  0  0  0  0  0  0
   61.8350   33.9910   46.7270 C   0  0  0  0  0  0  0  0  0  0  0  0
   63.2170   33.7970   46.6610 C   0  0  0  0  0  0  0  0  0  0  0  0
   63.7780   32.6050   47.1250 C   0  0  0  0  0  0  0  0  0  0  0  0
   62.9590   31.6030   47.6570 C   0  0  0  0  0  0  0  0  0  0  0  0
   60.8220   29.4210   48.0090 N   0  0  0  0  0  0  0  0  0  0  0  0
   56.6010   30.1250   44.0630 C   0  0  0  0  0  0  0  0  0  0  0  0
   55.6150   29.7220   43.0000 C   0  0  0  0  0  0  0  0  0  0  0  0
   57.2720   31.3560   43.9640 C   0  0  0  0  0  0  0  0  0  0  0  0
   59.0703   33.4676   45.8645 H   0  0  0  0  0  0  0  0  0  0  0  0
   59.8240   32.9690   44.3121 H   0  0  0  0  0  0  0  0  0  0  0  0
   58.2258   33.7891   44.3121 H   0  0  0  0  0  0  0  0  0  0  0  0
   59.0897   31.2482   46.8570 H   0  0  0  0  0  0  0  0  0  0  0  0
   57.9083   29.0659   47.0503 H   0  0  0  0  0  0  0  0  0  0  0  0
   60.9348   26.1091   46.9544 H   0  0  0  0  0  0  0  0  0  0  0  0
   60.1327   27.6453   46.4329 H   0  0  0  0  0  0  0  0  0  0  0  0
   58.9198   26.7802   48.8933 H   0  0  0  0  0  0  0  0  0  0  0  0
   60.7192   26.7491   49.0874 H   0  0  0  0  0  0  0  0  0  0  0  0
   58.2066   28.9199   50.0762 H   0  0  0  0  0  0  0  0  0  0  0  0
   59.9247   33.1527   47.3078 H   0  0  0  0  0  0  0  0  0  0  0  0
   61.3940   34.9297   46.3605 H   0  0  0  0  0  0  0  0  0  0  0  0
   63.8634   34.5831   46.2436 H   0  0  0  0  0  0  0  0  0  0  0  0
   64.8662   32.4536   47.0721 H   0  0  0  0  0  0  0  0  0  0  0  0
   63.4067   30.6662   48.0203 H   0  0  0  0  0  0  0  0  0  0  0  0
   54.6966   29.3466   43.4751 H   0  0  0  0  0  0  0  0  0  0  0  0
   55.3740   30.5938   42.3739 H   0  0  0  0  0  0  0  0  0  0  0  0
   56.0536   28.9310   42.3739 H   0  0  0  0  0  0  0  0  0  0  0  0
   57.0761   32.0162   43.1062 H   0  0  0  0  0  0  0  0  0  0  0  0
  1  2  1  0
  2  3  2  0
  3  4  1  0
  4  5  2  0
  5  6  1  0
  6  7  1  0
  7  8  2  0
  7  9  1  0
  9 10  2  0
  9 11  1  0
 11 12  1  0
 12 13  1  0
 13 14  1  0
 14 15  2  0
 15 16  1  0
 16 17  1  0
 17 18  1  0
 18 19  2  0
 19 20  1  0
 20 21  2  0
 21 22  1  0
 22 23  2  0
 17 24  2  0
  5 25  1  0
 25 26  1  0
 25 27  2  0
 27  2  1  0
 24 14  1  0
 23 18  1  0
  1 28  1  0
  1 29  1  0
  1 30  1  0
  3 31  1  0
  4 32  1  0
 12 33  1  0
 12 34  1  0
 13 35  1  0
 13 36  1  0
 15 37  1  0
 19 38  1  0
 20 39  1  0
 21 40  1  0
 22 41  1  0
 23 42  1  0
 26 43  1  0
 26 44  1  0
 26 45  1  0
 27 46  1  0
M  CHG  2   6  -1  11  -1
M  END
>  <UniqueID>  (42) 
40

>  <SMILES>  (42) 
Cc1ccc([N-]C(=O)C(=O)[N-]CCc2csc(-c3ccccc3)n2)c(C)c1

>  <Energy>  (42) 
74.9470557355266

>  <Genealogy>  (42) 
Cc1ccc([N-]C(=O)C(=O)[N-]CCc2csc(-c3ccccc3)n2)c(C)c1 (protonated)
Cc1ccc([N-]C(=O)C(=O)[N-]CCc2csc(-c3ccccc3)n2)c(C)c1 (3D coordinates assigned)
Cc1ccc([N-]C(=O)C(=O)[N-]CCc2csc(-c3ccccc3)n2)c(C)c1 (optimized conformer: 74.9470557355266 kcal/mol)

>  <smiles>  (42) 
Cc1ccc(NC(=O)C(=O)NCCc2csc(-c3ccccc3)n2)c(C)c1

>  <score_type>  (42) 
oracle

>  <origin>  (42) 
adg

>  <m_score__min__energy>  (42) 
-12.050000000000001

>  <m_primary>  (42) 
energy

$$$$
42:0
     RDKit          3D

 41 43  0  0  0  0  0  0  0  0999 V2000
   59.5370   27.7060   46.2430 H   0  0  0  0  0  0  0  0  0  0  0  0
   59.2270   28.5650   45.7400 N   0  0  0  0  0  0  0  0  0  0  0  0
   57.9800   28.8330   45.5120 C   0  0  0  0  0  0  0  0  0  0  0  0
   57.3870   30.0820   45.4980 C   0  0  0  0  0  0  0  0  0  0  0  0
   57.9730   31.4150   45.7480 C   0  0  0  0  0  0  0  0  0  0  0  0
   57.2300   32.4270   45.6240 O   0  0  0  0  0  0  0  0  0  0  0  0
   59.3440   31.5870   46.1440 N   0  0  0  0  0  0  0  0  0  0  0  0
   59.9450   30.7600   46.3480 H   0  0  0  0  0  0  0  0  0  0  0  0
   59.9220   32.9050   46.3900 C   0  0  0  0  0  0  0  0  0  0  0  0
   59.8810   33.4988   45.4649 H   0  0  0  0  0  0  0  0  0  0  0  0
   59.3485   33.4075   47.1828 H   0  0  0  0  0  0  0  0  0  0  0  0
   61.3450   32.7680   46.8270 C   0  0  0  0  0  0  0  0  0  0  0  0
   61.9030   31.6300   47.1670 O   0  0  0  0  0  0  0  0  0  0  0  0
   63.1620   31.8550   47.4670 C   0  0  0  0  0  0  0  0  0  0  0  0
   63.8823   31.0896   47.7917 H   0  0  0  0  0  0  0  0  0  0  0  0
   63.4440   33.1970   47.3130 C   0  0  0  0  0  0  0  0  0  0  0  0
   64.4098   33.6939   47.4871 H   0  0  0  0  0  0  0  0  0  0  0  0
   62.2710   33.7890   46.8970 C   0  0  0  0  0  0  0  0  0  0  0  0
   62.1071   34.8525   46.6686 H   0  0  0  0  0  0  0  0  0  0  0  0
   56.0830   29.8900   45.2070 N   0  0  0  0  0  0  0  0  0  0  0  0
   55.8910   28.5850   45.0630 N   0  0  0  0  0  0  0  0  0  0  0  0
   57.0260   27.9240   45.2320 N   0  0  0  0  0  0  0  0  0  0  0  0
   57.1130   26.4650   45.2800 C   0  0  0  0  0  0  0  0  0  0  0  0
   57.0378   26.0574   44.2611 H   0  0  0  0  0  0  0  0  0  0  0  0
   58.0758   26.1645   45.7190 H   0  0  0  0  0  0  0  0  0  0  0  0
   55.9920   25.9380   46.1140 C   0  0  0  0  0  0  0  0  0  0  0  0
   54.8170   26.3490   45.9140 O   0  0  0  0  0  0  0  0  0  0  0  0
   56.2770   25.0620   47.2070 N   0  0  0  0  0  0  0  0  0  0  0  0
   56.0250   23.6280   47.1560 C   0  0  0  0  0  0  0  0  0  0  0  0
   56.6028   23.1250   47.9454 H   0  0  0  0  0  0  0  0  0  0  0  0
   54.9530   23.4362   47.3108 H   0  0  0  0  0  0  0  0  0  0  0  0
   56.4430   23.0980   45.8120 C   0  0  0  0  0  0  0  0  0  0  0  0
   55.4870   22.7790   44.8350 C   0  0  0  0  0  0  0  0  0  0  0  0
   54.4222   22.9816   45.0225 H   0  0  0  0  0  0  0  0  0  0  0  0
   55.8740   22.2200   43.6570 N   0  0  0  0  0  0  0  0  0  0  0  0
   57.1790   21.9490   43.3880 C   0  0  0  0  0  0  0  0  0  0  0  0
   57.4595   21.4962   42.4256 H   0  0  0  0  0  0  0  0  0  0  0  0
   58.1620   22.2450   44.3320 C   0  0  0  0  0  0  0  0  0  0  0  0
   59.2195   22.0307   44.1183 H   0  0  0  0  0  0  0  0  0  0  0  0
   57.7910   22.8160   45.5510 C   0  0  0  0  0  0  0  0  0  0  0  0
   58.5569   23.0446   46.3068 H   0  0  0  0  0  0  0  0  0  0  0  0
  1  2  1  0
  2  3  2  0
  3  4  1  0
  4  5  1  0
  5  6  2  0
  5  7  1  0
  7  8  1  0
  7  9  1  0
  9 10  1  0
  9 11  1  0
  9 12  1  0
 12 13  1  0
 13 14  1  0
 14 15  1  0
 14 16  2  0
 16 17  1  0
 16 18  1  0
 18 19  1  0
  4 20  2  0
 20 21  1  0
 21 22  1  0
 22 23  1  0
 23 24  1  0
 23 25  1  0
 23 26  1  0
 26 27  2  0
 26 28  1  0
 28 29  1  0
 29 30  1  0
 29 31  1  0
 29 32  1  0
 32 33  2  0
 33 34  1  0
 33 35  1  0
 35 36  2  0
 36 37  1  0
 36 38  1  0
 38 39  1  0
 38 40  2  0
 40 41  1  0
 22  3  1  0
 40 32  1  0
 18 12  2  0
M  CHG  2  21  -1  28  -1
M  END
>  <UniqueID>  (43) 
41

>  <SMILES>  (43) 
[H]/N=c1/c(C(=O)NCc2ccco2)n[n-]n1CC(=O)[N-]Cc1cccnc1

>  <Energy>  (43) 
98.86465275991986

>  <Genealogy>  (43) 
N=c1c(C(=O)NCc2ccco2)n[n-]n1CC(=O)[N-]Cc1cccnc1 (protonated)
[H]/N=c1/c(C(=O)NCc2ccco2)n[n-]n1CC(=O)[N-]Cc1cccnc1 (cis-trans isomerization)
[H]/N=c1/c(C(=O)NCc2ccco2)n[n-]n1CC(=O)[N-]Cc1cccnc1 (3D coordinates assigned)
[H]/N=c1/c(C(=O)NCc2ccco2)n[n-]n1CC(=O)[N-]Cc1cccnc1 (optimized conformer: 98.86465275991986 kcal/mol)

>  <smiles>  (43) 
N=c1c(C(=O)NCc2ccco2)n[nH]n1CC(=O)NCc1cccnc1

>  <score_type>  (43) 
oracle

>  <origin>  (43) 
adg

>  <m_score__min__energy>  (43) 
-11.25

>  <m_primary>  (43) 
energy

$$$$
43:0
     RDKit          3D

 41 43  0  0  0  0  0  0  0  0999 V2000
   59.0840   28.1780   44.3700 C   0  0  0  0  0  0  0  0  0  0  0  0
   60.4710   28.5930   44.8510 C   0  0  0  0  0  0  0  0  0  0  0  0
   60.3980   29.0870   46.2450 N   0  0  0  0  0  0  0  0  0  0  0  0
   60.3030   27.9950   47.2430 C   0  0  0  0  0  0  0  0  0  0  0  0
   58.9080   27.8210   47.8660 C   0  0  0  0  0  0  0  0  0  0  0  0
   59.3740   30.1360   46.4450 C   0  0  0  0  0  0  0  0  0  0  0  0
   60.0200   31.4630   46.7820 C   0  0  0  0  0  0  0  0  0  0  0  0
   61.0750   31.4350   47.7250 C   0  0  0  0  0  0  0  0  0  0  0  0
   61.7170   32.6110   48.1400 C   0  0  0  0  0  0  0  0  0  0  0  0
   61.3180   33.8480   47.6330 C   0  0  0  0  0  0  0  0  0  0  0  0
   60.2850   33.8690   46.7050 C   0  0  0  0  0  0  0  0  0  0  0  0
   59.5980   35.1810   45.9600 S   0  0  0  0  0  0  0  0  0  0  0  0
   58.4670   34.3960   45.0320 N   0  0  0  0  0  0  0  0  0  0  0  0
   58.6140   33.0680   45.2940 C   0  0  0  0  0  0  0  0  0  0  0  0
   57.8010   32.1240   44.5960 N   0  0  0  0  0  0  0  0  0  0  0  0
   57.0140   31.2420   45.1910 N   0  0  0  0  0  0  0  0  0  0  0  0
   56.4630   30.4790   44.2210 C   0  0  0  0  0  0  0  0  0  0  0  0
   55.5350   29.3430   44.4870 C   0  0  0  0  0  0  0  0  0  0  0  0
   56.9470   30.8550   42.9780 C   0  0  0  0  0  0  0  0  0  0  0  0
   57.7960   31.8970   43.2720 C   0  0  0  0  0  0  0  0  0  0  0  0
   58.4760   32.5480   42.4340 O   0  0  0  0  0  0  0  0  0  0  0  0
   59.6290   32.7270   46.2480 C   0  0  0  0  0  0  0  0  0  0  0  0
   58.4374   27.9845   45.2386 H   0  0  0  0  0  0  0  0  0  0  0  0
   58.6498   28.9856   43.7623 H   0  0  0  0  0  0  0  0  0  0  0  0
   59.1647   27.2647   43.7623 H   0  0  0  0  0  0  0  0  0  0  0  0
   61.1462   27.7257   44.8070 H   0  0  0  0  0  0  0  0  0  0  0  0
   60.8519   29.3963   44.2032 H   0  0  0  0  0  0  0  0  0  0  0  0
   60.5784   27.0521   46.7480 H   0  0  0  0  0  0  0  0  0  0  0  0
   60.9822   28.2628   48.0658 H   0  0  0  0  0  0  0  0  0  0  0  0
   58.9923   27.8315   48.9627 H   0  0  0  0  0  0  0  0  0  0  0  0
   58.2557   28.6447   47.5405 H   0  0  0  0  0  0  0  0  0  0  0  0
   58.4780   26.8623   47.5405 H   0  0  0  0  0  0  0  0  0  0  0  0
   58.7856   30.2458   45.5221 H   0  0  0  0  0  0  0  0  0  0  0  0
   58.7243   29.8385   47.2813 H   0  0  0  0  0  0  0  0  0  0  0  0
   61.3986   30.4697   48.1416 H   0  0  0  0  0  0  0  0  0  0  0  0
   62.5392   32.5577   48.8688 H   0  0  0  0  0  0  0  0  0  0  0  0
   61.8067   34.7782   47.9583 H   0  0  0  0  0  0  0  0  0  0  0  0
   55.4238   29.2069   45.5729 H   0  0  0  0  0  0  0  0  0  0  0  0
   54.5527   29.5601   44.0422 H   0  0  0  0  0  0  0  0  0  0  0  0
   55.9438   28.4237   44.0422 H   0  0  0  0  0  0  0  0  0  0  0  0
   56.7097   30.4244   41.9940 H   0  0  0  0  0  0  0  0  0  0  0  0
  1  2  1  0
  2  3  1  0
  3  4  1  0
  4  5  1  0
  3  6  1  0
  6  7  1  0
  7  8  2  0
  8  9  1  0
  9 10  2  0
 10 11  1  0
 11 12  1  0
 12 13  1  0
 13 14  2  0
 14 15  1  0
 15 16  1  0
 16 17  1  0
 17 18  1  0
 17 19  2  0
 19 20  1  0
 20 21  2  0
 14 22  1  0
 22  7  1  0
 22 11  2  0
 20 15  1  0
  1 23  1  0
  1 24  1  0
  1 25  1  0
  2 26  1  0
  2 27  1  0
  4 28  1  0
  4 29  1  0
  5 30  1  0
  5 31  1  0
  5 32  1  0
  6 33  1  0
  6 34  1  0
  8 35  1  0
  9 36  1  0
 10 37  1  0
 18 38  1  0
 18 39  1  0
 18 40  1  0
 19 41  1  0
M  CHG  1  16  -1
M  END
>  <UniqueID>  (44) 
42

>  <SMILES>  (44) 
CCN(CC)Cc1cccc2snc(-n3[n-]c(C)cc3=O)c12

>  <Energy>  (44) 
123.38879111999618

>  <Genealogy>  (44) 
CCN(CC)Cc1cccc2snc(-n3[n-]c(C)cc3=O)c12 (protonated)
CCN(CC)Cc1cccc2snc(-n3[n-]c(C)cc3=O)c12 (3D coordinates assigned)
CCN(CC)Cc1cccc2snc(-n3[n-]c(C)cc3=O)c12 (optimized conformer: 123.38879111999618 kcal/mol)

>  <smiles>  (44) 
CCN(CC)Cc1cccc2snc(-n3[nH]c(C)cc3=O)c12

>  <score_type>  (44) 
oracle

>  <origin>  (44) 
adg

>  <m_score__min__energy>  (44) 
-8.1199999999999992

>  <m_primary>  (44) 
energy

$$$$
44:0
     RDKit          3D

 33 36  0  0  0  0  0  0  0  0999 V2000
   58.6290   34.5670   45.0610 C   0  0  0  0  0  0  0  0  0  0  0  0
   59.6440   35.2400   45.7460 C   0  0  0  0  0  0  0  0  0  0  0  0
   59.8700   34.9770   47.1010 C   0  0  0  0  0  0  0  0  0  0  0  0
   59.0700   34.0410   47.7850 C   0  0  0  0  0  0  0  0  0  0  0  0
   59.2740   33.7530   49.1810 N   0  0  0  0  0  0  0  0  0  0  0  0
   59.5710   32.4450   49.6880 C   0  0  0  0  0  0  0  0  0  0  0  0
   60.7190   31.6830   49.4760 C   0  0  0  0  0  0  0  0  0  0  0  0
   61.9580   32.0880   48.7880 C   0  0  0  0  0  0  0  0  0  0  0  0
   63.1410   32.4500   49.4210 C   0  0  0  0  0  0  0  0  0  0  0  0
   64.1490   32.8450   48.5310 C   0  0  0  0  0  0  0  0  0  0  0  0
   63.7610   32.8110   47.1990 C   0  0  0  0  0  0  0  0  0  0  0  0
   62.1640   32.2910   47.1310 S   0  0  0  0  0  0  0  0  0  0  0  0
   60.5720   30.4750   50.0750 N   0  0  0  0  0  0  0  0  0  0  0  0
   59.3480   30.5460   50.6410 C   0  0  0  0  0  0  0  0  0  0  0  0
   58.7210   29.5440   51.3750 C   0  0  0  0  0  0  0  0  0  0  0  0
   57.4690   29.7940   51.8610 N   0  0  0  0  0  0  0  0  0  0  0  0
   56.8370   30.9880   51.6390 C   0  0  0  0  0  0  0  0  0  0  0  0
   57.4810   31.9870   50.8960 C   0  0  0  0  0  0  0  0  0  0  0  0
   58.7270   31.7160   50.4320 N   0  0  0  0  0  0  0  0  0  0  0  0
   58.0620   33.3610   47.0830 C   0  0  0  0  0  0  0  0  0  0  0  0
   57.8410   33.6270   45.7290 C   0  0  0  0  0  0  0  0  0  0  0  0
   58.4506   34.7774   43.9961 H   0  0  0  0  0  0  0  0  0  0  0  0
   60.2664   35.9779   45.2187 H   0  0  0  0  0  0  0  0  0  0  0  0
   60.6754   35.5031   47.6344 H   0  0  0  0  0  0  0  0  0  0  0  0
   59.0700   34.5040   49.8780 H   0  0  0  0  0  0  0  0  0  0  0  0
   63.2732   32.4286   50.5128 H   0  0  0  0  0  0  0  0  0  0  0  0
   65.1532   33.1530   48.8575 H   0  0  0  0  0  0  0  0  0  0  0  0
   64.3898   33.0781   46.3369 H   0  0  0  0  0  0  0  0  0  0  0  0
   59.2182   28.5801   51.5583 H   0  0  0  0  0  0  0  0  0  0  0  0
   55.8284   31.1626   52.0419 H   0  0  0  0  0  0  0  0  0  0  0  0
   56.9950   32.9535   50.6967 H   0  0  0  0  0  0  0  0  0  0  0  0
   57.4426   32.6145   47.6018 H   0  0  0  0  0  0  0  0  0  0  0  0
   57.0446   33.0948   45.1881 H   0  0  0  0  0  0  0  0  0  0  0  0
  1  2  2  0
  2  3  1  0
  3  4  2  0
  4  5  1  0
  5  6  1  0
  6  7  2  0
  7  8  1  0
  8  9  2  0
  9 10  1  0
 10 11  2  0
 11 12  1  0
  7 13  1  0
 13 14  2  0
 14 15  1  0
 15 16  2  0
 16 17  1  0
 17 18  2  0
 18 19  1  0
  4 20  1  0
 20 21  2  0
 21  1  1  0
 19  6  1  0
 12  8  1  0
 19 14  1  0
  1 22  1  0
  2 23  1  0
  3 24  1  0
  5 25  1  0
  9 26  1  0
 10 27  1  0
 11 28  1  0
 15 29  1  0
 17 30  1  0
 18 31  1  0
 20 32  1  0
 21 33  1  0
M  END
>  <UniqueID>  (45) 
43

>  <SMILES>  (45) 
c1ccc(Nc2c(-c3cccs3)nc3cnccn23)cc1

>  <Energy>  (45) 
108.43202675410272

>  <Genealogy>  (45) 
c1ccc(Nc2c(-c3cccs3)nc3cnccn23)cc1 (3D coordinates assigned)
c1ccc(Nc2c(-c3cccs3)nc3cnccn23)cc1 (optimized conformer: 108.43202675410272 kcal/mol)

>  <smiles>  (45) 
c1ccc(Nc2c(-c3cccs3)nc3cnccn23)cc1

>  <score_type>  (45) 
oracle

>  <origin>  (45) 
adg

>  <m_score__min__energy>  (45) 
-6.46

>  <m_primary>  (45) 
energy

$$$$
45:0
     RDKit          3D

 53 55  0  0  0  0  0  0  0  0999 V2000
   56.5500   30.0670   42.9610 C   0  0  0  0  0  0  0  0  0  0  0  0
   56.1580   30.2650   44.4320 C   0  0  0  0  0  0  0  0  0  0  0  0
   57.1360   31.0550   45.2100 N   0  0  0  0  0  0  0  0  0  0  0  0
   58.1540   30.2220   45.8990 C   0  0  0  0  0  0  0  0  0  0  0  0
   59.5280   30.9040   46.0100 C   0  0  0  0  0  0  0  0  0  0  0  0
   59.3730   32.3400   46.2780 N   0  0  0  0  0  0  0  0  0  0  0  0
   60.1100   32.9120   47.3770 C   0  0  0  0  0  0  0  0  0  0  0  0
   61.3060   33.5920   47.1040 C   0  0  0  0  0  0  0  0  0  0  0  0
   62.0450   34.1720   48.1320 C   0  0  0  0  0  0  0  0  0  0  0  0
   61.5950   34.0900   49.4470 C   0  0  0  0  0  0  0  0  0  0  0  0
   60.3900   33.4430   49.7440 C   0  0  0  0  0  0  0  0  0  0  0  0
   59.9570   33.3770   51.1100 N   0  0  0  0  0  0  0  0  0  0  0  0
   58.8960   34.2090   51.6430 C   0  0  0  0  0  0  0  0  0  0  0  0
   59.0000   34.0790   53.1570 C   0  0  0  0  0  0  0  0  0  0  0  0
   59.8970   32.8690   53.4170 C   0  0  0  0  0  0  0  0  0  0  0  0
   60.6850   32.6500   52.1330 C   0  0  0  0  0  0  0  0  0  0  0  0
   59.6150   32.8750   48.7070 C   0  0  0  0  0  0  0  0  0  0  0  0
   58.2920   32.2250   49.0330 C   0  0  0  0  0  0  0  0  0  0  0  0
   58.4280   33.1440   45.4650 C   0  0  0  0  0  0  0  0  0  0  0  0
   59.1920   34.2140   44.6630 C   0  0  0  0  0  0  0  0  0  0  0  0
   57.3910   33.8400   46.3730 C   0  0  0  0  0  0  0  0  0  0  0  0
   57.6820   32.2130   44.4770 C   0  0  0  0  0  0  0  0  0  0  0  0
   57.5306   29.5717   42.9063 H   0  0  0  0  0  0  0  0  0  0  0  0
   55.7952   29.4420   42.4613 H   0  0  0  0  0  0  0  0  0  0  0  0
   56.6051   31.0454   42.4613 H   0  0  0  0  0  0  0  0  0  0  0  0
   55.1885   30.7835   44.4656 H   0  0  0  0  0  0  0  0  0  0  0  0
   56.1176   29.2655   44.8897 H   0  0  0  0  0  0  0  0  0  0  0  0
   57.7928   29.9983   46.9136 H   0  0  0  0  0  0  0  0  0  0  0  0
   58.2909   29.3120   45.2963 H   0  0  0  0  0  0  0  0  0  0  0  0
   60.0954   30.4422   46.8315 H   0  0  0  0  0  0  0  0  0  0  0  0
   60.0645   30.7771   45.0582 H   0  0  0  0  0  0  0  0  0  0  0  0
   61.6641   33.6680   46.0667 H   0  0  0  0  0  0  0  0  0  0  0  0
   62.9854   34.6955   47.9048 H   0  0  0  0  0  0  0  0  0  0  0  0
   62.1901   34.5364   50.2573 H   0  0  0  0  0  0  0  0  0  0  0  0
   59.0373   35.2559   51.3363 H   0  0  0  0  0  0  0  0  0  0  0  0
   57.9079   33.8977   51.2732 H   0  0  0  0  0  0  0  0  0  0  0  0
   59.4481   34.9863   53.5884 H   0  0  0  0  0  0  0  0  0  0  0  0
   58.0097   33.9522   53.6188 H   0  0  0  0  0  0  0  0  0  0  0  0
   60.5799   33.0720   54.2551 H   0  0  0  0  0  0  0  0  0  0  0  0
   59.3078   31.9799   53.6858 H   0  0  0  0  0  0  0  0  0  0  0  0
   61.7060   33.0464   52.2349 H   0  0  0  0  0  0  0  0  0  0  0  0
   60.7819   31.5821   51.8876 H   0  0  0  0  0  0  0  0  0  0  0  0
   58.1717   32.1659   50.1248 H   0  0  0  0  0  0  0  0  0  0  0  0
   57.4741   32.8239   48.6059 H   0  0  0  0  0  0  0  0  0  0  0  0
   58.2662   31.2116   48.6059 H   0  0  0  0  0  0  0  0  0  0  0  0
   59.6877   34.9083   45.3574 H   0  0  0  0  0  0  0  0  0  0  0  0
   59.9479   33.7271   44.0294 H   0  0  0  0  0  0  0  0  0  0  0  0
   58.4860   34.7709   44.0294 H   0  0  0  0  0  0  0  0  0  0  0  0
   57.6511   33.6654   47.4274 H   0  0  0  0  0  0  0  0  0  0  0  0
   57.3921   34.9210   46.1692 H   0  0  0  0  0  0  0  0  0  0  0  0
   56.3910   33.4295   46.1692 H   0  0  0  0  0  0  0  0  0  0  0  0
   56.8593   32.7669   44.0012 H   0  0  0  0  0  0  0  0  0  0  0  0
   58.3820   31.8614   43.7047 H   0  0  0  0  0  0  0  0  0  0  0  0
  1  2  1  0
  2  3  1  0
  3  4  1  0
  4  5  1  0
  5  6  1  0
  6  7  1  0
  7  8  2  0
  8  9  1  0
  9 10  2  0
 10 11  1  0
 11 12  1  0
 12 13  1  0
 13 14  1  0
 14 15  1  0
 15 16  1  0
 11 17  2  0
 17 18  1  0
  6 19  1  0
 19 20  1  0
 19 21  1  0
 19 22  1  0
 22  3  1  0
 17  7  1  0
 16 12  1  0
  1 23  1  0
  1 24  1  0
  1 25  1  0
  2 26  1  0
  2 27  1  0
  4 28  1  0
  4 29  1  0
  5 30  1  0
  5 31  1  0
  8 32  1  0
  9 33  1  0
 10 34  1  0
 13 35  1  0
 13 36  1  0
 14 37  1  0
 14 38  1  0
 15 39  1  0
 15 40  1  0
 16 41  1  0
 16 42  1  0
 18 43  1  0
 18 44  1  0
 18 45  1  0
 20 46  1  0
 20 47  1  0
 20 48  1  0
 21 49  1  0
 21 50  1  0
 21 51  1  0
 22 52  1  0
 22 53  1  0
M  END
>  <UniqueID>  (46) 
44

>  <SMILES>  (46) 
CCN1CCN(c2cccc(N3CCCC3)c2C)C(C)(C)C1

>  <Energy>  (46) 
70.27587109427846

>  <Genealogy>  (46) 
CCN1CCN(c2cccc(N3CCCC3)c2C)C(C)(C)C1 (3D coordinates assigned)
CCN1CCN(c2cccc(N3CCCC3)c2C)C(C)(C)C1 (nonaromatic ring conformer: 70.27587109427846 kcal/mol)

>  <smiles>  (46) 
CCN1CCN(c2cccc(N3CCCC3)c2C)C(C)(C)C1

>  <score_type>  (46) 
oracle

>  <origin>  (46) 
adg

>  <m_score__min__energy>  (46) 
-7.4100000000000001

>  <m_primary>  (46) 
energy

$$$$
46:0
     RDKit          3D

 48 49  0  0  1  0  0  0  0  0999 V2000
   59.5400   31.7260   49.7500 C   0  0  0  0  0  0  0  0  0  0  0  0
   60.1150   31.4240   48.4830 O   0  0  0  0  0  0  0  0  0  0  0  0
   61.3460   31.9700   48.1250 C   0  0  0  0  0  0  0  0  0  0  0  0
   62.5130   31.2370   48.2090 C   0  0  0  0  0  0  0  0  0  0  0  0
   63.7420   31.7840   47.8510 C   0  0  0  0  0  0  0  0  0  0  0  0
   63.7490   33.0920   47.4100 C   0  0  0  0  0  0  0  0  0  0  0  0
   62.5910   33.8410   47.3200 C   0  0  0  0  0  0  0  0  0  0  0  0
   61.3680   33.2960   47.6760 C   0  0  0  0  0  0  0  0  0  0  0  0
   60.1630   34.0620   47.5880 N   0  0  0  0  0  0  0  0  0  0  0  0
   59.3010   33.8150   46.6790 C   0  0  0  0  0  0  0  0  0  0  0  0
   58.8860   34.8370   45.8730 C   0  0  0  0  0  0  0  0  0  0  0  0
   57.9520   34.5880   44.8800 C   0  0  0  0  0  0  0  0  0  0  0  0
   57.4800   33.3330   44.7410 N   0  0  0  0  0  0  0  0  0  0  0  0
   57.8990   32.3250   45.5480 C   0  0  0  0  0  0  0  0  0  0  0  0
   57.3890   31.1720   45.3330 N   0  0  0  0  0  0  0  0  0  0  0  0
   57.3420   30.6340   44.0000 C   0  0  0  0  0  0  0  0  0  0  0  0
   56.7320   29.2340   44.1330 C   0  0  0  0  0  0  0  0  0  0  0  0
   57.7790   28.1690   43.9260 C   0  0  0  0  0  0  0  0  0  0  0  0
   58.6710   28.0570   45.1270 C   0  0  0  0  0  0  0  0  0  0  0  0
   60.0610   28.5800   44.8660 C   0  0  0  0  0  0  0  0  0  0  0  0
   60.3040   29.6580   45.9190 C   0  0  0  0  0  0  0  0  0  0  0  0
   59.2390   29.5880   46.9260 N   0  0  0  0  0  0  0  0  0  0  0  0
   58.7950   32.5720   46.4970 N   0  0  0  0  0  0  0  0  0  0  0  0
   60.2090   31.3746   50.5494 H   0  0  0  0  0  0  0  0  0  0  0  0
   59.4010   32.8135   49.8397 H   0  0  0  0  0  0  0  0  0  0  0  0
   58.5658   31.2232   49.8397 H   0  0  0  0  0  0  0  0  0  0  0  0
   62.4707   30.1977   48.5668 H   0  0  0  0  0  0  0  0  0  0  0  0
   64.6703   31.1975   47.9169 H   0  0  0  0  0  0  0  0  0  0  0  0
   64.7055   33.5523   47.1214 H   0  0  0  0  0  0  0  0  0  0  0  0
   62.6408   34.8800   46.9622 H   0  0  0  0  0  0  0  0  0  0  0  0
   59.2904   35.8506   46.0113 H   0  0  0  0  0  0  0  0  0  0  0  0
   57.6036   35.3962   44.2201 H   0  0  0  0  0  0  0  0  0  0  0  0
   56.7660   33.1500   43.9810 H   0  0  0  0  0  0  0  0  0  0  0  0
   56.7137   31.2654   43.3546 H   0  0  0  0  0  0  0  0  0  0  0  0
   58.3424   30.5969   43.5441 H   0  0  0  0  0  0  0  0  0  0  0  0
   56.2998   29.1235   45.1385 H   0  0  0  0  0  0  0  0  0  0  0  0
   55.9535   29.1155   43.3650 H   0  0  0  0  0  0  0  0  0  0  0  0
   57.2816   27.2029   43.7551 H   0  0  0  0  0  0  0  0  0  0  0  0
   58.3931   28.4433   43.0556 H   0  0  0  0  0  0  0  0  0  0  0  0
   58.2263   28.6337   45.9514 H   0  0  0  0  0  0  0  0  0  0  0  0
   58.7579   26.9900   45.3799 H   0  0  0  0  0  0  0  0  0  0  0  0
   60.7999   27.7715   44.9679 H   0  0  0  0  0  0  0  0  0  0  0  0
   60.1580   28.9808   43.8462 H   0  0  0  0  0  0  0  0  0  0  0  0
   61.2788   29.4908   46.4004 H   0  0  0  0  0  0  0  0  0  0  0  0
   60.3027   30.6500   45.4437 H   0  0  0  0  0  0  0  0  0  0  0  0
   59.6730   29.4000   47.8360 H   0  0  0  0  0  0  0  0  0  0  0  0
   58.7470   30.5220   46.9550 H   0  0  0  0  0  0  0  0  0  0  0  0
   59.1040   31.7830   47.1070 H   0  0  0  0  0  0  0  0  0  0  0  0
  1  2  1  0
  2  3  1  0
  3  4  2  0
  4  5  1  0
  5  6  2  0
  6  7  1  0
  7  8  2  0
  8  9  1  0
  9 10  2  0
 10 11  1  0
 11 12  2  0
 12 13  1  0
 13 14  1  0
 14 15  2  0
 15 16  1  0
 16 17  1  0
 17 18  1  0
 18 19  1  0
 19 20  1  0
 20 21  1  0
 21 22  1  0
 14 23  1  0
  8  3  1  0
 23 10  1  0
  1 24  1  0
  1 25  1  0
  1 26  1  0
  4 27  1  0
  5 28  1  0
  6 29  1  0
  7 30  1  0
 11 31  1  0
 12 32  1  0
 13 33  1  0
 16 34  1  0
 16 35  1  0
 17 36  1  0
 17 37  1  0
 18 38  1  0
 18 39  1  0
 19 40  1  0
 19 41  1  0
 20 42  1  0
 20 43  1  0
 21 44  1  0
 21 45  1  0
 22 46  1  0
 22 47  1  0
 23 48  1  0
M  END
>  <smiles>  (47) 
COc1ccccc1N=c1cc[nH]c(=NCCCCCCN)[nH]1

>  <score_type>  (47) 
oracle

>  <origin>  (47) 
adg

>  <m_score__min__energy>  (47) 
-6.6799999999999997

>  <m_primary>  (47) 
energy

$$$$
