0:0
     RDKit          3D

 66 69  0  0  0  0  0  0  0  0999 V2000
   58.1090   33.1440   47.0460 C   0  0  0  0  0  0  0  0  0  0  0  0
   59.2470   33.9550   47.6620 C   0  0  0  0  0  0  0  0  0  0  0  0
   60.4610   33.8390   46.8370 N   0  0  0  0  0  0  0  0  0  0  0  0
   61.6940   34.1360   47.5910 C   0  0  0  0  0  0  0  0  0  0  0  0
   62.9700   33.8250   46.7890 C   0  0  0  0  0  0  0  0  0  0  0  0
   63.4690   32.4820   47.0890 N   0  0  0  0  0  0  0  0  0  0  0  0
   62.7610   31.6060   47.9800 C   0  0  0  0  0  0  0  0  0  0  0  0
   63.1580   31.4300   49.3280 C   0  0  0  0  0  0  0  0  0  0  0  0
   62.3820   30.5740   50.1840 C   0  0  0  0  0  0  0  0  0  0  0  0
   61.3310   29.8320   49.6640 N   0  0  0  0  0  0  0  0  0  0  0  0
   60.6500   28.7900   50.4490 C   0  0  0  0  0  0  0  0  0  0  0  0
   60.9420   30.0770   48.3730 C   0  0  0  0  0  0  0  0  0  0  0  0
   61.6410   30.9180   47.5400 C   0  0  0  0  0  0  0  0  0  0  0  0
   61.1050   30.9560   46.3370 O   0  0  0  0  0  0  0  0  0  0  0  0
   60.0470   30.1760   46.3660 C   0  0  0  0  0  0  0  0  0  0  0  0
   59.1600   29.9410   45.3170 C   0  0  0  0  0  0  0  0  0  0  0  0
   58.0450   29.1030   45.5540 C   0  0  0  0  0  0  0  0  0  0  0  0
   57.0770   28.8230   44.5260 N   0  0  0  0  0  0  0  0  0  0  0  0
   56.1780   29.8400   43.9700 C   0  0  0  0  0  0  0  0  0  0  0  0
   56.7080   30.4160   42.6350 C   0  0  0  0  0  0  0  0  0  0  0  0
   57.0390   31.8620   42.6600 N   0  0  0  0  0  0  0  0  0  0  0  0
   57.7460   32.3220   41.4550 C   0  0  0  0  0  0  0  0  0  0  0  0
   57.7500   32.2710   43.8840 C   0  0  0  0  0  0  0  0  0  0  0  0
   57.8600   28.5430   46.8410 C   0  0  0  0  0  0  0  0  0  0  0  0
   58.7700   28.7930   47.8820 C   0  0  0  0  0  0  0  0  0  0  0  0
   59.8790   29.6010   47.6090 C   0  0  0  0  0  0  0  0  0  0  0  0
   62.7500   30.4500   51.6570 C   0  0  0  0  0  0  0  0  0  0  0  0
   63.6020   31.6080   52.1710 C   0  0  0  0  0  0  0  0  0  0  0  0
   64.7900   31.8220   51.2490 C   0  0  0  0  0  0  0  0  0  0  0  0
   64.3110   32.2590   49.8660 C   0  0  0  0  0  0  0  0  0  0  0  0
   57.4951   32.7065   47.8471 H   0  0  0  0  0  0  0  0  0  0  0  0
   57.4849   33.8021   46.4236 H   0  0  0  0  0  0  0  0  0  0  0  0
   58.5273   32.3393   46.4236 H   0  0  0  0  0  0  0  0  0  0  0  0
   58.9484   35.0120   47.7219 H   0  0  0  0  0  0  0  0  0  0  0  0
   59.4597   33.5662   48.6688 H   0  0  0  0  0  0  0  0  0  0  0  0
   60.5090   32.8730   46.4350 H   0  0  0  0  0  0  0  0  0  0  0  0
   61.6961   35.2037   47.8556 H   0  0  0  0  0  0  0  0  0  0  0  0
   61.6991   33.4953   48.4851 H   0  0  0  0  0  0  0  0  0  0  0  0
   62.7439   33.8922   45.7146 H   0  0  0  0  0  0  0  0  0  0  0  0
   63.7440   34.5549   47.0686 H   0  0  0  0  0  0  0  0  0  0  0  0
   64.4620   32.2590   46.8500 H   0  0  0  0  0  0  0  0  0  0  0  0
   60.7830   28.9935   51.5218 H   0  0  0  0  0  0  0  0  0  0  0  0
   59.5772   28.7902   50.2060 H   0  0  0  0  0  0  0  0  0  0  0  0
   61.0808   27.8075   50.2060 H   0  0  0  0  0  0  0  0  0  0  0  0
   59.3229   30.3960   44.3288 H   0  0  0  0  0  0  0  0  0  0  0  0
   57.0090   27.8410   44.1780 H   0  0  0  0  0  0  0  0  0  0  0  0
   55.1924   29.3844   43.7937 H   0  0  0  0  0  0  0  0  0  0  0  0
   56.1113   30.6660   44.6934 H   0  0  0  0  0  0  0  0  0  0  0  0
   57.6190   29.8627   42.3631 H   0  0  0  0  0  0  0  0  0  0  0  0
   55.8916   30.3015   41.9067 H   0  0  0  0  0  0  0  0  0  0  0  0
   58.6344   32.9000   41.7493 H   0  0  0  0  0  0  0  0  0  0  0  0
   58.0560   31.4522   40.8573 H   0  0  0  0  0  0  0  0  0  0  0  0
   57.0763   32.9578   40.8573 H   0  0  0  0  0  0  0  0  0  0  0  0
   57.1801   31.9432   44.7659 H   0  0  0  0  0  0  0  0  0  0  0  0
   58.7482   31.8091   43.8999 H   0  0  0  0  0  0  0  0  0  0  0  0
   57.8525   33.3661   43.8999 H   0  0  0  0  0  0  0  0  0  0  0  0
   56.9875   27.9001   47.0296 H   0  0  0  0  0  0  0  0  0  0  0  0
   58.6148   28.3654   48.8835 H   0  0  0  0  0  0  0  0  0  0  0  0
   61.8217   30.4124   52.2459 H   0  0  0  0  0  0  0  0  0  0  0  0
   63.3496   29.5341   51.7649 H   0  0  0  0  0  0  0  0  0  0  0  0
   62.9934   32.5238   52.2010 H   0  0  0  0  0  0  0  0  0  0  0  0
   63.9651   31.3708   53.1819 H   0  0  0  0  0  0  0  0  0  0  0  0
   65.4419   32.6011   51.6709 H   0  0  0  0  0  0  0  0  0  0  0  0
   65.3465   30.8778   51.1548 H   0  0  0  0  0  0  0  0  0  0  0  0
   63.9855   33.3080   49.9269 H   0  0  0  0  0  0  0  0  0  0  0  0
   65.1557   32.1205   49.1752 H   0  0  0  0  0  0  0  0  0  0  0  0
  1  2  1  0
  2  3  1  0
  3  4  1  0
  4  5  1  0
  5  6  1  0
  6  7  1  0
  7  8  2  0
  8  9  1  0
  9 10  2  0
 10 11  1  0
 10 12  1  0
 12 13  2  0
 13 14  1  0
 14 15  1  0
 15 16  2  0
 16 17  1  0
 17 18  1  0
 18 19  1  0
 19 20  1  0
 20 21  1  0
 21 22  1  0
 21 23  1  0
 17 24  2  0
 24 25  1  0
 25 26  2  0
  9 27  1  0
 27 28  1  0
 28 29  1  0
 29 30  1  0
 13  7  1  0
 26 15  1  0
 30  8  1  0
 26 12  1  0
  1 31  1  0
  1 32  1  0
  1 33  1  0
  2 34  1  0
  2 35  1  0
  3 36  1  0
  4 37  1  0
  4 38  1  0
  5 39  1  0
  5 40  1  0
  6 41  1  0
 11 42  1  0
 11 43  1  0
 11 44  1  0
 16 45  1  0
 18 46  1  0
 19 47  1  0
 19 48  1  0
 20 49  1  0
 20 50  1  0
 22 51  1  0
 22 52  1  0
 22 53  1  0
 23 54  1  0
 23 55  1  0
 23 56  1  0
 24 57  1  0
 25 58  1  0
 27 59  1  0
 27 60  1  0
 28 61  1  0
 28 62  1  0
 29 63  1  0
 29 64  1  0
 30 65  1  0
 30 66  1  0
M  CHG  1  10   1
M  END
>  <UniqueID>  (1) 
1

>  <SMILES>  (1) 
CCNCCNc1c2c([n+](C)c3c1oc1cc(NCCN(C)C)ccc13)CCCC2

>  <Energy>  (1) 
123.0819364374678

>  <Genealogy>  (1) 
CCNCCNc1c2c([n+](C)c3c1oc1cc(NCCN(C)C)ccc13)CCCC2 (3D coordinates assigned)
CCNCCNc1c2c([n+](C)c3c1oc1cc(NCCN(C)C)ccc13)CCCC2 (nonaromatic ring conformer: 123.0819364374678 kcal/mol)

>  <smiles>  (1) 
CCNCCNc1c2c([n+](C)c3c1oc1cc(NCCN(C)C)ccc13)CCCC2

>  <score_type>  (1) 
oracle

>  <origin>  (1) 
adg

>  <m_score__min__energy>  (1) 
-6.4800000000000004

>  <m_primary>  (1) 
energy

$$$$
1:0
     RDKit          3D

 40 43  0  0  0  0  0  0  0  0999 V2000
   55.5280   29.7280   43.3740 C   0  0  0  0  0  0  0  0  0  0  0  0
   56.6290   30.3010   44.2170 C   0  0  0  0  0  0  0  0  0  0  0  0
   56.4970   31.5740   44.6760 N   0  0  0  0  0  0  0  0  0  0  0  0
   57.4540   32.1610   45.4390 C   0  0  0  0  0  0  0  0  0  0  0  0
   57.2400   33.8430   46.0020 S   0  0  0  0  0  0  0  0  0  0  0  0
   58.9830   34.0130   46.3890 C   0  0  0  0  0  0  0  0  0  0  0  0
   59.8590   34.6720   45.6130 N   0  0  0  0  0  0  0  0  0  0  0  0
   61.0440   34.6190   46.1960 N   0  0  0  0  0  0  0  0  0  0  0  0
   60.8790   33.9100   47.3320 C   0  0  0  0  0  0  0  0  0  0  0  0
   61.9900   33.6300   48.2690 C   0  0  0  0  0  0  0  0  0  0  0  0
   61.9910   34.2270   49.5410 C   0  0  0  0  0  0  0  0  0  0  0  0
   63.0420   33.9880   50.4320 C   0  0  0  0  0  0  0  0  0  0  0  0
   64.1050   33.1640   50.0560 C   0  0  0  0  0  0  0  0  0  0  0  0
   64.1250   32.5860   48.7850 C   0  0  0  0  0  0  0  0  0  0  0  0
   63.0750   32.8210   47.8900 C   0  0  0  0  0  0  0  0  0  0  0  0
   59.5880   33.5280   47.4920 N   0  0  0  0  0  0  0  0  0  0  0  0
   58.9740   32.7800   48.5890 C   0  0  0  0  0  0  0  0  0  0  0  0
   58.5790   31.4770   45.7650 N   0  0  0  0  0  0  0  0  0  0  0  0
   58.7720   30.2020   45.3390 C   0  0  0  0  0  0  0  0  0  0  0  0
   59.9430   29.5210   45.6890 C   0  0  0  0  0  0  0  0  0  0  0  0
   60.1480   28.2110   45.2510 C   0  0  0  0  0  0  0  0  0  0  0  0
   59.1860   27.5750   44.4630 C   0  0  0  0  0  0  0  0  0  0  0  0
   58.0110   28.2450   44.1070 C   0  0  0  0  0  0  0  0  0  0  0  0
   57.7920   29.5680   44.5420 C   0  0  0  0  0  0  0  0  0  0  0  0
   54.7421   29.3190   44.0259 H   0  0  0  0  0  0  0  0  0  0  0  0
   55.1027   30.5192   42.7390 H   0  0  0  0  0  0  0  0  0  0  0  0
   55.9320   28.9258   42.7390 H   0  0  0  0  0  0  0  0  0  0  0  0
   59.6580   35.1560   44.7100 H   0  0  0  0  0  0  0  0  0  0  0  0
   61.1612   34.8855   49.8373 H   0  0  0  0  0  0  0  0  0  0  0  0
   63.0314   34.4497   51.4304 H   0  0  0  0  0  0  0  0  0  0  0  0
   64.9267   32.9703   50.7612 H   0  0  0  0  0  0  0  0  0  0  0  0
   64.9675   31.9448   48.4867 H   0  0  0  0  0  0  0  0  0  0  0  0
   63.0990   32.3710   46.8865 H   0  0  0  0  0  0  0  0  0  0  0  0
   59.3135   33.1936   49.5500 H   0  0  0  0  0  0  0  0  0  0  0  0
   57.8792   32.8618   48.5209 H   0  0  0  0  0  0  0  0  0  0  0  0
   59.2676   31.7221   48.5209 H   0  0  0  0  0  0  0  0  0  0  0  0
   60.7030   30.0180   46.3098 H   0  0  0  0  0  0  0  0  0  0  0  0
   61.0699   27.6783   45.5274 H   0  0  0  0  0  0  0  0  0  0  0  0
   59.3532   26.5430   44.1210 H   0  0  0  0  0  0  0  0  0  0  0  0
   57.2566   27.7389   43.4867 H   0  0  0  0  0  0  0  0  0  0  0  0
  1  2  1  0
  2  3  2  0
  3  4  1  0
  4  5  1  0
  5  6  1  0
  6  7  2  0
  7  8  1  0
  8  9  2  0
  9 10  1  0
 10 11  2  0
 11 12  1  0
 12 13  2  0
 13 14  1  0
 14 15  2  0
  9 16  1  0
 16 17  1  0
  4 18  2  0
 18 19  1  0
 19 20  2  0
 20 21  1  0
 21 22  2  0
 22 23  1  0
 23 24  2  0
 24  2  1  0
 16  6  1  0
 24 19  1  0
 15 10  1  0
  1 25  1  0
  1 26  1  0
  1 27  1  0
  7 28  1  0
 11 29  1  0
 12 30  1  0
 13 31  1  0
 14 32  1  0
 15 33  1  0
 17 34  1  0
 17 35  1  0
 17 36  1  0
 20 37  1  0
 21 38  1  0
 22 39  1  0
 23 40  1  0
M  CHG  1   7   1
M  END
>  <UniqueID>  (2) 
2

>  <SMILES>  (2) 
Cc1nc(Sc2[nH+]nc(-c3ccccc3)n2C)nc2ccccc12

>  <Energy>  (2) 
83.77112481564816

>  <Genealogy>  (2) 
Cc1nc(Sc2[nH+]nc(-c3ccccc3)n2C)nc2ccccc12 (protonated)
Cc1nc(Sc2[nH+]nc(-c3ccccc3)n2C)nc2ccccc12 (3D coordinates assigned)
Cc1nc(Sc2[nH+]nc(-c3ccccc3)n2C)nc2ccccc12 (optimized conformer: 83.77112481564816 kcal/mol)

>  <smiles>  (2) 
Cc1nc(Sc2nnc(-c3ccccc3)n2C)nc2ccccc12

>  <score_type>  (2) 
oracle

>  <origin>  (2) 
adg

>  <m_score__min__energy>  (2) 
-7.3099999999999996

>  <m_primary>  (2) 
energy

$$$$
2:0
     RDKit          3D

 46 47  0  0  0  0  0  0  0  0999 V2000
   63.5380   33.4130   46.7350 C   0  0  0  0  0  0  0  0  0  0  0  0
   62.1600   33.2670   47.2890 C   0  0  0  0  0  0  0  0  0  0  0  0
   61.0980   32.8600   46.5660 N   0  0  0  0  0  0  0  0  0  0  0  0
   60.0410   32.8740   47.3640 N   0  0  0  0  0  0  0  0  0  0  0  0
   58.7020   32.4830   46.9170 C   0  0  0  0  0  0  0  0  0  0  0  0
   58.0410   33.6060   46.0870 C   0  0  1  0  0  0  0  0  0  0  0  0
   59.1060   34.5270   45.4700 C   0  0  0  0  0  0  0  0  0  0  0  0
   57.1420   33.0390   44.9530 C   0  0  0  0  0  0  0  0  0  0  0  0
   56.6810   31.6580   45.1740 N   0  0  0  0  0  0  0  0  0  0  0  0
   57.1660   30.7170   44.1510 C   0  0  0  0  0  0  0  0  0  0  0  0
   56.5100   29.3290   44.3070 C   0  0  2  0  0  0  0  0  0  0  0  0
   55.2430   29.3960   44.9190 O   0  0  0  0  0  0  0  0  0  0  0  0
   57.4290   28.3480   45.0160 C   0  0  0  0  0  0  0  0  0  0  0  0
   58.8300   28.4840   44.9510 C   0  0  0  0  0  0  0  0  0  0  0  0
   59.6630   27.5510   45.5750 C   0  0  0  0  0  0  0  0  0  0  0  0
   59.1130   26.4650   46.2580 C   0  0  0  0  0  0  0  0  0  0  0  0
   57.7260   26.3060   46.3130 C   0  0  0  0  0  0  0  0  0  0  0  0
   56.8850   27.2350   45.6910 C   0  0  0  0  0  0  0  0  0  0  0  0
   55.5420   27.0420   45.7430 F   0  0  0  0  0  0  0  0  0  0  0  0
   60.4090   33.2880   48.5980 C   0  0  0  0  0  0  0  0  0  0  0  0
   59.4820   33.4630   49.7640 C   0  0  0  0  0  0  0  0  0  0  0  0
   61.7640   33.5560   48.5810 C   0  0  0  0  0  0  0  0  0  0  0  0
   62.8600   34.2020   50.0110 Br  0  0  0  0  0  0  0  0  0  0  0  0
   64.2594   33.4894   47.5619 H   0  0  0  0  0  0  0  0  0  0  0  0
   63.7798   32.5354   46.1174 H   0  0  0  0  0  0  0  0  0  0  0  0
   63.5905   34.3217   46.1174 H   0  0  0  0  0  0  0  0  0  0  0  0
   58.7805   31.5775   46.2975 H   0  0  0  0  0  0  0  0  0  0  0  0
   58.0800   32.2927   47.8041 H   0  0  0  0  0  0  0  0  0  0  0  0
   57.4085   34.1806   46.7797 H   0  0  0  0  0  0  0  0  0  0  0  0
   59.6749   35.0190   46.2727 H   0  0  0  0  0  0  0  0  0  0  0  0
   59.7901   33.9312   44.8479 H   0  0  0  0  0  0  0  0  0  0  0  0
   58.6151   35.2899   44.8479 H   0  0  0  0  0  0  0  0  0  0  0  0
   56.2573   33.6860   44.8595 H   0  0  0  0  0  0  0  0  0  0  0  0
   57.7592   33.0216   44.0427 H   0  0  0  0  0  0  0  0  0  0  0  0
   55.6380   31.6330   45.2250 H   0  0  0  0  0  0  0  0  0  0  0  0
   56.9259   31.1165   43.1546 H   0  0  0  0  0  0  0  0  0  0  0  0
   58.2531   30.6021   44.2737 H   0  0  0  0  0  0  0  0  0  0  0  0
   56.3441   28.9454   43.2895 H   0  0  0  0  0  0  0  0  0  0  0  0
   55.2640   30.0910   45.6240 H   0  0  0  0  0  0  0  0  0  0  0  0
   59.2715   29.3308   44.4051 H   0  0  0  0  0  0  0  0  0  0  0  0
   60.7552   27.6729   45.5277 H   0  0  0  0  0  0  0  0  0  0  0  0
   59.7709   25.7351   46.7524 H   0  0  0  0  0  0  0  0  0  0  0  0
   57.2937   25.4472   46.8473 H   0  0  0  0  0  0  0  0  0  0  0  0
   60.0476   33.3562   50.7014 H   0  0  0  0  0  0  0  0  0  0  0  0
   59.0259   34.4631   49.7229 H   0  0  0  0  0  0  0  0  0  0  0  0
   58.6926   32.6980   49.7229 H   0  0  0  0  0  0  0  0  0  0  0  0
  1  2  1  0
  2  3  2  0
  3  4  1  0
  4  5  1  0
  5  6  1  0
  6  7  1  0
  6  8  1  0
  8  9  1  0
  9 10  1  0
 10 11  1  0
 11 12  1  0
 11 13  1  0
 13 14  2  0
 14 15  1  0
 15 16  2  0
 16 17  1  0
 17 18  2  0
 18 19  1  0
  4 20  1  0
 20 21  1  0
 20 22  2  0
 22 23  1  0
 22  2  1  0
 18 13  1  0
  1 24  1  0
  1 25  1  0
  1 26  1  0
  5 27  1  0
  5 28  1  0
  6 29  1  1
  7 30  1  0
  7 31  1  0
  7 32  1  0
  8 33  1  0
  8 34  1  0
  9 35  1  0
 10 36  1  0
 10 37  1  0
 11 38  1  6
 12 39  1  0
 14 40  1  0
 15 41  1  0
 16 42  1  0
 17 43  1  0
 21 44  1  0
 21 45  1  0
 21 46  1  0
M  END
>  <UniqueID>  (3) 
3

>  <SMILES>  (3) 
Cc1nn(C[C@@H](C)CNC[C@H](O)c2ccccc2F)c(C)c1Br

>  <Energy>  (3) 
72.97891085385837

>  <Genealogy>  (3) 
Cc1nn(C[C@@H](C)CNC[C@H](O)c2ccccc2F)c(C)c1Br (chirality)
Cc1nn(C[C@@H](C)CNC[C@H](O)c2ccccc2F)c(C)c1Br (3D coordinates assigned)
Cc1nn(C[C@@H](C)CNC[C@H](O)c2ccccc2F)c(C)c1Br (optimized conformer: 72.97891085385837 kcal/mol)

>  <smiles>  (3) 
Cc1nn(CC(C)CNCC(O)c2ccccc2F)c(C)c1Br

>  <score_type>  (3) 
oracle

>  <origin>  (3) 
adg

>  <m_score__min__energy>  (3) 
-9.1500000000000004

>  <m_primary>  (3) 
energy

$$$$
3:0
     RDKit          3D

 57 59  0  0  0  0  0  0  0  0999 V2000
   60.2430   29.3250   48.7250 C   0  0  0  0  0  0  0  0  0  0  0  0
   60.4070   29.9070   47.3240 C   0  0  0  0  0  0  0  0  0  0  0  0
   59.0930   30.1910   46.7350 N   0  0  0  0  0  0  0  0  0  0  0  0
   58.4020   28.9440   46.3850 C   0  0  0  0  0  0  0  0  0  0  0  0
   57.2850   29.2050   45.3640 C   0  0  0  0  0  0  0  0  0  0  0  0
   57.5010   30.4690   44.5240 C   0  0  0  0  0  0  0  0  0  0  0  0
   57.3550   31.6150   45.3400 O   0  0  0  0  0  0  0  0  0  0  0  0
   57.7410   32.7660   44.6160 C   0  0  0  0  0  0  0  0  0  0  0  0
   57.4410   34.0300   45.4340 C   0  0  0  0  0  0  0  0  0  0  0  0
   58.1200   34.0480   46.8150 C   0  0  0  0  0  0  0  0  0  0  0  0
   58.7420   32.7540   47.1420 N   0  0  0  0  0  0  0  0  0  0  0  0
   59.6960   32.9050   48.2300 C   0  0  0  0  0  0  0  0  0  0  0  0
   61.0440   33.2610   47.9610 C   0  0  0  0  0  0  0  0  0  0  0  0
   61.4720   33.6250   46.6590 C   0  0  0  0  0  0  0  0  0  0  0  0
   62.8160   33.8570   46.3830 C   0  0  0  0  0  0  0  0  0  0  0  0
   63.7640   33.7340   47.3890 C   0  0  0  0  0  0  0  0  0  0  0  0
   63.3670   33.4330   48.6880 C   0  0  0  0  0  0  0  0  0  0  0  0
   61.9980   33.2450   49.0160 C   0  0  0  0  0  0  0  0  0  0  0  0
   61.5940   33.0390   50.3200 N   0  0  0  0  0  0  0  0  0  0  0  0
   62.5300   33.3220   51.4340 C   0  0  0  0  0  0  0  0  0  0  0  0
   60.3050   32.6260   50.5930 C   0  0  0  0  0  0  0  0  0  0  0  0
   59.9320   32.1820   51.8880 C   0  0  0  0  0  0  0  0  0  0  0  0
   58.6120   31.8600   52.1900 C   0  0  0  0  0  0  0  0  0  0  0  0
   57.6320   31.9670   51.2150 C   0  0  0  0  0  0  0  0  0  0  0  0
   57.9730   32.3400   49.9180 C   0  0  0  0  0  0  0  0  0  0  0  0
   59.3180   32.6230   49.5690 C   0  0  0  0  0  0  0  0  0  0  0  0
   60.4619   30.1017   49.4726 H   0  0  0  0  0  0  0  0  0  0  0  0
   59.2100   28.9705   48.8562 H   0  0  0  0  0  0  0  0  0  0  0  0
   60.9389   28.4833   48.8562 H   0  0  0  0  0  0  0  0  0  0  0  0
   60.9874   30.8395   47.3838 H   0  0  0  0  0  0  0  0  0  0  0  0
   60.9330   29.1766   46.6917 H   0  0  0  0  0  0  0  0  0  0  0  0
   59.2570   30.7110   45.8420 H   0  0  0  0  0  0  0  0  0  0  0  0
   59.1276   28.2392   45.9528 H   0  0  0  0  0  0  0  0  0  0  0  0
   57.9536   28.5226   47.2968 H   0  0  0  0  0  0  0  0  0  0  0  0
   57.2272   28.3420   44.6843 H   0  0  0  0  0  0  0  0  0  0  0  0
   56.3562   29.3529   45.9344 H   0  0  0  0  0  0  0  0  0  0  0  0
   58.5132   30.4533   44.0935 H   0  0  0  0  0  0  0  0  0  0  0  0
   56.7559   30.5005   43.7154 H   0  0  0  0  0  0  0  0  0  0  0  0
   58.8193   32.7175   44.4038 H   0  0  0  0  0  0  0  0  0  0  0  0
   57.1750   32.8047   43.6736 H   0  0  0  0  0  0  0  0  0  0  0  0
   57.7899   34.9037   44.8639 H   0  0  0  0  0  0  0  0  0  0  0  0
   56.3552   34.0498   45.6090 H   0  0  0  0  0  0  0  0  0  0  0  0
   58.8973   34.8263   46.8182 H   0  0  0  0  0  0  0  0  0  0  0  0
   57.3472   34.2535   47.5704 H   0  0  0  0  0  0  0  0  0  0  0  0
   58.0110   32.0430   47.3680 H   0  0  0  0  0  0  0  0  0  0  0  0
   59.2100   32.3480   46.3070 H   0  0  0  0  0  0  0  0  0  0  0  0
   60.7293   33.7256   45.8539 H   0  0  0  0  0  0  0  0  0  0  0  0
   63.1274   34.1382   45.3662 H   0  0  0  0  0  0  0  0  0  0  0  0
   64.8305   33.8746   47.1591 H   0  0  0  0  0  0  0  0  0  0  0  0
   64.1283   33.3388   49.4764 H   0  0  0  0  0  0  0  0  0  0  0  0
   62.0155   33.1664   52.3937 H   0  0  0  0  0  0  0  0  0  0  0  0
   63.3945   32.6451   51.3675 H   0  0  0  0  0  0  0  0  0  0  0  0
   62.8746   34.3645   51.3675 H   0  0  0  0  0  0  0  0  0  0  0  0
   60.7014   32.0904   52.6688 H   0  0  0  0  0  0  0  0  0  0  0  0
   58.3463   31.5207   53.2021 H   0  0  0  0  0  0  0  0  0  0  0  0
   56.5822   31.7565   51.4671 H   0  0  0  0  0  0  0  0  0  0  0  0
   57.1872   32.4164   49.1521 H   0  0  0  0  0  0  0  0  0  0  0  0
  1  2  1  0
  2  3  1  0
  3  4  1  0
  4  5  1  0
  5  6  1  0
  6  7  1  0
  7  8  1  0
  8  9  1  0
  9 10  1  0
 10 11  1  0
 11 12  1  0
 12 13  2  0
 13 14  1  0
 14 15  2  0
 15 16  1  0
 16 17  2  0
 17 18  1  0
 18 19  2  0
 19 20  1  0
 19 21  1  0
 21 22  2  0
 22 23  1  0
 23 24  2  0
 24 25  1  0
 25 26  2  0
 26 12  1  0
 18 13  1  0
 26 21  1  0
  1 27  1  0
  1 28  1  0
  1 29  1  0
  2 30  1  0
  2 31  1  0
  3 32  1  0
  4 33  1  0
  4 34  1  0
  5 35  1  0
  5 36  1  0
  6 37  1  0
  6 38  1  0
  8 39  1  0
  8 40  1  0
  9 41  1  0
  9 42  1  0
 10 43  1  0
 10 44  1  0
 11 45  1  0
 11 46  1  0
 14 47  1  0
 15 48  1  0
 16 49  1  0
 17 50  1  0
 20 51  1  0
 20 52  1  0
 20 53  1  0
 22 54  1  0
 23 55  1  0
 24 56  1  0
 25 57  1  0
M  CHG  2  11   1  19   1
M  END
>  <UniqueID>  (4) 
4

>  <SMILES>  (4) 
CCNCCCOCCC[NH2+]c1c2ccccc2[n+](C)c2ccccc12

>  <Energy>  (4) 
74.90243540402841

>  <Genealogy>  (4) 
CCNCCCOCCC[NH2+]c1c2ccccc2[n+](C)c2ccccc12 (protonated)
CCNCCCOCCC[NH2+]c1c2ccccc2[n+](C)c2ccccc12 (3D coordinates assigned)
CCNCCCOCCC[NH2+]c1c2ccccc2[n+](C)c2ccccc12 (optimized conformer: 74.90243540402841 kcal/mol)

>  <smiles>  (4) 
CCNCCCOCCCNc1c2ccccc2[n+](C)c2ccccc12

>  <score_type>  (4) 
oracle

>  <origin>  (4) 
adg

>  <m_score__min__energy>  (4) 
-3.1800000000000002

>  <m_primary>  (4) 
energy

$$$$
4:0
     RDKit          3D

 46 48  0  0  0  0  0  0  0  0999 V2000
   58.4510   29.9500   45.7540 C   0  0  0  0  0  0  0  0  0  0  0  0
   59.8780   30.1070   46.2860 C   0  0  0  0  0  0  0  0  0  0  0  0
   59.9170   30.7900   47.5930 N   0  0  0  0  0  0  0  0  0  0  0  0
   61.0420   30.3310   48.4280 C   0  0  0  0  0  0  0  0  0  0  0  0
   62.2700   31.2230   48.2320 C   0  0  0  0  0  0  0  0  0  0  0  0
   62.0540   32.0920   47.1370 O   0  0  0  0  0  0  0  0  0  0  0  0
   63.0000   33.1460   47.1240 C   0  0  0  0  0  0  0  0  0  0  0  0
   62.9640   33.8920   48.4570 C   0  0  0  0  0  0  0  0  0  0  0  0
   61.6680   34.5450   48.6190 N   0  0  0  0  0  0  0  0  0  0  0  0
   60.4380   34.1080   48.4770 C   0  0  0  0  0  0  0  0  0  0  0  0
   59.6900   34.1540   47.2540 C   0  0  0  0  0  0  0  0  0  0  0  0
   59.9830   35.0140   46.1670 C   0  0  0  0  0  0  0  0  0  0  0  0
   59.2400   34.9580   44.9840 C   0  0  0  0  0  0  0  0  0  0  0  0
   58.1660   34.0820   44.8680 C   0  0  0  0  0  0  0  0  0  0  0  0
   57.7990   33.2890   45.9520 C   0  0  0  0  0  0  0  0  0  0  0  0
   58.5260   33.3420   47.1460 C   0  0  0  0  0  0  0  0  0  0  0  0
   58.0800   32.6330   48.2090 N   0  0  0  0  0  0  0  0  0  0  0  0
   58.6910   32.6720   49.4150 C   0  0  0  0  0  0  0  0  0  0  0  0
   58.1530   31.9430   50.4810 C   0  0  0  0  0  0  0  0  0  0  0  0
   58.7720   31.9640   51.7310 C   0  0  0  0  0  0  0  0  0  0  0  0
   59.9310   32.7170   51.9230 C   0  0  0  0  0  0  0  0  0  0  0  0
   60.4800   33.4470   50.8650 C   0  0  0  0  0  0  0  0  0  0  0  0
   59.8700   33.4320   49.5890 C   0  0  0  0  0  0  0  0  0  0  0  0
   57.7510   29.8730   46.5991 H   0  0  0  0  0  0  0  0  0  0  0  0
   58.1901   30.8249   45.1404 H   0  0  0  0  0  0  0  0  0  0  0  0
   58.3866   29.0393   45.1404 H   0  0  0  0  0  0  0  0  0  0  0  0
   60.3265   29.1085   46.3953 H   0  0  0  0  0  0  0  0  0  0  0  0
   60.4387   30.7233   45.5678 H   0  0  0  0  0  0  0  0  0  0  0  0
   59.0120   30.6400   48.0960 H   0  0  0  0  0  0  0  0  0  0  0  0
   60.0250   31.8160   47.4190 H   0  0  0  0  0  0  0  0  0  0  0  0
   60.7407   30.3609   49.4855 H   0  0  0  0  0  0  0  0  0  0  0  0
   61.3033   29.3047   48.1307 H   0  0  0  0  0  0  0  0  0  0  0  0
   62.4408   31.8163   49.1424 H   0  0  0  0  0  0  0  0  0  0  0  0
   63.1504   30.5946   48.0321 H   0  0  0  0  0  0  0  0  0  0  0  0
   64.0063   32.7312   46.9650 H   0  0  0  0  0  0  0  0  0  0  0  0
   62.7535   33.8445   46.3108 H   0  0  0  0  0  0  0  0  0  0  0  0
   63.1198   33.1788   49.2798 H   0  0  0  0  0  0  0  0  0  0  0  0
   63.7597   34.6514   48.4718 H   0  0  0  0  0  0  0  0  0  0  0  0
   60.8076   35.7367   46.2551 H   0  0  0  0  0  0  0  0  0  0  0  0
   59.5065   35.6108   44.1397 H   0  0  0  0  0  0  0  0  0  0  0  0
   57.6080   34.0158   43.9224 H   0  0  0  0  0  0  0  0  0  0  0  0
   56.9322   32.6168   45.8690 H   0  0  0  0  0  0  0  0  0  0  0  0
   57.2380   31.3507   50.3329 H   0  0  0  0  0  0  0  0  0  0  0  0
   58.3465   31.3870   52.5653 H   0  0  0  0  0  0  0  0  0  0  0  0
   60.4145   32.7362   52.9109 H   0  0  0  0  0  0  0  0  0  0  0  0
   61.3937   34.0379   51.0260 H   0  0  0  0  0  0  0  0  0  0  0  0
  1  2  1  0
  2  3  1  0
  3  4  1  0
  4  5  1  0
  5  6  1  0
  6  7  1  0
  7  8  1  0
  8  9  1  0
  9 10  2  3
 10 11  1  0
 11 12  2  0
 12 13  1  0
 13 14  2  0
 14 15  1  0
 15 16  2  0
 16 17  1  0
 17 18  1  0
 18 19  2  0
 19 20  1  0
 20 21  2  0
 21 22  1  0
 22 23  2  0
 23 10  1  0
 16 11  1  0
 23 18  1  0
  1 24  1  0
  1 25  1  0
  1 26  1  0
  2 27  1  0
  2 28  1  0
  3 29  1  0
  3 30  1  0
  4 31  1  0
  4 32  1  0
  5 33  1  0
  5 34  1  0
  7 35  1  0
  7 36  1  0
  8 37  1  0
  8 38  1  0
 12 39  1  0
 13 40  1  0
 14 41  1  0
 15 42  1  0
 19 43  1  0
 20 44  1  0
 21 45  1  0
 22 46  1  0
M  CHG  2   3   1  17  -1
M  END
>  <UniqueID>  (5) 
5

>  <SMILES>  (5) 
CC[NH2+]CCOCCN=c1c2ccccc2[n-]c2ccccc12

>  <Energy>  (5) 
65.20818630065341

>  <Genealogy>  (5) 
CC[NH2+]CCOCCN=c1c2ccccc2[n-]c2ccccc12 (protonated)
CC[NH2+]CCOCCN=c1c2ccccc2[n-]c2ccccc12 (3D coordinates assigned)
CC[NH2+]CCOCCN=c1c2ccccc2[n-]c2ccccc12 (optimized conformer: 65.20818630065341 kcal/mol)

>  <smiles>  (5) 
CCNCCOCCN=c1c2ccccc2[nH]c2ccccc12

>  <score_type>  (5) 
oracle

>  <origin>  (5) 
adg

>  <m_score__min__energy>  (5) 
-5.9400000000000004

>  <m_primary>  (5) 
energy

$$$$
5:0
     RDKit          3D

 77 80  0  0  0  0  0  0  0  0999 V2000
   63.1010   33.8490   46.7620 C   0  0  0  0  0  0  0  0  0  0  0  0
   62.9840   32.4580   47.3780 C   0  0  0  0  0  0  0  0  0  0  0  0
   62.7500   32.5850   48.8240 N   0  0  0  0  0  0  0  0  0  0  0  0
   63.5080   31.5900   49.6000 C   0  0  0  0  0  0  0  0  0  0  0  0
   62.6790   31.1290   50.7970 C   0  0  0  0  0  0  0  0  0  0  0  0
   61.3060   31.3330   50.5230 O   0  0  0  0  0  0  0  0  0  0  0  0
   60.6010   30.1040   50.4770 C   0  0  0  0  0  0  0  0  0  0  0  0
   60.1410   29.7570   49.0530 C   0  0  0  0  0  0  0  0  0  0  0  0
   60.6570   30.6840   48.0200 N   0  0  0  0  0  0  0  0  0  0  0  0
   59.7610   30.8020   46.8720 C   0  0  0  0  0  0  0  0  0  0  0  0
   59.4440   29.6530   46.0850 C   0  0  0  0  0  0  0  0  0  0  0  0
   59.9210   28.3540   46.4100 C   0  0  0  0  0  0  0  0  0  0  0  0
   59.6390   27.2520   45.6080 C   0  0  0  0  0  0  0  0  0  0  0  0
   58.8930   27.4050   44.4520 C   0  0  0  0  0  0  0  0  0  0  0  0
   58.3970   28.6560   44.1090 C   0  0  0  0  0  0  0  0  0  0  0  0
   58.6290   29.7950   44.9250 C   0  0  0  0  0  0  0  0  0  0  0  0
   58.1060   31.0210   44.5890 N   0  0  0  0  0  0  0  0  0  0  0  0
   57.0300   31.1110   43.5730 C   0  0  0  0  0  0  0  0  0  0  0  0
   58.5550   32.1640   45.2120 C   0  0  0  0  0  0  0  0  0  0  0  0
   58.3150   33.4360   44.6360 C   0  0  0  0  0  0  0  0  0  0  0  0
   58.6670   34.6030   45.2910 C   0  0  0  0  0  0  0  0  0  0  0  0
   59.2340   34.5450   46.5520 C   0  0  0  0  0  0  0  0  0  0  0  0
   59.5200   33.3090   47.1570 C   0  0  0  0  0  0  0  0  0  0  0  0
   59.9750   33.2810   48.4840 O   0  0  0  0  0  0  0  0  0  0  0  0
   59.1870   33.0990   49.6610 C   0  0  0  0  0  0  0  0  0  0  0  0
   59.8070   33.8640   50.8390 C   0  0  0  0  0  0  0  0  0  0  0  0
   58.8690   33.9200   52.0570 C   0  0  0  0  0  0  0  0  0  0  0  0
   59.2390   32.9120   53.1730 C   0  0  0  0  0  0  0  0  0  0  0  0
   58.1890   31.8830   53.3550 N   0  0  0  0  0  0  0  0  0  0  0  0
   57.0640   32.0710   52.4020 C   0  0  0  0  0  0  0  0  0  0  0  0
   57.1110   31.0570   51.2450 C   0  0  0  0  0  0  0  0  0  0  0  0
   57.0410   29.7050   51.6820 O   0  0  0  0  0  0  0  0  0  0  0  0
   57.6620   29.4830   52.9440 C   0  0  0  0  0  0  0  0  0  0  0  0
   58.7490   30.5130   53.2970 C   0  0  0  0  0  0  0  0  0  0  0  0
   59.2850   32.0880   46.4380 C   0  0  0  0  0  0  0  0  0  0  0  0
   63.1642   34.6005   47.5628 H   0  0  0  0  0  0  0  0  0  0  0  0
   64.0066   33.8994   46.1396 H   0  0  0  0  0  0  0  0  0  0  0  0
   62.2166   34.0499   46.1396 H   0  0  0  0  0  0  0  0  0  0  0  0
   62.1429   31.9209   46.9154 H   0  0  0  0  0  0  0  0  0  0  0  0
   63.9145   31.8981   47.2031 H   0  0  0  0  0  0  0  0  0  0  0  0
   61.7260   32.4370   48.9960 H   0  0  0  0  0  0  0  0  0  0  0  0
   63.7380   30.7254   48.9600 H   0  0  0  0  0  0  0  0  0  0  0  0
   64.4436   32.0441   49.9585 H   0  0  0  0  0  0  0  0  0  0  0  0
   62.8619   30.0599   50.9805 H   0  0  0  0  0  0  0  0  0  0  0  0
   62.9662   31.7069   51.6878 H   0  0  0  0  0  0  0  0  0  0  0  0
   61.2601   29.3027   50.8424 H   0  0  0  0  0  0  0  0  0  0  0  0
   59.7058   30.2022   51.1086 H   0  0  0  0  0  0  0  0  0  0  0  0
   60.4885   28.7412   48.8133 H   0  0  0  0  0  0  0  0  0  0  0  0
   59.0441   29.8384   49.0399 H   0  0  0  0  0  0  0  0  0  0  0  0
   60.8150   31.6280   48.4340 H   0  0  0  0  0  0  0  0  0  0  0  0
   61.6330   30.4420   47.7500 H   0  0  0  0  0  0  0  0  0  0  0  0
   60.5276   28.2164   47.3172 H   0  0  0  0  0  0  0  0  0  0  0  0
   60.0100   26.2566   45.8936 H   0  0  0  0  0  0  0  0  0  0  0  0
   58.6934   26.5372   43.8062 H   0  0  0  0  0  0  0  0  0  0  0  0
   57.8113   28.7672   43.1846 H   0  0  0  0  0  0  0  0  0  0  0  0
   56.0557   31.1925   44.0770 H   0  0  0  0  0  0  0  0  0  0  0  0
   57.1929   31.9987   42.9441 H   0  0  0  0  0  0  0  0  0  0  0  0
   57.0431   30.2086   42.9441 H   0  0  0  0  0  0  0  0  0  0  0  0
   57.8384   33.4972   43.6465 H   0  0  0  0  0  0  0  0  0  0  0  0
   58.4961   35.5770   44.8092 H   0  0  0  0  0  0  0  0  0  0  0  0
   59.4638   35.4779   47.0876 H   0  0  0  0  0  0  0  0  0  0  0  0
   58.1696   33.4754   49.4787 H   0  0  0  0  0  0  0  0  0  0  0  0
   59.1530   32.0275   49.9075 H   0  0  0  0  0  0  0  0  0  0  0  0
   60.7406   33.3628   51.1342 H   0  0  0  0  0  0  0  0  0  0  0  0
   59.9926   34.8969   50.5093 H   0  0  0  0  0  0  0  0  0  0  0  0
   58.9075   34.9351   52.4789 H   0  0  0  0  0  0  0  0  0  0  0  0
   57.8632   33.6519   51.7014 H   0  0  0  0  0  0  0  0  0  0  0  0
   60.1826   32.4143   52.9048 H   0  0  0  0  0  0  0  0  0  0  0  0
   59.3398   33.4683   54.1166 H   0  0  0  0  0  0  0  0  0  0  0  0
   56.1150   31.9469   52.9443 H   0  0  0  0  0  0  0  0  0  0  0  0
   57.1486   33.0801   51.9723 H   0  0  0  0  0  0  0  0  0  0  0  0
   56.2613   31.2521   50.5743 H   0  0  0  0  0  0  0  0  0  0  0  0
   58.0774   31.1865   50.7357 H   0  0  0  0  0  0  0  0  0  0  0  0
   56.8857   29.5190   53.7225 H   0  0  0  0  0  0  0  0  0  0  0  0
   58.1590   28.5034   52.8859 H   0  0  0  0  0  0  0  0  0  0  0  0
   59.1792   30.2593   54.2771 H   0  0  0  0  0  0  0  0  0  0  0  0
   59.5226   30.4853   52.5154 H   0  0  0  0  0  0  0  0  0  0  0  0
  1  2  1  0
  2  3  1  0
  3  4  1  0
  4  5  1  0
  5  6  1  0
  6  7  1  0
  7  8  1  0
  8  9  1  0
  9 10  1  0
 10 11  2  0
 11 12  1  0
 12 13  2  0
 13 14  1  0
 14 15  2  0
 15 16  1  0
 16 17  2  0
 17 18  1  0
 17 19  1  0
 19 20  2  0
 20 21  1  0
 21 22  2  0
 22 23  1  0
 23 24  1  0
 24 25  1  0
 25 26  1  0
 26 27  1  0
 27 28  1  0
 28 29  1  0
 29 30  1  0
 30 31  1  0
 31 32  1  0
 32 33  1  0
 33 34  1  0
 23 35  2  0
 35 10  1  0
 16 11  1  0
 35 19  1  0
 34 29  1  0
  1 36  1  0
  1 37  1  0
  1 38  1  0
  2 39  1  0
  2 40  1  0
  3 41  1  0
  4 42  1  0
  4 43  1  0
  5 44  1  0
  5 45  1  0
  7 46  1  0
  7 47  1  0
  8 48  1  0
  8 49  1  0
  9 50  1  0
  9 51  1  0
 12 52  1  0
 13 53  1  0
 14 54  1  0
 15 55  1  0
 18 56  1  0
 18 57  1  0
 18 58  1  0
 20 59  1  0
 21 60  1  0
 22 61  1  0
 25 62  1  0
 25 63  1  0
 26 64  1  0
 26 65  1  0
 27 66  1  0
 27 67  1  0
 28 68  1  0
 28 69  1  0
 30 70  1  0
 30 71  1  0
 31 72  1  0
 31 73  1  0
 33 74  1  0
 33 75  1  0
 34 76  1  0
 34 77  1  0
M  CHG  2   9   1  17   1
M  END
>  <UniqueID>  (6) 
6

>  <SMILES>  (6) 
CCNCCOCC[NH2+]c1c2ccccc2[n+](C)c2cccc(OCCCCN3CCOCC3)c12

>  <Energy>  (6) 
127.26339676200428

>  <Genealogy>  (6) 
CCNCCOCC[NH2+]c1c2ccccc2[n+](C)c2cccc(OCCCCN3CCOCC3)c12 (protonated)
CCNCCOCC[NH2+]c1c2ccccc2[n+](C)c2cccc(OCCCCN3CCOCC3)c12 (3D coordinates assigned)
CCNCCOCC[NH2+]c1c2ccccc2[n+](C)c2cccc(OCCCCN3CCOCC3)c12 (nonaromatic ring conformer: 127.26339676200428 kcal/mol)

>  <smiles>  (6) 
CCNCCOCCNc1c2ccccc2[n+](C)c2cccc(OCCCCN3CCOCC3)c12

>  <score_type>  (6) 
oracle

>  <origin>  (6) 
adg

>  <m_score__min__energy>  (6) 
-4.2000000000000002

>  <m_primary>  (6) 
energy

$$$$
6:0
     RDKit          3D

 41 42  0  0  0  0  0  0  0  0999 V2000
   59.3640   31.5150   47.0420 C   0  0  0  0  0  0  0  0  0  0  0  0
   58.3380   31.1460   46.0070 C   0  0  0  0  0  0  0  0  0  0  0  0
   57.7340   29.8760   46.0410 C   0  0  0  0  0  0  0  0  0  0  0  0
   56.7790   29.5050   45.0820 C   0  0  0  0  0  0  0  0  0  0  0  0
   56.1850   28.1940   45.1570 N   0  0  0  0  0  0  0  0  0  0  0  0
   56.9060   26.9720   45.5190 C   0  0  0  0  0  0  0  0  0  0  0  0
   56.0300   26.0300   46.3560 C   0  0  0  0  0  0  0  0  0  0  0  0
   54.7010   25.8400   45.7480 N   0  0  0  0  0  0  0  0  0  0  0  0
   54.3060   24.4250   45.6580 C   0  0  0  0  0  0  0  0  0  0  0  0
   55.4080   23.5970   45.0330 C   0  0  0  0  0  0  0  0  0  0  0  0
   55.5450   23.6300   43.6340 C   0  0  0  0  0  0  0  0  0  0  0  0
   56.5490   22.8990   42.9980 C   0  0  0  0  0  0  0  0  0  0  0  0
   57.4250   22.1180   43.7490 C   0  0  0  0  0  0  0  0  0  0  0  0
   57.3010   22.0630   45.1380 C   0  0  0  0  0  0  0  0  0  0  0  0
   56.2970   22.7960   45.7970 C   0  0  0  0  0  0  0  0  0  0  0  0
   56.2000   22.7090   47.2980 C   0  0  0  0  0  0  0  0  0  0  0  0
   56.4160   30.4300   44.0870 C   0  0  0  0  0  0  0  0  0  0  0  0
   57.0110   31.6930   44.0470 C   0  0  0  0  0  0  0  0  0  0  0  0
   57.9690   32.0570   44.9970 C   0  0  0  0  0  0  0  0  0  0  0  0
   58.7460   33.8070   44.8810 Br  0  0  0  0  0  0  0  0  0  0  0  0
   58.9424   31.3634   48.0466 H   0  0  0  0  0  0  0  0  0  0  0  0
   60.2541   30.8807   46.9184 H   0  0  0  0  0  0  0  0  0  0  0  0
   59.6462   32.5710   46.9184 H   0  0  0  0  0  0  0  0  0  0  0  0
   58.0143   29.1634   46.8307 H   0  0  0  0  0  0  0  0  0  0  0  0
   55.1610   28.1040   44.9700 H   0  0  0  0  0  0  0  0  0  0  0  0
   57.2128   26.4522   44.5994 H   0  0  0  0  0  0  0  0  0  0  0  0
   57.7829   27.2536   46.1204 H   0  0  0  0  0  0  0  0  0  0  0  0
   56.5297   25.0531   46.4338 H   0  0  0  0  0  0  0  0  0  0  0  0
   55.8919   26.4815   47.3495 H   0  0  0  0  0  0  0  0  0  0  0  0
   54.0030   26.3140   46.3700 H   0  0  0  0  0  0  0  0  0  0  0  0
   54.0978   24.0439   46.6687 H   0  0  0  0  0  0  0  0  0  0  0  0
   53.4080   24.3495   45.0273 H   0  0  0  0  0  0  0  0  0  0  0  0
   54.8528   24.2390   43.0341 H   0  0  0  0  0  0  0  0  0  0  0  0
   56.6490   22.9393   41.9033 H   0  0  0  0  0  0  0  0  0  0  0  0
   58.2164   21.5432   43.2458 H   0  0  0  0  0  0  0  0  0  0  0  0
   57.9945   21.4409   45.7229 H   0  0  0  0  0  0  0  0  0  0  0  0
   56.9456   23.3777   47.7530 H   0  0  0  0  0  0  0  0  0  0  0  0
   55.1921   23.0115   47.6184 H   0  0  0  0  0  0  0  0  0  0  0  0
   56.3915   21.6743   47.6184 H   0  0  0  0  0  0  0  0  0  0  0  0
   55.6596   30.1575   43.3363 H   0  0  0  0  0  0  0  0  0  0  0  0
   56.7231   32.4070   43.2613 H   0  0  0  0  0  0  0  0  0  0  0  0
  1  2  1  0
  2  3  2  0
  3  4  1  0
  4  5  1  0
  5  6  1  0
  6  7  1  0
  7  8  1  0
  8  9  1  0
  9 10  1  0
 10 11  2  0
 11 12  1  0
 12 13  2  0
 13 14  1  0
 14 15  2  0
 15 16  1  0
  4 17  2  0
 17 18  1  0
 18 19  2  0
 19 20  1  0
 19  2  1  0
 15 10  1  0
  1 21  1  0
  1 22  1  0
  1 23  1  0
  3 24  1  0
  5 25  1  0
  6 26  1  0
  6 27  1  0
  7 28  1  0
  7 29  1  0
  8 30  1  0
  9 31  1  0
  9 32  1  0
 11 33  1  0
 12 34  1  0
 13 35  1  0
 14 36  1  0
 16 37  1  0
 16 38  1  0
 16 39  1  0
 17 40  1  0
 18 41  1  0
M  END
>  <UniqueID>  (7) 
7

>  <SMILES>  (7) 
Cc1cc(NCCNCc2ccccc2C)ccc1Br

>  <Energy>  (7) 
40.37929087967257

>  <Genealogy>  (7) 
Cc1cc(NCCNCc2ccccc2C)ccc1Br (3D coordinates assigned)
Cc1cc(NCCNCc2ccccc2C)ccc1Br (optimized conformer: 40.37929087967257 kcal/mol)

>  <smiles>  (7) 
Cc1cc(NCCNCc2ccccc2C)ccc1Br

>  <score_type>  (7) 
oracle

>  <origin>  (7) 
adg

>  <m_score__min__energy>  (7) 
-7.6600000000000001

>  <m_primary>  (7) 
energy

$$$$
7:0
     RDKit          3D

 54 54  0  0  0  0  0  0  0  0999 V2000
   59.9360   30.2310   49.5420 C   0  0  0  0  0  0  0  0  0  0  0  0
   58.5570   30.3470   48.9020 C   0  0  0  0  0  0  0  0  0  0  0  0
   58.5960   29.8860   47.5640 O   0  0  0  0  0  0  0  0  0  0  0  0
   59.8690   29.3600   47.2580 C   0  0  0  0  0  0  0  0  0  0  0  0
   60.3080   29.8740   45.8880 C   0  0  0  0  0  0  0  0  0  0  0  0
   59.2560   29.7330   44.9510 O   0  0  0  0  0  0  0  0  0  0  0  0
   58.9260   28.3700   44.7740 C   0  0  0  0  0  0  0  0  0  0  0  0
   57.4010   28.2090   44.6930 C   0  0  0  0  0  0  0  0  0  0  0  0
   56.6620   29.3580   45.2430 N   0  0  0  0  0  0  0  0  0  0  0  0
   55.9490   30.1170   44.2090 C   0  0  0  0  0  0  0  0  0  0  0  0
   56.9540   30.9040   43.3590 C   0  0  0  0  0  0  0  0  0  0  0  0
   57.5770   32.0860   44.1320 C   0  0  0  0  0  0  0  0  0  0  0  0
   57.3820   31.9730   45.5880 N   0  0  0  0  0  0  0  0  0  0  0  0
   57.7750   33.1650   46.3650 C   0  0  0  0  0  0  0  0  0  0  0  0
   59.2300   33.1290   46.9030 C   0  0  0  0  0  0  0  0  0  0  0  0
   59.3270   33.6460   48.3630 C   0  0  0  0  0  0  0  0  0  0  0  0
   60.7150   34.2150   48.7270 C   0  0  0  0  0  0  0  0  0  0  0  0
   61.8300   33.5650   47.9030 C   0  0  0  0  0  0  0  0  0  0  0  0
   61.6360   33.8110   46.3940 C   0  0  0  0  0  0  0  0  0  0  0  0
   60.1560   33.9410   45.9780 C   0  0  0  0  0  0  0  0  0  0  0  0
   59.8338   30.2396   50.6372 H   0  0  0  0  0  0  0  0  0  0  0  0
   60.4092   29.2899   49.2253 H   0  0  0  0  0  0  0  0  0  0  0  0
   60.5598   31.0798   49.2253 H   0  0  0  0  0  0  0  0  0  0  0  0
   57.8393   29.7406   49.4740 H   0  0  0  0  0  0  0  0  0  0  0  0
   58.2474   31.4025   48.9079 H   0  0  0  0  0  0  0  0  0  0  0  0
   60.5932   29.6814   48.0211 H   0  0  0  0  0  0  0  0  0  0  0  0
   59.8213   28.2611   47.2429 H   0  0  0  0  0  0  0  0  0  0  0  0
   60.5817   30.9363   45.9694 H   0  0  0  0  0  0  0  0  0  0  0  0
   61.1734   29.2875   45.5459 H   0  0  0  0  0  0  0  0  0  0  0  0
   59.3818   28.0021   43.8429 H   0  0  0  0  0  0  0  0  0  0  0  0
   59.3070   27.7908   45.6280 H   0  0  0  0  0  0  0  0  0  0  0  0
   57.1189   28.0860   43.6369 H   0  0  0  0  0  0  0  0  0  0  0  0
   57.1343   27.3308   45.2993 H   0  0  0  0  0  0  0  0  0  0  0  0
   57.3280   29.9960   45.7390 H   0  0  0  0  0  0  0  0  0  0  0  0
   55.3908   29.4217   43.5648 H   0  0  0  0  0  0  0  0  0  0  0  0
   55.2504   30.8182   44.6889 H   0  0  0  0  0  0  0  0  0  0  0  0
   57.7591   30.2242   43.0435 H   0  0  0  0  0  0  0  0  0  0  0  0
   56.4133   31.3156   42.4940 H   0  0  0  0  0  0  0  0  0  0  0  0
   58.6563   32.1153   43.9218 H   0  0  0  0  0  0  0  0  0  0  0  0
   57.0749   33.0059   43.7978 H   0  0  0  0  0  0  0  0  0  0  0  0
   57.9110   31.1400   45.9340 H   0  0  0  0  0  0  0  0  0  0  0  0
   57.6695   34.0479   45.7174 H   0  0  0  0  0  0  0  0  0  0  0  0
   57.1158   33.1972   47.2450 H   0  0  0  0  0  0  0  0  0  0  0  0
   59.5558   32.0784   46.9107 H   0  0  0  0  0  0  0  0  0  0  0  0
   58.5786   34.4403   48.5009 H   0  0  0  0  0  0  0  0  0  0  0  0
   59.1491   32.7839   49.0226 H   0  0  0  0  0  0  0  0  0  0  0  0
   60.7168   35.2984   48.5365 H   0  0  0  0  0  0  0  0  0  0  0  0
   60.9049   34.0000   49.7889 H   0  0  0  0  0  0  0  0  0  0  0  0
   62.7966   33.9891   48.2126 H   0  0  0  0  0  0  0  0  0  0  0  0
   61.8024   32.4799   48.0815 H   0  0  0  0  0  0  0  0  0  0  0  0
   62.1571   34.7410   46.1228 H   0  0  0  0  0  0  0  0  0  0  0  0
   62.0448   32.9358   45.8678 H   0  0  0  0  0  0  0  0  0  0  0  0
   59.8648   35.0008   46.0235 H   0  0  0  0  0  0  0  0  0  0  0  0
   60.0513   33.5465   44.9565 H   0  0  0  0  0  0  0  0  0  0  0  0
  1  2  1  0
  2  3  1  0
  3  4  1  0
  4  5  1  0
  5  6  1  0
  6  7  1  0
  7  8  1  0
  8  9  1  0
  9 10  1  0
 10 11  1  0
 11 12  1  0
 12 13  1  0
 13 14  1  0
 14 15  1  0
 15 16  1  0
 16 17  1  0
 17 18  1  0
 18 19  1  0
 19 20  1  0
 20 15  1  0
  1 21  1  0
  1 22  1  0
  1 23  1  0
  2 24  1  0
  2 25  1  0
  4 26  1  0
  4 27  1  0
  5 28  1  0
  5 29  1  0
  7 30  1  0
  7 31  1  0
  8 32  1  0
  8 33  1  0
  9 34  1  0
 10 35  1  0
 10 36  1  0
 11 37  1  0
 11 38  1  0
 12 39  1  0
 12 40  1  0
 13 41  1  0
 14 42  1  0
 14 43  1  0
 15 44  1  0
 16 45  1  0
 16 46  1  0
 17 47  1  0
 17 48  1  0
 18 49  1  0
 18 50  1  0
 19 51  1  0
 19 52  1  0
 20 53  1  0
 20 54  1  0
M  END
>  <UniqueID>  (8) 
8

>  <SMILES>  (8) 
CCOCCOCCNCCCNCC1CCCCC1

>  <Energy>  (8) 
48.50300273130537

>  <Genealogy>  (8) 
CCOCCOCCNCCCNCC1CCCCC1 (3D coordinates assigned)
CCOCCOCCNCCCNCC1CCCCC1 (nonaromatic ring conformer: 48.50300273130537 kcal/mol)

>  <smiles>  (8) 
CCOCCOCCNCCCNCC1CCCCC1

>  <score_type>  (8) 
oracle

>  <origin>  (8) 
adg

>  <m_score__min__energy>  (8) 
-5.54

>  <m_primary>  (8) 
energy

$$$$
8:0
     RDKit          3D

 71 74  0  0  0  0  0  0  0  0999 V2000
   63.7230   30.5860   51.4480 C   0  0  0  0  0  0  0  0  0  0  0  0
   63.8740   31.5680   50.2930 C   0  0  0  0  0  0  0  0  0  0  0  0
   62.9480   32.6960   50.4700 N   0  0  0  0  0  0  0  0  0  0  0  0
   63.3060   33.8420   49.6170 C   0  0  0  0  0  0  0  0  0  0  0  0
   63.8640   33.4060   48.2510 C   0  0  0  0  0  0  0  0  0  0  0  0
   62.8080   32.6340   47.4460 C   0  0  0  0  0  0  0  0  0  0  0  0
   61.5900   32.4070   48.2520 N   0  0  0  0  0  0  0  0  0  0  0  0
   60.4490   32.0330   47.4260 C   0  0  0  0  0  0  0  0  0  0  0  0
   59.8490   33.0140   46.5840 C   0  0  0  0  0  0  0  0  0  0  0  0
   60.2270   34.3820   46.6480 C   0  0  0  0  0  0  0  0  0  0  0  0
   59.6520   35.3320   45.8100 C   0  0  0  0  0  0  0  0  0  0  0  0
   58.7060   34.9510   44.8720 C   0  0  0  0  0  0  0  0  0  0  0  0
   58.3210   33.6190   44.7740 C   0  0  0  0  0  0  0  0  0  0  0  0
   58.8590   32.6280   45.6390 C   0  0  0  0  0  0  0  0  0  0  0  0
   58.4750   31.3090   45.5360 N   0  0  0  0  0  0  0  0  0  0  0  0
   57.2820   30.9490   44.7350 C   0  0  0  0  0  0  0  0  0  0  0  0
   59.1750   30.3280   46.2010 C   0  0  0  0  0  0  0  0  0  0  0  0
   59.0570   28.9710   45.8190 C   0  0  0  0  0  0  0  0  0  0  0  0
   59.6780   27.9630   46.5390 C   0  0  0  0  0  0  0  0  0  0  0  0
   60.3770   28.2690   47.6940 C   0  0  0  0  0  0  0  0  0  0  0  0
   60.5360   29.5990   48.1020 C   0  0  0  0  0  0  0  0  0  0  0  0
   60.9770   29.8220   49.4470 N   0  0  0  0  0  0  0  0  0  0  0  0
   61.0050   28.7630   50.4540 C   0  0  0  0  0  0  0  0  0  0  0  0
   59.8890   28.9770   51.4840 C   0  0  0  0  0  0  0  0  0  0  0  0
   58.6990   29.7350   50.8830 C   0  0  0  0  0  0  0  0  0  0  0  0
   58.3490   30.9080   51.7190 N   0  0  0  0  0  0  0  0  0  0  0  0
   59.4850   31.3700   52.5520 C   0  0  0  0  0  0  0  0  0  0  0  0
   60.3250   32.4590   51.8510 C   0  0  0  0  0  0  0  0  0  0  0  0
   60.2120   32.3500   50.4470 O   0  0  0  0  0  0  0  0  0  0  0  0
   58.8940   32.6800   50.0390 C   0  0  0  0  0  0  0  0  0  0  0  0
   57.8030   32.0190   50.9160 C   0  0  0  0  0  0  0  0  0  0  0  0
   60.0530   30.6640   47.2750 C   0  0  0  0  0  0  0  0  0  0  0  0
   63.8062   31.1268   52.4023 H   0  0  0  0  0  0  0  0  0  0  0  0
   62.7392   30.0976   51.3878 H   0  0  0  0  0  0  0  0  0  0  0  0
   64.5146   29.8246   51.3878 H   0  0  0  0  0  0  0  0  0  0  0  0
   64.9071   31.9449   50.2676 H   0  0  0  0  0  0  0  0  0  0  0  0
   63.6419   31.0541   49.3485 H   0  0  0  0  0  0  0  0  0  0  0  0
   61.9740   32.3810   50.2450 H   0  0  0  0  0  0  0  0  0  0  0  0
   62.4069   34.4539   49.4521 H   0  0  0  0  0  0  0  0  0  0  0  0
   64.0925   34.4115   50.1338 H   0  0  0  0  0  0  0  0  0  0  0  0
   64.1664   34.2990   47.6843 H   0  0  0  0  0  0  0  0  0  0  0  0
   64.7276   32.7459   48.4197 H   0  0  0  0  0  0  0  0  0  0  0  0
   62.5435   33.2144   46.5498 H   0  0  0  0  0  0  0  0  0  0  0  0
   63.2279   31.6577   47.1623 H   0  0  0  0  0  0  0  0  0  0  0  0
   61.7530   31.6560   48.9600 H   0  0  0  0  0  0  0  0  0  0  0  0
   61.3910   33.2370   48.8470 H   0  0  0  0  0  0  0  0  0  0  0  0
   60.9901   34.6965   47.3752 H   0  0  0  0  0  0  0  0  0  0  0  0
   59.9490   36.3879   45.8922 H   0  0  0  0  0  0  0  0  0  0  0  0
   58.2595   35.7029   44.2047 H   0  0  0  0  0  0  0  0  0  0  0  0
   57.5847   33.3259   44.0112 H   0  0  0  0  0  0  0  0  0  0  0  0
   56.4499   30.6979   45.4091 H   0  0  0  0  0  0  0  0  0  0  0  0
   56.9957   31.8007   44.1005 H   0  0  0  0  0  0  0  0  0  0  0  0
   57.5146   30.0810   44.1005 H   0  0  0  0  0  0  0  0  0  0  0  0
   58.4602   28.7107   44.9324 H   0  0  0  0  0  0  0  0  0  0  0  0
   59.6156   26.9207   46.1931 H   0  0  0  0  0  0  0  0  0  0  0  0
   60.8121   27.4588   48.2976 H   0  0  0  0  0  0  0  0  0  0  0  0
   61.1270   30.8090   49.7530 H   0  0  0  0  0  0  0  0  0  0  0  0
   60.8620   27.7900   49.9612 H   0  0  0  0  0  0  0  0  0  0  0  0
   61.9764   28.7857   50.9696 H   0  0  0  0  0  0  0  0  0  0  0  0
   59.5425   27.9966   51.8428 H   0  0  0  0  0  0  0  0  0  0  0  0
   60.2961   29.5783   52.3103 H   0  0  0  0  0  0  0  0  0  0  0  0
   58.9629   30.0781   49.8717 H   0  0  0  0  0  0  0  0  0  0  0  0
   57.8326   29.0584   50.8424 H   0  0  0  0  0  0  0  0  0  0  0  0
   59.0892   31.7803   53.4927 H   0  0  0  0  0  0  0  0  0  0  0  0
   60.1409   30.5057   52.7332 H   0  0  0  0  0  0  0  0  0  0  0  0
   59.9668   33.4501   52.1663 H   0  0  0  0  0  0  0  0  0  0  0  0
   61.3803   32.3274   52.1322 H   0  0  0  0  0  0  0  0  0  0  0  0
   58.7735   33.7720   50.0944 H   0  0  0  0  0  0  0  0  0  0  0  0
   58.7639   32.3025   49.0140 H   0  0  0  0  0  0  0  0  0  0  0  0
   57.3830   32.7765   51.5941 H   0  0  0  0  0  0  0  0  0  0  0  0
   57.0269   31.6128   50.2506 H   0  0  0  0  0  0  0  0  0  0  0  0
  1  2  1  0
  2  3  1  0
  3  4  1  0
  4  5  1  0
  5  6  1  0
  6  7  1  0
  7  8  1  0
  8  9  2  0
  9 10  1  0
 10 11  2  0
 11 12  1  0
 12 13  2  0
 13 14  1  0
 14 15  2  0
 15 16  1  0
 15 17  1  0
 17 18  2  0
 18 19  1  0
 19 20  2  0
 20 21  1  0
 21 22  1  0
 22 23  1  0
 23 24  1  0
 24 25  1  0
 25 26  1  0
 26 27  1  0
 27 28  1  0
 28 29  1  0
 29 30  1  0
 30 31  1  0
 21 32  2  0
 32  8  1  0
 14  9  1  0
 32 17  1  0
 31 26  1  0
  1 33  1  0
  1 34  1  0
  1 35  1  0
  2 36  1  0
  2 37  1  0
  3 38  1  0
  4 39  1  0
  4 40  1  0
  5 41  1  0
  5 42  1  0
  6 43  1  0
  6 44  1  0
  7 45  1  0
  7 46  1  0
 10 47  1  0
 11 48  1  0
 12 49  1  0
 13 50  1  0
 16 51  1  0
 16 52  1  0
 16 53  1  0
 18 54  1  0
 19 55  1  0
 20 56  1  0
 22 57  1  0
 23 58  1  0
 23 59  1  0
 24 60  1  0
 24 61  1  0
 25 62  1  0
 25 63  1  0
 27 64  1  0
 27 65  1  0
 28 66  1  0
 28 67  1  0
 30 68  1  0
 30 69  1  0
 31 70  1  0
 31 71  1  0
M  CHG  2   7   1  15   1
M  END
>  <UniqueID>  (9) 
9

>  <SMILES>  (9) 
CCNCCC[NH2+]c1c2ccccc2[n+](C)c2cccc(NCCCN3CCOCC3)c12

>  <Energy>  (9) 
118.04209896697465

>  <Genealogy>  (9) 
CCNCCC[NH2+]c1c2ccccc2[n+](C)c2cccc(NCCCN3CCOCC3)c12 (protonated)
CCNCCC[NH2+]c1c2ccccc2[n+](C)c2cccc(NCCCN3CCOCC3)c12 (3D coordinates assigned)
CCNCCC[NH2+]c1c2ccccc2[n+](C)c2cccc(NCCCN3CCOCC3)c12 (nonaromatic ring conformer: 118.04209896697465 kcal/mol)

>  <smiles>  (9) 
CCNCCCNc1c2ccccc2[n+](C)c2cccc(NCCCN3CCOCC3)c12

>  <score_type>  (9) 
oracle

>  <origin>  (9) 
adg

>  <m_score__min__energy>  (9) 
-4.4400000000000004

>  <m_primary>  (9) 
energy

$$$$
9:0
     RDKit          3D

 41 43  0  0  0  0  0  0  0  0999 V2000
   58.1270   34.5880   44.8790 C   0  0  0  0  0  0  0  0  0  0  0  0
   58.9360   33.7340   45.8630 C   0  0  1  0  0  0  0  0  0  0  0  0
   58.5410   34.0460   47.3280 C   0  0  0  0  0  0  0  0  0  0  0  0
   58.9120   32.9200   48.3160 C   0  0  0  0  0  0  0  0  0  0  0  0
   60.0770   32.0700   47.8060 C   0  0  0  0  0  0  0  0  0  0  0  0
   59.7340   31.3830   46.4690 C   0  0  0  0  0  0  0  0  0  0  0  0
   58.8130   32.2250   45.5460 C   0  0  1  0  0  0  0  0  0  0  0  0
   57.4150   31.7990   45.7110 N   0  0  0  0  0  0  0  0  0  0  0  0
   56.9690   30.6050   44.5280 S   0  0  0  0  0  0  0  0  0  0  0  0
   57.4750   31.0210   43.1740 O   0  0  0  0  0  0  0  0  0  0  0  0
   55.4710   30.5120   44.4650 O   0  0  0  0  0  0  0  0  0  0  0  0
   57.6290   29.0310   44.9610 C   0  0  0  0  0  0  0  0  0  0  0  0
   59.0130   28.7840   44.8020 C   0  0  0  0  0  0  0  0  0  0  0  0
   59.5510   27.5240   45.1020 C   0  0  0  0  0  0  0  0  0  0  0  0
   58.6820   26.5370   45.5550 C   0  0  0  0  0  0  0  0  0  0  0  0
   58.9830   24.9490   45.9740 S   0  0  0  0  0  0  0  0  0  0  0  0
   57.4240   24.5190   46.3790 N   0  0  0  0  0  0  0  0  0  0  0  0
   56.9870   23.1850   46.7700 C   0  0  0  0  0  0  0  0  0  0  0  0
   56.6350   25.6080   46.1670 C   0  0  0  0  0  0  0  0  0  0  0  0
   55.3890   25.5840   46.3580 O   0  0  0  0  0  0  0  0  0  0  0  0
   57.3210   26.7540   45.7150 C   0  0  0  0  0  0  0  0  0  0  0  0
   56.7750   28.0060   45.4190 C   0  0  0  0  0  0  0  0  0  0  0  0
   57.4760   35.2752   45.4392 H   0  0  0  0  0  0  0  0  0  0  0  0
   58.8144   35.1683   44.2460 H   0  0  0  0  0  0  0  0  0  0  0  0
   57.5104   33.9330   44.2460 H   0  0  0  0  0  0  0  0  0  0  0  0
   59.9961   34.0012   45.7410 H   0  0  0  0  0  0  0  0  0  0  0  0
   59.0560   34.9668   47.6394 H   0  0  0  0  0  0  0  0  0  0  0  0
   57.4465   34.1527   47.3535 H   0  0  0  0  0  0  0  0  0  0  0  0
   59.1963   33.3713   49.2781 H   0  0  0  0  0  0  0  0  0  0  0  0
   58.0362   32.2638   48.4272 H   0  0  0  0  0  0  0  0  0  0  0  0
   60.9544   32.7172   47.6603 H   0  0  0  0  0  0  0  0  0  0  0  0
   60.2856   31.2885   48.5515 H   0  0  0  0  0  0  0  0  0  0  0  0
   60.6728   31.1830   45.9318 H   0  0  0  0  0  0  0  0  0  0  0  0
   59.1834   30.4631   46.7153 H   0  0  0  0  0  0  0  0  0  0  0  0
   59.1299   32.0613   44.5054 H   0  0  0  0  0  0  0  0  0  0  0  0
   59.6724   29.5867   44.4402 H   0  0  0  0  0  0  0  0  0  0  0  0
   60.6259   27.3228   44.9828 H   0  0  0  0  0  0  0  0  0  0  0  0
   56.9637   23.1138   47.8674 H   0  0  0  0  0  0  0  0  0  0  0  0
   55.9802   22.9967   46.3689 H   0  0  0  0  0  0  0  0  0  0  0  0
   57.6872   22.4375   46.3689 H   0  0  0  0  0  0  0  0  0  0  0  0
   55.6972   28.1890   45.5412 H   0  0  0  0  0  0  0  0  0  0  0  0
  1  2  1  0
  2  3  1  0
  3  4  1  0
  4  5  1  0
  5  6  1  0
  6  7  1  0
  7  8  1  0
  8  9  1  0
  9 10  2  0
  9 11  2  0
  9 12  1  0
 12 13  2  0
 13 14  1  0
 14 15  2  0
 15 16  1  0
 16 17  1  0
 17 18  1  0
 17 19  1  0
 19 20  2  0
 19 21  1  0
 21 22  2  0
  7  2  1  0
 22 12  1  0
 21 15  1  0
  1 23  1  0
  1 24  1  0
  1 25  1  0
  2 26  1  1
  3 27  1  0
  3 28  1  0
  4 29  1  0
  4 30  1  0
  5 31  1  0
  5 32  1  0
  6 33  1  0
  6 34  1  0
  7 35  1  6
 13 36  1  0
 14 37  1  0
 18 38  1  0
 18 39  1  0
 18 40  1  0
 22 41  1  0
M  CHG  1   8  -1
M  END
>  <UniqueID>  (10) 
10

>  <SMILES>  (10) 
C[C@H]1CCCC[C@H]1[N-]S(=O)(=O)c1ccc2sn(C)c(=O)c2c1

>  <Energy>  (10) 
80.73735017613313

>  <Genealogy>  (10) 
CC1CCCCC1[N-]S(=O)(=O)c1ccc2sn(C)c(=O)c2c1 (protonated)
C[C@H]1CCCC[C@H]1[N-]S(=O)(=O)c1ccc2sn(C)c(=O)c2c1 (chirality)
C[C@H]1CCCC[C@H]1[N-]S(=O)(=O)c1ccc2sn(C)c(=O)c2c1 (3D coordinates assigned)
C[C@H]1CCCC[C@H]1[N-]S(=O)(=O)c1ccc2sn(C)c(=O)c2c1 (nonaromatic ring conformer: 80.73735017613313 kcal/mol)

>  <smiles>  (10) 
CC1CCCCC1NS(=O)(=O)c1ccc2sn(C)c(=O)c2c1

>  <score_type>  (10) 
oracle

>  <origin>  (10) 
adg

>  <m_score__min__energy>  (10) 
-9.9000000000000004

>  <m_primary>  (10) 
energy

$$$$
10:0
     RDKit          3D

 31 33  0  0  1  0  0  0  0  0999 V2000
   57.4160   32.0890   42.0420 C   0  0  0  0  0  0  0  0  0  0  0  0
   57.7190   31.7980   43.4490 N   0  0  0  0  0  0  0  0  0  0  0  0
   57.0250   29.4080   43.5940 C   0  0  0  0  0  0  0  0  0  0  0  0
   58.5150   33.8610   44.0300 O   0  0  0  0  0  0  0  0  0  0  0  0
   58.3710   32.0380   45.5180 N   0  0  0  0  0  0  0  0  0  0  0  0
   58.9000   32.7050   46.6770 C   0  0  2  0  0  0  0  0  0  0  0  0
   58.1560   33.8900   47.1270 C   0  0  0  0  0  0  0  0  0  0  0  0
   59.2500   34.9080   47.4610 C   0  0  0  0  0  0  0  0  0  0  0  0
   60.3560   34.5960   46.5840 N   0  0  0  0  0  0  0  0  0  0  0  0
   60.3100   33.1720   46.3450 C   0  0  0  0  0  0  0  0  0  0  0  0
   57.9380   30.7830   45.3500 C   0  0  0  0  0  0  0  0  0  0  0  0
   57.8570   29.7610   46.1850 N   0  0  0  0  0  0  0  0  0  0  0  0
   57.3720   28.5840   45.7470 C   0  0  0  0  0  0  0  0  0  0  0  0
   57.3100   27.5630   46.6480 F   0  0  0  0  0  0  0  0  0  0  0  0
   56.9590   28.3930   44.4750 N   0  0  0  0  0  0  0  0  0  0  0  0
   58.2260   32.6530   44.3220 C   0  0  0  0  0  0  0  0  0  0  0  0
   56.6320   29.2250   42.3890 N   0  0  0  0  0  0  0  0  0  0  0  0
   57.5230   30.6130   44.0500 C   0  0  0  0  0  0  0  0  0  0  0  0
   56.6236   32.8500   41.9874 H   0  0  0  0  0  0  0  0  0  0  0  0
   58.3208   32.4653   41.5423 H   0  0  0  0  0  0  0  0  0  0  0  0
   57.0766   31.1697   41.5423 H   0  0  0  0  0  0  0  0  0  0  0  0
   58.8406   31.9683   47.4917 H   0  0  0  0  0  0  0  0  0  0  0  0
   57.5011   34.2675   46.3279 H   0  0  0  0  0  0  0  0  0  0  0  0
   57.4987   33.6779   47.9832 H   0  0  0  0  0  0  0  0  0  0  0  0
   58.8910   35.9312   47.2763 H   0  0  0  0  0  0  0  0  0  0  0  0
   59.5441   34.8551   48.5196 H   0  0  0  0  0  0  0  0  0  0  0  0
   60.3740   35.1730   45.7120 H   0  0  0  0  0  0  0  0  0  0  0  0
   60.5389   32.9593   45.2903 H   0  0  0  0  0  0  0  0  0  0  0  0
   61.0512   32.6478   46.9661 H   0  0  0  0  0  0  0  0  0  0  0  0
   56.5850   27.4460   44.1800 H   0  0  0  0  0  0  0  0  0  0  0  0
   55.6090   29.0980   42.2330 H   0  0  0  0  0  0  0  0  0  0  0  0
  1  2  1  0
  2  3  1  0
  3  4  2  0
  3  5  1  0
  5  6  1  0
  6  7  1  0
  7  8  1  0
  8  9  1  0
  9 10  1  0
  5 11  1  0
 11 12  1  0
 12 13  2  0
 13 14  1  0
 13 15  1  0
 15 16  1  0
 16 17  2  3
 16 18  1  0
 18  2  1  0
 10  6  1  0
 18 11  2  0
  1 19  1  0
  1 20  1  0
  1 21  1  0
  6 22  1  1
  7 23  1  0
  7 24  1  0
  8 25  1  0
  8 26  1  0
  9 27  1  0
 10 28  1  0
 10 29  1  0
 15 30  1  0
 17 31  1  0
M  END
>  <smiles>  (11) 
Cn1c(=O)n(C2CCNC2)c2nc(F)[nH]c(=N)c21

>  <score_type>  (11) 
oracle

>  <origin>  (11) 
adg

>  <m_score__min__energy>  (11) 
-5.9900000000000002

>  <m_primary>  (11) 
energy

$$$$
11:0
     RDKit          3D

 36 36  0  0  0  0  0  0  0  0999 V2000
   55.5260   23.9050   44.4430 C   0  0  0  0  0  0  0  0  0  0  0  0
   54.5640   24.5230   45.4450 C   0  0  0  0  0  0  0  0  0  0  0  0
   55.1640   25.6680   46.0150 O   0  0  0  0  0  0  0  0  0  0  0  0
   56.2930   25.2840   46.7690 C   0  0  0  0  0  0  0  0  0  0  0  0
   57.5010   26.1030   46.3270 C   0  0  0  0  0  0  0  0  0  0  0  0
   57.3060   26.5830   44.9510 N   0  0  0  0  0  0  0  0  0  0  0  0
   58.2830   27.6160   44.5750 C   0  0  0  0  0  0  0  0  0  0  0  0
   57.7650   28.5390   43.4630 C   0  0  0  0  0  0  0  0  0  0  0  0
   56.5540   29.6850   44.1020 S   0  0  0  0  0  0  0  0  0  0  0  0
   55.6070   30.0870   43.0050 O   0  0  0  0  0  0  0  0  0  0  0  0
   55.7680   29.0380   45.2070 O   0  0  0  0  0  0  0  0  0  0  0  0
   57.3830   31.1060   44.7290 C   0  0  0  0  0  0  0  0  0  0  0  0
   57.3960   32.3040   44.0000 C   0  0  0  0  0  0  0  0  0  0  0  0
   58.0690   33.4240   44.4990 C   0  0  0  0  0  0  0  0  0  0  0  0
   58.7360   33.3490   45.7270 C   0  0  0  0  0  0  0  0  0  0  0  0
   59.6570   34.8790   46.4070 Br  0  0  0  0  0  0  0  0  0  0  0  0
   58.7320   32.1540   46.4530 C   0  0  0  0  0  0  0  0  0  0  0  0
   58.0580   31.0350   45.9550 C   0  0  0  0  0  0  0  0  0  0  0  0
   56.3331   23.3865   44.9813 H   0  0  0  0  0  0  0  0  0  0  0  0
   54.9850   23.1850   43.8114 H   0  0  0  0  0  0  0  0  0  0  0  0
   55.9559   24.6963   43.8114 H   0  0  0  0  0  0  0  0  0  0  0  0
   53.6336   24.8105   44.9335 H   0  0  0  0  0  0  0  0  0  0  0  0
   54.3320   23.7936   46.2350 H   0  0  0  0  0  0  0  0  0  0  0  0
   56.0992   25.4632   47.8369 H   0  0  0  0  0  0  0  0  0  0  0  0
   56.4956   24.2149   46.6079 H   0  0  0  0  0  0  0  0  0  0  0  0
   57.6229   26.9647   46.9997 H   0  0  0  0  0  0  0  0  0  0  0  0
   58.4001   25.4703   46.3651 H   0  0  0  0  0  0  0  0  0  0  0  0
   56.3380   26.9730   44.8590 H   0  0  0  0  0  0  0  0  0  0  0  0
   58.5106   28.2256   45.4619 H   0  0  0  0  0  0  0  0  0  0  0  0
   59.1796   27.1049   44.1942 H   0  0  0  0  0  0  0  0  0  0  0  0
   58.6091   29.1044   43.0414 H   0  0  0  0  0  0  0  0  0  0  0  0
   57.2905   27.9221   42.6856 H   0  0  0  0  0  0  0  0  0  0  0  0
   56.8753   32.3630   43.0328 H   0  0  0  0  0  0  0  0  0  0  0  0
   58.0740   34.3633   43.9265 H   0  0  0  0  0  0  0  0  0  0  0  0
   59.2594   32.0943   47.4165 H   0  0  0  0  0  0  0  0  0  0  0  0
   58.0575   30.0957   46.5274 H   0  0  0  0  0  0  0  0  0  0  0  0
  1  2  1  0
  2  3  1  0
  3  4  1  0
  4  5  1  0
  5  6  1  0
  6  7  1  0
  7  8  1  0
  8  9  1  0
  9 10  2  0
  9 11  2  0
  9 12  1  0
 12 13  2  0
 13 14  1  0
 14 15  2  0
 15 16  1  0
 15 17  1  0
 17 18  2  0
 18 12  1  0
  1 19  1  0
  1 20  1  0
  1 21  1  0
  2 22  1  0
  2 23  1  0
  4 24  1  0
  4 25  1  0
  5 26  1  0
  5 27  1  0
  6 28  1  0
  7 29  1  0
  7 30  1  0
  8 31  1  0
  8 32  1  0
 13 33  1  0
 14 34  1  0
 17 35  1  0
 18 36  1  0
M  END
>  <UniqueID>  (12) 
11

>  <SMILES>  (12) 
CCOCCNCCS(=O)(=O)c1ccc(Br)cc1

>  <Energy>  (12) 
25.02751458174067

>  <Genealogy>  (12) 
CCOCCNCCS(=O)(=O)c1ccc(Br)cc1 (3D coordinates assigned)
CCOCCNCCS(=O)(=O)c1ccc(Br)cc1 (optimized conformer: 25.02751458174067 kcal/mol)

>  <smiles>  (12) 
CCOCCNCCS(=O)(=O)c1ccc(Br)cc1

>  <score_type>  (12) 
oracle

>  <origin>  (12) 
adg

>  <m_score__min__energy>  (12) 
-7.2800000000000002

>  <m_primary>  (12) 
energy

$$$$
12:0
     RDKit          3D

 50 52  0  0  0  0  0  0  0  0999 V2000
   56.0050   23.4100   43.4300 C   0  0  0  0  0  0  0  0  0  0  0  0
   57.3040   24.2240   43.4370 C   0  0  0  0  0  0  0  0  0  0  0  0
   57.0990   25.5990   43.9340 N   0  0  0  0  0  0  0  0  0  0  0  0
   58.2230   26.0920   44.7540 C   0  0  0  0  0  0  0  0  0  0  0  0
   58.8210   27.3960   44.1970 C   0  0  0  0  0  0  0  0  0  0  0  0
   57.7720   28.2120   43.5690 N   0  0  0  0  0  0  0  0  0  0  0  0
   57.0270   28.9920   44.5650 C   0  0  0  0  0  0  0  0  0  0  0  0
   57.5910   30.3970   44.6350 C   0  0  0  0  0  0  0  0  0  0  0  0
   57.2670   31.2990   43.6120 C   0  0  0  0  0  0  0  0  0  0  0  0
   57.7700   32.5920   43.6460 C   0  0  0  0  0  0  0  0  0  0  0  0
   58.4490   33.0390   44.7790 C   0  0  0  0  0  0  0  0  0  0  0  0
   58.9150   34.3580   44.8460 C   0  0  0  0  0  0  0  0  0  0  0  0
   59.5030   34.8370   46.0120 C   0  0  0  0  0  0  0  0  0  0  0  0
   59.5210   34.0440   47.1660 C   0  0  0  0  0  0  0  0  0  0  0  0
   59.9570   34.5940   48.3820 C   0  0  0  0  0  0  0  0  0  0  0  0
   59.8250   33.8700   49.5680 C   0  0  0  0  0  0  0  0  0  0  0  0
   59.2230   32.6130   49.5530 C   0  0  0  0  0  0  0  0  0  0  0  0
   58.8050   32.0470   48.3480 C   0  0  0  0  0  0  0  0  0  0  0  0
   59.0290   32.7110   47.1200 C   0  0  0  0  0  0  0  0  0  0  0  0
   58.6410   32.1510   45.8660 C   0  0  0  0  0  0  0  0  0  0  0  0
   58.4160   30.7990   45.6690 N   0  0  0  0  0  0  0  0  0  0  0  0
   59.3280   29.7920   46.2710 C   0  0  0  0  0  0  0  0  0  0  0  0
   58.6090   28.9990   47.3640 C   0  0  0  0  0  0  0  0  0  0  0  0
   55.6903   23.2128   44.4654 H   0  0  0  0  0  0  0  0  0  0  0  0
   55.2194   23.9776   42.9098 H   0  0  0  0  0  0  0  0  0  0  0  0
   56.1732   22.4555   42.9098 H   0  0  0  0  0  0  0  0  0  0  0  0
   58.0351   23.7186   44.0851 H   0  0  0  0  0  0  0  0  0  0  0  0
   57.6659   24.2905   42.4004 H   0  0  0  0  0  0  0  0  0  0  0  0
   56.9540   26.2370   43.1150 H   0  0  0  0  0  0  0  0  0  0  0  0
   56.2210   25.6400   44.5030 H   0  0  0  0  0  0  0  0  0  0  0  0
   57.8614   26.2765   45.7764 H   0  0  0  0  0  0  0  0  0  0  0  0
   59.0122   25.3259   44.7406 H   0  0  0  0  0  0  0  0  0  0  0  0
   59.2796   27.9649   45.0192 H   0  0  0  0  0  0  0  0  0  0  0  0
   59.5803   27.1467   43.4412 H   0  0  0  0  0  0  0  0  0  0  0  0
   58.2360   28.8910   42.9200 H   0  0  0  0  0  0  0  0  0  0  0  0
   55.9665   29.0371   44.2763 H   0  0  0  0  0  0  0  0  0  0  0  0
   57.1200   28.5112   45.5500 H   0  0  0  0  0  0  0  0  0  0  0  0
   56.6155   30.9826   42.7841 H   0  0  0  0  0  0  0  0  0  0  0  0
   57.6337   33.2609   42.7835 H   0  0  0  0  0  0  0  0  0  0  0  0
   58.8155   35.0186   43.9721 H   0  0  0  0  0  0  0  0  0  0  0  0
   59.9544   35.8400   46.0276 H   0  0  0  0  0  0  0  0  0  0  0  0
   60.4041   35.5989   48.4001 H   0  0  0  0  0  0  0  0  0  0  0  0
   60.1959   34.2912   50.5140 H   0  0  0  0  0  0  0  0  0  0  0  0
   59.0768   32.0647   50.4953 H   0  0  0  0  0  0  0  0  0  0  0  0
   58.2950   31.0724   48.3535 H   0  0  0  0  0  0  0  0  0  0  0  0
   59.6696   29.0996   45.4875 H   0  0  0  0  0  0  0  0  0  0  0  0
   60.1866   30.3141   46.7185 H   0  0  0  0  0  0  0  0  0  0  0  0
   58.9344   29.3579   48.3516 H   0  0  0  0  0  0  0  0  0  0  0  0
   57.5225   29.1378   47.2631 H   0  0  0  0  0  0  0  0  0  0  0  0
   58.8532   27.9312   47.2631 H   0  0  0  0  0  0  0  0  0  0  0  0
  1  2  1  0
  2  3  1  0
  3  4  1  0
  4  5  1  0
  5  6  1  0
  6  7  1  0
  7  8  1  0
  8  9  2  0
  9 10  1  0
 10 11  2  0
 11 12  1  0
 12 13  2  0
 13 14  1  0
 14 15  2  0
 15 16  1  0
 16 17  2  0
 17 18  1  0
 18 19  2  0
 19 20  1  0
 20 21  2  0
 21 22  1  0
 22 23  1  0
 21  8  1  0
 20 11  1  0
 19 14  1  0
  1 24  1  0
  1 25  1  0
  1 26  1  0
  2 27  1  0
  2 28  1  0
  3 29  1  0
  3 30  1  0
  4 31  1  0
  4 32  1  0
  5 33  1  0
  5 34  1  0
  6 35  1  0
  7 36  1  0
  7 37  1  0
  9 38  1  0
 10 39  1  0
 12 40  1  0
 13 41  1  0
 15 42  1  0
 16 43  1  0
 17 44  1  0
 18 45  1  0
 22 46  1  0
 22 47  1  0
 23 48  1  0
 23 49  1  0
 23 50  1  0
M  CHG  2   3   1  21   1
M  END
>  <UniqueID>  (13) 
12

>  <SMILES>  (13) 
CC[NH2+]CCNCc1ccc2ccc3ccccc3c2[n+]1CC

>  <Energy>  (13) 
79.97589285371187

>  <Genealogy>  (13) 
CC[NH2+]CCNCc1ccc2ccc3ccccc3c2[n+]1CC (protonated)
CC[NH2+]CCNCc1ccc2ccc3ccccc3c2[n+]1CC (3D coordinates assigned)
CC[NH2+]CCNCc1ccc2ccc3ccccc3c2[n+]1CC (optimized conformer: 79.97589285371187 kcal/mol)

>  <smiles>  (13) 
CCNCCNCc1ccc2ccc3ccccc3c2[n+]1CC

>  <score_type>  (13) 
oracle

>  <origin>  (13) 
adg

>  <m_score__min__energy>  (13) 
-4.8200000000000003

>  <m_primary>  (13) 
energy

$$$$
13:0
     RDKit          3D

 43 45  0  0  0  0  0  0  0  0999 V2000
   57.1220   21.4570   43.0220 C   0  0  0  0  0  0  0  0  0  0  0  0
   56.1590   22.5740   42.6370 C   0  0  0  0  0  0  0  0  0  0  0  0
   55.7350   23.2790   43.7900 O   0  0  0  0  0  0  0  0  0  0  0  0
   56.8400   23.7760   44.5210 C   0  0  0  0  0  0  0  0  0  0  0  0
   56.4260   24.9070   45.4270 C   0  0  0  0  0  0  0  0  0  0  0  0
   55.3810   24.7790   46.1230 O   0  0  0  0  0  0  0  0  0  0  0  0
   57.1790   26.1360   45.4960 N   0  0  0  0  0  0  0  0  0  0  0  0
   58.1440   26.4990   44.4440 C   0  0  0  0  0  0  0  0  0  0  0  0
   58.1430   28.0140   44.2040 C   0  0  0  0  0  0  0  0  0  0  0  0
   58.1930   28.7620   45.4670 N   0  0  0  0  0  0  0  0  0  0  0  0
   58.1840   30.1960   45.4380 C   0  0  0  0  0  0  0  0  0  0  0  0
   59.2250   30.8790   45.9860 N   0  0  0  0  0  0  0  0  0  0  0  0
   59.2620   32.2370   45.9810 C   0  0  0  0  0  0  0  0  0  0  0  0
   60.3360   32.9250   46.5550 C   0  0  0  0  0  0  0  0  0  0  0  0
   60.3540   34.3250   46.5400 C   0  0  0  0  0  0  0  0  0  0  0  0
   59.3000   35.0360   45.9550 C   0  0  0  0  0  0  0  0  0  0  0  0
   58.2230   34.3530   45.3790 C   0  0  0  0  0  0  0  0  0  0  0  0
   58.2000   32.9540   45.3910 C   0  0  0  0  0  0  0  0  0  0  0  0
   57.1670   32.2720   44.8320 N   0  0  0  0  0  0  0  0  0  0  0  0
   57.1300   30.9130   44.8380 C   0  0  0  0  0  0  0  0  0  0  0  0
   56.0340   30.2410   44.1920 C   0  0  0  0  0  0  0  0  0  0  0  0
   55.1520   29.7010   43.6730 N   0  0  0  0  0  0  0  0  0  0  0  0
   58.1160   28.0640   46.7520 C   0  0  0  0  0  0  0  0  0  0  0  0
   57.0390   26.9790   46.6940 C   0  0  0  0  0  0  0  0  0  0  0  0
   57.1826   21.3867   44.1181 H   0  0  0  0  0  0  0  0  0  0  0  0
   56.7589   20.5026   42.6129 H   0  0  0  0  0  0  0  0  0  0  0  0
   58.1194   21.6756   42.6129 H   0  0  0  0  0  0  0  0  0  0  0  0
   56.6661   23.2700   41.9526 H   0  0  0  0  0  0  0  0  0  0  0  0
   55.2797   22.1333   42.1445 H   0  0  0  0  0  0  0  0  0  0  0  0
   57.2624   22.9635   45.1305 H   0  0  0  0  0  0  0  0  0  0  0  0
   57.5885   24.1543   43.8092 H   0  0  0  0  0  0  0  0  0  0  0  0
   59.1512   26.1835   44.7539 H   0  0  0  0  0  0  0  0  0  0  0  0
   57.8551   25.9937   43.5106 H   0  0  0  0  0  0  0  0  0  0  0  0
   59.0209   28.2797   43.5969 H   0  0  0  0  0  0  0  0  0  0  0  0
   57.2106   28.2791   43.6840 H   0  0  0  0  0  0  0  0  0  0  0  0
   61.1643   32.3677   47.0170 H   0  0  0  0  0  0  0  0  0  0  0  0
   61.1989   34.8675   46.9893 H   0  0  0  0  0  0  0  0  0  0  0  0
   59.3182   36.1358   45.9480 H   0  0  0  0  0  0  0  0  0  0  0  0
   57.3969   34.9143   44.9181 H   0  0  0  0  0  0  0  0  0  0  0  0
   59.0886   27.6004   46.9737 H   0  0  0  0  0  0  0  0  0  0  0  0
   57.8588   28.7864   47.5406 H   0  0  0  0  0  0  0  0  0  0  0  0
   57.1240   26.3443   47.5884 H   0  0  0  0  0  0  0  0  0  0  0  0
   56.0569   27.4728   46.6527 H   0  0  0  0  0  0  0  0  0  0  0  0
  1  2  1  0
  2  3  1  0
  3  4  1  0
  4  5  1  0
  5  6  2  0
  5  7  1  0
  7  8  1  0
  8  9  1  0
  9 10  1  0
 10 11  1  0
 11 12  2  0
 12 13  1  0
 13 14  2  0
 14 15  1  0
 15 16  2  0
 16 17  1  0
 17 18  2  0
 18 19  1  0
 19 20  2  0
 20 21  1  0
 21 22  3  0
 10 23  1  0
 23 24  1  0
 24  7  1  0
 20 11  1  0
 18 13  1  0
  1 25  1  0
  1 26  1  0
  1 27  1  0
  2 28  1  0
  2 29  1  0
  4 30  1  0
  4 31  1  0
  8 32  1  0
  8 33  1  0
  9 34  1  0
  9 35  1  0
 14 36  1  0
 15 37  1  0
 16 38  1  0
 17 39  1  0
 23 40  1  0
 23 41  1  0
 24 42  1  0
 24 43  1  0
M  END
>  <UniqueID>  (14) 
13

>  <SMILES>  (14) 
CCOCC(=O)N1CCN(c2nc3ccccc3nc2C#N)CC1

>  <Energy>  (14) 
54.015157064148674

>  <Genealogy>  (14) 
CCOCC(=O)N1CCN(c2nc3ccccc3nc2C#N)CC1 (3D coordinates assigned)
CCOCC(=O)N1CCN(c2nc3ccccc3nc2C#N)CC1 (nonaromatic ring conformer: 54.015157064148674 kcal/mol)

>  <smiles>  (14) 
CCOCC(=O)N1CCN(c2nc3ccccc3nc2C#N)CC1

>  <score_type>  (14) 
oracle

>  <origin>  (14) 
adg

>  <m_score__min__energy>  (14) 
-7.5599999999999996

>  <m_primary>  (14) 
energy

$$$$
14:0
     RDKit          3D

 26 27  0  0  0  0  0  0  0  0999 V2000
   57.4040   28.5030   43.6130 C   0  0  0  0  0  0  0  0  0  0  0  0
   56.0530   29.6930   43.3550 S   0  0  0  0  0  0  0  0  0  0  0  0
   57.0420   31.0980   43.8730 C   0  0  0  0  0  0  0  0  0  0  0  0
   57.3230   31.3870   45.1550 N   0  0  0  0  0  0  0  0  0  0  0  0
   58.0600   32.5180   45.0670 C   0  0  0  0  0  0  0  0  0  0  0  0
   58.6220   33.2630   46.2220 C   0  0  0  0  0  0  0  0  0  0  0  0
   59.0940   34.5770   46.0450 C   0  0  0  0  0  0  0  0  0  0  0  0
   59.6240   35.2920   47.1230 C   0  0  0  0  0  0  0  0  0  0  0  0
   59.6910   34.7050   48.3880 C   0  0  0  0  0  0  0  0  0  0  0  0
   59.2280   33.4020   48.5780 C   0  0  0  0  0  0  0  0  0  0  0  0
   58.6960   32.6820   47.5030 C   0  0  0  0  0  0  0  0  0  0  0  0
   58.2240   32.9030   43.7820 N   0  0  0  0  0  0  0  0  0  0  0  0
   57.5920   32.0050   43.0460 N   0  0  0  0  0  0  0  0  0  0  0  0
   57.4800   32.0610   41.5960 C   0  0  0  0  0  0  0  0  0  0  0  0
   57.5660   28.3603   44.6916 H   0  0  0  0  0  0  0  0  0  0  0  0
   57.1379   27.5405   43.1517 H   0  0  0  0  0  0  0  0  0  0  0  0
   58.3252   28.8884   43.1517 H   0  0  0  0  0  0  0  0  0  0  0  0
   57.0200   30.8540   45.9990 H   0  0  0  0  0  0  0  0  0  0  0  0
   59.0455   35.0450   45.0507 H   0  0  0  0  0  0  0  0  0  0  0  0
   59.9889   36.3190   46.9743 H   0  0  0  0  0  0  0  0  0  0  0  0
   60.1086   35.2693   49.2348 H   0  0  0  0  0  0  0  0  0  0  0  0
   59.2815   32.9404   49.5750 H   0  0  0  0  0  0  0  0  0  0  0  0
   58.3331   31.6554   47.6591 H   0  0  0  0  0  0  0  0  0  0  0  0
   56.5276   32.5372   41.3199 H   0  0  0  0  0  0  0  0  0  0  0  0
   58.3155   32.6474   41.1861 H   0  0  0  0  0  0  0  0  0  0  0  0
   57.5122   31.0407   41.1861 H   0  0  0  0  0  0  0  0  0  0  0  0
  1  2  1  0
  2  3  1  0
  3  4  2  0
  4  5  1  0
  5  6  1  0
  6  7  2  0
  7  8  1  0
  8  9  2  0
  9 10  1  0
 10 11  2  0
  5 12  2  0
 12 13  1  0
 13 14  1  0
 13  3  1  0
 11  6  1  0
  1 15  1  0
  1 16  1  0
  1 17  1  0
  4 18  1  0
  7 19  1  0
  8 20  1  0
  9 21  1  0
 10 22  1  0
 11 23  1  0
 14 24  1  0
 14 25  1  0
 14 26  1  0
M  CHG  1   4   1
M  END
>  <UniqueID>  (15) 
14

>  <SMILES>  (15) 
CSc1[nH+]c(-c2ccccc2)nn1C

>  <Energy>  (15) 
57.222411728428916

>  <Genealogy>  (15) 
CSc1[nH+]c(-c2ccccc2)nn1C (protonated)
CSc1[nH+]c(-c2ccccc2)nn1C (3D coordinates assigned)
CSc1[nH+]c(-c2ccccc2)nn1C (optimized conformer: 57.222411728428916 kcal/mol)

>  <smiles>  (15) 
CSc1nc(-c2ccccc2)nn1C

>  <score_type>  (15) 
oracle

>  <origin>  (15) 
adg

>  <m_score__min__energy>  (15) 
-4.6100000000000003

>  <m_primary>  (15) 
energy

$$$$
15:0
     RDKit          3D

 48 50  0  0  0  0  0  0  0  0999 V2000
   57.0140   30.7440   43.0100 C   0  0  0  0  0  0  0  0  0  0  0  0
   57.8300   30.7280   44.2450 N   0  0  0  0  0  0  0  0  0  0  0  0
   58.1040   31.9100   44.9100 C   0  0  0  0  0  0  0  0  0  0  0  0
   59.0690   31.9320   45.9510 C   0  0  0  0  0  0  0  0  0  0  0  0
   59.6610   30.7260   46.3660 C   0  0  0  0  0  0  0  0  0  0  0  0
   60.6540   30.7350   47.4060 N   0  0  0  0  0  0  0  0  0  0  0  0
   62.0670   30.9550   47.1010 C   0  0  0  0  0  0  0  0  0  0  0  0
   62.7730   31.6150   48.3010 C   0  0  0  0  0  0  0  0  0  0  0  0
   63.7610   32.6600   47.9390 N   0  0  0  0  0  0  0  0  0  0  0  0
   63.2720   33.5600   46.8780 C   0  0  0  0  0  0  0  0  0  0  0  0
   64.2270   33.4290   49.1060 C   0  0  0  0  0  0  0  0  0  0  0  0
   59.2340   29.5100   45.8060 C   0  0  0  0  0  0  0  0  0  0  0  0
   59.7250   28.2770   46.2880 C   0  0  0  0  0  0  0  0  0  0  0  0
   59.2830   27.0730   45.7450 C   0  0  0  0  0  0  0  0  0  0  0  0
   58.3380   27.0760   44.7250 C   0  0  0  0  0  0  0  0  0  0  0  0
   57.8410   28.2810   44.2320 C   0  0  0  0  0  0  0  0  0  0  0  0
   58.2930   29.5260   44.7440 C   0  0  0  0  0  0  0  0  0  0  0  0
   59.3600   33.2000   46.7420 C   0  0  0  0  0  0  0  0  0  0  0  0
   58.8920   34.4760   46.0470 C   0  0  0  0  0  0  0  0  0  0  0  0
   57.4650   34.3000   45.5540 C   0  0  0  0  0  0  0  0  0  0  0  0
   57.4220   33.2090   44.4880 C   0  0  0  0  0  0  0  0  0  0  0  0
   55.9468   30.7649   43.2759 H   0  0  0  0  0  0  0  0  0  0  0  0
   57.2620   31.6375   42.4182 H   0  0  0  0  0  0  0  0  0  0  0  0
   57.2268   29.8415   42.4182 H   0  0  0  0  0  0  0  0  0  0  0  0
   60.4030   30.3460   48.3420 H   0  0  0  0  0  0  0  0  0  0  0  0
   62.5465   29.9893   46.8833 H   0  0  0  0  0  0  0  0  0  0  0  0
   62.1469   31.6189   46.2276 H   0  0  0  0  0  0  0  0  0  0  0  0
   62.0050   32.0757   48.9397 H   0  0  0  0  0  0  0  0  0  0  0  0
   63.3354   30.8174   48.8085 H   0  0  0  0  0  0  0  0  0  0  0  0
   64.5970   32.1600   47.5520 H   0  0  0  0  0  0  0  0  0  0  0  0
   62.7942   34.4394   47.3345 H   0  0  0  0  0  0  0  0  0  0  0  0
   64.1177   33.8848   46.2540 H   0  0  0  0  0  0  0  0  0  0  0  0
   62.5393   33.0272   46.2540 H   0  0  0  0  0  0  0  0  0  0  0  0
   63.9172   32.9178   50.0294 H   0  0  0  0  0  0  0  0  0  0  0  0
   65.3240   33.5062   49.0800 H   0  0  0  0  0  0  0  0  0  0  0  0
   63.7877   34.4372   49.0800 H   0  0  0  0  0  0  0  0  0  0  0  0
   60.4651   28.2672   47.1017 H   0  0  0  0  0  0  0  0  0  0  0  0
   59.6814   26.1199   46.1230 H   0  0  0  0  0  0  0  0  0  0  0  0
   57.9814   26.1237   44.3056 H   0  0  0  0  0  0  0  0  0  0  0  0
   57.0856   28.2675   43.4325 H   0  0  0  0  0  0  0  0  0  0  0  0
   58.8513   33.1274   47.7146 H   0  0  0  0  0  0  0  0  0  0  0  0
   60.4528   33.2716   46.8452 H   0  0  0  0  0  0  0  0  0  0  0  0
   58.9320   35.3146   46.7577 H   0  0  0  0  0  0  0  0  0  0  0  0
   59.5492   34.6848   45.1900 H   0  0  0  0  0  0  0  0  0  0  0  0
   56.8192   34.0135   46.3971 H   0  0  0  0  0  0  0  0  0  0  0  0
   57.1086   35.2468   45.1220 H   0  0  0  0  0  0  0  0  0  0  0  0
   56.3689   32.9894   44.2584 H   0  0  0  0  0  0  0  0  0  0  0  0
   57.9716   33.5912   43.6151 H   0  0  0  0  0  0  0  0  0  0  0  0
  1  2  1  0
  2  3  2  0
  3  4  1  0
  4  5  2  0
  5  6  1  0
  6  7  1  0
  7  8  1  0
  8  9  1  0
  9 10  1  0
  9 11  1  0
  5 12  1  0
 12 13  2  0
 13 14  1  0
 14 15  2  0
 15 16  1  0
 16 17  2  0
  4 18  1  0
 18 19  1  0
 19 20  1  0
 20 21  1  0
 17  2  1  0
 21  3  1  0
 17 12  1  0
  1 22  1  0
  1 23  1  0
  1 24  1  0
  6 25  1  0
  7 26  1  0
  7 27  1  0
  8 28  1  0
  8 29  1  0
  9 30  1  0
 10 31  1  0
 10 32  1  0
 10 33  1  0
 11 34  1  0
 11 35  1  0
 11 36  1  0
 13 37  1  0
 14 38  1  0
 15 39  1  0
 16 40  1  0
 18 41  1  0
 18 42  1  0
 19 43  1  0
 19 44  1  0
 20 45  1  0
 20 46  1  0
 21 47  1  0
 21 48  1  0
M  CHG  2   2   1   9   1
M  END
>  <UniqueID>  (16) 
15

>  <SMILES>  (16) 
C[n+]1c2c(c(NCC[NH+](C)C)c3ccccc31)CCCC2

>  <Energy>  (16) 
70.2058807198504

>  <Genealogy>  (16) 
C[n+]1c2c(c(NCC[NH+](C)C)c3ccccc31)CCCC2 (protonated)
C[n+]1c2c(c(NCC[NH+](C)C)c3ccccc31)CCCC2 (3D coordinates assigned)
C[n+]1c2c(c(NCC[NH+](C)C)c3ccccc31)CCCC2 (nonaromatic ring conformer: 70.2058807198504 kcal/mol)

>  <smiles>  (16) 
CN(C)CCNc1c2c([n+](C)c3ccccc13)CCCC2

>  <score_type>  (16) 
oracle

>  <origin>  (16) 
adg

>  <m_score__min__energy>  (16) 
-4.5499999999999998

>  <m_primary>  (16) 
energy

$$$$
16:0
     RDKit          3D

 65 67  0  0  0  0  0  0  0  0999 V2000
   63.3780   33.8040   46.3460 C   0  0  0  0  0  0  0  0  0  0  0  0
   62.9150   32.8020   47.4050 C   0  0  0  0  0  0  0  0  0  0  0  0
   63.3700   33.1880   48.7610 N   0  0  0  0  0  0  0  0  0  0  0  0
   64.2050   32.1280   49.3840 C   0  0  0  0  0  0  0  0  0  0  0  0
   65.5170   32.7290   49.8730 C   0  0  0  0  0  0  0  0  0  0  0  0
   62.2040   33.5320   49.6100 C   0  0  0  0  0  0  0  0  0  0  0  0
   61.0920   34.2290   48.8050 C   0  0  0  0  0  0  0  0  0  0  0  0
   59.6850   33.6820   49.0940 C   0  0  0  0  0  0  0  0  0  0  0  0
   59.2190   32.7960   48.0170 N   0  0  0  0  0  0  0  0  0  0  0  0
   59.2140   31.4410   48.0240 C   0  0  0  0  0  0  0  0  0  0  0  0
   59.5670   30.5980   49.0800 C   0  0  0  0  0  0  0  0  0  0  0  0
   59.4950   29.2110   48.8780 C   0  0  0  0  0  0  0  0  0  0  0  0
   59.0840   28.6780   47.6310 C   0  0  0  0  0  0  0  0  0  0  0  0
   59.0190   27.1760   47.4240 C   0  0  0  0  0  0  0  0  0  0  0  0
   58.0260   26.7550   46.4050 N   0  0  0  0  0  0  0  0  0  0  0  0
   58.6330   26.5190   45.0760 C   0  0  0  0  0  0  0  0  0  0  0  0
   58.1090   27.5120   44.0420 C   0  0  0  0  0  0  0  0  0  0  0  0
   57.1540   25.6470   46.8600 C   0  0  0  0  0  0  0  0  0  0  0  0
   55.9070   25.5850   45.9860 C   0  0  0  0  0  0  0  0  0  0  0  0
   58.7050   29.5550   46.5920 C   0  0  0  0  0  0  0  0  0  0  0  0
   58.7900   30.9330   46.8110 C   0  0  0  0  0  0  0  0  0  0  0  0
   58.5150   32.0280   46.0020 C   0  0  0  0  0  0  0  0  0  0  0  0
   58.0730   32.1510   44.6690 C   0  0  0  0  0  0  0  0  0  0  0  0
   57.7930   30.9640   43.7940 C   0  0  0  0  0  0  0  0  0  0  0  0
   57.9010   33.4550   44.1580 C   0  0  0  0  0  0  0  0  0  0  0  0
   58.1640   34.5840   44.9550 C   0  0  0  0  0  0  0  0  0  0  0  0
   58.6060   34.4380   46.2770 C   0  0  0  0  0  0  0  0  0  0  0  0
   58.7860   33.1460   46.7800 C   0  0  0  0  0  0  0  0  0  0  0  0
   63.7901   34.6960   46.8405 H   0  0  0  0  0  0  0  0  0  0  0  0
   64.1537   33.3416   45.7180 H   0  0  0  0  0  0  0  0  0  0  0  0
   62.5231   34.0950   45.7180 H   0  0  0  0  0  0  0  0  0  0  0  0
   61.8159   32.7574   47.3971 H   0  0  0  0  0  0  0  0  0  0  0  0
   63.3512   31.8216   47.1632 H   0  0  0  0  0  0  0  0  0  0  0  0
   63.6639   31.6894   50.2354 H   0  0  0  0  0  0  0  0  0  0  0  0
   64.4173   31.3467   48.6393 H   0  0  0  0  0  0  0  0  0  0  0  0
   65.5301   32.7350   50.9729 H   0  0  0  0  0  0  0  0  0  0  0  0
   66.3581   32.1264   49.4996 H   0  0  0  0  0  0  0  0  0  0  0  0
   65.6100   33.7595   49.4996 H   0  0  0  0  0  0  0  0  0  0  0  0
   61.7992   32.6082   50.0491 H   0  0  0  0  0  0  0  0  0  0  0  0
   62.5451   34.2269   50.3915 H   0  0  0  0  0  0  0  0  0  0  0  0
   61.1051   35.3011   49.0508 H   0  0  0  0  0  0  0  0  0  0  0  0
   61.2983   34.0400   47.7412 H   0  0  0  0  0  0  0  0  0  0  0  0
   59.7083   33.1163   50.0371 H   0  0  0  0  0  0  0  0  0  0  0  0
   58.9918   34.5332   49.1646 H   0  0  0  0  0  0  0  0  0  0  0  0
   59.8933   31.0108   50.0460 H   0  0  0  0  0  0  0  0  0  0  0  0
   59.7612   28.5286   49.6986 H   0  0  0  0  0  0  0  0  0  0  0  0
   60.0122   26.8263   47.1058 H   0  0  0  0  0  0  0  0  0  0  0  0
   58.7039   26.7338   48.3807 H   0  0  0  0  0  0  0  0  0  0  0  0
   59.7246   26.6281   45.1563 H   0  0  0  0  0  0  0  0  0  0  0  0
   58.3661   25.5035   44.7481 H   0  0  0  0  0  0  0  0  0  0  0  0
   57.6552   28.3719   44.5565 H   0  0  0  0  0  0  0  0  0  0  0  0
   58.9414   27.8590   43.4122 H   0  0  0  0  0  0  0  0  0  0  0  0
   57.3527   27.0207   43.4122 H   0  0  0  0  0  0  0  0  0  0  0  0
   57.7014   24.6959   46.7846 H   0  0  0  0  0  0  0  0  0  0  0  0
   56.8588   25.8205   47.9054 H   0  0  0  0  0  0  0  0  0  0  0  0
   55.0130   25.5405   46.6253 H   0  0  0  0  0  0  0  0  0  0  0  0
   55.8594   26.4819   45.3509 H   0  0  0  0  0  0  0  0  0  0  0  0
   55.9486   24.6878   45.3509 H   0  0  0  0  0  0  0  0  0  0  0  0
   58.3495   29.1616   45.6282 H   0  0  0  0  0  0  0  0  0  0  0  0
   57.5858   30.0856   44.4229 H   0  0  0  0  0  0  0  0  0  0  0  0
   56.9198   31.1745   43.1589 H   0  0  0  0  0  0  0  0  0  0  0  0
   58.6682   30.7620   43.1589 H   0  0  0  0  0  0  0  0  0  0  0  0
   57.5565   33.5906   43.1222 H   0  0  0  0  0  0  0  0  0  0  0  0
   58.0214   35.5912   44.5365 H   0  0  0  0  0  0  0  0  0  0  0  0
   58.8066   35.3192   46.9041 H   0  0  0  0  0  0  0  0  0  0  0  0
  1  2  1  0
  2  3  1  0
  3  4  1  0
  4  5  1  0
  3  6  1  0
  6  7  1  0
  7  8  1  0
  8  9  1  0
  9 10  1  0
 10 11  2  0
 11 12  1  0
 12 13  2  0
 13 14  1  0
 14 15  1  0
 15 16  1  0
 16 17  1  0
 15 18  1  0
 18 19  1  0
 13 20  1  0
 20 21  2  0
 21 22  1  0
 22 23  2  0
 23 24  1  0
 23 25  1  0
 25 26  2  0
 26 27  1  0
 27 28  2  0
 28  9  1  0
 21 10  1  0
 28 22  1  0
  1 29  1  0
  1 30  1  0
  1 31  1  0
  2 32  1  0
  2 33  1  0
  4 34  1  0
  4 35  1  0
  5 36  1  0
  5 37  1  0
  5 38  1  0
  6 39  1  0
  6 40  1  0
  7 41  1  0
  7 42  1  0
  8 43  1  0
  8 44  1  0
 11 45  1  0
 12 46  1  0
 14 47  1  0
 14 48  1  0
 16 49  1  0
 16 50  1  0
 17 51  1  0
 17 52  1  0
 17 53  1  0
 18 54  1  0
 18 55  1  0
 19 56  1  0
 19 57  1  0
 19 58  1  0
 20 59  1  0
 24 60  1  0
 24 61  1  0
 24 62  1  0
 25 63  1  0
 26 64  1  0
 27 65  1  0
M  END
>  <UniqueID>  (17) 
16

>  <SMILES>  (17) 
CCN(CC)CCCn1c2ccc(CN(CC)CC)cc2c2c(C)cccc21

>  <Energy>  (17) 
103.56991254260312

>  <Genealogy>  (17) 
CCN(CC)CCCn1c2ccc(CN(CC)CC)cc2c2c(C)cccc21 (3D coordinates assigned)
CCN(CC)CCCn1c2ccc(CN(CC)CC)cc2c2c(C)cccc21 (optimized conformer: 103.56991254260312 kcal/mol)

>  <smiles>  (17) 
CCN(CC)CCCn1c2ccc(CN(CC)CC)cc2c2c(C)cccc21

>  <score_type>  (17) 
oracle

>  <origin>  (17) 
adg

>  <m_score__min__energy>  (17) 
-7.6399999999999997

>  <m_primary>  (17) 
energy

$$$$
17:0
     RDKit          3D

 37 36  0  0  0  0  0  0  0  0999 V2000
   56.6440   30.3330   42.6290 C   0  0  0  0  0  0  0  0  0  0  0  0
   56.2050   29.8690   44.0150 C   0  0  0  0  0  0  0  0  0  0  0  0
   56.8650   30.6860   45.0600 N   0  0  0  0  0  0  0  0  0  0  0  0
   57.9070   29.9090   45.7670 C   0  0  0  0  0  0  0  0  0  0  0  0
   59.1420   29.7490   44.8830 C   0  0  0  0  0  0  0  0  0  0  0  0
   57.4070   31.9510   44.5020 C   0  0  0  0  0  0  0  0  0  0  0  0
   57.4340   33.0310   45.5830 C   0  0  0  0  0  0  0  0  0  0  0  0
   57.6930   34.2870   44.9950 O   0  0  0  0  0  0  0  0  0  0  0  0
   59.0870   34.4800   44.8760 C   0  0  0  0  0  0  0  0  0  0  0  0
   59.6350   35.0190   46.1990 C   0  0  0  0  0  0  0  0  0  0  0  0
   60.1720   33.9240   47.0370 N   0  0  0  0  0  0  0  0  0  0  0  0
   61.6070   33.7350   46.7670 C   0  0  0  0  0  0  0  0  0  0  0  0
   59.9770   34.2080   48.4700 C   0  0  0  0  0  0  0  0  0  0  0  0
   57.3968   31.1287   42.7301 H   0  0  0  0  0  0  0  0  0  0  0  0
   57.0782   29.4851   42.0790 H   0  0  0  0  0  0  0  0  0  0  0  0
   55.7734   30.7197   42.0790 H   0  0  0  0  0  0  0  0  0  0  0  0
   55.1139   29.9756   44.1054 H   0  0  0  0  0  0  0  0  0  0  0  0
   56.4913   28.8153   44.1486 H   0  0  0  0  0  0  0  0  0  0  0  0
   58.1881   30.4359   46.6908 H   0  0  0  0  0  0  0  0  0  0  0  0
   57.5081   28.9124   46.0073 H   0  0  0  0  0  0  0  0  0  0  0  0
   60.0339   29.6335   45.5164 H   0  0  0  0  0  0  0  0  0  0  0  0
   59.0255   28.8584   44.2479 H   0  0  0  0  0  0  0  0  0  0  0  0
   59.2562   30.6399   44.2479 H   0  0  0  0  0  0  0  0  0  0  0  0
   58.4292   31.7783   44.1343 H   0  0  0  0  0  0  0  0  0  0  0  0
   56.7638   32.2850   43.6745 H   0  0  0  0  0  0  0  0  0  0  0  0
   56.4606   33.0606   46.0945 H   0  0  0  0  0  0  0  0  0  0  0  0
   58.2266   32.7989   46.3096 H   0  0  0  0  0  0  0  0  0  0  0  0
   59.5723   33.5215   44.6400 H   0  0  0  0  0  0  0  0  0  0  0  0
   59.2930   35.1997   44.0700 H   0  0  0  0  0  0  0  0  0  0  0  0
   60.4400   35.7384   45.9883 H   0  0  0  0  0  0  0  0  0  0  0  0
   58.8143   35.5073   46.7449 H   0  0  0  0  0  0  0  0  0  0  0  0
   62.1529   33.6631   47.7193 H   0  0  0  0  0  0  0  0  0  0  0  0
   61.7528   32.8099   46.1900 H   0  0  0  0  0  0  0  0  0  0  0  0
   61.9874   34.5908   46.1900 H   0  0  0  0  0  0  0  0  0  0  0  0
   60.4993   33.4474   49.0689 H   0  0  0  0  0  0  0  0  0  0  0  0
   60.3835   35.2027   48.7053 H   0  0  0  0  0  0  0  0  0  0  0  0
   58.9027   34.1859   48.7053 H   0  0  0  0  0  0  0  0  0  0  0  0
  1  2  1  0
  2  3  1  0
  3  4  1  0
  4  5  1  0
  3  6  1  0
  6  7  1  0
  7  8  1  0
  8  9  1  0
  9 10  1  0
 10 11  1  0
 11 12  1  0
 11 13  1  0
  1 14  1  0
  1 15  1  0
  1 16  1  0
  2 17  1  0
  2 18  1  0
  4 19  1  0
  4 20  1  0
  5 21  1  0
  5 22  1  0
  5 23  1  0
  6 24  1  0
  6 25  1  0
  7 26  1  0
  7 27  1  0
  9 28  1  0
  9 29  1  0
 10 30  1  0
 10 31  1  0
 12 32  1  0
 12 33  1  0
 12 34  1  0
 13 35  1  0
 13 36  1  0
 13 37  1  0
M  END
>  <UniqueID>  (18) 
17

>  <SMILES>  (18) 
CCN(CC)CCOCCN(C)C

>  <Energy>  (18) 
28.51728390976362

>  <Genealogy>  (18) 
CCN(CC)CCOCCN(C)C (3D coordinates assigned)
CCN(CC)CCOCCN(C)C (optimized conformer: 28.51728390976362 kcal/mol)

>  <smiles>  (18) 
CCN(CC)CCOCCN(C)C

>  <score_type>  (18) 
oracle

>  <origin>  (18) 
adg

>  <m_score__min__energy>  (18) 
-4.1399999999999997

>  <m_primary>  (18) 
energy

$$$$
18:0
     RDKit          3D

 58 61  0  0  0  0  0  0  0  0999 V2000
   65.3152   32.7176   49.0147 H   0  0  0  0  0  0  0  0  0  0  0  0
   64.2520   32.9720   49.1370 C   0  0  0  0  0  0  0  0  0  0  0  0
   63.6880   33.7870   48.3150 N   0  0  0  0  0  0  0  0  0  0  0  0
   63.5490   33.4850   46.9110 C   0  0  0  0  0  0  0  0  0  0  0  0
   63.0917   32.4915   46.7932 H   0  0  0  0  0  0  0  0  0  0  0  0
   62.9088   34.2421   46.4347 H   0  0  0  0  0  0  0  0  0  0  0  0
   64.5405   33.4911   46.4347 H   0  0  0  0  0  0  0  0  0  0  0  0
   63.4620   32.3680   50.2620 C   0  0  0  0  0  0  0  0  0  0  0  0
   63.9295   32.6432   51.2189 H   0  0  0  0  0  0  0  0  0  0  0  0
   63.4540   31.2749   50.1391 H   0  0  0  0  0  0  0  0  0  0  0  0
   62.0740   32.8530   50.2470 N   0  0  0  0  0  0  0  0  0  0  0  0
   62.0490   33.8470   49.9190 H   0  0  0  0  0  0  0  0  0  0  0  0
   61.6770   32.8280   51.2160 H   0  0  0  0  0  0  0  0  0  0  0  0
   61.2750   32.0390   49.3650 C   0  0  0  0  0  0  0  0  0  0  0  0
   60.6180   32.5870   48.2520 C   0  0  0  0  0  0  0  0  0  0  0  0
   60.6240   33.8500   47.8770 O   0  0  0  0  0  0  0  0  0  0  0  0
   59.8980   33.9270   46.7830 C   0  0  0  0  0  0  0  0  0  0  0  0
   59.6340   35.0710   46.0320 C   0  0  0  0  0  0  0  0  0  0  0  0
   60.0305   36.0516   46.3341 H   0  0  0  0  0  0  0  0  0  0  0  0
   58.8450   34.9330   44.8760 C   0  0  0  0  0  0  0  0  0  0  0  0
   58.6177   35.8165   44.2614 H   0  0  0  0  0  0  0  0  0  0  0  0
   58.3430   33.6700   44.4990 C   0  0  0  0  0  0  0  0  0  0  0  0
   57.7314   33.5762   43.5895 H   0  0  0  0  0  0  0  0  0  0  0  0
   58.6170   32.5290   45.2750 C   0  0  0  0  0  0  0  0  0  0  0  0
   58.2290   31.5407   44.9875 H   0  0  0  0  0  0  0  0  0  0  0  0
   59.3980   32.6910   46.4230 C   0  0  0  0  0  0  0  0  0  0  0  0
   59.8580   31.8080   47.3850 C   0  0  0  0  0  0  0  0  0  0  0  0
   59.7100   30.4190   47.5660 C   0  0  0  0  0  0  0  0  0  0  0  0
   58.9170   29.6210   46.6790 N   0  0  0  0  0  0  0  0  0  0  0  0
   57.9050   29.4810   46.8970 H   0  0  0  0  0  0  0  0  0  0  0  0
   59.4160   29.2020   45.3710 C   0  0  0  0  0  0  0  0  0  0  0  0
   60.1475   28.3912   45.5035 H   0  0  0  0  0  0  0  0  0  0  0  0
   59.8938   30.0606   44.8764 H   0  0  0  0  0  0  0  0  0  0  0  0
   58.2570   28.7020   44.4990 C   0  0  0  0  0  0  0  0  0  0  0  0
   58.4792   27.6801   44.1580 H   0  0  0  0  0  0  0  0  0  0  0  0
   58.1478   29.3814   43.6408 H   0  0  0  0  0  0  0  0  0  0  0  0
   56.9840   28.6930   45.2560 N   0  0  0  0  0  0  0  0  0  0  0  0
   55.8960   29.3940   44.5220 C   0  0  0  0  0  0  0  0  0  0  0  0
   55.4088   30.1175   45.1922 H   0  0  0  0  0  0  0  0  0  0  0  0
   55.1553   28.6585   44.1750 H   0  0  0  0  0  0  0  0  0  0  0  0
   56.4830   30.1290   43.3210 C   0  0  0  0  0  0  0  0  0  0  0  0
   57.1336   30.9436   43.6718 H   0  0  0  0  0  0  0  0  0  0  0  0
   57.0711   29.4262   42.7126 H   0  0  0  0  0  0  0  0  0  0  0  0
   55.6675   30.5472   42.7126 H   0  0  0  0  0  0  0  0  0  0  0  0
   56.6000   27.3060   45.6090 C   0  0  0  0  0  0  0  0  0  0  0  0
   55.5717   27.3051   45.9997 H   0  0  0  0  0  0  0  0  0  0  0  0
   56.6678   26.6814   44.7061 H   0  0  0  0  0  0  0  0  0  0  0  0
   57.5390   26.7350   46.6700 C   0  0  0  0  0  0  0  0  0  0  0  0
   57.1489   26.9722   47.6708 H   0  0  0  0  0  0  0  0  0  0  0  0
   57.6055   25.6434   46.5516 H   0  0  0  0  0  0  0  0  0  0  0  0
   58.5388   27.1782   46.5516 H   0  0  0  0  0  0  0  0  0  0  0  0
   60.3660   29.8520   48.6830 C   0  0  0  0  0  0  0  0  0  0  0  0
   60.3140   28.5090   49.0840 C   0  0  0  0  0  0  0  0  0  0  0  0
   59.7420   27.7385   48.5462 H   0  0  0  0  0  0  0  0  0  0  0  0
   61.0590   28.2490   50.2310 C   0  0  0  0  0  0  0  0  0  0  0  0
   61.1675   27.2660   50.7126 H   0  0  0  0  0  0  0  0  0  0  0  0
   61.7680   29.6830   50.7630 S   0  0  0  0  0  0  0  0  0  0  0  0
   61.1340   30.6490   49.5420 C   0  0  0  0  0  0  0  0  0  0  0  0
  1  2  1  0
  2  3  2  0
  3  4  1  0
  4  5  1  0
  4  6  1  0
  4  7  1  0
  2  8  1  0
  8  9  1  0
  8 10  1  0
  8 11  1  0
 11 12  1  0
 11 13  1  0
 11 14  1  0
 14 15  2  0
 15 16  1  0
 16 17  1  0
 17 18  2  0
 18 19  1  0
 18 20  1  0
 20 21  1  0
 20 22  2  0
 22 23  1  0
 22 24  1  0
 24 25  1  0
 24 26  2  0
 26 27  1  0
 27 28  2  0
 28 29  1  0
 29 30  1  0
 29 31  1  0
 31 32  1  0
 31 33  1  0
 31 34  1  0
 34 35  1  0
 34 36  1  0
 34 37  1  0
 37 38  1  0
 38 39  1  0
 38 40  1  0
 38 41  1  0
 41 42  1  0
 41 43  1  0
 41 44  1  0
 37 45  1  0
 45 46  1  0
 45 47  1  0
 45 48  1  0
 48 49  1  0
 48 50  1  0
 48 51  1  0
 28 52  1  0
 52 53  1  0
 53 54  1  0
 53 55  2  0
 55 56  1  0
 55 57  1  0
 57 58  1  0
 58 14  1  0
 27 15  1  0
 58 52  2  0
 26 17  1  0
M  CHG  1  11   1
M  END
>  <UniqueID>  (19) 
18

>  <SMILES>  (19) 
CCN(CC)CCNc1c2ccsc2c([NH2+]C/C=N/C)c2oc3ccccc3c12

>  <Energy>  (19) 
131.045436273454

>  <Genealogy>  (19) 
CCN(CC)CCNc1c2ccsc2c([NH2+]CC=NC)c2oc3ccccc3c12 (protonated)
CCN(CC)CCNc1c2ccsc2c([NH2+]C/C=N/C)c2oc3ccccc3c12 (cis-trans isomerization)
CCN(CC)CCNc1c2ccsc2c([NH2+]C/C=N/C)c2oc3ccccc3c12 (3D coordinates assigned)
CCN(CC)CCNc1c2ccsc2c([NH2+]C/C=N/C)c2oc3ccccc3c12 (optimized conformer: 131.045436273454 kcal/mol)

>  <smiles>  (19) 
CCN(CC)CCNc1c2ccsc2c(NCC=NC)c2oc3ccccc3c12

>  <score_type>  (19) 
oracle

>  <origin>  (19) 
adg

>  <m_score__min__energy>  (19) 
-6.0800000000000001

>  <m_primary>  (19) 
energy

$$$$
19:0
     RDKit          3D

 44 46  0  0  0  0  0  0  0  0999 V2000
   53.6110   30.2670   51.7740 C   0  0  0  0  0  0  0  0  0  0  0  0
   54.9720   30.2830   52.4800 C   0  0  0  0  0  0  0  0  0  0  0  0
   56.0450   30.8150   51.6200 N   0  0  0  0  0  0  0  0  0  0  0  0
   57.2250   31.2250   52.3990 C   0  0  0  0  0  0  0  0  0  0  0  0
   58.4340   31.4820   51.4930 C   0  0  0  0  0  0  0  0  0  0  0  0
   58.1370   31.0730   50.1750 O   0  0  0  0  0  0  0  0  0  0  0  0
   58.8470   29.8960   49.8370 C   0  0  0  0  0  0  0  0  0  0  0  0
   60.0250   30.2320   48.9190 C   0  0  0  0  0  0  0  0  0  0  0  0
   59.5670   31.0060   47.7580 N   0  0  0  0  0  0  0  0  0  0  0  0
   59.6060   32.3540   47.6050 C   0  0  0  0  0  0  0  0  0  0  0  0
   60.1740   33.3010   48.4640 C   0  0  0  0  0  0  0  0  0  0  0  0
   60.0750   34.6590   48.1110 C   0  0  0  0  0  0  0  0  0  0  0  0
   59.4120   35.0470   46.9260 C   0  0  0  0  0  0  0  0  0  0  0  0
   58.8380   34.0820   46.0810 C   0  0  0  0  0  0  0  0  0  0  0  0
   58.9560   32.7430   46.4510 C   0  0  0  0  0  0  0  0  0  0  0  0
   58.4800   31.5920   45.8670 C   0  0  0  0  0  0  0  0  0  0  0  0
   57.7140   31.3900   44.7200 C   0  0  0  0  0  0  0  0  0  0  0  0
   57.3370   30.0710   44.4070 C   0  0  0  0  0  0  0  0  0  0  0  0
   56.2720   29.7300   42.8610 Br  0  0  0  0  0  0  0  0  0  0  0  0
   57.7350   28.9980   45.2360 C   0  0  0  0  0  0  0  0  0  0  0  0
   58.5090   29.2320   46.3860 C   0  0  0  0  0  0  0  0  0  0  0  0
   58.8670   30.5500   46.6870 C   0  0  0  0  0  0  0  0  0  0  0  0
   52.8080   30.2576   52.5258 H   0  0  0  0  0  0  0  0  0  0  0  0
   53.5137   31.1641   51.1449 H   0  0  0  0  0  0  0  0  0  0  0  0
   53.5348   29.3679   51.1449 H   0  0  0  0  0  0  0  0  0  0  0  0
   54.8960   30.9115   53.3796 H   0  0  0  0  0  0  0  0  0  0  0  0
   55.2300   29.2444   52.7346 H   0  0  0  0  0  0  0  0  0  0  0  0
   55.6700   31.6540   51.1160 H   0  0  0  0  0  0  0  0  0  0  0  0
   56.3090   30.0970   50.9050 H   0  0  0  0  0  0  0  0  0  0  0  0
   56.9876   32.1478   52.9486 H   0  0  0  0  0  0  0  0  0  0  0  0
   57.4805   30.4108   53.0931 H   0  0  0  0  0  0  0  0  0  0  0  0
   58.6725   32.5558   51.4975 H   0  0  0  0  0  0  0  0  0  0  0  0
   59.2965   30.9102   51.8660 H   0  0  0  0  0  0  0  0  0  0  0  0
   59.2258   29.4242   50.7556 H   0  0  0  0  0  0  0  0  0  0  0  0
   58.1690   29.2072   49.3119 H   0  0  0  0  0  0  0  0  0  0  0  0
   60.7639   30.8233   49.4797 H   0  0  0  0  0  0  0  0  0  0  0  0
   60.4794   29.2947   48.5653 H   0  0  0  0  0  0  0  0  0  0  0  0
   60.6834   32.9925   49.3889 H   0  0  0  0  0  0  0  0  0  0  0  0
   60.5180   35.4256   48.7638 H   0  0  0  0  0  0  0  0  0  0  0  0
   59.3444   36.1128   46.6624 H   0  0  0  0  0  0  0  0  0  0  0  0
   58.3134   34.3732   45.1590 H   0  0  0  0  0  0  0  0  0  0  0  0
   57.4143   32.2336   44.0809 H   0  0  0  0  0  0  0  0  0  0  0  0
   57.4366   27.9708   44.9793 H   0  0  0  0  0  0  0  0  0  0  0  0
   58.8249   28.3999   47.0324 H   0  0  0  0  0  0  0  0  0  0  0  0
  1  2  1  0
  2  3  1  0
  3  4  1  0
  4  5  1  0
  5  6  1  0
  6  7  1  0
  7  8  1  0
  8  9  1  0
  9 10  1  0
 10 11  2  0
 11 12  1  0
 12 13  2  0
 13 14  1  0
 14 15  2  0
 15 16  1  0
 16 17  2  0
 17 18  1  0
 18 19  1  0
 18 20  2  0
 20 21  1  0
 21 22  2  0
 22  9  1  0
 15 10  1  0
 22 16  1  0
  1 23  1  0
  1 24  1  0
  1 25  1  0
  2 26  1  0
  2 27  1  0
  3 28  1  0
  3 29  1  0
  4 30  1  0
  4 31  1  0
  5 32  1  0
  5 33  1  0
  7 34  1  0
  7 35  1  0
  8 36  1  0
  8 37  1  0
 11 38  1  0
 12 39  1  0
 13 40  1  0
 14 41  1  0
 17 42  1  0
 20 43  1  0
 21 44  1  0
M  CHG  1   3   1
M  END
>  <UniqueID>  (20) 
19

>  <SMILES>  (20) 
CC[NH2+]CCOCCn1c2ccccc2c2cc(Br)ccc21

>  <Energy>  (20) 
81.01084591331748

>  <Genealogy>  (20) 
CC[NH2+]CCOCCn1c2ccccc2c2cc(Br)ccc21 (protonated)
CC[NH2+]CCOCCn1c2ccccc2c2cc(Br)ccc21 (3D coordinates assigned)
CC[NH2+]CCOCCn1c2ccccc2c2cc(Br)ccc21 (optimized conformer: 81.01084591331748 kcal/mol)

>  <smiles>  (20) 
CCNCCOCCn1c2ccccc2c2cc(Br)ccc21

>  <score_type>  (20) 
oracle

>  <origin>  (20) 
adg

>  <m_score__min__energy>  (20) 
-5.5199999999999996

>  <m_primary>  (20) 
energy

$$$$
20:0
     RDKit          3D

 54 56  0  0  0  0  0  0  0  0999 V2000
   55.6850   29.7090   44.5060 C   0  0  0  0  0  0  0  0  0  0  0  0
   57.1950   29.9400   44.3360 C   0  0  0  0  0  0  0  0  0  0  0  0
   57.3910   30.9660   43.1960 C   0  0  0  0  0  0  0  0  0  0  0  0
   57.8440   28.5970   43.9470 C   0  0  0  0  0  0  0  0  0  0  0  0
   57.7090   30.4250   45.6440 N   0  0  0  0  0  0  0  0  0  0  0  0
   59.1520   30.6890   45.7950 C   0  0  0  0  0  0  0  0  0  0  0  0
   59.7800   30.0190   47.0360 C   0  0  0  0  0  0  0  0  0  0  0  0
   58.7990   29.8420   48.1210 N   0  0  0  0  0  0  0  0  0  0  0  0
   58.9210   30.8510   49.1850 C   0  0  0  0  0  0  0  0  0  0  0  0
   60.3140   31.4140   49.2980 C   0  0  0  0  0  0  0  0  0  0  0  0
   61.3950   30.6470   49.5920 N   0  0  0  0  0  0  0  0  0  0  0  0
   62.4190   31.5130   49.6390 C   0  0  0  0  0  0  0  0  0  0  0  0
   63.7490   31.2480   49.9500 C   0  0  0  0  0  0  0  0  0  0  0  0
   64.6370   32.3410   50.0020 C   0  0  0  0  0  0  0  0  0  0  0  0
   64.1760   33.6530   49.7470 C   0  0  0  0  0  0  0  0  0  0  0  0
   62.8230   33.8860   49.4370 C   0  0  0  0  0  0  0  0  0  0  0  0
   61.9670   32.7780   49.3810 C   0  0  0  0  0  0  0  0  0  0  0  0
   60.6360   32.7330   49.1560 N   0  0  0  0  0  0  0  0  0  0  0  0
   59.7240   33.8640   48.9470 C   0  0  0  0  0  0  0  0  0  0  0  0
   59.1000   33.8250   47.5710 C   0  0  0  0  0  0  0  0  0  0  0  0
   57.7740   33.4000   47.3810 C   0  0  0  0  0  0  0  0  0  0  0  0
   57.2050   33.3930   46.1040 C   0  0  0  0  0  0  0  0  0  0  0  0
   57.9490   33.8280   45.0040 C   0  0  0  0  0  0  0  0  0  0  0  0
   57.4010   33.8160   43.7630 F   0  0  0  0  0  0  0  0  0  0  0  0
   59.2630   34.2710   45.1830 C   0  0  0  0  0  0  0  0  0  0  0  0
   59.8350   34.2760   46.4590 C   0  0  0  0  0  0  0  0  0  0  0  0
   55.4382   29.6712   45.5773 H   0  0  0  0  0  0  0  0  0  0  0  0
   55.1323   30.5330   44.0312 H   0  0  0  0  0  0  0  0  0  0  0  0
   55.4039   28.7574   44.0312 H   0  0  0  0  0  0  0  0  0  0  0  0
   57.5810   31.9604   43.6263 H   0  0  0  0  0  0  0  0  0  0  0  0
   58.2479   30.6652   42.5753 H   0  0  0  0  0  0  0  0  0  0  0  0
   56.4835   31.0023   42.5753 H   0  0  0  0  0  0  0  0  0  0  0  0
   58.1122   28.0419   44.8580 H   0  0  0  0  0  0  0  0  0  0  0  0
   57.1328   28.0046   43.3527 H   0  0  0  0  0  0  0  0  0  0  0  0
   58.7501   28.7862   43.3527 H   0  0  0  0  0  0  0  0  0  0  0  0
   57.3720   29.8180   46.4270 H   0  0  0  0  0  0  0  0  0  0  0  0
   59.6690   30.3143   44.8993 H   0  0  0  0  0  0  0  0  0  0  0  0
   59.2679   31.7753   45.9235 H   0  0  0  0  0  0  0  0  0  0  0  0
   60.1725   29.0328   46.7472 H   0  0  0  0  0  0  0  0  0  0  0  0
   60.5833   30.6729   47.4063 H   0  0  0  0  0  0  0  0  0  0  0  0
   57.8380   29.9000   47.7100 H   0  0  0  0  0  0  0  0  0  0  0  0
   58.2251   31.6752   48.9694 H   0  0  0  0  0  0  0  0  0  0  0  0
   58.6848   30.3569   50.1390 H   0  0  0  0  0  0  0  0  0  0  0  0
   61.4220   29.6190   49.7780 H   0  0  0  0  0  0  0  0  0  0  0  0
   64.0947   30.2227   50.1481 H   0  0  0  0  0  0  0  0  0  0  0  0
   65.6969   32.1721   50.2428 H   0  0  0  0  0  0  0  0  0  0  0  0
   64.8795   34.4974   49.7912 H   0  0  0  0  0  0  0  0  0  0  0  0
   62.4503   34.9030   49.2453 H   0  0  0  0  0  0  0  0  0  0  0  0
   58.9258   33.8240   49.7028 H   0  0  0  0  0  0  0  0  0  0  0  0
   60.3024   34.7953   49.0375 H   0  0  0  0  0  0  0  0  0  0  0  0
   57.1784   33.0699   48.2449 H   0  0  0  0  0  0  0  0  0  0  0  0
   56.1709   33.0448   45.9650 H   0  0  0  0  0  0  0  0  0  0  0  0
   59.8482   34.6164   44.3180 H   0  0  0  0  0  0  0  0  0  0  0  0
   60.8660   34.6347   46.5944 H   0  0  0  0  0  0  0  0  0  0  0  0
  1  2  1  0
  2  3  1  0
  2  4  1  0
  2  5  1  0
  5  6  1  0
  6  7  1  0
  7  8  1  0
  8  9  1  0
  9 10  1  0
 10 11  2  0
 11 12  1  0
 12 13  2  0
 13 14  1  0
 14 15  2  0
 15 16  1  0
 16 17  2  0
 17 18  1  0
 18 19  1  0
 19 20  1  0
 20 21  2  0
 21 22  1  0
 22 23  2  0
 23 24  1  0
 23 25  1  0
 25 26  2  0
 18 10  1  0
 26 20  1  0
 17 12  1  0
  1 27  1  0
  1 28  1  0
  1 29  1  0
  3 30  1  0
  3 31  1  0
  3 32  1  0
  4 33  1  0
  4 34  1  0
  4 35  1  0
  5 36  1  0
  6 37  1  0
  6 38  1  0
  7 39  1  0
  7 40  1  0
  8 41  1  0
  9 42  1  0
  9 43  1  0
 11 44  1  0
 13 45  1  0
 14 46  1  0
 15 47  1  0
 16 48  1  0
 19 49  1  0
 19 50  1  0
 21 51  1  0
 22 52  1  0
 25 53  1  0
 26 54  1  0
M  CHG  1  11   1
M  END
>  <UniqueID>  (21) 
20

>  <SMILES>  (21) 
CC(C)(C)NCCNCc1[nH+]c2ccccc2n1Cc1ccc(F)cc1

>  <Energy>  (21) 
99.3657226876711

>  <Genealogy>  (21) 
CC(C)(C)NCCNCc1[nH+]c2ccccc2n1Cc1ccc(F)cc1 (protonated)
CC(C)(C)NCCNCc1[nH+]c2ccccc2n1Cc1ccc(F)cc1 (3D coordinates assigned)
CC(C)(C)NCCNCc1[nH+]c2ccccc2n1Cc1ccc(F)cc1 (optimized conformer: 99.3657226876711 kcal/mol)

>  <smiles>  (21) 
CC(C)(C)NCCNCc1nc2ccccc2n1Cc1ccc(F)cc1

>  <score_type>  (21) 
oracle

>  <origin>  (21) 
adg

>  <m_score__min__energy>  (21) 
-5.1799999999999997

>  <m_primary>  (21) 
energy

$$$$
21:0
     RDKit          3D

 84 87  0  0  0  0  0  0  0  0999 V2000
   57.6750   31.7730   43.2660 C   0  0  0  0  0  0  0  0  0  0  0  0
   57.6820   31.2580   44.7010 C   0  0  0  0  0  0  0  0  0  0  0  0
   56.7100   30.1590   44.8520 N   0  0  0  0  0  0  0  0  0  0  0  0
   55.9240   29.9490   43.6220 C   0  0  0  0  0  0  0  0  0  0  0  0
   57.3570   28.8960   45.2790 C   0  0  0  0  0  0  0  0  0  0  0  0
   58.1970   28.3480   44.1130 C   0  0  0  0  0  0  0  0  0  0  0  0
   59.5570   28.1940   44.4810 O   0  0  0  0  0  0  0  0  0  0  0  0
   59.7490   28.3060   45.8840 C   0  0  0  0  0  0  0  0  0  0  0  0
   60.3240   29.6750   46.2930 C   0  0  0  0  0  0  0  0  0  0  0  0
   59.4060   30.3100   47.1730 O   0  0  0  0  0  0  0  0  0  0  0  0
   59.5260   29.7640   48.4690 C   0  0  0  0  0  0  0  0  0  0  0  0
   58.7240   30.6020   49.4520 C   0  0  0  0  0  0  0  0  0  0  0  0
   59.5410   31.6950   49.9860 N   0  0  0  0  0  0  0  0  0  0  0  0
   60.4590   32.4040   49.1370 C   0  0  0  0  0  0  0  0  0  0  0  0
   59.9800   33.0350   47.9820 C   0  0  0  0  0  0  0  0  0  0  0  0
   58.5980   33.0990   47.7120 C   0  0  0  0  0  0  0  0  0  0  0  0
   58.1160   33.8590   46.6660 C   0  0  0  0  0  0  0  0  0  0  0  0
   58.9940   34.5740   45.8620 C   0  0  0  0  0  0  0  0  0  0  0  0
   60.3680   34.4800   46.0710 C   0  0  0  0  0  0  0  0  0  0  0  0
   60.8960   33.6680   47.1040 C   0  0  0  0  0  0  0  0  0  0  0  0
   62.2510   33.5190   47.2950 N   0  0  0  0  0  0  0  0  0  0  0  0
   63.2070   33.8380   46.2070 C   0  0  0  0  0  0  0  0  0  0  0  0
   62.7300   33.0300   48.4980 C   0  0  0  0  0  0  0  0  0  0  0  0
   64.1110   33.0780   48.8130 C   0  0  0  0  0  0  0  0  0  0  0  0
   64.5860   32.6490   50.0490 C   0  0  0  0  0  0  0  0  0  0  0  0
   63.7010   32.1920   51.0190 C   0  0  0  0  0  0  0  0  0  0  0  0
   62.3240   32.1330   50.7580 C   0  0  0  0  0  0  0  0  0  0  0  0
   61.4300   31.7660   51.7720 O   0  0  0  0  0  0  0  0  0  0  0  0
   61.6450   31.9460   53.1700 C   0  0  0  0  0  0  0  0  0  0  0  0
   60.5630   31.1560   53.9370 C   0  0  0  0  0  0  0  0  0  0  0  0
   59.2110   31.8020   53.9760 N   0  0  0  0  0  0  0  0  0  0  0  0
   58.5580   31.5210   55.3000 C   0  0  0  0  0  0  0  0  0  0  0  0
   59.4160   33.2880   53.8200 C   0  0  0  0  0  0  0  0  0  0  0  0
   59.2080   33.7580   52.3620 C   0  0  0  0  0  0  0  0  0  0  0  0
   57.8950   33.4970   51.8850 O   0  0  0  0  0  0  0  0  0  0  0  0
   57.3240   32.2940   52.3880 C   0  0  0  0  0  0  0  0  0  0  0  0
   58.3700   31.2680   52.8510 C   0  0  0  0  0  0  0  0  0  0  0  0
   61.8300   32.5030   49.4760 C   0  0  0  0  0  0  0  0  0  0  0  0
   57.6600   32.8729   43.2712 H   0  0  0  0  0  0  0  0  0  0  0  0
   58.5780   31.4210   42.7457 H   0  0  0  0  0  0  0  0  0  0  0  0
   56.7819   31.3966   42.7457 H   0  0  0  0  0  0  0  0  0  0  0  0
   58.6882   30.8900   44.9502 H   0  0  0  0  0  0  0  0  0  0  0  0
   57.4041   32.0788   45.3785 H   0  0  0  0  0  0  0  0  0  0  0  0
   54.8929   29.6735   43.8883 H   0  0  0  0  0  0  0  0  0  0  0  0
   55.9146   30.8761   43.0301 H   0  0  0  0  0  0  0  0  0  0  0  0
   56.3782   29.1407   43.0301 H   0  0  0  0  0  0  0  0  0  0  0  0
   58.0080   29.0887   46.1445 H   0  0  0  0  0  0  0  0  0  0  0  0
   56.5892   28.1612   45.5630 H   0  0  0  0  0  0  0  0  0  0  0  0
   57.7951   27.3694   43.8117 H   0  0  0  0  0  0  0  0  0  0  0  0
   58.1433   29.0658   43.2812 H   0  0  0  0  0  0  0  0  0  0  0  0
   58.7797   28.1666   46.3850 H   0  0  0  0  0  0  0  0  0  0  0  0
   60.4741   27.5355   46.1847 H   0  0  0  0  0  0  0  0  0  0  0  0
   61.2885   29.5341   46.8028 H   0  0  0  0  0  0  0  0  0  0  0  0
   60.4796   30.2982   45.4000 H   0  0  0  0  0  0  0  0  0  0  0  0
   59.1425   28.7330   48.4688 H   0  0  0  0  0  0  0  0  0  0  0  0
   60.5845   29.7632   48.7684 H   0  0  0  0  0  0  0  0  0  0  0  0
   57.8483   31.0238   48.9369 H   0  0  0  0  0  0  0  0  0  0  0  0
   58.4030   29.9598   50.2854 H   0  0  0  0  0  0  0  0  0  0  0  0
   59.2450   32.1510   50.8760 H   0  0  0  0  0  0  0  0  0  0  0  0
   57.8948   32.5359   48.3432 H   0  0  0  0  0  0  0  0  0  0  0  0
   57.0346   33.8986   46.4687 H   0  0  0  0  0  0  0  0  0  0  0  0
   58.6037   35.2159   45.0585 H   0  0  0  0  0  0  0  0  0  0  0  0
   61.0539   35.0456   45.4232 H   0  0  0  0  0  0  0  0  0  0  0  0
   64.1651   34.1577   46.6428 H   0  0  0  0  0  0  0  0  0  0  0  0
   63.3668   32.9445   45.5856 H   0  0  0  0  0  0  0  0  0  0  0  0
   62.7982   34.6484   45.5856 H   0  0  0  0  0  0  0  0  0  0  0  0
   64.8214   33.4618   48.0660 H   0  0  0  0  0  0  0  0  0  0  0  0
   65.6655   32.6716   50.2591 H   0  0  0  0  0  0  0  0  0  0  0  0
   64.0840   31.8739   51.9999 H   0  0  0  0  0  0  0  0  0  0  0  0
   62.6423   31.5709   53.4435 H   0  0  0  0  0  0  0  0  0  0  0  0
   61.5851   33.0140   53.4264 H   0  0  0  0  0  0  0  0  0  0  0  0
   60.4564   30.1714   53.4582 H   0  0  0  0  0  0  0  0  0  0  0  0
   60.9062   31.1011   54.9806 H   0  0  0  0  0  0  0  0  0  0  0  0
   59.2380   31.8136   56.1136 H   0  0  0  0  0  0  0  0  0  0  0  0
   57.6240   32.0969   55.3777 H   0  0  0  0  0  0  0  0  0  0  0  0
   58.3340   30.4469   55.3777 H   0  0  0  0  0  0  0  0  0  0  0  0
   58.6988   33.8141   54.4672 H   0  0  0  0  0  0  0  0  0  0  0  0
   60.4542   33.5165   54.1028 H   0  0  0  0  0  0  0  0  0  0  0  0
   59.3922   34.8413   52.3115 H   0  0  0  0  0  0  0  0  0  0  0  0
   59.9102   33.1967   51.7280 H   0  0  0  0  0  0  0  0  0  0  0  0
   56.6797   32.5451   53.2434 H   0  0  0  0  0  0  0  0  0  0  0  0
   56.7603   31.8330   51.5635 H   0  0  0  0  0  0  0  0  0  0  0  0
   57.8519   30.3599   53.1930 H   0  0  0  0  0  0  0  0  0  0  0  0
   59.0332   31.0467   52.0017 H   0  0  0  0  0  0  0  0  0  0  0  0
  1  2  1  0
  2  3  1  0
  3  4  1  0
  3  5  1  0
  5  6  1  0
  6  7  1  0
  7  8  1  0
  8  9  1  0
  9 10  1  0
 10 11  1  0
 11 12  1  0
 12 13  1  0
 13 14  1  0
 14 15  2  0
 15 16  1  0
 16 17  2  0
 17 18  1  0
 18 19  2  0
 19 20  1  0
 20 21  2  0
 21 22  1  0
 21 23  1  0
 23 24  2  0
 24 25  1  0
 25 26  2  0
 26 27  1  0
 27 28  1  0
 28 29  1  0
 29 30  1  0
 30 31  1  0
 31 32  1  0
 31 33  1  0
 33 34  1  0
 34 35  1  0
 35 36  1  0
 36 37  1  0
 27 38  2  0
 38 14  1  0
 20 15  1  0
 38 23  1  0
 37 31  1  0
  1 39  1  0
  1 40  1  0
  1 41  1  0
  2 42  1  0
  2 43  1  0
  4 44  1  0
  4 45  1  0
  4 46  1  0
  5 47  1  0
  5 48  1  0
  6 49  1  0
  6 50  1  0
  8 51  1  0
  8 52  1  0
  9 53  1  0
  9 54  1  0
 11 55  1  0
 11 56  1  0
 12 57  1  0
 12 58  1  0
 13 59  1  0
 16 60  1  0
 17 61  1  0
 18 62  1  0
 19 63  1  0
 22 64  1  0
 22 65  1  0
 22 66  1  0
 24 67  1  0
 25 68  1  0
 26 69  1  0
 29 70  1  0
 29 71  1  0
 30 72  1  0
 30 73  1  0
 32 74  1  0
 32 75  1  0
 32 76  1  0
 33 77  1  0
 33 78  1  0
 34 79  1  0
 34 80  1  0
 36 81  1  0
 36 82  1  0
 37 83  1  0
 37 84  1  0
M  CHG  2  21   1  31   1
M  END
>  <UniqueID>  (22) 
21

>  <SMILES>  (22) 
CCN(C)CCOCCOCCNc1c2ccccc2[n+](C)c2cccc(OCC[N+]3(C)CCOCC3)c12

>  <Energy>  (22) 
145.10144731095994

>  <Genealogy>  (22) 
CCN(C)CCOCCOCCNc1c2ccccc2[n+](C)c2cccc(OCC[N+]3(C)CCOCC3)c12 (3D coordinates assigned)
CCN(C)CCOCCOCCNc1c2ccccc2[n+](C)c2cccc(OCC[N+]3(C)CCOCC3)c12 (nonaromatic ring conformer: 145.10144731095994 kcal/mol)

>  <smiles>  (22) 
CCN(C)CCOCCOCCNc1c2ccccc2[n+](C)c2cccc(OCC[N+]3(C)CCOCC3)c12

>  <score_type>  (22) 
oracle

>  <origin>  (22) 
adg

>  <m_score__min__energy>  (22) 
-5.46

>  <m_primary>  (22) 
energy

$$$$
