0:0
     RDKit          3D

 40 42  0  0  0  0  0  0  0  0999 V2000
   59.6610   30.0680   48.5610 C   0  0  0  0  0  0  0  0  0  0  0  0
   60.0930   31.3960   48.8380 O   0  0  0  0  0  0  0  0  0  0  0  0
   61.2140   32.0090   48.2540 C   0  0  0  0  0  0  0  0  0  0  0  0
   62.2700   31.2530   47.7050 C   0  0  0  0  0  0  0  0  0  0  0  0
   63.3750   31.8910   47.1390 C   0  0  0  0  0  0  0  0  0  0  0  0
   63.4450   33.2830   47.1140 C   0  0  0  0  0  0  0  0  0  0  0  0
   62.4060   34.0450   47.6530 C   0  0  0  0  0  0  0  0  0  0  0  0
   61.2810   33.4180   48.2160 C   0  0  0  0  0  0  0  0  0  0  0  0
   60.1610   34.2570   48.7860 C   0  0  0  0  0  0  0  0  0  0  0  0
   59.2970   34.7650   47.7180 N   0  0  0  0  0  0  0  0  0  0  0  0
   58.8810   33.9970   46.5720 C   0  0  0  0  0  0  0  0  0  0  0  0
   59.0230   34.5510   45.2920 C   0  0  0  0  0  0  0  0  0  0  0  0
   58.6220   33.8420   44.1580 C   0  0  0  0  0  0  0  0  0  0  0  0
   58.0690   32.5520   44.2770 C   0  0  0  0  0  0  0  0  0  0  0  0
   57.6480   31.8040   43.1530 C   0  0  0  0  0  0  0  0  0  0  0  0
   57.7600   32.3410   41.7480 C   0  0  0  0  0  0  0  0  0  0  0  0
   57.1090   30.5240   43.3500 C   0  0  0  0  0  0  0  0  0  0  0  0
   56.9940   30.0030   44.6390 C   0  0  0  0  0  0  0  0  0  0  0  0
   56.5100   28.8530   44.8090 O   0  0  0  0  0  0  0  0  0  0  0  0
   57.4030   30.7330   45.7120 N   0  0  0  0  0  0  0  0  0  0  0  0
   57.9320   31.9820   45.5680 C   0  0  0  0  0  0  0  0  0  0  0  0
   58.3420   32.7050   46.7000 C   0  0  0  0  0  0  0  0  0  0  0  0
   59.4873   29.5341   49.5069 H   0  0  0  0  0  0  0  0  0  0  0  0
   58.7269   30.0998   47.9810 H   0  0  0  0  0  0  0  0  0  0  0  0
   60.4350   29.5441   47.9810 H   0  0  0  0  0  0  0  0  0  0  0  0
   62.2228   30.1542   47.7228 H   0  0  0  0  0  0  0  0  0  0  0  0
   64.1934   31.2933   46.7112 H   0  0  0  0  0  0  0  0  0  0  0  0
   64.3190   33.7816   46.6695 H   0  0  0  0  0  0  0  0  0  0  0  0
   62.4685   35.1431   47.6368 H   0  0  0  0  0  0  0  0  0  0  0  0
   59.5618   33.6405   49.4722 H   0  0  0  0  0  0  0  0  0  0  0  0
   60.5984   35.1118   49.3226 H   0  0  0  0  0  0  0  0  0  0  0  0
   58.9060   35.7270   47.8400 H   0  0  0  0  0  0  0  0  0  0  0  0
   59.4555   35.5562   45.1798 H   0  0  0  0  0  0  0  0  0  0  0  0
   58.7390   34.2950   43.1625 H   0  0  0  0  0  0  0  0  0  0  0  0
   57.9845   33.4173   41.7836 H   0  0  0  0  0  0  0  0  0  0  0  0
   58.5678   31.8153   41.2179 H   0  0  0  0  0  0  0  0  0  0  0  0
   56.8094   32.1821   41.2179 H   0  0  0  0  0  0  0  0  0  0  0  0
   56.7763   29.9298   42.4862 H   0  0  0  0  0  0  0  0  0  0  0  0
   57.3040   30.3170   46.6670 H   0  0  0  0  0  0  0  0  0  0  0  0
   58.2402   32.2550   47.6986 H   0  0  0  0  0  0  0  0  0  0  0  0
  1  2  1  0
  2  3  1  0
  3  4  2  0
  4  5  1  0
  5  6  2  0
  6  7  1  0
  7  8  2  0
  8  9  1  0
  9 10  1  0
 10 11  1  0
 11 12  2  0
 12 13  1  0
 13 14  2  0
 14 15  1  0
 15 16  1  0
 15 17  2  0
 17 18  1  0
 18 19  2  0
 18 20  1  0
 20 21  1  0
 21 22  2  0
  8  3  1  0
 22 11  1  0
 21 14  1  0
  1 23  1  0
  1 24  1  0
  1 25  1  0
  4 26  1  0
  5 27  1  0
  6 28  1  0
  7 29  1  0
  9 30  1  0
  9 31  1  0
 10 32  1  0
 12 33  1  0
 13 34  1  0
 16 35  1  0
 16 36  1  0
 16 37  1  0
 17 38  1  0
 20 39  1  0
 22 40  1  0
M  END
>  <UniqueID>  (1) 
1

>  <SMILES>  (1) 
COc1ccccc1CNc1ccc2c(C)cc(=O)[nH]c2c1

>  <Energy>  (1) 
46.36000671843572

>  <Genealogy>  (1) 
COc1ccccc1CNc1ccc2c(C)cc(=O)[nH]c2c1 (3D coordinates assigned)
COc1ccccc1CNc1ccc2c(C)cc(=O)[nH]c2c1 (optimized conformer: 46.36000671843572 kcal/mol)

>  <smiles>  (1) 
COc1ccccc1CNc1ccc2c(C)cc(=O)[nH]c2c1

>  <score_type>  (1) 
oracle

>  <origin>  (1) 
adg

>  <m_score__min__energy>  (1) 
-7.9800000000000004

>  <m_primary>  (1) 
energy

$$$$
1:0
     RDKit          3D

 35 37  0  0  0  0  0  0  0  0999 V2000
   58.9290   30.6440   50.1340 C   0  0  0  0  0  0  0  0  0  0  0  0
   58.5340   31.1080   48.8480 O   0  0  0  0  0  0  0  0  0  0  0  0
   58.9340   32.3330   48.2980 C   0  0  0  0  0  0  0  0  0  0  0  0
   59.5070   33.3780   49.0640 C   0  0  0  0  0  0  0  0  0  0  0  0
   59.8870   34.5920   48.4460 C   0  0  0  0  0  0  0  0  0  0  0  0
   59.7050   34.7790   47.0650 C   0  0  0  0  0  0  0  0  0  0  0  0
   59.1390   33.7350   46.3400 C   0  0  0  0  0  0  0  0  0  0  0  0
   58.8400   33.6240   45.0010 C   0  0  0  0  0  0  0  0  0  0  0  0
   58.2900   32.3490   44.8720 C   0  0  0  0  0  0  0  0  0  0  0  0
   57.8090   31.7560   43.6030 C   0  0  0  0  0  0  0  0  0  0  0  0
   57.4210   32.5410   42.6930 O   0  0  0  0  0  0  0  0  0  0  0  0
   57.7210   30.3230   43.3790 N   0  0  0  0  0  0  0  0  0  0  0  0
   58.0650   29.5100   44.5770 C   0  0  0  0  0  0  0  0  0  0  0  0
   56.9180   28.5880   45.0130 C   0  0  0  0  0  0  0  0  0  0  0  0
   55.7140   29.3140   45.0650 O   0  0  0  0  0  0  0  0  0  0  0  0
   55.2940   29.7130   43.7700 C   0  0  0  0  0  0  0  0  0  0  0  0
   56.4330   29.9520   42.7470 C   0  0  0  0  0  0  0  0  0  0  0  0
   58.2650   31.7390   46.0430 O   0  0  0  0  0  0  0  0  0  0  0  0
   58.7690   32.5580   46.9320 C   0  0  0  0  0  0  0  0  0  0  0  0
   58.4233   31.2381   50.9094 H   0  0  0  0  0  0  0  0  0  0  0  0
   58.6506   29.5854   50.2433 H   0  0  0  0  0  0  0  0  0  0  0  0
   60.0184   30.7498   50.2433 H   0  0  0  0  0  0  0  0  0  0  0  0
   59.6572   33.2444   50.1455 H   0  0  0  0  0  0  0  0  0  0  0  0
   60.3289   35.3970   49.0515 H   0  0  0  0  0  0  0  0  0  0  0  0
   59.9998   35.7183   46.5743 H   0  0  0  0  0  0  0  0  0  0  0  0
   58.9991   34.3724   44.2107 H   0  0  0  0  0  0  0  0  0  0  0  0
   58.4530   30.1010   42.6610 H   0  0  0  0  0  0  0  0  0  0  0  0
   58.9444   28.8920   44.3429 H   0  0  0  0  0  0  0  0  0  0  0  0
   58.2670   30.2053   45.4051 H   0  0  0  0  0  0  0  0  0  0  0  0
   56.8168   27.7649   44.2903 H   0  0  0  0  0  0  0  0  0  0  0  0
   57.1393   28.1813   46.0108 H   0  0  0  0  0  0  0  0  0  0  0  0
   54.6369   28.9272   43.3691 H   0  0  0  0  0  0  0  0  0  0  0  0
   54.7934   30.6840   43.8991 H   0  0  0  0  0  0  0  0  0  0  0  0
   56.5815   29.0286   42.1680 H   0  0  0  0  0  0  0  0  0  0  0  0
   56.1275   30.7959   42.1109 H   0  0  0  0  0  0  0  0  0  0  0  0
  1  2  1  0
  2  3  1  0
  3  4  2  0
  4  5  1  0
  5  6  2  0
  6  7  1  0
  7  8  1  0
  8  9  2  0
  9 10  1  0
 10 11  2  0
 10 12  1  0
 12 13  1  0
 13 14  1  0
 14 15  1  0
 15 16  1  0
 16 17  1  0
  9 18  1  0
 18 19  1  0
 19  3  1  0
 19  7  2  0
 17 12  1  0
  1 20  1  0
  1 21  1  0
  1 22  1  0
  4 23  1  0
  5 24  1  0
  6 25  1  0
  8 26  1  0
 12 27  1  0
 13 28  1  0
 13 29  1  0
 14 30  1  0
 14 31  1  0
 16 32  1  0
 16 33  1  0
 17 34  1  0
 17 35  1  0
M  CHG  1  12   1
M  END
>  <UniqueID>  (2) 
2

>  <SMILES>  (2) 
COc1cccc2cc(C(=O)[NH+]3CCOCC3)oc12

>  <Energy>  (2) 
85.33415722127246

>  <Genealogy>  (2) 
COc1cccc2cc(C(=O)[NH+]3CCOCC3)oc12 (protonated)
COc1cccc2cc(C(=O)[NH+]3CCOCC3)oc12 (3D coordinates assigned)
COc1cccc2cc(C(=O)[NH+]3CCOCC3)oc12 (nonaromatic ring conformer: 85.33415722127246 kcal/mol)

>  <smiles>  (2) 
COc1cccc2cc(C(=O)N3CCOCC3)oc12

>  <score_type>  (2) 
oracle

>  <origin>  (2) 
adg

>  <m_score__min__energy>  (2) 
-5.8600000000000003

>  <m_primary>  (2) 
energy

$$$$
2:0
     RDKit          3D

 44 47  0  0  0  0  0  0  0  0999 V2000
   60.6250   29.5148   48.4544 H   0  0  0  0  0  0  0  0  0  0  0  0
   60.0840   29.3680   47.5080 C   0  0  0  0  0  0  0  0  0  0  0  0
   58.7380   29.1850   47.4580 N   0  0  0  0  0  0  0  0  0  0  0  0
   58.3100   29.0170   46.1870 C   0  0  0  0  0  0  0  0  0  0  0  0
   57.0700   28.8230   45.8500 N   0  0  0  0  0  0  0  0  0  0  0  0
   56.3240   29.5740   44.8790 C   0  0  0  0  0  0  0  0  0  0  0  0
   55.0980   29.3180   44.7450 O   0  0  0  0  0  0  0  0  0  0  0  0
   56.9180   30.6680   44.0650 C   0  0  0  0  0  0  0  0  0  0  0  0
   56.8970   30.5600   42.6630 C   0  0  0  0  0  0  0  0  0  0  0  0
   56.4702   29.6623   42.1917 H   0  0  0  0  0  0  0  0  0  0  0  0
   57.4130   31.5820   41.8640 C   0  0  0  0  0  0  0  0  0  0  0  0
   57.4005   31.4820   40.7686 H   0  0  0  0  0  0  0  0  0  0  0  0
   57.9440   32.7290   42.4520 C   0  0  0  0  0  0  0  0  0  0  0  0
   58.3517   33.5318   41.8201 H   0  0  0  0  0  0  0  0  0  0  0  0
   57.9590   32.8600   43.8410 C   0  0  0  0  0  0  0  0  0  0  0  0
   58.3733   33.7703   44.2989 H   0  0  0  0  0  0  0  0  0  0  0  0
   57.4480   31.8360   44.6610 C   0  0  0  0  0  0  0  0  0  0  0  0
   57.4440   31.9490   46.0590 O   0  0  0  0  0  0  0  0  0  0  0  0
   57.5890   33.1650   46.7850 C   0  0  0  0  0  0  0  0  0  0  0  0
   56.9929   33.1182   47.7083 H   0  0  0  0  0  0  0  0  0  0  0  0
   57.2373   34.0099   46.1748 H   0  0  0  0  0  0  0  0  0  0  0  0
   59.0320   33.3500   47.1270 C   0  0  0  0  0  0  0  0  0  0  0  0
   59.8150   32.6040   48.4130 S   0  0  0  0  0  0  0  0  0  0  0  0
   61.2590   33.4420   48.1700 C   0  0  0  0  0  0  0  0  0  0  0  0
   62.4810   33.3140   48.9970 C   0  0  0  0  0  0  0  0  0  0  0  0
   62.6620   34.1400   50.1210 C   0  0  0  0  0  0  0  0  0  0  0  0
   61.8947   34.8839   50.3814 H   0  0  0  0  0  0  0  0  0  0  0  0
   63.8110   34.0220   50.9100 C   0  0  0  0  0  0  0  0  0  0  0  0
   63.9441   34.6724   51.7871 H   0  0  0  0  0  0  0  0  0  0  0  0
   64.7890   33.0800   50.5860 C   0  0  0  0  0  0  0  0  0  0  0  0
   65.6926   32.9894   51.2067 H   0  0  0  0  0  0  0  0  0  0  0  0
   64.6200   32.2530   49.4740 C   0  0  0  0  0  0  0  0  0  0  0  0
   65.3909   31.5104   49.2205 H   0  0  0  0  0  0  0  0  0  0  0  0
   63.4740   32.3660   48.6820 C   0  0  0  0  0  0  0  0  0  0  0  0
   63.3468   31.7108   47.8076 H   0  0  0  0  0  0  0  0  0  0  0  0
   61.1520   34.2920   47.1230 N   0  0  0  0  0  0  0  0  0  0  0  0
   59.9250   34.2450   46.5370 C   0  0  0  0  0  0  0  0  0  0  0  0
   59.5670   35.1540   45.4040 C   0  0  0  0  0  0  0  0  0  0  0  0
   59.1914   36.1076   45.8036 H   0  0  0  0  0  0  0  0  0  0  0  0
   60.4588   35.3405   44.7877 H   0  0  0  0  0  0  0  0  0  0  0  0
   58.7875   34.6823   44.7877 H   0  0  0  0  0  0  0  0  0  0  0  0
   59.5680   29.1080   45.0810 S   0  0  0  0  0  0  0  0  0  0  0  0
   60.7270   29.3560   46.2750 C   0  0  0  0  0  0  0  0  0  0  0  0
   61.8066   29.4861   46.1091 H   0  0  0  0  0  0  0  0  0  0  0  0
  1  2  1  0
  2  3  1  0
  3  4  1  0
  4  5  2  0
  5  6  1  0
  6  7  2  0
  6  8  1  0
  8  9  2  0
  9 10  1  0
  9 11  1  0
 11 12  1  0
 11 13  2  0
 13 14  1  0
 13 15  1  0
 15 16  1  0
 15 17  2  0
 17 18  1  0
 18 19  1  0
 19 20  1  0
 19 21  1  0
 19 22  1  0
 22 23  1  0
 23 24  1  0
 24 25  1  0
 25 26  2  0
 26 27  1  0
 26 28  1  0
 28 29  1  0
 28 30  2  0
 30 31  1  0
 30 32  1  0
 32 33  1  0
 32 34  2  0
 34 35  1  0
 24 36  2  0
 36 37  1  0
 37 38  1  0
 38 39  1  0
 38 40  1  0
 38 41  1  0
  4 42  1  0
 42 43  1  0
 43 44  1  0
 43  2  2  0
 17  8  1  0
 37 22  2  0
 34 25  1  0
M  CHG  1   3  -1
M  END
>  <UniqueID>  (3) 
3

>  <SMILES>  (3) 
Cc1nc(-c2ccccc2)sc1COc1ccccc1C(=O)/N=c1\[n-]ccs1

>  <Energy>  (3) 
112.02519999776861

>  <Genealogy>  (3) 
Cc1nc(-c2ccccc2)sc1COc1ccccc1C(=O)N=c1[n-]ccs1 (protonated)
Cc1nc(-c2ccccc2)sc1COc1ccccc1C(=O)/N=c1\[n-]ccs1 (cis-trans isomerization)
Cc1nc(-c2ccccc2)sc1COc1ccccc1C(=O)/N=c1\[n-]ccs1 (3D coordinates assigned)
Cc1nc(-c2ccccc2)sc1COc1ccccc1C(=O)/N=c1\[n-]ccs1 (optimized conformer: 112.02519999776861 kcal/mol)

>  <smiles>  (3) 
Cc1nc(-c2ccccc2)sc1COc1ccccc1C(=O)N=c1[nH]ccs1

>  <score_type>  (3) 
oracle

>  <origin>  (3) 
adg

>  <m_score__min__energy>  (3) 
-11.42

>  <m_primary>  (3) 
energy

$$$$
3:0
     RDKit          3D

 59 61  0  0  0  0  0  0  0  0999 V2000
   57.9060   30.3270   45.0480 C   0  0  0  0  0  0  0  0  0  0  0  0
   58.1540   29.9000   46.4950 C   0  0  0  0  0  0  0  0  0  0  0  0
   59.5910   29.9980   46.8450 N   0  0  0  0  0  0  0  0  0  0  0  0
   60.4620   29.7140   45.6740 C   0  0  0  0  0  0  0  0  0  0  0  0
   60.4400   28.2190   45.3720 C   0  0  0  0  0  0  0  0  0  0  0  0
   59.9020   29.1110   47.9900 C   0  0  0  0  0  0  0  0  0  0  0  0
   60.2200   29.9220   49.2570 C   0  0  0  0  0  0  0  0  0  0  0  0
   59.4650   31.1760   49.2640 N   0  0  0  0  0  0  0  0  0  0  0  0
   59.0080   31.8500   50.4560 C   0  0  0  0  0  0  0  0  0  0  0  0
   58.3210   31.1370   51.4600 C   0  0  0  0  0  0  0  0  0  0  0  0
   57.9190   31.7720   52.6370 C   0  0  0  0  0  0  0  0  0  0  0  0
   58.2100   33.1200   52.8390 C   0  0  0  0  0  0  0  0  0  0  0  0
   58.8830   33.8430   51.8550 C   0  0  0  0  0  0  0  0  0  0  0  0
   59.2550   33.2310   50.6470 C   0  0  0  0  0  0  0  0  0  0  0  0
   60.1210   34.2340   49.4200 S   0  0  0  0  0  0  0  0  0  0  0  0
   61.6880   33.3560   49.5960 C   0  0  0  0  0  0  0  0  0  0  0  0
   62.3540   33.4210   50.8260 C   0  0  0  0  0  0  0  0  0  0  0  0
   63.5910   32.8000   50.9970 C   0  0  0  0  0  0  0  0  0  0  0  0
   64.1680   32.0940   49.9440 C   0  0  0  0  0  0  0  0  0  0  0  0
   63.5010   31.9910   48.7230 C   0  0  0  0  0  0  0  0  0  0  0  0
   62.2490   32.6100   48.5360 C   0  0  0  0  0  0  0  0  0  0  0  0
   61.5200   32.4230   47.3100 N   0  0  0  0  0  0  0  0  0  0  0  0
   61.2400   33.4990   46.3580 C   0  0  0  0  0  0  0  0  0  0  0  0
   59.7600   33.6270   46.1390 C   0  0  0  0  0  0  0  0  0  0  0  0
   59.2620   34.3670   45.0570 C   0  0  0  0  0  0  0  0  0  0  0  0
   57.8820   34.4650   44.8720 C   0  0  0  0  0  0  0  0  0  0  0  0
   57.0180   33.8300   45.7610 C   0  0  0  0  0  0  0  0  0  0  0  0
   57.5480   33.1050   46.8300 C   0  0  0  0  0  0  0  0  0  0  0  0
   58.8940   33.0170   46.9930 N   0  0  0  0  0  0  0  0  0  0  0  0
   57.3536   31.2781   45.0359 H   0  0  0  0  0  0  0  0  0  0  0  0
   58.8697   30.4561   44.5335 H   0  0  0  0  0  0  0  0  0  0  0  0
   57.3163   29.5540   44.5335 H   0  0  0  0  0  0  0  0  0  0  0  0
   57.5762   30.5530   47.1656 H   0  0  0  0  0  0  0  0  0  0  0  0
   57.8393   28.8520   46.6073 H   0  0  0  0  0  0  0  0  0  0  0  0
   60.0928   30.2698   44.7995 H   0  0  0  0  0  0  0  0  0  0  0  0
   61.4922   30.0264   45.9001 H   0  0  0  0  0  0  0  0  0  0  0  0
   60.4317   27.6543   46.3160 H   0  0  0  0  0  0  0  0  0  0  0  0
   59.5382   27.9755   44.7911 H   0  0  0  0  0  0  0  0  0  0  0  0
   61.3343   27.9491   44.7911 H   0  0  0  0  0  0  0  0  0  0  0  0
   59.0347   28.4639   48.1875 H   0  0  0  0  0  0  0  0  0  0  0  0
   60.7865   28.5099   47.7323 H   0  0  0  0  0  0  0  0  0  0  0  0
   59.9480   29.3304   50.1436 H   0  0  0  0  0  0  0  0  0  0  0  0
   61.2953   30.1532   49.2717 H   0  0  0  0  0  0  0  0  0  0  0  0
   59.3650   31.6500   48.3400 H   0  0  0  0  0  0  0  0  0  0  0  0
   58.0994   30.0694   51.3146 H   0  0  0  0  0  0  0  0  0  0  0  0
   57.3717   31.2073   53.4061 H   0  0  0  0  0  0  0  0  0  0  0  0
   57.9087   33.6135   53.7748 H   0  0  0  0  0  0  0  0  0  0  0  0
   59.1248   34.9023   52.0264 H   0  0  0  0  0  0  0  0  0  0  0  0
   61.8975   33.9667   51.6649 H   0  0  0  0  0  0  0  0  0  0  0  0
   64.1112   32.8678   51.9639 H   0  0  0  0  0  0  0  0  0  0  0  0
   65.1506   31.6172   50.0753 H   0  0  0  0  0  0  0  0  0  0  0  0
   63.9563   31.4217   47.8992 H   0  0  0  0  0  0  0  0  0  0  0  0
   61.1870   31.4650   47.0580 H   0  0  0  0  0  0  0  0  0  0  0  0
   61.6316   34.4469   46.7558 H   0  0  0  0  0  0  0  0  0  0  0  0
   61.7253   33.2645   45.3991 H   0  0  0  0  0  0  0  0  0  0  0  0
   59.9523   34.8655   44.3606 H   0  0  0  0  0  0  0  0  0  0  0  0
   57.4781   35.0418   44.0269 H   0  0  0  0  0  0  0  0  0  0  0  0
   55.9290   33.8990   45.6222 H   0  0  0  0  0  0  0  0  0  0  0  0
   56.8748   32.6043   47.5414 H   0  0  0  0  0  0  0  0  0  0  0  0
  1  2  1  0
  2  3  1  0
  3  4  1  0
  4  5  1  0
  3  6  1  0
  6  7  1  0
  7  8  1  0
  8  9  1  0
  9 10  2  0
 10 11  1  0
 11 12  2  0
 12 13  1  0
 13 14  2  0
 14 15  1  0
 15 16  1  0
 16 17  2  0
 17 18  1  0
 18 19  2  0
 19 20  1  0
 20 21  2  0
 21 22  1  0
 22 23  1  0
 23 24  1  0
 24 25  2  0
 25 26  1  0
 26 27  2  0
 27 28  1  0
 28 29  2  0
 14  9  1  0
 21 16  1  0
 29 24  1  0
  1 30  1  0
  1 31  1  0
  1 32  1  0
  2 33  1  0
  2 34  1  0
  4 35  1  0
  4 36  1  0
  5 37  1  0
  5 38  1  0
  5 39  1  0
  6 40  1  0
  6 41  1  0
  7 42  1  0
  7 43  1  0
  8 44  1  0
 10 45  1  0
 11 46  1  0
 12 47  1  0
 13 48  1  0
 17 49  1  0
 18 50  1  0
 19 51  1  0
 20 52  1  0
 22 53  1  0
 23 54  1  0
 23 55  1  0
 25 56  1  0
 26 57  1  0
 27 58  1  0
 28 59  1  0
M  END
>  <UniqueID>  (4) 
4

>  <SMILES>  (4) 
CCN(CC)CCNc1ccccc1Sc1ccccc1NCc1ccccn1

>  <Energy>  (4) 
59.44555717125028

>  <Genealogy>  (4) 
CCN(CC)CCNc1ccccc1Sc1ccccc1NCc1ccccn1 (3D coordinates assigned)
CCN(CC)CCNc1ccccc1Sc1ccccc1NCc1ccccn1 (optimized conformer: 59.44555717125028 kcal/mol)

>  <smiles>  (4) 
CCN(CC)CCNc1ccccc1Sc1ccccc1NCc1ccccn1

>  <score_type>  (4) 
oracle

>  <origin>  (4) 
adg

>  <m_score__min__energy>  (4) 
-7.0800000000000001

>  <m_primary>  (4) 
energy

$$$$
4:0
     RDKit          3D

 57 60  0  0  0  0  0  0  0  0999 V2000
   55.4810   29.9600   43.9370 C   0  0  0  0  0  0  0  0  0  0  0  0
   56.1250   29.4340   45.0930 O   0  0  0  0  0  0  0  0  0  0  0  0
   57.4900   29.1200   45.1800 C   0  0  0  0  0  0  0  0  0  0  0  0
   57.9960   27.9270   44.6310 C   0  0  0  0  0  0  0  0  0  0  0  0
   59.3230   27.5580   44.8380 C   0  0  0  0  0  0  0  0  0  0  0  0
   60.1480   28.3450   45.6350 C   0  0  0  0  0  0  0  0  0  0  0  0
   59.6790   29.5480   46.1790 C   0  0  0  0  0  0  0  0  0  0  0  0
   60.5480   30.2380   47.1610 C   0  0  0  0  0  0  0  0  0  0  0  0
   61.3190   31.2400   46.7530 O   0  0  0  0  0  0  0  0  0  0  0  0
   62.1250   31.9120   47.5640 C   0  0  0  0  0  0  0  0  0  0  0  0
   62.8960   32.9620   47.0530 C   0  0  0  0  0  0  0  0  0  0  0  0
   63.7490   33.6810   47.8960 C   0  0  0  0  0  0  0  0  0  0  0  0
   63.8350   33.3520   49.2520 C   0  0  0  0  0  0  0  0  0  0  0  0
   63.0680   32.3020   49.7720 C   0  0  0  0  0  0  0  0  0  0  0  0
   62.2050   31.5740   48.9320 C   0  0  0  0  0  0  0  0  0  0  0  0
   61.4110   30.5150   49.4070 C   0  0  0  0  0  0  0  0  0  0  0  0
   61.4690   30.1890   50.6240 O   0  0  0  0  0  0  0  0  0  0  0  0
   60.5580   29.8310   48.5100 C   0  0  0  0  0  0  0  0  0  0  0  0
   59.7110   28.7690   48.8880 O   0  0  0  0  0  0  0  0  0  0  0  0
   60.0610   27.3890   48.9400 C   0  0  0  0  0  0  0  0  0  0  0  0
   58.3600   29.9970   45.8720 C   0  0  0  0  0  0  0  0  0  0  0  0
   57.8480   31.3580   46.3520 C   0  0  0  0  0  0  0  0  0  0  0  0
   58.7660   32.5110   46.0910 N   0  0  0  0  0  0  0  0  0  0  0  0
   58.5190   33.1860   44.7780 C   0  0  0  0  0  0  0  0  0  0  0  0
   59.5810   34.2200   44.3430 C   0  0  0  0  0  0  0  0  0  0  0  0
   59.4110   35.6440   44.9340 C   0  0  0  0  0  0  0  0  0  0  0  0
   59.6370   35.7700   46.4510 C   0  0  0  0  0  0  0  0  0  0  0  0
   60.0120   34.4470   47.1470 C   0  0  0  0  0  0  0  0  0  0  0  0
   58.8700   33.4210   47.2630 C   0  0  0  0  0  0  0  0  0  0  0  0
   54.6631   30.6280   44.2449 H   0  0  0  0  0  0  0  0  0  0  0  0
   56.2094   30.5248   43.3365 H   0  0  0  0  0  0  0  0  0  0  0  0
   55.0731   29.1335   43.3365 H   0  0  0  0  0  0  0  0  0  0  0  0
   57.3374   27.2800   44.0329 H   0  0  0  0  0  0  0  0  0  0  0  0
   59.7188   26.6440   44.3711 H   0  0  0  0  0  0  0  0  0  0  0  0
   61.1786   28.0197   45.8401 H   0  0  0  0  0  0  0  0  0  0  0  0
   62.8309   33.2223   45.9862 H   0  0  0  0  0  0  0  0  0  0  0  0
   64.3531   34.5066   47.4917 H   0  0  0  0  0  0  0  0  0  0  0  0
   64.5071   33.9195   49.9124 H   0  0  0  0  0  0  0  0  0  0  0  0
   63.1403   32.0458   50.8393 H   0  0  0  0  0  0  0  0  0  0  0  0
   60.1418   27.0705   49.9898 H   0  0  0  0  0  0  0  0  0  0  0  0
   59.2852   26.7947   48.4352 H   0  0  0  0  0  0  0  0  0  0  0  0
   61.0263   27.2363   48.4352 H   0  0  0  0  0  0  0  0  0  0  0  0
   56.8934   31.5610   45.8445 H   0  0  0  0  0  0  0  0  0  0  0  0
   57.7560   31.2818   47.4455 H   0  0  0  0  0  0  0  0  0  0  0  0
   59.7150   32.0690   46.0100 H   0  0  0  0  0  0  0  0  0  0  0  0
   58.4686   32.4074   44.0026 H   0  0  0  0  0  0  0  0  0  0  0  0
   57.5848   33.7527   44.9047 H   0  0  0  0  0  0  0  0  0  0  0  0
   60.5673   33.8417   44.6498 H   0  0  0  0  0  0  0  0  0  0  0  0
   59.4659   34.3301   43.2546 H   0  0  0  0  0  0  0  0  0  0  0  0
   60.1292   36.3070   44.4294 H   0  0  0  0  0  0  0  0  0  0  0  0
   58.3582   35.9143   44.7650 H   0  0  0  0  0  0  0  0  0  0  0  0
   60.4505   36.4909   46.6197 H   0  0  0  0  0  0  0  0  0  0  0  0
   58.6809   36.0958   46.8866 H   0  0  0  0  0  0  0  0  0  0  0  0
   60.8302   33.9826   46.5770 H   0  0  0  0  0  0  0  0  0  0  0  0
   60.2900   34.7123   48.1777 H   0  0  0  0  0  0  0  0  0  0  0  0
   59.0402   32.8114   48.1627 H   0  0  0  0  0  0  0  0  0  0  0  0
   57.9296   33.9894   47.3147 H   0  0  0  0  0  0  0  0  0  0  0  0
  1  2  1  0
  2  3  1  0
  3  4  2  0
  4  5  1  0
  5  6  2  0
  6  7  1  0
  7  8  1  0
  8  9  1  0
  9 10  1  0
 10 11  2  0
 11 12  1  0
 12 13  2  0
 13 14  1  0
 14 15  2  0
 15 16  1  0
 16 17  2  0
 16 18  1  0
 18 19  1  0
 19 20  1  0
  7 21  2  0
 21 22  1  0
 22 23  1  0
 23 24  1  0
 24 25  1  0
 25 26  1  0
 26 27  1  0
 27 28  1  0
 28 29  1  0
 21  3  1  0
 29 23  1  0
 18  8  2  0
 15 10  1  0
  1 30  1  0
  1 31  1  0
  1 32  1  0
  4 33  1  0
  5 34  1  0
  6 35  1  0
 11 36  1  0
 12 37  1  0
 13 38  1  0
 14 39  1  0
 20 40  1  0
 20 41  1  0
 20 42  1  0
 22 43  1  0
 22 44  1  0
 23 45  1  0
 24 46  1  0
 24 47  1  0
 25 48  1  0
 25 49  1  0
 26 50  1  0
 26 51  1  0
 27 52  1  0
 27 53  1  0
 28 54  1  0
 28 55  1  0
 29 56  1  0
 29 57  1  0
M  CHG  1  23   1
M  END
>  <UniqueID>  (5) 
5

>  <SMILES>  (5) 
COc1cccc(-c2oc3ccccc3c(=O)c2OC)c1C[NH+]1CCCCCC1

>  <Energy>  (5) 
98.35865557909952

>  <Genealogy>  (5) 
COc1cccc(-c2oc3ccccc3c(=O)c2OC)c1C[NH+]1CCCCCC1 (protonated)
COc1cccc(-c2oc3ccccc3c(=O)c2OC)c1C[NH+]1CCCCCC1 (3D coordinates assigned)
COc1cccc(-c2oc3ccccc3c(=O)c2OC)c1C[NH+]1CCCCCC1 (nonaromatic ring conformer: 98.35865557909952 kcal/mol)

>  <smiles>  (5) 
COc1cccc(-c2oc3ccccc3c(=O)c2OC)c1CN1CCCCCC1

>  <score_type>  (5) 
oracle

>  <origin>  (5) 
adg

>  <m_score__min__energy>  (5) 
-5.0999999999999996

>  <m_primary>  (5) 
energy

$$$$
5:0
     RDKit          3D

 49 52  0  0  0  0  0  0  0  0999 V2000
   63.2300   34.0540   51.9390 C   0  0  0  0  0  0  0  0  0  0  0  0
   63.2770   33.7560   50.4720 C   0  0  0  0  0  0  0  0  0  0  0  0
   62.2980   34.1090   49.5600 C   0  0  0  0  0  0  0  0  0  0  0  0
   62.7560   33.6140   48.3500 C   0  0  0  0  0  0  0  0  0  0  0  0
   62.1040   33.7590   47.0380 C   0  0  0  0  0  0  0  0  0  0  0  0
   62.8220   33.8630   46.0070 O   0  0  0  0  0  0  0  0  0  0  0  0
   60.6720   33.7750   46.9090 N   0  0  0  0  0  0  0  0  0  0  0  0
   59.8760   32.6990   47.5220 C   0  0  0  0  0  0  0  0  0  0  0  0
   58.4480   32.6750   46.9680 C   0  0  0  0  0  0  0  0  0  0  0  0
   58.4820   32.8330   45.5080 N   0  0  0  0  0  0  0  0  0  0  0  0
   57.8370   31.8720   44.6500 C   0  0  0  0  0  0  0  0  0  0  0  0
   57.6590   32.1450   43.2820 C   0  0  0  0  0  0  0  0  0  0  0  0
   57.0430   31.2050   42.4490 C   0  0  0  0  0  0  0  0  0  0  0  0
   56.6060   29.9850   42.9710 C   0  0  0  0  0  0  0  0  0  0  0  0
   56.7850   29.7020   44.3270 C   0  0  0  0  0  0  0  0  0  0  0  0
   57.3990   30.6390   45.1640 C   0  0  0  0  0  0  0  0  0  0  0  0
   59.2460   33.9410   44.9120 C   0  0  0  0  0  0  0  0  0  0  0  0
   60.0340   34.7150   45.9760 C   0  0  0  0  0  0  0  0  0  0  0  0
   63.9530   33.0250   48.5390 N   0  0  0  0  0  0  0  0  0  0  0  0
   64.2740   33.1130   49.8200 N   0  0  0  0  0  0  0  0  0  0  0  0
   65.4920   32.5840   50.3740 C   0  0  0  0  0  0  0  0  0  0  0  0
   65.5530   31.2640   50.8530 C   0  0  0  0  0  0  0  0  0  0  0  0
   66.7380   30.7670   51.4030 C   0  0  0  0  0  0  0  0  0  0  0  0
   67.8680   31.5860   51.4890 C   0  0  0  0  0  0  0  0  0  0  0  0
   67.8110   32.9040   51.0300 C   0  0  0  0  0  0  0  0  0  0  0  0
   66.6270   33.4050   50.4800 C   0  0  0  0  0  0  0  0  0  0  0  0
   63.3768   33.1235   52.5070 H   0  0  0  0  0  0  0  0  0  0  0  0
   64.0265   34.7686   52.1937 H   0  0  0  0  0  0  0  0  0  0  0  0
   62.2522   34.4887   52.1937 H   0  0  0  0  0  0  0  0  0  0  0  0
   61.3652   34.6593   49.7527 H   0  0  0  0  0  0  0  0  0  0  0  0
   60.3579   31.7329   47.3113 H   0  0  0  0  0  0  0  0  0  0  0  0
   59.8239   32.8812   48.6055 H   0  0  0  0  0  0  0  0  0  0  0  0
   57.9734   31.7155   47.2212 H   0  0  0  0  0  0  0  0  0  0  0  0
   57.8709   33.5001   47.4109 H   0  0  0  0  0  0  0  0  0  0  0  0
   58.0057   33.1020   42.8651 H   0  0  0  0  0  0  0  0  0  0  0  0
   56.9024   31.4269   41.3808 H   0  0  0  0  0  0  0  0  0  0  0  0
   56.1212   29.2476   42.3144 H   0  0  0  0  0  0  0  0  0  0  0  0
   56.4424   28.7405   44.7372 H   0  0  0  0  0  0  0  0  0  0  0  0
   57.5401   30.4100   46.2306 H   0  0  0  0  0  0  0  0  0  0  0  0
   59.9501   33.5326   44.1721 H   0  0  0  0  0  0  0  0  0  0  0  0
   58.5362   34.6334   44.4357 H   0  0  0  0  0  0  0  0  0  0  0  0
   60.8079   35.3238   45.4856 H   0  0  0  0  0  0  0  0  0  0  0  0
   59.3454   35.3670   46.5334 H   0  0  0  0  0  0  0  0  0  0  0  0
   64.5480   32.5840   47.8030 H   0  0  0  0  0  0  0  0  0  0  0  0
   64.6639   30.6190   50.7948 H   0  0  0  0  0  0  0  0  0  0  0  0
   66.7816   29.7304   51.7686 H   0  0  0  0  0  0  0  0  0  0  0  0
   68.8014   31.1926   51.9179 H   0  0  0  0  0  0  0  0  0  0  0  0
   68.6992   33.5490   51.1013 H   0  0  0  0  0  0  0  0  0  0  0  0
   66.5842   34.4465   50.1288 H   0  0  0  0  0  0  0  0  0  0  0  0
  1  2  1  0
  2  3  2  0
  3  4  1  0
  4  5  1  0
  5  6  2  0
  5  7  1  0
  7  8  1  0
  8  9  1  0
  9 10  1  0
 10 11  1  0
 11 12  2  0
 12 13  1  0
 13 14  2  0
 14 15  1  0
 15 16  2  0
 10 17  1  0
 17 18  1  0
  4 19  2  0
 19 20  1  0
 20 21  1  0
 21 22  2  0
 22 23  1  0
 23 24  2  0
 24 25  1  0
 25 26  2  0
 20  2  1  0
 26 21  1  0
 18  7  1  0
 16 11  1  0
  1 27  1  0
  1 28  1  0
  1 29  1  0
  3 30  1  0
  8 31  1  0
  8 32  1  0
  9 33  1  0
  9 34  1  0
 12 35  1  0
 13 36  1  0
 14 37  1  0
 15 38  1  0
 16 39  1  0
 17 40  1  0
 17 41  1  0
 18 42  1  0
 18 43  1  0
 19 44  1  0
 22 45  1  0
 23 46  1  0
 24 47  1  0
 25 48  1  0
 26 49  1  0
M  CHG  1  19   1
M  END
>  <UniqueID>  (6) 
6

>  <SMILES>  (6) 
Cc1cc(C(=O)N2CCN(c3ccccc3)CC2)[nH+]n1-c1ccccc1

>  <Energy>  (6) 
96.11792112290858

>  <Genealogy>  (6) 
Cc1cc(C(=O)N2CCN(c3ccccc3)CC2)[nH+]n1-c1ccccc1 (protonated)
Cc1cc(C(=O)N2CCN(c3ccccc3)CC2)[nH+]n1-c1ccccc1 (3D coordinates assigned)
Cc1cc(C(=O)N2CCN(c3ccccc3)CC2)[nH+]n1-c1ccccc1 (nonaromatic ring conformer: 96.11792112290858 kcal/mol)

>  <smiles>  (6) 
Cc1cc(C(=O)N2CCN(c3ccccc3)CC2)nn1-c1ccccc1

>  <score_type>  (6) 
oracle

>  <origin>  (6) 
adg

>  <m_score__min__energy>  (6) 
-7.54

>  <m_primary>  (6) 
energy

$$$$
6:0
     RDKit          3D

 60 62  0  0  0  0  0  0  0  0999 V2000
   60.6240   28.8790   44.8810 C   0  0  0  0  0  0  0  0  0  0  0  0
   59.6660   27.9850   45.6660 C   0  0  0  0  0  0  0  0  0  0  0  0
   58.2570   28.3680   45.4220 N   0  0  0  0  0  0  0  0  0  0  0  0
   57.2530   27.3100   45.6930 C   0  0  0  0  0  0  0  0  0  0  0  0
   57.6130   25.9350   45.1240 C   0  0  0  0  0  0  0  0  0  0  0  0
   58.0120   29.1440   44.1820 C   0  0  0  0  0  0  0  0  0  0  0  0
   56.5450   29.5610   43.9710 C   0  0  0  0  0  0  0  0  0  0  0  0
   56.3570   30.8900   44.4580 O   0  0  0  0  0  0  0  0  0  0  0  0
   57.3840   31.7030   44.9580 C   0  0  0  0  0  0  0  0  0  0  0  0
   57.8610   31.5790   46.2770 C   0  0  0  0  0  0  0  0  0  0  0  0
   58.8770   32.4130   46.7420 C   0  0  0  0  0  0  0  0  0  0  0  0
   59.4600   33.3600   45.8890 C   0  0  0  0  0  0  0  0  0  0  0  0
   60.5000   34.2840   46.3790 C   0  0  0  0  0  0  0  0  0  0  0  0
   61.3840   34.0080   47.3490 C   0  0  0  0  0  0  0  0  0  0  0  0
   62.9710   33.3000   46.9570 S   0  0  0  0  0  0  0  0  0  0  0  0
   63.3840   33.5100   48.6910 C   0  0  0  0  0  0  0  0  0  0  0  0
   64.5460   33.4730   49.0670 O   0  0  0  0  0  0  0  0  0  0  0  0
   62.3100   33.7820   49.6150 N   0  0  2  0  0  0  0  0  0  0  0  0
   62.0240   32.6160   50.4840 C   0  0  0  0  0  0  0  0  0  0  0  0
   61.0900   31.6010   49.8500 C   0  0  0  0  0  0  0  0  0  0  0  0
   59.7500   31.5140   50.2650 C   0  0  0  0  0  0  0  0  0  0  0  0
   58.8800   30.6070   49.6540 C   0  0  0  0  0  0  0  0  0  0  0  0
   59.3390   29.7850   48.6210 C   0  0  0  0  0  0  0  0  0  0  0  0
   60.6680   29.8650   48.2020 C   0  0  0  0  0  0  0  0  0  0  0  0
   61.5430   30.7690   48.8120 C   0  0  0  0  0  0  0  0  0  0  0  0
   61.1870   34.1420   48.7980 C   0  0  0  0  0  0  0  0  0  0  0  0
   60.1020   34.5190   49.3180 O   0  0  0  0  0  0  0  0  0  0  0  0
   58.9760   33.5010   44.5820 C   0  0  0  0  0  0  0  0  0  0  0  0
   57.9440   32.6680   44.1060 C   0  0  0  0  0  0  0  0  0  0  0  0
   57.4580   32.7600   42.7940 O   0  0  0  0  0  0  0  0  0  0  0  0
   58.1600   32.3080   41.6400 C   0  0  0  0  0  0  0  0  0  0  0  0
   61.2436   29.4572   45.5822 H   0  0  0  0  0  0  0  0  0  0  0  0
   61.2719   28.2551   44.2477 H   0  0  0  0  0  0  0  0  0  0  0  0
   60.0464   29.5684   44.2477 H   0  0  0  0  0  0  0  0  0  0  0  0
   59.8132   26.9403   45.3545 H   0  0  0  0  0  0  0  0  0  0  0  0
   59.8788   28.1029   46.7388 H   0  0  0  0  0  0  0  0  0  0  0  0
   57.1416   27.2127   46.7830 H   0  0  0  0  0  0  0  0  0  0  0  0
   56.3246   27.6231   45.1930 H   0  0  0  0  0  0  0  0  0  0  0  0
   57.7968   25.2328   45.9505 H   0  0  0  0  0  0  0  0  0  0  0  0
   56.7815   25.5646   44.5063 H   0  0  0  0  0  0  0  0  0  0  0  0
   58.5193   26.0196   44.5063 H   0  0  0  0  0  0  0  0  0  0  0  0
   58.6266   30.0555   44.2197 H   0  0  0  0  0  0  0  0  0  0  0  0
   58.2742   28.4839   43.3421 H   0  0  0  0  0  0  0  0  0  0  0  0
   56.3035   29.5252   42.8984 H   0  0  0  0  0  0  0  0  0  0  0  0
   55.8840   28.8718   44.5170 H   0  0  0  0  0  0  0  0  0  0  0  0
   57.4292   30.8191   46.9450 H   0  0  0  0  0  0  0  0  0  0  0  0
   59.2225   32.3273   47.7828 H   0  0  0  0  0  0  0  0  0  0  0  0
   60.5549   35.2783   45.9118 H   0  0  0  0  0  0  0  0  0  0  0  0
   62.5700   34.6080   50.2050 H   0  0  0  0  0  0  0  0  0  0  0  0
   62.9749   32.1151   50.7181 H   0  0  0  0  0  0  0  0  0  0  0  0
   61.5210   32.9996   51.3839 H   0  0  0  0  0  0  0  0  0  0  0  0
   59.3844   32.1629   51.0745 H   0  0  0  0  0  0  0  0  0  0  0  0
   57.8335   30.5400   49.9862 H   0  0  0  0  0  0  0  0  0  0  0  0
   58.6523   29.0744   48.1378 H   0  0  0  0  0  0  0  0  0  0  0  0
   61.0277   29.2156   47.3903 H   0  0  0  0  0  0  0  0  0  0  0  0
   62.5894   30.8292   48.4783 H   0  0  0  0  0  0  0  0  0  0  0  0
   59.4053   34.2687   43.9215 H   0  0  0  0  0  0  0  0  0  0  0  0
   59.0472   31.7368   41.9509 H   0  0  0  0  0  0  0  0  0  0  0  0
   57.5013   31.6639   41.0390 H   0  0  0  0  0  0  0  0  0  0  0  0
   58.4737   33.1742   41.0390 H   0  0  0  0  0  0  0  0  0  0  0  0
  1  2  1  0
  2  3  1  0
  3  4  1  0
  4  5  1  0
  3  6  1  0
  6  7  1  0
  7  8  1  0
  8  9  1  0
  9 10  2  0
 10 11  1  0
 11 12  2  0
 12 13  1  0
 13 14  2  3
 14 15  1  0
 15 16  1  0
 16 17  2  0
 16 18  1  0
 18 19  1  0
 19 20  1  0
 20 21  2  0
 21 22  1  0
 22 23  2  0
 23 24  1  0
 24 25  2  0
 18 26  1  0
 26 27  2  0
 12 28  1  0
 28 29  2  0
 29 30  1  0
 30 31  1  0
 29  9  1  0
 26 14  1  0
 25 20  1  0
  1 32  1  0
  1 33  1  0
  1 34  1  0
  2 35  1  0
  2 36  1  0
  4 37  1  0
  4 38  1  0
  5 39  1  0
  5 40  1  0
  5 41  1  0
  6 42  1  0
  6 43  1  0
  7 44  1  0
  7 45  1  0
 10 46  1  0
 11 47  1  0
 13 48  1  0
 18 49  1  1
 19 50  1  0
 19 51  1  0
 21 52  1  0
 22 53  1  0
 23 54  1  0
 24 55  1  0
 25 56  1  0
 28 57  1  0
 31 58  1  0
 31 59  1  0
 31 60  1  0
M  CHG  1  18   1
M  END
>  <UniqueID>  (7) 
7

>  <SMILES>  (7) 
CCN(CC)CCOc1ccc(C=C2SC(=O)[N@H+](Cc3ccccc3)C2=O)cc1OC

>  <Energy>  (7) 
90.15230829116281

>  <Genealogy>  (7) 
CCN(CC)CCOc1ccc(C=C2SC(=O)[NH+](Cc3ccccc3)C2=O)cc1OC (protonated)
CCN(CC)CCOc1ccc(C=C2SC(=O)[N@H+](Cc3ccccc3)C2=O)cc1OC (chirality)
CCN(CC)CCOc1ccc(C=C2SC(=O)[N@H+](Cc3ccccc3)C2=O)cc1OC (3D coordinates assigned)
CCN(CC)CCOc1ccc(C=C2SC(=O)[N@H+](Cc3ccccc3)C2=O)cc1OC (nonaromatic ring conformer: 90.15230829116281 kcal/mol)

>  <smiles>  (7) 
CCN(CC)CCOc1ccc(C=C2SC(=O)N(Cc3ccccc3)C2=O)cc1OC

>  <score_type>  (7) 
oracle

>  <origin>  (7) 
adg

>  <m_score__min__energy>  (7) 
-7.7599999999999998

>  <m_primary>  (7) 
energy

$$$$
7:0
     RDKit          3D

 38 40  0  0  0  0  0  0  0  0999 V2000
   55.9050   29.7060   42.9480 C   0  0  0  0  0  0  0  0  0  0  0  0
   55.9020   29.3150   44.3170 O   0  0  0  0  0  0  0  0  0  0  0  0
   56.9730   29.5180   45.2010 C   0  0  0  0  0  0  0  0  0  0  0  0
   57.5590   30.7880   45.2550 C   0  0  0  0  0  0  0  0  0  0  0  0
   58.6290   31.0410   46.1170 C   0  0  0  0  0  0  0  0  0  0  0  0
   59.1320   30.0230   46.9430 C   0  0  0  0  0  0  0  0  0  0  0  0
   60.2620   30.2820   47.8570 C   0  0  0  0  0  0  0  0  0  0  0  0
   61.3220   31.0590   47.5390 N   0  0  0  0  0  0  0  0  0  0  0  0
   62.0780   31.0150   48.6520 C   0  0  0  0  0  0  0  0  0  0  0  0
   63.4160   31.6740   48.7870 C   0  0  0  0  0  0  0  0  0  0  0  0
   63.7590   32.3960   47.5500 N   0  0  0  0  0  0  0  0  0  0  0  0
   63.3860   33.8180   47.6230 C   0  0  0  0  0  0  0  0  0  0  0  0
   61.8990   34.0120   47.5400 C   0  0  0  0  0  0  0  0  0  0  0  0
   61.1410   34.0200   46.3770 C   0  0  0  0  0  0  0  0  0  0  0  0
   59.7700   34.1740   46.6140 C   0  0  0  0  0  0  0  0  0  0  0  0
   59.4470   34.2820   47.9600 C   0  0  0  0  0  0  0  0  0  0  0  0
   60.8670   34.1810   48.8560 S   0  0  0  0  0  0  0  0  0  0  0  0
   61.4730   30.2090   49.5910 C   0  0  0  0  0  0  0  0  0  0  0  0
   60.3520   29.7780   49.0700 O   0  0  0  0  0  0  0  0  0  0  0  0
   58.5460   28.7480   46.8910 C   0  0  0  0  0  0  0  0  0  0  0  0
   57.4740   28.4950   46.0280 C   0  0  0  0  0  0  0  0  0  0  0  0
   55.9134   30.8039   42.8803 H   0  0  0  0  0  0  0  0  0  0  0  0
   56.8001   29.3012   42.4530 H   0  0  0  0  0  0  0  0  0  0  0  0
   55.0038   29.3150   42.4530 H   0  0  0  0  0  0  0  0  0  0  0  0
   57.1737   31.5939   44.6131 H   0  0  0  0  0  0  0  0  0  0  0  0
   59.0801   32.0437   46.1488 H   0  0  0  0  0  0  0  0  0  0  0  0
   63.3870   32.3851   49.6257 H   0  0  0  0  0  0  0  0  0  0  0  0
   64.1772   30.9020   48.9727 H   0  0  0  0  0  0  0  0  0  0  0  0
   63.2360   31.9660   46.7510 H   0  0  0  0  0  0  0  0  0  0  0  0
   64.7850   32.3080   47.3580 H   0  0  0  0  0  0  0  0  0  0  0  0
   63.7459   34.2315   48.5767 H   0  0  0  0  0  0  0  0  0  0  0  0
   63.8455   34.3353   46.7678 H   0  0  0  0  0  0  0  0  0  0  0  0
   61.5739   33.9159   45.3711 H   0  0  0  0  0  0  0  0  0  0  0  0
   59.0198   34.2064   45.8102 H   0  0  0  0  0  0  0  0  0  0  0  0
   58.4348   34.4116   48.3706 H   0  0  0  0  0  0  0  0  0  0  0  0
   61.8600   29.9715   50.5929 H   0  0  0  0  0  0  0  0  0  0  0  0
   58.9323   27.9426   47.5330 H   0  0  0  0  0  0  0  0  0  0  0  0
   57.0211   27.4931   45.9957 H   0  0  0  0  0  0  0  0  0  0  0  0
  1  2  1  0
  2  3  1  0
  3  4  2  0
  4  5  1  0
  5  6  2  0
  6  7  1  0
  7  8  2  0
  8  9  1  0
  9 10  1  0
 10 11  1  0
 11 12  1  0
 12 13  1  0
 13 14  2  0
 14 15  1  0
 15 16  2  0
 16 17  1  0
  9 18  2  0
 18 19  1  0
  6 20  1  0
 20 21  2  0
 21  3  1  0
 19  7  1  0
 17 13  1  0
  1 22  1  0
  1 23  1  0
  1 24  1  0
  4 25  1  0
  5 26  1  0
 10 27  1  0
 10 28  1  0
 11 29  1  0
 11 30  1  0
 12 31  1  0
 12 32  1  0
 14 33  1  0
 15 34  1  0
 16 35  1  0
 18 36  1  0
 20 37  1  0
 21 38  1  0
M  CHG  1  11   1
M  END
>  <UniqueID>  (8) 
8

>  <SMILES>  (8) 
COc1ccc(-c2nc(C[NH2+]Cc3cccs3)co2)cc1

>  <Energy>  (8) 
92.70278758453487

>  <Genealogy>  (8) 
COc1ccc(-c2nc(C[NH2+]Cc3cccs3)co2)cc1 (protonated)
COc1ccc(-c2nc(C[NH2+]Cc3cccs3)co2)cc1 (3D coordinates assigned)
COc1ccc(-c2nc(C[NH2+]Cc3cccs3)co2)cc1 (optimized conformer: 92.70278758453487 kcal/mol)

>  <smiles>  (8) 
COc1ccc(-c2nc(CNCc3cccs3)co2)cc1

>  <score_type>  (8) 
oracle

>  <origin>  (8) 
adg

>  <m_score__min__energy>  (8) 
-5.1200000000000001

>  <m_primary>  (8) 
energy

$$$$
8:0
     RDKit          3D

 59 61  0  0  0  0  0  0  0  0999 V2000
   56.7400   20.7130   42.9920 C   0  0  0  0  0  0  0  0  0  0  0  0
   55.9020   21.8610   43.0760 O   0  0  0  0  0  0  0  0  0  0  0  0
   56.1920   23.0050   43.8380 C   0  0  0  0  0  0  0  0  0  0  0  0
   57.4820   23.5680   43.8770 C   0  0  0  0  0  0  0  0  0  0  0  0
   57.7330   24.7040   44.6490 C   0  0  0  0  0  0  0  0  0  0  0  0
   56.7050   25.2840   45.3970 C   0  0  0  0  0  0  0  0  0  0  0  0
   57.0280   26.7460   46.3910 S   0  0  0  0  0  0  0  0  0  0  0  0
   58.1250   25.8990   47.5840 C   0  0  0  0  0  0  0  0  0  0  0  0
   59.5730   25.8960   47.0860 C   0  0  0  0  0  0  0  0  0  0  0  0
   60.3960   26.9950   47.7940 C   0  0  0  0  0  0  0  0  0  0  0  0
   60.1000   28.3810   47.3540 N   0  0  0  0  0  0  0  0  0  0  0  0
   59.0710   29.0300   48.1770 C   0  0  0  0  0  0  0  0  0  0  0  0
   58.9410   30.5260   47.8440 C   0  0  0  0  0  0  0  0  0  0  0  0
   59.2080   30.9010   46.4290 N   0  0  0  0  0  0  0  0  0  0  0  0
   59.0650   32.3160   46.0420 C   0  0  0  0  0  0  0  0  0  0  0  0
   60.0810   33.2490   46.3850 C   0  0  0  0  0  0  0  0  0  0  0  0
   59.9890   34.5970   46.0450 C   0  0  0  0  0  0  0  0  0  0  0  0
   58.8870   35.0690   45.3490 C   0  0  0  0  0  0  0  0  0  0  0  0
   57.8730   34.1930   44.9820 C   0  0  0  0  0  0  0  0  0  0  0  0
   57.9380   32.8200   45.3070 C   0  0  0  0  0  0  0  0  0  0  0  0
   56.9030   31.9630   44.8980 O   0  0  0  0  0  0  0  0  0  0  0  0
   56.9790   31.0250   43.8280 C   0  0  0  0  0  0  0  0  0  0  0  0
   59.7250   29.9080   45.4590 C   0  0  0  0  0  0  0  0  0  0  0  0
   59.6850   28.4590   45.9470 C   0  0  0  0  0  0  0  0  0  0  0  0
   55.4190   24.7390   45.3560 C   0  0  0  0  0  0  0  0  0  0  0  0
   55.1550   23.5930   44.5790 C   0  0  0  0  0  0  0  0  0  0  0  0
   53.8790   23.0120   44.5180 O   0  0  0  0  0  0  0  0  0  0  0  0
   52.6600   23.7110   44.7550 C   0  0  0  0  0  0  0  0  0  0  0  0
   56.9919   20.3679   44.0057 H   0  0  0  0  0  0  0  0  0  0  0  0
   56.2123   19.9125   42.4527 H   0  0  0  0  0  0  0  0  0  0  0  0
   57.6632   20.9716   42.4527 H   0  0  0  0  0  0  0  0  0  0  0  0
   58.2964   23.1104   43.2962 H   0  0  0  0  0  0  0  0  0  0  0  0
   58.7414   25.1430   44.6684 H   0  0  0  0  0  0  0  0  0  0  0  0
   58.0775   26.4213   48.5509 H   0  0  0  0  0  0  0  0  0  0  0  0
   57.7883   24.8575   47.6937 H   0  0  0  0  0  0  0  0  0  0  0  0
   60.0248   24.9152   47.2953 H   0  0  0  0  0  0  0  0  0  0  0  0
   59.5753   26.0941   46.0040 H   0  0  0  0  0  0  0  0  0  0  0  0
   60.1955   26.9294   48.8736 H   0  0  0  0  0  0  0  0  0  0  0  0
   61.4481   26.8075   47.5333 H   0  0  0  0  0  0  0  0  0  0  0  0
   60.9940   28.9170   47.4700 H   0  0  0  0  0  0  0  0  0  0  0  0
   58.1044   28.5380   47.9937 H   0  0  0  0  0  0  0  0  0  0  0  0
   59.3650   28.9365   49.2329 H   0  0  0  0  0  0  0  0  0  0  0  0
   57.9147   30.8379   48.0877 H   0  0  0  0  0  0  0  0  0  0  0  0
   59.7160   31.0323   48.4381 H   0  0  0  0  0  0  0  0  0  0  0  0
   60.9659   32.8964   46.9351 H   0  0  0  0  0  0  0  0  0  0  0  0
   60.7944   35.2898   46.3301 H   0  0  0  0  0  0  0  0  0  0  0  0
   58.8155   36.1351   45.0878 H   0  0  0  0  0  0  0  0  0  0  0  0
   57.0033   34.5759   44.4279 H   0  0  0  0  0  0  0  0  0  0  0  0
   57.0614   30.0074   44.2376 H   0  0  0  0  0  0  0  0  0  0  0  0
   56.0719   31.0992   43.2102 H   0  0  0  0  0  0  0  0  0  0  0  0
   57.8623   31.2443   43.2102 H   0  0  0  0  0  0  0  0  0  0  0  0
   59.1213   29.9778   44.5421 H   0  0  0  0  0  0  0  0  0  0  0  0
   60.7852   30.1530   45.2979 H   0  0  0  0  0  0  0  0  0  0  0  0
   58.6600   28.0718   45.8494 H   0  0  0  0  0  0  0  0  0  0  0  0
   60.3757   27.8579   45.3374 H   0  0  0  0  0  0  0  0  0  0  0  0
   54.6081   25.2070   45.9334 H   0  0  0  0  0  0  0  0  0  0  0  0
   52.4960   23.8051   45.8386 H   0  0  0  0  0  0  0  0  0  0  0  0
   52.7183   24.7129   44.3047 H   0  0  0  0  0  0  0  0  0  0  0  0
   51.8248   23.1546   44.3047 H   0  0  0  0  0  0  0  0  0  0  0  0
  1  2  1  0
  2  3  1  0
  3  4  2  0
  4  5  1  0
  5  6  2  0
  6  7  1  0
  7  8  1  0
  8  9  1  0
  9 10  1  0
 10 11  1  0
 11 12  1  0
 12 13  1  0
 13 14  1  0
 14 15  1  0
 15 16  2  0
 16 17  1  0
 17 18  2  0
 18 19  1  0
 19 20  2  0
 20 21  1  0
 21 22  1  0
 14 23  1  0
 23 24  1  0
  6 25  1  0
 25 26  2  0
 26 27  1  0
 27 28  1  0
 26  3  1  0
 24 11  1  0
 20 15  1  0
  1 29  1  0
  1 30  1  0
  1 31  1  0
  4 32  1  0
  5 33  1  0
  8 34  1  0
  8 35  1  0
  9 36  1  0
  9 37  1  0
 10 38  1  0
 10 39  1  0
 11 40  1  0
 12 41  1  0
 12 42  1  0
 13 43  1  0
 13 44  1  0
 16 45  1  0
 17 46  1  0
 18 47  1  0
 19 48  1  0
 22 49  1  0
 22 50  1  0
 22 51  1  0
 23 52  1  0
 23 53  1  0
 24 54  1  0
 24 55  1  0
 25 56  1  0
 28 57  1  0
 28 58  1  0
 28 59  1  0
M  CHG  1  11   1
M  END
>  <UniqueID>  (9) 
9

>  <SMILES>  (9) 
COc1ccc(SCCC[NH+]2CCN(c3ccccc3OC)CC2)cc1OC

>  <Energy>  (9) 
69.14744940414663

>  <Genealogy>  (9) 
COc1ccc(SCCC[NH+]2CCN(c3ccccc3OC)CC2)cc1OC (protonated)
COc1ccc(SCCC[NH+]2CCN(c3ccccc3OC)CC2)cc1OC (3D coordinates assigned)
COc1ccc(SCCC[NH+]2CCN(c3ccccc3OC)CC2)cc1OC (nonaromatic ring conformer: 69.14744940414663 kcal/mol)

>  <smiles>  (9) 
COc1ccc(SCCCN2CCN(c3ccccc3OC)CC2)cc1OC

>  <score_type>  (9) 
oracle

>  <origin>  (9) 
adg

>  <m_score__min__energy>  (9) 
-6.3499999999999996

>  <m_primary>  (9) 
energy

$$$$
9:0
     RDKit          3D

 52 54  0  0  0  0  0  0  0  0999 V2000
   61.8790   30.8720   47.1170 C   0  0  0  0  0  0  0  0  0  0  0  0
   62.5730   31.9330   47.9810 C   0  0  0  0  0  0  0  0  0  0  0  0
   62.2130   33.3320   47.6530 N   0  0  0  0  0  0  0  0  0  0  0  0
   63.3310   34.0520   47.0190 C   0  0  0  0  0  0  0  0  0  0  0  0
   61.6570   34.1170   48.7790 C   0  0  0  0  0  0  0  0  0  0  0  0
   60.1100   34.2120   48.7710 C   0  0  0  0  0  0  0  0  0  0  0  0
   59.4300   33.3930   47.7330 N   0  0  0  0  0  0  0  0  0  0  0  0
   58.8910   32.1650   48.0640 C   0  0  0  0  0  0  0  0  0  0  0  0
   58.7660   31.5850   49.7810 S   0  0  0  0  0  0  0  0  0  0  0  0
   60.1280   30.3640   49.7300 C   0  0  0  0  0  0  0  0  0  0  0  0
   59.6820   29.0450   49.1850 C   0  0  0  0  0  0  0  0  0  0  0  0
   60.2390   27.9870   49.5830 O   0  0  0  0  0  0  0  0  0  0  0  0
   58.5880   28.9930   48.2610 N   0  0  0  0  0  0  0  0  0  0  0  0
   58.6340   28.5060   46.9120 C   0  0  0  0  0  0  0  0  0  0  0  0
   57.5660   27.7860   46.3390 C   0  0  0  0  0  0  0  0  0  0  0  0
   57.6680   27.2970   45.0340 C   0  0  0  0  0  0  0  0  0  0  0  0
   58.8340   27.5100   44.2940 C   0  0  0  0  0  0  0  0  0  0  0  0
   59.9050   28.2040   44.8630 C   0  0  0  0  0  0  0  0  0  0  0  0
   59.8070   28.6930   46.1700 C   0  0  0  0  0  0  0  0  0  0  0  0
   58.2920   31.3960   47.1130 N   0  0  0  0  0  0  0  0  0  0  0  0
   58.1910   31.8060   45.8240 C   0  0  0  0  0  0  0  0  0  0  0  0
   57.5980   30.9780   44.8580 C   0  0  0  0  0  0  0  0  0  0  0  0
   57.4640   31.4200   43.5400 C   0  0  0  0  0  0  0  0  0  0  0  0
   57.9100   32.6940   43.1810 C   0  0  0  0  0  0  0  0  0  0  0  0
   58.4930   33.5290   44.1380 C   0  0  0  0  0  0  0  0  0  0  0  0
   58.6440   33.0870   45.4680 C   0  0  0  0  0  0  0  0  0  0  0  0
   59.2200   33.8910   46.4640 C   0  0  0  0  0  0  0  0  0  0  0  0
   59.5270   35.0830   46.1840 O   0  0  0  0  0  0  0  0  0  0  0  0
   61.3934   30.1297   47.7675 H   0  0  0  0  0  0  0  0  0  0  0  0
   61.1214   31.3545   46.4820 H   0  0  0  0  0  0  0  0  0  0  0  0
   62.6246   30.3712   46.4820 H   0  0  0  0  0  0  0  0  0  0  0  0
   62.3051   31.7478   49.0317 H   0  0  0  0  0  0  0  0  0  0  0  0
   63.6511   31.8360   47.7851 H   0  0  0  0  0  0  0  0  0  0  0  0
   63.9845   34.4729   47.7973 H   0  0  0  0  0  0  0  0  0  0  0  0
   63.9079   33.3553   46.3931 H   0  0  0  0  0  0  0  0  0  0  0  0
   62.9354   34.8655   46.3931 H   0  0  0  0  0  0  0  0  0  0  0  0
   61.9706   33.6428   49.7207 H   0  0  0  0  0  0  0  0  0  0  0  0
   62.0417   35.1424   48.6758 H   0  0  0  0  0  0  0  0  0  0  0  0
   59.7441   33.8854   49.7556 H   0  0  0  0  0  0  0  0  0  0  0  0
   59.8701   35.2599   48.5380 H   0  0  0  0  0  0  0  0  0  0  0  0
   60.9330   30.7573   49.0919 H   0  0  0  0  0  0  0  0  0  0  0  0
   60.4773   30.2036   50.7606 H   0  0  0  0  0  0  0  0  0  0  0  0
   56.6496   27.6086   46.9210 H   0  0  0  0  0  0  0  0  0  0  0  0
   56.8286   26.7432   44.5883 H   0  0  0  0  0  0  0  0  0  0  0  0
   58.9087   27.1315   43.2639 H   0  0  0  0  0  0  0  0  0  0  0  0
   60.8255   28.3659   44.2830 H   0  0  0  0  0  0  0  0  0  0  0  0
   60.6572   29.2281   46.6181 H   0  0  0  0  0  0  0  0  0  0  0  0
   57.8750   30.4800   47.3940 H   0  0  0  0  0  0  0  0  0  0  0  0
   57.2376   29.9777   45.1400 H   0  0  0  0  0  0  0  0  0  0  0  0
   57.0069   30.7644   42.7842 H   0  0  0  0  0  0  0  0  0  0  0  0
   57.8021   33.0408   42.1427 H   0  0  0  0  0  0  0  0  0  0  0  0
   58.8352   34.5346   43.8524 H   0  0  0  0  0  0  0  0  0  0  0  0
  1  2  1  0
  2  3  1  0
  3  4  1  0
  3  5  1  0
  5  6  1  0
  6  7  1  0
  7  8  1  0
  8  9  1  0
  9 10  1  0
 10 11  1  0
 11 12  2  0
 11 13  1  0
 13 14  1  0
 14 15  2  0
 15 16  1  0
 16 17  2  0
 17 18  1  0
 18 19  2  0
  8 20  2  0
 20 21  1  0
 21 22  2  0
 22 23  1  0
 23 24  2  0
 24 25  1  0
 25 26  2  0
 26 27  1  0
 27 28  2  0
 27  7  1  0
 19 14  1  0
 26 21  1  0
  1 29  1  0
  1 30  1  0
  1 31  1  0
  2 32  1  0
  2 33  1  0
  4 34  1  0
  4 35  1  0
  4 36  1  0
  5 37  1  0
  5 38  1  0
  6 39  1  0
  6 40  1  0
 10 41  1  0
 10 42  1  0
 15 43  1  0
 16 44  1  0
 17 45  1  0
 18 46  1  0
 19 47  1  0
 20 48  1  0
 22 49  1  0
 23 50  1  0
 24 51  1  0
 25 52  1  0
M  CHG  2  13  -1  20   1
M  END
>  <UniqueID>  (10) 
10

>  <SMILES>  (10) 
CCN(C)CCn1c(SCC(=O)[N-]c2ccccc2)[nH+]c2ccccc2c1=O

>  <Energy>  (10) 
67.10470720977219

>  <Genealogy>  (10) 
CCN(C)CCn1c(SCC(=O)[N-]c2ccccc2)[nH+]c2ccccc2c1=O (protonated)
CCN(C)CCn1c(SCC(=O)[N-]c2ccccc2)[nH+]c2ccccc2c1=O (3D coordinates assigned)
CCN(C)CCn1c(SCC(=O)[N-]c2ccccc2)[nH+]c2ccccc2c1=O (optimized conformer: 67.10470720977219 kcal/mol)

>  <smiles>  (10) 
CCN(C)CCn1c(SCC(=O)Nc2ccccc2)nc2ccccc2c1=O

>  <score_type>  (10) 
oracle

>  <origin>  (10) 
adg

>  <m_score__min__energy>  (10) 
-8.0999999999999996

>  <m_primary>  (10) 
energy

$$$$
10:0
     RDKit          3D

 51 53  0  0  0  0  0  0  0  0999 V2000
   56.1450   31.2050   51.9630 C   0  0  0  0  0  0  0  0  0  0  0  0
   57.3080   30.9720   51.7480 C   0  0  0  0  0  0  0  0  0  0  0  0
   58.7310   30.6960   51.4940 C   0  0  0  0  0  0  0  0  0  0  0  0
   59.4250   31.8630   50.8950 N   0  0  1  0  0  0  0  0  0  0  0  0
   59.7390   32.9240   51.8980 C   0  0  0  0  0  0  0  0  0  0  0  0
   58.5940   33.9280   52.0650 C   0  0  0  0  0  0  0  0  0  0  0  0
   60.6420   31.4340   50.1550 C   0  0  0  0  0  0  0  0  0  0  0  0
   60.4930   30.0840   49.4040 C   0  0  0  0  0  0  0  0  0  0  0  0
   59.7530   30.2390   48.0650 C   0  0  0  0  0  0  0  0  0  0  0  0
   60.0350   31.5450   47.4420 N   0  0  0  0  0  0  0  0  0  0  0  0
   61.3780   32.0820   47.4440 C   0  0  0  0  0  0  0  0  0  0  0  0
   62.4510   31.1980   47.2050 C   0  0  0  0  0  0  0  0  0  0  0  0
   63.7690   31.6500   47.2000 C   0  0  0  0  0  0  0  0  0  0  0  0
   64.0460   32.9940   47.4220 C   0  0  0  0  0  0  0  0  0  0  0  0
   63.0040   33.8920   47.6450 C   0  0  0  0  0  0  0  0  0  0  0  0
   61.6620   33.4670   47.6680 C   0  0  0  0  0  0  0  0  0  0  0  0
   60.6300   34.5700   47.8730 C   0  0  0  0  0  0  0  0  0  0  0  0
   59.2070   34.1320   48.2250 C   0  0  0  0  0  0  0  0  0  0  0  0
   58.5680   33.4620   47.0460 C   0  0  0  0  0  0  0  0  0  0  0  0
   57.5630   34.1000   46.3010 C   0  0  0  0  0  0  0  0  0  0  0  0
   56.9970   33.4580   45.1960 C   0  0  0  0  0  0  0  0  0  0  0  0
   57.4350   32.1840   44.8250 C   0  0  0  0  0  0  0  0  0  0  0  0
   58.4420   31.5510   45.5580 C   0  0  0  0  0  0  0  0  0  0  0  0
   59.0180   32.1930   46.6650 C   0  0  0  0  0  0  0  0  0  0  0  0
   55.0837   31.4176   52.1592 H   0  0  0  0  0  0  0  0  0  0  0  0
   59.2193   30.4429   52.4466 H   0  0  0  0  0  0  0  0  0  0  0  0
   58.7932   29.8607   50.7809 H   0  0  0  0  0  0  0  0  0  0  0  0
   58.7880   32.2590   50.1600 H   0  0  0  0  0  0  0  0  0  0  0  0
   59.9335   32.4454   52.8692 H   0  0  0  0  0  0  0  0  0  0  0  0
   60.6191   33.4764   51.5370 H   0  0  0  0  0  0  0  0  0  0  0  0
   58.4050   34.0938   53.1359 H   0  0  0  0  0  0  0  0  0  0  0  0
   58.8696   34.8809   51.5895 H   0  0  0  0  0  0  0  0  0  0  0  0
   57.6853   33.5303   51.5895 H   0  0  0  0  0  0  0  0  0  0  0  0
   60.8887   32.2123   49.4179 H   0  0  0  0  0  0  0  0  0  0  0  0
   61.4319   31.2896   50.9067 H   0  0  0  0  0  0  0  0  0  0  0  0
   61.4955   29.6754   49.2088 H   0  0  0  0  0  0  0  0  0  0  0  0
   59.9006   29.4093   50.0395 H   0  0  0  0  0  0  0  0  0  0  0  0
   60.0771   29.4396   47.3825 H   0  0  0  0  0  0  0  0  0  0  0  0
   58.6720   30.1738   48.2576 H   0  0  0  0  0  0  0  0  0  0  0  0
   62.2437   30.1338   47.0194 H   0  0  0  0  0  0  0  0  0  0  0  0
   64.5916   30.9422   47.0201 H   0  0  0  0  0  0  0  0  0  0  0  0
   65.0873   33.3485   47.4216 H   0  0  0  0  0  0  0  0  0  0  0  0
   63.2349   34.9553   47.8065 H   0  0  0  0  0  0  0  0  0  0  0  0
   60.9903   35.2144   48.6885 H   0  0  0  0  0  0  0  0  0  0  0  0
   60.5430   35.0656   46.8949 H   0  0  0  0  0  0  0  0  0  0  0  0
   59.2414   33.4277   49.0692 H   0  0  0  0  0  0  0  0  0  0  0  0
   58.6154   35.0175   48.5004 H   0  0  0  0  0  0  0  0  0  0  0  0
   57.2210   35.1055   46.5872 H   0  0  0  0  0  0  0  0  0  0  0  0
   56.2054   33.9565   44.6174 H   0  0  0  0  0  0  0  0  0  0  0  0
   56.9871   31.6796   43.9561 H   0  0  0  0  0  0  0  0  0  0  0  0
   58.7842   30.5470   45.2667 H   0  0  0  0  0  0  0  0  0  0  0  0
  1  2  3  0
  2  3  1  0
  3  4  1  0
  4  5  1  0
  5  6  1  0
  4  7  1  0
  7  8  1  0
  8  9  1  0
  9 10  1  0
 10 11  1  0
 11 12  2  0
 12 13  1  0
 13 14  2  0
 14 15  1  0
 15 16  2  0
 16 17  1  0
 17 18  1  0
 18 19  1  0
 19 20  2  0
 20 21  1  0
 21 22  2  0
 22 23  1  0
 23 24  2  0
 24 10  1  0
 16 11  1  0
 24 19  1  0
  1 25  1  0
  3 26  1  0
  3 27  1  0
  4 28  1  6
  5 29  1  0
  5 30  1  0
  6 31  1  0
  6 32  1  0
  6 33  1  0
  7 34  1  0
  7 35  1  0
  8 36  1  0
  8 37  1  0
  9 38  1  0
  9 39  1  0
 12 40  1  0
 13 41  1  0
 14 42  1  0
 15 43  1  0
 17 44  1  0
 17 45  1  0
 18 46  1  0
 18 47  1  0
 20 48  1  0
 21 49  1  0
 22 50  1  0
 23 51  1  0
M  CHG  1   4   1
M  END
>  <UniqueID>  (11) 
11

>  <SMILES>  (11) 
C#CC[N@@H+](CC)CCCN1c2ccccc2CCc2ccccc21

>  <Energy>  (11) 
72.38779795852484

>  <Genealogy>  (11) 
C#CC[NH+](CC)CCCN1c2ccccc2CCc2ccccc21 (protonated)
C#CC[N@@H+](CC)CCCN1c2ccccc2CCc2ccccc21 (chirality)
C#CC[N@@H+](CC)CCCN1c2ccccc2CCc2ccccc21 (3D coordinates assigned)
C#CC[N@@H+](CC)CCCN1c2ccccc2CCc2ccccc21 (nonaromatic ring conformer: 72.38779795852484 kcal/mol)

>  <smiles>  (11) 
C#CCN(CC)CCCN1c2ccccc2CCc2ccccc21

>  <score_type>  (11) 
oracle

>  <origin>  (11) 
adg

>  <m_score__min__energy>  (11) 
-4.3899999999999997

>  <m_primary>  (11) 
energy

$$$$
11:0
     RDKit          3D

 43 44  0  0  0  0  0  0  0  0999 V2000
   59.4680   29.6070   48.8370 C   0  0  0  0  0  0  0  0  0  0  0  0
   60.8030   29.5160   48.0980 C   0  0  0  0  0  0  0  0  0  0  0  0
   60.8230   30.3390   46.8750 N   0  0  0  0  0  0  0  0  0  0  0  0
   59.6110   30.1850   46.0960 C   0  0  0  0  0  0  0  0  0  0  0  0
   59.3290   28.9440   45.4960 C   0  0  0  0  0  0  0  0  0  0  0  0
   58.1850   28.7570   44.7030 C   0  0  0  0  0  0  0  0  0  0  0  0
   57.9270   27.3950   44.1150 C   0  0  0  0  0  0  0  0  0  0  0  0
   57.3080   29.8470   44.4790 C   0  0  0  0  0  0  0  0  0  0  0  0
   56.1460   29.7330   43.6360 N   0  0  0  0  0  0  0  0  0  0  0  0
   55.0520   29.3540   44.1050 O   0  0  0  0  0  0  0  0  0  0  0  0
   56.2680   29.8670   42.2730 O   0  0  0  0  0  0  0  0  0  0  0  0
   57.5690   31.0720   45.1130 C   0  0  0  0  0  0  0  0  0  0  0  0
   58.6970   31.2470   45.9220 C   0  0  0  0  0  0  0  0  0  0  0  0
   58.8760   32.5080   46.5840 N   0  0  0  0  0  0  0  0  0  0  0  0
   58.3310   32.7140   47.9280 C   0  0  0  0  0  0  0  0  0  0  0  0
   59.4360   33.1340   48.9220 C   0  0  0  0  0  0  0  0  0  0  0  0
   60.6230   33.7310   48.2640 N   0  0  0  0  0  0  0  0  0  0  0  0
   61.3620   34.5830   49.2070 C   0  0  0  0  0  0  0  0  0  0  0  0
   60.2600   34.4910   47.0560 C   0  0  0  0  0  0  0  0  0  0  0  0
   59.7680   33.5100   45.9900 C   0  0  0  0  0  0  0  0  0  0  0  0
   59.6480   29.5947   49.9221 H   0  0  0  0  0  0  0  0  0  0  0  0
   58.9587   30.5419   48.5603 H   0  0  0  0  0  0  0  0  0  0  0  0
   58.8366   28.7498   48.5603 H   0  0  0  0  0  0  0  0  0  0  0  0
   61.6032   29.8608   48.7695 H   0  0  0  0  0  0  0  0  0  0  0  0
   60.9520   28.4676   47.8004 H   0  0  0  0  0  0  0  0  0  0  0  0
   61.6790   30.1060   46.3220 H   0  0  0  0  0  0  0  0  0  0  0  0
   60.9090   31.3440   47.1540 H   0  0  0  0  0  0  0  0  0  0  0  0
   60.0195   28.1019   45.6514 H   0  0  0  0  0  0  0  0  0  0  0  0
   57.7888   26.6654   44.9266 H   0  0  0  0  0  0  0  0  0  0  0  0
   57.0194   27.4295   43.4944 H   0  0  0  0  0  0  0  0  0  0  0  0
   58.7843   27.0951   43.4944 H   0  0  0  0  0  0  0  0  0  0  0  0
   56.8725   31.9114   44.9708 H   0  0  0  0  0  0  0  0  0  0  0  0
   57.5661   33.5035   47.8876 H   0  0  0  0  0  0  0  0  0  0  0  0
   57.8933   31.7663   48.2748 H   0  0  0  0  0  0  0  0  0  0  0  0
   59.0152   33.8732   49.6195 H   0  0  0  0  0  0  0  0  0  0  0  0
   59.7738   32.2224   49.4367 H   0  0  0  0  0  0  0  0  0  0  0  0
   61.1104   34.2930   50.2378 H   0  0  0  0  0  0  0  0  0  0  0  0
   62.4427   34.4583   49.0444 H   0  0  0  0  0  0  0  0  0  0  0  0
   61.0858   35.6353   49.0444 H   0  0  0  0  0  0  0  0  0  0  0  0
   59.4614   35.2084   47.2959 H   0  0  0  0  0  0  0  0  0  0  0  0
   61.1353   35.0429   46.6827 H   0  0  0  0  0  0  0  0  0  0  0  0
   59.2222   34.0646   45.2125 H   0  0  0  0  0  0  0  0  0  0  0  0
   60.6367   32.9968   45.5518 H   0  0  0  0  0  0  0  0  0  0  0  0
  1  2  1  0
  2  3  1  0
  3  4  1  0
  4  5  2  0
  5  6  1  0
  6  7  1  0
  6  8  2  0
  8  9  1  0
  9 10  2  0
  9 11  1  0
  8 12  1  0
 12 13  2  0
 13 14  1  0
 14 15  1  0
 15 16  1  0
 16 17  1  0
 17 18  1  0
 17 19  1  0
 19 20  1  0
 13  4  1  0
 20 14  1  0
  1 21  1  0
  1 22  1  0
  1 23  1  0
  2 24  1  0
  2 25  1  0
  3 26  1  0
  3 27  1  0
  5 28  1  0
  7 29  1  0
  7 30  1  0
  7 31  1  0
 12 32  1  0
 15 33  1  0
 15 34  1  0
 16 35  1  0
 16 36  1  0
 18 37  1  0
 18 38  1  0
 18 39  1  0
 19 40  1  0
 19 41  1  0
 20 42  1  0
 20 43  1  0
M  CHG  3   3   1   9   1  11  -1
M  END
>  <UniqueID>  (12) 
12

>  <SMILES>  (12) 
CC[NH2+]c1cc(C)c([N+](=O)[O-])cc1N1CCN(C)CC1

>  <Energy>  (12) 
56.83587024217657

>  <Genealogy>  (12) 
CC[NH2+]c1cc(C)c([N+](=O)[O-])cc1N1CCN(C)CC1 (protonated)
CC[NH2+]c1cc(C)c([N+](=O)[O-])cc1N1CCN(C)CC1 (3D coordinates assigned)
CC[NH2+]c1cc(C)c([N+](=O)[O-])cc1N1CCN(C)CC1 (nonaromatic ring conformer: 56.83587024217657 kcal/mol)

>  <smiles>  (12) 
CCNc1cc(C)c([N+](=O)[O-])cc1N1CCN(C)CC1

>  <score_type>  (12) 
oracle

>  <origin>  (12) 
adg

>  <m_score__min__energy>  (12) 
-4.96

>  <m_primary>  (12) 
energy

$$$$
12:0
     RDKit          3D

 36 37  0  0  1  0  0  0  0  0999 V2000
   62.9740   33.7250   48.7760 C   0  0  0  0  0  0  0  0  0  0  0  0
   63.3400   33.1410   47.4980 N   0  0  0  0  0  0  0  0  0  0  0  0
   63.2690   31.7220   47.5950 C   0  0  0  0  0  0  0  0  0  0  0  0
   62.5470   33.7340   46.4840 C   0  0  0  0  0  0  0  0  0  0  0  0
   61.0930   33.9640   46.8170 C   0  0  0  0  0  0  0  0  0  0  0  0
   60.2630   32.8660   47.0050 N   0  0  0  0  0  0  0  0  0  0  0  0
   59.2430   32.5090   46.4160 C   0  0  0  0  0  0  0  0  0  0  0  0
   58.2380   33.3950   46.2510 N   0  0  0  0  0  0  0  0  0  0  0  0
   57.0990   33.1310   45.5950 C   0  0  0  0  0  0  0  0  0  0  0  0
   56.9560   31.9040   45.0720 N   0  0  0  0  0  0  0  0  0  0  0  0
   57.9360   30.9950   45.2190 C   0  0  0  0  0  0  0  0  0  0  0  0
   57.7240   29.7580   44.6640 C   0  0  0  0  0  0  0  0  0  0  0  0
   56.4870   29.4720   43.9480 C   0  0  0  0  0  0  0  0  0  0  0  0
   55.2840   29.3470   44.7020 N   0  0  0  0  0  0  0  0  0  0  0  0
   56.5160   29.3480   42.7120 O   0  0  0  0  0  0  0  0  0  0  0  0
   58.7300   28.8340   44.8260 C   0  0  0  0  0  0  0  0  0  0  0  0
   59.8970   29.0570   45.4860 C   0  0  0  0  0  0  0  0  0  0  0  0
   60.1060   30.3330   46.0530 C   0  0  0  0  0  0  0  0  0  0  0  0
   59.1180   31.2510   45.8950 C   0  0  0  0  0  0  0  0  0  0  0  0
   63.3663   33.0990   49.5910 H   0  0  0  0  0  0  0  0  0  0  0  0
   63.4002   34.7362   48.8526 H   0  0  0  0  0  0  0  0  0  0  0  0
   61.8782   33.7823   48.8526 H   0  0  0  0  0  0  0  0  0  0  0  0
   63.2543   31.4272   48.6547 H   0  0  0  0  0  0  0  0  0  0  0  0
   62.3519   31.3662   47.1026 H   0  0  0  0  0  0  0  0  0  0  0  0
   64.1460   31.2765   47.1026 H   0  0  0  0  0  0  0  0  0  0  0  0
   62.9924   34.7094   46.2385 H   0  0  0  0  0  0  0  0  0  0  0  0
   62.5458   33.0117   45.6544 H   0  0  0  0  0  0  0  0  0  0  0  0
   61.0643   34.5525   47.7459 H   0  0  0  0  0  0  0  0  0  0  0  0
   60.6895   34.4483   45.9155 H   0  0  0  0  0  0  0  0  0  0  0  0
   58.3270   34.3580   46.6490 H   0  0  0  0  0  0  0  0  0  0  0  0
   56.3115   33.8918   45.4896 H   0  0  0  0  0  0  0  0  0  0  0  0
   54.5500   30.0920   44.7300 H   0  0  0  0  0  0  0  0  0  0  0  0
   55.1430   28.4600   45.2470 H   0  0  0  0  0  0  0  0  0  0  0  0
   58.5781   27.8368   44.3872 H   0  0  0  0  0  0  0  0  0  0  0  0
   60.6565   28.2664   45.5758 H   0  0  0  0  0  0  0  0  0  0  0  0
   61.0299   30.5733   46.5995 H   0  0  0  0  0  0  0  0  0  0  0  0
  1  2  1  0
  2  3  1  0
  2  4  1  0
  4  5  1  0
  5  6  1  0
  6  7  2  0
  7  8  1  0
  8  9  1  0
  9 10  2  0
 10 11  1  0
 11 12  2  0
 12 13  1  0
 13 14  1  0
 13 15  2  0
 12 16  1  0
 16 17  2  0
 17 18  1  0
 18 19  2  0
 19  7  1  0
 19 11  1  0
  1 20  1  0
  1 21  1  0
  1 22  1  0
  3 23  1  0
  3 24  1  0
  3 25  1  0
  4 26  1  0
  4 27  1  0
  5 28  1  0
  5 29  1  0
  8 30  1  0
  9 31  1  0
 14 32  1  0
 14 33  1  0
 16 34  1  0
 17 35  1  0
 18 36  1  0
M  END
>  <smiles>  (13) 
CN(C)CCN=c1[nH]cnc2c(C(N)=O)cccc12

>  <score_type>  (13) 
oracle

>  <origin>  (13) 
adg

>  <m_score__min__energy>  (13) 
-6.8099999999999996

>  <m_primary>  (13) 
energy

$$$$
13:0
     RDKit          3D

 37 37  0  0  0  0  0  0  0  0999 V2000
   58.1150   26.8730   42.7090 C   0  0  0  0  0  0  0  0  0  0  0  0
   58.3560   28.0340   43.5740 N   0  0  0  0  0  0  0  0  0  0  0  0
   57.3650   28.2110   44.6580 C   0  0  2  0  0  0  0  0  0  0  0  0
   56.4230   29.3380   44.3040 C   0  0  0  0  0  0  0  0  0  0  0  0
   55.3020   29.4080   44.8770 O   0  0  0  0  0  0  0  0  0  0  0  0
   56.7720   30.2880   43.2900 N   0  0  0  0  0  0  0  0  0  0  0  0
   57.7500   31.3520   43.4860 C   0  0  0  0  0  0  0  0  0  0  0  0
   57.4600   32.1020   44.7560 C   0  0  0  0  0  0  0  0  0  0  0  0
   56.2770   32.0950   45.1940 O   0  0  0  0  0  0  0  0  0  0  0  0
   58.5100   32.8650   45.4880 C   0  0  0  0  0  0  0  0  0  0  0  0
   58.6170   34.2580   45.3110 C   0  0  0  0  0  0  0  0  0  0  0  0
   59.6050   34.9870   45.9790 C   0  0  0  0  0  0  0  0  0  0  0  0
   60.4990   34.3380   46.8320 C   0  0  0  0  0  0  0  0  0  0  0  0
   60.4050   32.9590   47.0200 C   0  0  0  0  0  0  0  0  0  0  0  0
   59.4180   32.2240   46.3570 C   0  0  0  0  0  0  0  0  0  0  0  0
   57.9880   28.3580   46.0860 C   0  0  0  0  0  0  0  0  0  0  0  0
   59.4530   28.8290   46.0300 C   0  0  0  0  0  0  0  0  0  0  0  0
   57.9290   27.0240   46.8530 C   0  0  0  0  0  0  0  0  0  0  0  0
   57.9306   25.9845   43.3308 H   0  0  0  0  0  0  0  0  0  0  0  0
   57.2375   27.0647   42.0740 H   0  0  0  0  0  0  0  0  0  0  0  0
   58.9963   26.6996   42.0740 H   0  0  0  0  0  0  0  0  0  0  0  0
   58.4040   28.8970   42.9850 H   0  0  0  0  0  0  0  0  0  0  0  0
   56.7884   27.2769   44.7287 H   0  0  0  0  0  0  0  0  0  0  0  0
   58.7566   30.9126   43.5462 H   0  0  0  0  0  0  0  0  0  0  0  0
   57.6928   32.0502   42.6379 H   0  0  0  0  0  0  0  0  0  0  0  0
   57.9164   34.7773   44.6406 H   0  0  0  0  0  0  0  0  0  0  0  0
   59.6781   36.0747   45.8321 H   0  0  0  0  0  0  0  0  0  0  0  0
   61.2768   34.9133   47.3554 H   0  0  0  0  0  0  0  0  0  0  0  0
   61.1100   32.4482   47.6923 H   0  0  0  0  0  0  0  0  0  0  0  0
   59.3487   31.1375   46.5140 H   0  0  0  0  0  0  0  0  0  0  0  0
   57.3898   29.1182   46.6097 H   0  0  0  0  0  0  0  0  0  0  0  0
   59.8377   28.9527   47.0531 H   0  0  0  0  0  0  0  0  0  0  0  0
   60.0588   28.0803   45.4985 H   0  0  0  0  0  0  0  0  0  0  0  0
   59.5090   29.7904   45.4985 H   0  0  0  0  0  0  0  0  0  0  0  0
   57.9378   27.2224   47.9349 H   0  0  0  0  0  0  0  0  0  0  0  0
   57.0063   26.4880   46.5860 H   0  0  0  0  0  0  0  0  0  0  0  0
   58.8008   26.4087   46.5860 H   0  0  0  0  0  0  0  0  0  0  0  0
  1  2  1  0
  2  3  1  0
  3  4  1  0
  4  5  2  0
  4  6  1  0
  6  7  1  0
  7  8  1  0
  8  9  2  0
  8 10  1  0
 10 11  2  0
 11 12  1  0
 12 13  2  0
 13 14  1  0
 14 15  2  0
  3 16  1  0
 16 17  1  0
 16 18  1  0
 15 10  1  0
  1 19  1  0
  1 20  1  0
  1 21  1  0
  2 22  1  0
  3 23  1  1
  7 24  1  0
  7 25  1  0
 11 26  1  0
 12 27  1  0
 13 28  1  0
 14 29  1  0
 15 30  1  0
 16 31  1  0
 17 32  1  0
 17 33  1  0
 17 34  1  0
 18 35  1  0
 18 36  1  0
 18 37  1  0
M  CHG  1   6  -1
M  END
>  <UniqueID>  (14) 
13

>  <SMILES>  (14) 
CN[C@H](C(=O)[N-]CC(=O)c1ccccc1)C(C)C

>  <Energy>  (14) 
32.07505090456675

>  <Genealogy>  (14) 
CNC(C(=O)[N-]CC(=O)c1ccccc1)C(C)C (protonated)
CN[C@H](C(=O)[N-]CC(=O)c1ccccc1)C(C)C (chirality)
CN[C@H](C(=O)[N-]CC(=O)c1ccccc1)C(C)C (3D coordinates assigned)
CN[C@H](C(=O)[N-]CC(=O)c1ccccc1)C(C)C (optimized conformer: 32.07505090456675 kcal/mol)

>  <smiles>  (14) 
CNC(C(=O)NCC(=O)c1ccccc1)C(C)C

>  <score_type>  (14) 
oracle

>  <origin>  (14) 
adg

>  <m_score__min__energy>  (14) 
-8.9199999999999999

>  <m_primary>  (14) 
energy

$$$$
14:0
     RDKit          3D

 61 64  0  0  0  0  0  0  0  0999 V2000
   63.3920   33.7980   46.9310 C   0  0  0  0  0  0  0  0  0  0  0  0
   63.3350   34.0360   48.4480 C   0  0  0  0  0  0  0  0  0  0  0  0
   63.7100   32.8610   49.2710 N   0  0  0  0  0  0  0  0  0  0  0  0
   65.1660   32.7090   49.4220 C   0  0  0  0  0  0  0  0  0  0  0  0
   63.0080   32.7990   50.5720 C   0  0  0  0  0  0  0  0  0  0  0  0
   62.3890   31.4150   50.7850 C   0  0  0  0  0  0  0  0  0  0  0  0
   62.0990   30.7810   49.4970 N   0  0  0  0  0  0  0  0  0  0  0  0
   61.1160   31.2840   48.5760 C   0  0  0  0  0  0  0  0  0  0  0  0
   60.5410   30.4640   47.6790 C   0  0  0  0  0  0  0  0  0  0  0  0
   59.5590   30.9950   46.7000 C   0  0  0  0  0  0  0  0  0  0  0  0
   59.5120   32.3820   46.5460 C   0  0  0  0  0  0  0  0  0  0  0  0
   60.0950   33.2060   47.5350 C   0  0  0  0  0  0  0  0  0  0  0  0
   60.0110   34.5990   47.4050 C   0  0  0  0  0  0  0  0  0  0  0  0
   59.3800   35.1660   46.3030 C   0  0  0  0  0  0  0  0  0  0  0  0
   58.8300   34.3540   45.3100 C   0  0  0  0  0  0  0  0  0  0  0  0
   58.9130   32.9430   45.3970 C   0  0  0  0  0  0  0  0  0  0  0  0
   58.4450   32.1140   44.3970 N   0  0  0  0  0  0  0  0  0  0  0  0
   58.1490   32.6690   43.0580 C   0  0  0  0  0  0  0  0  0  0  0  0
   58.2650   30.7640   44.6500 C   0  0  0  0  0  0  0  0  0  0  0  0
   57.5540   29.9400   43.7460 C   0  0  0  0  0  0  0  0  0  0  0  0
   57.3770   28.5850   43.9910 C   0  0  0  0  0  0  0  0  0  0  0  0
   57.8290   28.0140   45.1760 C   0  0  0  0  0  0  0  0  0  0  0  0
   57.5160   26.6390   45.4510 N   0  0  0  0  0  0  0  0  0  0  0  0
   58.5520   25.6270   45.2500 C   0  0  0  0  0  0  0  0  0  0  0  0
   56.3950   26.3290   46.3360 C   0  0  0  0  0  0  0  0  0  0  0  0
   58.4970   28.8050   46.1320 C   0  0  0  0  0  0  0  0  0  0  0  0
   58.7340   28.2500   47.4360 N   0  0  0  0  0  0  0  0  0  0  0  0
   59.3070   27.1480   47.5580 O   0  0  0  0  0  0  0  0  0  0  0  0
   58.1920   28.8530   48.5470 O   0  0  0  0  0  0  0  0  0  0  0  0
   58.7840   30.1760   45.8430 C   0  0  0  0  0  0  0  0  0  0  0  0
   60.6300   32.6340   48.7510 N   0  0  0  0  0  0  0  0  0  0  0  0
   63.6441   32.7455   46.7342 H   0  0  0  0  0  0  0  0  0  0  0  0
   62.4129   34.0299   46.4864 H   0  0  0  0  0  0  0  0  0  0  0  0
   64.1598   34.4482   46.4864 H   0  0  0  0  0  0  0  0  0  0  0  0
   64.0221   34.8595   48.6923 H   0  0  0  0  0  0  0  0  0  0  0  0
   62.2862   34.2638   48.6889 H   0  0  0  0  0  0  0  0  0  0  0  0
   65.4229   32.6822   50.4912 H   0  0  0  0  0  0  0  0  0  0  0  0
   65.4884   31.7723   48.9438 H   0  0  0  0  0  0  0  0  0  0  0  0
   65.6749   33.5589   48.9438 H   0  0  0  0  0  0  0  0  0  0  0  0
   63.7260   33.0021   51.3802 H   0  0  0  0  0  0  0  0  0  0  0  0
   62.2054   33.5512   50.5780 H   0  0  0  0  0  0  0  0  0  0  0  0
   63.0938   30.7856   51.3481 H   0  0  0  0  0  0  0  0  0  0  0  0
   61.4499   31.5271   51.3467 H   0  0  0  0  0  0  0  0  0  0  0  0
   62.3920   29.7840   49.3870 H   0  0  0  0  0  0  0  0  0  0  0  0
   60.7992   29.3948   47.6703 H   0  0  0  0  0  0  0  0  0  0  0  0
   60.4468   35.2476   48.1792 H   0  0  0  0  0  0  0  0  0  0  0  0
   59.3140   36.2604   46.2135 H   0  0  0  0  0  0  0  0  0  0  0  0
   58.3255   34.8160   44.4486 H   0  0  0  0  0  0  0  0  0  0  0  0
   57.6339   33.6348   43.1671 H   0  0  0  0  0  0  0  0  0  0  0  0
   59.0890   32.8151   42.5056 H   0  0  0  0  0  0  0  0  0  0  0  0
   57.5040   31.9698   42.5056 H   0  0  0  0  0  0  0  0  0  0  0  0
   57.1331   30.3818   42.8308 H   0  0  0  0  0  0  0  0  0  0  0  0
   56.8744   27.9569   43.2407 H   0  0  0  0  0  0  0  0  0  0  0  0
   58.9138   25.2736   46.2268 H   0  0  0  0  0  0  0  0  0  0  0  0
   58.1332   24.7805   44.6860 H   0  0  0  0  0  0  0  0  0  0  0  0
   59.3884   26.0655   44.6860 H   0  0  0  0  0  0  0  0  0  0  0  0
   56.7190   26.4186   47.3834 H   0  0  0  0  0  0  0  0  0  0  0  0
   55.5717   27.0332   46.1454 H   0  0  0  0  0  0  0  0  0  0  0  0
   56.0505   25.3019   46.1454 H   0  0  0  0  0  0  0  0  0  0  0  0
   61.4220   33.2270   49.0920 H   0  0  0  0  0  0  0  0  0  0  0  0
   59.8770   32.6240   49.4760 H   0  0  0  0  0  0  0  0  0  0  0  0
  1  2  1  0
  2  3  1  0
  3  4  1  0
  3  5  1  0
  5  6  1  0
  6  7  1  0
  7  8  1  0
  8  9  2  0
  9 10  1  0
 10 11  1  0
 11 12  2  0
 12 13  1  0
 13 14  2  0
 14 15  1  0
 15 16  2  0
 16 17  1  0
 17 18  1  0
 17 19  2  0
 19 20  1  0
 20 21  2  0
 21 22  1  0
 22 23  1  0
 23 24  1  0
 23 25  1  0
 22 26  2  0
 26 27  1  0
 27 28  2  0
 27 29  1  0
 26 30  1  0
 12 31  1  0
 31  8  1  0
 30 10  2  0
 16 11  1  0
 30 19  1  0
  1 32  1  0
  1 33  1  0
  1 34  1  0
  2 35  1  0
  2 36  1  0
  4 37  1  0
  4 38  1  0
  4 39  1  0
  5 40  1  0
  5 41  1  0
  6 42  1  0
  6 43  1  0
  7 44  1  0
  9 45  1  0
 13 46  1  0
 14 47  1  0
 15 48  1  0
 18 49  1  0
 18 50  1  0
 18 51  1  0
 20 52  1  0
 21 53  1  0
 24 54  1  0
 24 55  1  0
 24 56  1  0
 25 57  1  0
 25 58  1  0
 25 59  1  0
 31 60  1  0
 31 61  1  0
M  CHG  4  17   1  27   1  29  -1  31   1
M  END
>  <UniqueID>  (15) 
14

>  <SMILES>  (15) 
CCN(C)CCNC1=Cc2c3c(cccc3[n+](C)c3ccc(N(C)C)c([N+](=O)[O-])c23)[NH2+]1

>  <Energy>  (15) 
112.69211437727597

>  <Genealogy>  (15) 
CCN(C)CCNC1=Cc2c3c(cccc3[n+](C)c3ccc(N(C)C)c([N+](=O)[O-])c23)[NH2+]1 (protonated)
CCN(C)CCNC1=Cc2c3c(cccc3[n+](C)c3ccc(N(C)C)c([N+](=O)[O-])c23)[NH2+]1 (3D coordinates assigned)
CCN(C)CCNC1=Cc2c3c(cccc3[n+](C)c3ccc(N(C)C)c([N+](=O)[O-])c23)[NH2+]1 (nonaromatic ring conformer: 112.69211437727597 kcal/mol)

>  <smiles>  (15) 
CCN(C)CCNC1=Cc2c3c(cccc3[n+](C)c3ccc(N(C)C)c([N+](=O)[O-])c23)N1

>  <score_type>  (15) 
oracle

>  <origin>  (15) 
adg

>  <m_score__min__energy>  (15) 
-5.0099999999999998

>  <m_primary>  (15) 
energy

$$$$
15:0
     RDKit          3D

 50 53  0  0  0  0  0  0  0  0999 V2000
   65.6490   32.7040   50.0640 C   0  0  0  0  0  0  0  0  0  0  0  0
   64.2110   32.2750   49.7310 C   0  0  0  0  0  0  0  0  0  0  0  0
   63.8400   32.3700   48.2880 N   0  0  0  0  0  0  0  0  0  0  0  0
   63.5870   33.7640   47.8260 C   0  0  0  0  0  0  0  0  0  0  0  0
   63.1380   33.8450   46.3600 C   0  0  0  0  0  0  0  0  0  0  0  0
   62.6830   31.5090   47.9300 C   0  0  0  0  0  0  0  0  0  0  0  0
   61.6890   31.2950   49.0840 C   0  0  0  0  0  0  0  0  0  0  0  0
   60.3710   31.8290   48.7690 N   0  0  0  0  0  0  0  0  0  0  0  0
   59.7770   31.7770   47.4590 C   0  0  0  0  0  0  0  0  0  0  0  0
   59.4020   30.5890   46.8210 C   0  0  0  0  0  0  0  0  0  0  0  0
   59.5510   29.3630   47.2650 O   0  0  0  0  0  0  0  0  0  0  0  0
   59.0910   28.5520   46.3390 C   0  0  0  0  0  0  0  0  0  0  0  0
   59.0680   27.1600   46.3920 C   0  0  0  0  0  0  0  0  0  0  0  0
   58.5480   26.4630   45.2900 C   0  0  0  0  0  0  0  0  0  0  0  0
   58.0790   27.1690   44.1590 C   0  0  0  0  0  0  0  0  0  0  0  0
   58.1180   28.5770   44.1200 C   0  0  0  0  0  0  0  0  0  0  0  0
   58.6160   29.2490   45.2430 C   0  0  0  0  0  0  0  0  0  0  0  0
   58.8080   30.5890   45.5620 C   0  0  0  0  0  0  0  0  0  0  0  0
   58.5110   31.7490   44.8810 N   0  0  0  0  0  0  0  0  0  0  0  0
   57.7550   31.7040   43.6240 C   0  0  0  0  0  0  0  0  0  0  0  0
   58.9250   32.9350   45.4600 C   0  0  0  0  0  0  0  0  0  0  0  0
   58.7960   34.2360   44.9090 C   0  0  0  0  0  0  0  0  0  0  0  0
   59.2840   35.2410   45.7410 C   0  0  0  0  0  0  0  0  0  0  0  0
   59.8850   34.5400   47.1540 S   0  0  0  0  0  0  0  0  0  0  0  0
   59.5410   32.9480   46.7230 C   0  0  0  0  0  0  0  0  0  0  0  0
   65.7767   32.7421   51.1559 H   0  0  0  0  0  0  0  0  0  0  0  0
   66.3564   31.9778   49.6372 H   0  0  0  0  0  0  0  0  0  0  0  0
   65.8429   33.6991   49.6372 H   0  0  0  0  0  0  0  0  0  0  0  0
   64.0856   31.2288   50.0469 H   0  0  0  0  0  0  0  0  0  0  0  0
   63.5511   32.9755   50.2638 H   0  0  0  0  0  0  0  0  0  0  0  0
   64.6640   32.0220   47.7400 H   0  0  0  0  0  0  0  0  0  0  0  0
   62.8006   34.2038   48.4570 H   0  0  0  0  0  0  0  0  0  0  0  0
   64.5374   34.3119   47.9068 H   0  0  0  0  0  0  0  0  0  0  0  0
   62.0563   34.0402   46.3181 H   0  0  0  0  0  0  0  0  0  0  0  0
   63.6775   34.6603   45.8558 H   0  0  0  0  0  0  0  0  0  0  0  0
   63.3586   32.8926   45.8558 H   0  0  0  0  0  0  0  0  0  0  0  0
   62.1465   31.9792   47.0927 H   0  0  0  0  0  0  0  0  0  0  0  0
   63.0879   30.5204   47.6679 H   0  0  0  0  0  0  0  0  0  0  0  0
   61.5985   30.2165   49.2805 H   0  0  0  0  0  0  0  0  0  0  0  0
   62.0712   31.8273   49.9675 H   0  0  0  0  0  0  0  0  0  0  0  0
   59.7500   32.0430   49.5810 H   0  0  0  0  0  0  0  0  0  0  0  0
   59.4470   26.6218   47.2733 H   0  0  0  0  0  0  0  0  0  0  0  0
   58.5054   25.3640   45.3068 H   0  0  0  0  0  0  0  0  0  0  0  0
   57.6787   26.6125   43.2987 H   0  0  0  0  0  0  0  0  0  0  0  0
   57.7685   29.1304   43.2359 H   0  0  0  0  0  0  0  0  0  0  0  0
   56.6794   31.6400   43.8451 H   0  0  0  0  0  0  0  0  0  0  0  0
   57.9561   32.6157   43.0423 H   0  0  0  0  0  0  0  0  0  0  0  0
   58.0629   30.8226   43.0423 H   0  0  0  0  0  0  0  0  0  0  0  0
   58.3537   34.4320   43.9211 H   0  0  0  0  0  0  0  0  0  0  0  0
   59.2786   36.3173   45.5139 H   0  0  0  0  0  0  0  0  0  0  0  0
  1  2  1  0
  2  3  1  0
  3  4  1  0
  4  5  1  0
  3  6  1  0
  6  7  1  0
  7  8  1  0
  8  9  1  0
  9 10  2  0
 10 11  1  0
 11 12  1  0
 12 13  2  0
 13 14  1  0
 14 15  2  0
 15 16  1  0
 16 17  2  0
 17 18  1  0
 18 19  2  0
 19 20  1  0
 19 21  1  0
 21 22  1  0
 22 23  2  0
 23 24  1  0
 24 25  1  0
 25  9  1  0
 18 10  1  0
 25 21  2  0
 17 12  1  0
  1 26  1  0
  1 27  1  0
  1 28  1  0
  2 29  1  0
  2 30  1  0
  3 31  1  0
  4 32  1  0
  4 33  1  0
  5 34  1  0
  5 35  1  0
  5 36  1  0
  6 37  1  0
  6 38  1  0
  7 39  1  0
  7 40  1  0
  8 41  1  0
 13 42  1  0
 14 43  1  0
 15 44  1  0
 16 45  1  0
 20 46  1  0
 20 47  1  0
 20 48  1  0
 22 49  1  0
 23 50  1  0
M  CHG  2   3   1  19   1
M  END
>  <UniqueID>  (16) 
15

>  <SMILES>  (16) 
CC[NH+](CC)CCNc1c2oc3ccccc3c2[n+](C)c2ccsc12

>  <Energy>  (16) 
139.66243220670842

>  <Genealogy>  (16) 
CC[NH+](CC)CCNc1c2oc3ccccc3c2[n+](C)c2ccsc12 (protonated)
CC[NH+](CC)CCNc1c2oc3ccccc3c2[n+](C)c2ccsc12 (3D coordinates assigned)
CC[NH+](CC)CCNc1c2oc3ccccc3c2[n+](C)c2ccsc12 (optimized conformer: 139.66243220670842 kcal/mol)

>  <smiles>  (16) 
CCN(CC)CCNc1c2oc3ccccc3c2[n+](C)c2ccsc12

>  <score_type>  (16) 
oracle

>  <origin>  (16) 
adg

>  <m_score__min__energy>  (16) 
-4.54

>  <m_primary>  (16) 
energy

$$$$
16:0
     RDKit          3D

 36 37  0  0  0  0  0  0  0  0999 V2000
   60.0265   29.9070   44.2297 H   0  0  0  0  0  0  0  0  0  0  0  0
   59.1960   29.9100   44.9510 C   0  0  0  0  0  0  0  0  0  0  0  0
   58.4590   31.0380   45.0520 C   0  0  0  0  0  0  0  0  0  0  0  0
   57.1700   31.1490   44.3270 C   0  0  0  0  0  0  0  0  0  0  0  0
   56.1670   30.4780   44.6980 O   0  0  0  0  0  0  0  0  0  0  0  0
   57.0730   32.0030   43.2210 O   0  0  0  0  0  0  0  0  0  0  0  0
   57.3210   31.5860   41.8800 C   0  0  0  0  0  0  0  0  0  0  0  0
   56.3613   31.4497   41.3601 H   0  0  0  0  0  0  0  0  0  0  0  0
   57.8798   30.6387   41.8999 H   0  0  0  0  0  0  0  0  0  0  0  0
   58.1480   32.6300   41.1400 C   0  0  0  0  0  0  0  0  0  0  0  0
   58.6598   33.2761   41.8685 H   0  0  0  0  0  0  0  0  0  0  0  0
   58.8947   32.1261   40.5086 H   0  0  0  0  0  0  0  0  0  0  0  0
   57.4866   33.2415   40.5086 H   0  0  0  0  0  0  0  0  0  0  0  0
   58.9270   32.2150   45.8260 C   0  0  0  0  0  0  0  0  0  0  0  0
   59.7820   32.0380   46.9270 C   0  0  0  0  0  0  0  0  0  0  0  0
   60.1047   31.0261   47.2133 H   0  0  0  0  0  0  0  0  0  0  0  0
   60.2240   33.1440   47.6600 C   0  0  0  0  0  0  0  0  0  0  0  0
   60.8974   33.0004   48.5178 H   0  0  0  0  0  0  0  0  0  0  0  0
   59.8120   34.4310   47.3050 C   0  0  0  0  0  0  0  0  0  0  0  0
   60.1632   35.2998   47.8811 H   0  0  0  0  0  0  0  0  0  0  0  0
   58.9530   34.6140   46.2170 C   0  0  0  0  0  0  0  0  0  0  0  0
   58.6269   35.6271   45.9390 H   0  0  0  0  0  0  0  0  0  0  0  0
   58.5080   33.5110   45.4820 C   0  0  0  0  0  0  0  0  0  0  0  0
   57.8270   33.6586   44.6309 H   0  0  0  0  0  0  0  0  0  0  0  0
   58.9680   28.6770   45.7400 C   0  0  0  0  0  0  0  0  0  0  0  0
   59.9030   28.2290   46.6910 C   0  0  0  0  0  0  0  0  0  0  0  0
   60.8353   28.7909   46.8495 H   0  0  0  0  0  0  0  0  0  0  0  0
   59.6520   27.0730   47.4350 C   0  0  0  0  0  0  0  0  0  0  0  0
   60.3942   26.7182   48.1653 H   0  0  0  0  0  0  0  0  0  0  0  0
   58.4600   26.3670   47.2530 C   0  0  0  0  0  0  0  0  0  0  0  0
   58.2681   25.4535   47.8350 H   0  0  0  0  0  0  0  0  0  0  0  0
   57.5100   26.8210   46.3310 C   0  0  0  0  0  0  0  0  0  0  0  0
   56.2770   26.1000   46.1530 C   0  0  0  0  0  0  0  0  0  0  0  0
   55.2860   25.5190   46.0110 N   0  0  0  0  0  0  0  0  0  0  0  0
   57.7600   27.9800   45.5830 C   0  0  0  0  0  0  0  0  0  0  0  0
   57.0060   28.3447   44.8699 H   0  0  0  0  0  0  0  0  0  0  0  0
  1  2  1  0
  2  3  2  0
  3  4  1  0
  4  5  2  0
  4  6  1  0
  6  7  1  0
  7  8  1  0
  7  9  1  0
  7 10  1  0
 10 11  1  0
 10 12  1  0
 10 13  1  0
  3 14  1  0
 14 15  2  0
 15 16  1  0
 15 17  1  0
 17 18  1  0
 17 19  2  0
 19 20  1  0
 19 21  1  0
 21 22  1  0
 21 23  2  0
 23 24  1  0
  2 25  1  0
 25 26  2  0
 26 27  1  0
 26 28  1  0
 28 29  1  0
 28 30  2  0
 30 31  1  0
 30 32  1  0
 32 33  1  0
 33 34  3  0
 32 35  2  0
 35 36  1  0
 23 14  1  0
 35 25  1  0
M  END
>  <UniqueID>  (17) 
16

>  <SMILES>  (17) 
CCOC(=O)/C(=C/c1cccc(C#N)c1)c1ccccc1

>  <Energy>  (17) 
42.806717361139306

>  <Genealogy>  (17) 
CCOC(=O)/C(=C/c1cccc(C#N)c1)c1ccccc1 (cis-trans isomerization)
CCOC(=O)/C(=C/c1cccc(C#N)c1)c1ccccc1 (3D coordinates assigned)
CCOC(=O)/C(=C/c1cccc(C#N)c1)c1ccccc1 (optimized conformer: 42.806717361139306 kcal/mol)

>  <smiles>  (17) 
CCOC(=O)C(=Cc1cccc(C#N)c1)c1ccccc1

>  <score_type>  (17) 
oracle

>  <origin>  (17) 
adg

>  <m_score__min__energy>  (17) 
-7.9400000000000004

>  <m_primary>  (17) 
energy

$$$$
17:0
     RDKit          3D

101105  0  0  0  0  0  0  0  0999 V2000
   55.7280   29.0570   53.3940 C   0  0  0  0  0  0  0  0  0  0  0  0
   57.0470   29.3690   52.6740 C   0  0  0  0  0  0  0  0  0  0  0  0
   56.9300   30.3970   51.6090 N   0  0  0  0  0  0  0  0  0  0  0  0
   56.6100   31.7300   52.1700 C   0  0  0  0  0  0  0  0  0  0  0  0
   57.7250   32.7270   51.8590 C   0  0  0  0  0  0  0  0  0  0  0  0
   58.1020   30.4640   50.7050 C   0  0  0  0  0  0  0  0  0  0  0  0
   59.0810   29.3050   50.9190 C   0  0  0  0  0  0  0  0  0  0  0  0
   59.8470   29.0860   49.7360 O   0  0  0  0  0  0  0  0  0  0  0  0
   59.2780   28.9740   48.4590 C   0  0  0  0  0  0  0  0  0  0  0  0
   58.4120   28.0800   48.2450 O   0  0  0  0  0  0  0  0  0  0  0  0
   59.5930   30.0440   47.4020 C   0  0  1  0  0  0  0  0  0  0  0  0
   58.8100   29.5500   46.1460 C   0  0  0  0  0  0  0  0  0  0  0  0
   58.7850   30.5590   45.0060 C   0  0  0  0  0  0  0  0  0  0  0  0
   58.1300   31.8980   45.4070 C   0  0  2  0  0  0  0  0  0  0  0  0
   58.7720   33.0580   44.6230 C   0  0  0  0  0  0  0  0  0  0  0  0
   57.9680   32.0900   46.9570 C   0  0  2  0  0  0  0  0  0  0  0  0
   57.5130   33.5050   47.3580 C   0  0  0  0  0  0  0  0  0  0  0  0
   59.0690   31.4600   47.8950 C   0  0  2  0  0  0  0  0  0  0  0  0
   60.1510   32.4450   48.4000 C   0  0  0  0  0  0  0  0  0  0  0  0
   59.8500   33.2560   49.4350 C   0  0  0  0  0  0  0  0  0  0  0  0
   60.8320   34.2570   49.9550 C   0  0  0  0  0  0  0  0  0  0  0  0
   62.2450   33.6330   50.1780 C   0  0  1  0  0  0  0  0  0  0  0  0
   62.4540   32.9650   51.6250 C   0  0  1  0  0  0  0  0  0  0  0  0
   63.9940   32.8880   51.9350 C   0  0  0  0  0  0  0  0  0  0  0  0
   61.7920   33.8020   52.7660 C   0  0  0  0  0  0  0  0  0  0  0  0
   62.0070   33.2290   54.1830 C   0  0  0  0  0  0  0  0  0  0  0  0
   62.2270   31.6940   54.2110 C   0  0  1  0  0  0  0  0  0  0  0  0
   61.9510   31.1700   55.4910 O   0  0  0  0  0  0  0  0  0  0  0  0
   61.4700   30.9190   53.0790 C   0  0  0  0  0  0  0  0  0  0  0  0
   61.8780   29.4250   53.1780 C   0  0  0  0  0  0  0  0  0  0  0  0
   59.9410   30.9680   53.3580 C   0  0  0  0  0  0  0  0  0  0  0  0
   61.7660   31.5570   51.6290 C   0  0  2  0  0  0  0  0  0  0  0  0
   62.3500   30.6130   50.5390 C   0  0  0  0  0  0  0  0  0  0  0  0
   63.1890   31.3070   49.4460 C   0  0  0  0  0  0  0  0  0  0  0  0
   62.6950   32.7050   48.9250 C   0  0  2  0  0  0  0  0  0  0  0  0
   63.9750   33.3500   48.2810 C   0  0  0  0  0  0  0  0  0  0  0  0
   61.5410   32.5810   47.7690 C   0  0  2  0  0  0  0  0  0  0  0  0
   61.5210   33.8860   46.8910 C   0  0  0  0  0  0  0  0  0  0  0  0
   61.7580   31.4090   46.7470 C   0  0  0  0  0  0  0  0  0  0  0  0
   61.1330   30.0490   47.1040 C   0  0  0  0  0  0  0  0  0  0  0  0
   55.8863   29.0945   54.4819 H   0  0  0  0  0  0  0  0  0  0  0  0
   54.9694   29.8005   53.1081 H   0  0  0  0  0  0  0  0  0  0  0  0
   55.3829   28.0524   53.1081 H   0  0  0  0  0  0  0  0  0  0  0  0
   57.7715   29.7264   53.4205 H   0  0  0  0  0  0  0  0  0  0  0  0
   57.3666   28.4386   52.1819 H   0  0  0  0  0  0  0  0  0  0  0  0
   55.6691   32.0911   51.7293 H   0  0  0  0  0  0  0  0  0  0  0  0
   56.5095   31.6401   53.2617 H   0  0  0  0  0  0  0  0  0  0  0  0
   58.1500   33.1070   52.7997 H   0  0  0  0  0  0  0  0  0  0  0  0
   58.5126   32.2264   51.2767 H   0  0  0  0  0  0  0  0  0  0  0  0
   57.3152   33.5655   51.2767 H   0  0  0  0  0  0  0  0  0  0  0  0
   57.7459   30.4363   49.6646 H   0  0  0  0  0  0  0  0  0  0  0  0
   58.6394   31.3979   50.9264 H   0  0  0  0  0  0  0  0  0  0  0  0
   59.7580   29.5494   51.7508 H   0  0  0  0  0  0  0  0  0  0  0  0
   58.5132   28.3928   51.1544 H   0  0  0  0  0  0  0  0  0  0  0  0
   59.2838   28.6263   45.7822 H   0  0  0  0  0  0  0  0  0  0  0  0
   57.7673   29.3912   46.4584 H   0  0  0  0  0  0  0  0  0  0  0  0
   59.8194   30.7552   44.6875 H   0  0  0  0  0  0  0  0  0  0  0  0
   58.1832   30.1260   44.1934 H   0  0  0  0  0  0  0  0  0  0  0  0
   57.0753   31.8866   45.0949 H   0  0  0  0  0  0  0  0  0  0  0  0
   59.1804   33.7960   45.3291 H   0  0  0  0  0  0  0  0  0  0  0  0
   59.5828   32.6683   43.9900 H   0  0  0  0  0  0  0  0  0  0  0  0
   58.0112   33.5381   43.9900 H   0  0  0  0  0  0  0  0  0  0  0  0
   57.1210   31.4239   47.1783 H   0  0  0  0  0  0  0  0  0  0  0  0
   57.4873   33.5848   48.4548 H   0  0  0  0  0  0  0  0  0  0  0  0
   58.2183   34.2455   46.9529 H   0  0  0  0  0  0  0  0  0  0  0  0
   56.5083   33.6957   46.9529 H   0  0  0  0  0  0  0  0  0  0  0  0
   58.5351   31.2275   48.8282 H   0  0  0  0  0  0  0  0  0  0  0  0
   58.8596   33.1794   49.9074 H   0  0  0  0  0  0  0  0  0  0  0  0
   60.9180   35.0793   49.2295 H   0  0  0  0  0  0  0  0  0  0  0  0
   60.4644   34.6185   50.9267 H   0  0  0  0  0  0  0  0  0  0  0  0
   62.9561   34.4719   50.1991 H   0  0  0  0  0  0  0  0  0  0  0  0
   64.1489   32.8803   53.0240 H   0  0  0  0  0  0  0  0  0  0  0  0
   64.4103   31.9679   51.4989 H   0  0  0  0  0  0  0  0  0  0  0  0
   64.5000   33.7620   51.4989 H   0  0  0  0  0  0  0  0  0  0  0  0
   62.2144   34.8173   52.7375 H   0  0  0  0  0  0  0  0  0  0  0  0
   60.7079   33.7837   52.5807 H   0  0  0  0  0  0  0  0  0  0  0  0
   62.8909   33.7141   54.6228 H   0  0  0  0  0  0  0  0  0  0  0  0
   61.0883   33.4313   54.7531 H   0  0  0  0  0  0  0  0  0  0  0  0
   63.2934   31.5334   53.9939 H   0  0  0  0  0  0  0  0  0  0  0  0
   62.6610   30.5220   55.7300 H   0  0  0  0  0  0  0  0  0  0  0  0
   61.9570   29.1358   54.2364 H   0  0  0  0  0  0  0  0  0  0  0  0
   61.1167   28.8035   52.6839 H   0  0  0  0  0  0  0  0  0  0  0  0
   62.8495   29.2767   52.6839 H   0  0  0  0  0  0  0  0  0  0  0  0
   59.7665   30.9736   54.4441 H   0  0  0  0  0  0  0  0  0  0  0  0
   59.5162   31.8802   52.9137 H   0  0  0  0  0  0  0  0  0  0  0  0
   59.4587   30.0849   52.9137 H   0  0  0  0  0  0  0  0  0  0  0  0
   60.7286   31.7284   51.3057 H   0  0  0  0  0  0  0  0  0  0  0  0
   62.9903   29.8715   51.0393 H   0  0  0  0  0  0  0  0  0  0  0  0
   61.4843   30.1717   50.0234 H   0  0  0  0  0  0  0  0  0  0  0  0
   64.2032   31.4459   49.8486 H   0  0  0  0  0  0  0  0  0  0  0  0
   63.1140   30.6420   48.5730 H   0  0  0  0  0  0  0  0  0  0  0  0
   64.6532   33.6918   49.0767 H   0  0  0  0  0  0  0  0  0  0  0  0
   64.4881   32.6028   47.6577 H   0  0  0  0  0  0  0  0  0  0  0  0
   63.6797   34.2069   47.6577 H   0  0  0  0  0  0  0  0  0  0  0  0
   61.5075   34.7690   47.5468 H   0  0  0  0  0  0  0  0  0  0  0  0
   62.4188   33.9146   46.2561 H   0  0  0  0  0  0  0  0  0  0  0  0
   60.6227   33.8870   46.2561 H   0  0  0  0  0  0  0  0  0  0  0  0
   61.3345   31.7264   45.7827 H   0  0  0  0  0  0  0  0  0  0  0  0
   62.8437   31.2324   46.7397 H   0  0  0  0  0  0  0  0  0  0  0  0
   61.3125   29.3667   46.2600 H   0  0  0  0  0  0  0  0  0  0  0  0
   61.6132   29.7459   48.0461 H   0  0  0  0  0  0  0  0  0  0  0  0
  1  2  1  0
  2  3  1  0
  3  4  1  0
  4  5  1  0
  3  6  1  0
  6  7  1  0
  7  8  1  0
  8  9  1  0
  9 10  2  0
 11  9  1  1
 11 12  1  0
 12 13  1  0
 13 14  1  0
 14 15  1  0
 14 16  1  0
 16 17  1  0
 16 18  1  0
 18 19  1  0
 19 20  2  0
 20 21  1  0
 21 22  1  0
 22 23  1  0
 23 24  1  1
 23 25  1  0
 25 26  1  0
 26 27  1  0
 27 28  1  0
 27 29  1  0
 29 30  1  0
 29 31  1  0
 29 32  1  0
 32 33  1  0
 33 34  1  0
 34 35  1  0
 35 36  1  6
 35 37  1  0
 37 38  1  6
 37 39  1  0
 39 40  1  0
 18 11  1  0
 37 19  1  0
 40 11  1  0
 35 22  1  0
 32 23  1  0
  1 41  1  0
  1 42  1  0
  1 43  1  0
  2 44  1  0
  2 45  1  0
  4 46  1  0
  4 47  1  0
  5 48  1  0
  5 49  1  0
  5 50  1  0
  6 51  1  0
  6 52  1  0
  7 53  1  0
  7 54  1  0
 12 55  1  0
 12 56  1  0
 13 57  1  0
 13 58  1  0
 14 59  1  6
 15 60  1  0
 15 61  1  0
 15 62  1  0
 16 63  1  1
 17 64  1  0
 17 65  1  0
 17 66  1  0
 18 67  1  1
 20 68  1  0
 21 69  1  0
 21 70  1  0
 22 71  1  1
 24 72  1  0
 24 73  1  0
 24 74  1  0
 25 75  1  0
 25 76  1  0
 26 77  1  0
 26 78  1  0
 27 79  1  6
 28 80  1  0
 30 81  1  0
 30 82  1  0
 30 83  1  0
 31 84  1  0
 31 85  1  0
 31 86  1  0
 32 87  1  6
 33 88  1  0
 33 89  1  0
 34 90  1  0
 34 91  1  0
 36 92  1  0
 36 93  1  0
 36 94  1  0
 38 95  1  0
 38 96  1  0
 38 97  1  0
 39 98  1  0
 39 99  1  0
 40100  1  0
 40101  1  0
M  END
>  <UniqueID>  (18) 
17

>  <SMILES>  (18) 
CCN(CC)CCOC(=O)[C@@]12CC[C@H](C)C(C)C1C1=CCC3C4(C)CCC(O)C(C)(C)C4CCC3(C)C1(C)CC2

>  <Energy>  (18) 
202.8786613128911

>  <Genealogy>  (18) 
CCN(CC)CCOC(=O)[C@@]12CC[C@H](C)C(C)C1C1=CCC3C4(C)CCC(O)C(C)(C)C4CCC3(C)C1(C)CC2 (chirality)
CCN(CC)CCOC(=O)[C@@]12CC[C@H](C)C(C)C1C1=CCC3C4(C)CCC(O)C(C)(C)C4CCC3(C)C1(C)CC2 (3D coordinates assigned)
CCN(CC)CCOC(=O)[C@@]12CC[C@H](C)C(C)C1C1=CCC3C4(C)CCC(O)C(C)(C)C4CCC3(C)C1(C)CC2 (nonaromatic ring conformer: 202.8786613128911 kcal/mol)

>  <smiles>  (18) 
CCN(CC)CCOC(=O)C12CCC(C)C(C)C1C1=CCC3C4(C)CCC(O)C(C)(C)C4CCC3(C)C1(C)CC2

>  <score_type>  (18) 
oracle

>  <origin>  (18) 
adg

>  <m_score__min__energy>  (18) 
-8.5700000000000003

>  <m_primary>  (18) 
energy

$$$$
18:0
     RDKit          3D

 43 45  0  0  0  0  0  0  0  0999 V2000
   56.3840   29.5100   42.6770 C   0  0  0  0  0  0  0  0  0  0  0  0
   56.7760   30.9000   43.1690 C   0  0  0  0  0  0  0  0  0  0  0  0
   56.7650   30.9540   44.5960 O   0  0  0  0  0  0  0  0  0  0  0  0
   57.8120   31.4300   45.4040 C   0  0  0  0  0  0  0  0  0  0  0  0
   58.5530   30.4970   46.1370 C   0  0  0  0  0  0  0  0  0  0  0  0
   59.6070   30.9120   46.9570 C   0  0  0  0  0  0  0  0  0  0  0  0
   59.9430   32.2700   47.0470 C   0  0  0  0  0  0  0  0  0  0  0  0
   61.0430   32.7010   47.9360 C   0  0  0  0  0  0  0  0  0  0  0  0
   62.3790   32.6960   47.5940 C   0  0  0  0  0  0  0  0  0  0  0  0
   63.0960   33.0730   48.6700 N   0  0  0  0  0  0  0  0  0  0  0  0
   62.1950   33.3230   49.6540 C   0  0  0  0  0  0  0  0  0  0  0  0
   60.9260   33.1090   49.2230 N   0  0  0  0  0  0  0  0  0  0  0  0
   59.6930   33.2560   50.0020 C   0  0  0  0  0  0  0  0  0  0  0  0
   62.5360   33.7220   51.0800 C   0  0  0  0  0  0  0  0  0  0  0  0
   63.7820   34.6110   51.2630 C   0  0  0  0  0  0  0  0  0  0  0  0
   65.1010   33.8280   51.1660 C   0  0  0  0  0  0  0  0  0  0  0  0
   65.0480   32.6740   50.1470 C   0  0  0  0  0  0  0  0  0  0  0  0
   64.5550   33.0780   48.7500 C   0  0  0  0  0  0  0  0  0  0  0  0
   59.1860   33.2110   46.3310 C   0  0  0  0  0  0  0  0  0  0  0  0
   58.1320   32.7970   45.5130 C   0  0  0  0  0  0  0  0  0  0  0  0
   56.1990   28.8541   43.5404 H   0  0  0  0  0  0  0  0  0  0  0  0
   55.4708   29.5807   42.0679 H   0  0  0  0  0  0  0  0  0  0  0  0
   57.1996   29.0931   42.0679 H   0  0  0  0  0  0  0  0  0  0  0  0
   57.7867   31.1392   42.8067 H   0  0  0  0  0  0  0  0  0  0  0  0
   56.0486   31.6292   42.7827 H   0  0  0  0  0  0  0  0  0  0  0  0
   58.3045   29.4277   46.0678 H   0  0  0  0  0  0  0  0  0  0  0  0
   60.1757   30.1685   47.5348 H   0  0  0  0  0  0  0  0  0  0  0  0
   62.7896   32.4292   46.6090 H   0  0  0  0  0  0  0  0  0  0  0  0
   59.9318   33.2275   51.0754 H   0  0  0  0  0  0  0  0  0  0  0  0
   59.2173   34.2172   49.7576 H   0  0  0  0  0  0  0  0  0  0  0  0
   59.0046   32.4336   49.7576 H   0  0  0  0  0  0  0  0  0  0  0  0
   61.6730   34.2665   51.4908 H   0  0  0  0  0  0  0  0  0  0  0  0
   62.7695   32.7808   51.5992 H   0  0  0  0  0  0  0  0  0  0  0  0
   63.7768   35.3860   50.4824 H   0  0  0  0  0  0  0  0  0  0  0  0
   63.7308   35.0434   52.2732 H   0  0  0  0  0  0  0  0  0  0  0  0
   65.8990   34.5231   50.8658 H   0  0  0  0  0  0  0  0  0  0  0  0
   65.2906   33.3832   52.1540 H   0  0  0  0  0  0  0  0  0  0  0  0
   66.0614   32.2581   50.0464 H   0  0  0  0  0  0  0  0  0  0  0  0
   64.3203   31.9468   50.5365 H   0  0  0  0  0  0  0  0  0  0  0  0
   64.9212   34.0898   48.5214 H   0  0  0  0  0  0  0  0  0  0  0  0
   64.9409   32.3463   48.0250 H   0  0  0  0  0  0  0  0  0  0  0  0
   59.4245   34.2816   46.4147 H   0  0  0  0  0  0  0  0  0  0  0  0
   57.5494   33.5422   44.9515 H   0  0  0  0  0  0  0  0  0  0  0  0
  1  2  1  0
  2  3  1  0
  3  4  1  0
  4  5  2  0
  5  6  1  0
  6  7  2  0
  7  8  1  0
  8  9  2  0
  9 10  1  0
 10 11  1  0
 11 12  2  0
 12 13  1  0
 11 14  1  0
 14 15  1  0
 15 16  1  0
 16 17  1  0
 17 18  1  0
  7 19  1  0
 19 20  2  0
 20  4  1  0
 12  8  1  0
 18 10  1  0
  1 21  1  0
  1 22  1  0
  1 23  1  0
  2 24  1  0
  2 25  1  0
  5 26  1  0
  6 27  1  0
  9 28  1  0
 13 29  1  0
 13 30  1  0
 13 31  1  0
 14 32  1  0
 14 33  1  0
 15 34  1  0
 15 35  1  0
 16 36  1  0
 16 37  1  0
 17 38  1  0
 17 39  1  0
 18 40  1  0
 18 41  1  0
 19 42  1  0
 20 43  1  0
M  CHG  1  12   1
M  END
>  <UniqueID>  (19) 
18

>  <SMILES>  (19) 
CCOc1ccc(-c2cn3c([n+]2C)CCCCC3)cc1

>  <Energy>  (19) 
83.0548861996973

>  <Genealogy>  (19) 
CCOc1ccc(-c2cn3c([n+]2C)CCCCC3)cc1 (3D coordinates assigned)
CCOc1ccc(-c2cn3c([n+]2C)CCCCC3)cc1 (nonaromatic ring conformer: 83.0548861996973 kcal/mol)

>  <smiles>  (19) 
CCOc1ccc(-c2cn3c([n+]2C)CCCCC3)cc1

>  <score_type>  (19) 
oracle

>  <origin>  (19) 
adg

>  <m_score__min__energy>  (19) 
-3.2799999999999998

>  <m_primary>  (19) 
energy

$$$$
19:0
     RDKit          3D

 30 32  0  0  0  0  0  0  0  0999 V2000
   57.4220   32.3940   40.7430 C   0  0  0  0  0  0  0  0  0  0  0  0
   57.3910   31.9510   42.1710 C   0  0  0  0  0  0  0  0  0  0  0  0
   58.0650   32.6860   43.1550 C   0  0  0  0  0  0  0  0  0  0  0  0
   58.0260   32.2560   44.4900 C   0  0  0  0  0  0  0  0  0  0  0  0
   58.7280   33.0130   45.5460 C   0  0  0  0  0  0  0  0  0  0  0  0
   59.9030   32.6390   46.0990 N   0  0  0  0  0  0  0  0  0  0  0  0
   60.1200   33.6300   46.9910 C   0  0  0  0  0  0  0  0  0  0  0  0
   61.3230   33.7010   47.8530 C   0  0  0  0  0  0  0  0  0  0  0  0
   62.5720   33.3220   47.3240 C   0  0  0  0  0  0  0  0  0  0  0  0
   63.7250   33.3850   48.1110 C   0  0  0  0  0  0  0  0  0  0  0  0
   63.6460   33.8160   49.4360 C   0  0  0  0  0  0  0  0  0  0  0  0
   62.4120   34.1790   49.9800 C   0  0  0  0  0  0  0  0  0  0  0  0
   61.2520   34.1210   49.1990 C   0  0  0  0  0  0  0  0  0  0  0  0
   60.0650   34.4300   49.7780 F   0  0  0  0  0  0  0  0  0  0  0  0
   59.1320   34.5440   46.9590 N   0  0  0  0  0  0  0  0  0  0  0  0
   58.2910   34.1370   46.0620 O   0  0  0  0  0  0  0  0  0  0  0  0
   57.3110   31.0930   44.8120 C   0  0  0  0  0  0  0  0  0  0  0  0
   56.6520   30.3890   43.8020 C   0  0  0  0  0  0  0  0  0  0  0  0
   56.7050   30.8270   42.5170 N   0  0  0  0  0  0  0  0  0  0  0  0
   57.4987   33.4905   40.7008 H   0  0  0  0  0  0  0  0  0  0  0  0
   58.2910   31.9460   40.2389 H   0  0  0  0  0  0  0  0  0  0  0  0
   56.4991   32.0714   40.2389 H   0  0  0  0  0  0  0  0  0  0  0  0
   58.6215   33.5949   42.8826 H   0  0  0  0  0  0  0  0  0  0  0  0
   62.6405   32.9736   46.2829 H   0  0  0  0  0  0  0  0  0  0  0  0
   64.6967   33.0943   47.6853 H   0  0  0  0  0  0  0  0  0  0  0  0
   64.5558   33.8698   50.0520 H   0  0  0  0  0  0  0  0  0  0  0  0
   62.3515   34.5119   51.0267 H   0  0  0  0  0  0  0  0  0  0  0  0
   59.0470   35.4340   47.4970 H   0  0  0  0  0  0  0  0  0  0  0  0
   57.2697   30.7382   45.8524 H   0  0  0  0  0  0  0  0  0  0  0  0
   56.0882   29.4769   44.0476 H   0  0  0  0  0  0  0  0  0  0  0  0
  1  2  1  0
  2  3  2  0
  3  4  1  0
  4  5  1  0
  5  6  2  0
  6  7  1  0
  7  8  1  0
  8  9  2  0
  9 10  1  0
 10 11  2  0
 11 12  1  0
 12 13  2  0
 13 14  1  0
  7 15  2  0
 15 16  1  0
  4 17  2  0
 17 18  1  0
 18 19  2  0
 19  2  1  0
 16  5  1  0
 13  8  1  0
  1 20  1  0
  1 21  1  0
  1 22  1  0
  3 23  1  0
  9 24  1  0
 10 25  1  0
 11 26  1  0
 12 27  1  0
 15 28  1  0
 17 29  1  0
 18 30  1  0
M  CHG  1  15   1
M  END
>  <UniqueID>  (20) 
19

>  <SMILES>  (20) 
Cc1cc(-c2nc(-c3ccccc3F)[nH+]o2)ccn1

>  <Energy>  (20) 
69.72513038635876

>  <Genealogy>  (20) 
Cc1cc(-c2nc(-c3ccccc3F)[nH+]o2)ccn1 (protonated)
Cc1cc(-c2nc(-c3ccccc3F)[nH+]o2)ccn1 (3D coordinates assigned)
Cc1cc(-c2nc(-c3ccccc3F)[nH+]o2)ccn1 (optimized conformer: 69.72513038635876 kcal/mol)

>  <smiles>  (20) 
Cc1cc(-c2nc(-c3ccccc3F)no2)ccn1

>  <score_type>  (20) 
oracle

>  <origin>  (20) 
adg

>  <m_score__min__energy>  (20) 
-5.8700000000000001

>  <m_primary>  (20) 
energy

$$$$
20:0
     RDKit          3D

 63 67  0  0  0  0  0  0  0  0999 V2000
   57.7580   25.8530   44.8270 C   0  0  0  0  0  0  0  0  0  0  0  0
   58.0330   26.7620   46.0320 C   0  0  0  0  0  0  0  0  0  0  0  0
   58.6030   28.0780   45.6370 N   0  0  0  0  0  0  0  0  0  0  0  0
   60.0560   28.1330   45.9460 C   0  0  0  0  0  0  0  0  0  0  0  0
   60.8640   28.9360   44.9150 C   0  0  0  0  0  0  0  0  0  0  0  0
   58.3800   28.3490   44.1810 C   0  0  0  0  0  0  0  0  0  0  0  0
   57.1710   29.2730   43.9370 C   0  0  0  0  0  0  0  0  0  0  0  0
   56.9580   30.1810   45.0650 N   0  0  0  0  0  0  0  0  0  0  0  0
   57.9010   31.2000   45.4380 C   0  0  0  0  0  0  0  0  0  0  0  0
   58.1140   32.3720   44.6590 C   0  0  0  0  0  0  0  0  0  0  0  0
   58.9490   33.4190   45.1320 C   0  0  0  0  0  0  0  0  0  0  0  0
   59.6520   33.2700   46.3420 C   0  0  0  0  0  0  0  0  0  0  0  0
   59.5030   32.0830   47.0100 C   0  0  0  0  0  0  0  0  0  0  0  0
   58.5910   31.1100   46.6510 C   0  0  0  0  0  0  0  0  0  0  0  0
   58.3430   30.2620   47.7500 O   0  0  0  0  0  0  0  0  0  0  0  0
   58.8440   31.0600   48.8230 C   0  0  1  0  0  0  0  0  0  0  0  0
   58.8420   30.8530   50.2880 C   0  0  0  0  0  0  0  0  0  0  0  0
   58.7090   29.7560   50.8070 O   0  0  0  0  0  0  0  0  0  0  0  0
   59.0030   32.1570   51.0940 C   0  0  0  0  0  0  0  0  0  0  0  0
   59.5160   33.3710   50.1960 C   0  0  0  0  0  0  0  0  0  0  0  0
   60.6360   32.8860   49.2230 C   0  0  2  0  0  0  0  0  0  0  0  0
   61.6940   32.4670   50.0740 O   0  0  0  0  0  0  0  0  0  0  0  0
   61.3060   33.8720   48.2230 C   0  0  2  0  0  0  0  0  0  0  0  0
   60.3670   34.3820   47.0650 C   0  0  0  0  0  0  0  0  0  0  0  0
   62.5380   33.1810   47.7140 N   0  0  0  0  0  0  0  0  0  0  0  0
   63.3880   34.0320   46.8680 C   0  0  0  0  0  0  0  0  0  0  0  0
   62.3700   31.8140   47.1270 C   0  0  0  0  0  0  0  0  0  0  0  0
   61.3610   30.8900   47.8950 C   0  0  0  0  0  0  0  0  0  0  0  0
   60.1230   31.7310   48.3070 C   0  0  2  0  0  0  0  0  0  0  0  0
   57.4564   24.8561   45.1810 H   0  0  0  0  0  0  0  0  0  0  0  0
   56.9505   26.2857   44.2180 H   0  0  0  0  0  0  0  0  0  0  0  0
   58.6699   25.7655   44.2180 H   0  0  0  0  0  0  0  0  0  0  0  0
   57.0873   26.9338   46.5669 H   0  0  0  0  0  0  0  0  0  0  0  0
   58.7731   26.2559   46.6693 H   0  0  0  0  0  0  0  0  0  0  0  0
   58.1330   28.8180   46.2130 H   0  0  0  0  0  0  0  0  0  0  0  0
   60.1861   28.6006   46.9331 H   0  0  0  0  0  0  0  0  0  0  0  0
   60.4340   27.1002   45.9250 H   0  0  0  0  0  0  0  0  0  0  0  0
   61.5504   29.6182   45.4379 H   0  0  0  0  0  0  0  0  0  0  0  0
   61.4431   28.2453   44.2845 H   0  0  0  0  0  0  0  0  0  0  0  0
   60.1769   29.5194   44.2845 H   0  0  0  0  0  0  0  0  0  0  0  0
   59.2802   28.8278   43.7683 H   0  0  0  0  0  0  0  0  0  0  0  0
   58.1742   27.3878   43.6873 H   0  0  0  0  0  0  0  0  0  0  0  0
   57.3515   29.8666   43.0286 H   0  0  0  0  0  0  0  0  0  0  0  0
   56.2739   28.6470   43.8217 H   0  0  0  0  0  0  0  0  0  0  0  0
   56.0810   30.0960   45.6280 H   0  0  0  0  0  0  0  0  0  0  0  0
   57.6256   32.4681   43.6780 H   0  0  0  0  0  0  0  0  0  0  0  0
   59.0464   34.3482   44.5514 H   0  0  0  0  0  0  0  0  0  0  0  0
   57.8920   31.5763   49.0160 H   0  0  0  0  0  0  0  0  0  0  0  0
   58.0286   32.4262   51.5276 H   0  0  0  0  0  0  0  0  0  0  0  0
   59.7571   31.9766   51.8742 H   0  0  0  0  0  0  0  0  0  0  0  0
   58.6747   33.7712   49.6111 H   0  0  0  0  0  0  0  0  0  0  0  0
   59.9242   34.1547   50.8511 H   0  0  0  0  0  0  0  0  0  0  0  0
   62.5690   32.6140   49.6340 H   0  0  0  0  0  0  0  0  0  0  0  0
   61.5560   34.8067   48.7463 H   0  0  0  0  0  0  0  0  0  0  0  0
   59.6143   35.0572   47.4981 H   0  0  0  0  0  0  0  0  0  0  0  0
   61.0062   34.8906   46.3283 H   0  0  0  0  0  0  0  0  0  0  0  0
   64.0216   34.6663   47.5053 H   0  0  0  0  0  0  0  0  0  0  0  0
   64.0246   33.3984   46.2329 H   0  0  0  0  0  0  0  0  0  0  0  0
   62.7537   34.6678   46.2329 H   0  0  0  0  0  0  0  0  0  0  0  0
   62.0124   31.9268   46.0929 H   0  0  0  0  0  0  0  0  0  0  0  0
   63.3526   31.3242   47.1942 H   0  0  0  0  0  0  0  0  0  0  0  0
   61.0452   30.0640   47.2408 H   0  0  0  0  0  0  0  0  0  0  0  0
   61.8443   30.4742   48.7914 H   0  0  0  0  0  0  0  0  0  0  0  0
  1  2  1  0
  2  3  1  0
  3  4  1  0
  4  5  1  0
  3  6  1  0
  6  7  1  0
  7  8  1  0
  8  9  1  0
  9 10  2  0
 10 11  1  0
 11 12  2  0
 12 13  1  0
 13 14  2  0
 14 15  1  0
 15 16  1  0
 16 17  1  0
 17 18  2  0
 17 19  1  0
 19 20  1  0
 20 21  1  0
 21 22  1  1
 21 23  1  0
 23 24  1  0
 23 25  1  0
 25 26  1  0
 25 27  1  0
 27 28  1  0
 29 28  1  6
 14  9  1  0
 29 16  1  0
 24 12  1  0
 29 13  1  0
 29 21  1  0
  1 30  1  0
  1 31  1  0
  1 32  1  0
  2 33  1  0
  2 34  1  0
  3 35  1  0
  4 36  1  0
  4 37  1  0
  5 38  1  0
  5 39  1  0
  5 40  1  0
  6 41  1  0
  6 42  1  0
  7 43  1  0
  7 44  1  0
  8 45  1  0
 10 46  1  0
 11 47  1  0
 16 48  1  1
 19 49  1  0
 19 50  1  0
 20 51  1  0
 20 52  1  0
 22 53  1  0
 23 54  1  1
 24 55  1  0
 24 56  1  0
 26 57  1  0
 26 58  1  0
 26 59  1  0
 27 60  1  0
 27 61  1  0
 28 62  1  0
 28 63  1  0
M  CHG  1   3   1
M  END
>  <UniqueID>  (21) 
20

>  <SMILES>  (21) 
CC[NH+](CC)CCNc1ccc2c3c1O[C@H]1C(=O)CC[C@]4(O)C(C2)N(C)CCC314

>  <Energy>  (21) 
190.67563412691072

>  <Genealogy>  (21) 
CC[NH+](CC)CCNc1ccc2c3c1OC1C(=O)CCC4(O)C(C2)N(C)CCC314 (protonated)
CC[NH+](CC)CCNc1ccc2c3c1O[C@H]1C(=O)CC[C@]4(O)C(C2)N(C)CCC314 (chirality)
CC[NH+](CC)CCNc1ccc2c3c1O[C@H]1C(=O)CC[C@]4(O)C(C2)N(C)CCC314 (3D coordinates assigned)
CC[NH+](CC)CCNc1ccc2c3c1O[C@H]1C(=O)CC[C@]4(O)C(C2)N(C)CCC314 (nonaromatic ring conformer: 190.67563412691072 kcal/mol)

>  <smiles>  (21) 
CCN(CC)CCNc1ccc2c3c1OC1C(=O)CCC4(O)C(C2)N(C)CCC314

>  <score_type>  (21) 
oracle

>  <origin>  (21) 
adg

>  <m_score__min__energy>  (21) 
-5.6900000000000004

>  <m_primary>  (21) 
energy

$$$$
21:0
     RDKit          3D

 51 53  0  0  0  0  0  0  0  0999 V2000
   61.6670   32.9090   51.9870 C   0  0  0  0  0  0  0  0  0  0  0  0
   63.1930   32.8330   52.1140 C   0  0  0  0  0  0  0  0  0  0  0  0
   63.7620   31.6500   51.4240 N   0  0  2  0  0  0  0  0  0  0  0  0
   63.6030   30.4130   52.2190 C   0  0  0  0  0  0  0  0  0  0  0  0
   65.1730   31.8690   51.0100 C   0  0  0  0  0  0  0  0  0  0  0  0
   65.4370   33.1910   50.2470 C   0  0  0  0  0  0  0  0  0  0  0  0
   64.9120   33.1540   48.8790 N   0  0  0  0  0  0  0  0  0  0  0  0
   63.5380   32.8540   48.5690 C   0  0  0  0  0  0  0  0  0  0  0  0
   63.2120   31.5920   48.0480 C   0  0  0  0  0  0  0  0  0  0  0  0
   61.8900   31.2710   47.7340 C   0  0  0  0  0  0  0  0  0  0  0  0
   60.8710   32.2130   47.9280 C   0  0  0  0  0  0  0  0  0  0  0  0
   61.1770   33.4680   48.4620 C   0  0  0  0  0  0  0  0  0  0  0  0
   62.5090   33.7950   48.7670 C   0  0  0  0  0  0  0  0  0  0  0  0
   60.0720   34.4630   48.6470 C   0  0  0  0  0  0  0  0  0  0  0  0
   59.6000   34.9790   47.2880 C   0  0  0  0  0  0  0  0  0  0  0  0
   58.8240   34.0000   46.4180 C   0  0  0  0  0  0  0  0  0  0  0  0
   58.1150   34.5770   45.3450 C   0  0  0  0  0  0  0  0  0  0  0  0
   57.3830   33.7930   44.4560 C   0  0  0  0  0  0  0  0  0  0  0  0
   57.3490   32.4120   44.6120 C   0  0  0  0  0  0  0  0  0  0  0  0
   58.0500   31.8100   45.6540 C   0  0  0  0  0  0  0  0  0  0  0  0
   58.7990   32.5770   46.5700 C   0  0  0  0  0  0  0  0  0  0  0  0
   59.5080   31.8850   47.6250 N   0  0  0  0  0  0  0  0  0  0  0  0
   58.9150   30.7130   48.2760 C   0  0  0  0  0  0  0  0  0  0  0  0
   61.2162   32.9314   52.9902 H   0  0  0  0  0  0  0  0  0  0  0  0
   61.3896   33.8221   51.4399 H   0  0  0  0  0  0  0  0  0  0  0  0
   61.3003   32.0280   51.4399 H   0  0  0  0  0  0  0  0  0  0  0  0
   63.6293   33.7418   51.6739 H   0  0  0  0  0  0  0  0  0  0  0  0
   63.4355   32.7450   53.1833 H   0  0  0  0  0  0  0  0  0  0  0  0
   63.2250   31.5120   50.5350 H   0  0  0  0  0  0  0  0  0  0  0  0
   63.6347   30.6592   53.2906 H   0  0  0  0  0  0  0  0  0  0  0  0
   62.6372   29.9444   51.9788 H   0  0  0  0  0  0  0  0  0  0  0  0
   64.4189   29.7154   51.9788 H   0  0  0  0  0  0  0  0  0  0  0  0
   65.7978   31.8676   51.9154 H   0  0  0  0  0  0  0  0  0  0  0  0
   65.4157   31.0571   50.3086 H   0  0  0  0  0  0  0  0  0  0  0  0
   64.9533   34.0163   50.7901 H   0  0  0  0  0  0  0  0  0  0  0  0
   66.5259   33.3354   50.1875 H   0  0  0  0  0  0  0  0  0  0  0  0
   65.5560   33.3590   48.0820 H   0  0  0  0  0  0  0  0  0  0  0  0
   64.0061   30.8484   47.8855 H   0  0  0  0  0  0  0  0  0  0  0  0
   61.6477   30.2757   47.3332 H   0  0  0  0  0  0  0  0  0  0  0  0
   62.7497   34.7926   49.1631 H   0  0  0  0  0  0  0  0  0  0  0  0
   59.2305   33.9805   49.1657 H   0  0  0  0  0  0  0  0  0  0  0  0
   60.4437   35.3083   49.2448 H   0  0  0  0  0  0  0  0  0  0  0  0
   58.9530   35.8501   47.4684 H   0  0  0  0  0  0  0  0  0  0  0  0
   60.5199   35.1991   46.7265 H   0  0  0  0  0  0  0  0  0  0  0  0
   58.1402   35.6680   45.2069 H   0  0  0  0  0  0  0  0  0  0  0  0
   56.8318   34.2668   43.6304 H   0  0  0  0  0  0  0  0  0  0  0  0
   56.7678   31.7941   43.9117 H   0  0  0  0  0  0  0  0  0  0  0  0
   58.0188   30.7160   45.7645 H   0  0  0  0  0  0  0  0  0  0  0  0
   58.9746   30.8308   49.3680 H   0  0  0  0  0  0  0  0  0  0  0  0
   57.8613   30.6199   47.9742 H   0  0  0  0  0  0  0  0  0  0  0  0
   59.4641   29.8089   47.9742 H   0  0  0  0  0  0  0  0  0  0  0  0
  1  2  1  0
  2  3  1  0
  3  4  1  0
  3  5  1  0
  5  6  1  0
  6  7  1  0
  7  8  1  0
  8  9  2  0
  9 10  1  0
 10 11  2  0
 11 12  1  0
 12 13  2  0
 12 14  1  0
 14 15  1  0
 15 16  1  0
 16 17  2  0
 17 18  1  0
 18 19  2  0
 19 20  1  0
 20 21  2  0
 21 22  1  0
 22 23  1  0
 13  8  1  0
 21 16  1  0
 22 11  1  0
  1 24  1  0
  1 25  1  0
  1 26  1  0
  2 27  1  0
  2 28  1  0
  3 29  1  6
  4 30  1  0
  4 31  1  0
  4 32  1  0
  5 33  1  0
  5 34  1  0
  6 35  1  0
  6 36  1  0
  7 37  1  0
  9 38  1  0
 10 39  1  0
 13 40  1  0
 14 41  1  0
 14 42  1  0
 15 43  1  0
 15 44  1  0
 17 45  1  0
 18 46  1  0
 19 47  1  0
 20 48  1  0
 23 49  1  0
 23 50  1  0
 23 51  1  0
M  CHG  1   3   1
M  END
>  <UniqueID>  (22) 
21

>  <SMILES>  (22) 
CC[N@H+](C)CCNc1ccc2c(c1)CCc1ccccc1N2C

>  <Energy>  (22) 
71.10374288725002

>  <Genealogy>  (22) 
CC[NH+](C)CCNc1ccc2c(c1)CCc1ccccc1N2C (protonated)
CC[N@H+](C)CCNc1ccc2c(c1)CCc1ccccc1N2C (chirality)
CC[N@H+](C)CCNc1ccc2c(c1)CCc1ccccc1N2C (3D coordinates assigned)
CC[N@H+](C)CCNc1ccc2c(c1)CCc1ccccc1N2C (nonaromatic ring conformer: 71.10374288725002 kcal/mol)

>  <smiles>  (22) 
CCN(C)CCNc1ccc2c(c1)CCc1ccccc1N2C

>  <score_type>  (22) 
oracle

>  <origin>  (22) 
adg

>  <m_score__min__energy>  (22) 
-3.7999999999999998

>  <m_primary>  (22) 
energy

$$$$
22:0
     RDKit          3D

 44 46  0  0  0  0  0  0  0  0999 V2000
   59.6470   35.6940   45.9890 C   0  0  0  0  0  0  0  0  0  0  0  0
   59.9580   34.4040   46.6110 N   0  0  0  0  0  0  0  0  0  0  0  0
   60.9680   33.5060   46.0310 C   0  0  0  0  0  0  0  0  0  0  0  0
   61.9990   33.1010   47.0570 C   0  0  0  0  0  0  0  0  0  0  0  0
   61.8180   31.9380   47.8260 C   0  0  0  0  0  0  0  0  0  0  0  0
   62.7700   31.5690   48.7810 C   0  0  0  0  0  0  0  0  0  0  0  0
   63.9190   32.3430   48.9630 C   0  0  0  0  0  0  0  0  0  0  0  0
   64.1220   33.4830   48.1800 C   0  0  0  0  0  0  0  0  0  0  0  0
   63.1720   33.8570   47.2240 C   0  0  0  0  0  0  0  0  0  0  0  0
   59.3380   34.0960   47.8690 C   0  0  0  0  0  0  0  0  0  0  0  0
   59.3660   34.9520   48.7960 O   0  0  0  0  0  0  0  0  0  0  0  0
   58.5840   32.8120   48.0720 C   0  0  0  0  0  0  0  0  0  0  0  0
   57.9990   32.3290   46.8200 N   0  0  0  0  0  0  0  0  0  0  0  0
   57.1730   33.0250   45.9990 C   0  0  0  0  0  0  0  0  0  0  0  0
   56.8180   32.3330   44.8850 N   0  0  0  0  0  0  0  0  0  0  0  0
   57.4550   31.1560   45.0460 C   0  0  0  0  0  0  0  0  0  0  0  0
   58.1570   31.1420   46.2040 C   0  0  0  0  0  0  0  0  0  0  0  0
   58.9120   30.0280   46.5520 C   0  0  0  0  0  0  0  0  0  0  0  0
   59.5340   29.9920   47.6490 O   0  0  0  0  0  0  0  0  0  0  0  0
   58.9600   28.9710   45.6710 N   0  0  0  0  0  0  0  0  0  0  0  0
   59.7580   27.7760   45.9970 C   0  0  0  0  0  0  0  0  0  0  0  0
   58.2240   29.0060   44.4980 C   0  0  0  0  0  0  0  0  0  0  0  0
   58.2610   28.0220   43.7040 O   0  0  0  0  0  0  0  0  0  0  0  0
   57.4530   30.1040   44.1820 N   0  0  0  0  0  0  0  0  0  0  0  0
   56.7220   30.1780   42.9100 C   0  0  0  0  0  0  0  0  0  0  0  0
   59.4660   36.4447   46.7724 H   0  0  0  0  0  0  0  0  0  0  0  0
   60.4939   36.0133   45.3639 H   0  0  0  0  0  0  0  0  0  0  0  0
   58.7476   35.5923   45.3639 H   0  0  0  0  0  0  0  0  0  0  0  0
   60.4679   32.6032   45.6504 H   0  0  0  0  0  0  0  0  0  0  0  0
   61.4804   34.0406   45.2176 H   0  0  0  0  0  0  0  0  0  0  0  0
   60.9235   31.3157   47.6756 H   0  0  0  0  0  0  0  0  0  0  0  0
   62.6141   30.6669   49.3908 H   0  0  0  0  0  0  0  0  0  0  0  0
   64.6625   32.0557   49.7211 H   0  0  0  0  0  0  0  0  0  0  0  0
   65.0310   34.0874   48.3160 H   0  0  0  0  0  0  0  0  0  0  0  0
   63.3437   34.7466   46.6002 H   0  0  0  0  0  0  0  0  0  0  0  0
   59.2749   32.0496   48.4611 H   0  0  0  0  0  0  0  0  0  0  0  0
   57.7671   33.0006   48.7841 H   0  0  0  0  0  0  0  0  0  0  0  0
   56.8258   34.0465   46.2136 H   0  0  0  0  0  0  0  0  0  0  0  0
   59.8292   27.6694   47.0895 H   0  0  0  0  0  0  0  0  0  0  0  0
   59.2734   26.8844   45.5724 H   0  0  0  0  0  0  0  0  0  0  0  0
   60.7672   27.8820   45.5724 H   0  0  0  0  0  0  0  0  0  0  0  0
   55.6461   30.2869   43.1112 H   0  0  0  0  0  0  0  0  0  0  0  0
   57.0767   31.0448   42.3331 H   0  0  0  0  0  0  0  0  0  0  0  0
   56.8958   29.2577   42.3331 H   0  0  0  0  0  0  0  0  0  0  0  0
  1  2  1  0
  2  3  1  0
  3  4  1  0
  4  5  2  0
  5  6  1  0
  6  7  2  0
  7  8  1  0
  8  9  2  0
  2 10  1  0
 10 11  2  0
 10 12  1  0
 12 13  1  0
 13 14  1  0
 14 15  2  0
 15 16  1  0
 16 17  2  0
 17 18  1  0
 18 19  2  0
 18 20  1  0
 20 21  1  0
 20 22  1  0
 22 23  2  0
 22 24  1  0
 24 25  1  0
  9  4  1  0
 17 13  1  0
 24 16  1  0
  1 26  1  0
  1 27  1  0
  1 28  1  0
  3 29  1  0
  3 30  1  0
  5 31  1  0
  6 32  1  0
  7 33  1  0
  8 34  1  0
  9 35  1  0
 12 36  1  0
 12 37  1  0
 14 38  1  0
 21 39  1  0
 21 40  1  0
 21 41  1  0
 25 42  1  0
 25 43  1  0
 25 44  1  0
M  END
>  <UniqueID>  (23) 
22

>  <SMILES>  (23) 
CN(Cc1ccccc1)C(=O)Cn1cnc2c1c(=O)n(C)c(=O)n2C

>  <Energy>  (23) 
90.02675239012967

>  <Genealogy>  (23) 
CN(Cc1ccccc1)C(=O)Cn1cnc2c1c(=O)n(C)c(=O)n2C (3D coordinates assigned)
CN(Cc1ccccc1)C(=O)Cn1cnc2c1c(=O)n(C)c(=O)n2C (optimized conformer: 90.02675239012967 kcal/mol)

>  <smiles>  (23) 
CN(Cc1ccccc1)C(=O)Cn1cnc2c1c(=O)n(C)c(=O)n2C

>  <score_type>  (23) 
oracle

>  <origin>  (23) 
adg

>  <m_score__min__energy>  (23) 
-7.1799999999999997

>  <m_primary>  (23) 
energy

$$$$
23:0
     RDKit          3D

 62 64  0  0  0  0  0  0  0  0999 V2000
   53.1890   30.8830   51.2450 C   0  0  0  0  0  0  0  0  0  0  0  0
   53.6040   30.2170   52.5600 C   0  0  0  0  0  0  0  0  0  0  0  0
   54.3060   28.9400   52.3410 N   0  0  0  0  0  0  0  0  0  0  0  0
   55.0370   28.4520   53.5220 C   0  0  0  0  0  0  0  0  0  0  0  0
   56.5310   28.8240   53.5090 C   0  0  0  0  0  0  0  0  0  0  0  0
   56.8620   29.7100   52.3900 N   0  0  0  0  0  0  0  0  0  0  0  0
   58.2080   30.0600   52.0060 C   0  0  0  0  0  0  0  0  0  0  0  0
   59.1660   29.0550   51.8000 C   0  0  0  0  0  0  0  0  0  0  0  0
   60.4530   29.3760   51.3830 C   0  0  0  0  0  0  0  0  0  0  0  0
   61.3650   28.3910   51.1870 F   0  0  0  0  0  0  0  0  0  0  0  0
   60.8010   30.7000   51.1340 C   0  0  0  0  0  0  0  0  0  0  0  0
   59.8630   31.7390   51.3100 C   0  0  0  0  0  0  0  0  0  0  0  0
   58.5690   31.4150   51.7950 C   0  0  0  0  0  0  0  0  0  0  0  0
   57.5760   32.5240   52.0540 C   0  0  0  0  0  0  0  0  0  0  0  0
   58.2840   33.8280   52.4040 C   0  0  0  0  0  0  0  0  0  0  0  0
   59.2620   34.2110   51.2990 C   0  0  0  0  0  0  0  0  0  0  0  0
   60.2110   33.1230   51.0130 N   0  0  0  0  0  0  0  0  0  0  0  0
   61.4120   33.4710   50.2360 C   0  0  0  0  0  0  0  0  0  0  0  0
   61.0450   33.7960   48.8530 C   0  0  0  0  0  0  0  0  0  0  0  0
   60.7310   34.0690   47.7220 C   0  0  0  0  0  0  0  0  0  0  0  0
   60.3550   34.4090   46.3460 C   0  0  0  0  0  0  0  0  0  0  0  0
   59.3170   33.4840   45.8540 N   0  0  0  0  0  0  0  0  0  0  0  0
   57.9650   33.9860   46.1520 C   0  0  0  0  0  0  0  0  0  0  0  0
   56.9100   33.1210   45.4340 C   0  0  0  0  0  0  0  0  0  0  0  0
   57.3340   31.7130   45.2470 N   0  0  0  0  0  0  0  0  0  0  0  0
   57.8940   31.4720   43.9050 C   0  0  0  0  0  0  0  0  0  0  0  0
   58.2450   31.2560   46.3140 C   0  0  0  0  0  0  0  0  0  0  0  0
   59.5090   32.1380   46.4360 C   0  0  0  0  0  0  0  0  0  0  0  0
   52.6186   31.7983   51.4616 H   0  0  0  0  0  0  0  0  0  0  0  0
   54.0874   31.1395   50.6644 H   0  0  0  0  0  0  0  0  0  0  0  0
   52.5629   30.1896   50.6644 H   0  0  0  0  0  0  0  0  0  0  0  0
   54.2718   30.8989   53.1069 H   0  0  0  0  0  0  0  0  0  0  0  0
   52.6898   30.0052   53.1340 H   0  0  0  0  0  0  0  0  0  0  0  0
   53.6750   28.1990   51.9610 H   0  0  0  0  0  0  0  0  0  0  0  0
   54.5767   28.8862   54.4218 H   0  0  0  0  0  0  0  0  0  0  0  0
   54.9742   27.3538   53.5137 H   0  0  0  0  0  0  0  0  0  0  0  0
   56.7792   29.3334   54.4518 H   0  0  0  0  0  0  0  0  0  0  0  0
   57.1128   27.8975   53.3948 H   0  0  0  0  0  0  0  0  0  0  0  0
   56.0630   30.1090   51.8490 H   0  0  0  0  0  0  0  0  0  0  0  0
   58.8957   28.0024   51.9702 H   0  0  0  0  0  0  0  0  0  0  0  0
   61.8199   30.9395   50.7958 H   0  0  0  0  0  0  0  0  0  0  0  0
   56.9665   32.6778   51.1513 H   0  0  0  0  0  0  0  0  0  0  0  0
   56.9427   32.2325   52.9049 H   0  0  0  0  0  0  0  0  0  0  0  0
   57.5368   34.6269   52.5205 H   0  0  0  0  0  0  0  0  0  0  0  0
   58.8400   33.6928   53.3435 H   0  0  0  0  0  0  0  0  0  0  0  0
   58.6952   34.4397   50.3844 H   0  0  0  0  0  0  0  0  0  0  0  0
   59.8352   35.0873   51.6360 H   0  0  0  0  0  0  0  0  0  0  0  0
   61.9024   34.3416   50.6958 H   0  0  0  0  0  0  0  0  0  0  0  0
   62.0983   32.6114   50.2324 H   0  0  0  0  0  0  0  0  0  0  0  0
   59.9659   35.4376   46.3201 H   0  0  0  0  0  0  0  0  0  0  0  0
   61.2428   34.3248   45.7020 H   0  0  0  0  0  0  0  0  0  0  0  0
   57.7923   33.9444   47.2376 H   0  0  0  0  0  0  0  0  0  0  0  0
   57.8802   35.0246   45.7997 H   0  0  0  0  0  0  0  0  0  0  0  0
   55.9859   33.1309   46.0305 H   0  0  0  0  0  0  0  0  0  0  0  0
   56.7622   33.5521   44.4329 H   0  0  0  0  0  0  0  0  0  0  0  0
   58.9006   31.0388   44.0001 H   0  0  0  0  0  0  0  0  0  0  0  0
   57.2446   30.7737   43.3567 H   0  0  0  0  0  0  0  0  0  0  0  0
   57.9547   32.4237   43.3567 H   0  0  0  0  0  0  0  0  0  0  0  0
   57.7051   31.2799   47.2721 H   0  0  0  0  0  0  0  0  0  0  0  0
   58.5731   30.2378   46.0579 H   0  0  0  0  0  0  0  0  0  0  0  0
   59.7622   32.2467   47.5009 H   0  0  0  0  0  0  0  0  0  0  0  0
   60.3174   31.6438   45.8772 H   0  0  0  0  0  0  0  0  0  0  0  0
  1  2  1  0
  2  3  1  0
  3  4  1  0
  4  5  1  0
  5  6  1  0
  6  7  1  0
  7  8  2  0
  8  9  1  0
  9 10  1  0
  9 11  2  0
 11 12  1  0
 12 13  2  0
 13 14  1  0
 14 15  1  0
 15 16  1  0
 16 17  1  0
 17 18  1  0
 18 19  1  0
 19 20  3  0
 20 21  1  0
 21 22  1  0
 22 23  1  0
 23 24  1  0
 24 25  1  0
 25 26  1  0
 25 27  1  0
 27 28  1  0
 13  7  1  0
 28 22  1  0
 17 12  1  0
  1 29  1  0
  1 30  1  0
  1 31  1  0
  2 32  1  0
  2 33  1  0
  3 34  1  0
  4 35  1  0
  4 36  1  0
  5 37  1  0
  5 38  1  0
  6 39  1  0
  8 40  1  0
 11 41  1  0
 14 42  1  0
 14 43  1  0
 15 44  1  0
 15 45  1  0
 16 46  1  0
 16 47  1  0
 18 48  1  0
 18 49  1  0
 21 50  1  0
 21 51  1  0
 23 52  1  0
 23 53  1  0
 24 54  1  0
 24 55  1  0
 26 56  1  0
 26 57  1  0
 26 58  1  0
 27 59  1  0
 27 60  1  0
 28 61  1  0
 28 62  1  0
M  END
>  <UniqueID>  (24) 
23

>  <SMILES>  (24) 
CCNCCNc1cc(F)cc2c1CCCN2CC#CCN1CCN(C)CC1

>  <Energy>  (24) 
69.2261170149144

>  <Genealogy>  (24) 
CCNCCNc1cc(F)cc2c1CCCN2CC#CCN1CCN(C)CC1 (3D coordinates assigned)
CCNCCNc1cc(F)cc2c1CCCN2CC#CCN1CCN(C)CC1 (nonaromatic ring conformer: 69.2261170149144 kcal/mol)

>  <smiles>  (24) 
CCNCCNc1cc(F)cc2c1CCCN2CC#CCN1CCN(C)CC1

>  <score_type>  (24) 
oracle

>  <origin>  (24) 
adg

>  <m_score__min__energy>  (24) 
-7.3200000000000003

>  <m_primary>  (24) 
energy

$$$$
24:0
     RDKit          3D

 52 56  0  0  0  0  0  0  0  0999 V2000
   63.2940   33.4700   49.6290 C   0  0  0  0  0  0  0  0  0  0  0  0
   61.9450   33.6820   49.2240 O   0  0  0  0  0  0  0  0  0  0  0  0
   61.2060   32.7890   48.4320 C   0  0  0  0  0  0  0  0  0  0  0  0
   59.8230   32.9790   48.3300 C   0  0  0  0  0  0  0  0  0  0  0  0
   59.0440   32.1150   47.5550 C   0  0  0  0  0  0  0  0  0  0  0  0
   59.6410   31.0450   46.8780 C   0  0  0  0  0  0  0  0  0  0  0  0
   58.8400   30.1640   46.0770 N   0  0  0  0  0  0  0  0  0  0  0  0
   58.5410   28.8570   46.3060 C   0  0  0  0  0  0  0  0  0  0  0  0
   59.0110   28.0720   47.4980 C   0  0  0  0  0  0  0  0  0  0  0  0
   59.0820   28.9250   48.6800 N   0  0  0  0  0  0  0  0  0  0  0  0
   60.0460   28.7230   49.7230 C   0  0  0  0  0  0  0  0  0  0  0  0
   60.8030   27.7140   49.7030 O   0  0  0  0  0  0  0  0  0  0  0  0
   60.1210   29.6840   50.8730 C   0  0  1  0  0  0  0  0  0  0  0  0
   61.4760   30.4120   50.8890 C   0  0  0  0  0  0  0  0  0  0  0  0
   61.4620   31.4570   51.8640 O   0  0  0  0  0  0  0  0  0  0  0  0
   60.3260   32.2490   52.0560 C   0  0  0  0  0  0  0  0  0  0  0  0
   60.3920   33.4300   52.8010 C   0  0  0  0  0  0  0  0  0  0  0  0
   59.2480   34.2220   52.9540 C   0  0  0  0  0  0  0  0  0  0  0  0
   58.0390   33.8300   52.3660 C   0  0  0  0  0  0  0  0  0  0  0  0
   57.9680   32.6410   51.6320 C   0  0  0  0  0  0  0  0  0  0  0  0
   59.1080   31.8420   51.4910 C   0  0  0  0  0  0  0  0  0  0  0  0
   59.0530   30.6330   50.7910 O   0  0  0  0  0  0  0  0  0  0  0  0
   57.7370   28.3170   45.3510 N   0  0  0  0  0  0  0  0  0  0  0  0
   57.5330   29.3470   44.5070 C   0  0  0  0  0  0  0  0  0  0  0  0
   56.7740   29.3500   43.3390 C   0  0  0  0  0  0  0  0  0  0  0  0
   56.7030   30.5510   42.6090 C   0  0  0  0  0  0  0  0  0  0  0  0
   57.3860   31.7050   43.0570 C   0  0  0  0  0  0  0  0  0  0  0  0
   58.1450   31.6670   44.2410 C   0  0  0  0  0  0  0  0  0  0  0  0
   58.1900   30.4610   44.9420 C   0  0  0  0  0  0  0  0  0  0  0  0
   61.0270   30.8570   46.9650 C   0  0  0  0  0  0  0  0  0  0  0  0
   61.8070   31.7200   47.7410 C   0  0  0  0  0  0  0  0  0  0  0  0
   63.3500   33.4612   50.7275 H   0  0  0  0  0  0  0  0  0  0  0  0
   63.6475   32.5053   49.2361 H   0  0  0  0  0  0  0  0  0  0  0  0
   63.9264   34.2798   49.2361 H   0  0  0  0  0  0  0  0  0  0  0  0
   59.3457   33.8142   48.8635 H   0  0  0  0  0  0  0  0  0  0  0  0
   57.9587   32.2764   47.4769 H   0  0  0  0  0  0  0  0  0  0  0  0
   58.3074   27.2482   47.6885 H   0  0  0  0  0  0  0  0  0  0  0  0
   60.0147   27.6744   47.2871 H   0  0  0  0  0  0  0  0  0  0  0  0
   58.3840   29.6960   48.7790 H   0  0  0  0  0  0  0  0  0  0  0  0
   60.0237   29.1135   51.8085 H   0  0  0  0  0  0  0  0  0  0  0  0
   62.2716   29.6940   51.1370 H   0  0  0  0  0  0  0  0  0  0  0  0
   61.6612   30.8488   49.8966 H   0  0  0  0  0  0  0  0  0  0  0  0
   61.3407   33.7362   53.2659 H   0  0  0  0  0  0  0  0  0  0  0  0
   59.2987   35.1535   53.5369 H   0  0  0  0  0  0  0  0  0  0  0  0
   57.1434   34.4581   52.4814 H   0  0  0  0  0  0  0  0  0  0  0  0
   57.0190   32.3353   51.1673 H   0  0  0  0  0  0  0  0  0  0  0  0
   56.2486   28.4453   42.9992 H   0  0  0  0  0  0  0  0  0  0  0  0
   56.1114   30.5923   41.6825 H   0  0  0  0  0  0  0  0  0  0  0  0
   57.3236   32.6375   42.4768 H   0  0  0  0  0  0  0  0  0  0  0  0
   58.6836   32.5559   44.6013 H   0  0  0  0  0  0  0  0  0  0  0  0
   61.5029   30.0278   46.4210 H   0  0  0  0  0  0  0  0  0  0  0  0
   62.8934   31.5630   47.8117 H   0  0  0  0  0  0  0  0  0  0  0  0
  1  2  1  0
  2  3  1  0
  3  4  2  0
  4  5  1  0
  5  6  2  0
  6  7  1  0
  7  8  1  0
  8  9  1  0
  9 10  1  0
 10 11  1  0
 11 12  2  0
 11 13  1  0
 13 14  1  0
 14 15  1  0
 15 16  1  0
 16 17  2  0
 17 18  1  0
 18 19  2  0
 19 20  1  0
 20 21  2  0
 21 22  1  0
  8 23  2  0
 23 24  1  0
 24 25  2  0
 25 26  1  0
 26 27  2  0
 27 28  1  0
 28 29  2  0
  6 30  1  0
 30 31  2  0
 31  3  1  0
 29  7  1  0
 22 13  1  0
 29 24  1  0
 21 16  1  0
  1 32  1  0
  1 33  1  0
  1 34  1  0
  4 35  1  0
  5 36  1  0
  9 37  1  0
  9 38  1  0
 10 39  1  0
 13 40  1  1
 14 41  1  0
 14 42  1  0
 17 43  1  0
 18 44  1  0
 19 45  1  0
 20 46  1  0
 25 47  1  0
 26 48  1  0
 27 49  1  0
 28 50  1  0
 30 51  1  0
 31 52  1  0
M  END
>  <UniqueID>  (25) 
24

>  <SMILES>  (25) 
COc1ccc(-n2c(CNC(=O)[C@H]3COc4ccccc4O3)nc3ccccc32)cc1

>  <Energy>  (25) 
98.12402403118466

>  <Genealogy>  (25) 
COc1ccc(-n2c(CNC(=O)[C@H]3COc4ccccc4O3)nc3ccccc32)cc1 (chirality)
COc1ccc(-n2c(CNC(=O)[C@H]3COc4ccccc4O3)nc3ccccc32)cc1 (3D coordinates assigned)
COc1ccc(-n2c(CNC(=O)[C@H]3COc4ccccc4O3)nc3ccccc32)cc1 (nonaromatic ring conformer: 98.12402403118466 kcal/mol)

>  <smiles>  (25) 
COc1ccc(-n2c(CNC(=O)C3COc4ccccc4O3)nc3ccccc32)cc1

>  <score_type>  (25) 
oracle

>  <origin>  (25) 
adg

>  <m_score__min__energy>  (25) 
-8.2300000000000004

>  <m_primary>  (25) 
energy

$$$$
25:0
     RDKit          3D

 36 40  0  0  0  0  0  0  0  0999 V2000
   57.0170   34.1790   45.6010 C   0  0  0  0  0  0  0  0  0  0  0  0
   58.1930   33.6220   44.8090 C   0  0  0  0  0  0  0  0  0  0  0  0
   58.8880   32.5900   45.5860 N   0  0  0  0  0  0  0  0  0  0  0  0
   60.0750   32.7200   46.2420 C   0  0  0  0  0  0  0  0  0  0  0  0
   60.8800   33.8600   46.3490 C   0  0  0  0  0  0  0  0  0  0  0  0
   62.0820   33.7600   47.0740 C   0  0  0  0  0  0  0  0  0  0  0  0
   62.4610   32.5380   47.6710 C   0  0  0  0  0  0  0  0  0  0  0  0
   61.6470   31.3990   47.5470 C   0  0  0  0  0  0  0  0  0  0  0  0
   60.4630   31.5280   46.8270 C   0  0  0  0  0  0  0  0  0  0  0  0
   59.4930   30.6150   46.5100 C   0  0  0  0  0  0  0  0  0  0  0  0
   59.4120   29.3210   46.8180 O   0  0  0  0  0  0  0  0  0  0  0  0
   58.3600   28.6480   46.3580 C   0  0  0  0  0  0  0  0  0  0  0  0
   57.3660   29.2240   45.5800 C   0  0  0  0  0  0  0  0  0  0  0  0
   56.4480   28.3330   45.2580 O   0  0  0  0  0  0  0  0  0  0  0  0
   56.8240   27.1930   45.8090 C   0  0  0  0  0  0  0  0  0  0  0  0
   56.1700   25.9650   45.7440 C   0  0  0  0  0  0  0  0  0  0  0  0
   56.7540   24.8700   46.4110 C   0  0  0  0  0  0  0  0  0  0  0  0
   57.9670   25.0230   47.1220 C   0  0  0  0  0  0  0  0  0  0  0  0
   58.6110   26.2720   47.1750 C   0  0  0  0  0  0  0  0  0  0  0  0
   58.0090   27.3330   46.5060 C   0  0  0  0  0  0  0  0  0  0  0  0
   57.4270   30.5800   45.2390 C   0  0  0  0  0  0  0  0  0  0  0  0
   56.5420   31.1180   44.5240 O   0  0  0  0  0  0  0  0  0  0  0  0
   58.5420   31.2840   45.7420 C   0  0  0  0  0  0  0  0  0  0  0  0
   57.2212   34.0823   46.6775 H   0  0  0  0  0  0  0  0  0  0  0  0
   56.8747   35.2402   45.3487 H   0  0  0  0  0  0  0  0  0  0  0  0
   56.1058   33.6168   45.3487 H   0  0  0  0  0  0  0  0  0  0  0  0
   57.8229   33.1822   43.8711 H   0  0  0  0  0  0  0  0  0  0  0  0
   58.8961   34.4393   44.5907 H   0  0  0  0  0  0  0  0  0  0  0  0
   60.5811   34.8086   45.8790 H   0  0  0  0  0  0  0  0  0  0  0  0
   62.7319   34.6416   47.1765 H   0  0  0  0  0  0  0  0  0  0  0  0
   63.4016   32.4768   48.2381 H   0  0  0  0  0  0  0  0  0  0  0  0
   61.9353   30.4402   48.0026 H   0  0  0  0  0  0  0  0  0  0  0  0
   55.2268   25.8535   45.1891 H   0  0  0  0  0  0  0  0  0  0  0  0
   56.2619   23.8868   46.3785 H   0  0  0  0  0  0  0  0  0  0  0  0
   58.4101   24.1582   47.6376 H   0  0  0  0  0  0  0  0  0  0  0  0
   59.5546   26.4050   47.7244 H   0  0  0  0  0  0  0  0  0  0  0  0
  1  2  1  0
  2  3  1  0
  3  4  1  0
  4  5  2  0
  5  6  1  0
  6  7  2  0
  7  8  1  0
  8  9  2  0
  9 10  1  0
 10 11  1  0
 11 12  1  0
 12 13  2  0
 13 14  1  0
 14 15  1  0
 15 16  2  0
 16 17  1  0
 17 18  2  0
 18 19  1  0
 19 20  2  0
 13 21  1  0
 21 22  2  0
 21 23  1  0
 23  3  1  0
  9  4  1  0
 23 10  2  0
 20 12  1  0
 20 15  1  0
  1 24  1  0
  1 25  1  0
  1 26  1  0
  2 27  1  0
  2 28  1  0
  5 29  1  0
  6 30  1  0
  7 31  1  0
  8 32  1  0
 16 33  1  0
 17 34  1  0
 18 35  1  0
 19 36  1  0
M  END
>  <UniqueID>  (26) 
25

>  <SMILES>  (26) 
CCn1c2ccccc2c2oc3c(oc4ccccc43)c(=O)c21

>  <Energy>  (26) 
128.96808859784755

>  <Genealogy>  (26) 
CCn1c2ccccc2c2oc3c(oc4ccccc43)c(=O)c21 (3D coordinates assigned)
CCn1c2ccccc2c2oc3c(oc4ccccc43)c(=O)c21 (optimized conformer: 128.96808859784755 kcal/mol)

>  <smiles>  (26) 
CCn1c2ccccc2c2oc3c(oc4ccccc43)c(=O)c21

>  <score_type>  (26) 
oracle

>  <origin>  (26) 
adg

>  <m_score__min__energy>  (26) 
-7.5

>  <m_primary>  (26) 
energy

$$$$
26:0
     RDKit          3D

 35 36  0  0  0  0  0  0  0  0999 V2000
   58.9030   31.3840   47.7660 C   0  0  0  0  0  0  0  0  0  0  0  0
   58.6380   32.6980   48.4930 C   0  0  0  0  0  0  0  0  0  0  0  0
   58.6060   33.7710   47.5720 O   0  0  0  0  0  0  0  0  0  0  0  0
   59.7270   33.7220   46.7130 C   0  0  0  0  0  0  0  0  0  0  0  0
   59.5330   34.7340   45.5830 C   0  0  0  0  0  0  0  0  0  0  0  0
   58.1860   34.5520   44.8700 C   0  0  0  0  0  0  0  0  0  0  0  0
   57.6000   33.2460   45.1710 N   0  0  0  0  0  0  0  0  0  0  0  0
   57.5070   32.1990   44.1910 C   0  0  0  0  0  0  0  0  0  0  0  0
   57.8300   32.4280   42.9940 O   0  0  0  0  0  0  0  0  0  0  0  0
   57.0330   30.8530   44.5570 C   0  0  0  0  0  0  0  0  0  0  0  0
   57.8040   29.7810   44.9620 C   0  0  0  0  0  0  0  0  0  0  0  0
   56.8790   28.7780   45.1640 C   0  0  0  0  0  0  0  0  0  0  0  0
   57.1570   27.4060   45.6040 C   0  0  0  0  0  0  0  0  0  0  0  0
   58.4180   26.8400   45.7380 C   0  0  0  0  0  0  0  0  0  0  0  0
   58.3820   25.5120   46.1780 C   0  0  0  0  0  0  0  0  0  0  0  0
   57.0970   25.0300   46.3930 C   0  0  0  0  0  0  0  0  0  0  0  0
   56.0050   26.2570   46.0340 S   0  0  0  0  0  0  0  0  0  0  0  0
   55.6810   29.2430   44.8940 O   0  0  0  0  0  0  0  0  0  0  0  0
   55.7360   30.4890   44.5230 N   0  0  0  0  0  0  0  0  0  0  0  0
   59.0645   30.5834   48.5028 H   0  0  0  0  0  0  0  0  0  0  0  0
   58.0374   31.1328   47.1354 H   0  0  0  0  0  0  0  0  0  0  0  0
   59.7983   31.4879   47.1354 H   0  0  0  0  0  0  0  0  0  0  0  0
   57.6702   32.6366   49.0123 H   0  0  0  0  0  0  0  0  0  0  0  0
   59.4451   32.8740   49.2194 H   0  0  0  0  0  0  0  0  0  0  0  0
   60.6366   33.9712   47.2791 H   0  0  0  0  0  0  0  0  0  0  0  0
   59.8291   32.7106   46.2926 H   0  0  0  0  0  0  0  0  0  0  0  0
   59.5769   35.7491   46.0045 H   0  0  0  0  0  0  0  0  0  0  0  0
   60.3319   34.5739   44.8440 H   0  0  0  0  0  0  0  0  0  0  0  0
   57.4948   35.3405   45.2023 H   0  0  0  0  0  0  0  0  0  0  0  0
   58.3550   34.6161   43.7849 H   0  0  0  0  0  0  0  0  0  0  0  0
   57.1960   33.1020   46.1230 H   0  0  0  0  0  0  0  0  0  0  0  0
   58.8954   29.7375   45.0924 H   0  0  0  0  0  0  0  0  0  0  0  0
   59.3508   27.3808   45.5203 H   0  0  0  0  0  0  0  0  0  0  0  0
   59.2863   24.9067   46.3385 H   0  0  0  0  0  0  0  0  0  0  0  0
   56.8381   24.0184   46.7390 H   0  0  0  0  0  0  0  0  0  0  0  0
  1  2  1  0
  2  3  1  0
  3  4  1  0
  4  5  1  0
  5  6  1  0
  6  7  1  0
  7  8  1  0
  8  9  2  0
  8 10  1  0
 10 11  1  0
 11 12  2  0
 12 13  1  0
 13 14  2  0
 14 15  1  0
 15 16  2  0
 16 17  1  0
 12 18  1  0
 18 19  1  0
 19 10  2  0
 17 13  1  0
  1 20  1  0
  1 21  1  0
  1 22  1  0
  2 23  1  0
  2 24  1  0
  4 25  1  0
  4 26  1  0
  5 27  1  0
  5 28  1  0
  6 29  1  0
  6 30  1  0
  7 31  1  0
 11 32  1  0
 14 33  1  0
 15 34  1  0
 16 35  1  0
M  END
>  <UniqueID>  (27) 
26

>  <SMILES>  (27) 
CCOCCCNC(=O)c1cc(-c2cccs2)on1

>  <Energy>  (27) 
83.0010045835602

>  <Genealogy>  (27) 
CCOCCCNC(=O)c1cc(-c2cccs2)on1 (3D coordinates assigned)
CCOCCCNC(=O)c1cc(-c2cccs2)on1 (optimized conformer: 83.0010045835602 kcal/mol)

>  <smiles>  (27) 
CCOCCCNC(=O)c1cc(-c2cccs2)on1

>  <score_type>  (27) 
oracle

>  <origin>  (27) 
adg

>  <m_score__min__energy>  (27) 
-7.1100000000000003

>  <m_primary>  (27) 
energy

$$$$
27:0
     RDKit          3D

 54 56  0  0  0  0  0  0  0  0999 V2000
   60.6710   26.9430   48.8860 C   0  0  0  0  0  0  0  0  0  0  0  0
   60.6820   27.2630   47.4940 O   0  0  0  0  0  0  0  0  0  0  0  0
   59.5770   27.7560   46.7850 C   0  0  0  0  0  0  0  0  0  0  0  0
   58.9040   26.9820   45.8180 C   0  0  0  0  0  0  0  0  0  0  0  0
   57.8120   27.5110   45.1230 C   0  0  0  0  0  0  0  0  0  0  0  0
   57.3760   28.8220   45.3790 C   0  0  0  0  0  0  0  0  0  0  0  0
   56.2160   29.4100   44.6200 C   0  0  0  0  0  0  0  0  0  0  0  0
   56.3490   30.8710   44.4990 N   0  0  0  0  0  0  0  0  0  0  0  0
   57.4390   31.2660   43.5870 C   0  0  0  0  0  0  0  0  0  0  0  0
   57.7550   32.7670   43.7740 C   0  0  0  0  0  0  0  0  0  0  0  0
   58.3810   33.0950   45.0730 N   0  0  0  0  0  0  0  0  0  0  0  0
   57.4170   33.2570   46.1740 C   0  0  0  0  0  0  0  0  0  0  0  0
   58.1880   33.3890   47.5020 C   0  0  0  0  0  0  0  0  0  0  0  0
   59.3950   34.1490   47.4290 O   0  0  0  0  0  0  0  0  0  0  0  0
   59.4280   35.0080   46.3020 C   0  0  0  0  0  0  0  0  0  0  0  0
   59.3690   34.1960   44.9920 C   0  0  0  0  0  0  0  0  0  0  0  0
   58.0430   29.5910   46.3410 C   0  0  0  0  0  0  0  0  0  0  0  0
   59.1320   29.0620   47.0460 C   0  0  0  0  0  0  0  0  0  0  0  0
   59.9520   30.0810   48.2800 S   0  0  0  0  0  0  0  0  0  0  0  0
   61.0990   30.8860   47.1040 C   0  0  0  0  0  0  0  0  0  0  0  0
   61.8480   32.0150   47.7600 C   0  0  0  0  0  0  0  0  0  0  0  0
   62.9630   32.5890   47.1210 C   0  0  0  0  0  0  0  0  0  0  0  0
   63.6190   33.6850   47.6970 C   0  0  0  0  0  0  0  0  0  0  0  0
   63.1640   34.2180   48.9050 C   0  0  0  0  0  0  0  0  0  0  0  0
   62.0580   33.6510   49.5480 C   0  0  0  0  0  0  0  0  0  0  0  0
   61.4060   32.5490   48.9830 C   0  0  0  0  0  0  0  0  0  0  0  0
   60.7029   27.8710   49.4758 H   0  0  0  0  0  0  0  0  0  0  0  0
   59.7532   26.3867   49.1271 H   0  0  0  0  0  0  0  0  0  0  0  0
   61.5484   26.3250   49.1271 H   0  0  0  0  0  0  0  0  0  0  0  0
   59.2399   25.9556   45.6089 H   0  0  0  0  0  0  0  0  0  0  0  0
   57.2918   26.8979   44.3723 H   0  0  0  0  0  0  0  0  0  0  0  0
   56.1837   28.9674   43.6135 H   0  0  0  0  0  0  0  0  0  0  0  0
   55.2895   29.1874   45.1696 H   0  0  0  0  0  0  0  0  0  0  0  0
   55.4470   31.2320   44.1060 H   0  0  0  0  0  0  0  0  0  0  0  0
   58.3373   30.6723   43.8118 H   0  0  0  0  0  0  0  0  0  0  0  0
   57.1281   31.0855   42.5474 H   0  0  0  0  0  0  0  0  0  0  0  0
   58.4404   33.0783   42.9719 H   0  0  0  0  0  0  0  0  0  0  0  0
   56.7933   33.3000   43.7418 H   0  0  0  0  0  0  0  0  0  0  0  0
   56.8143   34.1618   46.0061 H   0  0  0  0  0  0  0  0  0  0  0  0
   56.7515   32.3822   46.2165 H   0  0  0  0  0  0  0  0  0  0  0  0
   57.5248   33.8724   48.2345 H   0  0  0  0  0  0  0  0  0  0  0  0
   58.4852   32.3688   47.7863 H   0  0  0  0  0  0  0  0  0  0  0  0
   58.5656   35.6897   46.3428 H   0  0  0  0  0  0  0  0  0  0  0  0
   60.3684   35.5784   46.3210 H   0  0  0  0  0  0  0  0  0  0  0  0
   59.0866   34.8683   44.1684 H   0  0  0  0  0  0  0  0  0  0  0  0
   60.3611   33.7539   44.8180 H   0  0  0  0  0  0  0  0  0  0  0  0
   57.7090   30.6191   46.5447 H   0  0  0  0  0  0  0  0  0  0  0  0
   61.8210   30.1403   46.7397 H   0  0  0  0  0  0  0  0  0  0  0  0
   60.5110   31.2965   46.2699 H   0  0  0  0  0  0  0  0  0  0  0  0
   63.3206   32.1758   46.1663 H   0  0  0  0  0  0  0  0  0  0  0  0
   64.4937   34.1263   47.1969 H   0  0  0  0  0  0  0  0  0  0  0  0
   63.6752   35.0838   49.3512 H   0  0  0  0  0  0  0  0  0  0  0  0
   61.7004   34.0722   50.4992 H   0  0  0  0  0  0  0  0  0  0  0  0
   60.5444   32.0990   49.4979 H   0  0  0  0  0  0  0  0  0  0  0  0
  1  2  1  0
  2  3  1  0
  3  4  2  0
  4  5  1  0
  5  6  2  0
  6  7  1  0
  7  8  1  0
  8  9  1  0
  9 10  1  0
 10 11  1  0
 11 12  1  0
 12 13  1  0
 13 14  1  0
 14 15  1  0
 15 16  1  0
  6 17  1  0
 17 18  2  0
 18 19  1  0
 19 20  1  0
 20 21  1  0
 21 22  2  0
 22 23  1  0
 23 24  2  0
 24 25  1  0
 25 26  2  0
 18  3  1  0
 26 21  1  0
 16 11  1  0
  1 27  1  0
  1 28  1  0
  1 29  1  0
  4 30  1  0
  5 31  1  0
  7 32  1  0
  7 33  1  0
  8 34  1  0
  9 35  1  0
  9 36  1  0
 10 37  1  0
 10 38  1  0
 12 39  1  0
 12 40  1  0
 13 41  1  0
 13 42  1  0
 15 43  1  0
 15 44  1  0
 16 45  1  0
 16 46  1  0
 17 47  1  0
 20 48  1  0
 20 49  1  0
 22 50  1  0
 23 51  1  0
 24 52  1  0
 25 53  1  0
 26 54  1  0
M  END
>  <UniqueID>  (28) 
27

>  <SMILES>  (28) 
COc1ccc(CNCCN2CCOCC2)cc1SCc1ccccc1

>  <Energy>  (28) 
61.20521367765687

>  <Genealogy>  (28) 
COc1ccc(CNCCN2CCOCC2)cc1SCc1ccccc1 (3D coordinates assigned)
COc1ccc(CNCCN2CCOCC2)cc1SCc1ccccc1 (nonaromatic ring conformer: 61.20521367765687 kcal/mol)

>  <smiles>  (28) 
COc1ccc(CNCCN2CCOCC2)cc1SCc1ccccc1

>  <score_type>  (28) 
oracle

>  <origin>  (28) 
adg

>  <m_score__min__energy>  (28) 
-7.2800000000000002

>  <m_primary>  (28) 
energy

$$$$
28:0
     RDKit          3D

 53 56  0  0  0  0  0  0  0  0999 V2000
   57.0130   28.4390   45.2640 C   0  0  0  0  0  0  0  0  0  0  0  0
   56.3590   29.6740   45.0780 O   0  0  0  0  0  0  0  0  0  0  0  0
   56.7010   30.2340   43.8230 C   0  0  0  0  0  0  0  0  0  0  0  0
   57.9310   31.1370   43.9560 C   0  0  0  0  0  0  0  0  0  0  0  0
   58.3660   31.2390   45.3500 N   0  0  0  0  0  0  0  0  0  0  0  0
   58.7830   32.4860   45.9420 C   0  0  0  0  0  0  0  0  0  0  0  0
   58.5880   33.6930   45.2460 C   0  0  0  0  0  0  0  0  0  0  0  0
   58.8910   34.9140   45.8440 C   0  0  0  0  0  0  0  0  0  0  0  0
   59.3820   34.9530   47.1480 C   0  0  0  0  0  0  0  0  0  0  0  0
   59.6070   33.7660   47.8560 C   0  0  0  0  0  0  0  0  0  0  0  0
   59.3410   32.5280   47.2470 C   0  0  0  0  0  0  0  0  0  0  0  0
   59.6100   31.2890   48.0570 C   0  0  0  0  0  0  0  0  0  0  0  0
   58.5210   31.1320   49.1150 C   0  0  0  0  0  0  0  0  0  0  0  0
   58.5780   32.1120   50.2780 C   0  0  0  0  0  0  0  0  0  0  0  0
   57.8130   31.7600   51.4070 C   0  0  0  0  0  0  0  0  0  0  0  0
   57.8190   32.5460   52.5580 C   0  0  0  0  0  0  0  0  0  0  0  0
   58.5870   33.7040   52.6070 C   0  0  0  0  0  0  0  0  0  0  0  0
   59.3360   34.0900   51.4980 C   0  0  0  0  0  0  0  0  0  0  0  0
   59.3320   33.3310   50.3120 C   0  0  0  0  0  0  0  0  0  0  0  0
   60.1260   33.8050   49.1970 N   0  0  0  0  0  0  0  0  0  0  0  0
   61.5610   34.0670   49.3910 C   0  0  0  0  0  0  0  0  0  0  0  0
   62.4210   33.2780   48.4380 C   0  0  0  0  0  0  0  0  0  0  0  0
   62.9300   33.7570   47.2860 N   0  0  0  0  0  0  0  0  0  0  0  0
   63.7120   32.7530   46.8390 C   0  0  0  0  0  0  0  0  0  0  0  0
   63.7000   31.7000   47.6810 N   0  0  0  0  0  0  0  0  0  0  0  0
   62.9030   32.0410   48.6810 N   0  0  0  0  0  0  0  0  0  0  0  0
   62.6210   31.1830   49.8270 C   0  0  0  0  0  0  0  0  0  0  0  0
   57.1191   28.2387   46.3404 H   0  0  0  0  0  0  0  0  0  0  0  0
   56.4214   27.6370   44.7984 H   0  0  0  0  0  0  0  0  0  0  0  0
   58.0088   28.4777   44.7984 H   0  0  0  0  0  0  0  0  0  0  0  0
   56.9220   29.4234   43.1130 H   0  0  0  0  0  0  0  0  0  0  0  0
   55.8552   30.8361   43.4596 H   0  0  0  0  0  0  0  0  0  0  0  0
   58.7507   30.7173   43.3544 H   0  0  0  0  0  0  0  0  0  0  0  0
   57.6639   32.1431   43.6005 H   0  0  0  0  0  0  0  0  0  0  0  0
   58.3880   30.3720   45.9330 H   0  0  0  0  0  0  0  0  0  0  0  0
   58.1925   33.6723   44.2198 H   0  0  0  0  0  0  0  0  0  0  0  0
   58.7424   35.8500   45.2857 H   0  0  0  0  0  0  0  0  0  0  0  0
   59.5940   35.9219   47.6237 H   0  0  0  0  0  0  0  0  0  0  0  0
   59.6092   30.4101   47.3955 H   0  0  0  0  0  0  0  0  0  0  0  0
   60.5908   31.3750   48.5475 H   0  0  0  0  0  0  0  0  0  0  0  0
   57.5476   31.2554   48.6177 H   0  0  0  0  0  0  0  0  0  0  0  0
   58.6763   30.1366   49.5566 H   0  0  0  0  0  0  0  0  0  0  0  0
   57.1992   30.8476   51.3798 H   0  0  0  0  0  0  0  0  0  0  0  0
   57.2154   32.2498   53.4286 H   0  0  0  0  0  0  0  0  0  0  0  0
   58.6031   34.3152   53.5214 H   0  0  0  0  0  0  0  0  0  0  0  0
   59.9428   35.0061   51.5497 H   0  0  0  0  0  0  0  0  0  0  0  0
   61.7493   35.1391   49.2324 H   0  0  0  0  0  0  0  0  0  0  0  0
   61.8236   33.7596   50.4140 H   0  0  0  0  0  0  0  0  0  0  0  0
   62.7630   34.6780   46.8280 H   0  0  0  0  0  0  0  0  0  0  0  0
   64.2885   32.7889   45.9029 H   0  0  0  0  0  0  0  0  0  0  0  0
   62.8045   31.7412   50.7569 H   0  0  0  0  0  0  0  0  0  0  0  0
   61.5697   30.8609   49.7940 H   0  0  0  0  0  0  0  0  0  0  0  0
   63.2762   30.3000   49.7940 H   0  0  0  0  0  0  0  0  0  0  0  0
  1  2  1  0
  2  3  1  0
  3  4  1  0
  4  5  1  0
  5  6  1  0
  6  7  2  0
  7  8  1  0
  8  9  2  0
  9 10  1  0
 10 11  2  0
 11 12  1  0
 12 13  1  0
 13 14  1  0
 14 15  2  0
 15 16  1  0
 16 17  2  0
 17 18  1  0
 18 19  2  0
 19 20  1  0
 20 21  1  0
 21 22  1  0
 22 23  2  0
 23 24  1  0
 24 25  2  0
 25 26  1  0
 26 27  1  0
 11  6  1  0
 19 14  1  0
 26 22  1  0
 20 10  1  0
  1 28  1  0
  1 29  1  0
  1 30  1  0
  3 31  1  0
  3 32  1  0
  4 33  1  0
  4 34  1  0
  5 35  1  0
  7 36  1  0
  8 37  1  0
  9 38  1  0
 12 39  1  0
 12 40  1  0
 13 41  1  0
 13 42  1  0
 15 43  1  0
 16 44  1  0
 17 45  1  0
 18 46  1  0
 21 47  1  0
 21 48  1  0
 23 49  1  0
 24 50  1  0
 27 51  1  0
 27 52  1  0
 27 53  1  0
M  CHG  1  23   1
M  END
>  <UniqueID>  (29) 
28

>  <SMILES>  (29) 
COCCNc1cccc2c1CCc1ccccc1N2Cc1[nH+]cnn1C

>  <Energy>  (29) 
112.34025403989625

>  <Genealogy>  (29) 
COCCNc1cccc2c1CCc1ccccc1N2Cc1[nH+]cnn1C (protonated)
COCCNc1cccc2c1CCc1ccccc1N2Cc1[nH+]cnn1C (3D coordinates assigned)
COCCNc1cccc2c1CCc1ccccc1N2Cc1[nH+]cnn1C (nonaromatic ring conformer: 112.34025403989625 kcal/mol)

>  <smiles>  (29) 
COCCNc1cccc2c1CCc1ccccc1N2Cc1ncnn1C

>  <score_type>  (29) 
oracle

>  <origin>  (29) 
adg

>  <m_score__min__energy>  (29) 
-5.5999999999999996

>  <m_primary>  (29) 
energy

$$$$
29:0
     RDKit          3D

 32 32  0  0  0  0  0  0  0  0999 V2000
   55.5840   30.0760   43.7710 C   0  0  0  0  0  0  0  0  0  0  0  0
   56.4450   30.4220   44.8510 O   0  0  0  0  0  0  0  0  0  0  0  0
   57.7410   29.9100   45.0340 C   0  0  0  0  0  0  0  0  0  0  0  0
   58.1620   28.7170   44.4110 C   0  0  0  0  0  0  0  0  0  0  0  0
   59.4610   28.2410   44.6010 C   0  0  0  0  0  0  0  0  0  0  0  0
   60.3560   28.9470   45.4040 C   0  0  0  0  0  0  0  0  0  0  0  0
   59.9530   30.1300   46.0280 C   0  0  0  0  0  0  0  0  0  0  0  0
   58.6430   30.6120   45.8610 C   0  0  0  0  0  0  0  0  0  0  0  0
   58.2390   31.9100   46.5170 C   0  0  0  0  0  0  0  0  0  0  0  0
   57.2420   32.6140   45.6950 N   0  0  0  0  0  0  0  0  0  0  0  0
   57.3720   34.0800   45.7940 C   0  0  0  0  0  0  0  0  0  0  0  0
   58.7560   34.5720   45.3470 C   0  0  0  0  0  0  0  0  0  0  0  0
   59.7800   35.0090   46.7970 S   0  0  0  0  0  0  0  0  0  0  0  0
   61.1310   33.8380   46.4380 C   0  0  0  0  0  0  0  0  0  0  0  0
   54.6324   29.6936   44.1687 H   0  0  0  0  0  0  0  0  0  0  0  0
   55.3923   30.9669   43.1550 H   0  0  0  0  0  0  0  0  0  0  0  0
   56.0621   29.3002   43.1550 H   0  0  0  0  0  0  0  0  0  0  0  0
   57.4630   28.1580   43.7715 H   0  0  0  0  0  0  0  0  0  0  0  0
   59.7791   27.3064   44.1158 H   0  0  0  0  0  0  0  0  0  0  0  0
   61.3803   28.5721   45.5462 H   0  0  0  0  0  0  0  0  0  0  0  0
   60.6651   30.6879   46.6539 H   0  0  0  0  0  0  0  0  0  0  0  0
   57.8074   31.6968   47.5061 H   0  0  0  0  0  0  0  0  0  0  0  0
   59.1289   32.5481   46.6213 H   0  0  0  0  0  0  0  0  0  0  0  0
   57.3890   32.3440   44.6930 H   0  0  0  0  0  0  0  0  0  0  0  0
   56.2750   32.3200   45.9710 H   0  0  0  0  0  0  0  0  0  0  0  0
   56.6072   34.5472   45.1562 H   0  0  0  0  0  0  0  0  0  0  0  0
   57.2393   34.3599   46.8495 H   0  0  0  0  0  0  0  0  0  0  0  0
   59.2567   33.7753   44.7773 H   0  0  0  0  0  0  0  0  0  0  0  0
   58.6296   35.4659   44.7186 H   0  0  0  0  0  0  0  0  0  0  0  0
   61.5569   33.4688   47.3826 H   0  0  0  0  0  0  0  0  0  0  0  0
   60.7373   32.9907   45.8574 H   0  0  0  0  0  0  0  0  0  0  0  0
   61.9138   34.3481   45.8574 H   0  0  0  0  0  0  0  0  0  0  0  0
  1  2  1  0
  2  3  1  0
  3  4  2  0
  4  5  1  0
  5  6  2  0
  6  7  1  0
  7  8  2  0
  8  9  1  0
  9 10  1  0
 10 11  1  0
 11 12  1  0
 12 13  1  0
 13 14  1  0
  8  3  1  0
  1 15  1  0
  1 16  1  0
  1 17  1  0
  4 18  1  0
  5 19  1  0
  6 20  1  0
  7 21  1  0
  9 22  1  0
  9 23  1  0
 10 24  1  0
 10 25  1  0
 11 26  1  0
 11 27  1  0
 12 28  1  0
 12 29  1  0
 14 30  1  0
 14 31  1  0
 14 32  1  0
M  CHG  1  10   1
M  END
>  <UniqueID>  (30) 
29

>  <SMILES>  (30) 
COc1ccccc1C[NH2+]CCSC

>  <Energy>  (30) 
24.469008128070733

>  <Genealogy>  (30) 
COc1ccccc1C[NH2+]CCSC (protonated)
COc1ccccc1C[NH2+]CCSC (3D coordinates assigned)
COc1ccccc1C[NH2+]CCSC (optimized conformer: 24.469008128070733 kcal/mol)

>  <smiles>  (30) 
COc1ccccc1CNCCSC

>  <score_type>  (30) 
oracle

>  <origin>  (30) 
adg

>  <m_score__min__energy>  (30) 
-2.8999999999999999

>  <m_primary>  (30) 
energy

$$$$
30:0
     RDKit          3D

 43 47  0  0  0  0  0  0  0  0999 V2000
   63.2410   32.7490   47.6210 O   0  0  0  0  0  0  0  0  0  0  0  0
   62.9790   32.7440   48.8570 C   0  0  0  0  0  0  0  0  0  0  0  0
   64.0240   32.8410   49.7910 C   0  0  0  0  0  0  0  0  0  0  0  0
   65.3730   32.9640   49.4030 C   0  0  0  0  0  0  0  0  0  0  0  0
   66.3750   33.0460   50.3740 C   0  0  0  0  0  0  0  0  0  0  0  0
   66.0460   33.0040   51.7310 C   0  0  0  0  0  0  0  0  0  0  0  0
   64.7100   32.8800   52.1240 C   0  0  0  0  0  0  0  0  0  0  0  0
   63.7000   32.8000   51.1590 C   0  0  0  0  0  0  0  0  0  0  0  0
   62.4060   32.6870   51.5390 N   0  0  0  0  0  0  0  0  0  0  0  0
   61.3960   32.6120   50.6340 C   0  0  0  0  0  0  0  0  0  0  0  0
   60.0120   32.5280   51.1520 C   0  0  0  0  0  0  0  0  0  0  0  0
   59.3920   33.6440   51.7420 C   0  0  0  0  0  0  0  0  0  0  0  0
   58.0860   33.5480   52.2310 C   0  0  0  0  0  0  0  0  0  0  0  0
   57.3950   32.3360   52.1500 C   0  0  0  0  0  0  0  0  0  0  0  0
   58.0110   31.2170   51.5850 C   0  0  0  0  0  0  0  0  0  0  0  0
   59.3170   31.3090   51.0930 C   0  0  0  0  0  0  0  0  0  0  0  0
   61.6790   32.6240   49.2850 N   0  0  0  0  0  0  0  0  0  0  0  0
   60.6300   32.4480   48.3080 C   0  0  0  0  0  0  0  0  0  0  0  0
   60.1210   31.1690   48.0440 C   0  0  0  0  0  0  0  0  0  0  0  0
   59.0930   30.9930   47.1150 C   0  0  0  0  0  0  0  0  0  0  0  0
   58.5580   32.0980   46.4280 C   0  0  0  0  0  0  0  0  0  0  0  0
   59.0780   33.3890   46.6900 C   0  0  0  0  0  0  0  0  0  0  0  0
   58.5450   34.4880   46.0080 C   0  0  0  0  0  0  0  0  0  0  0  0
   57.5170   34.3010   45.0860 C   0  0  0  0  0  0  0  0  0  0  0  0
   57.0290   33.0150   44.8510 C   0  0  0  0  0  0  0  0  0  0  0  0
   57.5470   31.9440   45.5160 N   0  0  0  0  0  0  0  0  0  0  0  0
   57.0280   30.6960   45.2490 O   0  0  0  0  0  0  0  0  0  0  0  0
   60.1100   33.5560   47.6230 C   0  0  0  0  0  0  0  0  0  0  0  0
   65.6376   32.9955   48.3358 H   0  0  0  0  0  0  0  0  0  0  0  0
   67.4271   33.1440   50.0683 H   0  0  0  0  0  0  0  0  0  0  0  0
   66.8387   33.0685   52.4909 H   0  0  0  0  0  0  0  0  0  0  0  0
   64.4526   32.8453   53.1929 H   0  0  0  0  0  0  0  0  0  0  0  0
   59.9371   34.5964   51.8190 H   0  0  0  0  0  0  0  0  0  0  0  0
   57.6016   34.4276   52.6801 H   0  0  0  0  0  0  0  0  0  0  0  0
   56.3658   32.2633   52.5313 H   0  0  0  0  0  0  0  0  0  0  0  0
   57.4682   30.2620   51.5269 H   0  0  0  0  0  0  0  0  0  0  0  0
   59.8019   30.4227   50.6579 H   0  0  0  0  0  0  0  0  0  0  0  0
   60.5343   30.2973   48.5725 H   0  0  0  0  0  0  0  0  0  0  0  0
   58.6994   29.9846   46.9194 H   0  0  0  0  0  0  0  0  0  0  0  0
   58.9367   35.4980   46.1992 H   0  0  0  0  0  0  0  0  0  0  0  0
   57.0931   35.1612   44.5471 H   0  0  0  0  0  0  0  0  0  0  0  0
   56.2188   32.8643   44.1224 H   0  0  0  0  0  0  0  0  0  0  0  0
   60.5140   34.5602   47.8190 H   0  0  0  0  0  0  0  0  0  0  0  0
  1  2  2  0
  2  3  1  0
  3  4  2  0
  4  5  1  0
  5  6  2  0
  6  7  1  0
  7  8  2  0
  8  9  1  0
  9 10  2  0
 10 11  1  0
 11 12  2  0
 12 13  1  0
 13 14  2  0
 14 15  1  0
 15 16  2  0
 10 17  1  0
 17 18  1  0
 18 19  2  0
 19 20  1  0
 20 21  2  0
 21 22  1  0
 22 23  1  0
 23 24  2  0
 24 25  1  0
 25 26  2  0
 26 27  1  0
 22 28  2  0
 17  2  1  0
 28 18  1  0
  8  3  1  0
 16 11  1  0
 26 21  1  0
  4 29  1  0
  5 30  1  0
  6 31  1  0
  7 32  1  0
 12 33  1  0
 13 34  1  0
 14 35  1  0
 15 36  1  0
 16 37  1  0
 19 38  1  0
 20 39  1  0
 23 40  1  0
 24 41  1  0
 25 42  1  0
 28 43  1  0
M  CHG  2  26   1  27  -1
M  END
>  <UniqueID>  (31) 
30

>  <SMILES>  (31) 
O=c1c2ccccc2nc(-c2ccccc2)n1-c1ccc2c(ccc[n+]2[O-])c1

>  <Energy>  (31) 
74.08555453681484

>  <Genealogy>  (31) 
O=c1c2ccccc2nc(-c2ccccc2)n1-c1ccc2c(ccc[n+]2[O-])c1 (3D coordinates assigned)
O=c1c2ccccc2nc(-c2ccccc2)n1-c1ccc2c(ccc[n+]2[O-])c1 (optimized conformer: 74.08555453681484 kcal/mol)

>  <smiles>  (31) 
O=c1c2ccccc2nc(-c2ccccc2)n1-c1ccc2c(ccc[n+]2[O-])c1

>  <score_type>  (31) 
oracle

>  <origin>  (31) 
adg

>  <m_score__min__energy>  (31) 
-7.8099999999999996

>  <m_primary>  (31) 
energy

$$$$
31:0
     RDKit          3D

 61 63  0  0  0  0  0  0  0  0999 V2000
   60.4740   25.8680   46.3330 C   0  0  0  0  0  0  0  0  0  0  0  0
   59.3850   26.8350   45.9590 C   0  0  0  0  0  0  0  0  0  0  0  0
   59.7350   28.0240   45.3010 C   0  0  0  0  0  0  0  0  0  0  0  0
   58.7590   28.9570   44.9470 C   0  0  0  0  0  0  0  0  0  0  0  0
   57.4060   28.7170   45.2370 C   0  0  0  0  0  0  0  0  0  0  0  0
   56.3670   29.7100   44.8720 C   0  0  0  0  0  0  0  0  0  0  0  0
   55.1530   29.3690   44.8480 O   0  0  0  0  0  0  0  0  0  0  0  0
   56.7490   31.0420   44.4990 N   0  0  0  0  0  0  0  0  0  0  0  0
   57.5280   31.9630   45.2780 C   0  0  0  0  0  0  0  0  0  0  0  0
   58.1490   31.5860   46.4820 C   0  0  0  0  0  0  0  0  0  0  0  0
   58.9160   32.5090   47.1970 C   0  0  0  0  0  0  0  0  0  0  0  0
   59.0830   33.8170   46.7190 C   0  0  0  0  0  0  0  0  0  0  0  0
   59.9400   34.7980   47.4710 C   0  0  0  0  0  0  0  0  0  0  0  0
   61.2910   34.1980   47.7560 C   0  0  0  0  0  0  0  0  0  0  0  0
   61.7490   34.0820   49.0790 C   0  0  0  0  0  0  0  0  0  0  0  0
   63.0190   33.5590   49.3400 C   0  0  0  0  0  0  0  0  0  0  0  0
   63.8410   33.1550   48.2860 C   0  0  0  0  0  0  0  0  0  0  0  0
   63.3970   33.2790   46.9670 C   0  0  0  0  0  0  0  0  0  0  0  0
   62.1290   33.8030   46.7000 C   0  0  0  0  0  0  0  0  0  0  0  0
   58.4960   34.1810   45.4960 C   0  0  0  0  0  0  0  0  0  0  0  0
   57.7260   33.2570   44.7820 C   0  0  0  0  0  0  0  0  0  0  0  0
   57.0510   27.5180   45.8810 C   0  0  0  0  0  0  0  0  0  0  0  0
   58.0230   26.5700   46.2200 C   0  0  0  0  0  0  0  0  0  0  0  0
   57.6050   25.3660   46.8760 N   0  0  0  0  0  0  0  0  0  0  0  0
   56.3260   24.7390   46.7140 C   0  0  0  0  0  0  0  0  0  0  0  0
   55.3510   25.4460   46.3470 O   0  0  0  0  0  0  0  0  0  0  0  0
   56.1350   23.2520   46.8720 C   0  0  0  0  0  0  0  0  0  0  0  0
   56.9480   22.4720   45.8290 C   0  0  0  0  0  0  0  0  0  0  0  0
   56.0550   21.5670   44.9670 C   0  0  0  0  0  0  0  0  0  0  0  0
   56.2430   21.8320   43.5220 N   0  0  0  0  0  0  0  0  0  0  0  0
   57.4240   21.1200   43.0010 C   0  0  0  0  0  0  0  0  0  0  0  0
   56.4010   23.2770   43.2890 C   0  0  0  0  0  0  0  0  0  0  0  0
   60.5467   25.8035   47.4287 H   0  0  0  0  0  0  0  0  0  0  0  0
   60.2397   24.8750   45.9220 H   0  0  0  0  0  0  0  0  0  0  0  0
   61.4324   26.2181   45.9220 H   0  0  0  0  0  0  0  0  0  0  0  0
   60.7900   28.2230   45.0616 H   0  0  0  0  0  0  0  0  0  0  0  0
   59.0517   29.8868   44.4373 H   0  0  0  0  0  0  0  0  0  0  0  0
   58.0304   30.5606   46.8622 H   0  0  0  0  0  0  0  0  0  0  0  0
   59.3924   32.2078   48.1416 H   0  0  0  0  0  0  0  0  0  0  0  0
   60.0670   35.7077   46.8658 H   0  0  0  0  0  0  0  0  0  0  0  0
   59.4495   35.0457   48.4239 H   0  0  0  0  0  0  0  0  0  0  0  0
   61.1065   34.4036   49.9120 H   0  0  0  0  0  0  0  0  0  0  0  0
   63.3714   33.4656   50.3778 H   0  0  0  0  0  0  0  0  0  0  0  0
   64.8379   32.7392   48.4941 H   0  0  0  0  0  0  0  0  0  0  0  0
   64.0466   32.9637   46.1372 H   0  0  0  0  0  0  0  0  0  0  0  0
   61.7863   33.9064   45.6599 H   0  0  0  0  0  0  0  0  0  0  0  0
   58.6423   35.1961   45.0984 H   0  0  0  0  0  0  0  0  0  0  0  0
   57.2726   33.5494   43.8234 H   0  0  0  0  0  0  0  0  0  0  0  0
   55.9955   27.3229   46.1213 H   0  0  0  0  0  0  0  0  0  0  0  0
   56.4630   22.9534   47.8786 H   0  0  0  0  0  0  0  0  0  0  0  0
   55.0695   23.0210   46.7258 H   0  0  0  0  0  0  0  0  0  0  0  0
   57.4664   23.1879   45.1742 H   0  0  0  0  0  0  0  0  0  0  0  0
   57.6656   21.8329   46.3643 H   0  0  0  0  0  0  0  0  0  0  0  0
   56.3071   20.5163   45.1729 H   0  0  0  0  0  0  0  0  0  0  0  0
   55.0055   21.7765   45.2214 H   0  0  0  0  0  0  0  0  0  0  0  0
   58.0316   20.7537   43.8416 H   0  0  0  0  0  0  0  0  0  0  0  0
   57.0971   20.2684   42.3863 H   0  0  0  0  0  0  0  0  0  0  0  0
   58.0245   21.8067   42.3863 H   0  0  0  0  0  0  0  0  0  0  0  0
   56.4582   23.8001   44.2550 H   0  0  0  0  0  0  0  0  0  0  0  0
   57.3243   23.4577   42.7190 H   0  0  0  0  0  0  0  0  0  0  0  0
   55.5386   23.6529   42.7190 H   0  0  0  0  0  0  0  0  0  0  0  0
  1  2  1  0
  2  3  2  0
  3  4  1  0
  4  5  2  0
  5  6  1  0
  6  7  2  0
  6  8  1  0
  8  9  1  0
  9 10  2  0
 10 11  1  0
 11 12  2  0
 12 13  1  0
 13 14  1  0
 14 15  2  0
 15 16  1  0
 16 17  2  0
 17 18  1  0
 18 19  2  0
 12 20  1  0
 20 21  2  0
  5 22  1  0
 22 23  2  0
 23 24  1  0
 24 25  1  0
 25 26  2  0
 25 27  1  0
 27 28  1  0
 28 29  1  0
 29 30  1  0
 30 31  1  0
 30 32  1  0
 23  2  1  0
 21  9  1  0
 19 14  1  0
  1 33  1  0
  1 34  1  0
  1 35  1  0
  3 36  1  0
  4 37  1  0
 10 38  1  0
 11 39  1  0
 13 40  1  0
 13 41  1  0
 15 42  1  0
 16 43  1  0
 17 44  1  0
 18 45  1  0
 19 46  1  0
 20 47  1  0
 21 48  1  0
 22 49  1  0
 27 50  1  0
 27 51  1  0
 28 52  1  0
 28 53  1  0
 29 54  1  0
 29 55  1  0
 31 56  1  0
 31 57  1  0
 31 58  1  0
 32 59  1  0
 32 60  1  0
 32 61  1  0
M  CHG  2   8  -1  24  -1
M  END
>  <UniqueID>  (32) 
31

>  <SMILES>  (32) 
Cc1ccc(C(=O)[N-]c2ccc(Cc3ccccc3)cc2)cc1[N-]C(=O)CCCN(C)C

>  <Energy>  (32) 
69.4351605642793

>  <Genealogy>  (32) 
Cc1ccc(C(=O)[N-]c2ccc(Cc3ccccc3)cc2)cc1[N-]C(=O)CCCN(C)C (protonated)
Cc1ccc(C(=O)[N-]c2ccc(Cc3ccccc3)cc2)cc1[N-]C(=O)CCCN(C)C (3D coordinates assigned)
Cc1ccc(C(=O)[N-]c2ccc(Cc3ccccc3)cc2)cc1[N-]C(=O)CCCN(C)C (optimized conformer: 69.4351605642793 kcal/mol)

>  <smiles>  (32) 
Cc1ccc(C(=O)Nc2ccc(Cc3ccccc3)cc2)cc1NC(=O)CCCN(C)C

>  <score_type>  (32) 
oracle

>  <origin>  (32) 
adg

>  <m_score__min__energy>  (32) 
-14.02

>  <m_primary>  (32) 
energy

$$$$
32:0
     RDKit          3D

 45 47  0  0  0  0  0  0  0  0999 V2000
   56.4110   31.1700   51.8910 C   0  0  0  0  0  0  0  0  0  0  0  0
   57.5380   32.1070   51.6160 C   0  0  0  0  0  0  0  0  0  0  0  0
   57.8950   33.1970   52.4000 C   0  0  0  0  0  0  0  0  0  0  0  0
   59.0500   33.8490   51.9460 C   0  0  0  0  0  0  0  0  0  0  0  0
   59.6080   33.2630   50.8130 C   0  0  0  0  0  0  0  0  0  0  0  0
   60.8420   33.7120   50.1330 C   0  0  0  0  0  0  0  0  0  0  0  0
   61.7930   34.1540   50.8370 O   0  0  0  0  0  0  0  0  0  0  0  0
   60.9830   33.6140   48.6890 N   0  0  1  0  0  0  0  0  0  0  0  0
   60.0010   34.4910   48.0080 C   0  0  0  0  0  0  0  0  0  0  0  0
   59.3330   33.7980   46.8410 C   0  0  0  0  0  0  0  0  0  0  0  0
   58.8480   32.4910   46.9820 C   0  0  0  0  0  0  0  0  0  0  0  0
   58.2550   31.8350   45.8990 C   0  0  0  0  0  0  0  0  0  0  0  0
   58.1380   32.4700   44.6460 C   0  0  0  0  0  0  0  0  0  0  0  0
   57.5250   31.7880   43.5200 N   0  0  0  0  0  0  0  0  0  0  0  0
   57.7780   32.2390   42.1460 C   0  0  0  0  0  0  0  0  0  0  0  0
   56.6410   30.6370   43.7370 C   0  0  0  0  0  0  0  0  0  0  0  0
   58.6370   33.7830   44.5130 C   0  0  0  0  0  0  0  0  0  0  0  0
   59.2280   34.4360   45.5980 C   0  0  0  0  0  0  0  0  0  0  0  0
   62.3610   33.8370   48.1630 C   0  0  0  0  0  0  0  0  0  0  0  0
   63.0360   32.6340   47.5130 C   0  0  0  0  0  0  0  0  0  0  0  0
   62.6010   33.8120   46.6510 C   0  0  0  0  0  0  0  0  0  0  0  0
   58.6690   31.9290   50.3850 S   0  0  0  0  0  0  0  0  0  0  0  0
   56.2810   31.0619   52.9779 H   0  0  0  0  0  0  0  0  0  0  0  0
   55.4862   31.5691   51.4490 H   0  0  0  0  0  0  0  0  0  0  0  0
   56.6345   30.1878   51.4490 H   0  0  0  0  0  0  0  0  0  0  0  0
   57.3286   33.5162   53.2873 H   0  0  0  0  0  0  0  0  0  0  0  0
   59.4742   34.7372   52.4371 H   0  0  0  0  0  0  0  0  0  0  0  0
   60.7290   32.6340   48.4240 H   0  0  0  0  0  0  0  0  0  0  0  0
   59.2290   34.7890   48.7328 H   0  0  0  0  0  0  0  0  0  0  0  0
   60.5414   35.3662   47.6182 H   0  0  0  0  0  0  0  0  0  0  0  0
   58.9344   31.9777   47.9511 H   0  0  0  0  0  0  0  0  0  0  0  0
   57.8750   30.8106   46.0263 H   0  0  0  0  0  0  0  0  0  0  0  0
   58.3161   33.1982   42.1681 H   0  0  0  0  0  0  0  0  0  0  0  0
   58.3871   31.4890   41.6202 H   0  0  0  0  0  0  0  0  0  0  0  0
   56.8204   32.3678   41.6202 H   0  0  0  0  0  0  0  0  0  0  0  0
   56.5135   30.4710   44.8169 H   0  0  0  0  0  0  0  0  0  0  0  0
   55.6611   30.8357   43.2784 H   0  0  0  0  0  0  0  0  0  0  0  0
   57.0857   29.7415   43.2784 H   0  0  0  0  0  0  0  0  0  0  0  0
   58.5600   34.2985   43.5443 H   0  0  0  0  0  0  0  0  0  0  0  0
   59.6137   35.4588   45.4752 H   0  0  0  0  0  0  0  0  0  0  0  0
   62.6047   34.5544   48.9604 H   0  0  0  0  0  0  0  0  0  0  0  0
   64.1059   32.4451   47.6853 H   0  0  0  0  0  0  0  0  0  0  0  0
   62.8456   31.5507   47.4998 H   0  0  0  0  0  0  0  0  0  0  0  0
   63.3562   34.4743   46.2027 H   0  0  0  0  0  0  0  0  0  0  0  0
   61.9671   33.9325   45.7601 H   0  0  0  0  0  0  0  0  0  0  0  0
  1  2  1  0
  2  3  2  0
  3  4  1  0
  4  5  2  0
  5  6  1  0
  6  7  2  0
  6  8  1  0
  8  9  1  0
  9 10  1  0
 10 11  2  0
 11 12  1  0
 12 13  2  0
 13 14  1  0
 14 15  1  0
 14 16  1  0
 13 17  1  0
 17 18  2  0
  8 19  1  0
 19 20  1  0
 20 21  1  0
  5 22  1  0
 22  2  1  0
 18 10  1  0
 21 19  1  0
  1 23  1  0
  1 24  1  0
  1 25  1  0
  3 26  1  0
  4 27  1  0
  8 28  1  6
  9 29  1  0
  9 30  1  0
 11 31  1  0
 12 32  1  0
 15 33  1  0
 15 34  1  0
 15 35  1  0
 16 36  1  0
 16 37  1  0
 16 38  1  0
 17 39  1  0
 18 40  1  0
 19 41  1  0
 20 42  1  0
 20 43  1  0
 21 44  1  0
 21 45  1  0
M  CHG  1   8   1
M  END
>  <UniqueID>  (33) 
32

>  <SMILES>  (33) 
Cc1ccc(C(=O)[N@@H+](Cc2ccc(N(C)C)cc2)C2CC2)s1

>  <Energy>  (33) 
347.50259582342113

>  <Genealogy>  (33) 
Cc1ccc(C(=O)[NH+](Cc2ccc(N(C)C)cc2)C2CC2)s1 (protonated)
Cc1ccc(C(=O)[N@@H+](Cc2ccc(N(C)C)cc2)C2CC2)s1 (chirality)
Cc1ccc(C(=O)[N@@H+](Cc2ccc(N(C)C)cc2)C2CC2)s1 (3D coordinates assigned)
Cc1ccc(C(=O)[N@@H+](Cc2ccc(N(C)C)cc2)C2CC2)s1 (nonaromatic ring conformer: 347.50259582342113 kcal/mol)

>  <smiles>  (33) 
Cc1ccc(C(=O)N(Cc2ccc(N(C)C)cc2)C2CC2)s1

>  <score_type>  (33) 
oracle

>  <origin>  (33) 
adg

>  <m_score__min__energy>  (33) 
-5.79

>  <m_primary>  (33) 
energy

$$$$
33:0
     RDKit          3D

 51 53  0  0  0  0  0  0  0  0999 V2000
   57.0160   30.8660   43.0130 C   0  0  0  0  0  0  0  0  0  0  0  0
   56.5440   29.8350   44.0470 C   0  0  0  0  0  0  0  0  0  0  0  0
   57.6230   29.3100   44.9230 N   0  0  0  0  0  0  0  0  0  0  0  0
   58.9600   29.8890   44.6490 C   0  0  0  0  0  0  0  0  0  0  0  0
   60.0340   28.8090   44.5120 C   0  0  0  0  0  0  0  0  0  0  0  0
   57.6570   27.8290   44.9270 C   0  0  0  0  0  0  0  0  0  0  0  0
   57.3860   27.2670   46.3270 C   0  0  0  0  0  0  0  0  0  0  0  0
   57.9720   28.1140   47.3090 O   0  0  0  0  0  0  0  0  0  0  0  0
   59.2980   27.9930   47.7300 C   0  0  0  0  0  0  0  0  0  0  0  0
   59.7740   26.8690   48.0530 O   0  0  0  0  0  0  0  0  0  0  0  0
   60.1480   29.2210   47.8180 C   0  0  0  0  0  0  0  0  0  0  0  0
   59.3260   30.4570   48.2050 C   0  0  0  0  0  0  0  0  0  0  0  0
   59.8440   31.6700   47.5580 N   0  0  0  0  0  0  0  0  0  0  0  0
   61.1330   32.0940   47.5270 C   0  0  0  0  0  0  0  0  0  0  0  0
   62.2460   31.5110   48.1440 C   0  0  0  0  0  0  0  0  0  0  0  0
   63.5040   32.1090   47.9440 C   0  0  0  0  0  0  0  0  0  0  0  0
   63.6310   33.2640   47.1410 C   0  0  0  0  0  0  0  0  0  0  0  0
   62.5020   33.8350   46.5300 C   0  0  0  0  0  0  0  0  0  0  0  0
   61.2680   33.2260   46.7460 C   0  0  0  0  0  0  0  0  0  0  0  0
   60.0120   33.5140   46.2630 C   0  0  0  0  0  0  0  0  0  0  0  0
   59.5660   34.5110   45.3960 C   0  0  0  0  0  0  0  0  0  0  0  0
   58.2070   34.5050   45.0360 C   0  0  0  0  0  0  0  0  0  0  0  0
   57.3380   33.5140   45.5400 C   0  0  0  0  0  0  0  0  0  0  0  0
   57.8140   32.5200   46.4130 C   0  0  0  0  0  0  0  0  0  0  0  0
   59.1660   32.5460   46.7690 C   0  0  0  0  0  0  0  0  0  0  0  0
   57.4197   31.7477   43.5323 H   0  0  0  0  0  0  0  0  0  0  0  0
   57.8000   30.4208   42.3828 H   0  0  0  0  0  0  0  0  0  0  0  0
   56.1667   31.1685   42.3828 H   0  0  0  0  0  0  0  0  0  0  0  0
   55.7832   30.3095   44.6842 H   0  0  0  0  0  0  0  0  0  0  0  0
   56.1525   28.9771   43.4806 H   0  0  0  0  0  0  0  0  0  0  0  0
   58.9130   30.4641   43.7125 H   0  0  0  0  0  0  0  0  0  0  0  0
   59.2320   30.5334   45.4980 H   0  0  0  0  0  0  0  0  0  0  0  0
   60.3570   28.4842   45.5121 H   0  0  0  0  0  0  0  0  0  0  0  0
   59.6219   27.9497   43.9627 H   0  0  0  0  0  0  0  0  0  0  0  0
   60.8956   29.2163   43.9627 H   0  0  0  0  0  0  0  0  0  0  0  0
   56.8896   27.4516   44.2351 H   0  0  0  0  0  0  0  0  0  0  0  0
   58.6599   27.5050   44.6121 H   0  0  0  0  0  0  0  0  0  0  0  0
   56.3002   27.2112   46.4941 H   0  0  0  0  0  0  0  0  0  0  0  0
   57.8257   26.2618   46.4058 H   0  0  0  0  0  0  0  0  0  0  0  0
   60.9280   29.0604   48.5768 H   0  0  0  0  0  0  0  0  0  0  0  0
   60.5909   29.4017   46.8274 H   0  0  0  0  0  0  0  0  0  0  0  0
   58.2819   30.3039   47.8945 H   0  0  0  0  0  0  0  0  0  0  0  0
   59.3939   30.5903   49.2948 H   0  0  0  0  0  0  0  0  0  0  0  0
   62.1403   30.6110   48.7675 H   0  0  0  0  0  0  0  0  0  0  0  0
   64.3963   31.6731   48.4172 H   0  0  0  0  0  0  0  0  0  0  0  0
   64.6211   33.7198   46.9929 H   0  0  0  0  0  0  0  0  0  0  0  0
   62.5897   34.7336   45.9016 H   0  0  0  0  0  0  0  0  0  0  0  0
   60.2540   35.2761   45.0070 H   0  0  0  0  0  0  0  0  0  0  0  0
   57.8184   35.2781   44.3568 H   0  0  0  0  0  0  0  0  0  0  0  0
   56.2778   33.5192   45.2470 H   0  0  0  0  0  0  0  0  0  0  0  0
   57.1413   31.7431   46.8052 H   0  0  0  0  0  0  0  0  0  0  0  0
  1  2  1  0
  2  3  1  0
  3  4  1  0
  4  5  1  0
  3  6  1  0
  6  7  1  0
  7  8  1  0
  8  9  1  0
  9 10  2  0
  9 11  1  0
 11 12  1  0
 12 13  1  0
 13 14  1  0
 14 15  2  0
 15 16  1  0
 16 17  2  0
 17 18  1  0
 18 19  2  0
 19 20  1  0
 20 21  2  0
 21 22  1  0
 22 23  2  0
 23 24  1  0
 24 25  2  0
 25 13  1  0
 19 14  1  0
 25 20  1  0
  1 26  1  0
  1 27  1  0
  1 28  1  0
  2 29  1  0
  2 30  1  0
  4 31  1  0
  4 32  1  0
  5 33  1  0
  5 34  1  0
  5 35  1  0
  6 36  1  0
  6 37  1  0
  7 38  1  0
  7 39  1  0
 11 40  1  0
 11 41  1  0
 12 42  1  0
 12 43  1  0
 15 44  1  0
 16 45  1  0
 17 46  1  0
 18 47  1  0
 21 48  1  0
 22 49  1  0
 23 50  1  0
 24 51  1  0
M  END
>  <UniqueID>  (34) 
33

>  <SMILES>  (34) 
CCN(CC)CCOC(=O)CCn1c2ccccc2c2ccccc21

>  <Energy>  (34) 
83.3559133869098

>  <Genealogy>  (34) 
CCN(CC)CCOC(=O)CCn1c2ccccc2c2ccccc21 (3D coordinates assigned)
CCN(CC)CCOC(=O)CCn1c2ccccc2c2ccccc21 (optimized conformer: 83.3559133869098 kcal/mol)

>  <smiles>  (34) 
CCN(CC)CCOC(=O)CCn1c2ccccc2c2ccccc21

>  <score_type>  (34) 
oracle

>  <origin>  (34) 
adg

>  <m_score__min__energy>  (34) 
-7.3200000000000003

>  <m_primary>  (34) 
energy

$$$$
34:0
     RDKit          3D

 50 52  0  0  0  0  0  0  0  0999 V2000
   57.8100   26.0430   44.1750 C   0  0  0  0  0  0  0  0  0  0  0  0
   57.1860   26.1400   45.5630 C   0  0  0  0  0  0  0  0  0  0  0  0
   57.2500   27.4780   46.0540 O   0  0  0  0  0  0  0  0  0  0  0  0
   57.3410   28.6410   45.2680 C   0  0  0  0  0  0  0  0  0  0  0  0
   56.2000   29.3430   44.8300 C   0  0  0  0  0  0  0  0  0  0  0  0
   56.3350   30.4970   44.0530 C   0  0  0  0  0  0  0  0  0  0  0  0
   57.6020   30.9640   43.7050 C   0  0  0  0  0  0  0  0  0  0  0  0
   58.7410   30.2810   44.1340 C   0  0  0  0  0  0  0  0  0  0  0  0
   58.6210   29.1200   44.9160 C   0  0  0  0  0  0  0  0  0  0  0  0
   59.8610   28.3940   45.3790 C   0  0  0  0  0  0  0  0  0  0  0  0
   60.3940   29.0150   46.6090 N   0  0  0  0  0  0  0  0  0  0  0  0
   60.6320   30.4620   46.3970 C   0  0  0  0  0  0  0  0  0  0  0  0
   60.7480   31.2080   47.7330 C   0  0  0  0  0  0  0  0  0  0  0  0
   59.5070   31.0950   48.5500 N   0  0  0  0  0  0  0  0  0  0  0  0
   58.7170   32.3530   48.6000 C   0  0  0  0  0  0  0  0  0  0  0  0
   58.7620   33.1820   47.3290 C   0  0  0  0  0  0  0  0  0  0  0  0
   57.7790   33.0120   46.3360 C   0  0  0  0  0  0  0  0  0  0  0  0
   57.8150   33.7760   45.1660 C   0  0  0  0  0  0  0  0  0  0  0  0
   58.8200   34.7290   44.9810 C   0  0  0  0  0  0  0  0  0  0  0  0
   59.7810   34.9280   45.9740 C   0  0  0  0  0  0  0  0  0  0  0  0
   59.7500   34.1670   47.1470 C   0  0  0  0  0  0  0  0  0  0  0  0
   58.6750   29.9150   48.2010 C   0  0  0  0  0  0  0  0  0  0  0  0
   59.5520   28.7200   47.7990 C   0  0  0  0  0  0  0  0  0  0  0  0
   58.8928   25.8747   44.2707 H   0  0  0  0  0  0  0  0  0  0  0  0
   57.3557   25.2047   43.6265 H   0  0  0  0  0  0  0  0  0  0  0  0
   57.6316   26.9797   43.6265 H   0  0  0  0  0  0  0  0  0  0  0  0
   56.1333   25.8258   45.5080 H   0  0  0  0  0  0  0  0  0  0  0  0
   57.7452   25.4856   46.2479 H   0  0  0  0  0  0  0  0  0  0  0  0
   55.1975   28.9806   45.1012 H   0  0  0  0  0  0  0  0  0  0  0  0
   55.4391   31.0384   43.7150 H   0  0  0  0  0  0  0  0  0  0  0  0
   57.7038   31.8715   43.0918 H   0  0  0  0  0  0  0  0  0  0  0  0
   59.7385   30.6539   43.8582 H   0  0  0  0  0  0  0  0  0  0  0  0
   59.6101   27.3427   45.5835 H   0  0  0  0  0  0  0  0  0  0  0  0
   60.6248   28.4544   44.5897 H   0  0  0  0  0  0  0  0  0  0  0  0
   61.5661   30.5926   45.8310 H   0  0  0  0  0  0  0  0  0  0  0  0
   59.7791   30.8769   45.8399 H   0  0  0  0  0  0  0  0  0  0  0  0
   61.5876   30.7844   48.3036 H   0  0  0  0  0  0  0  0  0  0  0  0
   60.9112   32.2732   47.5121 H   0  0  0  0  0  0  0  0  0  0  0  0
   59.8260   30.9360   49.5370 H   0  0  0  0  0  0  0  0  0  0  0  0
   57.6678   32.0908   48.8009 H   0  0  0  0  0  0  0  0  0  0  0  0
   59.1678   32.9715   49.3901 H   0  0  0  0  0  0  0  0  0  0  0  0
   56.9772   32.2731   46.4816 H   0  0  0  0  0  0  0  0  0  0  0  0
   57.0505   33.6267   44.3893 H   0  0  0  0  0  0  0  0  0  0  0  0
   58.8539   35.3213   44.0547 H   0  0  0  0  0  0  0  0  0  0  0  0
   60.5655   35.6862   45.8333 H   0  0  0  0  0  0  0  0  0  0  0  0
   60.5018   34.3394   47.9312 H   0  0  0  0  0  0  0  0  0  0  0  0
   58.0643   29.6356   49.0722 H   0  0  0  0  0  0  0  0  0  0  0  0
   58.0329   30.1800   47.3480 H   0  0  0  0  0  0  0  0  0  0  0  0
   60.2092   28.4634   48.6429 H   0  0  0  0  0  0  0  0  0  0  0  0
   58.8853   27.8838   47.5415 H   0  0  0  0  0  0  0  0  0  0  0  0
  1  2  1  0
  2  3  1  0
  3  4  1  0
  4  5  2  0
  5  6  1  0
  6  7  2  0
  7  8  1  0
  8  9  2  0
  9 10  1  0
 10 11  1  0
 11 12  1  0
 12 13  1  0
 13 14  1  0
 14 15  1  0
 15 16  1  0
 16 17  2  0
 17 18  1  0
 18 19  2  0
 19 20  1  0
 20 21  2  0
 14 22  1  0
 22 23  1  0
  9  4  1  0
 23 11  1  0
 21 16  1  0
  1 24  1  0
  1 25  1  0
  1 26  1  0
  2 27  1  0
  2 28  1  0
  5 29  1  0
  6 30  1  0
  7 31  1  0
  8 32  1  0
 10 33  1  0
 10 34  1  0
 12 35  1  0
 12 36  1  0
 13 37  1  0
 13 38  1  0
 14 39  1  0
 15 40  1  0
 15 41  1  0
 17 42  1  0
 18 43  1  0
 19 44  1  0
 20 45  1  0
 21 46  1  0
 22 47  1  0
 22 48  1  0
 23 49  1  0
 23 50  1  0
M  CHG  1  14   1
M  END
>  <UniqueID>  (35) 
34

>  <SMILES>  (35) 
CCOc1ccccc1CN1CC[NH+](Cc2ccccc2)CC1

>  <Energy>  (35) 
65.10120540055932

>  <Genealogy>  (35) 
CCOc1ccccc1CN1CC[NH+](Cc2ccccc2)CC1 (protonated)
CCOc1ccccc1CN1CC[NH+](Cc2ccccc2)CC1 (3D coordinates assigned)
CCOc1ccccc1CN1CC[NH+](Cc2ccccc2)CC1 (nonaromatic ring conformer: 65.10120540055932 kcal/mol)

>  <smiles>  (35) 
CCOc1ccccc1CN1CCN(Cc2ccccc2)CC1

>  <score_type>  (35) 
oracle

>  <origin>  (35) 
adg

>  <m_score__min__energy>  (35) 
-6.71

>  <m_primary>  (35) 
energy

$$$$
35:0
     RDKit          3D

 58 62  0  0  0  0  0  0  0  0999 V2000
   56.3510   29.4540   43.7000 C   0  0  0  0  0  0  0  0  0  0  0  0
   55.9690   30.4780   44.6720 N   0  0  0  0  0  0  0  0  0  0  0  0
   56.8160   31.6670   44.5210 C   0  0  0  0  0  0  0  0  0  0  0  0
   58.2950   31.2890   44.6410 C   0  0  0  0  0  0  0  0  0  0  0  0
   58.6850   31.1570   46.0550 N   0  0  0  0  0  0  0  0  0  0  0  0
   58.6550   29.8580   46.6700 C   0  0  0  0  0  0  0  0  0  0  0  0
   57.8530   28.9710   46.2760 O   0  0  0  0  0  0  0  0  0  0  0  0
   59.5350   29.5810   47.7540 N   0  0  0  0  0  0  0  0  0  0  0  0
   60.6710   30.4530   48.0210 C   0  0  0  0  0  0  0  0  0  0  0  0
   60.3220   31.9050   47.7630 C   0  0  0  0  0  0  0  0  0  0  0  0
   60.9950   32.9500   48.4460 C   0  0  0  0  0  0  0  0  0  0  0  0
   62.0510   32.6770   49.4480 C   0  0  0  0  0  0  0  0  0  0  0  0
   63.3940   32.8850   49.1110 C   0  0  0  0  0  0  0  0  0  0  0  0
   64.3960   32.6730   50.0610 C   0  0  0  0  0  0  0  0  0  0  0  0
   65.7490   32.8720   49.7410 C   0  0  0  0  0  0  0  0  0  0  0  0
   66.7350   32.6580   50.7080 C   0  0  0  0  0  0  0  0  0  0  0  0
   66.3800   32.2480   51.9950 C   0  0  0  0  0  0  0  0  0  0  0  0
   65.0350   32.0490   52.3240 C   0  0  0  0  0  0  0  0  0  0  0  0
   64.0340   32.2600   51.3620 C   0  0  0  0  0  0  0  0  0  0  0  0
   62.7210   32.0670   51.6740 N   0  0  0  0  0  0  0  0  0  0  0  0
   61.7290   32.2570   50.7560 C   0  0  0  0  0  0  0  0  0  0  0  0
   60.3620   32.0240   51.1320 N   0  0  0  0  0  0  0  0  0  0  0  0
   59.5350   33.1450   51.5870 C   0  0  0  0  0  0  0  0  0  0  0  0
   58.0650   32.7210   51.6340 C   0  0  0  0  0  0  0  0  0  0  0  0
   57.7800   31.8890   50.5300 O   0  0  0  0  0  0  0  0  0  0  0  0
   58.3720   30.6100   50.7060 C   0  0  0  0  0  0  0  0  0  0  0  0
   59.8340   30.6590   51.2070 C   0  0  0  0  0  0  0  0  0  0  0  0
   60.6520   34.2840   48.1830 C   0  0  0  0  0  0  0  0  0  0  0  0
   59.6620   34.5880   47.2540 C   0  0  0  0  0  0  0  0  0  0  0  0
   59.0160   33.5710   46.5550 C   0  0  0  0  0  0  0  0  0  0  0  0
   59.3540   32.2220   46.7750 C   0  0  0  0  0  0  0  0  0  0  0  0
   56.6877   28.5516   44.2313 H   0  0  0  0  0  0  0  0  0  0  0  0
   55.4848   29.2062   43.0689 H   0  0  0  0  0  0  0  0  0  0  0  0
   57.1678   29.8341   43.0689 H   0  0  0  0  0  0  0  0  0  0  0  0
   56.1290   30.0820   45.6280 H   0  0  0  0  0  0  0  0  0  0  0  0
   56.6361   32.1169   43.5335 H   0  0  0  0  0  0  0  0  0  0  0  0
   56.5663   32.3856   45.3155 H   0  0  0  0  0  0  0  0  0  0  0  0
   58.4657   30.3309   44.1283 H   0  0  0  0  0  0  0  0  0  0  0  0
   58.9015   32.0820   44.1792 H   0  0  0  0  0  0  0  0  0  0  0  0
   60.9718   30.3380   49.0728 H   0  0  0  0  0  0  0  0  0  0  0  0
   61.4934   30.1683   47.3482 H   0  0  0  0  0  0  0  0  0  0  0  0
   63.6605   33.2159   48.0964 H   0  0  0  0  0  0  0  0  0  0  0  0
   66.0327   33.1964   48.7289 H   0  0  0  0  0  0  0  0  0  0  0  0
   67.7941   32.8130   50.4546 H   0  0  0  0  0  0  0  0  0  0  0  0
   67.1603   32.0811   52.7522 H   0  0  0  0  0  0  0  0  0  0  0  0
   64.7607   31.7263   53.3392 H   0  0  0  0  0  0  0  0  0  0  0  0
   62.4610   31.7500   52.6360 H   0  0  0  0  0  0  0  0  0  0  0  0
   59.8584   33.4526   52.5924 H   0  0  0  0  0  0  0  0  0  0  0  0
   59.6476   33.9862   50.8872 H   0  0  0  0  0  0  0  0  0  0  0  0
   57.8715   32.1714   52.5670 H   0  0  0  0  0  0  0  0  0  0  0  0
   57.4242   33.6142   51.5952 H   0  0  0  0  0  0  0  0  0  0  0  0
   57.7734   30.0494   51.4391 H   0  0  0  0  0  0  0  0  0  0  0  0
   58.3896   30.1279   49.7174 H   0  0  0  0  0  0  0  0  0  0  0  0
   59.8695   30.3150   52.2512 H   0  0  0  0  0  0  0  0  0  0  0  0
   60.4484   30.0067   50.5690 H   0  0  0  0  0  0  0  0  0  0  0  0
   61.1694   35.0959   48.7150 H   0  0  0  0  0  0  0  0  0  0  0  0
   59.3879   35.6374   47.0705 H   0  0  0  0  0  0  0  0  0  0  0  0
   58.2341   33.8243   45.8239 H   0  0  0  0  0  0  0  0  0  0  0  0
  1  2  1  0
  2  3  1  0
  3  4  1  0
  4  5  1  0
  5  6  1  0
  6  7  2  0
  6  8  1  0
  8  9  1  0
  9 10  1  0
 10 11  2  0
 11 12  1  0
 12 13  2  0
 13 14  1  0
 14 15  2  0
 15 16  1  0
 16 17  2  0
 17 18  1  0
 18 19  2  0
 19 20  1  0
 20 21  2  0
 21 22  1  0
 22 23  1  0
 23 24  1  0
 24 25  1  0
 25 26  1  0
 26 27  1  0
 11 28  1  0
 28 29  2  0
 29 30  1  0
 30 31  2  0
 31  5  1  0
 31 10  1  0
 21 12  1  0
 27 22  1  0
 19 14  1  0
  1 32  1  0
  1 33  1  0
  1 34  1  0
  2 35  1  0
  3 36  1  0
  3 37  1  0
  4 38  1  0
  4 39  1  0
  9 40  1  0
  9 41  1  0
 13 42  1  0
 15 43  1  0
 16 44  1  0
 17 45  1  0
 18 46  1  0
 20 47  1  0
 23 48  1  0
 23 49  1  0
 24 50  1  0
 24 51  1  0
 26 52  1  0
 26 53  1  0
 27 54  1  0
 27 55  1  0
 28 56  1  0
 29 57  1  0
 30 58  1  0
M  CHG  2   8  -1  20   1
M  END
>  <UniqueID>  (36) 
35

>  <SMILES>  (36) 
CNCCN1C(=O)[N-]Cc2c(-c3cc4ccccc4[nH+]c3N3CCOCC3)cccc21

>  <Energy>  (36) 
84.2917086409007

>  <Genealogy>  (36) 
CNCCN1C(=O)[N-]Cc2c(-c3cc4ccccc4[nH+]c3N3CCOCC3)cccc21 (protonated)
CNCCN1C(=O)[N-]Cc2c(-c3cc4ccccc4[nH+]c3N3CCOCC3)cccc21 (3D coordinates assigned)
CNCCN1C(=O)[N-]Cc2c(-c3cc4ccccc4[nH+]c3N3CCOCC3)cccc21 (nonaromatic ring conformer: 84.2917086409007 kcal/mol)

>  <smiles>  (36) 
CNCCN1C(=O)NCc2c(-c3cc4ccccc4nc3N3CCOCC3)cccc21

>  <score_type>  (36) 
oracle

>  <origin>  (36) 
adg

>  <m_score__min__energy>  (36) 
-8.3599999999999994

>  <m_primary>  (36) 
energy

$$$$
36:0
     RDKit          3D

 54 57  0  0  0  0  0  0  0  0999 V2000
   63.3550   33.9470   46.3450 C   0  0  0  0  0  0  0  0  0  0  0  0
   63.4300   33.8440   47.8760 C   0  0  0  0  0  0  0  0  0  0  0  0
   63.9210   32.5170   48.3350 N   0  0  1  0  0  0  0  0  0  0  0  0
   64.7600   32.6630   49.5440 C   0  0  0  0  0  0  0  0  0  0  0  0
   62.7810   31.6040   48.6270 C   0  0  0  0  0  0  0  0  0  0  0  0
   62.0490   31.1380   47.3510 C   0  0  0  0  0  0  0  0  0  0  0  0
   60.6310   30.8710   47.6060 N   0  0  0  0  0  0  0  0  0  0  0  0
   59.6450   31.0570   46.5810 C   0  0  0  0  0  0  0  0  0  0  0  0
   59.3310   32.3590   46.1230 C   0  0  0  0  0  0  0  0  0  0  0  0
   59.7790   33.4970   46.8240 C   0  0  0  0  0  0  0  0  0  0  0  0
   59.4810   34.7790   46.3690 C   0  0  0  0  0  0  0  0  0  0  0  0
   58.7240   34.9520   45.2160 C   0  0  0  0  0  0  0  0  0  0  0  0
   58.2640   33.8440   44.5040 C   0  0  0  0  0  0  0  0  0  0  0  0
   58.5600   32.5270   44.9310 C   0  0  0  0  0  0  0  0  0  0  0  0
   58.1250   31.4220   44.2240 N   0  0  0  0  0  0  0  0  0  0  0  0
   57.4100   31.5710   42.9420 C   0  0  0  0  0  0  0  0  0  0  0  0
   58.3390   30.1770   44.7530 C   0  0  0  0  0  0  0  0  0  0  0  0
   57.7410   28.7100   44.1720 S   0  0  0  0  0  0  0  0  0  0  0  0
   58.3500   27.7850   45.4320 C   0  0  0  0  0  0  0  0  0  0  0  0
   59.0610   28.5920   46.3250 C   0  0  0  0  0  0  0  0  0  0  0  0
   59.0580   29.9580   45.9280 C   0  0  0  0  0  0  0  0  0  0  0  0
   59.4840   28.0450   47.6740 C   0  0  0  0  0  0  0  0  0  0  0  0
   59.5290   26.5060   47.6920 C   0  0  0  0  0  0  0  0  0  0  0  0
   58.2730   25.8960   47.0540 C   0  0  0  0  0  0  0  0  0  0  0  0
   58.1660   26.3060   45.5790 C   0  0  0  0  0  0  0  0  0  0  0  0
   62.7287   34.8071   46.0656 H   0  0  0  0  0  0  0  0  0  0  0  0
   64.3673   34.0825   45.9366 H   0  0  0  0  0  0  0  0  0  0  0  0
   62.9152   33.0251   45.9366 H   0  0  0  0  0  0  0  0  0  0  0  0
   64.1136   34.6211   48.2486 H   0  0  0  0  0  0  0  0  0  0  0  0
   62.4117   33.9778   48.2699 H   0  0  0  0  0  0  0  0  0  0  0  0
   64.5130   32.0930   47.5840 H   0  0  0  0  0  0  0  0  0  0  0  0
   64.1327   32.5538   50.4410 H   0  0  0  0  0  0  0  0  0  0  0  0
   65.5397   31.8870   49.5452 H   0  0  0  0  0  0  0  0  0  0  0  0
   65.2317   33.6567   49.5452 H   0  0  0  0  0  0  0  0  0  0  0  0
   63.1654   30.7190   49.1552 H   0  0  0  0  0  0  0  0  0  0  0  0
   62.0576   32.1615   49.2401 H   0  0  0  0  0  0  0  0  0  0  0  0
   62.1317   31.9237   46.5856 H   0  0  0  0  0  0  0  0  0  0  0  0
   62.5176   30.2034   47.0091 H   0  0  0  0  0  0  0  0  0  0  0  0
   60.3210   30.6240   48.5740 H   0  0  0  0  0  0  0  0  0  0  0  0
   60.3715   33.3708   47.7421 H   0  0  0  0  0  0  0  0  0  0  0  0
   59.8454   35.6566   46.9231 H   0  0  0  0  0  0  0  0  0  0  0  0
   58.4867   35.9667   44.8636 H   0  0  0  0  0  0  0  0  0  0  0  0
   57.6616   33.9960   43.5962 H   0  0  0  0  0  0  0  0  0  0  0  0
   56.3502   31.7919   43.1368 H   0  0  0  0  0  0  0  0  0  0  0  0
   57.8566   32.3954   42.3667 H   0  0  0  0  0  0  0  0  0  0  0  0
   57.4902   30.6369   42.3667 H   0  0  0  0  0  0  0  0  0  0  0  0
   60.4856   28.4311   47.9141 H   0  0  0  0  0  0  0  0  0  0  0  0
   58.7402   28.3688   48.4169 H   0  0  0  0  0  0  0  0  0  0  0  0
   60.4136   26.1682   47.1322 H   0  0  0  0  0  0  0  0  0  0  0  0
   59.5774   26.1756   48.7401 H   0  0  0  0  0  0  0  0  0  0  0  0
   58.3287   24.7995   47.1218 H   0  0  0  0  0  0  0  0  0  0  0  0
   57.3865   26.2647   47.5909 H   0  0  0  0  0  0  0  0  0  0  0  0
   58.9435   25.7851   45.0010 H   0  0  0  0  0  0  0  0  0  0  0  0
   57.1685   26.0322   45.2047 H   0  0  0  0  0  0  0  0  0  0  0  0
  1  2  1  0
  2  3  1  0
  3  4  1  0
  3  5  1  0
  5  6  1  0
  6  7  1  0
  7  8  1  0
  8  9  2  0
  9 10  1  0
 10 11  2  0
 11 12  1  0
 12 13  2  0
 13 14  1  0
 14 15  2  0
 15 16  1  0
 15 17  1  0
 17 18  1  0
 18 19  1  0
 19 20  2  0
 20 21  1  0
 20 22  1  0
 22 23  1  0
 23 24  1  0
 24 25  1  0
 21  8  1  0
 14  9  1  0
 21 17  2  0
 25 19  1  0
  1 26  1  0
  1 27  1  0
  1 28  1  0
  2 29  1  0
  2 30  1  0
  3 31  1  6
  4 32  1  0
  4 33  1  0
  4 34  1  0
  5 35  1  0
  5 36  1  0
  6 37  1  0
  6 38  1  0
  7 39  1  0
 10 40  1  0
 11 41  1  0
 12 42  1  0
 13 43  1  0
 16 44  1  0
 16 45  1  0
 16 46  1  0
 22 47  1  0
 22 48  1  0
 23 49  1  0
 23 50  1  0
 24 51  1  0
 24 52  1  0
 25 53  1  0
 25 54  1  0
M  CHG  2   3   1  15   1
M  END
>  <UniqueID>  (37) 
36

>  <SMILES>  (37) 
CC[N@@H+](C)CCNc1c2ccccc2[n+](C)c2sc3c(c12)CCCC3

>  <Energy>  (37) 
106.3881520413263

>  <Genealogy>  (37) 
CC[NH+](C)CCNc1c2ccccc2[n+](C)c2sc3c(c12)CCCC3 (protonated)
CC[N@@H+](C)CCNc1c2ccccc2[n+](C)c2sc3c(c12)CCCC3 (chirality)
CC[N@@H+](C)CCNc1c2ccccc2[n+](C)c2sc3c(c12)CCCC3 (3D coordinates assigned)
CC[N@@H+](C)CCNc1c2ccccc2[n+](C)c2sc3c(c12)CCCC3 (nonaromatic ring conformer: 106.3881520413263 kcal/mol)

>  <smiles>  (37) 
CCN(C)CCNc1c2ccccc2[n+](C)c2sc3c(c12)CCCC3

>  <score_type>  (37) 
oracle

>  <origin>  (37) 
adg

>  <m_score__min__energy>  (37) 
-5.6799999999999997

>  <m_primary>  (37) 
energy

$$$$
37:0
     RDKit          3D

 46 49  0  0  0  0  0  0  0  0999 V2000
   56.8664   34.5754   44.2316 H   0  0  0  0  0  0  0  0  0  0  0  0
   57.5950   34.1900   44.9600 C   0  0  0  0  0  0  0  0  0  0  0  0
   58.8970   34.6980   44.9820 C   0  0  0  0  0  0  0  0  0  0  0  0
   59.1920   35.4846   44.2720 H   0  0  0  0  0  0  0  0  0  0  0  0
   59.8250   34.2070   45.9060 C   0  0  0  0  0  0  0  0  0  0  0  0
   60.8474   34.6125   45.9235 H   0  0  0  0  0  0  0  0  0  0  0  0
   59.4570   33.1980   46.8120 C   0  0  0  0  0  0  0  0  0  0  0  0
   60.4410   32.7010   47.8370 C   0  0  0  0  0  0  0  0  0  0  0  0
   60.6562   33.5060   48.5551 H   0  0  0  0  0  0  0  0  0  0  0  0
   61.3673   32.3956   47.3283 H   0  0  0  0  0  0  0  0  0  0  0  0
   59.8850   31.5500   48.5520 N   0  0  0  0  0  0  0  0  0  0  0  0
   60.1120   30.2330   48.3050 C   0  0  0  0  0  0  0  0  0  0  0  0
   60.8400   29.8190   47.3090 N   0  0  0  0  0  0  0  0  0  0  0  0
   60.3540   29.6620   45.9400 C   0  0  0  0  0  0  0  0  0  0  0  0
   61.1119   29.1307   45.3455 H   0  0  0  0  0  0  0  0  0  0  0  0
   60.1666   30.6581   45.5126 H   0  0  0  0  0  0  0  0  0  0  0  0
   59.0710   28.8760   45.9230 C   0  0  0  0  0  0  0  0  0  0  0  0
   58.9670   27.6610   46.6170 C   0  0  0  0  0  0  0  0  0  0  0  0
   59.8363   27.2662   47.1634 H   0  0  0  0  0  0  0  0  0  0  0  0
   57.7630   26.9500   46.6170 C   0  0  0  0  0  0  0  0  0  0  0  0
   57.6916   25.9983   47.1640 H   0  0  0  0  0  0  0  0  0  0  0  0
   56.6480   27.4390   45.9270 C   0  0  0  0  0  0  0  0  0  0  0  0
   55.4630   26.6880   45.9580 O   0  0  0  0  0  0  0  0  0  0  0  0
   55.3880   25.2960   45.6650 C   0  0  0  0  0  0  0  0  0  0  0  0
   55.3572   24.7247   46.6045 H   0  0  0  0  0  0  0  0  0  0  0  0
   54.4776   25.0925   45.0821 H   0  0  0  0  0  0  0  0  0  0  0  0
   56.2713   24.9959   45.0821 H   0  0  0  0  0  0  0  0  0  0  0  0
   56.7500   28.6600   45.2330 C   0  0  0  0  0  0  0  0  0  0  0  0
   55.8799   29.0554   44.6883 H   0  0  0  0  0  0  0  0  0  0  0  0
   57.9530   29.3710   45.2340 C   0  0  0  0  0  0  0  0  0  0  0  0
   58.0242   30.3251   44.6911 H   0  0  0  0  0  0  0  0  0  0  0  0
   59.5150   29.3940   49.1930 N   0  0  0  0  0  0  0  0  0  0  0  0
   58.8960   30.2450   50.0310 C   0  0  0  0  0  0  0  0  0  0  0  0
   58.1310   29.9240   51.1500 C   0  0  0  0  0  0  0  0  0  0  0  0
   57.9619   28.8768   51.4413 H   0  0  0  0  0  0  0  0  0  0  0  0
   57.5820   30.9830   51.8950 C   0  0  0  0  0  0  0  0  0  0  0  0
   56.9717   30.7665   52.7842 H   0  0  0  0  0  0  0  0  0  0  0  0
   57.8090   32.3230   51.5090 C   0  0  0  0  0  0  0  0  0  0  0  0
   57.3738   33.1425   52.0997 H   0  0  0  0  0  0  0  0  0  0  0  0
   58.5880   32.6170   50.3740 C   0  0  0  0  0  0  0  0  0  0  0  0
   58.7729   33.6559   50.0635 H   0  0  0  0  0  0  0  0  0  0  0  0
   59.1180   31.5420   49.6560 C   0  0  0  0  0  0  0  0  0  0  0  0
   58.1440   32.7000   46.7900 C   0  0  0  0  0  0  0  0  0  0  0  0
   57.8421   31.9197   47.5042 H   0  0  0  0  0  0  0  0  0  0  0  0
   57.2190   33.1920   45.8640 C   0  0  0  0  0  0  0  0  0  0  0  0
   56.1940   32.7932   45.8468 H   0  0  0  0  0  0  0  0  0  0  0  0
  1  2  1  0
  2  3  2  0
  3  4  1  0
  3  5  1  0
  5  6  1  0
  5  7  2  0
  7  8  1  0
  8  9  1  0
  8 10  1  0
  8 11  1  0
 11 12  1  0
 12 13  2  0
 13 14  1  0
 14 15  1  0
 14 16  1  0
 14 17  1  0
 17 18  2  0
 18 19  1  0
 18 20  1  0
 20 21  1  0
 20 22  2  0
 22 23  1  0
 23 24  1  0
 24 25  1  0
 24 26  1  0
 24 27  1  0
 22 28  1  0
 28 29  1  0
 28 30  2  0
 30 31  1  0
 12 32  1  0
 32 33  1  0
 33 34  2  0
 34 35  1  0
 34 36  1  0
 36 37  1  0
 36 38  2  0
 38 39  1  0
 38 40  1  0
 40 41  1  0
 40 42  2  0
  7 43  1  0
 43 44  1  0
 43 45  2  0
 45 46  1  0
 45  2  1  0
 42 11  1  0
 30 17  1  0
 42 33  1  0
M  CHG  1  32  -1
M  END
>  <UniqueID>  (38) 
37

>  <SMILES>  (38) 
COc1ccc(C/N=c2\[n-]c3ccccc3n2Cc2ccccc2)cc1

>  <Energy>  (38) 
84.93367786180822

>  <Genealogy>  (38) 
COc1ccc(CN=c2[n-]c3ccccc3n2Cc2ccccc2)cc1 (protonated)
COc1ccc(C/N=c2\[n-]c3ccccc3n2Cc2ccccc2)cc1 (cis-trans isomerization)
COc1ccc(C/N=c2\[n-]c3ccccc3n2Cc2ccccc2)cc1 (3D coordinates assigned)
COc1ccc(C/N=c2\[n-]c3ccccc3n2Cc2ccccc2)cc1 (optimized conformer: 84.93367786180822 kcal/mol)

>  <smiles>  (38) 
COc1ccc(CN=c2[nH]c3ccccc3n2Cc2ccccc2)cc1

>  <score_type>  (38) 
oracle

>  <origin>  (38) 
adg

>  <m_score__min__energy>  (38) 
-9.1699999999999999

>  <m_primary>  (38) 
energy

$$$$
38:0
     RDKit          3D

 36 37  0  0  0  0  0  0  0  0999 V2000
   57.3350   30.8120   43.9860 C   0  0  0  0  0  0  0  0  0  0  0  0
   57.9770   31.8100   44.8500 N   0  0  0  0  0  0  0  0  0  0  0  0
   57.8940   33.2360   44.4880 C   0  0  0  0  0  0  0  0  0  0  0  0
   59.2690   33.9030   44.5970 C   0  0  0  0  0  0  0  0  0  0  0  0
   59.4330   34.7810   46.1440 S   0  0  0  0  0  0  0  0  0  0  0  0
   59.6450   36.2440   45.8660 O   0  0  0  0  0  0  0  0  0  0  0  0
   58.1730   34.6240   46.9490 O   0  0  0  0  0  0  0  0  0  0  0  0
   60.8110   34.1570   47.0470 C   0  0  0  0  0  0  0  0  0  0  0  0
   60.8050   34.2010   48.4480 C   0  0  0  0  0  0  0  0  0  0  0  0
   61.9030   33.7280   49.1700 C   0  0  0  0  0  0  0  0  0  0  0  0
   63.0150   33.2110   48.4970 C   0  0  0  0  0  0  0  0  0  0  0  0
   64.5170   32.5660   49.4850 Br  0  0  0  0  0  0  0  0  0  0  0  0
   63.0280   33.1710   47.0990 C   0  0  0  0  0  0  0  0  0  0  0  0
   61.9300   33.6450   46.3750 C   0  0  0  0  0  0  0  0  0  0  0  0
   58.6630   31.3840   46.0520 C   0  0  0  0  0  0  0  0  0  0  0  0
   59.6990   30.4330   45.9830 C   0  0  0  0  0  0  0  0  0  0  0  0
   60.3430   30.0230   47.1500 C   0  0  0  0  0  0  0  0  0  0  0  0
   59.9590   30.5560   48.3790 C   0  0  0  0  0  0  0  0  0  0  0  0
   60.8310   30.0050   49.9860 Br  0  0  0  0  0  0  0  0  0  0  0  0
   58.9300   31.4990   48.4200 C   0  0  0  0  0  0  0  0  0  0  0  0
   58.3110   31.8910   47.2740 N   0  0  0  0  0  0  0  0  0  0  0  0
   56.8444   30.0493   44.6086 H   0  0  0  0  0  0  0  0  0  0  0  0
   56.5844   31.3053   43.3510 H   0  0  0  0  0  0  0  0  0  0  0  0
   58.0951   30.3335   43.3510 H   0  0  0  0  0  0  0  0  0  0  0  0
   57.5302   33.3255   43.4538 H   0  0  0  0  0  0  0  0  0  0  0  0
   57.2018   33.7371   45.1806 H   0  0  0  0  0  0  0  0  0  0  0  0
   60.0495   33.1302   44.5374 H   0  0  0  0  0  0  0  0  0  0  0  0
   59.3760   34.6228   43.7722 H   0  0  0  0  0  0  0  0  0  0  0  0
   59.9331   34.6092   48.9802 H   0  0  0  0  0  0  0  0  0  0  0  0
   61.8933   33.7621   50.2694 H   0  0  0  0  0  0  0  0  0  0  0  0
   63.9027   32.7663   46.5688 H   0  0  0  0  0  0  0  0  0  0  0  0
   61.9440   33.6162   45.2755 H   0  0  0  0  0  0  0  0  0  0  0  0
   59.9996   30.0145   45.0111 H   0  0  0  0  0  0  0  0  0  0  0  0
   61.1527   29.2801   47.1005 H   0  0  0  0  0  0  0  0  0  0  0  0
   58.6183   31.9271   49.3841 H   0  0  0  0  0  0  0  0  0  0  0  0
   57.5610   32.6100   47.3540 H   0  0  0  0  0  0  0  0  0  0  0  0
  1  2  1  0
  2  3  1  0
  3  4  1  0
  4  5  1  0
  5  6  2  0
  5  7  2  0
  5  8  1  0
  8  9  2  0
  9 10  1  0
 10 11  2  0
 11 12  1  0
 11 13  1  0
 13 14  2  0
  2 15  1  0
 15 16  2  0
 16 17  1  0
 17 18  2  0
 18 19  1  0
 18 20  1  0
 20 21  2  0
 14  8  1  0
 21 15  1  0
  1 22  1  0
  1 23  1  0
  1 24  1  0
  3 25  1  0
  3 26  1  0
  4 27  1  0
  4 28  1  0
  9 29  1  0
 10 30  1  0
 13 31  1  0
 14 32  1  0
 16 33  1  0
 17 34  1  0
 20 35  1  0
 21 36  1  0
M  CHG  1  21   1
M  END
>  <UniqueID>  (39) 
38

>  <SMILES>  (39) 
CN(CCS(=O)(=O)c1ccc(Br)cc1)c1ccc(Br)c[nH+]1

>  <Energy>  (39) 
32.94758552634657

>  <Genealogy>  (39) 
CN(CCS(=O)(=O)c1ccc(Br)cc1)c1ccc(Br)c[nH+]1 (protonated)
CN(CCS(=O)(=O)c1ccc(Br)cc1)c1ccc(Br)c[nH+]1 (3D coordinates assigned)
CN(CCS(=O)(=O)c1ccc(Br)cc1)c1ccc(Br)c[nH+]1 (optimized conformer: 32.94758552634657 kcal/mol)

>  <smiles>  (39) 
CN(CCS(=O)(=O)c1ccc(Br)cc1)c1ccc(Br)cn1

>  <score_type>  (39) 
oracle

>  <origin>  (39) 
adg

>  <m_score__min__energy>  (39) 
-6.9500000000000002

>  <m_primary>  (39) 
energy

$$$$
39:0
     RDKit          3D

 52 54  0  0  0  0  0  0  0  0999 V2000
   66.0670   32.8160   50.2660 C   0  0  0  0  0  0  0  0  0  0  0  0
   64.6800   33.1010   50.7590 C   0  0  0  0  0  0  0  0  0  0  0  0
   63.6000   33.0750   49.8670 C   0  0  0  0  0  0  0  0  0  0  0  0
   62.3010   33.3110   50.3370 C   0  0  0  0  0  0  0  0  0  0  0  0
   61.1540   33.2890   49.4040 C   0  0  0  0  0  0  0  0  0  0  0  0
   60.0140   33.6210   49.8320 O   0  0  0  0  0  0  0  0  0  0  0  0
   61.3090   32.8890   48.0260 N   0  0  0  0  0  0  0  0  0  0  0  0
   61.8410   33.8510   47.0560 C   0  0  0  0  0  0  0  0  0  0  0  0
   60.6810   34.5580   46.3550 C   0  0  0  0  0  0  0  0  0  0  0  0
   59.5800   33.6030   45.9480 C   0  0  0  0  0  0  0  0  0  0  0  0
   58.6090   34.0450   45.0410 C   0  0  0  0  0  0  0  0  0  0  0  0
   57.5320   33.2270   44.7000 C   0  0  0  0  0  0  0  0  0  0  0  0
   57.3890   31.9550   45.2630 C   0  0  0  0  0  0  0  0  0  0  0  0
   56.2720   31.1980   44.8600 O   0  0  0  0  0  0  0  0  0  0  0  0
   56.2210   29.9860   44.0940 C   0  0  0  0  0  0  0  0  0  0  0  0
   56.6150   30.1990   42.6280 C   0  0  0  0  0  0  0  0  0  0  0  0
   56.9740   28.8330   44.7660 C   0  0  0  0  0  0  0  0  0  0  0  0
   58.3540   31.5090   46.1850 C   0  0  0  0  0  0  0  0  0  0  0  0
   59.4450   32.3230   46.5370 C   0  0  0  0  0  0  0  0  0  0  0  0
   60.4960   31.7830   47.4880 C   0  0  1  0  0  0  0  0  0  0  0  0
   61.3800   30.7580   46.7630 C   0  0  0  0  0  0  0  0  0  0  0  0
   62.1050   33.5340   51.7060 C   0  0  0  0  0  0  0  0  0  0  0  0
   63.2030   33.5550   52.5750 C   0  0  0  0  0  0  0  0  0  0  0  0
   62.9910   33.7520   54.0460 C   0  0  0  0  0  0  0  0  0  0  0  0
   64.4570   33.3210   52.0870 N   0  0  0  0  0  0  0  0  0  0  0  0
   66.7402   32.6777   51.1249 H   0  0  0  0  0  0  0  0  0  0  0  0
   66.0584   31.9009   49.6557 H   0  0  0  0  0  0  0  0  0  0  0  0
   66.4200   33.6604   49.6557 H   0  0  0  0  0  0  0  0  0  0  0  0
   63.7713   32.8698   48.8000 H   0  0  0  0  0  0  0  0  0  0  0  0
   62.4620   34.5938   47.5782 H   0  0  0  0  0  0  0  0  0  0  0  0
   62.4534   33.3218   46.3111 H   0  0  0  0  0  0  0  0  0  0  0  0
   60.2607   35.3095   47.0395 H   0  0  0  0  0  0  0  0  0  0  0  0
   61.0768   35.0210   45.4390 H   0  0  0  0  0  0  0  0  0  0  0  0
   58.6964   35.0461   44.5935 H   0  0  0  0  0  0  0  0  0  0  0  0
   56.7845   33.5876   43.9780 H   0  0  0  0  0  0  0  0  0  0  0  0
   55.1662   29.6748   44.0723 H   0  0  0  0  0  0  0  0  0  0  0  0
   57.5817   30.7216   42.5804 H   0  0  0  0  0  0  0  0  0  0  0  0
   56.7001   29.2240   42.1258 H   0  0  0  0  0  0  0  0  0  0  0  0
   55.8459   30.8042   42.1258 H   0  0  0  0  0  0  0  0  0  0  0  0
   56.9055   28.9379   45.8588 H   0  0  0  0  0  0  0  0  0  0  0  0
   56.5265   27.8756   44.4608 H   0  0  0  0  0  0  0  0  0  0  0  0
   58.0305   28.8578   44.4608 H   0  0  0  0  0  0  0  0  0  0  0  0
   58.2535   30.5108   46.6361 H   0  0  0  0  0  0  0  0  0  0  0  0
   59.9980   31.2800   48.3300 H   0  0  0  0  0  0  0  0  0  0  0  0
   61.9109   30.1424   47.5041 H   0  0  0  0  0  0  0  0  0  0  0  0
   60.7511   30.1121   46.1328 H   0  0  0  0  0  0  0  0  0  0  0  0
   62.1113   31.2852   46.1328 H   0  0  0  0  0  0  0  0  0  0  0  0
   61.0895   33.6925   52.0981 H   0  0  0  0  0  0  0  0  0  0  0  0
   63.6846   33.1075   54.6060 H   0  0  0  0  0  0  0  0  0  0  0  0
   63.1778   34.8045   54.3057 H   0  0  0  0  0  0  0  0  0  0  0  0
   61.9551   33.4886   54.3057 H   0  0  0  0  0  0  0  0  0  0  0  0
   65.2660   33.3070   52.7490 H   0  0  0  0  0  0  0  0  0  0  0  0
  1  2  1  0
  2  3  2  0
  3  4  1  0
  4  5  1  0
  5  6  2  0
  5  7  1  0
  7  8  1  0
  8  9  1  0
  9 10  1  0
 10 11  2  0
 11 12  1  0
 12 13  2  0
 13 14  1  0
 14 15  1  0
 15 16  1  0
 15 17  1  0
 13 18  1  0
 18 19  2  0
 19 20  1  0
 20 21  1  0
  4 22  2  0
 22 23  1  0
 23 24  1  0
 23 25  2  0
 25  2  1  0
 20  7  1  0
 19 10  1  0
  1 26  1  0
  1 27  1  0
  1 28  1  0
  3 29  1  0
  8 30  1  0
  8 31  1  0
  9 32  1  0
  9 33  1  0
 11 34  1  0
 12 35  1  0
 15 36  1  0
 16 37  1  0
 16 38  1  0
 16 39  1  0
 17 40  1  0
 17 41  1  0
 17 42  1  0
 18 43  1  0
 20 44  1  1
 21 45  1  0
 21 46  1  0
 21 47  1  0
 22 48  1  0
 24 49  1  0
 24 50  1  0
 24 51  1  0
 25 52  1  0
M  CHG  1  25   1
M  END
>  <UniqueID>  (40) 
39

>  <SMILES>  (40) 
Cc1cc(C(=O)N2CCc3ccc(OC(C)C)cc3[C@H]2C)cc(C)[nH+]1

>  <Energy>  (40) 
58.547464466806744

>  <Genealogy>  (40) 
Cc1cc(C(=O)N2CCc3ccc(OC(C)C)cc3C2C)cc(C)[nH+]1 (protonated)
Cc1cc(C(=O)N2CCc3ccc(OC(C)C)cc3[C@H]2C)cc(C)[nH+]1 (chirality)
Cc1cc(C(=O)N2CCc3ccc(OC(C)C)cc3[C@H]2C)cc(C)[nH+]1 (3D coordinates assigned)
Cc1cc(C(=O)N2CCc3ccc(OC(C)C)cc3[C@H]2C)cc(C)[nH+]1 (nonaromatic ring conformer: 58.547464466806744 kcal/mol)

>  <smiles>  (40) 
Cc1cc(C(=O)N2CCc3ccc(OC(C)C)cc3C2C)cc(C)n1

>  <score_type>  (40) 
oracle

>  <origin>  (40) 
adg

>  <m_score__min__energy>  (40) 
-6.5499999999999998

>  <m_primary>  (40) 
energy

$$$$
40:0
     RDKit          3D

 30 31  0  0  0  0  0  0  0  0999 V2000
   57.0730   31.2160   42.5310 C   0  0  0  0  0  0  0  0  0  0  0  0
   56.5240   30.2090   43.5350 C   0  0  0  0  0  0  0  0  0  0  0  0
   56.5820   30.7330   44.8610 O   0  0  0  0  0  0  0  0  0  0  0  0
   57.4010   31.7900   45.2920 C   0  0  0  0  0  0  0  0  0  0  0  0
   57.0180   33.1410   45.1720 C   0  0  0  0  0  0  0  0  0  0  0  0
   57.8670   34.1590   45.6140 C   0  0  0  0  0  0  0  0  0  0  0  0
   59.1120   33.8500   46.1780 C   0  0  0  0  0  0  0  0  0  0  0  0
   60.0200   34.9540   46.6500 C   0  0  0  0  0  0  0  0  0  0  0  0
   60.8470   34.4940   47.7640 N   0  0  0  0  0  0  0  0  0  0  0  0
   61.9780   33.6770   47.5770 N   0  0  0  0  0  0  0  0  0  0  0  0
   63.0130   33.8540   46.7390 C   0  0  0  0  0  0  0  0  0  0  0  0
   63.8890   32.8380   46.8560 N   0  0  0  0  0  0  0  0  0  0  0  0
   63.4090   32.0070   47.7730 N   0  0  0  0  0  0  0  0  0  0  0  0
   62.2430   32.5230   48.2070 C   0  0  0  0  0  0  0  0  0  0  0  0
   59.4900   32.5060   46.3130 C   0  0  0  0  0  0  0  0  0  0  0  0
   58.6430   31.4840   45.8700 C   0  0  0  0  0  0  0  0  0  0  0  0
   59.2040   29.6640   46.0610 Br  0  0  0  0  0  0  0  0  0  0  0  0
   57.5320   32.0580   43.0698 H   0  0  0  0  0  0  0  0  0  0  0  0
   57.8301   30.7284   41.8993 H   0  0  0  0  0  0  0  0  0  0  0  0
   56.2530   31.5883   41.8993 H   0  0  0  0  0  0  0  0  0  0  0  0
   55.4778   29.9816   43.2825 H   0  0  0  0  0  0  0  0  0  0  0  0
   57.1358   29.2960   43.4894 H   0  0  0  0  0  0  0  0  0  0  0  0
   56.0445   33.3957   44.7276 H   0  0  0  0  0  0  0  0  0  0  0  0
   57.5560   35.2098   45.5186 H   0  0  0  0  0  0  0  0  0  0  0  0
   60.6712   35.2669   45.8205 H   0  0  0  0  0  0  0  0  0  0  0  0
   59.4050   35.8008   46.9888 H   0  0  0  0  0  0  0  0  0  0  0  0
   60.5950   34.8010   48.7310 H   0  0  0  0  0  0  0  0  0  0  0  0
   63.1284   34.7074   46.0547 H   0  0  0  0  0  0  0  0  0  0  0  0
   61.5988   32.0627   48.9706 H   0  0  0  0  0  0  0  0  0  0  0  0
   60.4583   32.2538   46.7700 H   0  0  0  0  0  0  0  0  0  0  0  0
  1  2  1  0
  2  3  1  0
  3  4  1  0
  4  5  2  0
  5  6  1  0
  6  7  2  0
  7  8  1  0
  8  9  1  0
  9 10  1  0
 10 11  1  0
 11 12  2  0
 12 13  1  0
 13 14  2  0
  7 15  1  0
 15 16  2  0
 16 17  1  0
 16  4  1  0
 14 10  1  0
  1 18  1  0
  1 19  1  0
  1 20  1  0
  2 21  1  0
  2 22  1  0
  5 23  1  0
  6 24  1  0
  8 25  1  0
  8 26  1  0
  9 27  1  0
 11 28  1  0
 14 29  1  0
 15 30  1  0
M  END
>  <UniqueID>  (41) 
40

>  <SMILES>  (41) 
CCOc1ccc(CNn2cnnc2)cc1Br

>  <Energy>  (41) 
61.52945238950594

>  <Genealogy>  (41) 
CCOc1ccc(CNn2cnnc2)cc1Br (3D coordinates assigned)
CCOc1ccc(CNn2cnnc2)cc1Br (optimized conformer: 61.52945238950594 kcal/mol)

>  <smiles>  (41) 
CCOc1ccc(CNn2cnnc2)cc1Br

>  <score_type>  (41) 
oracle

>  <origin>  (41) 
adg

>  <m_score__min__energy>  (41) 
-6.04

>  <m_primary>  (41) 
energy

$$$$
41:0
     RDKit          3D

 45 48  0  0  0  0  0  0  0  0999 V2000
   58.9730   32.7340   49.3480 C   0  0  0  0  0  0  0  0  0  0  0  0
   59.3530   33.9850   48.5640 C   0  0  0  0  0  0  0  0  0  0  0  0
   58.4080   34.2050   47.4640 N   0  0  0  0  0  0  0  0  0  0  0  0
   59.0100   35.0190   46.3970 C   0  0  0  0  0  0  0  0  0  0  0  0
   59.0600   34.2560   45.0660 C   0  0  0  0  0  0  0  0  0  0  0  0
   58.5020   32.8990   45.2100 N   0  0  0  0  0  0  0  0  0  0  0  0
   57.2140   32.6490   44.6100 C   0  0  0  0  0  0  0  0  0  0  0  0
   56.6550   31.4770   44.6810 N   0  0  0  0  0  0  0  0  0  0  0  0
   57.2920   30.3710   45.3460 C   0  0  0  0  0  0  0  0  0  0  0  0
   56.6540   29.1210   45.4130 C   0  0  0  0  0  0  0  0  0  0  0  0
   55.3950   28.9600   44.8410 O   0  0  0  0  0  0  0  0  0  0  0  0
   57.2820   28.0370   46.0560 C   0  0  0  0  0  0  0  0  0  0  0  0
   56.6490   26.7820   46.1310 C   0  0  0  0  0  0  0  0  0  0  0  0
   57.2760   25.7110   46.7710 C   0  0  0  0  0  0  0  0  0  0  0  0
   58.5370   25.8740   47.3410 C   0  0  0  0  0  0  0  0  0  0  0  0
   59.1820   27.1090   47.2750 C   0  0  0  0  0  0  0  0  0  0  0  0
   58.5660   28.2040   46.6360 C   0  0  0  0  0  0  0  0  0  0  0  0
   59.2010   29.4610   46.5670 C   0  0  0  0  0  0  0  0  0  0  0  0
   60.4310   29.6490   47.1180 N   0  0  0  0  0  0  0  0  0  0  0  0
   61.0720   30.8450   47.0900 C   0  0  0  0  0  0  0  0  0  0  0  0
   62.3340   30.9350   47.6980 O   0  0  0  0  0  0  0  0  0  0  0  0
   63.4650   31.5820   47.1220 C   0  0  0  0  0  0  0  0  0  0  0  0
   60.4580   31.9430   46.4630 C   0  0  0  0  0  0  0  0  0  0  0  0
   59.1880   31.8010   45.8690 C   0  0  0  0  0  0  0  0  0  0  0  0
   58.5590   30.5430   45.9260 C   0  0  0  0  0  0  0  0  0  0  0  0
   59.0366   32.9434   50.4260 H   0  0  0  0  0  0  0  0  0  0  0  0
   57.9447   32.4390   49.0918 H   0  0  0  0  0  0  0  0  0  0  0  0
   59.6635   31.9169   49.0918 H   0  0  0  0  0  0  0  0  0  0  0  0
   59.3343   34.8546   49.2374 H   0  0  0  0  0  0  0  0  0  0  0  0
   60.3621   33.8521   48.1467 H   0  0  0  0  0  0  0  0  0  0  0  0
   58.1810   33.2720   47.0530 H   0  0  0  0  0  0  0  0  0  0  0  0
   58.4111   35.9319   46.2631 H   0  0  0  0  0  0  0  0  0  0  0  0
   60.0407   35.2658   46.6917 H   0  0  0  0  0  0  0  0  0  0  0  0
   58.4756   34.8067   44.3142 H   0  0  0  0  0  0  0  0  0  0  0  0
   60.1108   34.1698   44.7523 H   0  0  0  0  0  0  0  0  0  0  0  0
   56.6958   33.4639   44.0833 H   0  0  0  0  0  0  0  0  0  0  0  0
   55.7190   31.3500   44.2340 H   0  0  0  0  0  0  0  0  0  0  0  0
   55.6541   26.6441   45.6826 H   0  0  0  0  0  0  0  0  0  0  0  0
   56.7724   24.7346   46.8254 H   0  0  0  0  0  0  0  0  0  0  0  0
   59.0251   25.0265   47.8444 H   0  0  0  0  0  0  0  0  0  0  0  0
   60.1786   27.2293   47.7249 H   0  0  0  0  0  0  0  0  0  0  0  0
   64.1201   31.9567   47.9223 H   0  0  0  0  0  0  0  0  0  0  0  0
   64.0201   30.8648   46.4995 H   0  0  0  0  0  0  0  0  0  0  0  0
   63.1281   32.4240   46.4995 H   0  0  0  0  0  0  0  0  0  0  0  0
   60.9704   32.9160   46.4359 H   0  0  0  0  0  0  0  0  0  0  0  0
  1  2  1  0
  2  3  1  0
  3  4  1  0
  4  5  1  0
  5  6  1  0
  6  7  1  0
  7  8  2  0
  8  9  1  0
  9 10  1  0
 10 11  1  0
 10 12  2  0
 12 13  1  0
 13 14  2  0
 14 15  1  0
 15 16  2  0
 16 17  1  0
 17 18  2  0
 18 19  1  0
 19 20  2  0
 20 21  1  0
 21 22  1  0
 20 23  1  0
 23 24  2  0
 24 25  1  0
 24  6  1  0
 25  9  2  0
 17 12  1  0
 25 18  1  0
  1 26  1  0
  1 27  1  0
  1 28  1  0
  2 29  1  0
  2 30  1  0
  3 31  1  0
  4 32  1  0
  4 33  1  0
  5 34  1  0
  5 35  1  0
  7 36  1  0
  8 37  1  0
 13 38  1  0
 14 39  1  0
 15 40  1  0
 16 41  1  0
 22 42  1  0
 22 43  1  0
 22 44  1  0
 23 45  1  0
M  CHG  2   8   1  11  -1
M  END
>  <UniqueID>  (42) 
41

>  <SMILES>  (42) 
CCNCCN1C=[NH+]c2c([O-])c3ccccc3c3nc(OC)cc1c23

>  <Energy>  (42) 
55.30341764815421

>  <Genealogy>  (42) 
CCNCCN1C=[NH+]c2c([O-])c3ccccc3c3nc(OC)cc1c23 (protonated)
CCNCCN1C=[NH+]c2c([O-])c3ccccc3c3nc(OC)cc1c23 (3D coordinates assigned)
CCNCCN1C=[NH+]c2c([O-])c3ccccc3c3nc(OC)cc1c23 (nonaromatic ring conformer: 55.30341764815421 kcal/mol)

>  <smiles>  (42) 
CCNCCN1C=Nc2c(O)c3ccccc3c3nc(OC)cc1c23

>  <score_type>  (42) 
oracle

>  <origin>  (42) 
adg

>  <m_score__min__energy>  (42) 
-7.8799999999999999

>  <m_primary>  (42) 
energy

$$$$
42:0
     RDKit          3D

 32 33  0  0  0  0  0  0  0  0999 V2000
   58.9100   30.1800   47.7320 C   0  0  0  0  0  0  0  0  0  0  0  0
   58.1570   30.8880   46.7530 O   0  0  0  0  0  0  0  0  0  0  0  0
   58.4700   32.1740   46.2800 C   0  0  0  0  0  0  0  0  0  0  0  0
   59.1350   33.1190   47.0880 C   0  0  0  0  0  0  0  0  0  0  0  0
   59.4150   34.3950   46.5960 C   0  0  0  0  0  0  0  0  0  0  0  0
   59.0350   34.7470   45.3020 C   0  0  0  0  0  0  0  0  0  0  0  0
   58.3780   33.8210   44.4900 C   0  0  0  0  0  0  0  0  0  0  0  0
   58.1040   32.5280   44.9630 C   0  0  0  0  0  0  0  0  0  0  0  0
   57.3580   31.5580   44.0830 C   0  0  0  0  0  0  0  0  0  0  0  0
   56.2510   30.9650   44.8290 N   0  0  0  0  0  0  0  0  0  0  0  0
   55.4910   29.7250   43.8170 S   0  0  0  0  0  0  0  0  0  0  0  0
   57.0890   29.0510   43.2570 C   0  0  0  0  0  0  0  0  0  0  0  0
   57.7830   28.3540   44.3820 C   0  0  0  0  0  0  0  0  0  0  0  0
   59.1580   28.2130   44.5290 C   0  0  0  0  0  0  0  0  0  0  0  0
   59.5160   27.4540   45.6500 C   0  0  0  0  0  0  0  0  0  0  0  0
   58.4280   26.9890   46.3800 C   0  0  0  0  0  0  0  0  0  0  0  0
   57.0210   27.5200   45.6270 S   0  0  0  0  0  0  0  0  0  0  0  0
   58.5844   30.4862   48.7371 H   0  0  0  0  0  0  0  0  0  0  0  0
   58.7485   29.0990   47.6077 H   0  0  0  0  0  0  0  0  0  0  0  0
   59.9790   30.4077   47.6077 H   0  0  0  0  0  0  0  0  0  0  0  0
   59.4347   32.8493   48.1114 H   0  0  0  0  0  0  0  0  0  0  0  0
   59.9373   35.1252   47.2317 H   0  0  0  0  0  0  0  0  0  0  0  0
   59.2530   35.7554   44.9203 H   0  0  0  0  0  0  0  0  0  0  0  0
   58.0729   34.1064   43.4724 H   0  0  0  0  0  0  0  0  0  0  0  0
   56.9632   32.0904   43.2051 H   0  0  0  0  0  0  0  0  0  0  0  0
   58.0436   30.7624   43.7561 H   0  0  0  0  0  0  0  0  0  0  0  0
   56.6490   30.4680   45.6600 H   0  0  0  0  0  0  0  0  0  0  0  0
   56.9143   28.3355   42.4399 H   0  0  0  0  0  0  0  0  0  0  0  0
   57.7221   29.8790   42.9053 H   0  0  0  0  0  0  0  0  0  0  0  0
   59.8901   28.6527   43.8356 H   0  0  0  0  0  0  0  0  0  0  0  0
   60.5599   27.2453   45.9270 H   0  0  0  0  0  0  0  0  0  0  0  0
   58.4787   26.3784   47.2936 H   0  0  0  0  0  0  0  0  0  0  0  0
  1  2  1  0
  2  3  1  0
  3  4  2  0
  4  5  1  0
  5  6  2  0
  6  7  1  0
  7  8  2  0
  8  9  1  0
  9 10  1  0
 10 11  1  0
 11 12  1  0
 12 13  1  0
 13 14  2  0
 14 15  1  0
 15 16  2  0
 16 17  1  0
  8  3  1  0
 17 13  1  0
  1 18  1  0
  1 19  1  0
  1 20  1  0
  4 21  1  0
  5 22  1  0
  6 23  1  0
  7 24  1  0
  9 25  1  0
  9 26  1  0
 10 27  1  0
 12 28  1  0
 12 29  1  0
 14 30  1  0
 15 31  1  0
 16 32  1  0
M  END
>  <UniqueID>  (43) 
42

>  <SMILES>  (43) 
COc1ccccc1CNSCc1cccs1

>  <Energy>  (43) 
51.331612589002866

>  <Genealogy>  (43) 
COc1ccccc1CNSCc1cccs1 (3D coordinates assigned)
COc1ccccc1CNSCc1cccs1 (optimized conformer: 51.331612589002866 kcal/mol)

>  <smiles>  (43) 
COc1ccccc1CNSCc1cccs1

>  <score_type>  (43) 
oracle

>  <origin>  (43) 
adg

>  <m_score__min__energy>  (43) 
-6.7000000000000002

>  <m_primary>  (43) 
energy

$$$$
43:0
     RDKit          3D

 41 42  0  0  0  0  0  0  0  0999 V2000
   57.0310   29.8130   43.8830 C   0  0  0  0  0  0  0  0  0  0  0  0
   56.6810   30.7720   44.8740 O   0  0  0  0  0  0  0  0  0  0  0  0
   57.4360   31.9180   45.1700 C   0  0  0  0  0  0  0  0  0  0  0  0
   57.7600   32.2830   46.4920 C   0  0  0  0  0  0  0  0  0  0  0  0
   58.5330   33.4280   46.7460 C   0  0  0  0  0  0  0  0  0  0  0  0
   58.9370   33.7750   48.1540 C   0  0  0  0  0  0  0  0  0  0  0  0
   60.2400   34.5880   48.1890 C   0  0  0  0  0  0  0  0  0  0  0  0
   61.4180   33.7150   48.3290 N   0  0  0  0  0  0  0  0  0  0  0  0
   61.6190   33.0110   49.6060 C   0  0  0  0  0  0  0  0  0  0  0  0
   62.7430   33.6510   50.4360 C   0  0  0  0  0  0  0  0  0  0  0  0
   64.0730   33.6070   49.7790 N   0  0  0  0  0  0  0  0  0  0  0  0
   65.1430   33.3470   50.7540 C   0  0  0  0  0  0  0  0  0  0  0  0
   64.1790   32.6690   48.6400 C   0  0  0  0  0  0  0  0  0  0  0  0
   63.7640   33.3070   47.3090 C   0  0  0  0  0  0  0  0  0  0  0  0
   62.2710   33.4770   47.1840 C   0  0  0  0  0  0  0  0  0  0  0  0
   61.7750   33.4830   46.0240 O   0  0  0  0  0  0  0  0  0  0  0  0
   58.9820   34.2080   45.6700 C   0  0  0  0  0  0  0  0  0  0  0  0
   58.6520   33.8560   44.3600 C   0  0  0  0  0  0  0  0  0  0  0  0
   57.8830   32.7160   44.1110 C   0  0  0  0  0  0  0  0  0  0  0  0
   57.5770   32.3810   42.8320 F   0  0  0  0  0  0  0  0  0  0  0  0
   57.3689   28.8873   44.3717 H   0  0  0  0  0  0  0  0  0  0  0  0
   56.1537   29.5972   43.2555 H   0  0  0  0  0  0  0  0  0  0  0  0
   57.8411   30.2131   43.2555 H   0  0  0  0  0  0  0  0  0  0  0  0
   57.4050   31.6667   47.3312 H   0  0  0  0  0  0  0  0  0  0  0  0
   58.1351   34.3672   48.6190 H   0  0  0  0  0  0  0  0  0  0  0  0
   59.1043   32.8367   48.7031 H   0  0  0  0  0  0  0  0  0  0  0  0
   60.3289   35.1609   47.2542 H   0  0  0  0  0  0  0  0  0  0  0  0
   60.2037   35.2604   49.0588 H   0  0  0  0  0  0  0  0  0  0  0  0
   60.6839   33.0470   50.1842 H   0  0  0  0  0  0  0  0  0  0  0  0
   61.9049   31.9722   49.3841 H   0  0  0  0  0  0  0  0  0  0  0  0
   62.4818   34.7036   50.6200 H   0  0  0  0  0  0  0  0  0  0  0  0
   62.8258   33.0687   51.3656 H   0  0  0  0  0  0  0  0  0  0  0  0
   64.7417   33.4445   51.7735 H   0  0  0  0  0  0  0  0  0  0  0  0
   65.5317   32.3283   50.6088 H   0  0  0  0  0  0  0  0  0  0  0  0
   65.9559   34.0738   50.6088 H   0  0  0  0  0  0  0  0  0  0  0  0
   65.2226   32.3309   48.5582 H   0  0  0  0  0  0  0  0  0  0  0  0
   63.4944   31.8303   48.8348 H   0  0  0  0  0  0  0  0  0  0  0  0
   64.2384   34.2963   47.2303 H   0  0  0  0  0  0  0  0  0  0  0  0
   64.0897   32.6335   46.5026 H   0  0  0  0  0  0  0  0  0  0  0  0
   59.5965   35.1005   45.8592 H   0  0  0  0  0  0  0  0  0  0  0  0
   58.9983   34.4778   43.5213 H   0  0  0  0  0  0  0  0  0  0  0  0
  1  2  1  0
  2  3  1  0
  3  4  2  0
  4  5  1  0
  5  6  1  0
  6  7  1  0
  7  8  1  0
  8  9  1  0
  9 10  1  0
 10 11  1  0
 11 12  1  0
 11 13  1  0
 13 14  1  0
 14 15  1  0
 15 16  2  0
  5 17  2  0
 17 18  1  0
 18 19  2  0
 19 20  1  0
 19  3  1  0
 15  8  1  0
  1 21  1  0
  1 22  1  0
  1 23  1  0
  4 24  1  0
  6 25  1  0
  6 26  1  0
  7 27  1  0
  7 28  1  0
  9 29  1  0
  9 30  1  0
 10 31  1  0
 10 32  1  0
 12 33  1  0
 12 34  1  0
 12 35  1  0
 13 36  1  0
 13 37  1  0
 14 38  1  0
 14 39  1  0
 17 40  1  0
 18 41  1  0
M  END
>  <UniqueID>  (44) 
43

>  <SMILES>  (44) 
COc1cc(CCN2CCN(C)CCC2=O)ccc1F

>  <Energy>  (44) 
43.97129279396481

>  <Genealogy>  (44) 
COc1cc(CCN2CCN(C)CCC2=O)ccc1F (3D coordinates assigned)
COc1cc(CCN2CCN(C)CCC2=O)ccc1F (nonaromatic ring conformer: 43.97129279396481 kcal/mol)

>  <smiles>  (44) 
COc1cc(CCN2CCN(C)CCC2=O)ccc1F

>  <score_type>  (44) 
oracle

>  <origin>  (44) 
adg

>  <m_score__min__energy>  (44) 
-5

>  <m_primary>  (44) 
energy

$$$$
