0:0
     RDKit          3D

 33 34  0  0  0  0  0  0  0  0999 V2000
   57.3700   24.9960   47.1030 C   0  0  0  0  0  0  0  0  0  0  0  0
   58.2150   26.1180   47.3410 O   0  0  0  0  0  0  0  0  0  0  0  0
   58.4780   27.1290   46.4030 C   0  0  0  0  0  0  0  0  0  0  0  0
   57.4560   27.9400   45.8700 C   0  0  0  0  0  0  0  0  0  0  0  0
   57.7590   28.9560   44.9520 C   0  0  0  0  0  0  0  0  0  0  0  0
   56.4830   29.9780   44.2850 S   0  0  0  0  0  0  0  0  0  0  0  0
   56.6720   30.0190   42.7950 O   0  0  0  0  0  0  0  0  0  0  0  0
   55.1390   29.3590   44.5500 O   0  0  0  0  0  0  0  0  0  0  0  0
   56.4920   31.6290   44.8700 N   0  0  0  0  0  0  0  0  0  0  0  0
   57.7920   32.2550   45.1870 C   0  0  0  0  0  0  0  0  0  0  0  0
   58.3610   33.2360   44.1540 C   0  0  0  0  0  0  0  0  0  0  0  0
   58.9270   34.4130   44.9490 C   0  0  0  0  0  0  0  0  0  0  0  0
   58.8840   34.0180   46.4190 C   0  0  0  0  0  0  0  0  0  0  0  0
   57.8080   32.9540   46.5400 C   0  0  0  0  0  0  0  0  0  0  0  0
   59.0810   29.1320   44.5290 C   0  0  0  0  0  0  0  0  0  0  0  0
   60.0990   28.3290   45.0500 C   0  0  0  0  0  0  0  0  0  0  0  0
   59.8020   27.3360   45.9870 C   0  0  0  0  0  0  0  0  0  0  0  0
   61.1030   26.3460   46.6300 Cl  0  0  0  0  0  0  0  0  0  0  0  0
   57.0483   24.5688   48.0643 H   0  0  0  0  0  0  0  0  0  0  0  0
   56.4872   25.3167   46.5305 H   0  0  0  0  0  0  0  0  0  0  0  0
   57.9221   24.2361   46.5305 H   0  0  0  0  0  0  0  0  0  0  0  0
   56.4125   27.7748   46.1764 H   0  0  0  0  0  0  0  0  0  0  0  0
   58.4457   31.3703   45.1865 H   0  0  0  0  0  0  0  0  0  0  0  0
   59.1573   32.7535   43.5683 H   0  0  0  0  0  0  0  0  0  0  0  0
   57.5865   33.5662   43.4462 H   0  0  0  0  0  0  0  0  0  0  0  0
   59.9641   34.6129   44.6416 H   0  0  0  0  0  0  0  0  0  0  0  0
   58.3404   35.3262   44.7702 H   0  0  0  0  0  0  0  0  0  0  0  0
   59.8573   33.6136   46.7339 H   0  0  0  0  0  0  0  0  0  0  0  0
   58.6653   34.8842   47.0607 H   0  0  0  0  0  0  0  0  0  0  0  0
   58.0568   32.2416   47.3404 H   0  0  0  0  0  0  0  0  0  0  0  0
   56.8281   33.3840   46.7949 H   0  0  0  0  0  0  0  0  0  0  0  0
   59.3198   29.9051   43.7838 H   0  0  0  0  0  0  0  0  0  0  0  0
   61.1379   28.4792   44.7213 H   0  0  0  0  0  0  0  0  0  0  0  0
  1  2  1  0
  2  3  1  0
  3  4  2  0
  4  5  1  0
  5  6  1  0
  6  7  2  0
  6  8  2  0
  6  9  1  0
  9 10  1  0
 10 11  1  0
 11 12  1  0
 12 13  1  0
 13 14  1  0
  5 15  2  0
 15 16  1  0
 16 17  2  0
 17 18  1  0
 17  3  1  0
 14 10  1  0
  1 19  1  0
  1 20  1  0
  1 21  1  0
  4 22  1  0
 10 23  1  0
 11 24  1  0
 11 25  1  0
 12 26  1  0
 12 27  1  0
 13 28  1  0
 13 29  1  0
 14 30  1  0
 14 31  1  0
 15 32  1  0
 16 33  1  0
M  CHG  1   9  -1
M  END
>  <UniqueID>  (1) 
1

>  <SMILES>  (1) 
COc1cc(S(=O)(=O)[N-]C2CCCC2)ccc1Cl

>  <Energy>  (1) 
39.78070449879292

>  <Genealogy>  (1) 
COc1cc(S(=O)(=O)[N-]C2CCCC2)ccc1Cl (protonated)
COc1cc(S(=O)(=O)[N-]C2CCCC2)ccc1Cl (3D coordinates assigned)
COc1cc(S(=O)(=O)[N-]C2CCCC2)ccc1Cl (nonaromatic ring conformer: 39.78070449879292 kcal/mol)

>  <smiles>  (1) 
COc1cc(S(=O)(=O)NC2CCCC2)ccc1Cl

>  <score_type>  (1) 
oracle

>  <origin>  (1) 
adg

>  <m_score__min__energy>  (1) 
-8.3900000000000006

>  <m_primary>  (1) 
energy

$$$$
1:0
     RDKit          3D

 45 48  0  0  0  0  0  0  0  0999 V2000
   56.1200   29.3542   43.1264 H   0  0  0  0  0  0  0  0  0  0  0  0
   56.4430   29.8360   44.0610 C   0  0  0  0  0  0  0  0  0  0  0  0
   56.2390   29.1980   45.1790 N   0  0  0  0  0  0  0  0  0  0  0  0
   57.1320   28.2420   45.8360 C   0  0  0  0  0  0  0  0  0  0  0  0
   58.1172   28.2771   45.3481 H   0  0  0  0  0  0  0  0  0  0  0  0
   57.2162   28.5159   46.8980 H   0  0  0  0  0  0  0  0  0  0  0  0
   56.5910   26.8480   45.7460 C   0  0  0  0  0  0  0  0  0  0  0  0
   55.3400   26.5280   45.9810 O   0  0  0  0  0  0  0  0  0  0  0  0
   55.2050   25.2310   45.8300 C   0  0  0  0  0  0  0  0  0  0  0  0
   54.2668   24.6723   45.9629 H   0  0  0  0  0  0  0  0  0  0  0  0
   56.4190   24.6740   45.4790 C   0  0  0  0  0  0  0  0  0  0  0  0
   56.6278   23.6117   45.2844 H   0  0  0  0  0  0  0  0  0  0  0  0
   57.3160   25.7190   45.4220 C   0  0  0  0  0  0  0  0  0  0  0  0
   58.3856   25.6646   45.1709 H   0  0  0  0  0  0  0  0  0  0  0  0
   57.0790   31.1620   43.9700 C   0  0  0  0  0  0  0  0  0  0  0  0
   57.0090   32.1560   44.9230 C   0  0  0  0  0  0  0  0  0  0  0  0
   56.4298   32.1340   45.8579 H   0  0  0  0  0  0  0  0  0  0  0  0
   57.7910   33.1590   44.4810 N   0  0  0  0  0  0  0  0  0  0  0  0
   58.0920   34.4010   45.1820 C   0  0  0  0  0  0  0  0  0  0  0  0
   58.3677   35.1752   44.4509 H   0  0  0  0  0  0  0  0  0  0  0  0
   57.2047   34.7231   45.7468 H   0  0  0  0  0  0  0  0  0  0  0  0
   59.2350   34.1850   46.1350 C   0  0  0  0  0  0  0  0  0  0  0  0
   59.0550   34.3840   47.5110 C   0  0  0  0  0  0  0  0  0  0  0  0
   58.0654   34.6680   47.8985 H   0  0  0  0  0  0  0  0  0  0  0  0
   60.1280   34.2230   48.3930 C   0  0  0  0  0  0  0  0  0  0  0  0
   59.9740   34.3706   49.4721 H   0  0  0  0  0  0  0  0  0  0  0  0
   61.4020   33.8740   47.9120 C   0  0  0  0  0  0  0  0  0  0  0  0
   62.5430   33.7070   48.8490 C   0  0  0  0  0  0  0  0  0  0  0  0
   63.6890   32.9860   48.4590 C   0  0  0  0  0  0  0  0  0  0  0  0
   63.7399   32.5423   47.4537 H   0  0  0  0  0  0  0  0  0  0  0  0
   64.7620   32.8310   49.3420 C   0  0  0  0  0  0  0  0  0  0  0  0
   65.6535   32.2676   49.0292 H   0  0  0  0  0  0  0  0  0  0  0  0
   64.7040   33.3900   50.6200 C   0  0  0  0  0  0  0  0  0  0  0  0
   65.5493   33.2662   51.3130 H   0  0  0  0  0  0  0  0  0  0  0  0
   63.5740   34.1060   51.0190 C   0  0  0  0  0  0  0  0  0  0  0  0
   63.5294   34.5450   52.0266 H   0  0  0  0  0  0  0  0  0  0  0  0
   62.4980   34.2660   50.1390 C   0  0  0  0  0  0  0  0  0  0  0  0
   61.6109   34.8328   50.4581 H   0  0  0  0  0  0  0  0  0  0  0  0
   61.5800   33.6930   46.5280 C   0  0  0  0  0  0  0  0  0  0  0  0
   62.5721   33.4241   46.1363 H   0  0  0  0  0  0  0  0  0  0  0  0
   60.5070   33.8520   45.6470 C   0  0  0  0  0  0  0  0  0  0  0  0
   60.6606   33.7154   44.5664 H   0  0  0  0  0  0  0  0  0  0  0  0
   58.3500   32.7900   43.3400 N   0  0  0  0  0  0  0  0  0  0  0  0
   57.9280   31.5800   43.0090 N   0  0  0  0  0  0  0  0  0  0  0  0
   58.2700   31.0470   42.1800 H   0  0  0  0  0  0  0  0  0  0  0  0
  1  2  1  0
  2  3  2  0
  3  4  1  0
  4  5  1  0
  4  6  1  0
  4  7  1  0
  7  8  1  0
  8  9  1  0
  9 10  1  0
  9 11  2  0
 11 12  1  0
 11 13  1  0
 13 14  1  0
  2 15  1  0
 15 16  2  0
 16 17  1  0
 16 18  1  0
 18 19  1  0
 19 20  1  0
 19 21  1  0
 19 22  1  0
 22 23  2  0
 23 24  1  0
 23 25  1  0
 25 26  1  0
 25 27  2  0
 27 28  1  0
 28 29  2  0
 29 30  1  0
 29 31  1  0
 31 32  1  0
 31 33  2  0
 33 34  1  0
 33 35  1  0
 35 36  1  0
 35 37  2  0
 37 38  1  0
 27 39  1  0
 39 40  1  0
 39 41  2  0
 41 42  1  0
 18 43  1  0
 43 44  2  0
 44 45  1  0
 13  7  2  0
 44 15  1  0
 41 22  1  0
 37 28  1  0
M  CHG  1  44   1
M  END
>  <UniqueID>  (2) 
2

>  <SMILES>  (2) 
C(=N\Cc1ccco1)\c1cn(Cc2ccc(-c3ccccc3)cc2)n[nH+]1

>  <Energy>  (2) 
117.6572019675748

>  <Genealogy>  (2) 
C(=NCc1ccco1)c1cn(Cc2ccc(-c3ccccc3)cc2)n[nH+]1 (protonated)
C(=N\Cc1ccco1)\c1cn(Cc2ccc(-c3ccccc3)cc2)n[nH+]1 (cis-trans isomerization)
C(=N\Cc1ccco1)\c1cn(Cc2ccc(-c3ccccc3)cc2)n[nH+]1 (3D coordinates assigned)
C(=N\Cc1ccco1)\c1cn(Cc2ccc(-c3ccccc3)cc2)n[nH+]1 (optimized conformer: 117.6572019675748 kcal/mol)

>  <smiles>  (2) 
C(=NCc1ccco1)c1cn(Cc2ccc(-c3ccccc3)cc2)nn1

>  <score_type>  (2) 
oracle

>  <origin>  (2) 
adg

>  <m_score__min__energy>  (2) 
-7.9800000000000004

>  <m_primary>  (2) 
energy

$$$$
2:0
     RDKit          3D

 58 61  0  0  0  0  0  0  0  0999 V2000
   58.1640   31.6240   43.2010 C   0  0  0  0  0  0  0  0  0  0  0  0
   57.0070   30.7800   43.7420 C   0  0  0  0  0  0  0  0  0  0  0  0
   56.2710   30.0670   42.6010 C   0  0  0  0  0  0  0  0  0  0  0  0
   57.5140   29.7800   44.7530 C   0  0  0  0  0  0  0  0  0  0  0  0
   58.6510   30.0540   45.5240 C   0  0  0  0  0  0  0  0  0  0  0  0
   59.1140   29.1180   46.4610 C   0  0  0  0  0  0  0  0  0  0  0  0
   60.2910   29.4780   47.2850 C   0  0  0  0  0  0  0  0  0  0  0  0
   60.8540   28.5970   47.9900 O   0  0  0  0  0  0  0  0  0  0  0  0
   60.7670   30.8310   47.3050 N   0  0  0  0  0  0  0  0  0  0  0  0
   61.9840   31.2260   48.0260 C   0  0  0  0  0  0  0  0  0  0  0  0
   62.7560   32.2730   47.2060 C   0  0  0  0  0  0  0  0  0  0  0  0
   62.0380   33.6320   47.2360 C   0  0  0  0  0  0  0  0  0  0  0  0
   61.6800   34.1020   48.6040 N   0  0  0  0  0  0  0  0  0  0  0  0
   60.2540   34.4750   48.7200 C   0  0  0  0  0  0  0  0  0  0  0  0
   59.5760   34.3970   47.3750 C   0  0  0  0  0  0  0  0  0  0  0  0
   59.8810   35.3260   46.3660 C   0  0  0  0  0  0  0  0  0  0  0  0
   59.2370   35.2540   45.1260 C   0  0  0  0  0  0  0  0  0  0  0  0
   58.2870   34.2580   44.8870 C   0  0  0  0  0  0  0  0  0  0  0  0
   57.9780   33.3320   45.8870 C   0  0  0  0  0  0  0  0  0  0  0  0
   58.6190   33.4000   47.1280 C   0  0  0  0  0  0  0  0  0  0  0  0
   62.0970   33.1860   49.6900 C   0  0  0  0  0  0  0  0  0  0  0  0
   61.6340   31.7410   49.4450 C   0  0  0  0  0  0  0  0  0  0  0  0
   58.4320   27.8820   46.5950 C   0  0  0  0  0  0  0  0  0  0  0  0
   58.8690   26.8570   47.4620 C   0  0  0  0  0  0  0  0  0  0  0  0
   58.1570   25.6570   47.5550 C   0  0  0  0  0  0  0  0  0  0  0  0
   57.0120   25.4570   46.7840 C   0  0  0  0  0  0  0  0  0  0  0  0
   56.5780   26.4490   45.9040 C   0  0  0  0  0  0  0  0  0  0  0  0
   57.2830   27.6530   45.7980 C   0  0  0  0  0  0  0  0  0  0  0  0
   56.8650   28.5950   44.9140 N   0  0  0  0  0  0  0  0  0  0  0  0
   58.7372   32.0421   44.0416 H   0  0  0  0  0  0  0  0  0  0  0  0
   58.8224   30.9926   42.5863 H   0  0  0  0  0  0  0  0  0  0  0  0
   57.7638   32.4438   42.5863 H   0  0  0  0  0  0  0  0  0  0  0  0
   56.2933   31.4520   44.2410 H   0  0  0  0  0  0  0  0  0  0  0  0
   55.5408   29.3597   43.0212 H   0  0  0  0  0  0  0  0  0  0  0  0
   55.7472   30.8100   41.9817 H   0  0  0  0  0  0  0  0  0  0  0  0
   56.9971   29.5199   41.9817 H   0  0  0  0  0  0  0  0  0  0  0  0
   59.1835   31.0077   45.3942 H   0  0  0  0  0  0  0  0  0  0  0  0
   60.3360   31.5110   46.6390 H   0  0  0  0  0  0  0  0  0  0  0  0
   62.6352   30.3487   48.1538 H   0  0  0  0  0  0  0  0  0  0  0  0
   63.7648   32.3893   47.6289 H   0  0  0  0  0  0  0  0  0  0  0  0
   62.8139   31.9292   46.1627 H   0  0  0  0  0  0  0  0  0  0  0  0
   62.6982   34.3815   46.7752 H   0  0  0  0  0  0  0  0  0  0  0  0
   61.0930   33.5031   46.6880 H   0  0  0  0  0  0  0  0  0  0  0  0
   59.7552   33.7858   49.4172 H   0  0  0  0  0  0  0  0  0  0  0  0
   60.1858   35.5075   49.0932 H   0  0  0  0  0  0  0  0  0  0  0  0
   60.6280   36.1119   46.5514 H   0  0  0  0  0  0  0  0  0  0  0  0
   59.4790   35.9826   44.3382 H   0  0  0  0  0  0  0  0  0  0  0  0
   57.7820   34.2026   43.9113 H   0  0  0  0  0  0  0  0  0  0  0  0
   57.2295   32.5485   45.6977 H   0  0  0  0  0  0  0  0  0  0  0  0
   58.3726   32.6700   47.9131 H   0  0  0  0  0  0  0  0  0  0  0  0
   63.1946   33.1984   49.7611 H   0  0  0  0  0  0  0  0  0  0  0  0
   61.6297   33.5353   50.6225 H   0  0  0  0  0  0  0  0  0  0  0  0
   62.1190   31.0872   50.1848 H   0  0  0  0  0  0  0  0  0  0  0  0
   60.5382   31.7258   49.5398 H   0  0  0  0  0  0  0  0  0  0  0  0
   59.7752   27.0032   48.0681 H   0  0  0  0  0  0  0  0  0  0  0  0
   58.5014   24.8675   48.2391 H   0  0  0  0  0  0  0  0  0  0  0  0
   56.4500   24.5153   46.8699 H   0  0  0  0  0  0  0  0  0  0  0  0
   55.6791   26.2841   45.2918 H   0  0  0  0  0  0  0  0  0  0  0  0
  1  2  1  0
  2  3  1  0
  2  4  1  0
  4  5  2  0
  5  6  1  0
  6  7  1  0
  7  8  2  0
  7  9  1  0
  9 10  1  0
 10 11  1  0
 11 12  1  0
 12 13  1  0
 13 14  1  0
 14 15  1  0
 15 16  2  0
 16 17  1  0
 17 18  2  0
 18 19  1  0
 19 20  2  0
 13 21  1  0
 21 22  1  0
  6 23  2  0
 23 24  1  0
 24 25  2  0
 25 26  1  0
 26 27  2  0
 27 28  1  0
 28 29  2  0
 29  4  1  0
 22 10  1  0
 28 23  1  0
 20 15  1  0
  1 30  1  0
  1 31  1  0
  1 32  1  0
  2 33  1  0
  3 34  1  0
  3 35  1  0
  3 36  1  0
  5 37  1  0
  9 38  1  0
 10 39  1  0
 11 40  1  0
 11 41  1  0
 12 42  1  0
 12 43  1  0
 14 44  1  0
 14 45  1  0
 16 46  1  0
 17 47  1  0
 18 48  1  0
 19 49  1  0
 20 50  1  0
 21 51  1  0
 21 52  1  0
 22 53  1  0
 22 54  1  0
 24 55  1  0
 25 56  1  0
 26 57  1  0
 27 58  1  0
M  END
>  <UniqueID>  (3) 
3

>  <SMILES>  (3) 
CC(C)c1cc(C(=O)NC2CCN(Cc3ccccc3)CC2)c2ccccc2n1

>  <Energy>  (3) 
74.49920151019083

>  <Genealogy>  (3) 
CC(C)c1cc(C(=O)NC2CCN(Cc3ccccc3)CC2)c2ccccc2n1 (3D coordinates assigned)
CC(C)c1cc(C(=O)NC2CCN(Cc3ccccc3)CC2)c2ccccc2n1 (nonaromatic ring conformer: 74.49920151019083 kcal/mol)

>  <smiles>  (3) 
CC(C)c1cc(C(=O)NC2CCN(Cc3ccccc3)CC2)c2ccccc2n1

>  <score_type>  (3) 
oracle

>  <origin>  (3) 
adg

>  <m_score__min__energy>  (3) 
-9.4700000000000006

>  <m_primary>  (3) 
energy

$$$$
3:0
     RDKit          3D

 47 49  0  0  0  0  0  0  0  0999 V2000
   57.7820   32.1780   42.3490 C   0  0  0  0  0  0  0  0  0  0  0  0
   57.5320   31.1430   43.4070 C   0  0  0  0  0  0  0  0  0  0  0  0
   56.3360   30.4130   43.4110 C   0  0  0  0  0  0  0  0  0  0  0  0
   56.0890   29.4760   44.4170 C   0  0  0  0  0  0  0  0  0  0  0  0
   57.0250   29.2720   45.4340 C   0  0  0  0  0  0  0  0  0  0  0  0
   58.2200   30.0160   45.4590 C   0  0  0  0  0  0  0  0  0  0  0  0
   59.2060   29.8410   46.4960 N   0  0  0  0  0  0  0  0  0  0  0  0
   60.5370   30.4510   46.4970 C   0  0  0  0  0  0  0  0  0  0  0  0
   60.7910   31.3130   47.7570 C   0  0  0  0  0  0  0  0  0  0  0  0
   60.7860   32.8780   47.5840 C   0  0  0  0  0  0  0  0  0  0  0  0
   59.5320   33.3420   46.7900 C   0  0  0  0  0  0  0  0  0  0  0  0
   59.7140   34.1290   45.6260 C   0  0  0  0  0  0  0  0  0  0  0  0
   58.6250   34.5690   44.8710 C   0  0  0  0  0  0  0  0  0  0  0  0
   57.3280   34.2340   45.2520 C   0  0  0  0  0  0  0  0  0  0  0  0
   57.1170   33.4590   46.3920 C   0  0  0  0  0  0  0  0  0  0  0  0
   58.2010   33.0150   47.1540 C   0  0  0  0  0  0  0  0  0  0  0  0
   60.7190   33.5470   49.0090 C   0  0  0  0  0  0  0  0  0  0  0  0
   61.9940   34.2930   49.4050 C   0  0  0  0  0  0  0  0  0  0  0  0
   63.1290   33.6010   48.9430 O   0  0  0  0  0  0  0  0  0  0  0  0
   63.2630   33.8150   47.5570 C   0  0  0  0  0  0  0  0  0  0  0  0
   62.0510   33.3040   46.7470 C   0  0  0  0  0  0  0  0  0  0  0  0
   58.4640   30.9490   44.4390 C   0  0  0  0  0  0  0  0  0  0  0  0
   58.0147   33.1414   42.8262 H   0  0  0  0  0  0  0  0  0  0  0  0
   58.6303   31.8647   41.7227 H   0  0  0  0  0  0  0  0  0  0  0  0
   56.8842   32.2864   41.7227 H   0  0  0  0  0  0  0  0  0  0  0  0
   55.5897   30.5782   42.6199 H   0  0  0  0  0  0  0  0  0  0  0  0
   55.1540   28.8965   44.4085 H   0  0  0  0  0  0  0  0  0  0  0  0
   56.8274   28.5268   46.2186 H   0  0  0  0  0  0  0  0  0  0  0  0
   58.9400   29.2770   47.3340 H   0  0  0  0  0  0  0  0  0  0  0  0
   61.2917   29.6517   46.4580 H   0  0  0  0  0  0  0  0  0  0  0  0
   60.6033   31.1118   45.6201 H   0  0  0  0  0  0  0  0  0  0  0  0
   60.0113   31.0607   48.4907 H   0  0  0  0  0  0  0  0  0  0  0  0
   61.8203   31.0691   48.0589 H   0  0  0  0  0  0  0  0  0  0  0  0
   60.7329   34.3986   45.3110 H   0  0  0  0  0  0  0  0  0  0  0  0
   58.7919   35.1818   43.9729 H   0  0  0  0  0  0  0  0  0  0  0  0
   56.4715   34.5801   44.6548 H   0  0  0  0  0  0  0  0  0  0  0  0
   56.0922   33.1959   46.6929 H   0  0  0  0  0  0  0  0  0  0  0  0
   58.0191   32.4027   48.0495 H   0  0  0  0  0  0  0  0  0  0  0  0
   59.8831   34.2619   49.0168 H   0  0  0  0  0  0  0  0  0  0  0  0
   60.5864   32.7334   49.7373 H   0  0  0  0  0  0  0  0  0  0  0  0
   61.9777   35.2997   48.9620 H   0  0  0  0  0  0  0  0  0  0  0  0
   62.0405   34.3642   50.5017 H   0  0  0  0  0  0  0  0  0  0  0  0
   63.3739   34.8947   47.3782 H   0  0  0  0  0  0  0  0  0  0  0  0
   64.1450   33.2501   47.2208 H   0  0  0  0  0  0  0  0  0  0  0  0
   61.7443   34.1061   46.0596 H   0  0  0  0  0  0  0  0  0  0  0  0
   62.3961   32.3871   46.2469 H   0  0  0  0  0  0  0  0  0  0  0  0
   59.3953   31.5343   44.4483 H   0  0  0  0  0  0  0  0  0  0  0  0
  1  2  1  0
  2  3  2  0
  3  4  1  0
  4  5  2  0
  5  6  1  0
  6  7  1  0
  7  8  1  0
  8  9  1  0
  9 10  1  0
 10 11  1  0
 11 12  2  0
 12 13  1  0
 13 14  2  0
 14 15  1  0
 15 16  2  0
 10 17  1  0
 17 18  1  0
 18 19  1  0
 19 20  1  0
 20 21  1  0
  6 22  2  0
 22  2  1  0
 21 10  1  0
 16 11  1  0
  1 23  1  0
  1 24  1  0
  1 25  1  0
  3 26  1  0
  4 27  1  0
  5 28  1  0
  7 29  1  0
  8 30  1  0
  8 31  1  0
  9 32  1  0
  9 33  1  0
 12 34  1  0
 13 35  1  0
 14 36  1  0
 15 37  1  0
 16 38  1  0
 17 39  1  0
 17 40  1  0
 18 41  1  0
 18 42  1  0
 20 43  1  0
 20 44  1  0
 21 45  1  0
 21 46  1  0
 22 47  1  0
M  END
>  <UniqueID>  (4) 
4

>  <SMILES>  (4) 
Cc1cccc(NCCC2(c3ccccc3)CCOCC2)c1

>  <Energy>  (4) 
69.87853062504995

>  <Genealogy>  (4) 
Cc1cccc(NCCC2(c3ccccc3)CCOCC2)c1 (3D coordinates assigned)
Cc1cccc(NCCC2(c3ccccc3)CCOCC2)c1 (nonaromatic ring conformer: 69.87853062504995 kcal/mol)

>  <smiles>  (4) 
Cc1cccc(NCCC2(c3ccccc3)CCOCC2)c1

>  <score_type>  (4) 
oracle

>  <origin>  (4) 
adg

>  <m_score__min__energy>  (4) 
-7.75

>  <m_primary>  (4) 
energy

$$$$
4:0
     RDKit          3D

 33 35  0  0  0  0  0  0  0  0999 V2000
   55.7710   24.1260   46.7470 C   0  0  0  0  0  0  0  0  0  0  0  0
   56.6190   25.2770   46.3270 C   0  0  0  0  0  0  0  0  0  0  0  0
   57.9940   25.2890   46.2250 C   0  0  0  0  0  0  0  0  0  0  0  0
   58.3610   26.5060   45.7890 N   0  0  0  0  0  0  0  0  0  0  0  0
   57.2060   27.1850   45.6440 C   0  0  0  0  0  0  0  0  0  0  0  0
   57.1180   28.5890   45.1420 C   0  0  0  0  0  0  0  0  0  0  0  0
   55.7090   28.9620   44.9690 N   0  0  0  0  0  0  0  0  0  0  0  0
   55.5080   29.7180   43.7270 C   0  0  0  0  0  0  0  0  0  0  0  0
   56.4880   30.8500   43.6410 C   0  0  0  0  0  0  0  0  0  0  0  0
   57.0870   31.2510   42.4500 C   0  0  0  0  0  0  0  0  0  0  0  0
   58.1360   32.5160   42.8050 S   0  0  0  0  0  0  0  0  0  0  0  0
   57.7850   32.4960   44.4510 C   0  0  0  0  0  0  0  0  0  0  0  0
   58.3800   33.3880   45.4550 C   0  0  0  0  0  0  0  0  0  0  0  0
   59.1600   34.5060   45.1880 C   0  0  0  0  0  0  0  0  0  0  0  0
   59.5910   35.1670   46.3440 C   0  0  0  0  0  0  0  0  0  0  0  0
   59.1540   34.5740   47.5220 C   0  0  0  0  0  0  0  0  0  0  0  0
   58.2300   33.2270   47.1230 S   0  0  0  0  0  0  0  0  0  0  0  0
   56.8790   31.5390   44.7470 N   0  0  0  0  0  0  0  0  0  0  0  0
   56.1600   26.4520   45.9570 O   0  0  0  0  0  0  0  0  0  0  0  0
   55.7357   24.0781   47.8454 H   0  0  0  0  0  0  0  0  0  0  0  0
   54.7525   24.2578   46.3528 H   0  0  0  0  0  0  0  0  0  0  0  0
   56.1987   23.1924   46.3528 H   0  0  0  0  0  0  0  0  0  0  0  0
   58.6692   24.4526   46.4586 H   0  0  0  0  0  0  0  0  0  0  0  0
   59.3310   26.8440   45.5970 H   0  0  0  0  0  0  0  0  0  0  0  0
   57.5900   29.2676   45.8677 H   0  0  0  0  0  0  0  0  0  0  0  0
   57.6376   28.6649   44.1754 H   0  0  0  0  0  0  0  0  0  0  0  0
   55.1550   28.0760   44.8890 H   0  0  0  0  0  0  0  0  0  0  0  0
   55.6520   29.0475   42.8670 H   0  0  0  0  0  0  0  0  0  0  0  0
   54.4872   30.1277   43.7193 H   0  0  0  0  0  0  0  0  0  0  0  0
   56.9064   30.8179   41.4551 H   0  0  0  0  0  0  0  0  0  0  0  0
   59.4134   34.8384   44.1705 H   0  0  0  0  0  0  0  0  0  0  0  0
   60.2170   36.0712   46.3219 H   0  0  0  0  0  0  0  0  0  0  0  0
   59.3746   34.9254   48.5408 H   0  0  0  0  0  0  0  0  0  0  0  0
  1  2  1  0
  2  3  2  0
  3  4  1  0
  4  5  2  0
  5  6  1  0
  6  7  1  0
  7  8  1  0
  8  9  1  0
  9 10  2  0
 10 11  1  0
 11 12  1  0
 12 13  1  0
 13 14  2  0
 14 15  1  0
 15 16  2  0
 16 17  1  0
 12 18  2  0
  5 19  1  0
 19  2  1  0
 18  9  1  0
 17 13  1  0
  1 20  1  0
  1 21  1  0
  1 22  1  0
  3 23  1  0
  4 24  1  0
  6 25  1  0
  6 26  1  0
  7 27  1  0
  8 28  1  0
  8 29  1  0
 10 30  1  0
 14 31  1  0
 15 32  1  0
 16 33  1  0
M  CHG  1   4   1
M  END
>  <UniqueID>  (5) 
5

>  <SMILES>  (5) 
Cc1c[nH+]c(CNCc2csc(-c3cccs3)n2)o1

>  <Energy>  (5) 
115.74806084148409

>  <Genealogy>  (5) 
Cc1c[nH+]c(CNCc2csc(-c3cccs3)n2)o1 (protonated)
Cc1c[nH+]c(CNCc2csc(-c3cccs3)n2)o1 (3D coordinates assigned)
Cc1c[nH+]c(CNCc2csc(-c3cccs3)n2)o1 (optimized conformer: 115.74806084148409 kcal/mol)

>  <smiles>  (5) 
Cc1cnc(CNCc2csc(-c3cccs3)n2)o1

>  <score_type>  (5) 
oracle

>  <origin>  (5) 
adg

>  <m_score__min__energy>  (5) 
-6.0300000000000002

>  <m_primary>  (5) 
energy

$$$$
5:0
     RDKit          3D

 31 33  0  0  0  0  0  0  0  0999 V2000
   60.1810   28.3390   46.7190 C   0  0  0  0  0  0  0  0  0  0  0  0
   60.3610   28.6080   45.3600 C   0  0  0  0  0  0  0  0  0  0  0  0
   59.2560   28.6860   44.5070 C   0  0  0  0  0  0  0  0  0  0  0  0
   57.9530   28.4910   45.0120 C   0  0  0  0  0  0  0  0  0  0  0  0
   56.8080   28.5540   44.2030 O   0  0  0  0  0  0  0  0  0  0  0  0
   55.9990   29.7160   44.0120 C   0  0  0  0  0  0  0  0  0  0  0  0
   56.8210   30.9640   44.1540 C   0  0  0  0  0  0  0  0  0  0  0  0
   57.3950   31.5760   43.0290 C   0  0  0  0  0  0  0  0  0  0  0  0
   58.1710   32.7250   43.1890 C   0  0  0  0  0  0  0  0  0  0  0  0
   58.3800   33.2530   44.4700 C   0  0  0  0  0  0  0  0  0  0  0  0
   59.1530   34.4060   44.6660 C   0  0  0  0  0  0  0  0  0  0  0  0
   59.3450   34.9060   45.9600 C   0  0  0  0  0  0  0  0  0  0  0  0
   58.7690   34.2580   47.0580 C   0  0  0  0  0  0  0  0  0  0  0  0
   57.9970   33.1070   46.8690 C   0  0  0  0  0  0  0  0  0  0  0  0
   57.7970   32.6010   45.5800 C   0  0  0  0  0  0  0  0  0  0  0  0
   57.0460   31.4840   45.3920 N   0  0  0  0  0  0  0  0  0  0  0  0
   57.7860   28.2240   46.3770 C   0  0  0  0  0  0  0  0  0  0  0  0
   58.8940   28.1470   47.2280 C   0  0  0  0  0  0  0  0  0  0  0  0
   61.0520   28.2784   47.3880 H   0  0  0  0  0  0  0  0  0  0  0  0
   61.3746   28.7588   44.9601 H   0  0  0  0  0  0  0  0  0  0  0  0
   59.4030   28.9002   43.4381 H   0  0  0  0  0  0  0  0  0  0  0  0
   55.5575   29.6871   43.0049 H   0  0  0  0  0  0  0  0  0  0  0  0
   55.2073   29.7252   44.7757 H   0  0  0  0  0  0  0  0  0  0  0  0
   57.2342   31.1524   42.0266 H   0  0  0  0  0  0  0  0  0  0  0  0
   58.6176   33.2151   42.3113 H   0  0  0  0  0  0  0  0  0  0  0  0
   59.6080   34.9172   43.8048 H   0  0  0  0  0  0  0  0  0  0  0  0
   59.9507   35.8113   46.1136 H   0  0  0  0  0  0  0  0  0  0  0  0
   58.9236   34.6546   48.0723 H   0  0  0  0  0  0  0  0  0  0  0  0
   57.5467   32.5992   47.7346 H   0  0  0  0  0  0  0  0  0  0  0  0
   56.7749   28.0736   46.7834 H   0  0  0  0  0  0  0  0  0  0  0  0
   58.7518   27.9353   48.2980 H   0  0  0  0  0  0  0  0  0  0  0  0
  1  2  2  0
  2  3  1  0
  3  4  2  0
  4  5  1  0
  5  6  1  0
  6  7  1  0
  7  8  2  0
  8  9  1  0
  9 10  2  0
 10 11  1  0
 11 12  2  0
 12 13  1  0
 13 14  2  0
 14 15  1  0
 15 16  2  0
  4 17  1  0
 17 18  2  0
 18  1  1  0
 16  7  1  0
 15 10  1  0
  1 19  1  0
  2 20  1  0
  3 21  1  0
  6 22  1  0
  6 23  1  0
  8 24  1  0
  9 25  1  0
 11 26  1  0
 12 27  1  0
 13 28  1  0
 14 29  1  0
 17 30  1  0
 18 31  1  0
M  END
>  <UniqueID>  (6) 
6

>  <SMILES>  (6) 
c1ccc(OCc2ccc3ccccc3n2)cc1

>  <Energy>  (6) 
36.243064439867084

>  <Genealogy>  (6) 
c1ccc(OCc2ccc3ccccc3n2)cc1 (3D coordinates assigned)
c1ccc(OCc2ccc3ccccc3n2)cc1 (optimized conformer: 36.243064439867084 kcal/mol)

>  <smiles>  (6) 
c1ccc(OCc2ccc3ccccc3n2)cc1

>  <score_type>  (6) 
oracle

>  <origin>  (6) 
adg

>  <m_score__min__energy>  (6) 
-7.96

>  <m_primary>  (6) 
energy

$$$$
6:0
     RDKit          3D

 29 30  0  0  1  0  0  0  0  0999 V2000
   56.9890   28.1880   45.2730 C   0  0  0  0  0  0  0  0  0  0  0  0
   56.2790   29.3900   45.0070 O   0  0  0  0  0  0  0  0  0  0  0  0
   56.9080   30.4980   44.4580 C   0  0  0  0  0  0  0  0  0  0  0  0
   57.5330   31.4670   45.2290 C   0  0  0  0  0  0  0  0  0  0  0  0
   58.1570   32.5700   44.6810 C   0  0  0  0  0  0  0  0  0  0  0  0
   58.9460   33.7970   45.6460 S   0  0  0  0  0  0  0  0  0  0  0  0
   57.7940   34.5920   46.2760 O   0  0  0  0  0  0  0  0  0  0  0  0
   59.6390   34.8410   44.8400 O   0  0  0  0  0  0  0  0  0  0  0  0
   59.7900   33.1960   46.9880 N   0  0  0  0  0  0  0  0  0  0  0  0
   61.0410   32.9690   47.0230 C   0  0  0  0  0  0  0  0  0  0  0  0
   61.9350   33.9360   46.6410 C   0  0  0  0  0  0  0  0  0  0  0  0
   63.3020   33.7730   46.6490 C   0  0  0  0  0  0  0  0  0  0  0  0
   63.7600   32.5580   47.0680 N   0  0  0  0  0  0  0  0  0  0  0  0
   62.9000   31.5810   47.4520 C   0  0  0  0  0  0  0  0  0  0  0  0
   61.5520   31.7870   47.4290 N   0  0  0  0  0  0  0  0  0  0  0  0
   58.1170   32.6460   43.2830 C   0  0  0  0  0  0  0  0  0  0  0  0
   57.4960   31.6830   42.5170 C   0  0  0  0  0  0  0  0  0  0  0  0
   56.8900   30.6080   43.0840 C   0  0  0  0  0  0  0  0  0  0  0  0
   56.2980   29.7000   42.2700 F   0  0  0  0  0  0  0  0  0  0  0  0
   57.0735   28.0450   46.3604 H   0  0  0  0  0  0  0  0  0  0  0  0
   56.4482   27.3375   44.8322 H   0  0  0  0  0  0  0  0  0  0  0  0
   57.9949   28.2511   44.8322 H   0  0  0  0  0  0  0  0  0  0  0  0
   57.5314   31.3518   46.3230 H   0  0  0  0  0  0  0  0  0  0  0  0
   61.5341   34.9043   46.3067 H   0  0  0  0  0  0  0  0  0  0  0  0
   63.9855   34.5759   46.3357 H   0  0  0  0  0  0  0  0  0  0  0  0
   64.7860   32.4390   47.0730 H   0  0  0  0  0  0  0  0  0  0  0  0
   63.2952   30.6104   47.7861 H   0  0  0  0  0  0  0  0  0  0  0  0
   58.5956   33.4999   42.7813 H   0  0  0  0  0  0  0  0  0  0  0  0
   57.4911   31.7875   41.4220 H   0  0  0  0  0  0  0  0  0  0  0  0
  1  2  1  0
  2  3  1  0
  3  4  2  0
  4  5  1  0
  5  6  1  0
  6  7  2  0
  6  8  2  0
  6  9  1  0
  9 10  2  0
 10 11  1  0
 11 12  2  0
 12 13  1  0
 13 14  1  0
 14 15  2  0
  5 16  2  0
 16 17  1  0
 17 18  2  0
 18 19  1  0
 18  3  1  0
 15 10  1  0
  1 20  1  0
  1 21  1  0
  1 22  1  0
  4 23  1  0
 11 24  1  0
 12 25  1  0
 13 26  1  0
 14 27  1  0
 16 28  1  0
 17 29  1  0
M  END
>  <smiles>  (7) 
COc1cc(S(=O)(=O)N=c2cc[nH]cn2)ccc1F

>  <score_type>  (7) 
oracle

>  <origin>  (7) 
adg

>  <m_score__min__energy>  (7) 
-6.8899999999999997

>  <m_primary>  (7) 
energy

$$$$
7:0
     RDKit          3D

 51 53  0  0  0  0  0  0  0  0999 V2000
   58.2690   23.3930   45.2630 C   0  0  0  0  0  0  0  0  0  0  0  0
   59.0500   24.5640   45.8460 C   0  0  0  0  0  0  0  0  0  0  0  0
   58.3920   25.8730   45.4950 C   0  0  0  0  0  0  0  0  0  0  0  0
   58.4130   26.3460   44.1750 C   0  0  0  0  0  0  0  0  0  0  0  0
   57.7710   27.5460   43.8420 C   0  0  0  0  0  0  0  0  0  0  0  0
   57.0910   28.2890   44.8250 C   0  0  0  0  0  0  0  0  0  0  0  0
   56.3740   29.5390   44.4850 C   0  0  0  0  0  0  0  0  0  0  0  0
   55.1900   29.6930   44.8910 O   0  0  0  0  0  0  0  0  0  0  0  0
   57.0180   30.6390   43.6670 C   0  0  0  0  0  0  0  0  0  0  0  0
   57.6610   31.6990   44.4830 N   0  0  0  0  0  0  0  0  0  0  0  0
   58.7890   31.1920   45.2980 C   0  0  0  0  0  0  0  0  0  0  0  0
   59.2640   32.2660   46.2990 C   0  0  0  0  0  0  0  0  0  0  0  0
   58.8100   33.6200   45.9160 N   0  0  0  0  0  0  0  0  0  0  0  0
   59.7080   34.8200   46.8100 S   0  0  0  0  0  0  0  0  0  0  0  0
   58.8950   35.3010   47.9760 O   0  0  0  0  0  0  0  0  0  0  0  0
   60.0210   35.9960   45.9280 O   0  0  0  0  0  0  0  0  0  0  0  0
   61.2060   34.1110   47.4120 C   0  0  0  0  0  0  0  0  0  0  0  0
   61.3780   33.8700   48.7850 C   0  0  0  0  0  0  0  0  0  0  0  0
   62.5870   33.3520   49.2620 C   0  0  0  0  0  0  0  0  0  0  0  0
   63.6280   33.0720   48.3720 C   0  0  0  0  0  0  0  0  0  0  0  0
   64.8020   32.5760   48.8380 F   0  0  0  0  0  0  0  0  0  0  0  0
   63.4620   33.3130   47.0040 C   0  0  0  0  0  0  0  0  0  0  0  0
   62.2550   33.8350   46.5250 C   0  0  0  0  0  0  0  0  0  0  0  0
   58.9740   33.8430   44.4680 C   0  0  0  0  0  0  0  0  0  0  0  0
   58.0810   32.8650   43.6660 C   0  0  0  0  0  0  0  0  0  0  0  0
   57.0540   27.8020   46.1430 C   0  0  0  0  0  0  0  0  0  0  0  0
   57.7040   26.6060   46.4760 C   0  0  0  0  0  0  0  0  0  0  0  0
   57.8608   22.7810   46.0808 H   0  0  0  0  0  0  0  0  0  0  0  0
   57.4439   23.7746   44.6436 H   0  0  0  0  0  0  0  0  0  0  0  0
   58.9383   22.7779   44.6436 H   0  0  0  0  0  0  0  0  0  0  0  0
   59.0893   24.4621   46.9406 H   0  0  0  0  0  0  0  0  0  0  0  0
   60.0659   24.5555   45.4241 H   0  0  0  0  0  0  0  0  0  0  0  0
   58.9365   25.7716   43.3966 H   0  0  0  0  0  0  0  0  0  0  0  0
   57.7987   27.9102   42.8044 H   0  0  0  0  0  0  0  0  0  0  0  0
   57.7848   30.1864   43.0212 H   0  0  0  0  0  0  0  0  0  0  0  0
   56.2134   31.1223   43.0933 H   0  0  0  0  0  0  0  0  0  0  0  0
   56.9180   32.0300   45.1460 H   0  0  0  0  0  0  0  0  0  0  0  0
   58.4615   30.3006   45.8531 H   0  0  0  0  0  0  0  0  0  0  0  0
   59.6239   30.9388   44.6280 H   0  0  0  0  0  0  0  0  0  0  0  0
   58.8631   32.0255   47.2947 H   0  0  0  0  0  0  0  0  0  0  0  0
   60.3640   32.2648   46.3019 H   0  0  0  0  0  0  0  0  0  0  0  0
   60.5600   34.0891   49.4871 H   0  0  0  0  0  0  0  0  0  0  0  0
   62.7185   33.1650   50.3380 H   0  0  0  0  0  0  0  0  0  0  0  0
   64.2812   33.0919   46.3039 H   0  0  0  0  0  0  0  0  0  0  0  0
   62.1296   34.0291   45.4495 H   0  0  0  0  0  0  0  0  0  0  0  0
   58.6872   34.8770   44.2259 H   0  0  0  0  0  0  0  0  0  0  0  0
   60.0259   33.6689   44.1974 H   0  0  0  0  0  0  0  0  0  0  0  0
   57.1834   33.4017   43.3252 H   0  0  0  0  0  0  0  0  0  0  0  0
   58.6674   32.4898   42.8143 H   0  0  0  0  0  0  0  0  0  0  0  0
   56.5114   28.3632   46.9180 H   0  0  0  0  0  0  0  0  0  0  0  0
   57.6752   26.2388   47.5125 H   0  0  0  0  0  0  0  0  0  0  0  0
  1  2  1  0
  2  3  1  0
  3  4  2  0
  4  5  1  0
  5  6  2  0
  6  7  1  0
  7  8  2  0
  7  9  1  0
  9 10  1  0
 10 11  1  0
 11 12  1  0
 12 13  1  0
 13 14  1  0
 14 15  2  0
 14 16  2  0
 14 17  1  0
 17 18  2  0
 18 19  1  0
 19 20  2  0
 20 21  1  0
 20 22  1  0
 22 23  2  0
 13 24  1  0
 24 25  1  0
  6 26  1  0
 26 27  2  0
 27  3  1  0
 25 10  1  0
 23 17  1  0
  1 28  1  0
  1 29  1  0
  1 30  1  0
  2 31  1  0
  2 32  1  0
  4 33  1  0
  5 34  1  0
  9 35  1  0
  9 36  1  0
 10 37  1  0
 11 38  1  0
 11 39  1  0
 12 40  1  0
 12 41  1  0
 18 42  1  0
 19 43  1  0
 22 44  1  0
 23 45  1  0
 24 46  1  0
 24 47  1  0
 25 48  1  0
 25 49  1  0
 26 50  1  0
 27 51  1  0
M  CHG  1  10   1
M  END
>  <UniqueID>  (8) 
7

>  <SMILES>  (8) 
CCc1ccc(C(=O)C[NH+]2CCN(S(=O)(=O)c3ccc(F)cc3)CC2)cc1

>  <Energy>  (8) 
62.53960876995575

>  <Genealogy>  (8) 
CCc1ccc(C(=O)C[NH+]2CCN(S(=O)(=O)c3ccc(F)cc3)CC2)cc1 (protonated)
CCc1ccc(C(=O)C[NH+]2CCN(S(=O)(=O)c3ccc(F)cc3)CC2)cc1 (3D coordinates assigned)
CCc1ccc(C(=O)C[NH+]2CCN(S(=O)(=O)c3ccc(F)cc3)CC2)cc1 (nonaromatic ring conformer: 62.53960876995575 kcal/mol)

>  <smiles>  (8) 
CCc1ccc(C(=O)CN2CCN(S(=O)(=O)c3ccc(F)cc3)CC2)cc1

>  <score_type>  (8) 
oracle

>  <origin>  (8) 
adg

>  <m_score__min__energy>  (8) 
-7.9199999999999999

>  <m_primary>  (8) 
energy

$$$$
8:0
     RDKit          3D

 47 50  0  0  0  0  0  0  0  0999 V2000
   57.4210   31.8620   41.8140 C   0  0  0  0  0  0  0  0  0  0  0  0
   57.7860   32.7070   43.0300 C   0  0  0  0  0  0  0  0  0  0  0  0
   57.7970   31.8820   44.2390 N   0  0  0  0  0  0  0  0  0  0  0  0
   57.3360   30.6110   44.3450 C   0  0  0  0  0  0  0  0  0  0  0  0
   57.5520   30.0620   45.5670 N   0  0  0  0  0  0  0  0  0  0  0  0
   58.1830   31.0490   46.2330 C   0  0  0  0  0  0  0  0  0  0  0  0
   58.3390   32.1390   45.4450 C   0  0  0  0  0  0  0  0  0  0  0  0
   59.0030   33.2610   45.9220 C   0  0  0  0  0  0  0  0  0  0  0  0
   59.1590   34.2740   45.1860 O   0  0  0  0  0  0  0  0  0  0  0  0
   59.4820   33.2380   47.2130 N   0  0  0  0  0  0  0  0  0  0  0  0
   60.2500   34.3860   47.7370 C   0  0  0  0  0  0  0  0  0  0  0  0
   61.6630   33.9690   48.0550 C   0  0  0  0  0  0  0  0  0  0  0  0
   62.1610   34.0810   49.3640 C   0  0  0  0  0  0  0  0  0  0  0  0
   63.4580   33.6510   49.6640 C   0  0  0  0  0  0  0  0  0  0  0  0
   64.2650   33.1060   48.6620 C   0  0  0  0  0  0  0  0  0  0  0  0
   63.7760   32.9880   47.3580 C   0  0  0  0  0  0  0  0  0  0  0  0
   62.4790   33.4150   47.0540 C   0  0  0  0  0  0  0  0  0  0  0  0
   59.3020   32.1120   48.0010 C   0  0  0  0  0  0  0  0  0  0  0  0
   59.7430   32.1010   49.1850 O   0  0  0  0  0  0  0  0  0  0  0  0
   58.6490   31.0010   47.5100 N   0  0  0  0  0  0  0  0  0  0  0  0
   58.5200   29.7720   48.3120 C   0  0  0  0  0  0  0  0  0  0  0  0
   59.0200   28.5850   47.5320 C   0  0  0  0  0  0  0  0  0  0  0  0
   58.2370   27.4220   47.4350 C   0  0  0  0  0  0  0  0  0  0  0  0
   58.6790   26.3350   46.6750 C   0  0  0  0  0  0  0  0  0  0  0  0
   59.9020   26.4020   46.0010 C   0  0  0  0  0  0  0  0  0  0  0  0
   60.6840   27.5570   46.0870 C   0  0  0  0  0  0  0  0  0  0  0  0
   60.2460   28.6460   46.8480 C   0  0  0  0  0  0  0  0  0  0  0  0
   57.0054   30.8997   42.1476 H   0  0  0  0  0  0  0  0  0  0  0  0
   56.6727   32.3945   41.2087 H   0  0  0  0  0  0  0  0  0  0  0  0
   58.3217   31.6822   41.2087 H   0  0  0  0  0  0  0  0  0  0  0  0
   58.7839   33.1450   42.8808 H   0  0  0  0  0  0  0  0  0  0  0  0
   57.0375   33.5043   43.1485 H   0  0  0  0  0  0  0  0  0  0  0  0
   56.8367   30.0782   43.5223 H   0  0  0  0  0  0  0  0  0  0  0  0
   60.2689   35.1852   46.9814 H   0  0  0  0  0  0  0  0  0  0  0  0
   59.7684   34.7485   48.6571 H   0  0  0  0  0  0  0  0  0  0  0  0
   61.5286   34.5085   50.1560 H   0  0  0  0  0  0  0  0  0  0  0  0
   63.8431   33.7421   50.6904 H   0  0  0  0  0  0  0  0  0  0  0  0
   65.2851   32.7698   48.8994 H   0  0  0  0  0  0  0  0  0  0  0  0
   64.4119   32.5588   46.5697 H   0  0  0  0  0  0  0  0  0  0  0  0
   62.0964   33.3167   46.0274 H   0  0  0  0  0  0  0  0  0  0  0  0
   59.1116   29.8761   49.2335 H   0  0  0  0  0  0  0  0  0  0  0  0
   57.4599   29.6163   48.5608 H   0  0  0  0  0  0  0  0  0  0  0  0
   57.2717   27.3667   47.9596 H   0  0  0  0  0  0  0  0  0  0  0  0
   58.0636   25.4258   46.6072 H   0  0  0  0  0  0  0  0  0  0  0  0
   60.2486   25.5460   45.4033 H   0  0  0  0  0  0  0  0  0  0  0  0
   61.6456   27.6099   45.5554 H   0  0  0  0  0  0  0  0  0  0  0  0
   60.8639   29.5539   46.9112 H   0  0  0  0  0  0  0  0  0  0  0  0
  1  2  1  0
  2  3  1  0
  3  4  1  0
  4  5  2  0
  5  6  1  0
  6  7  2  0
  7  8  1  0
  8  9  2  0
  8 10  1  0
 10 11  1  0
 11 12  1  0
 12 13  2  0
 13 14  1  0
 14 15  2  0
 15 16  1  0
 16 17  2  0
 10 18  1  0
 18 19  2  0
 18 20  1  0
 20 21  1  0
 21 22  1  0
 22 23  2  0
 23 24  1  0
 24 25  2  0
 25 26  1  0
 26 27  2  0
  7  3  1  0
 17 12  1  0
 27 22  1  0
 20  6  1  0
  1 28  1  0
  1 29  1  0
  1 30  1  0
  2 31  1  0
  2 32  1  0
  4 33  1  0
 11 34  1  0
 11 35  1  0
 13 36  1  0
 14 37  1  0
 15 38  1  0
 16 39  1  0
 17 40  1  0
 21 41  1  0
 21 42  1  0
 23 43  1  0
 24 44  1  0
 25 45  1  0
 26 46  1  0
 27 47  1  0
M  END
>  <UniqueID>  (9) 
8

>  <SMILES>  (9) 
CCn1cnc2c1c(=O)n(Cc1ccccc1)c(=O)n2Cc1ccccc1

>  <Energy>  (9) 
91.9122973544614

>  <Genealogy>  (9) 
CCn1cnc2c1c(=O)n(Cc1ccccc1)c(=O)n2Cc1ccccc1 (3D coordinates assigned)
CCn1cnc2c1c(=O)n(Cc1ccccc1)c(=O)n2Cc1ccccc1 (optimized conformer: 91.9122973544614 kcal/mol)

>  <smiles>  (9) 
CCn1cnc2c1c(=O)n(Cc1ccccc1)c(=O)n2Cc1ccccc1

>  <score_type>  (9) 
oracle

>  <origin>  (9) 
adg

>  <m_score__min__energy>  (9) 
-7.3499999999999996

>  <m_primary>  (9) 
energy

$$$$
9:0
     RDKit          3D

 26 27  0  0  0  0  0  0  0  0999 V2000
   57.7860   32.0910   42.5840 C   0  0  0  0  0  0  0  0  0  0  0  0
   57.3880   31.8940   43.9800 N   0  0  0  0  0  0  0  0  0  0  0  0
   57.4720   32.9960   44.9420 C   0  0  0  0  0  0  0  0  0  0  0  0
   56.9080   30.6110   44.4220 C   0  0  0  0  0  0  0  0  0  0  0  0
   57.6870   29.5440   44.8260 C   0  0  0  0  0  0  0  0  0  0  0  0
   56.7620   28.5640   45.1470 C   0  0  0  0  0  0  0  0  0  0  0  0
   57.0470   27.1950   45.6420 C   0  0  0  0  0  0  0  0  0  0  0  0
   55.9850   26.3500   46.0170 C   0  0  0  0  0  0  0  0  0  0  0  0
   56.2380   25.0580   46.4860 C   0  0  0  0  0  0  0  0  0  0  0  0
   57.5510   24.5920   46.5890 C   0  0  0  0  0  0  0  0  0  0  0  0
   57.7910   23.3390   47.0450 F   0  0  0  0  0  0  0  0  0  0  0  0
   58.6150   25.4200   46.2200 C   0  0  0  0  0  0  0  0  0  0  0  0
   59.8910   24.9700   46.3190 F   0  0  0  0  0  0  0  0  0  0  0  0
   58.3670   26.7140   45.7510 C   0  0  0  0  0  0  0  0  0  0  0  0
   55.5170   29.0400   44.9380 N   0  0  0  0  0  0  0  0  0  0  0  0
   55.6040   30.2850   44.4970 N   0  0  0  0  0  0  0  0  0  0  0  0
   58.7713   32.5787   42.5490 H   0  0  0  0  0  0  0  0  0  0  0  0
   57.8412   31.1162   42.0774 H   0  0  0  0  0  0  0  0  0  0  0  0
   57.0443   32.7260   42.0774 H   0  0  0  0  0  0  0  0  0  0  0  0
   57.4413   32.5928   45.9650 H   0  0  0  0  0  0  0  0  0  0  0  0
   58.4144   33.5430   44.7916 H   0  0  0  0  0  0  0  0  0  0  0  0
   56.6233   33.6795   44.7916 H   0  0  0  0  0  0  0  0  0  0  0  0
   58.7841   29.4862   44.8801 H   0  0  0  0  0  0  0  0  0  0  0  0
   54.9482   26.7095   45.9402 H   0  0  0  0  0  0  0  0  0  0  0  0
   55.4006   24.4059   46.7750 H   0  0  0  0  0  0  0  0  0  0  0  0
   59.2090   27.3614   45.4649 H   0  0  0  0  0  0  0  0  0  0  0  0
  1  2  1  0
  2  3  1  0
  2  4  1  0
  4  5  1  0
  5  6  2  0
  6  7  1  0
  7  8  2  0
  8  9  1  0
  9 10  2  0
 10 11  1  0
 10 12  1  0
 12 13  1  0
 12 14  2  0
  6 15  1  0
 15 16  1  0
 16  4  2  0
 14  7  1  0
  1 17  1  0
  1 18  1  0
  1 19  1  0
  3 20  1  0
  3 21  1  0
  3 22  1  0
  5 23  1  0
  8 24  1  0
  9 25  1  0
 14 26  1  0
M  CHG  1  15  -1
M  END
>  <UniqueID>  (10) 
9

>  <SMILES>  (10) 
CN(C)c1cc(-c2ccc(F)c(F)c2)[n-]n1

>  <Energy>  (10) 
54.77582080226032

>  <Genealogy>  (10) 
CN(C)c1cc(-c2ccc(F)c(F)c2)[n-]n1 (protonated)
CN(C)c1cc(-c2ccc(F)c(F)c2)[n-]n1 (3D coordinates assigned)
CN(C)c1cc(-c2ccc(F)c(F)c2)[n-]n1 (optimized conformer: 54.77582080226032 kcal/mol)

>  <smiles>  (10) 
CN(C)c1cc(-c2ccc(F)c(F)c2)[nH]n1

>  <score_type>  (10) 
oracle

>  <origin>  (10) 
adg

>  <m_score__min__energy>  (10) 
-7.7300000000000004

>  <m_primary>  (10) 
energy

$$$$
10:0
     RDKit          3D

 43 44  0  0  0  0  0  0  0  0999 V2000
   55.5340   29.8270   43.5380 C   0  0  0  0  0  0  0  0  0  0  0  0
   56.1380   30.0860   44.8010 O   0  0  0  0  0  0  0  0  0  0  0  0
   57.3330   29.4990   45.2480 C   0  0  0  0  0  0  0  0  0  0  0  0
   57.4000   28.1410   45.6180 C   0  0  0  0  0  0  0  0  0  0  0  0
   58.6030   27.5870   46.0590 C   0  0  0  0  0  0  0  0  0  0  0  0
   59.7520   28.3740   46.1340 C   0  0  0  0  0  0  0  0  0  0  0  0
   59.7020   29.7200   45.7680 C   0  0  0  0  0  0  0  0  0  0  0  0
   58.4980   30.2930   45.3250 C   0  0  0  0  0  0  0  0  0  0  0  0
   58.4560   31.7640   44.9640 C   0  0  0  0  0  0  0  0  0  0  0  0
   57.1250   32.3460   45.2150 N   0  0  0  0  0  0  0  0  0  0  0  0
   57.2040   33.7840   45.5260 C   0  0  0  0  0  0  0  0  0  0  0  0
   58.0900   34.0490   46.7610 C   0  0  0  0  0  0  0  0  0  0  0  0
   59.3150   34.9220   46.4400 C   0  0  0  0  0  0  0  0  0  0  0  0
   60.3840   34.1480   45.8070 N   0  0  0  0  0  0  0  0  0  0  0  0
   61.4290   33.4530   46.5160 C   0  0  0  0  0  0  0  0  0  0  0  0
   62.7870   33.8040   46.3810 C   0  0  0  0  0  0  0  0  0  0  0  0
   63.7700   33.1100   47.0940 C   0  0  0  0  0  0  0  0  0  0  0  0
   63.4120   32.0600   47.9420 C   0  0  0  0  0  0  0  0  0  0  0  0
   62.0700   31.6990   48.0770 C   0  0  0  0  0  0  0  0  0  0  0  0
   61.0830   32.3900   47.3680 C   0  0  0  0  0  0  0  0  0  0  0  0
   54.5329   29.3977   43.6914 H   0  0  0  0  0  0  0  0  0  0  0  0
   55.4473   30.7670   42.9734 H   0  0  0  0  0  0  0  0  0  0  0  0
   56.1552   29.1161   42.9734 H   0  0  0  0  0  0  0  0  0  0  0  0
   56.4985   27.5134   45.5589 H   0  0  0  0  0  0  0  0  0  0  0  0
   58.6449   26.5265   46.3482 H   0  0  0  0  0  0  0  0  0  0  0  0
   60.6981   27.9337   46.4818 H   0  0  0  0  0  0  0  0  0  0  0  0
   60.6112   30.3363   45.8268 H   0  0  0  0  0  0  0  0  0  0  0  0
   59.2007   32.3016   45.5693 H   0  0  0  0  0  0  0  0  0  0  0  0
   58.6777   31.8617   43.8910 H   0  0  0  0  0  0  0  0  0  0  0  0
   56.6500   31.8240   45.9880 H   0  0  0  0  0  0  0  0  0  0  0  0
   56.5470   32.2270   44.3510 H   0  0  0  0  0  0  0  0  0  0  0  0
   57.6295   34.3137   44.6609 H   0  0  0  0  0  0  0  0  0  0  0  0
   56.1886   34.1451   45.7465 H   0  0  0  0  0  0  0  0  0  0  0  0
   57.4849   34.5598   47.5245 H   0  0  0  0  0  0  0  0  0  0  0  0
   58.4608   33.0765   47.1172 H   0  0  0  0  0  0  0  0  0  0  0  0
   59.0082   35.7289   45.7583 H   0  0  0  0  0  0  0  0  0  0  0  0
   59.7019   35.3288   47.3859 H   0  0  0  0  0  0  0  0  0  0  0  0
   60.3900   34.1170   44.7610 H   0  0  0  0  0  0  0  0  0  0  0  0
   63.0754   34.6278   45.7116 H   0  0  0  0  0  0  0  0  0  0  0  0
   64.8278   33.3921   46.9864 H   0  0  0  0  0  0  0  0  0  0  0  0
   64.1869   31.5175   48.5034 H   0  0  0  0  0  0  0  0  0  0  0  0
   61.7889   30.8694   48.7424 H   0  0  0  0  0  0  0  0  0  0  0  0
   60.0277   32.0996   47.4777 H   0  0  0  0  0  0  0  0  0  0  0  0
  1  2  1  0
  2  3  1  0
  3  4  2  0
  4  5  1  0
  5  6  2  0
  6  7  1  0
  7  8  2  0
  8  9  1  0
  9 10  1  0
 10 11  1  0
 11 12  1  0
 12 13  1  0
 13 14  1  0
 14 15  1  0
 15 16  2  0
 16 17  1  0
 17 18  2  0
 18 19  1  0
 19 20  2  0
  8  3  1  0
 20 15  1  0
  1 21  1  0
  1 22  1  0
  1 23  1  0
  4 24  1  0
  5 25  1  0
  6 26  1  0
  7 27  1  0
  9 28  1  0
  9 29  1  0
 10 30  1  0
 10 31  1  0
 11 32  1  0
 11 33  1  0
 12 34  1  0
 12 35  1  0
 13 36  1  0
 13 37  1  0
 14 38  1  0
 16 39  1  0
 17 40  1  0
 18 41  1  0
 19 42  1  0
 20 43  1  0
M  CHG  1  10   1
M  END
>  <UniqueID>  (11) 
10

>  <SMILES>  (11) 
COc1ccccc1C[NH2+]CCCNc1ccccc1

>  <Energy>  (11) 
37.90055835137456

>  <Genealogy>  (11) 
COc1ccccc1C[NH2+]CCCNc1ccccc1 (protonated)
COc1ccccc1C[NH2+]CCCNc1ccccc1 (3D coordinates assigned)
COc1ccccc1C[NH2+]CCCNc1ccccc1 (optimized conformer: 37.90055835137456 kcal/mol)

>  <smiles>  (11) 
COc1ccccc1CNCCCNc1ccccc1

>  <score_type>  (11) 
oracle

>  <origin>  (11) 
adg

>  <m_score__min__energy>  (11) 
-4.6399999999999997

>  <m_primary>  (11) 
energy

$$$$
11:0
     RDKit          3D

 30 31  0  0  0  0  0  0  0  0999 V2000
   59.8931   35.4713   45.0456 H   0  0  0  0  0  0  0  0  0  0  0  0
   59.3990   34.7050   45.6610 C   0  0  0  0  0  0  0  0  0  0  0  0
   58.1630   34.0820   45.1360 C   0  0  0  0  0  0  0  0  0  0  0  0
   57.2049   34.3664   45.5955 H   0  0  0  0  0  0  0  0  0  0  0  0
   58.1420   33.1920   44.1340 C   0  0  0  0  0  0  0  0  0  0  0  0
   58.4040   33.5540   43.1289 H   0  0  0  0  0  0  0  0  0  0  0  0
   57.7940   31.7610   44.2740 C   0  0  0  0  0  0  0  0  0  0  0  0
   58.1330   31.0300   45.4280 C   0  0  0  0  0  0  0  0  0  0  0  0
   58.6979   31.5155   46.2374 H   0  0  0  0  0  0  0  0  0  0  0  0
   57.7550   29.6900   45.5500 C   0  0  0  0  0  0  0  0  0  0  0  0
   58.0378   29.1191   46.4467 H   0  0  0  0  0  0  0  0  0  0  0  0
   57.0180   29.0740   44.5340 C   0  0  0  0  0  0  0  0  0  0  0  0
   56.7289   28.0168   44.6274 H   0  0  0  0  0  0  0  0  0  0  0  0
   56.6490   29.8020   43.4000 C   0  0  0  0  0  0  0  0  0  0  0  0
   56.0605   29.3201   42.6053 H   0  0  0  0  0  0  0  0  0  0  0  0
   57.0270   31.1430   43.2740 C   0  0  0  0  0  0  0  0  0  0  0  0
   56.7215   31.7163   42.3863 H   0  0  0  0  0  0  0  0  0  0  0  0
   59.9520   34.3920   46.8400 C   0  0  0  0  0  0  0  0  0  0  0  0
   59.5427   34.8788   47.7375 H   0  0  0  0  0  0  0  0  0  0  0  0
   61.0710   33.4420   47.0290 C   0  0  0  0  0  0  0  0  0  0  0  0
   60.7910   32.1260   47.4270 C   0  0  0  0  0  0  0  0  0  0  0  0
   59.7475   31.8059   47.5636 H   0  0  0  0  0  0  0  0  0  0  0  0
   61.8320   31.2190   47.6510 C   0  0  0  0  0  0  0  0  0  0  0  0
   61.6047   30.1845   47.9481 H   0  0  0  0  0  0  0  0  0  0  0  0
   63.1600   31.6250   47.4980 C   0  0  0  0  0  0  0  0  0  0  0  0
   63.9775   30.9083   47.6656 H   0  0  0  0  0  0  0  0  0  0  0  0
   63.4490   32.9420   47.1320 C   0  0  0  0  0  0  0  0  0  0  0  0
   64.4951   33.2633   47.0207 H   0  0  0  0  0  0  0  0  0  0  0  0
   62.4130   33.8520   46.9070 C   0  0  0  0  0  0  0  0  0  0  0  0
   62.6461   34.8917   46.6338 H   0  0  0  0  0  0  0  0  0  0  0  0
  1  2  1  0
  2  3  1  0
  3  4  1  0
  3  5  2  0
  5  6  1  0
  5  7  1  0
  7  8  2  0
  8  9  1  0
  8 10  1  0
 10 11  1  0
 10 12  2  0
 12 13  1  0
 12 14  1  0
 14 15  1  0
 14 16  2  0
 16 17  1  0
  2 18  2  0
 18 19  1  0
 18 20  1  0
 20 21  2  0
 21 22  1  0
 21 23  1  0
 23 24  1  0
 23 25  2  0
 25 26  1  0
 25 27  1  0
 27 28  1  0
 27 29  2  0
 29 30  1  0
 16  7  1  0
 29 20  1  0
M  END
>  <UniqueID>  (12) 
11

>  <SMILES>  (12) 
C(/C=C\c1ccccc1)=C/c1ccccc1

>  <Energy>  (12) 
41.87500959329449

>  <Genealogy>  (12) 
C(/C=C\c1ccccc1)=C/c1ccccc1 (cis-trans isomerization)
C(/C=C\c1ccccc1)=C/c1ccccc1 (3D coordinates assigned)
C(/C=C\c1ccccc1)=C/c1ccccc1 (optimized conformer: 41.87500959329449 kcal/mol)

>  <smiles>  (12) 
C(C=Cc1ccccc1)=Cc1ccccc1

>  <score_type>  (12) 
oracle

>  <origin>  (12) 
adg

>  <m_score__min__energy>  (12) 
-6.7199999999999998

>  <m_primary>  (12) 
energy

$$$$
12:0
     RDKit          3D

 69 74  0  0  0  0  0  0  0  0999 V2000
   59.4496   26.2238   46.1795 H   0  0  0  0  0  0  0  0  0  0  0  0
   59.4420   27.2260   46.6330 C   0  0  0  0  0  0  0  0  0  0  0  0
   60.1080   27.4510   47.7960 N   0  0  0  0  0  0  0  0  0  0  0  0
   60.1220   28.6820   48.3800 C   0  0  0  0  0  0  0  0  0  0  0  0
   60.7730   28.9020   49.4850 N   0  0  0  0  0  0  0  0  0  0  0  0
   61.7110   29.9590   49.7490 C   0  0  0  0  0  0  0  0  0  0  0  0
   61.9370   30.9940   48.8240 C   0  0  0  0  0  0  0  0  0  0  0  0
   61.3628   31.0231   47.8862 H   0  0  0  0  0  0  0  0  0  0  0  0
   62.8840   31.9840   49.0870 C   0  0  0  0  0  0  0  0  0  0  0  0
   63.0367   32.7991   48.3643 H   0  0  0  0  0  0  0  0  0  0  0  0
   63.6430   31.9480   50.2660 C   0  0  0  0  0  0  0  0  0  0  0  0
   64.6130   32.9770   50.5430 N   0  0  0  0  0  0  0  0  0  0  0  0
   64.2360   34.2120   51.2370 C   0  0  0  0  0  0  0  0  0  0  0  0
   64.3792   35.0671   50.5600 H   0  0  0  0  0  0  0  0  0  0  0  0
   63.1808   34.1446   51.5403 H   0  0  0  0  0  0  0  0  0  0  0  0
   65.1070   34.4060   52.4920 C   0  0  0  0  0  0  0  0  0  0  0  0
   65.1803   35.4838   52.6991 H   0  0  0  0  0  0  0  0  0  0  0  0
   64.6197   33.8506   53.3069 H   0  0  0  0  0  0  0  0  0  0  0  0
   66.4840   33.8600   52.3620 N   0  0  0  0  0  0  0  0  0  0  0  0
   66.6440   32.5980   53.1070 C   0  0  0  0  0  0  0  0  0  0  0  0
   66.6179   32.8041   54.1872 H   0  0  0  0  0  0  0  0  0  0  0  0
   65.8257   31.9112   52.8448 H   0  0  0  0  0  0  0  0  0  0  0  0
   67.6078   32.1371   52.8448 H   0  0  0  0  0  0  0  0  0  0  0  0
   66.9310   33.7290   50.9590 C   0  0  0  0  0  0  0  0  0  0  0  0
   66.9282   34.7243   50.4906 H   0  0  0  0  0  0  0  0  0  0  0  0
   67.9417   33.2948   50.9628 H   0  0  0  0  0  0  0  0  0  0  0  0
   66.0150   32.7960   50.1490 C   0  0  0  0  0  0  0  0  0  0  0  0
   66.1219   33.0250   49.0784 H   0  0  0  0  0  0  0  0  0  0  0  0
   66.3067   31.7540   50.3469 H   0  0  0  0  0  0  0  0  0  0  0  0
   63.4340   30.9030   51.1820 C   0  0  0  0  0  0  0  0  0  0  0  0
   64.0228   30.8674   52.1105 H   0  0  0  0  0  0  0  0  0  0  0  0
   62.4790   29.9010   50.9240 C   0  0  0  0  0  0  0  0  0  0  0  0
   62.2620   28.8340   51.8110 O   0  0  0  0  0  0  0  0  0  0  0  0
   61.0650   28.6320   52.5540 C   0  0  0  0  0  0  0  0  0  0  0  0
   61.2905   28.6701   53.6300 H   0  0  0  0  0  0  0  0  0  0  0  0
   60.3402   29.4205   52.3031 H   0  0  0  0  0  0  0  0  0  0  0  0
   60.6391   27.6493   52.3031 H   0  0  0  0  0  0  0  0  0  0  0  0
   59.4800   29.7160   47.7790 N   0  0  0  0  0  0  0  0  0  0  0  0
   58.8010   29.5370   46.6170 C   0  0  0  0  0  0  0  0  0  0  0  0
   58.7470   28.2690   46.0130 C   0  0  0  0  0  0  0  0  0  0  0  0
   58.0840   28.0770   44.6540 C   0  0  0  0  0  0  0  0  0  0  0  0
   58.8462   28.2153   43.8730 H   0  0  0  0  0  0  0  0  0  0  0  0
   57.6541   27.0645   44.6461 H   0  0  0  0  0  0  0  0  0  0  0  0
   56.9200   29.0660   44.3830 C   0  0  0  0  0  0  0  0  0  0  0  0
   56.7470   29.1296   43.2986 H   0  0  0  0  0  0  0  0  0  0  0  0
   56.0195   28.6967   44.8956 H   0  0  0  0  0  0  0  0  0  0  0  0
   57.2430   30.4320   44.9090 C   0  0  0  0  0  0  0  0  0  0  0  0
   56.6560   31.5910   44.5530 N   0  0  0  0  0  0  0  0  0  0  0  0
   57.1280   32.5310   45.3640 N   0  0  0  0  0  0  0  0  0  0  0  0
   56.7280   33.9310   45.2890 C   0  0  0  0  0  0  0  0  0  0  0  0
   56.6127   34.3344   46.3059 H   0  0  0  0  0  0  0  0  0  0  0  0
   57.4983   34.5042   44.7523 H   0  0  0  0  0  0  0  0  0  0  0  0
   55.7711   34.0107   44.7523 H   0  0  0  0  0  0  0  0  0  0  0  0
   58.0000   31.9840   46.2450 C   0  0  0  0  0  0  0  0  0  0  0  0
   58.7060   32.7100   47.3150 C   0  0  0  0  0  0  0  0  0  0  0  0
   58.4990   32.3310   48.6500 C   0  0  0  0  0  0  0  0  0  0  0  0
   57.7946   31.5191   48.8837 H   0  0  0  0  0  0  0  0  0  0  0  0
   59.1830   32.9790   49.6890 C   0  0  0  0  0  0  0  0  0  0  0  0
   58.9390   32.5830   51.1160 C   0  0  0  0  0  0  0  0  0  0  0  0
   59.3966   33.3257   51.7860 H   0  0  0  0  0  0  0  0  0  0  0  0
   57.8561   32.5377   51.3039 H   0  0  0  0  0  0  0  0  0  0  0  0
   59.3854   31.5954   51.3039 H   0  0  0  0  0  0  0  0  0  0  0  0
   60.0500   34.0380   49.3880 C   0  0  0  0  0  0  0  0  0  0  0  0
   60.5660   34.5710   50.2002 H   0  0  0  0  0  0  0  0  0  0  0  0
   60.2620   34.4200   48.0600 C   0  0  0  0  0  0  0  0  0  0  0  0
   60.9522   35.2453   47.8310 H   0  0  0  0  0  0  0  0  0  0  0  0
   59.6000   33.7570   47.0210 C   0  0  0  0  0  0  0  0  0  0  0  0
   59.9470   34.2290   45.3600 Cl  0  0  0  0  0  0  0  0  0  0  0  0
   58.0720   30.6340   45.9790 C   0  0  0  0  0  0  0  0  0  0  0  0
  1  2  1  0
  2  3  1  0
  3  4  1  0
  4  5  2  0
  5  6  1  0
  6  7  2  0
  7  8  1  0
  7  9  1  0
  9 10  1  0
  9 11  2  0
 11 12  1  0
 12 13  1  0
 13 14  1  0
 13 15  1  0
 13 16  1  0
 16 17  1  0
 16 18  1  0
 16 19  1  0
 19 20  1  0
 20 21  1  0
 20 22  1  0
 20 23  1  0
 19 24  1  0
 24 25  1  0
 24 26  1  0
 24 27  1  0
 27 28  1  0
 27 29  1  0
 11 30  1  0
 30 31  1  0
 30 32  2  0
 32 33  1  0
 33 34  1  0
 34 35  1  0
 34 36  1  0
 34 37  1  0
  4 38  1  0
 38 39  2  0
 39 40  1  0
 40 41  1  0
 41 42  1  0
 41 43  1  0
 41 44  1  0
 44 45  1  0
 44 46  1  0
 44 47  1  0
 47 48  2  0
 48 49  1  0
 49 50  1  0
 50 51  1  0
 50 52  1  0
 50 53  1  0
 49 54  1  0
 54 55  1  0
 55 56  2  0
 56 57  1  0
 56 58  1  0
 58 59  1  0
 59 60  1  0
 59 61  1  0
 59 62  1  0
 58 63  2  0
 63 64  1  0
 63 65  1  0
 65 66  1  0
 65 67  2  0
 67 68  1  0
 54 69  2  0
 40  2  2  0
 69 47  1  0
 32  6  1  0
 69 39  1  0
 27 12  1  0
 67 55  1  0
M  CHG  1   3  -1
M  END
>  <UniqueID>  (13) 
12

>  <SMILES>  (13) 
COc1cc(N2CCN(C)CC2)ccc1/N=c1/nc2c(c[n-]1)CCc1nn(C)c(-c3cc(C)ccc3Cl)c1-2

>  <Energy>  (13) 
135.19442203610592

>  <Genealogy>  (13) 
COc1cc(N2CCN(C)CC2)ccc1N=c1nc2c(c[n-]1)CCc1nn(C)c(-c3cc(C)ccc3Cl)c1-2 (protonated)
COc1cc(N2CCN(C)CC2)ccc1/N=c1/nc2c(c[n-]1)CCc1nn(C)c(-c3cc(C)ccc3Cl)c1-2 (cis-trans isomerization)
COc1cc(N2CCN(C)CC2)ccc1/N=c1/nc2c(c[n-]1)CCc1nn(C)c(-c3cc(C)ccc3Cl)c1-2 (3D coordinates assigned)
COc1cc(N2CCN(C)CC2)ccc1/N=c1/nc2c(c[n-]1)CCc1nn(C)c(-c3cc(C)ccc3Cl)c1-2 (nonaromatic ring conformer: 135.19442203610592 kcal/mol)

>  <smiles>  (13) 
COc1cc(N2CCN(C)CC2)ccc1N=c1nc2c(c[nH]1)CCc1nn(C)c(-c3cc(C)ccc3Cl)c1-2

>  <score_type>  (13) 
oracle

>  <origin>  (13) 
adg

>  <m_score__min__energy>  (13) 
-10.57

>  <m_primary>  (13) 
energy

$$$$
13:0
     RDKit          3D

 51 53  0  0  0  0  0  0  0  0999 V2000
   56.5990   30.4300   43.4270 C   0  0  0  0  0  0  0  0  0  0  0  0
   56.3160   31.3470   44.4790 O   0  0  0  0  0  0  0  0  0  0  0  0
   57.2100   32.3240   44.9410 C   0  0  0  0  0  0  0  0  0  0  0  0
   58.2770   32.8030   44.1580 C   0  0  0  0  0  0  0  0  0  0  0  0
   59.1580   33.7580   44.6760 C   0  0  0  0  0  0  0  0  0  0  0  0
   58.9980   34.2360   45.9870 C   0  0  0  0  0  0  0  0  0  0  0  0
   60.0020   35.1980   46.5800 C   0  0  0  0  0  0  0  0  0  0  0  0
   60.8520   34.5930   47.6300 N   0  0  0  0  0  0  0  0  0  0  0  0
   61.9860   33.7690   47.1660 C   0  0  0  0  0  0  0  0  0  0  0  0
   61.6850   32.2490   47.1300 C   0  0  0  0  0  0  0  0  0  0  0  0
   60.4680   31.8680   47.8820 N   0  0  0  0  0  0  0  0  0  0  0  0
   60.4500   30.4050   48.1350 C   0  0  0  0  0  0  0  0  0  0  0  0
   59.8690   29.6540   46.9600 C   0  0  0  0  0  0  0  0  0  0  0  0
   58.5410   29.1990   47.0130 C   0  0  0  0  0  0  0  0  0  0  0  0
   58.0140   28.4360   45.9670 C   0  0  0  0  0  0  0  0  0  0  0  0
   58.8110   28.1170   44.8620 C   0  0  0  0  0  0  0  0  0  0  0  0
   58.1400   27.1160   43.5330 S   0  0  0  0  0  0  0  0  0  0  0  0
   57.6590   25.7560   44.6440 C   0  0  0  0  0  0  0  0  0  0  0  0
   60.1320   28.5770   44.7970 C   0  0  0  0  0  0  0  0  0  0  0  0
   60.6610   29.3400   45.8430 C   0  0  0  0  0  0  0  0  0  0  0  0
   60.3840   32.6330   49.1400 C   0  0  0  0  0  0  0  0  0  0  0  0
   60.1600   34.1270   48.8530 C   0  0  0  0  0  0  0  0  0  0  0  0
   57.9080   33.7830   46.7510 C   0  0  0  0  0  0  0  0  0  0  0  0
   57.0280   32.8320   46.2320 C   0  0  0  0  0  0  0  0  0  0  0  0
   56.8978   29.4618   43.8551 H   0  0  0  0  0  0  0  0  0  0  0  0
   55.7007   30.2951   42.8066 H   0  0  0  0  0  0  0  0  0  0  0  0
   57.4171   30.8248   42.8066 H   0  0  0  0  0  0  0  0  0  0  0  0
   58.4186   32.4249   43.1348 H   0  0  0  0  0  0  0  0  0  0  0  0
   59.9813   34.1371   44.0527 H   0  0  0  0  0  0  0  0  0  0  0  0
   60.6535   35.5628   45.7722 H   0  0  0  0  0  0  0  0  0  0  0  0
   59.4307   36.0094   47.0545 H   0  0  0  0  0  0  0  0  0  0  0  0
   62.2563   34.0926   46.1500 H   0  0  0  0  0  0  0  0  0  0  0  0
   62.8032   33.9155   47.8876 H   0  0  0  0  0  0  0  0  0  0  0  0
   61.5550   31.9450   46.0809 H   0  0  0  0  0  0  0  0  0  0  0  0
   62.5337   31.7405   47.6107 H   0  0  0  0  0  0  0  0  0  0  0  0
   59.6380   32.1030   47.2920 H   0  0  0  0  0  0  0  0  0  0  0  0
   61.4794   30.0583   48.3088 H   0  0  0  0  0  0  0  0  0  0  0  0
   59.8214   30.2119   49.0168 H   0  0  0  0  0  0  0  0  0  0  0  0
   57.9127   29.4444   47.8819 H   0  0  0  0  0  0  0  0  0  0  0  0
   56.9721   28.0861   46.0126 H   0  0  0  0  0  0  0  0  0  0  0  0
   57.7731   26.0787   45.6894 H   0  0  0  0  0  0  0  0  0  0  0  0
   56.6099   25.4833   44.4569 H   0  0  0  0  0  0  0  0  0  0  0  0
   58.3034   24.8844   44.4569 H   0  0  0  0  0  0  0  0  0  0  0  0
   60.7545   28.3379   43.9221 H   0  0  0  0  0  0  0  0  0  0  0  0
   61.7007   29.6954   45.7909 H   0  0  0  0  0  0  0  0  0  0  0  0
   59.5450   32.2507   49.7399 H   0  0  0  0  0  0  0  0  0  0  0  0
   61.3299   32.5161   49.6892 H   0  0  0  0  0  0  0  0  0  0  0  0
   59.0807   34.3026   48.7331 H   0  0  0  0  0  0  0  0  0  0  0  0
   60.5770   34.6902   49.7009 H   0  0  0  0  0  0  0  0  0  0  0  0
   57.7478   34.1806   47.7640 H   0  0  0  0  0  0  0  0  0  0  0  0
   56.1842   32.4789   46.8431 H   0  0  0  0  0  0  0  0  0  0  0  0
  1  2  1  0
  2  3  1  0
  3  4  2  0
  4  5  1  0
  5  6  2  0
  6  7  1  0
  7  8  1  0
  8  9  1  0
  9 10  1  0
 10 11  1  0
 11 12  1  0
 12 13  1  0
 13 14  2  0
 14 15  1  0
 15 16  2  0
 16 17  1  0
 17 18  1  0
 16 19  1  0
 19 20  2  0
 11 21  1  0
 21 22  1  0
  6 23  1  0
 23 24  2  0
 24  3  1  0
 22  8  1  0
 20 13  1  0
  1 25  1  0
  1 26  1  0
  1 27  1  0
  4 28  1  0
  5 29  1  0
  7 30  1  0
  7 31  1  0
  9 32  1  0
  9 33  1  0
 10 34  1  0
 10 35  1  0
 11 36  1  0
 12 37  1  0
 12 38  1  0
 14 39  1  0
 15 40  1  0
 18 41  1  0
 18 42  1  0
 18 43  1  0
 19 44  1  0
 20 45  1  0
 21 46  1  0
 21 47  1  0
 22 48  1  0
 22 49  1  0
 23 50  1  0
 24 51  1  0
M  CHG  1  11   1
M  END
>  <UniqueID>  (14) 
13

>  <SMILES>  (14) 
COc1ccc(CN2CC[NH+](Cc3ccc(SC)cc3)CC2)cc1

>  <Energy>  (14) 
61.43036094725726

>  <Genealogy>  (14) 
COc1ccc(CN2CC[NH+](Cc3ccc(SC)cc3)CC2)cc1 (protonated)
COc1ccc(CN2CC[NH+](Cc3ccc(SC)cc3)CC2)cc1 (3D coordinates assigned)
COc1ccc(CN2CC[NH+](Cc3ccc(SC)cc3)CC2)cc1 (nonaromatic ring conformer: 61.43036094725726 kcal/mol)

>  <smiles>  (14) 
COc1ccc(CN2CCN(Cc3ccc(SC)cc3)CC2)cc1

>  <score_type>  (14) 
oracle

>  <origin>  (14) 
adg

>  <m_score__min__energy>  (14) 
-6.4100000000000001

>  <m_primary>  (14) 
energy

$$$$
14:0
     RDKit          3D

 27 28  0  0  0  0  0  0  0  0999 V2000
   60.3340   28.9720   45.3900 C   0  0  0  0  0  0  0  0  0  0  0  0
   59.3850   29.7280   46.3240 C   0  0  0  0  0  0  0  0  0  0  0  0
   59.1350   28.9590   47.6270 C   0  0  0  0  0  0  0  0  0  0  0  0
   58.1190   30.0630   45.6430 N   0  0  0  0  0  0  0  0  0  0  0  0
   57.6140   31.2970   45.3910 C   0  0  0  0  0  0  0  0  0  0  0  0
   58.3050   32.5790   45.6280 C   0  0  0  0  0  0  0  0  0  0  0  0
   58.2600   33.5840   44.6500 C   0  0  0  0  0  0  0  0  0  0  0  0
   58.9320   34.7870   44.8700 C   0  0  0  0  0  0  0  0  0  0  0  0
   59.6540   34.9730   46.0480 C   0  0  0  0  0  0  0  0  0  0  0  0
   59.6990   33.9450   46.9910 C   0  0  0  0  0  0  0  0  0  0  0  0
   59.0390   32.7760   46.7640 N   0  0  0  0  0  0  0  0  0  0  0  0
   56.3750   31.2300   44.8670 N   0  0  0  0  0  0  0  0  0  0  0  0
   56.0640   29.9480   44.7590 N   0  0  0  0  0  0  0  0  0  0  0  0
   57.1150   29.2510   45.2250 C   0  0  0  0  0  0  0  0  0  0  0  0
   57.1310   27.6140   45.2610 S   0  0  0  0  0  0  0  0  0  0  0  0
   61.0561   28.3968   45.9881 H   0  0  0  0  0  0  0  0  0  0  0  0
   59.7542   28.2856   44.7554 H   0  0  0  0  0  0  0  0  0  0  0  0
   60.8735   29.6905   44.7554 H   0  0  0  0  0  0  0  0  0  0  0  0
   59.8780   30.6728   46.5966 H   0  0  0  0  0  0  0  0  0  0  0  0
   59.3477   29.6132   48.4854 H   0  0  0  0  0  0  0  0  0  0  0  0
   58.0849   28.6338   47.6651 H   0  0  0  0  0  0  0  0  0  0  0  0
   59.7931   28.0784   47.6651 H   0  0  0  0  0  0  0  0  0  0  0  0
   57.6993   33.4249   43.7171 H   0  0  0  0  0  0  0  0  0  0  0  0
   58.8921   35.5867   44.1157 H   0  0  0  0  0  0  0  0  0  0  0  0
   60.1826   35.9199   46.2323 H   0  0  0  0  0  0  0  0  0  0  0  0
   60.2701   34.0798   47.9214 H   0  0  0  0  0  0  0  0  0  0  0  0
   59.1210   32.0130   47.4720 H   0  0  0  0  0  0  0  0  0  0  0  0
  1  2  1  0
  2  3  1  0
  2  4  1  0
  4  5  1  0
  5  6  1  0
  6  7  2  0
  7  8  1  0
  8  9  2  0
  9 10  1  0
 10 11  2  0
  5 12  2  0
 12 13  1  0
 13 14  1  0
 14 15  2  0
 14  4  1  0
 11  6  1  0
  1 16  1  0
  1 17  1  0
  1 18  1  0
  2 19  1  0
  3 20  1  0
  3 21  1  0
  3 22  1  0
  7 23  1  0
  8 24  1  0
  9 25  1  0
 10 26  1  0
 11 27  1  0
M  CHG  2  11   1  13  -1
M  END
>  <UniqueID>  (15) 
14

>  <SMILES>  (15) 
CC(C)n1c(-c2cccc[nH+]2)n[n-]c1=S

>  <Energy>  (15) 
66.1076312329234

>  <Genealogy>  (15) 
CC(C)n1c(-c2cccc[nH+]2)n[n-]c1=S (protonated)
CC(C)n1c(-c2cccc[nH+]2)n[n-]c1=S (3D coordinates assigned)
CC(C)n1c(-c2cccc[nH+]2)n[n-]c1=S (optimized conformer: 66.1076312329234 kcal/mol)

>  <smiles>  (15) 
CC(C)n1c(-c2ccccn2)n[nH]c1=S

>  <score_type>  (15) 
oracle

>  <origin>  (15) 
adg

>  <m_score__min__energy>  (15) 
-6.1500000000000004

>  <m_primary>  (15) 
energy

$$$$
15:0
     RDKit          3D

 45 47  0  0  0  0  0  0  0  0999 V2000
   59.6160   35.3420   45.6710 C   0  0  0  0  0  0  0  0  0  0  0  0
   58.7000   34.4790   44.8020 C   0  0  0  0  0  0  0  0  0  0  0  0
   57.3350   34.2110   45.4640 C   0  0  0  0  0  0  0  0  0  0  0  0
   57.4270   33.3620   46.7430 C   0  0  0  0  0  0  0  0  0  0  0  0
   58.4350   32.3060   46.6220 N   0  0  0  0  0  0  0  0  0  0  0  0
   59.6930   32.2670   47.1380 C   0  0  0  0  0  0  0  0  0  0  0  0
   60.3360   33.2290   47.9220 C   0  0  0  0  0  0  0  0  0  0  0  0
   61.6600   32.9780   48.3280 C   0  0  0  0  0  0  0  0  0  0  0  0
   62.3150   31.7860   47.9460 C   0  0  0  0  0  0  0  0  0  0  0  0
   61.6550   30.8310   47.1540 C   0  0  0  0  0  0  0  0  0  0  0  0
   60.3450   31.1040   46.7670 C   0  0  0  0  0  0  0  0  0  0  0  0
   59.4580   30.3920   45.9930 C   0  0  0  0  0  0  0  0  0  0  0  0
   59.5550   29.1730   45.3310 C   0  0  0  0  0  0  0  0  0  0  0  0
   58.4310   28.7410   44.5960 C   0  0  0  0  0  0  0  0  0  0  0  0
   58.4820   27.4420   43.8280 C   0  0  0  0  0  0  0  0  0  0  0  0
   57.6500   26.4000   44.4490 N   0  0  0  0  0  0  0  0  0  0  0  0
   57.7230   26.4410   45.9150 C   0  0  0  0  0  0  0  0  0  0  0  0
   56.4010   25.9730   46.5230 C   0  0  0  0  0  0  0  0  0  0  0  0
   55.3170   26.5940   45.8880 O   0  0  0  0  0  0  0  0  0  0  0  0
   57.2700   29.5580   44.5530 C   0  0  0  0  0  0  0  0  0  0  0  0
   57.2300   30.7500   45.2200 N   0  0  0  0  0  0  0  0  0  0  0  0
   58.3150   31.1510   45.9280 C   0  0  0  0  0  0  0  0  0  0  0  0
   59.4067   35.1448   46.7327 H   0  0  0  0  0  0  0  0  0  0  0  0
   60.6660   35.0972   45.4526 H   0  0  0  0  0  0  0  0  0  0  0  0
   59.4342   36.4047   45.4526 H   0  0  0  0  0  0  0  0  0  0  0  0
   58.5322   34.9959   43.8456 H   0  0  0  0  0  0  0  0  0  0  0  0
   59.1962   33.5081   44.6570 H   0  0  0  0  0  0  0  0  0  0  0  0
   56.8772   35.1777   45.7205 H   0  0  0  0  0  0  0  0  0  0  0  0
   56.7324   33.6412   44.7413 H   0  0  0  0  0  0  0  0  0  0  0  0
   57.6952   34.0157   47.5861 H   0  0  0  0  0  0  0  0  0  0  0  0
   56.4496   32.8852   46.9087 H   0  0  0  0  0  0  0  0  0  0  0  0
   59.8215   34.1565   48.2136 H   0  0  0  0  0  0  0  0  0  0  0  0
   62.1894   33.7164   48.9481 H   0  0  0  0  0  0  0  0  0  0  0  0
   63.3500   31.6039   48.2711 H   0  0  0  0  0  0  0  0  0  0  0  0
   62.1557   29.8999   46.8501 H   0  0  0  0  0  0  0  0  0  0  0  0
   60.4729   28.5687   45.3786 H   0  0  0  0  0  0  0  0  0  0  0  0
   58.1215   27.6207   42.8042 H   0  0  0  0  0  0  0  0  0  0  0  0
   59.5238   27.0888   43.8279 H   0  0  0  0  0  0  0  0  0  0  0  0
   56.6540   26.5330   44.1530 H   0  0  0  0  0  0  0  0  0  0  0  0
   58.5339   25.7811   46.2570 H   0  0  0  0  0  0  0  0  0  0  0  0
   57.9193   27.4747   46.2357 H   0  0  0  0  0  0  0  0  0  0  0  0
   56.3140   24.8831   46.4028 H   0  0  0  0  0  0  0  0  0  0  0  0
   56.3874   26.2413   47.5897 H   0  0  0  0  0  0  0  0  0  0  0  0
   55.5600   26.6760   44.9280 H   0  0  0  0  0  0  0  0  0  0  0  0
   56.3934   29.2276   43.9765 H   0  0  0  0  0  0  0  0  0  0  0  0
  1  2  1  0
  2  3  1  0
  3  4  1  0
  4  5  1  0
  5  6  1  0
  6  7  2  0
  7  8  1  0
  8  9  2  0
  9 10  1  0
 10 11  2  0
 11 12  1  0
 12 13  2  0
 13 14  1  0
 14 15  1  0
 15 16  1  0
 16 17  1  0
 17 18  1  0
 18 19  1  0
 14 20  2  0
 20 21  1  0
 21 22  2  0
 22  5  1  0
 11  6  1  0
 22 12  1  0
  1 23  1  0
  1 24  1  0
  1 25  1  0
  2 26  1  0
  2 27  1  0
  3 28  1  0
  3 29  1  0
  4 30  1  0
  4 31  1  0
  7 32  1  0
  8 33  1  0
  9 34  1  0
 10 35  1  0
 13 36  1  0
 15 37  1  0
 15 38  1  0
 16 39  1  0
 17 40  1  0
 17 41  1  0
 18 42  1  0
 18 43  1  0
 19 44  1  0
 20 45  1  0
M  END
>  <UniqueID>  (16) 
15

>  <SMILES>  (16) 
CCCCn1c2ccccc2c2cc(CNCCO)cnc21

>  <Energy>  (16) 
81.31022972353821

>  <Genealogy>  (16) 
CCCCn1c2ccccc2c2cc(CNCCO)cnc21 (3D coordinates assigned)
CCCCn1c2ccccc2c2cc(CNCCO)cnc21 (optimized conformer: 81.31022972353821 kcal/mol)

>  <smiles>  (16) 
CCCCn1c2ccccc2c2cc(CNCCO)cnc21

>  <score_type>  (16) 
oracle

>  <origin>  (16) 
adg

>  <m_score__min__energy>  (16) 
-7.9199999999999999

>  <m_primary>  (16) 
energy

$$$$
16:0
     RDKit          3D

 29 30  0  0  0  0  0  0  0  0999 V2000
   57.0750   30.3370   43.8070 C   0  0  0  0  0  0  0  0  0  0  0  0
   57.7320   31.4900   44.5050 C   0  0  0  0  0  0  0  0  0  0  0  0
   58.1450   31.3660   45.8420 C   0  0  0  0  0  0  0  0  0  0  0  0
   58.7240   32.4530   46.5030 C   0  0  0  0  0  0  0  0  0  0  0  0
   58.8930   33.6730   45.8380 C   0  0  0  0  0  0  0  0  0  0  0  0
   59.6370   35.0660   46.6900 S   0  0  0  0  0  0  0  0  0  0  0  0
   61.0460   34.1060   47.2720 C   0  0  0  0  0  0  0  0  0  0  0  0
   62.0860   33.8420   46.3690 C   0  0  0  0  0  0  0  0  0  0  0  0
   63.2080   33.1170   46.7740 C   0  0  0  0  0  0  0  0  0  0  0  0
   63.2990   32.6450   48.0830 C   0  0  0  0  0  0  0  0  0  0  0  0
   62.2640   32.8880   48.9890 C   0  0  0  0  0  0  0  0  0  0  0  0
   61.1190   33.6010   48.5910 C   0  0  0  0  0  0  0  0  0  0  0  0
   60.0330   33.8540   49.6000 C   0  0  0  0  0  0  0  0  0  0  0  0
   58.4540   33.8100   44.5160 C   0  0  0  0  0  0  0  0  0  0  0  0
   57.8740   32.7250   43.8530 C   0  0  0  0  0  0  0  0  0  0  0  0
   56.6753   29.6356   44.5542 H   0  0  0  0  0  0  0  0  0  0  0  0
   56.2535   30.7094   43.1774 H   0  0  0  0  0  0  0  0  0  0  0  0
   57.8142   29.8201   43.1774 H   0  0  0  0  0  0  0  0  0  0  0  0
   58.0123   30.4104   46.3704 H   0  0  0  0  0  0  0  0  0  0  0  0
   59.0479   32.3493   47.5491 H   0  0  0  0  0  0  0  0  0  0  0  0
   62.0171   34.2088   45.3343 H   0  0  0  0  0  0  0  0  0  0  0  0
   64.0209   32.9179   46.0601 H   0  0  0  0  0  0  0  0  0  0  0  0
   64.1873   32.0804   48.4026 H   0  0  0  0  0  0  0  0  0  0  0  0
   62.3452   32.5187   50.0220 H   0  0  0  0  0  0  0  0  0  0  0  0
   60.4459   33.7578   50.6150 H   0  0  0  0  0  0  0  0  0  0  0  0
   59.6331   34.8693   49.4615 H   0  0  0  0  0  0  0  0  0  0  0  0
   59.2256   33.1199   49.4615 H   0  0  0  0  0  0  0  0  0  0  0  0
   58.5658   34.7738   43.9977 H   0  0  0  0  0  0  0  0  0  0  0  0
   57.5271   32.8393   42.8154 H   0  0  0  0  0  0  0  0  0  0  0  0
  1  2  1  0
  2  3  2  0
  3  4  1  0
  4  5  2  0
  5  6  1  0
  6  7  1  0
  7  8  2  0
  8  9  1  0
  9 10  2  0
 10 11  1  0
 11 12  2  0
 12 13  1  0
  5 14  1  0
 14 15  2  0
 15  2  1  0
 12  7  1  0
  1 16  1  0
  1 17  1  0
  1 18  1  0
  3 19  1  0
  4 20  1  0
  8 21  1  0
  9 22  1  0
 10 23  1  0
 11 24  1  0
 13 25  1  0
 13 26  1  0
 13 27  1  0
 14 28  1  0
 15 29  1  0
M  END
>  <UniqueID>  (17) 
16

>  <SMILES>  (17) 
Cc1ccc(Sc2ccccc2C)cc1

>  <Energy>  (17) 
24.70787092384866

>  <Genealogy>  (17) 
Cc1ccc(Sc2ccccc2C)cc1 (3D coordinates assigned)
Cc1ccc(Sc2ccccc2C)cc1 (optimized conformer: 24.70787092384866 kcal/mol)

>  <smiles>  (17) 
Cc1ccc(Sc2ccccc2C)cc1

>  <score_type>  (17) 
oracle

>  <origin>  (17) 
adg

>  <m_score__min__energy>  (17) 
-6.4100000000000001

>  <m_primary>  (17) 
energy

$$$$
17:0
     RDKit          3D

 39 40  0  0  0  0  0  0  0  0999 V2000
   58.4350   32.3480   41.5780 C   0  0  0  0  0  0  0  0  0  0  0  0
   57.0240   31.9290   41.9550 C   0  0  0  0  0  0  0  0  0  0  0  0
   57.1380   31.2710   43.2420 N   0  0  0  0  0  0  0  0  0  0  0  0
   57.7750   31.9590   44.2860 C   0  0  0  0  0  0  0  0  0  0  0  0
   58.7180   31.2840   45.0280 C   0  0  0  0  0  0  0  0  0  0  0  0
   59.3310   31.9700   46.0460 C   0  0  0  0  0  0  0  0  0  0  0  0
   59.0260   33.3120   46.3370 C   0  0  0  0  0  0  0  0  0  0  0  0
   59.6080   33.9390   47.2900 O   0  0  0  0  0  0  0  0  0  0  0  0
   60.1980   34.5780   48.2610 C   0  0  0  0  0  0  0  0  0  0  0  0
   61.6130   34.1250   48.5830 C   0  0  0  0  0  0  0  0  0  0  0  0
   62.4170   33.5870   47.5900 C   0  0  0  0  0  0  0  0  0  0  0  0
   63.7060   33.1650   47.8360 C   0  0  0  0  0  0  0  0  0  0  0  0
   64.1630   33.3090   49.1480 C   0  0  0  0  0  0  0  0  0  0  0  0
   63.3690   33.8440   50.1450 C   0  0  0  0  0  0  0  0  0  0  0  0
   62.1250   34.2260   49.8010 N   0  0  0  0  0  0  0  0  0  0  0  0
   58.0530   33.9320   45.5340 C   0  0  0  0  0  0  0  0  0  0  0  0
   57.4210   33.2720   44.5090 C   0  0  0  0  0  0  0  0  0  0  0  0
   56.5250   29.6820   43.5390 S   0  0  0  0  0  0  0  0  0  0  0  0
   57.8270   28.5600   43.9830 C   0  0  0  0  0  0  0  0  0  0  0  0
   55.8940   29.1390   42.2740 O   0  0  0  0  0  0  0  0  0  0  0  0
   55.4440   29.7510   44.5620 O   0  0  0  0  0  0  0  0  0  0  0  0
   59.0222   32.5224   42.4917 H   0  0  0  0  0  0  0  0  0  0  0  0
   58.9078   31.5515   40.9847 H   0  0  0  0  0  0  0  0  0  0  0  0
   58.3965   33.2735   40.9847 H   0  0  0  0  0  0  0  0  0  0  0  0
   56.3703   32.8104   42.0320 H   0  0  0  0  0  0  0  0  0  0  0  0
   56.5832   31.2639   41.1978 H   0  0  0  0  0  0  0  0  0  0  0  0
   58.9703   30.2351   44.8130 H   0  0  0  0  0  0  0  0  0  0  0  0
   60.0868   31.4528   46.6554 H   0  0  0  0  0  0  0  0  0  0  0  0
   60.2374   35.6433   47.9899 H   0  0  0  0  0  0  0  0  0  0  0  0
   59.6034   34.3694   49.1627 H   0  0  0  0  0  0  0  0  0  0  0  0
   62.0126   33.4937   46.5713 H   0  0  0  0  0  0  0  0  0  0  0  0
   64.3390   32.7389   47.0437 H   0  0  0  0  0  0  0  0  0  0  0  0
   65.1854   32.9870   49.3952 H   0  0  0  0  0  0  0  0  0  0  0  0
   63.7380   33.9529   51.1755 H   0  0  0  0  0  0  0  0  0  0  0  0
   57.7890   34.9811   45.7334 H   0  0  0  0  0  0  0  0  0  0  0  0
   56.6616   33.7720   43.8899 H   0  0  0  0  0  0  0  0  0  0  0  0
   57.8994   28.4976   45.0788 H   0  0  0  0  0  0  0  0  0  0  0  0
   57.6079   27.5632   43.5726 H   0  0  0  0  0  0  0  0  0  0  0  0
   58.7805   28.9239   43.5726 H   0  0  0  0  0  0  0  0  0  0  0  0
  1  2  1  0
  2  3  1  0
  3  4  1  0
  4  5  2  0
  5  6  1  0
  6  7  2  0
  7  8  1  0
  8  9  1  0
  9 10  1  0
 10 11  2  0
 11 12  1  0
 12 13  2  0
 13 14  1  0
 14 15  2  0
  7 16  1  0
 16 17  2  0
  3 18  1  0
 18 19  1  0
 18 20  2  0
 18 21  2  0
 17  4  1  0
 15 10  1  0
  1 22  1  0
  1 23  1  0
  1 24  1  0
  2 25  1  0
  2 26  1  0
  5 27  1  0
  6 28  1  0
  9 29  1  0
  9 30  1  0
 11 31  1  0
 12 32  1  0
 13 33  1  0
 14 34  1  0
 16 35  1  0
 17 36  1  0
 19 37  1  0
 19 38  1  0
 19 39  1  0
M  END
>  <UniqueID>  (18) 
17

>  <SMILES>  (18) 
CCN(c1ccc(OCc2ccccn2)cc1)S(C)(=O)=O

>  <Energy>  (18) 
129.72997796668443

>  <Genealogy>  (18) 
CCN(c1ccc(OCc2ccccn2)cc1)S(C)(=O)=O (3D coordinates assigned)
CCN(c1ccc(OCc2ccccn2)cc1)S(C)(=O)=O (optimized conformer: 129.72997796668443 kcal/mol)

>  <smiles>  (18) 
CCN(c1ccc(OCc2ccccn2)cc1)S(C)(=O)=O

>  <score_type>  (18) 
oracle

>  <origin>  (18) 
adg

>  <m_score__min__energy>  (18) 
-6.8099999999999996

>  <m_primary>  (18) 
energy

$$$$
18:0
     RDKit          3D

 56 59  0  0  0  0  0  0  0  0999 V2000
   63.9010   32.8960   47.5320 C   0  0  0  0  0  0  0  0  0  0  0  0
   62.7250   32.7790   48.5430 C   0  0  1  0  0  0  0  0  0  0  0  0
   63.1610   31.7160   49.6270 C   0  0  0  0  0  0  0  0  0  0  0  0
   62.6680   31.9520   51.0690 C   0  0  2  0  0  0  0  0  0  0  0  0
   60.9730   31.4330   51.2860 Cl  0  0  0  0  0  0  0  0  0  0  0  0
   62.8510   33.3800   51.4940 C   0  0  0  0  0  0  0  0  0  0  0  0
   62.7080   33.6900   52.6670 O   0  0  0  0  0  0  0  0  0  0  0  0
   63.2560   34.4200   50.4890 C   0  0  0  0  0  0  0  0  0  0  0  0
   62.4760   34.2190   49.1770 C   0  0  2  0  0  0  0  0  0  0  0  0
   60.9720   34.5690   49.3910 C   0  0  0  0  0  0  0  0  0  0  0  0
   60.1160   34.4660   48.1100 C   0  0  0  0  0  0  0  0  0  0  0  0
   60.7300   33.5060   47.0760 C   0  0  1  0  0  0  0  0  0  0  0  0
   61.4210   32.3020   47.7930 C   0  0  1  0  0  0  0  0  0  0  0  0
   61.5800   31.1010   46.8170 C   0  0  0  0  0  0  0  0  0  0  0  0
   60.2080   30.5660   46.3120 C   0  0  0  0  0  0  0  0  0  0  0  0
   59.1080   31.6710   46.1660 C   0  0  2  0  0  0  0  0  0  0  0  0
   58.1500   31.6620   47.3990 C   0  0  0  0  0  0  0  0  0  0  0  0
   58.2700   31.5740   44.8640 C   0  0  1  0  0  0  0  0  0  0  0  0
   57.2270   30.4640   44.8620 C   0  0  0  0  0  0  0  0  0  0  0  0
   56.0890   30.7400   44.5120 O   0  0  0  0  0  0  0  0  0  0  0  0
   57.5170   29.0540   45.3000 C   0  0  0  0  0  0  0  0  0  0  0  0
   56.3460   28.2890   45.2330 O   0  0  0  0  0  0  0  0  0  0  0  0
   57.7520   33.0180   44.6260 C   0  0  0  0  0  0  0  0  0  0  0  0
   58.6990   33.9560   45.3980 C   0  0  0  0  0  0  0  0  0  0  0  0
   59.7830   33.0320   45.9390 C   0  0  1  0  0  0  0  0  0  0  0  0
   64.8491   32.9903   48.0817 H   0  0  0  0  0  0  0  0  0  0  0  0
   63.9317   31.9965   46.8996 H   0  0  0  0  0  0  0  0  0  0  0  0
   63.7539   33.7839   46.8996 H   0  0  0  0  0  0  0  0  0  0  0  0
   62.7832   30.7353   49.3023 H   0  0  0  0  0  0  0  0  0  0  0  0
   64.2570   31.7925   49.6811 H   0  0  0  0  0  0  0  0  0  0  0  0
   63.2934   31.3263   51.7227 H   0  0  0  0  0  0  0  0  0  0  0  0
   63.0383   35.4200   50.8922 H   0  0  0  0  0  0  0  0  0  0  0  0
   64.3329   34.3248   50.2861 H   0  0  0  0  0  0  0  0  0  0  0  0
   62.8613   34.9198   48.4218 H   0  0  0  0  0  0  0  0  0  0  0  0
   60.5588   33.8773   50.1399 H   0  0  0  0  0  0  0  0  0  0  0  0
   60.9323   35.6187   49.7174 H   0  0  0  0  0  0  0  0  0  0  0  0
   59.1146   34.1007   48.3816 H   0  0  0  0  0  0  0  0  0  0  0  0
   60.0676   35.4663   47.6550 H   0  0  0  0  0  0  0  0  0  0  0  0
   61.4831   34.1069   46.5452 H   0  0  0  0  0  0  0  0  0  0  0  0
   60.7818   31.9065   48.5962 H   0  0  0  0  0  0  0  0  0  0  0  0
   62.1741   31.4257   45.9501 H   0  0  0  0  0  0  0  0  0  0  0  0
   62.0790   30.2868   47.3630 H   0  0  0  0  0  0  0  0  0  0  0  0
   60.3603   30.0974   45.3285 H   0  0  0  0  0  0  0  0  0  0  0  0
   59.8458   29.8545   47.0687 H   0  0  0  0  0  0  0  0  0  0  0  0
   58.7439   31.6676   48.3248 H   0  0  0  0  0  0  0  0  0  0  0  0
   57.5072   32.5541   47.3704 H   0  0  0  0  0  0  0  0  0  0  0  0
   57.5240   30.7579   47.3704 H   0  0  0  0  0  0  0  0  0  0  0  0
   58.8707   31.2425   44.0042 H   0  0  0  0  0  0  0  0  0  0  0  0
   58.2789   28.6151   44.6390 H   0  0  0  0  0  0  0  0  0  0  0  0
   57.8876   29.0631   46.3356 H   0  0  0  0  0  0  0  0  0  0  0  0
   55.8940   28.5510   44.3890 H   0  0  0  0  0  0  0  0  0  0  0  0
   57.7727   33.2569   43.5524 H   0  0  0  0  0  0  0  0  0  0  0  0
   56.7135   33.1297   44.9711 H   0  0  0  0  0  0  0  0  0  0  0  0
   59.1310   34.7127   44.7266 H   0  0  0  0  0  0  0  0  0  0  0  0
   58.1834   34.5118   46.1950 H   0  0  0  0  0  0  0  0  0  0  0  0
   60.5726   32.9949   45.1741 H   0  0  0  0  0  0  0  0  0  0  0  0
  2  1  1  6
  2  3  1  0
  3  4  1  0
  4  5  1  0
  4  6  1  0
  6  7  2  0
  6  8  1  0
  8  9  1  0
  9 10  1  0
 10 11  1  0
 11 12  1  0
 12 13  1  0
 13 14  1  0
 14 15  1  0
 15 16  1  0
 16 17  1  1
 16 18  1  0
 18 19  1  0
 19 20  2  0
 19 21  1  0
 21 22  1  0
 18 23  1  0
 23 24  1  0
 24 25  1  0
  9  2  1  0
 25 12  1  0
 13  2  1  0
 25 16  1  0
  1 26  1  0
  1 27  1  0
  1 28  1  0
  3 29  1  0
  3 30  1  0
  4 31  1  1
  8 32  1  0
  8 33  1  0
  9 34  1  6
 10 35  1  0
 10 36  1  0
 11 37  1  0
 11 38  1  0
 12 39  1  6
 13 40  1  1
 14 41  1  0
 14 42  1  0
 15 43  1  0
 15 44  1  0
 17 45  1  0
 17 46  1  0
 17 47  1  0
 18 48  1  6
 21 49  1  0
 21 50  1  0
 22 51  1  0
 23 52  1  0
 23 53  1  0
 24 54  1  0
 24 55  1  0
 25 56  1  6
M  END
>  <UniqueID>  (19) 
18

>  <SMILES>  (19) 
CC12CCC3C(CCC4CC(=O)[C@@H](Cl)C[C@]43C)C1CCC2C(=O)CO

>  <Energy>  (19) 
94.84761128290178

>  <Genealogy>  (19) 
CC12CCC3C(CCC4CC(=O)[C@@H](Cl)C[C@]43C)C1CCC2C(=O)CO (chirality)
CC12CCC3C(CCC4CC(=O)[C@@H](Cl)C[C@]43C)C1CCC2C(=O)CO (3D coordinates assigned)
CC12CCC3C(CCC4CC(=O)[C@@H](Cl)C[C@]43C)C1CCC2C(=O)CO (nonaromatic ring conformer: 94.84761128290178 kcal/mol)

>  <smiles>  (19) 
CC12CC(Cl)C(=O)CC1CCC1C2CCC2(C)C(C(=O)CO)CCC12

>  <score_type>  (19) 
oracle

>  <origin>  (19) 
adg

>  <m_score__min__energy>  (19) 
-9.2899999999999991

>  <m_primary>  (19) 
energy

$$$$
19:0
     RDKit          3D

 44 46  0  0  0  0  0  0  0  0999 V2000
   59.7340   34.9810   47.3370 C   0  0  0  0  0  0  0  0  0  0  0  0
   60.0540   34.0810   46.2810 O   0  0  0  0  0  0  0  0  0  0  0  0
   59.1720   33.1230   45.7540 C   0  0  0  0  0  0  0  0  0  0  0  0
   58.2590   33.4440   44.7330 C   0  0  0  0  0  0  0  0  0  0  0  0
   57.3970   32.4740   44.2190 C   0  0  0  0  0  0  0  0  0  0  0  0
   57.4270   31.1560   44.7050 C   0  0  0  0  0  0  0  0  0  0  0  0
   56.5010   30.1360   44.1440 C   0  0  0  0  0  0  0  0  0  0  0  0
   56.6190   29.6510   42.7290 C   0  0  0  0  0  0  0  0  0  0  0  0
   55.5850   29.6570   44.8660 O   0  0  0  0  0  0  0  0  0  0  0  0
   58.3430   30.8350   45.7240 C   0  0  0  0  0  0  0  0  0  0  0  0
   59.2040   31.8070   46.2610 C   0  0  0  0  0  0  0  0  0  0  0  0
   60.1640   31.4200   47.3730 C   0  0  0  0  0  0  0  0  0  0  0  0
   59.8750   32.0760   48.6690 N   0  0  0  0  0  0  0  0  0  0  0  0
   61.0200   32.0380   49.6110 C   0  0  0  0  0  0  0  0  0  0  0  0
   60.8040   33.0320   50.7730 C   0  0  0  0  0  0  0  0  0  0  0  0
   59.3980   32.9180   51.2790 C   0  0  0  0  0  0  0  0  0  0  0  0
   58.3920   32.3190   50.5750 C   0  0  0  0  0  0  0  0  0  0  0  0
   57.2550   32.3680   51.2930 N   0  0  0  0  0  0  0  0  0  0  0  0
   57.5880   33.0360   52.4210 C   0  0  0  0  0  0  0  0  0  0  0  0
   58.8900   33.4020   52.4270 N   0  0  0  0  0  0  0  0  0  0  0  0
   59.6100   34.0650   53.5090 C   0  0  0  0  0  0  0  0  0  0  0  0
   58.6200   31.5900   49.2910 C   0  0  0  0  0  0  0  0  0  0  0  0
   59.9093   34.4881   48.3046 H   0  0  0  0  0  0  0  0  0  0  0  0
   60.3690   35.8760   47.2611 H   0  0  0  0  0  0  0  0  0  0  0  0
   58.6765   35.2742   47.2611 H   0  0  0  0  0  0  0  0  0  0  0  0
   58.2241   34.4692   44.3360 H   0  0  0  0  0  0  0  0  0  0  0  0
   56.6861   32.7445   43.4244 H   0  0  0  0  0  0  0  0  0  0  0  0
   56.8790   28.5822   42.7282 H   0  0  0  0  0  0  0  0  0  0  0  0
   55.6595   29.7953   42.2107 H   0  0  0  0  0  0  0  0  0  0  0  0
   57.4049   30.2200   42.2107 H   0  0  0  0  0  0  0  0  0  0  0  0
   58.3857   29.8047   46.1070 H   0  0  0  0  0  0  0  0  0  0  0  0
   60.1080   30.3307   47.5158 H   0  0  0  0  0  0  0  0  0  0  0  0
   61.1650   31.7535   47.0619 H   0  0  0  0  0  0  0  0  0  0  0  0
   61.1183   31.0212   50.0191 H   0  0  0  0  0  0  0  0  0  0  0  0
   61.9339   32.3214   49.0684 H   0  0  0  0  0  0  0  0  0  0  0  0
   61.5059   32.8005   51.5877 H   0  0  0  0  0  0  0  0  0  0  0  0
   60.9805   34.0567   50.4140 H   0  0  0  0  0  0  0  0  0  0  0  0
   56.3270   31.9570   51.0490 H   0  0  0  0  0  0  0  0  0  0  0  0
   56.8834   33.2555   53.2367 H   0  0  0  0  0  0  0  0  0  0  0  0
   59.2252   33.7106   54.4766 H   0  0  0  0  0  0  0  0  0  0  0  0
   60.6822   33.8314   53.4331 H   0  0  0  0  0  0  0  0  0  0  0  0
   59.4654   35.1528   53.4331 H   0  0  0  0  0  0  0  0  0  0  0  0
   58.7022   30.5113   49.4902 H   0  0  0  0  0  0  0  0  0  0  0  0
   57.7761   31.7710   48.6091 H   0  0  0  0  0  0  0  0  0  0  0  0
  1  2  1  0
  2  3  1  0
  3  4  2  0
  4  5  1  0
  5  6  2  0
  6  7  1  0
  7  8  1  0
  7  9  2  0
  6 10  1  0
 10 11  2  0
 11 12  1  0
 12 13  1  0
 13 14  1  0
 14 15  1  0
 15 16  1  0
 16 17  2  0
 17 18  1  0
 18 19  2  0
 19 20  1  0
 20 21  1  0
 17 22  1  0
 11  3  1  0
 22 13  1  0
 20 16  1  0
  1 23  1  0
  1 24  1  0
  1 25  1  0
  4 26  1  0
  5 27  1  0
  8 28  1  0
  8 29  1  0
  8 30  1  0
 10 31  1  0
 12 32  1  0
 12 33  1  0
 14 34  1  0
 14 35  1  0
 15 36  1  0
 15 37  1  0
 18 38  1  0
 19 39  1  0
 21 40  1  0
 21 41  1  0
 21 42  1  0
 22 43  1  0
 22 44  1  0
M  CHG  1  18   1
M  END
>  <UniqueID>  (20) 
19

>  <SMILES>  (20) 
COc1ccc(C(C)=O)cc1CN1CCc2c([nH+]cn2C)C1

>  <Energy>  (20) 
82.09236621118224

>  <Genealogy>  (20) 
COc1ccc(C(C)=O)cc1CN1CCc2c([nH+]cn2C)C1 (protonated)
COc1ccc(C(C)=O)cc1CN1CCc2c([nH+]cn2C)C1 (3D coordinates assigned)
COc1ccc(C(C)=O)cc1CN1CCc2c([nH+]cn2C)C1 (nonaromatic ring conformer: 82.09236621118224 kcal/mol)

>  <smiles>  (20) 
COc1ccc(C(C)=O)cc1CN1CCc2c(ncn2C)C1

>  <score_type>  (20) 
oracle

>  <origin>  (20) 
adg

>  <m_score__min__energy>  (20) 
-6.2199999999999998

>  <m_primary>  (20) 
energy

$$$$
20:0
     RDKit          3D

 47 48  0  0  0  0  0  0  0  0999 V2000
   55.8620   29.7340   43.4730 C   0  0  0  0  0  0  0  0  0  0  0  0
   56.1390   29.7550   44.8690 O   0  0  0  0  0  0  0  0  0  0  0  0
   57.3830   29.4410   45.4400 C   0  0  0  0  0  0  0  0  0  0  0  0
   57.7790   28.1080   45.6710 C   0  0  0  0  0  0  0  0  0  0  0  0
   59.0220   27.8270   46.2460 C   0  0  0  0  0  0  0  0  0  0  0  0
   59.5020   26.1640   46.5270 Cl  0  0  0  0  0  0  0  0  0  0  0  0
   59.8800   28.8700   46.5970 C   0  0  0  0  0  0  0  0  0  0  0  0
   59.5010   30.1950   46.3720 C   0  0  0  0  0  0  0  0  0  0  0  0
   58.2580   30.4880   45.7890 C   0  0  0  0  0  0  0  0  0  0  0  0
   57.8090   32.1700   45.4860 S   0  0  0  0  0  0  0  0  0  0  0  0
   58.7960   32.7530   44.5130 O   0  0  0  0  0  0  0  0  0  0  0  0
   56.4390   32.2400   44.8730 O   0  0  0  0  0  0  0  0  0  0  0  0
   57.8800   33.0860   46.9710 N   0  0  0  0  0  0  0  0  0  0  0  0
   59.2020   33.2140   47.6120 C   0  0  0  0  0  0  0  0  0  0  0  0
   59.3620   32.2870   48.8190 C   0  0  0  0  0  0  0  0  0  0  0  0
   60.5950   32.7120   49.6680 C   0  0  0  0  0  0  0  0  0  0  0  0
   60.1520   33.7630   50.7070 C   0  0  0  0  0  0  0  0  0  0  0  0
   61.1430   31.4930   50.4480 C   0  0  0  0  0  0  0  0  0  0  0  0
   61.6590   33.3410   48.8380 N   0  0  0  0  0  0  0  0  0  0  0  0
   61.7700   32.9560   47.4070 C   0  0  0  0  0  0  0  0  0  0  0  0
   62.3330   31.5210   47.2670 C   0  0  0  0  0  0  0  0  0  0  0  0
   62.7790   33.9190   46.7480 C   0  0  0  0  0  0  0  0  0  0  0  0
   60.4000   33.0800   46.6540 C   0  0  0  0  0  0  0  0  0  0  0  0
   54.7764   29.6517   43.3158 H   0  0  0  0  0  0  0  0  0  0  0  0
   56.2299   30.6626   43.0122 H   0  0  0  0  0  0  0  0  0  0  0  0
   56.3657   28.8715   43.0122 H   0  0  0  0  0  0  0  0  0  0  0  0
   57.1051   27.2829   45.3969 H   0  0  0  0  0  0  0  0  0  0  0  0
   60.8567   28.6480   47.0518 H   0  0  0  0  0  0  0  0  0  0  0  0
   60.1800   31.0135   46.6531 H   0  0  0  0  0  0  0  0  0  0  0  0
   59.2204   34.2541   47.9696 H   0  0  0  0  0  0  0  0  0  0  0  0
   58.4567   32.3423   49.4413 H   0  0  0  0  0  0  0  0  0  0  0  0
   59.5119   31.2575   48.4616 H   0  0  0  0  0  0  0  0  0  0  0  0
   60.3180   33.3692   51.7206 H   0  0  0  0  0  0  0  0  0  0  0  0
   60.7387   34.6834   50.5706 H   0  0  0  0  0  0  0  0  0  0  0  0
   59.0835   33.9857   50.5706 H   0  0  0  0  0  0  0  0  0  0  0  0
   61.0585   31.6809   51.5285 H   0  0  0  0  0  0  0  0  0  0  0  0
   60.5608   30.5975   50.1850 H   0  0  0  0  0  0  0  0  0  0  0  0
   62.1992   31.3340   50.1850 H   0  0  0  0  0  0  0  0  0  0  0  0
   62.5910   33.2690   49.3130 H   0  0  0  0  0  0  0  0  0  0  0  0
   62.5006   31.0937   48.2667 H   0  0  0  0  0  0  0  0  0  0  0  0
   61.6131   30.8967   46.7174 H   0  0  0  0  0  0  0  0  0  0  0  0
   63.2853   31.5528   46.7174 H   0  0  0  0  0  0  0  0  0  0  0  0
   63.3393   34.4538   47.5291 H   0  0  0  0  0  0  0  0  0  0  0  0
   63.4787   33.3452   46.1225 H   0  0  0  0  0  0  0  0  0  0  0  0
   62.2385   34.6447   46.1225 H   0  0  0  0  0  0  0  0  0  0  0  0
   60.4338   33.9691   46.0072 H   0  0  0  0  0  0  0  0  0  0  0  0
   60.2572   32.1572   46.0725 H   0  0  0  0  0  0  0  0  0  0  0  0
  1  2  1  0
  2  3  1  0
  3  4  2  0
  4  5  1  0
  5  6  1  0
  5  7  2  0
  7  8  1  0
  8  9  2  0
  9 10  1  0
 10 11  2  0
 10 12  2  0
 10 13  1  0
 13 14  1  0
 14 15  1  0
 15 16  1  0
 16 17  1  0
 16 18  1  0
 16 19  1  0
 19 20  1  0
 20 21  1  0
 20 22  1  0
 20 23  1  0
  9  3  1  0
 23 14  1  0
  1 24  1  0
  1 25  1  0
  1 26  1  0
  4 27  1  0
  7 28  1  0
  8 29  1  0
 14 30  1  0
 15 31  1  0
 15 32  1  0
 17 33  1  0
 17 34  1  0
 17 35  1  0
 18 36  1  0
 18 37  1  0
 18 38  1  0
 19 39  1  0
 21 40  1  0
 21 41  1  0
 21 42  1  0
 22 43  1  0
 22 44  1  0
 22 45  1  0
 23 46  1  0
 23 47  1  0
M  CHG  1  13  -1
M  END
>  <UniqueID>  (21) 
20

>  <SMILES>  (21) 
COc1cc(Cl)ccc1S(=O)(=O)[N-]C1CC(C)(C)NC(C)(C)C1

>  <Energy>  (21) 
58.81942538585239

>  <Genealogy>  (21) 
COc1cc(Cl)ccc1S(=O)(=O)[N-]C1CC(C)(C)NC(C)(C)C1 (protonated)
COc1cc(Cl)ccc1S(=O)(=O)[N-]C1CC(C)(C)NC(C)(C)C1 (3D coordinates assigned)
COc1cc(Cl)ccc1S(=O)(=O)[N-]C1CC(C)(C)NC(C)(C)C1 (nonaromatic ring conformer: 58.81942538585239 kcal/mol)

>  <smiles>  (21) 
COc1cc(Cl)ccc1S(=O)(=O)NC1CC(C)(C)NC(C)(C)C1

>  <score_type>  (21) 
oracle

>  <origin>  (21) 
adg

>  <m_score__min__energy>  (21) 
-9.75

>  <m_primary>  (21) 
energy

$$$$
21:0
     RDKit          3D

 43 45  0  0  0  0  0  0  0  0999 V2000
   55.1510   29.7330   43.7430 C   0  0  0  0  0  0  0  0  0  0  0  0
   55.7500   29.2180   44.9270 O   0  0  0  0  0  0  0  0  0  0  0  0
   57.1040   28.8700   45.0510 C   0  0  0  0  0  0  0  0  0  0  0  0
   57.5500   27.5480   44.8460 C   0  0  0  0  0  0  0  0  0  0  0  0
   58.8920   27.2140   45.0410 C   0  0  0  0  0  0  0  0  0  0  0  0
   59.8020   28.1890   45.4510 C   0  0  0  0  0  0  0  0  0  0  0  0
   59.3770   29.5030   45.6490 C   0  0  0  0  0  0  0  0  0  0  0  0
   58.0410   29.8600   45.4230 C   0  0  0  0  0  0  0  0  0  0  0  0
   57.6530   31.2230   45.6410 N   0  0  0  0  0  0  0  0  0  0  0  0
   58.5080   32.3640   45.4890 C   0  0  0  0  0  0  0  0  0  0  0  0
   58.3320   33.1470   44.5150 O   0  0  0  0  0  0  0  0  0  0  0  0
   59.5930   32.5900   46.4130 N   0  0  0  0  0  0  0  0  0  0  0  0
   60.3520   33.8500   46.3630 C   0  0  0  0  0  0  0  0  0  0  0  0
   61.8200   33.6030   46.7070 C   0  0  0  0  0  0  0  0  0  0  0  0
   61.9180   32.8120   47.9370 N   0  0  0  0  0  0  0  0  0  0  0  0
   62.9370   33.1160   48.9090 C   0  0  0  0  0  0  0  0  0  0  0  0
   62.6090   33.7690   50.1090 C   0  0  0  0  0  0  0  0  0  0  0  0
   63.6120   34.0470   51.0380 C   0  0  0  0  0  0  0  0  0  0  0  0
   64.9280   33.6770   50.7680 C   0  0  0  0  0  0  0  0  0  0  0  0
   65.2250   33.0310   49.5670 C   0  0  0  0  0  0  0  0  0  0  0  0
   64.2360   32.7650   48.6690 N   0  0  0  0  0  0  0  0  0  0  0  0
   61.1830   31.5450   47.9880 C   0  0  0  0  0  0  0  0  0  0  0  0
   59.7130   31.7710   47.6300 C   0  0  0  0  0  0  0  0  0  0  0  0
   54.3425   30.4281   44.0136 H   0  0  0  0  0  0  0  0  0  0  0  0
   55.9093   30.2655   43.1502 H   0  0  0  0  0  0  0  0  0  0  0  0
   54.7382   28.9034   43.1502 H   0  0  0  0  0  0  0  0  0  0  0  0
   56.8353   26.7738   44.5300 H   0  0  0  0  0  0  0  0  0  0  0  0
   59.2318   26.1817   44.8713 H   0  0  0  0  0  0  0  0  0  0  0  0
   60.8557   27.9213   45.6183 H   0  0  0  0  0  0  0  0  0  0  0  0
   60.0961   30.2645   45.9851 H   0  0  0  0  0  0  0  0  0  0  0  0
   60.2837   34.2741   45.3503 H   0  0  0  0  0  0  0  0  0  0  0  0
   59.9273   34.5511   47.0965 H   0  0  0  0  0  0  0  0  0  0  0  0
   62.3008   33.0562   45.8825 H   0  0  0  0  0  0  0  0  0  0  0  0
   62.3243   34.5691   46.8566 H   0  0  0  0  0  0  0  0  0  0  0  0
   61.5681   34.0592   50.3147 H   0  0  0  0  0  0  0  0  0  0  0  0
   63.3647   34.5568   51.9808 H   0  0  0  0  0  0  0  0  0  0  0  0
   65.7253   33.8920   51.4946 H   0  0  0  0  0  0  0  0  0  0  0  0
   66.2611   32.7357   49.3449 H   0  0  0  0  0  0  0  0  0  0  0  0
   64.4910   32.2990   47.7710 H   0  0  0  0  0  0  0  0  0  0  0  0
   61.6269   30.8385   47.2711 H   0  0  0  0  0  0  0  0  0  0  0  0
   61.2449   31.1354   49.0070 H   0  0  0  0  0  0  0  0  0  0  0  0
   59.2294   30.7979   47.4593 H   0  0  0  0  0  0  0  0  0  0  0  0
   59.2242   32.3000   48.4614 H   0  0  0  0  0  0  0  0  0  0  0  0
  1  2  1  0
  2  3  1  0
  3  4  2  0
  4  5  1  0
  5  6  2  0
  6  7  1  0
  7  8  2  0
  8  9  1  0
  9 10  1  0
 10 11  2  0
 10 12  1  0
 12 13  1  0
 13 14  1  0
 14 15  1  0
 15 16  1  0
 16 17  2  0
 17 18  1  0
 18 19  2  0
 19 20  1  0
 20 21  2  0
 15 22  1  0
 22 23  1  0
  8  3  1  0
 23 12  1  0
 21 16  1  0
  1 24  1  0
  1 25  1  0
  1 26  1  0
  4 27  1  0
  5 28  1  0
  6 29  1  0
  7 30  1  0
 13 31  1  0
 13 32  1  0
 14 33  1  0
 14 34  1  0
 17 35  1  0
 18 36  1  0
 19 37  1  0
 20 38  1  0
 21 39  1  0
 22 40  1  0
 22 41  1  0
 23 42  1  0
 23 43  1  0
M  CHG  2   9  -1  21   1
M  END
>  <UniqueID>  (22) 
21

>  <SMILES>  (22) 
COc1ccccc1[N-]C(=O)N1CCN(c2cccc[nH+]2)CC1

>  <Energy>  (22) 
52.80068421063013

>  <Genealogy>  (22) 
COc1ccccc1[N-]C(=O)N1CCN(c2cccc[nH+]2)CC1 (protonated)
COc1ccccc1[N-]C(=O)N1CCN(c2cccc[nH+]2)CC1 (3D coordinates assigned)
COc1ccccc1[N-]C(=O)N1CCN(c2cccc[nH+]2)CC1 (nonaromatic ring conformer: 52.80068421063013 kcal/mol)

>  <smiles>  (22) 
COc1ccccc1NC(=O)N1CCN(c2ccccn2)CC1

>  <score_type>  (22) 
oracle

>  <origin>  (22) 
adg

>  <m_score__min__energy>  (22) 
-7.2800000000000002

>  <m_primary>  (22) 
energy

$$$$
22:0
     RDKit          3D

 29 31  0  0  0  0  0  0  0  0999 V2000
   55.9090   24.2050   45.3340 C   0  0  0  0  0  0  0  0  0  0  0  0
   56.1140   25.6510   45.6460 C   0  0  0  0  0  0  0  0  0  0  0  0
   55.1270   26.3550   45.9920 O   0  0  0  0  0  0  0  0  0  0  0  0
   57.4410   26.2000   45.6430 N   0  0  0  0  0  0  0  0  0  0  0  0
   57.7320   27.6050   45.7480 C   0  0  0  0  0  0  0  0  0  0  0  0
   58.3650   28.1440   46.8990 C   0  0  0  0  0  0  0  0  0  0  0  0
   58.6240   29.5220   46.9990 C   0  0  0  0  0  0  0  0  0  0  0  0
   58.2310   30.3440   45.9460 C   0  0  0  0  0  0  0  0  0  0  0  0
   57.5950   29.8300   44.8310 C   0  0  0  0  0  0  0  0  0  0  0  0
   57.3260   28.4680   44.7080 C   0  0  0  0  0  0  0  0  0  0  0  0
   57.2980   30.9320   43.9200 C   0  0  0  0  0  0  0  0  0  0  0  0
   56.7240   30.8530   42.8020 O   0  0  0  0  0  0  0  0  0  0  0  0
   57.7980   32.1430   44.5620 C   0  0  0  0  0  0  0  0  0  0  0  0
   57.7720   33.4680   44.1280 C   0  0  0  0  0  0  0  0  0  0  0  0
   58.3320   34.4500   44.9620 C   0  0  0  0  0  0  0  0  0  0  0  0
   58.9040   34.0940   46.2030 C   0  0  0  0  0  0  0  0  0  0  0  0
   58.9190   32.7520   46.6220 C   0  0  0  0  0  0  0  0  0  0  0  0
   58.3580   31.7930   45.7800 C   0  0  0  0  0  0  0  0  0  0  0  0
   55.8283   23.6355   46.2716 H   0  0  0  0  0  0  0  0  0  0  0  0
   54.9846   24.0833   44.7503 H   0  0  0  0  0  0  0  0  0  0  0  0
   56.7631   23.8312   44.7503 H   0  0  0  0  0  0  0  0  0  0  0  0
   58.2430   25.5310   45.6480 H   0  0  0  0  0  0  0  0  0  0  0  0
   58.6562   27.4752   47.7223 H   0  0  0  0  0  0  0  0  0  0  0  0
   59.1238   29.9398   47.8854 H   0  0  0  0  0  0  0  0  0  0  0  0
   56.8089   28.0747   43.8203 H   0  0  0  0  0  0  0  0  0  0  0  0
   57.3253   33.7368   43.1594 H   0  0  0  0  0  0  0  0  0  0  0  0
   58.3249   35.5036   44.6461 H   0  0  0  0  0  0  0  0  0  0  0  0
   59.3409   34.8720   46.8463 H   0  0  0  0  0  0  0  0  0  0  0  0
   59.3613   32.4666   47.5879 H   0  0  0  0  0  0  0  0  0  0  0  0
  1  2  1  0
  2  3  2  0
  2  4  1  0
  4  5  1  0
  5  6  2  0
  6  7  1  0
  7  8  2  0
  8  9  1  0
  9 10  2  0
  9 11  1  0
 11 12  2  0
 11 13  1  0
 13 14  2  0
 14 15  1  0
 15 16  2  0
 16 17  1  0
 17 18  2  0
 10  5  1  0
 18 13  1  0
 18  8  1  0
  1 19  1  0
  1 20  1  0
  1 21  1  0
  4 22  1  0
  6 23  1  0
  7 24  1  0
 10 25  1  0
 14 26  1  0
 15 27  1  0
 16 28  1  0
 17 29  1  0
M  END
>  <UniqueID>  (23) 
22

>  <SMILES>  (23) 
CC(=O)Nc1ccc2c(c1)C(=O)c1ccccc1-2

>  <Energy>  (23) 
66.77608400918442

>  <Genealogy>  (23) 
CC(=O)Nc1ccc2c(c1)C(=O)c1ccccc1-2 (3D coordinates assigned)
CC(=O)Nc1ccc2c(c1)C(=O)c1ccccc1-2 (nonaromatic ring conformer: 66.77608400918442 kcal/mol)

>  <smiles>  (23) 
CC(=O)Nc1ccc2c(c1)C(=O)c1ccccc1-2

>  <score_type>  (23) 
oracle

>  <origin>  (23) 
adg

>  <m_score__min__energy>  (23) 
-7.4900000000000002

>  <m_primary>  (23) 
energy

$$$$
23:0
     RDKit          3D

 38 40  0  0  0  0  0  0  0  0999 V2000
   56.8912   30.5447   41.3957 H   0  0  0  0  0  0  0  0  0  0  0  0
   56.8190   30.5190   42.4930 C   0  0  0  0  0  0  0  0  0  0  0  0
   57.1700   31.6080   43.2220 N   0  0  0  0  0  0  0  0  0  0  0  0
   57.0930   31.6000   44.5810 C   0  0  0  0  0  0  0  0  0  0  0  0
   57.3990   32.6520   45.2830 N   0  0  0  0  0  0  0  0  0  0  0  0
   58.6790   32.9630   45.8610 C   0  0  0  0  0  0  0  0  0  0  0  0
   59.2020   34.2700   45.8580 C   0  0  0  0  0  0  0  0  0  0  0  0
   58.6134   35.0944   45.4292 H   0  0  0  0  0  0  0  0  0  0  0  0
   60.4670   34.5250   46.3980 C   0  0  0  0  0  0  0  0  0  0  0  0
   60.8633   35.5511   46.4081 H   0  0  0  0  0  0  0  0  0  0  0  0
   61.2300   33.4750   46.9260 C   0  0  0  0  0  0  0  0  0  0  0  0
   62.5320   33.7380   47.4790 C   0  0  0  0  0  0  0  0  0  0  0  0
   63.5800   33.9480   47.9230 N   0  0  0  0  0  0  0  0  0  0  0  0
   60.7270   32.1690   46.9020 C   0  0  0  0  0  0  0  0  0  0  0  0
   61.3273   31.3419   47.3087 H   0  0  0  0  0  0  0  0  0  0  0  0
   59.4630   31.9140   46.3620 C   0  0  0  0  0  0  0  0  0  0  0  0
   59.0807   30.8831   46.3299 H   0  0  0  0  0  0  0  0  0  0  0  0
   56.6440   30.4880   45.2200 N   0  0  0  0  0  0  0  0  0  0  0  0
   56.2950   29.3650   44.5360 C   0  0  0  0  0  0  0  0  0  0  0  0
   55.8270   28.2560   45.2530 O   0  0  0  0  0  0  0  0  0  0  0  0
   56.6240   27.2120   45.7450 C   0  0  0  0  0  0  0  0  0  0  0  0
   57.9970   27.4310   45.9050 C   0  0  0  0  0  0  0  0  0  0  0  0
   58.4273   28.4106   45.6495 H   0  0  0  0  0  0  0  0  0  0  0  0
   58.8250   26.4140   46.3870 C   0  0  0  0  0  0  0  0  0  0  0  0
   59.9010   26.5992   46.5209 H   0  0  0  0  0  0  0  0  0  0  0  0
   58.2890   25.1630   46.6990 C   0  0  0  0  0  0  0  0  0  0  0  0
   58.9411   24.3706   47.0951 H   0  0  0  0  0  0  0  0  0  0  0  0
   56.9210   24.9130   46.5090 C   0  0  0  0  0  0  0  0  0  0  0  0
   56.3380   23.5740   46.8620 C   0  0  0  0  0  0  0  0  0  0  0  0
   55.2918   23.7036   47.1761 H   0  0  0  0  0  0  0  0  0  0  0  0
   56.3845   22.9165   45.9813 H   0  0  0  0  0  0  0  0  0  0  0  0
   57.0980   22.9700   47.9510 N   0  0  0  0  0  0  0  0  0  0  0  0
   56.9980   23.5860   48.7900 H   0  0  0  0  0  0  0  0  0  0  0  0
   56.6480   22.0580   48.1980 H   0  0  0  0  0  0  0  0  0  0  0  0
   56.0900   25.9420   46.0370 C   0  0  0  0  0  0  0  0  0  0  0  0
   55.0154   25.7549   45.8945 H   0  0  0  0  0  0  0  0  0  0  0  0
   56.3670   29.3680   43.1350 C   0  0  0  0  0  0  0  0  0  0  0  0
   56.0728   28.4804   42.5556 H   0  0  0  0  0  0  0  0  0  0  0  0
  1  2  1  0
  2  3  1  0
  3  4  1  0
  4  5  2  0
  5  6  1  0
  6  7  2  0
  7  8  1  0
  7  9  1  0
  9 10  1  0
  9 11  2  0
 11 12  1  0
 12 13  3  0
 11 14  1  0
 14 15  1  0
 14 16  2  0
 16 17  1  0
  4 18  1  0
 18 19  2  0
 19 20  1  0
 20 21  1  0
 21 22  2  0
 22 23  1  0
 22 24  1  0
 24 25  1  0
 24 26  2  0
 26 27  1  0
 26 28  1  0
 28 29  1  0
 29 30  1  0
 29 31  1  0
 29 32  1  0
 32 33  1  0
 32 34  1  0
 28 35  2  0
 35 36  1  0
 19 37  1  0
 37 38  1  0
 37  2  2  0
 16  6  1  0
 35 21  1  0
M  CHG  1   3  -1
M  END
>  <UniqueID>  (24) 
23

>  <SMILES>  (24) 
N#Cc1ccc(/N=c2/nc(Oc3cccc(CN)c3)cc[n-]2)cc1

>  <Energy>  (24) 
51.92429670706359

>  <Genealogy>  (24) 
N#Cc1ccc(N=c2nc(Oc3cccc(CN)c3)cc[n-]2)cc1 (protonated)
N#Cc1ccc(/N=c2/nc(Oc3cccc(CN)c3)cc[n-]2)cc1 (cis-trans isomerization)
N#Cc1ccc(/N=c2/nc(Oc3cccc(CN)c3)cc[n-]2)cc1 (3D coordinates assigned)
N#Cc1ccc(/N=c2/nc(Oc3cccc(CN)c3)cc[n-]2)cc1 (optimized conformer: 51.92429670706359 kcal/mol)

>  <smiles>  (24) 
N#Cc1ccc(N=c2nc(Oc3cccc(CN)c3)cc[nH]2)cc1

>  <score_type>  (24) 
oracle

>  <origin>  (24) 
adg

>  <m_score__min__energy>  (24) 
-9.8000000000000007

>  <m_primary>  (24) 
energy

$$$$
24:0
     RDKit          3D

 39 41  0  0  0  0  0  0  0  0999 V2000
   59.0590   35.1930   44.8790 N   0  0  0  0  0  0  0  0  0  0  0  0
   59.6460   34.8960   45.8310 C   0  0  0  0  0  0  0  0  0  0  0  0
   60.3880   34.5240   47.0380 C   0  0  0  0  0  0  0  0  0  0  0  0
   59.2490   33.8530   48.2940 S   0  0  0  0  0  0  0  0  0  0  0  0
   58.8610   32.3560   47.3570 C   0  0  0  0  0  0  0  0  0  0  0  0
   58.2480   32.5130   46.1530 N   0  0  0  0  0  0  0  0  0  0  0  0
   57.9230   31.4480   45.3750 C   0  0  0  0  0  0  0  0  0  0  0  0
   57.2960   31.6380   44.1330 C   0  0  0  0  0  0  0  0  0  0  0  0
   56.9660   30.5390   43.3370 C   0  0  0  0  0  0  0  0  0  0  0  0
   57.2600   29.2450   43.7740 C   0  0  0  0  0  0  0  0  0  0  0  0
   57.8840   29.0450   45.0070 C   0  0  0  0  0  0  0  0  0  0  0  0
   58.2210   30.1470   45.8180 C   0  0  0  0  0  0  0  0  0  0  0  0
   58.8440   29.9940   47.0670 C   0  0  0  0  0  0  0  0  0  0  0  0
   59.1150   28.8320   47.4860 O   0  0  0  0  0  0  0  0  0  0  0  0
   59.1550   31.0950   47.8300 N   0  0  0  0  0  0  0  0  0  0  0  0
   59.7590   30.8920   49.1670 C   0  0  0  0  0  0  0  0  0  0  0  0
   61.2340   30.4740   49.0610 C   0  0  0  0  0  0  0  0  0  0  0  0
   62.1190   31.6300   48.6810 C   0  0  0  0  0  0  0  0  0  0  0  0
   62.7180   31.6760   47.4100 C   0  0  0  0  0  0  0  0  0  0  0  0
   63.5020   32.7730   47.0420 C   0  0  0  0  0  0  0  0  0  0  0  0
   63.6900   33.8320   47.9350 C   0  0  0  0  0  0  0  0  0  0  0  0
   63.0930   33.7960   49.1980 C   0  0  0  0  0  0  0  0  0  0  0  0
   62.3090   32.7010   49.5710 C   0  0  0  0  0  0  0  0  0  0  0  0
   61.1382   33.7610   46.7829 H   0  0  0  0  0  0  0  0  0  0  0  0
   60.8849   35.4174   47.4441 H   0  0  0  0  0  0  0  0  0  0  0  0
   58.0240   33.4800   45.8240 H   0  0  0  0  0  0  0  0  0  0  0  0
   57.0640   32.6557   43.7859 H   0  0  0  0  0  0  0  0  0  0  0  0
   56.4742   30.6923   42.3651 H   0  0  0  0  0  0  0  0  0  0  0  0
   56.9991   28.3812   43.1449 H   0  0  0  0  0  0  0  0  0  0  0  0
   58.1132   28.0241   45.3463 H   0  0  0  0  0  0  0  0  0  0  0  0
   59.6937   31.8317   49.7351 H   0  0  0  0  0  0  0  0  0  0  0  0
   59.2080   30.0875   49.6761 H   0  0  0  0  0  0  0  0  0  0  0  0
   61.5626   30.0794   50.0338 H   0  0  0  0  0  0  0  0  0  0  0  0
   61.3159   29.7092   48.2746 H   0  0  0  0  0  0  0  0  0  0  0  0
   62.5693   30.8464   46.7032 H   0  0  0  0  0  0  0  0  0  0  0  0
   63.9719   32.8031   46.0479 H   0  0  0  0  0  0  0  0  0  0  0  0
   64.3081   34.6939   47.6434 H   0  0  0  0  0  0  0  0  0  0  0  0
   63.2404   34.6305   49.8993 H   0  0  0  0  0  0  0  0  0  0  0  0
   61.8387   32.6772   50.5651 H   0  0  0  0  0  0  0  0  0  0  0  0
  1  2  3  0
  2  3  1  0
  3  4  1  0
  4  5  1  0
  5  6  2  0
  6  7  1  0
  7  8  2  0
  8  9  1  0
  9 10  2  0
 10 11  1  0
 11 12  2  0
 12 13  1  0
 13 14  2  0
 13 15  1  0
 15 16  1  0
 16 17  1  0
 17 18  1  0
 18 19  2  0
 19 20  1  0
 20 21  2  0
 21 22  1  0
 22 23  2  0
 15  5  1  0
 23 18  1  0
 12  7  1  0
  3 24  1  0
  3 25  1  0
  6 26  1  0
  8 27  1  0
  9 28  1  0
 10 29  1  0
 11 30  1  0
 16 31  1  0
 16 32  1  0
 17 33  1  0
 17 34  1  0
 19 35  1  0
 20 36  1  0
 21 37  1  0
 22 38  1  0
 23 39  1  0
M  CHG  1   6   1
M  END
>  <UniqueID>  (25) 
24

>  <SMILES>  (25) 
N#CCSc1[nH+]c2ccccc2c(=O)n1CCc1ccccc1

>  <Energy>  (25) 
41.15170045557782

>  <Genealogy>  (25) 
N#CCSc1[nH+]c2ccccc2c(=O)n1CCc1ccccc1 (protonated)
N#CCSc1[nH+]c2ccccc2c(=O)n1CCc1ccccc1 (3D coordinates assigned)
N#CCSc1[nH+]c2ccccc2c(=O)n1CCc1ccccc1 (optimized conformer: 41.15170045557782 kcal/mol)

>  <smiles>  (25) 
N#CCSc1nc2ccccc2c(=O)n1CCc1ccccc1

>  <score_type>  (25) 
oracle

>  <origin>  (25) 
adg

>  <m_score__min__energy>  (25) 
-6.7999999999999998

>  <m_primary>  (25) 
energy

$$$$
25:0
     RDKit          3D

 40 42  0  0  0  0  0  0  0  0999 V2000
   57.3950   22.0220   46.3350 C   0  0  0  0  0  0  0  0  0  0  0  0
   57.7460   23.2150   47.0260 O   0  0  0  0  0  0  0  0  0  0  0  0
   57.4540   24.5100   46.5710 C   0  0  0  0  0  0  0  0  0  0  0  0
   56.1350   24.9870   46.4500 C   0  0  0  0  0  0  0  0  0  0  0  0
   55.8940   26.2860   45.9920 C   0  0  0  0  0  0  0  0  0  0  0  0
   56.9650   27.1290   45.6480 C   0  0  0  0  0  0  0  0  0  0  0  0
   56.7160   28.5030   45.1670 C   0  0  0  0  0  0  0  0  0  0  0  0
   57.6890   29.4210   44.9830 N   0  0  0  0  0  0  0  0  0  0  0  0
   57.0160   30.4970   44.5340 C   0  0  0  0  0  0  0  0  0  0  0  0
   57.6660   31.8010   44.1680 C   0  0  0  0  0  0  0  0  0  0  0  0
   57.6440   32.7890   45.2680 N   0  0  0  0  0  0  0  0  0  0  0  0
   58.1180   32.2900   46.5780 C   0  0  0  0  0  0  0  0  0  0  0  0
   59.6210   32.5390   46.8310 C   0  0  0  0  0  0  0  0  0  0  0  0
   60.1540   33.8340   46.2000 C   0  0  0  0  0  0  0  0  0  0  0  0
   59.0270   34.8070   45.8750 C   0  0  0  0  0  0  0  0  0  0  0  0
   58.0530   34.1620   44.8820 C   0  0  0  0  0  0  0  0  0  0  0  0
   55.6710   30.2040   44.4730 C   0  0  0  0  0  0  0  0  0  0  0  0
   55.5210   28.9660   44.8670 O   0  0  0  0  0  0  0  0  0  0  0  0
   58.2780   26.6510   45.7710 C   0  0  0  0  0  0  0  0  0  0  0  0
   58.5170   25.3520   46.2290 C   0  0  0  0  0  0  0  0  0  0  0  0
   57.1624   21.2313   47.0634 H   0  0  0  0  0  0  0  0  0  0  0  0
   56.5140   22.2096   45.7036 H   0  0  0  0  0  0  0  0  0  0  0  0
   58.2373   21.7026   45.7036 H   0  0  0  0  0  0  0  0  0  0  0  0
   55.2903   24.3350   46.7169 H   0  0  0  0  0  0  0  0  0  0  0  0
   54.8602   26.6504   45.9003 H   0  0  0  0  0  0  0  0  0  0  0  0
   58.7132   31.6054   43.8940 H   0  0  0  0  0  0  0  0  0  0  0  0
   57.0944   32.2290   43.3313 H   0  0  0  0  0  0  0  0  0  0  0  0
   57.5445   32.7942   47.3697 H   0  0  0  0  0  0  0  0  0  0  0  0
   57.9682   31.2003   46.5799 H   0  0  0  0  0  0  0  0  0  0  0  0
   59.7851   32.5905   47.9175 H   0  0  0  0  0  0  0  0  0  0  0  0
   60.1654   31.7075   46.3596 H   0  0  0  0  0  0  0  0  0  0  0  0
   60.8481   34.3148   46.9050 H   0  0  0  0  0  0  0  0  0  0  0  0
   60.6642   33.5736   45.2609 H   0  0  0  0  0  0  0  0  0  0  0  0
   58.4889   35.0642   46.7993 H   0  0  0  0  0  0  0  0  0  0  0  0
   59.4517   35.7176   45.4272 H   0  0  0  0  0  0  0  0  0  0  0  0
   57.1520   34.7899   44.8190 H   0  0  0  0  0  0  0  0  0  0  0  0
   58.5746   34.0870   43.9164 H   0  0  0  0  0  0  0  0  0  0  0  0
   54.8702   30.8863   44.1518 H   0  0  0  0  0  0  0  0  0  0  0  0
   59.1242   27.3018   45.5056 H   0  0  0  0  0  0  0  0  0  0  0  0
   59.5511   24.9886   46.3213 H   0  0  0  0  0  0  0  0  0  0  0  0
  1  2  1  0
  2  3  1  0
  3  4  2  0
  4  5  1  0
  5  6  2  0
  6  7  1  0
  7  8  2  0
  8  9  1  0
  9 10  1  0
 10 11  1  0
 11 12  1  0
 12 13  1  0
 13 14  1  0
 14 15  1  0
 15 16  1  0
  9 17  2  0
 17 18  1  0
  6 19  1  0
 19 20  2  0
 20  3  1  0
 18  7  1  0
 16 11  1  0
  1 21  1  0
  1 22  1  0
  1 23  1  0
  4 24  1  0
  5 25  1  0
 10 26  1  0
 10 27  1  0
 12 28  1  0
 12 29  1  0
 13 30  1  0
 13 31  1  0
 14 32  1  0
 14 33  1  0
 15 34  1  0
 15 35  1  0
 16 36  1  0
 16 37  1  0
 17 38  1  0
 19 39  1  0
 20 40  1  0
M  END
>  <UniqueID>  (26) 
25

>  <SMILES>  (26) 
COc1ccc(-c2nc(CN3CCCCC3)co2)cc1

>  <Energy>  (26) 
79.91339727728244

>  <Genealogy>  (26) 
COc1ccc(-c2nc(CN3CCCCC3)co2)cc1 (3D coordinates assigned)
COc1ccc(-c2nc(CN3CCCCC3)co2)cc1 (nonaromatic ring conformer: 79.91339727728244 kcal/mol)

>  <smiles>  (26) 
COc1ccc(-c2nc(CN3CCCCC3)co2)cc1

>  <score_type>  (26) 
oracle

>  <origin>  (26) 
adg

>  <m_score__min__energy>  (26) 
-6.96

>  <m_primary>  (26) 
energy

$$$$
26:0
     RDKit          3D

 48 52  0  0  0  0  0  0  0  0999 V2000
   59.1590   30.2540   46.2420 F   0  0  0  0  0  0  0  0  0  0  0  0
   58.8050   31.4580   45.7200 C   0  0  0  0  0  0  0  0  0  0  0  0
   57.8240   31.4610   44.7580 C   0  0  0  0  0  0  0  0  0  0  0  0
   57.0890   29.9550   44.2570 Cl  0  0  0  0  0  0  0  0  0  0  0  0
   57.3950   32.6260   44.1680 C   0  0  0  0  0  0  0  0  0  0  0  0
   57.9870   33.7960   44.5780 C   0  0  0  0  0  0  0  0  0  0  0  0
   58.9870   33.7890   45.5590 C   0  0  0  0  0  0  0  0  0  0  0  0
   59.6500   35.3460   45.9820 Cl  0  0  0  0  0  0  0  0  0  0  0  0
   59.4250   32.6360   46.1570 C   0  0  0  0  0  0  0  0  0  0  0  0
   60.4520   32.5600   47.1750 C   0  0  0  0  0  0  0  0  0  0  0  0
   60.1790   32.7190   48.4920 N   0  0  0  0  0  0  0  0  0  0  0  0
   61.2920   32.6050   49.2230 C   0  0  0  0  0  0  0  0  0  0  0  0
   62.3180   32.3640   48.3600 C   0  0  0  0  0  0  0  0  0  0  0  0
   61.7670   32.3450   47.1230 N   0  0  0  0  0  0  0  0  0  0  0  0
   63.7490   32.1580   48.6310 C   0  0  0  0  0  0  0  0  0  0  0  0
   64.2240   32.7160   49.8830 C   0  0  0  0  0  0  0  0  0  0  0  0
   65.6030   32.9440   49.7990 C   0  0  0  0  0  0  0  0  0  0  0  0
   66.3220   33.4710   50.8470 C   0  0  0  0  0  0  0  0  0  0  0  0
   65.7150   33.8030   52.0390 C   0  0  0  0  0  0  0  0  0  0  0  0
   64.3530   33.5870   52.1460 C   0  0  0  0  0  0  0  0  0  0  0  0
   63.6460   33.0590   51.0910 C   0  0  0  0  0  0  0  0  0  0  0  0
   62.2870   32.9310   51.4310 N   0  0  0  0  0  0  0  0  0  0  0  0
   61.2540   32.7370   50.6720 C   0  0  0  0  0  0  0  0  0  0  0  0
   59.9700   32.6440   51.2940 N   0  0  0  0  0  0  0  0  0  0  0  0
   59.4390   31.3470   51.5790 C   0  0  0  0  0  0  0  0  0  0  0  0
   57.9140   31.4850   51.5970 C   0  0  0  0  0  0  0  0  0  0  0  0
   57.6220   32.4220   52.7490 C   0  0  0  0  0  0  0  0  0  0  0  0
   58.1740   33.7870   52.5650 C   0  0  0  0  0  0  0  0  0  0  0  0
   59.3010   33.8890   51.5920 C   0  0  0  0  0  0  0  0  0  0  0  0
   56.6091   32.6217   43.3983 H   0  0  0  0  0  0  0  0  0  0  0  0
   57.6719   34.7501   44.1304 H   0  0  0  0  0  0  0  0  0  0  0  0
   62.3340   32.1800   46.2800 H   0  0  0  0  0  0  0  0  0  0  0  0
   63.9407   31.0749   48.6460 H   0  0  0  0  0  0  0  0  0  0  0  0
   64.2914   32.6875   47.8339 H   0  0  0  0  0  0  0  0  0  0  0  0
   66.1282   32.6938   48.8654 H   0  0  0  0  0  0  0  0  0  0  0  0
   67.4041   33.6307   50.7311 H   0  0  0  0  0  0  0  0  0  0  0  0
   66.2927   34.2244   52.8749 H   0  0  0  0  0  0  0  0  0  0  0  0
   63.8317   33.8392   53.0812 H   0  0  0  0  0  0  0  0  0  0  0  0
   59.7451   30.6333   50.7999 H   0  0  0  0  0  0  0  0  0  0  0  0
   59.8119   30.9721   52.5436 H   0  0  0  0  0  0  0  0  0  0  0  0
   57.5527   31.9118   50.6497 H   0  0  0  0  0  0  0  0  0  0  0  0
   57.4114   30.5137   51.7153 H   0  0  0  0  0  0  0  0  0  0  0  0
   56.5309   32.5016   52.8634 H   0  0  0  0  0  0  0  0  0  0  0  0
   58.1086   31.9968   53.6392 H   0  0  0  0  0  0  0  0  0  0  0  0
   57.3606   34.4389   52.2137 H   0  0  0  0  0  0  0  0  0  0  0  0
   58.5844   34.0853   53.5410 H   0  0  0  0  0  0  0  0  0  0  0  0
   58.9023   34.2950   50.6506 H   0  0  0  0  0  0  0  0  0  0  0  0
   60.0551   34.5356   52.0646 H   0  0  0  0  0  0  0  0  0  0  0  0
  1  2  1  0
  2  3  2  0
  3  4  1  0
  3  5  1  0
  5  6  2  0
  6  7  1  0
  7  8  1  0
  7  9  2  0
  9 10  1  0
 10 11  2  0
 11 12  1  0
 12 13  2  0
 13 14  1  0
 13 15  1  0
 15 16  1  0
 16 17  2  0
 17 18  1  0
 18 19  2  0
 19 20  1  0
 20 21  2  0
 21 22  1  0
 22 23  2  0
 23 24  1  0
 24 25  1  0
 25 26  1  0
 26 27  1  0
 27 28  1  0
 28 29  1  0
  9  2  1  0
 14 10  1  0
 21 16  1  0
 29 24  1  0
 23 12  1  0
  5 30  1  0
  6 31  1  0
 14 32  1  0
 15 33  1  0
 15 34  1  0
 17 35  1  0
 18 36  1  0
 19 37  1  0
 20 38  1  0
 25 39  1  0
 25 40  1  0
 26 41  1  0
 26 42  1  0
 27 43  1  0
 27 44  1  0
 28 45  1  0
 28 46  1  0
 29 47  1  0
 29 48  1  0
M  END
>  <smiles>  (27) 
Fc1c(Cl)ccc(Cl)c1-c1nc2c([nH]1)Cc1ccccc1N=C2N1CCCCC1

>  <score_type>  (27) 
oracle

>  <origin>  (27) 
adg

>  <m_score__min__energy>  (27) 
-8.6600000000000001

>  <m_primary>  (27) 
energy

$$$$
27:0
     RDKit          3D

 43 46  0  0  0  0  0  0  0  0999 V2000
   54.5836   30.4531   43.8378 H   0  0  0  0  0  0  0  0  0  0  0  0
   55.5000   30.0900   44.3260 C   0  0  0  0  0  0  0  0  0  0  0  0
   55.5240   28.8530   44.8810 N   0  0  0  0  0  0  0  0  0  0  0  0
   56.6310   28.3610   45.4980 C   0  0  0  0  0  0  0  0  0  0  0  0
   56.5960   27.0750   46.0620 C   0  0  0  0  0  0  0  0  0  0  0  0
   55.4110   26.3280   45.9650 O   0  0  0  0  0  0  0  0  0  0  0  0
   55.3540   24.9440   45.6330 C   0  0  0  0  0  0  0  0  0  0  0  0
   55.3294   24.3462   46.5561 H   0  0  0  0  0  0  0  0  0  0  0  0
   54.4469   24.7455   45.0433 H   0  0  0  0  0  0  0  0  0  0  0  0
   56.2417   24.6715   45.0433 H   0  0  0  0  0  0  0  0  0  0  0  0
   57.7440   26.5730   46.7040 C   0  0  0  0  0  0  0  0  0  0  0  0
   57.7265   25.5665   47.1475 H   0  0  0  0  0  0  0  0  0  0  0  0
   58.9040   27.3450   46.7810 C   0  0  0  0  0  0  0  0  0  0  0  0
   59.7945   26.9439   47.2871 H   0  0  0  0  0  0  0  0  0  0  0  0
   58.9420   28.6230   46.2200 C   0  0  0  0  0  0  0  0  0  0  0  0
   59.8625   29.2217   46.2851 H   0  0  0  0  0  0  0  0  0  0  0  0
   57.8080   29.1500   45.5710 C   0  0  0  0  0  0  0  0  0  0  0  0
   57.8130   30.4360   44.9830 C   0  0  0  0  0  0  0  0  0  0  0  0
   58.8920   31.1710   45.0510 N   0  0  0  0  0  0  0  0  0  0  0  0
   59.3620   31.9470   46.1650 C   0  0  0  0  0  0  0  0  0  0  0  0
   60.3850   31.4730   47.0030 C   0  0  0  0  0  0  0  0  0  0  0  0
   60.8732   30.5124   46.7816 H   0  0  0  0  0  0  0  0  0  0  0  0
   60.7850   32.2160   48.1160 C   0  0  0  0  0  0  0  0  0  0  0  0
   61.5940   31.8421   48.7607 H   0  0  0  0  0  0  0  0  0  0  0  0
   60.1630   33.4330   48.4160 C   0  0  0  0  0  0  0  0  0  0  0  0
   60.5830   34.1440   49.5500 O   0  0  0  0  0  0  0  0  0  0  0  0
   60.2920   33.8010   50.8790 C   0  0  0  0  0  0  0  0  0  0  0  0
   58.9510   33.7560   51.2830 C   0  0  0  0  0  0  0  0  0  0  0  0
   58.1546   34.0010   50.5649 H   0  0  0  0  0  0  0  0  0  0  0  0
   58.6200   33.4010   52.5950 C   0  0  0  0  0  0  0  0  0  0  0  0
   57.5657   33.3763   52.9079 H   0  0  0  0  0  0  0  0  0  0  0  0
   59.6260   33.0780   53.5080 C   0  0  0  0  0  0  0  0  0  0  0  0
   59.3645   32.8055   54.5411 H   0  0  0  0  0  0  0  0  0  0  0  0
   60.9650   33.1010   53.1090 C   0  0  0  0  0  0  0  0  0  0  0  0
   61.7566   32.8409   53.8272 H   0  0  0  0  0  0  0  0  0  0  0  0
   61.3000   33.4540   51.7990 C   0  0  0  0  0  0  0  0  0  0  0  0
   62.3544   33.4608   51.4856 H   0  0  0  0  0  0  0  0  0  0  0  0
   59.1010   33.8810   47.6080 C   0  0  0  0  0  0  0  0  0  0  0  0
   58.5842   34.8205   47.8533 H   0  0  0  0  0  0  0  0  0  0  0  0
   58.7010   33.1360   46.4950 C   0  0  0  0  0  0  0  0  0  0  0  0
   57.8623   33.4859   45.8751 H   0  0  0  0  0  0  0  0  0  0  0  0
   56.6310   30.9040   44.3710 C   0  0  0  0  0  0  0  0  0  0  0  0
   56.6018   31.9110   43.9294 H   0  0  0  0  0  0  0  0  0  0  0  0
  1  2  1  0
  2  3  1  0
  3  4  1  0
  4  5  2  0
  5  6  1  0
  6  7  1  0
  7  8  1  0
  7  9  1  0
  7 10  1  0
  5 11  1  0
 11 12  1  0
 11 13  2  0
 13 14  1  0
 13 15  1  0
 15 16  1  0
 15 17  2  0
 17 18  1  0
 18 19  2  0
 19 20  1  0
 20 21  2  0
 21 22  1  0
 21 23  1  0
 23 24  1  0
 23 25  2  0
 25 26  1  0
 26 27  1  0
 27 28  2  0
 28 29  1  0
 28 30  1  0
 30 31  1  0
 30 32  2  0
 32 33  1  0
 32 34  1  0
 34 35  1  0
 34 36  2  0
 36 37  1  0
 25 38  1  0
 38 39  1  0
 38 40  2  0
 40 41  1  0
 18 42  1  0
 42 43  1  0
 42  2  2  0
 17  4  1  0
 40 20  1  0
 36 27  1  0
M  CHG  1   3  -1
M  END
>  <UniqueID>  (28) 
26

>  <SMILES>  (28) 
COc1cccc2/c(=N/c3ccc(Oc4ccccc4)cc3)cc[n-]c12

>  <Energy>  (28) 
68.77723800553095

>  <Genealogy>  (28) 
COc1cccc2c(=Nc3ccc(Oc4ccccc4)cc3)cc[n-]c12 (protonated)
COc1cccc2/c(=N/c3ccc(Oc4ccccc4)cc3)cc[n-]c12 (cis-trans isomerization)
COc1cccc2/c(=N/c3ccc(Oc4ccccc4)cc3)cc[n-]c12 (3D coordinates assigned)
COc1cccc2/c(=N/c3ccc(Oc4ccccc4)cc3)cc[n-]c12 (optimized conformer: 68.77723800553095 kcal/mol)

>  <smiles>  (28) 
COc1cccc2c(=Nc3ccc(Oc4ccccc4)cc3)cc[nH]c12

>  <score_type>  (28) 
oracle

>  <origin>  (28) 
adg

>  <m_score__min__energy>  (28) 
-10.470000000000001

>  <m_primary>  (28) 
energy

$$$$
28:0
     RDKit          3D

 34 37  0  0  0  0  0  0  0  0999 V2000
   60.7200   31.1690   47.2530 O   0  0  0  0  0  0  0  0  0  0  0  0
   60.2510   32.2710   46.8580 C   0  0  0  0  0  0  0  0  0  0  0  0
   59.1560   32.3040   45.9830 C   0  0  0  0  0  0  0  0  0  0  0  0
   58.4360   31.2340   45.4150 C   0  0  0  0  0  0  0  0  0  0  0  0
   57.4400   31.6790   44.5390 C   0  0  0  0  0  0  0  0  0  0  0  0
   57.3950   33.3680   44.5140 S   0  0  0  0  0  0  0  0  0  0  0  0
   58.6780   33.5360   45.5820 C   0  0  0  0  0  0  0  0  0  0  0  0
   59.2180   34.6970   46.0130 N   0  0  0  0  0  0  0  0  0  0  0  0
   60.2740   34.6580   46.8710 C   0  0  0  0  0  0  0  0  0  0  0  0
   60.7990   33.4590   47.2880 N   0  0  0  0  0  0  0  0  0  0  0  0
   61.9300   33.4700   48.1820 C   0  0  0  0  0  0  0  0  0  0  0  0
   63.1940   33.0570   47.7350 C   0  0  0  0  0  0  0  0  0  0  0  0
   64.2760   33.0670   48.6190 C   0  0  0  0  0  0  0  0  0  0  0  0
   64.1040   33.4720   49.9070 N   0  0  0  0  0  0  0  0  0  0  0  0
   62.8880   33.8720   50.3690 C   0  0  0  0  0  0  0  0  0  0  0  0
   61.7800   33.8770   49.5170 C   0  0  0  0  0  0  0  0  0  0  0  0
   56.4900   30.7750   43.8160 C   0  0  0  0  0  0  0  0  0  0  0  0
   57.0520   29.3480   43.7360 C   0  0  0  0  0  0  0  0  0  0  0  0
   57.5690   28.8820   45.1070 C   0  0  0  0  0  0  0  0  0  0  0  0
   58.7260   29.7660   45.6070 C   0  0  0  0  0  0  0  0  0  0  0  0
   60.7126   35.5987   47.2352 H   0  0  0  0  0  0  0  0  0  0  0  0
   63.3325   32.7273   46.6948 H   0  0  0  0  0  0  0  0  0  0  0  0
   65.2698   32.7466   48.2730 H   0  0  0  0  0  0  0  0  0  0  0  0
   64.9220   33.4730   50.5550 H   0  0  0  0  0  0  0  0  0  0  0  0
   62.7769   34.1922   51.4155 H   0  0  0  0  0  0  0  0  0  0  0  0
   60.7964   34.1979   49.8904 H   0  0  0  0  0  0  0  0  0  0  0  0
   55.5305   30.7555   44.3536 H   0  0  0  0  0  0  0  0  0  0  0  0
   56.3477   31.1565   42.7941 H   0  0  0  0  0  0  0  0  0  0  0  0
   56.2564   28.6663   43.4008 H   0  0  0  0  0  0  0  0  0  0  0  0
   57.8906   29.3409   43.0242 H   0  0  0  0  0  0  0  0  0  0  0  0
   56.7447   28.9282   45.8339 H   0  0  0  0  0  0  0  0  0  0  0  0
   57.9430   27.8529   45.0019 H   0  0  0  0  0  0  0  0  0  0  0  0
   58.8846   29.5720   46.6781 H   0  0  0  0  0  0  0  0  0  0  0  0
   59.6232   29.5164   45.0216 H   0  0  0  0  0  0  0  0  0  0  0  0
  1  2  2  0
  2  3  1  0
  3  4  1  0
  4  5  2  0
  5  6  1  0
  6  7  1  0
  7  8  1  0
  8  9  2  0
  9 10  1  0
 10 11  1  0
 11 12  2  0
 12 13  1  0
 13 14  2  0
 14 15  1  0
 15 16  2  0
  5 17  1  0
 17 18  1  0
 18 19  1  0
 19 20  1  0
 10  2  1  0
 16 11  1  0
  7  3  2  0
 20  4  1  0
  9 21  1  0
 12 22  1  0
 13 23  1  0
 14 24  1  0
 15 25  1  0
 16 26  1  0
 17 27  1  0
 17 28  1  0
 18 29  1  0
 18 30  1  0
 19 31  1  0
 19 32  1  0
 20 33  1  0
 20 34  1  0
M  CHG  1  14   1
M  END
>  <UniqueID>  (29) 
27

>  <SMILES>  (29) 
O=c1c2c3c(sc2ncn1-c1cc[nH+]cc1)CCCC3

>  <Energy>  (29) 
79.32751317791644

>  <Genealogy>  (29) 
O=c1c2c3c(sc2ncn1-c1cc[nH+]cc1)CCCC3 (protonated)
O=c1c2c3c(sc2ncn1-c1cc[nH+]cc1)CCCC3 (3D coordinates assigned)
O=c1c2c3c(sc2ncn1-c1cc[nH+]cc1)CCCC3 (nonaromatic ring conformer: 79.32751317791644 kcal/mol)

>  <smiles>  (29) 
O=c1c2c3c(sc2ncn1-c1ccncc1)CCCC3

>  <score_type>  (29) 
oracle

>  <origin>  (29) 
adg

>  <m_score__min__energy>  (29) 
-5.9199999999999999

>  <m_primary>  (29) 
energy

$$$$
29:0
     RDKit          3D

 42 43  0  0  0  0  0  0  0  0999 V2000
   62.9070   33.5330   46.4190 C   0  0  0  0  0  0  0  0  0  0  0  0
   61.7870   33.7100   47.4150 C   0  0  0  0  0  0  0  0  0  0  0  0
   62.0640   33.6760   48.8000 C   0  0  0  0  0  0  0  0  0  0  0  0
   63.6940   33.4100   49.4120 Cl  0  0  0  0  0  0  0  0  0  0  0  0
   61.0350   33.8640   49.7260 C   0  0  0  0  0  0  0  0  0  0  0  0
   59.7320   34.0970   49.2910 C   0  0  0  0  0  0  0  0  0  0  0  0
   59.4470   34.1520   47.9280 C   0  0  0  0  0  0  0  0  0  0  0  0
   60.4690   33.9710   46.9750 C   0  0  0  0  0  0  0  0  0  0  0  0
   60.2140   34.0420   45.5930 O   0  0  0  0  0  0  0  0  0  0  0  0
   58.9300   34.2040   44.9860 C   0  0  0  0  0  0  0  0  0  0  0  0
   57.9530   33.1200   45.4570 C   0  0  0  0  0  0  0  0  0  0  0  0
   57.7730   32.0220   44.4040 C   0  0  0  0  0  0  0  0  0  0  0  0
   57.9450   30.6980   45.0190 N   0  0  0  0  0  0  0  0  0  0  0  0
   59.2150   30.3480   45.6760 C   0  0  0  0  0  0  0  0  0  0  0  0
   60.0520   29.3390   44.8580 C   0  0  0  0  0  0  0  0  0  0  0  0
   59.6400   27.8620   44.9910 C   0  0  0  0  0  0  0  0  0  0  0  0
   58.1790   27.5680   44.6000 C   0  0  0  0  0  0  0  0  0  0  0  0
   57.1060   28.3120   45.4210 C   0  0  0  0  0  0  0  0  0  0  0  0
   56.8810   29.7230   44.9510 C   0  0  0  0  0  0  0  0  0  0  0  0
   55.7410   30.0530   44.5210 O   0  0  0  0  0  0  0  0  0  0  0  0
   63.8551   33.3832   46.9562 H   0  0  0  0  0  0  0  0  0  0  0  0
   62.7009   32.6563   45.7874 H   0  0  0  0  0  0  0  0  0  0  0  0
   62.9813   34.4306   45.7874 H   0  0  0  0  0  0  0  0  0  0  0  0
   61.2544   33.8279   50.8033 H   0  0  0  0  0  0  0  0  0  0  0  0
   58.9257   34.2380   50.0258 H   0  0  0  0  0  0  0  0  0  0  0  0
   58.4158   34.3382   47.5934 H   0  0  0  0  0  0  0  0  0  0  0  0
   58.5276   35.1915   45.2559 H   0  0  0  0  0  0  0  0  0  0  0  0
   59.0469   34.1175   43.8956 H   0  0  0  0  0  0  0  0  0  0  0  0
   58.3416   32.6672   46.3811 H   0  0  0  0  0  0  0  0  0  0  0  0
   56.9748   33.5923   45.6301 H   0  0  0  0  0  0  0  0  0  0  0  0
   56.7638   32.0941   43.9723 H   0  0  0  0  0  0  0  0  0  0  0  0
   58.5283   32.1530   43.6151 H   0  0  0  0  0  0  0  0  0  0  0  0
   59.8054   31.2661   45.8122 H   0  0  0  0  0  0  0  0  0  0  0  0
   58.9714   29.8742   46.6384 H   0  0  0  0  0  0  0  0  0  0  0  0
   59.9727   29.6170   43.7967 H   0  0  0  0  0  0  0  0  0  0  0  0
   61.0731   29.4014   45.2623 H   0  0  0  0  0  0  0  0  0  0  0  0
   60.2963   27.2626   44.3429 H   0  0  0  0  0  0  0  0  0  0  0  0
   59.7362   27.6053   46.0563 H   0  0  0  0  0  0  0  0  0  0  0  0
   58.0492   27.8454   43.5435 H   0  0  0  0  0  0  0  0  0  0  0  0
   58.0234   26.4979   44.8017 H   0  0  0  0  0  0  0  0  0  0  0  0
   56.1578   27.7602   45.3406 H   0  0  0  0  0  0  0  0  0  0  0  0
   57.4636   28.3640   46.4600 H   0  0  0  0  0  0  0  0  0  0  0  0
  1  2  1  0
  2  3  2  0
  3  4  1  0
  3  5  1  0
  5  6  2  0
  6  7  1  0
  7  8  2  0
  8  9  1  0
  9 10  1  0
 10 11  1  0
 11 12  1  0
 12 13  1  0
 13 14  1  0
 14 15  1  0
 15 16  1  0
 16 17  1  0
 17 18  1  0
 18 19  1  0
 19 20  2  0
  8  2  1  0
 19 13  1  0
  1 21  1  0
  1 22  1  0
  1 23  1  0
  5 24  1  0
  6 25  1  0
  7 26  1  0
 10 27  1  0
 10 28  1  0
 11 29  1  0
 11 30  1  0
 12 31  1  0
 12 32  1  0
 14 33  1  0
 14 34  1  0
 15 35  1  0
 15 36  1  0
 16 37  1  0
 16 38  1  0
 17 39  1  0
 17 40  1  0
 18 41  1  0
 18 42  1  0
M  END
>  <UniqueID>  (30) 
28

>  <SMILES>  (30) 
Cc1c(Cl)cccc1OCCCN1CCCCCC1=O

>  <Energy>  (30) 
40.693239628036594

>  <Genealogy>  (30) 
Cc1c(Cl)cccc1OCCCN1CCCCCC1=O (3D coordinates assigned)
Cc1c(Cl)cccc1OCCCN1CCCCCC1=O (nonaromatic ring conformer: 40.693239628036594 kcal/mol)

>  <smiles>  (30) 
Cc1c(Cl)cccc1OCCCN1CCCCCC1=O

>  <score_type>  (30) 
oracle

>  <origin>  (30) 
adg

>  <m_score__min__energy>  (30) 
-5.7400000000000002

>  <m_primary>  (30) 
energy

$$$$
30:0
     RDKit          3D

 31 33  0  0  0  0  0  0  0  0999 V2000
   55.1510   29.3210   44.8610 O   0  0  0  0  0  0  0  0  0  0  0  0
   56.3150   29.8000   44.8030 C   0  0  0  0  0  0  0  0  0  0  0  0
   56.4700   31.1940   44.5060 N   0  0  0  0  0  0  0  0  0  0  0  0
   57.3550   32.1090   45.1680 C   0  0  0  0  0  0  0  0  0  0  0  0
   57.7720   33.2570   44.4860 C   0  0  0  0  0  0  0  0  0  0  0  0
   58.6390   34.1690   45.0920 C   0  0  0  0  0  0  0  0  0  0  0  0
   59.1110   33.9370   46.3920 C   0  0  0  0  0  0  0  0  0  0  0  0
   59.9800   34.8470   47.0130 C   0  0  0  0  0  0  0  0  0  0  0  0
   60.4490   34.5990   48.3060 C   0  0  0  0  0  0  0  0  0  0  0  0
   60.0570   33.4430   48.9860 C   0  0  0  0  0  0  0  0  0  0  0  0
   59.1950   32.5270   48.3790 C   0  0  0  0  0  0  0  0  0  0  0  0
   58.7140   32.7650   47.0820 C   0  0  0  0  0  0  0  0  0  0  0  0
   57.8470   31.8540   46.4610 C   0  0  0  0  0  0  0  0  0  0  0  0
   57.4750   28.9230   45.0940 C   0  0  0  0  0  0  0  0  0  0  0  0
   57.3220   27.8060   45.9350 C   0  0  0  0  0  0  0  0  0  0  0  0
   58.4120   26.9750   46.2130 C   0  0  0  0  0  0  0  0  0  0  0  0
   59.6650   27.2570   45.6630 C   0  0  0  0  0  0  0  0  0  0  0  0
   59.8320   28.3720   44.8400 C   0  0  0  0  0  0  0  0  0  0  0  0
   58.7450   29.2060   44.5600 C   0  0  0  0  0  0  0  0  0  0  0  0
   57.4137   33.4432   43.4628 H   0  0  0  0  0  0  0  0  0  0  0  0
   58.9526   35.0721   44.5479 H   0  0  0  0  0  0  0  0  0  0  0  0
   60.2928   35.7576   46.4810 H   0  0  0  0  0  0  0  0  0  0  0  0
   61.1287   35.3159   48.7897 H   0  0  0  0  0  0  0  0  0  0  0  0
   60.4289   33.2536   50.0037 H   0  0  0  0  0  0  0  0  0  0  0  0
   58.8924   31.6173   48.9184 H   0  0  0  0  0  0  0  0  0  0  0  0
   57.5502   30.9352   46.9879 H   0  0  0  0  0  0  0  0  0  0  0  0
   56.3392   27.5847   46.3767 H   0  0  0  0  0  0  0  0  0  0  0  0
   58.2827   26.0987   46.8652 H   0  0  0  0  0  0  0  0  0  0  0  0
   60.5204   26.5999   45.8787 H   0  0  0  0  0  0  0  0  0  0  0  0
   60.8201   28.5950   44.4111 H   0  0  0  0  0  0  0  0  0  0  0  0
   58.8840   30.0886   43.9183 H   0  0  0  0  0  0  0  0  0  0  0  0
  1  2  2  0
  2  3  1  0
  3  4  1  0
  4  5  2  0
  5  6  1  0
  6  7  2  0
  7  8  1  0
  8  9  2  0
  9 10  1  0
 10 11  2  0
 11 12  1  0
 12 13  2  0
  2 14  1  0
 14 15  2  0
 15 16  1  0
 16 17  2  0
 17 18  1  0
 18 19  2  0
 13  4  1  0
 19 14  1  0
 12  7  1  0
  5 20  1  0
  6 21  1  0
  8 22  1  0
  9 23  1  0
 10 24  1  0
 11 25  1  0
 13 26  1  0
 15 27  1  0
 16 28  1  0
 17 29  1  0
 18 30  1  0
 19 31  1  0
M  CHG  1   3  -1
M  END
>  <UniqueID>  (31) 
29

>  <SMILES>  (31) 
O=C([N-]c1ccc2ccccc2c1)c1ccccc1

>  <Energy>  (31) 
43.58544637852846

>  <Genealogy>  (31) 
O=C([N-]c1ccc2ccccc2c1)c1ccccc1 (protonated)
O=C([N-]c1ccc2ccccc2c1)c1ccccc1 (3D coordinates assigned)
O=C([N-]c1ccc2ccccc2c1)c1ccccc1 (optimized conformer: 43.58544637852846 kcal/mol)

>  <smiles>  (31) 
O=C(Nc1ccc2ccccc2c1)c1ccccc1

>  <score_type>  (31) 
oracle

>  <origin>  (31) 
adg

>  <m_score__min__energy>  (31) 
-9.3200000000000003

>  <m_primary>  (31) 
energy

$$$$
31:0
     RDKit          3D

 32 34  0  0  0  0  0  0  0  0999 V2000
   62.9360   33.6390   49.4830 C   0  0  0  0  0  0  0  0  0  0  0  0
   64.0550   33.0900   48.8610 C   0  0  0  0  0  0  0  0  0  0  0  0
   64.0530   32.8770   47.5180 N   0  0  0  0  0  0  0  0  0  0  0  0
   62.9800   33.2070   46.7460 C   0  0  0  0  0  0  0  0  0  0  0  0
   61.8470   33.8090   47.3210 C   0  0  0  0  0  0  0  0  0  0  0  0
   60.6380   34.1700   46.4650 C   0  0  0  0  0  0  0  0  0  0  0  0
   59.3110   34.1620   47.1370 N   0  0  0  0  0  0  0  0  0  0  0  0
   58.1900   34.5890   46.2900 C   0  0  0  0  0  0  0  0  0  0  0  0
   57.5190   33.2180   46.3420 C   0  0  0  0  0  0  0  0  0  0  0  0
   57.4970   32.4910   45.0170 C   0  0  0  0  0  0  0  0  0  0  0  0
   58.1450   33.0260   43.8940 C   0  0  0  0  0  0  0  0  0  0  0  0
   58.0810   32.3700   42.7050 N   0  0  0  0  0  0  0  0  0  0  0  0
   57.3810   31.2140   42.5760 C   0  0  0  0  0  0  0  0  0  0  0  0
   56.7030   30.6970   43.6800 C   0  0  0  0  0  0  0  0  0  0  0  0
   56.7690   31.3500   44.8690 N   0  0  0  0  0  0  0  0  0  0  0  0
   58.6800   32.8400   47.2600 C   0  0  0  0  0  0  0  0  0  0  0  0
   61.8230   33.9820   48.7140 C   0  0  0  0  0  0  0  0  0  0  0  0
   62.9297   33.8008   50.5710 H   0  0  0  0  0  0  0  0  0  0  0  0
   64.9416   32.8284   49.4572 H   0  0  0  0  0  0  0  0  0  0  0  0
   64.8920   32.4470   47.0680 H   0  0  0  0  0  0  0  0  0  0  0  0
   63.0003   33.0011   45.6656 H   0  0  0  0  0  0  0  0  0  0  0  0
   60.8029   35.1822   46.0671 H   0  0  0  0  0  0  0  0  0  0  0  0
   60.5788   33.3780   45.7040 H   0  0  0  0  0  0  0  0  0  0  0  0
   57.5835   35.3893   46.7392 H   0  0  0  0  0  0  0  0  0  0  0  0
   58.4091   35.0332   45.3078 H   0  0  0  0  0  0  0  0  0  0  0  0
   56.4648   33.0674   46.6176 H   0  0  0  0  0  0  0  0  0  0  0  0
   58.7019   33.9712   43.9749 H   0  0  0  0  0  0  0  0  0  0  0  0
   57.3488   30.6897   41.6095 H   0  0  0  0  0  0  0  0  0  0  0  0
   56.1201   29.7687   43.5884 H   0  0  0  0  0  0  0  0  0  0  0  0
   58.3652   32.5999   48.2863 H   0  0  0  0  0  0  0  0  0  0  0  0
   59.2742   31.9457   47.0208 H   0  0  0  0  0  0  0  0  0  0  0  0
   60.9244   34.3890   49.2007 H   0  0  0  0  0  0  0  0  0  0  0  0
  1  2  2  0
  2  3  1  0
  3  4  2  0
  4  5  1  0
  5  6  1  0
  6  7  1  0
  7  8  1  0
  8  9  1  0
  9 10  1  0
 10 11  2  0
 11 12  1  0
 12 13  2  0
 13 14  1  0
 14 15  2  0
  9 16  1  0
  5 17  2  0
 17  1  1  0
 16  7  1  0
 15 10  1  0
  1 18  1  0
  2 19  1  0
  3 20  1  0
  4 21  1  0
  6 22  1  0
  6 23  1  0
  8 24  1  0
  8 25  1  0
  9 26  1  0
 11 27  1  0
 13 28  1  0
 14 29  1  0
 16 30  1  0
 16 31  1  0
 17 32  1  0
M  CHG  1   3   1
M  END
>  <UniqueID>  (32) 
30

>  <SMILES>  (32) 
c1c[nH+]cc(CN2CC(c3cnccn3)C2)c1

>  <Energy>  (32) 
110.85918932151989

>  <Genealogy>  (32) 
c1c[nH+]cc(CN2CC(c3cnccn3)C2)c1 (protonated)
c1c[nH+]cc(CN2CC(c3cnccn3)C2)c1 (3D coordinates assigned)
c1c[nH+]cc(CN2CC(c3cnccn3)C2)c1 (nonaromatic ring conformer: 110.85918932151989 kcal/mol)

>  <smiles>  (32) 
c1cncc(CN2CC(c3cnccn3)C2)c1

>  <score_type>  (32) 
oracle

>  <origin>  (32) 
adg

>  <m_score__min__energy>  (32) 
-5.8200000000000003

>  <m_primary>  (32) 
energy

$$$$
32:0
     RDKit          3D

 64 65  0  0  0  0  0  0  0  0999 V2000
   60.0140   33.4710   52.0970 C   0  0  0  0  0  0  0  0  0  0  0  0
   58.4920   33.5810   52.0040 C   0  0  0  0  0  0  0  0  0  0  0  0
   57.7710   32.2800   52.3980 C   0  0  0  0  0  0  0  0  0  0  0  0
   57.4430   31.3430   51.2210 C   0  0  0  0  0  0  0  0  0  0  0  0
   58.3200   30.0810   51.1980 C   0  0  0  0  0  0  0  0  0  0  0  0
   59.6360   30.3400   50.4340 C   0  0  0  0  0  0  0  0  0  0  0  0
   59.5490   29.9370   49.0030 N   0  0  2  0  0  0  0  0  0  0  0  0
   60.2500   28.6780   48.7580 C   0  0  0  0  0  0  0  0  0  0  0  0
   61.1930   28.3200   49.5200 O   0  0  0  0  0  0  0  0  0  0  0  0
   59.9970   27.9190   47.5640 N   0  0  0  0  0  0  0  0  0  0  0  0
   58.7230   27.4700   47.0840 C   0  0  0  0  0  0  0  0  0  0  0  0
   58.3260   26.1610   47.3720 C   0  0  0  0  0  0  0  0  0  0  0  0
   57.0950   25.6790   46.9230 C   0  0  0  0  0  0  0  0  0  0  0  0
   56.2440   26.5010   46.1600 C   0  0  0  0  0  0  0  0  0  0  0  0
   54.9940   26.0560   45.6990 O   0  0  0  0  0  0  0  0  0  0  0  0
   54.6410   24.6890   45.5160 C   0  0  0  0  0  0  0  0  0  0  0  0
   56.6470   27.8080   45.8400 C   0  0  0  0  0  0  0  0  0  0  0  0
   55.7810   28.6010   45.0710 O   0  0  0  0  0  0  0  0  0  0  0  0
   56.2060   29.5860   44.1330 C   0  0  0  0  0  0  0  0  0  0  0  0
   57.8950   28.2830   46.2930 C   0  0  0  0  0  0  0  0  0  0  0  0
   60.0140   31.0140   48.0640 C   0  0  0  0  0  0  0  0  0  0  0  0
   60.2210   32.4060   48.7440 C   0  0  0  0  0  0  0  0  0  0  0  0
   59.0550   33.3750   48.5520 C   0  0  0  0  0  0  0  0  0  0  0  0
   58.6980   33.4210   47.1340 N   0  0  0  0  0  0  0  0  0  0  0  0
   59.1930   34.4840   46.2850 C   0  0  0  0  0  0  0  0  0  0  0  0
   58.7530   34.6220   44.8590 C   0  0  0  0  0  0  0  0  0  0  0  0
   60.0250   35.3150   46.7370 O   0  0  0  0  0  0  0  0  0  0  0  0
   58.1680   32.1710   46.5860 C   0  0  0  0  0  0  0  0  0  0  0  0
   59.2150   31.0530   46.7150 C   0  0  0  0  0  0  0  0  0  0  0  0
   60.3161   33.4492   53.1545 H   0  0  0  0  0  0  0  0  0  0  0  0
   60.3458   32.5465   51.6017 H   0  0  0  0  0  0  0  0  0  0  0  0
   60.4752   34.3382   51.6017 H   0  0  0  0  0  0  0  0  0  0  0  0
   58.1568   34.3850   52.6757 H   0  0  0  0  0  0  0  0  0  0  0  0
   58.2405   33.7921   50.9542 H   0  0  0  0  0  0  0  0  0  0  0  0
   58.4138   31.7323   53.1029 H   0  0  0  0  0  0  0  0  0  0  0  0
   56.8066   32.5797   52.8340 H   0  0  0  0  0  0  0  0  0  0  0  0
   56.3894   31.0367   51.2994 H   0  0  0  0  0  0  0  0  0  0  0  0
   57.6401   31.8986   50.2923 H   0  0  0  0  0  0  0  0  0  0  0  0
   58.5552   29.7868   52.2315 H   0  0  0  0  0  0  0  0  0  0  0  0
   57.7683   29.2783   50.6867 H   0  0  0  0  0  0  0  0  0  0  0  0
   59.8691   31.4138   50.4853 H   0  0  0  0  0  0  0  0  0  0  0  0
   60.4234   29.7343   50.9063 H   0  0  0  0  0  0  0  0  0  0  0  0
   58.5460   29.7410   48.7720 H   0  0  0  0  0  0  0  0  0  0  0  0
   58.9884   25.5058   47.9567 H   0  0  0  0  0  0  0  0  0  0  0  0
   56.7883   24.6511   47.1668 H   0  0  0  0  0  0  0  0  0  0  0  0
   54.5168   24.2078   46.4974 H   0  0  0  0  0  0  0  0  0  0  0  0
   53.6971   24.6260   44.9546 H   0  0  0  0  0  0  0  0  0  0  0  0
   55.4364   24.1769   44.9546 H   0  0  0  0  0  0  0  0  0  0  0  0
   56.5858   30.4662   44.6724 H   0  0  0  0  0  0  0  0  0  0  0  0
   57.0048   29.1702   43.5013 H   0  0  0  0  0  0  0  0  0  0  0  0
   55.3555   29.8819   43.5013 H   0  0  0  0  0  0  0  0  0  0  0  0
   58.2226   29.2983   46.0247 H   0  0  0  0  0  0  0  0  0  0  0  0
   61.0316   30.7194   47.7678 H   0  0  0  0  0  0  0  0  0  0  0  0
   60.3624   32.2455   49.8230 H   0  0  0  0  0  0  0  0  0  0  0  0
   61.0973   32.8659   48.2638 H   0  0  0  0  0  0  0  0  0  0  0  0
   58.1902   33.0312   49.1384 H   0  0  0  0  0  0  0  0  0  0  0  0
   59.3482   34.3790   48.8926 H   0  0  0  0  0  0  0  0  0  0  0  0
   57.7038   34.9511   44.8292 H   0  0  0  0  0  0  0  0  0  0  0  0
   59.3849   35.3651   44.3506 H   0  0  0  0  0  0  0  0  0  0  0  0
   58.8473   33.6511   44.3506 H   0  0  0  0  0  0  0  0  0  0  0  0
   57.2613   31.8863   47.1399 H   0  0  0  0  0  0  0  0  0  0  0  0
   57.9261   32.3174   45.5230 H   0  0  0  0  0  0  0  0  0  0  0  0
   58.6951   30.0901   46.6035 H   0  0  0  0  0  0  0  0  0  0  0  0
   59.9619   31.2535   45.9327 H   0  0  0  0  0  0  0  0  0  0  0  0
  1  2  1  0
  2  3  1  0
  3  4  1  0
  4  5  1  0
  5  6  1  0
  6  7  1  0
  7  8  1  0
  8  9  2  0
  8 10  1  0
 10 11  1  0
 11 12  2  0
 12 13  1  0
 13 14  2  0
 14 15  1  0
 15 16  1  0
 14 17  1  0
 17 18  1  0
 18 19  1  0
 17 20  2  0
  7 21  1  0
 21 22  1  0
 22 23  1  0
 23 24  1  0
 24 25  1  0
 25 26  1  0
 25 27  2  0
 24 28  1  0
 28 29  1  0
 20 11  1  0
 29 21  1  0
  1 30  1  0
  1 31  1  0
  1 32  1  0
  2 33  1  0
  2 34  1  0
  3 35  1  0
  3 36  1  0
  4 37  1  0
  4 38  1  0
  5 39  1  0
  5 40  1  0
  6 41  1  0
  6 42  1  0
  7 43  1  6
 12 44  1  0
 13 45  1  0
 16 46  1  0
 16 47  1  0
 16 48  1  0
 19 49  1  0
 19 50  1  0
 19 51  1  0
 20 52  1  0
 21 53  1  0
 22 54  1  0
 22 55  1  0
 23 56  1  0
 23 57  1  0
 26 58  1  0
 26 59  1  0
 26 60  1  0
 28 61  1  0
 28 62  1  0
 29 63  1  0
 29 64  1  0
M  CHG  2   7   1  10  -1
M  END
>  <UniqueID>  (33) 
31

>  <SMILES>  (33) 
CCCCCC[N@H+](C(=O)[N-]c1ccc(OC)c(OC)c1)C1CCN(C(C)=O)CC1

>  <Energy>  (33) 
74.31796742606093

>  <Genealogy>  (33) 
CCCCCC[NH+](C(=O)[N-]c1ccc(OC)c(OC)c1)C1CCN(C(C)=O)CC1 (protonated)
CCCCCC[N@H+](C(=O)[N-]c1ccc(OC)c(OC)c1)C1CCN(C(C)=O)CC1 (chirality)
CCCCCC[N@H+](C(=O)[N-]c1ccc(OC)c(OC)c1)C1CCN(C(C)=O)CC1 (3D coordinates assigned)
CCCCCC[N@H+](C(=O)[N-]c1ccc(OC)c(OC)c1)C1CCN(C(C)=O)CC1 (nonaromatic ring conformer: 74.31796742606093 kcal/mol)

>  <smiles>  (33) 
CCCCCCN(C(=O)Nc1ccc(OC)c(OC)c1)C1CCN(C(C)=O)CC1

>  <score_type>  (33) 
oracle

>  <origin>  (33) 
adg

>  <m_score__min__energy>  (33) 
-7.3799999999999999

>  <m_primary>  (33) 
energy

$$$$
33:0
     RDKit          3D

 48 51  0  0  0  0  0  0  0  0999 V2000
   60.1013   29.2274   45.0118 H   0  0  0  0  0  0  0  0  0  0  0  0
   59.3520   28.4260   44.9320 C   0  0  0  0  0  0  0  0  0  0  0  0
   59.2280   27.7570   43.7790 C   0  0  0  0  0  0  0  0  0  0  0  0
   59.9435   27.9540   42.9670 H   0  0  0  0  0  0  0  0  0  0  0  0
   58.1340   26.7400   43.5620 C   0  0  0  0  0  0  0  0  0  0  0  0
   57.2333   27.2582   43.2010 H   0  0  0  0  0  0  0  0  0  0  0  0
   58.4920   26.0065   42.8246 H   0  0  0  0  0  0  0  0  0  0  0  0
   57.7890   25.9870   44.8520 C   0  0  0  0  0  0  0  0  0  0  0  0
   56.8734   25.3977   44.6958 H   0  0  0  0  0  0  0  0  0  0  0  0
   58.6231   25.3193   45.1138 H   0  0  0  0  0  0  0  0  0  0  0  0
   57.5680   26.9600   45.9720 C   0  0  0  0  0  0  0  0  0  0  0  0
   56.5950   26.8000   46.7560 O   0  0  0  0  0  0  0  0  0  0  0  0
   58.5000   28.1090   46.1040 C   0  0  0  0  0  0  0  0  0  0  0  0
   58.6050   28.8680   47.2120 C   0  0  0  0  0  0  0  0  0  0  0  0
   58.0935   28.5207   48.1218 H   0  0  0  0  0  0  0  0  0  0  0  0
   59.3610   30.1360   47.2880 C   0  0  0  0  0  0  0  0  0  0  0  0
   58.8510   31.3090   46.7190 C   0  0  0  0  0  0  0  0  0  0  0  0
   57.6200   31.2890   46.0500 O   0  0  0  0  0  0  0  0  0  0  0  0
   57.5170   31.3770   44.6600 C   0  0  0  0  0  0  0  0  0  0  0  0
   58.2160   32.3890   43.9910 C   0  0  0  0  0  0  0  0  0  0  0  0
   58.8280   33.1018   44.5632 H   0  0  0  0  0  0  0  0  0  0  0  0
   58.1400   32.4980   42.6000 C   0  0  0  0  0  0  0  0  0  0  0  0
   58.6946   33.2928   42.0797 H   0  0  0  0  0  0  0  0  0  0  0  0
   57.3600   31.5980   41.8700 C   0  0  0  0  0  0  0  0  0  0  0  0
   57.3050   31.6816   40.7746 H   0  0  0  0  0  0  0  0  0  0  0  0
   56.6490   30.5910   42.5300 C   0  0  0  0  0  0  0  0  0  0  0  0
   56.0338   29.8865   41.9511 H   0  0  0  0  0  0  0  0  0  0  0  0
   56.7160   30.4740   43.9290 C   0  0  0  0  0  0  0  0  0  0  0  0
   55.9270   29.4070   44.6340 C   0  0  0  0  0  0  0  0  0  0  0  0
   56.0238   29.5379   45.7219 H   0  0  0  0  0  0  0  0  0  0  0  0
   54.8677   29.4850   44.3481 H   0  0  0  0  0  0  0  0  0  0  0  0
   56.3120   28.4170   44.3481 H   0  0  0  0  0  0  0  0  0  0  0  0
   59.5470   32.4680   46.8370 N   0  0  0  0  0  0  0  0  0  0  0  0
   60.7290   32.5260   47.5020 C   0  0  0  0  0  0  0  0  0  0  0  0
   61.3990   33.7490   47.5870 C   0  0  0  0  0  0  0  0  0  0  0  0
   60.9733   34.6468   47.1151 H   0  0  0  0  0  0  0  0  0  0  0  0
   62.6080   33.8250   48.2720 C   0  0  0  0  0  0  0  0  0  0  0  0
   63.1371   34.7862   48.3506 H   0  0  0  0  0  0  0  0  0  0  0  0
   63.1490   32.6780   48.8600 C   0  0  0  0  0  0  0  0  0  0  0  0
   64.4310   32.7560   49.6360 C   0  0  0  0  0  0  0  0  0  0  0  0
   64.2089   32.7425   50.7133 H   0  0  0  0  0  0  0  0  0  0  0  0
   65.0665   31.8949   49.3818 H   0  0  0  0  0  0  0  0  0  0  0  0
   64.9574   33.6878   49.3818 H   0  0  0  0  0  0  0  0  0  0  0  0
   62.4420   31.4710   48.7730 C   0  0  0  0  0  0  0  0  0  0  0  0
   62.8480   30.5697   49.2556 H   0  0  0  0  0  0  0  0  0  0  0  0
   61.2510   31.3960   48.0950 N   0  0  0  0  0  0  0  0  0  0  0  0
   60.5690   30.2060   48.0010 C   0  0  0  0  0  0  0  0  0  0  0  0
   61.0240   29.1610   48.5450 O   0  0  0  0  0  0  0  0  0  0  0  0
  1  2  1  0
  2  3  2  0
  3  4  1  0
  3  5  1  0
  5  6  1  0
  5  7  1  0
  5  8  1  0
  8  9  1  0
  8 10  1  0
  8 11  1  0
 11 12  2  0
 11 13  1  0
 13 14  2  0
 14 15  1  0
 14 16  1  0
 16 17  2  0
 17 18  1  0
 18 19  1  0
 19 20  2  0
 20 21  1  0
 20 22  1  0
 22 23  1  0
 22 24  2  0
 24 25  1  0
 24 26  1  0
 26 27  1  0
 26 28  2  0
 28 29  1  0
 29 30  1  0
 29 31  1  0
 29 32  1  0
 17 33  1  0
 33 34  2  0
 34 35  1  0
 35 36  1  0
 35 37  2  0
 37 38  1  0
 37 39  1  0
 39 40  1  0
 40 41  1  0
 40 42  1  0
 40 43  1  0
 39 44  2  0
 44 45  1  0
 44 46  1  0
 46 47  1  0
 47 48  2  0
 13  2  1  0
 47 16  1  0
 28 19  1  0
 46 34  1  0
M  END
>  <UniqueID>  (34) 
32

>  <SMILES>  (34) 
Cc1ccc2nc(Oc3ccccc3C)c(/C=C3/C=CCCC3=O)c(=O)n2c1

>  <Energy>  (34) 
72.24222733583704

>  <Genealogy>  (34) 
Cc1ccc2nc(Oc3ccccc3C)c(/C=C3/C=CCCC3=O)c(=O)n2c1 (cis-trans isomerization)
Cc1ccc2nc(Oc3ccccc3C)c(/C=C3/C=CCCC3=O)c(=O)n2c1 (3D coordinates assigned)
Cc1ccc2nc(Oc3ccccc3C)c(/C=C3/C=CCCC3=O)c(=O)n2c1 (nonaromatic ring conformer: 72.24222733583704 kcal/mol)

>  <smiles>  (34) 
Cc1ccc2nc(Oc3ccccc3C)c(C=C3C=CCCC3=O)c(=O)n2c1

>  <score_type>  (34) 
oracle

>  <origin>  (34) 
adg

>  <m_score__min__energy>  (34) 
-8.8200000000000003

>  <m_primary>  (34) 
energy

$$$$
34:0
     RDKit          3D

 24 24  0  0  0  0  0  0  0  0999 V2000
   57.4740   25.5530   47.0220 C   0  0  0  0  0  0  0  0  0  0  0  0
   56.2690   25.6890   46.0980 C   0  0  0  0  0  0  0  0  0  0  0  0
   55.8670   27.0890   45.9790 N   0  0  0  0  0  0  0  0  0  0  0  0
   56.6600   28.0670   45.2970 C   0  0  0  0  0  0  0  0  0  0  0  0
   57.7640   27.7420   44.7810 O   0  0  0  0  0  0  0  0  0  0  0  0
   56.2050   29.4250   45.2480 N   0  0  0  0  0  0  0  0  0  0  0  0
   56.7490   30.4810   44.4420 C   0  0  0  0  0  0  0  0  0  0  0  0
   56.6870   30.3620   43.0490 C   0  0  0  0  0  0  0  0  0  0  0  0
   57.2210   31.3580   42.2260 C   0  0  0  0  0  0  0  0  0  0  0  0
   57.8370   32.4770   42.7920 C   0  0  0  0  0  0  0  0  0  0  0  0
   57.9290   32.5970   44.1840 C   0  0  0  0  0  0  0  0  0  0  0  0
   58.5830   33.7390   44.7670 C   0  0  0  0  0  0  0  0  0  0  0  0
   59.1090   34.6570   45.2350 N   0  0  0  0  0  0  0  0  0  0  0  0
   57.3920   31.5980   45.0090 C   0  0  0  0  0  0  0  0  0  0  0  0
   57.1392   25.5908   48.0691 H   0  0  0  0  0  0  0  0  0  0  0  0
   57.9754   24.5926   46.8318 H   0  0  0  0  0  0  0  0  0  0  0  0
   58.1768   26.3775   46.8318 H   0  0  0  0  0  0  0  0  0  0  0  0
   56.5317   25.3025   45.1022 H   0  0  0  0  0  0  0  0  0  0  0  0
   55.4316   25.1145   46.5207 H   0  0  0  0  0  0  0  0  0  0  0  0
   54.9340   27.3740   46.3530 H   0  0  0  0  0  0  0  0  0  0  0  0
   56.2141   29.4773   42.5978 H   0  0  0  0  0  0  0  0  0  0  0  0
   57.1561   31.2606   41.1322 H   0  0  0  0  0  0  0  0  0  0  0  0
   58.2499   33.2640   42.1438 H   0  0  0  0  0  0  0  0  0  0  0  0
   57.4734   31.6874   46.1023 H   0  0  0  0  0  0  0  0  0  0  0  0
  1  2  1  0
  2  3  1  0
  3  4  1  0
  4  5  2  0
  4  6  1  0
  6  7  1  0
  7  8  2  0
  8  9  1  0
  9 10  2  0
 10 11  1  0
 11 12  1  0
 12 13  3  0
 11 14  2  0
 14  7  1  0
  1 15  1  0
  1 16  1  0
  1 17  1  0
  2 18  1  0
  2 19  1  0
  3 20  1  0
  8 21  1  0
  9 22  1  0
 10 23  1  0
 14 24  1  0
M  CHG  1   6  -1
M  END
>  <UniqueID>  (35) 
33

>  <SMILES>  (35) 
CCNC(=O)[N-]c1cccc(C#N)c1

>  <Energy>  (35) 
19.61451714791866

>  <Genealogy>  (35) 
CCNC(=O)[N-]c1cccc(C#N)c1 (protonated)
CCNC(=O)[N-]c1cccc(C#N)c1 (3D coordinates assigned)
CCNC(=O)[N-]c1cccc(C#N)c1 (optimized conformer: 19.61451714791866 kcal/mol)

>  <smiles>  (35) 
CCNC(=O)Nc1cccc(C#N)c1

>  <score_type>  (35) 
oracle

>  <origin>  (35) 
adg

>  <m_score__min__energy>  (35) 
-7.4400000000000004

>  <m_primary>  (35) 
energy

$$$$
35:0
     RDKit          3D

 31 32  0  0  0  0  0  0  0  0999 V2000
   55.1430   29.8250   43.2820 O   0  0  0  0  0  0  0  0  0  0  0  0
   56.1170   29.7040   44.0740 C   0  0  0  0  0  0  0  0  0  0  0  0
   57.4290   30.3330   43.7320 C   0  0  0  0  0  0  0  0  0  0  0  0
   57.6950   31.5000   44.6430 C   0  0  0  0  0  0  0  0  0  0  0  0
   57.4230   32.8100   44.2140 C   0  0  0  0  0  0  0  0  0  0  0  0
   57.6370   33.8920   45.0740 C   0  0  0  0  0  0  0  0  0  0  0  0
   58.1170   33.6730   46.3680 C   0  0  0  0  0  0  0  0  0  0  0  0
   58.3790   32.3710   46.8060 C   0  0  0  0  0  0  0  0  0  0  0  0
   58.1640   31.2870   45.9500 C   0  0  0  0  0  0  0  0  0  0  0  0
   56.0150   28.8830   45.2440 N   0  0  0  0  0  0  0  0  0  0  0  0
   56.9110   27.8310   45.6320 C   0  0  0  0  0  0  0  0  0  0  0  0
   58.3080   28.0000   45.5990 C   0  0  0  0  0  0  0  0  0  0  0  0
   59.1670   26.9480   45.9650 C   0  0  0  0  0  0  0  0  0  0  0  0
   60.5960   27.1290   45.9340 N   0  0  0  0  0  0  0  0  0  0  0  0
   61.1140   27.9810   45.1820 O   0  0  0  0  0  0  0  0  0  0  0  0
   61.4160   26.3610   46.7290 O   0  0  0  0  0  0  0  0  0  0  0  0
   58.6100   25.7160   46.3520 C   0  0  0  0  0  0  0  0  0  0  0  0
   57.2260   25.5370   46.3610 C   0  0  0  0  0  0  0  0  0  0  0  0
   56.3750   26.5880   45.9970 C   0  0  0  0  0  0  0  0  0  0  0  0
   54.9930   26.4050   46.0020 O   0  0  0  0  0  0  0  0  0  0  0  0
   58.2309   29.5893   43.8497 H   0  0  0  0  0  0  0  0  0  0  0  0
   57.3980   30.6880   42.6913 H   0  0  0  0  0  0  0  0  0  0  0  0
   57.0402   32.9853   43.1978 H   0  0  0  0  0  0  0  0  0  0  0  0
   57.4273   34.9161   44.7316 H   0  0  0  0  0  0  0  0  0  0  0  0
   58.2888   34.5250   47.0423 H   0  0  0  0  0  0  0  0  0  0  0  0
   58.7548   32.1997   47.8255 H   0  0  0  0  0  0  0  0  0  0  0  0
   58.3627   30.2636   46.3010 H   0  0  0  0  0  0  0  0  0  0  0  0
   58.7323   28.9647   45.2838 H   0  0  0  0  0  0  0  0  0  0  0  0
   59.2698   24.8877   46.6497 H   0  0  0  0  0  0  0  0  0  0  0  0
   56.8015   24.5658   46.6554 H   0  0  0  0  0  0  0  0  0  0  0  0
   54.3650   27.1130   46.3670 H   0  0  0  0  0  0  0  0  0  0  0  0
  1  2  2  0
  2  3  1  0
  3  4  1  0
  4  5  2  0
  5  6  1  0
  6  7  2  0
  7  8  1  0
  8  9  2  0
  2 10  1  0
 10 11  1  0
 11 12  2  0
 12 13  1  0
 13 14  1  0
 14 15  2  0
 14 16  1  0
 13 17  2  0
 17 18  1  0
 18 19  2  0
 19 20  1  0
  9  4  1  0
 19 11  1  0
  3 21  1  0
  3 22  1  0
  5 23  1  0
  6 24  1  0
  7 25  1  0
  8 26  1  0
  9 27  1  0
 12 28  1  0
 17 29  1  0
 18 30  1  0
 20 31  1  0
M  CHG  3  10  -1  14   1  16  -1
M  END
>  <UniqueID>  (36) 
34

>  <SMILES>  (36) 
O=C(Cc1ccccc1)[N-]c1cc([N+](=O)[O-])ccc1O

>  <Energy>  (36) 
34.20207070954926

>  <Genealogy>  (36) 
O=C(Cc1ccccc1)[N-]c1cc([N+](=O)[O-])ccc1O (protonated)
O=C(Cc1ccccc1)[N-]c1cc([N+](=O)[O-])ccc1O (3D coordinates assigned)
O=C(Cc1ccccc1)[N-]c1cc([N+](=O)[O-])ccc1O (optimized conformer: 34.20207070954926 kcal/mol)

>  <smiles>  (36) 
O=C(Cc1ccccc1)Nc1cc([N+](=O)[O-])ccc1O

>  <score_type>  (36) 
oracle

>  <origin>  (36) 
adg

>  <m_score__min__energy>  (36) 
-10.390000000000001

>  <m_primary>  (36) 
energy

$$$$
36:0
     RDKit          3D

 34 37  0  0  0  0  0  0  0  0999 V2000
   57.7300   33.0090   52.6710 C   0  0  0  0  0  0  0  0  0  0  0  0
   58.7390   33.8580   52.2120 C   0  0  0  0  0  0  0  0  0  0  0  0
   59.3830   33.5930   51.0010 C   0  0  0  0  0  0  0  0  0  0  0  0
   59.0170   32.4720   50.2290 C   0  0  0  0  0  0  0  0  0  0  0  0
   59.7060   32.1760   48.9450 C   0  0  0  0  0  0  0  0  0  0  0  0
   60.6930   31.3230   48.9690 N   0  0  0  0  0  0  0  0  0  0  0  0
   61.5020   30.9190   47.8280 C   0  0  0  0  0  0  0  0  0  0  0  0
   62.2140   32.1160   47.2960 C   0  0  0  0  0  0  0  0  0  0  0  0
   63.5530   32.2360   47.2190 N   0  0  0  0  0  0  0  0  0  0  0  0
   63.7690   33.4560   46.6890 C   0  0  0  0  0  0  0  0  0  0  0  0
   62.5490   34.0580   46.4520 C   0  0  0  0  0  0  0  0  0  0  0  0
   61.5760   33.2120   46.8480 N   0  0  0  0  0  0  0  0  0  0  0  0
   60.1520   33.3880   46.7260 C   0  0  0  0  0  0  0  0  0  0  0  0
   59.6410   34.0810   45.6140 C   0  0  0  0  0  0  0  0  0  0  0  0
   58.2650   34.2150   45.4270 C   0  0  0  0  0  0  0  0  0  0  0  0
   57.3800   33.6540   46.3430 C   0  0  0  0  0  0  0  0  0  0  0  0
   57.8650   32.9710   47.4580 C   0  0  0  0  0  0  0  0  0  0  0  0
   59.2510   32.8380   47.6790 C   0  0  0  0  0  0  0  0  0  0  0  0
   58.0070   31.6170   50.7090 C   0  0  0  0  0  0  0  0  0  0  0  0
   57.3660   31.8880   51.9220 C   0  0  0  0  0  0  0  0  0  0  0  0
   57.2217   33.2232   53.6227 H   0  0  0  0  0  0  0  0  0  0  0  0
   59.0276   34.7380   52.8056 H   0  0  0  0  0  0  0  0  0  0  0  0
   60.1805   34.2632   50.6478 H   0  0  0  0  0  0  0  0  0  0  0  0
   62.2355   30.1627   48.1441 H   0  0  0  0  0  0  0  0  0  0  0  0
   60.8580   30.4893   47.0466 H   0  0  0  0  0  0  0  0  0  0  0  0
   64.2740   31.5370   47.5040 H   0  0  0  0  0  0  0  0  0  0  0  0
   64.7539   33.8989   46.4798 H   0  0  0  0  0  0  0  0  0  0  0  0
   62.3968   35.0561   46.0153 H   0  0  0  0  0  0  0  0  0  0  0  0
   60.3344   34.5226   44.8831 H   0  0  0  0  0  0  0  0  0  0  0  0
   57.8794   34.7642   44.5554 H   0  0  0  0  0  0  0  0  0  0  0  0
   56.2953   33.7496   46.1871 H   0  0  0  0  0  0  0  0  0  0  0  0
   57.1565   32.5301   48.1747 H   0  0  0  0  0  0  0  0  0  0  0  0
   57.7199   30.7295   50.1259 H   0  0  0  0  0  0  0  0  0  0  0  0
   56.5740   31.2173   52.2866 H   0  0  0  0  0  0  0  0  0  0  0  0
  1  2  2  0
  2  3  1  0
  3  4  2  0
  4  5  1  0
  5  6  2  0
  6  7  1  0
  7  8  1  0
  8  9  2  0
  9 10  1  0
 10 11  2  0
 11 12  1  0
 12 13  1  0
 13 14  2  0
 14 15  1  0
 15 16  2  0
 16 17  1  0
 17 18  2  0
  4 19  1  0
 19 20  2  0
 20  1  1  0
 18  5  1  0
 12  8  1  0
 18 13  1  0
  1 21  1  0
  2 22  1  0
  3 23  1  0
  7 24  1  0
  7 25  1  0
  9 26  1  0
 10 27  1  0
 11 28  1  0
 14 29  1  0
 15 30  1  0
 16 31  1  0
 17 32  1  0
 19 33  1  0
 20 34  1  0
M  CHG  1   9   1
M  END
>  <UniqueID>  (37) 
35

>  <SMILES>  (37) 
c1ccc(C2=NCc3[nH+]ccn3-c3ccccc32)cc1

>  <Energy>  (37) 
84.18819231612062

>  <Genealogy>  (37) 
c1ccc(C2=NCc3[nH+]ccn3-c3ccccc32)cc1 (protonated)
c1ccc(C2=NCc3[nH+]ccn3-c3ccccc32)cc1 (3D coordinates assigned)
c1ccc(C2=NCc3[nH+]ccn3-c3ccccc32)cc1 (nonaromatic ring conformer: 84.18819231612062 kcal/mol)

>  <smiles>  (37) 
c1ccc(C2=NCc3nccn3-c3ccccc32)cc1

>  <score_type>  (37) 
oracle

>  <origin>  (37) 
adg

>  <m_score__min__energy>  (37) 
-5.7599999999999998

>  <m_primary>  (37) 
energy

$$$$
37:0
     RDKit          3D

 29 30  0  0  0  0  0  0  0  0999 V2000
   57.1017   33.4519   43.2239 H   0  0  0  0  0  0  0  0  0  0  0  0
   57.7910   32.8600   43.8440 C   0  0  0  0  0  0  0  0  0  0  0  0
   58.1070   31.6210   43.4370 C   0  0  0  0  0  0  0  0  0  0  0  0
   58.6686   31.5091   42.4978 H   0  0  0  0  0  0  0  0  0  0  0  0
   57.7400   30.3950   44.1850 C   0  0  0  0  0  0  0  0  0  0  0  0
   58.7520   29.6050   44.7430 C   0  0  0  0  0  0  0  0  0  0  0  0
   59.8058   29.8929   44.6138 H   0  0  0  0  0  0  0  0  0  0  0  0
   58.4380   28.4850   45.4430 N   0  0  0  0  0  0  0  0  0  0  0  0
   57.1430   28.1070   45.6280 C   0  0  0  0  0  0  0  0  0  0  0  0
   56.8540   27.0320   46.3000 N   0  0  0  0  0  0  0  0  0  0  0  0
   56.8730   25.6870   45.7350 C   0  0  0  0  0  0  0  0  0  0  0  0
   56.8834   24.9474   46.5492 H   0  0  0  0  0  0  0  0  0  0  0  0
   55.9769   25.5371   45.1149 H   0  0  0  0  0  0  0  0  0  0  0  0
   57.7730   25.5625   45.1149 H   0  0  0  0  0  0  0  0  0  0  0  0
   56.1410   28.8670   45.1100 N   0  0  0  0  0  0  0  0  0  0  0  0
   55.1430   28.5900   45.2590 H   0  0  0  0  0  0  0  0  0  0  0  0
   56.4100   29.9970   44.4030 C   0  0  0  0  0  0  0  0  0  0  0  0
   55.5839   30.6015   44.0004 H   0  0  0  0  0  0  0  0  0  0  0  0
   58.3220   33.4740   45.0860 C   0  0  0  0  0  0  0  0  0  0  0  0
   59.2100   34.5700   45.0660 C   0  0  0  0  0  0  0  0  0  0  0  0
   59.5223   35.0048   44.1050 H   0  0  0  0  0  0  0  0  0  0  0  0
   59.6950   35.1060   46.2640 C   0  0  0  0  0  0  0  0  0  0  0  0
   60.3817   35.9651   46.2414 H   0  0  0  0  0  0  0  0  0  0  0  0
   59.3110   34.5550   47.4880 C   0  0  0  0  0  0  0  0  0  0  0  0
   59.6890   34.9840   48.4277 H   0  0  0  0  0  0  0  0  0  0  0  0
   58.4460   33.4580   47.5180 C   0  0  0  0  0  0  0  0  0  0  0  0
   58.1479   33.0196   48.4818 H   0  0  0  0  0  0  0  0  0  0  0  0
   57.9590   32.9170   46.3240 C   0  0  0  0  0  0  0  0  0  0  0  0
   57.2857   32.0476   46.3541 H   0  0  0  0  0  0  0  0  0  0  0  0
  1  2  1  0
  2  3  2  0
  3  4  1  0
  3  5  1  0
  5  6  1  0
  6  7  1  0
  6  8  2  0
  8  9  1  0
  9 10  2  0
 10 11  1  0
 11 12  1  0
 11 13  1  0
 11 14  1  0
  9 15  1  0
 15 16  1  0
 15 17  1  0
 17 18  1  0
  2 19  1  0
 19 20  2  0
 20 21  1  0
 20 22  1  0
 22 23  1  0
 22 24  2  0
 24 25  1  0
 24 26  1  0
 26 27  1  0
 26 28  2  0
 28 29  1  0
 17  5  2  0
 28 19  1  0
M  END
>  <UniqueID>  (38) 
36

>  <SMILES>  (38) 
C/N=c1\ncc(/C=C/c2ccccc2)c[nH]1

>  <Energy>  (38) 
33.554246008163425

>  <Genealogy>  (38) 
C/N=c1\ncc(/C=C/c2ccccc2)c[nH]1 (cis-trans isomerization)
C/N=c1\ncc(/C=C/c2ccccc2)c[nH]1 (3D coordinates assigned)
C/N=c1\ncc(/C=C/c2ccccc2)c[nH]1 (optimized conformer: 33.554246008163425 kcal/mol)

>  <smiles>  (38) 
CN=c1ncc(C=Cc2ccccc2)c[nH]1

>  <score_type>  (38) 
oracle

>  <origin>  (38) 
adg

>  <m_score__min__energy>  (38) 
-6.7199999999999998

>  <m_primary>  (38) 
energy

$$$$
38:0
     RDKit          3D

 33 34  0  0  0  0  0  0  0  0999 V2000
   58.7790   31.6090   48.0730 C   0  0  0  0  0  0  0  0  0  0  0  0
   58.7690   32.5260   46.8810 C   0  0  0  0  0  0  0  0  0  0  0  0
   59.0480   33.8930   47.0470 C   0  0  0  0  0  0  0  0  0  0  0  0
   59.0520   34.7510   45.9470 C   0  0  0  0  0  0  0  0  0  0  0  0
   58.7660   34.2590   44.6730 C   0  0  0  0  0  0  0  0  0  0  0  0
   58.4900   32.9010   44.4860 C   0  0  0  0  0  0  0  0  0  0  0  0
   58.0310   32.3600   42.8750 Cl  0  0  0  0  0  0  0  0  0  0  0  0
   58.5170   32.0170   45.5890 C   0  0  0  0  0  0  0  0  0  0  0  0
   58.2400   30.6190   45.4260 N   0  0  0  0  0  0  0  0  0  0  0  0
   57.0230   30.0990   44.8850 C   0  0  0  0  0  0  0  0  0  0  0  0
   55.9890   30.8200   44.8230 O   0  0  0  0  0  0  0  0  0  0  0  0
   56.9700   28.6850   44.4030 C   0  0  0  0  0  0  0  0  0  0  0  0
   56.1260   27.9080   45.2500 O   0  0  0  0  0  0  0  0  0  0  0  0
   56.5910   26.8470   46.0370 C   0  0  0  0  0  0  0  0  0  0  0  0
   55.8070   25.9150   46.3700 O   0  0  0  0  0  0  0  0  0  0  0  0
   58.0020   26.8190   46.4750 C   0  0  0  0  0  0  0  0  0  0  0  0
   58.5010   27.7770   47.3750 C   0  0  0  0  0  0  0  0  0  0  0  0
   59.8350   27.7310   47.7810 C   0  0  0  0  0  0  0  0  0  0  0  0
   60.6660   26.7260   47.2850 C   0  0  0  0  0  0  0  0  0  0  0  0
   60.1750   25.8040   46.4170 N   0  0  0  0  0  0  0  0  0  0  0  0
   58.8780   25.8260   46.0050 C   0  0  0  0  0  0  0  0  0  0  0  0
   58.7725   32.2074   48.9960 H   0  0  0  0  0  0  0  0  0  0  0  0
   57.8878   30.9647   48.0474 H   0  0  0  0  0  0  0  0  0  0  0  0
   59.6840   30.9843   48.0474 H   0  0  0  0  0  0  0  0  0  0  0  0
   59.2645   34.2890   48.0501 H   0  0  0  0  0  0  0  0  0  0  0  0
   59.2812   35.8181   46.0843 H   0  0  0  0  0  0  0  0  0  0  0  0
   58.7576   34.9428   43.8114 H   0  0  0  0  0  0  0  0  0  0  0  0
   56.5730   28.6652   43.3773 H   0  0  0  0  0  0  0  0  0  0  0  0
   57.9849   28.2612   44.4207 H   0  0  0  0  0  0  0  0  0  0  0  0
   57.8375   28.5653   47.7603 H   0  0  0  0  0  0  0  0  0  0  0  0
   60.2276   28.4795   48.4850 H   0  0  0  0  0  0  0  0  0  0  0  0
   61.7198   26.6804   47.5972 H   0  0  0  0  0  0  0  0  0  0  0  0
   58.5140   25.0631   45.3011 H   0  0  0  0  0  0  0  0  0  0  0  0
  1  2  1  0
  2  3  2  0
  3  4  1  0
  4  5  2  0
  5  6  1  0
  6  7  1  0
  6  8  2  0
  8  9  1  0
  9 10  1  0
 10 11  2  0
 10 12  1  0
 12 13  1  0
 13 14  1  0
 14 15  2  0
 14 16  1  0
 16 17  2  0
 17 18  1  0
 18 19  2  0
 19 20  1  0
 20 21  2  0
  8  2  1  0
 21 16  1  0
  1 22  1  0
  1 23  1  0
  1 24  1  0
  3 25  1  0
  4 26  1  0
  5 27  1  0
 12 28  1  0
 12 29  1  0
 17 30  1  0
 18 31  1  0
 19 32  1  0
 21 33  1  0
M  CHG  1   9  -1
M  END
>  <UniqueID>  (39) 
37

>  <SMILES>  (39) 
Cc1cccc(Cl)c1[N-]C(=O)COC(=O)c1cccnc1

>  <Energy>  (39) 
38.57508189087806

>  <Genealogy>  (39) 
Cc1cccc(Cl)c1[N-]C(=O)COC(=O)c1cccnc1 (protonated)
Cc1cccc(Cl)c1[N-]C(=O)COC(=O)c1cccnc1 (3D coordinates assigned)
Cc1cccc(Cl)c1[N-]C(=O)COC(=O)c1cccnc1 (optimized conformer: 38.57508189087806 kcal/mol)

>  <smiles>  (39) 
Cc1cccc(Cl)c1NC(=O)COC(=O)c1cccnc1

>  <score_type>  (39) 
oracle

>  <origin>  (39) 
adg

>  <m_score__min__energy>  (39) 
-8.7400000000000002

>  <m_primary>  (39) 
energy

$$$$
39:0
     RDKit          3D

 20 20  0  0  1  0  0  0  0  0999 V2000
   54.4120   25.1470   45.7760 O   0  0  0  0  0  0  0  0  0  0  0  0
   55.5620   25.6240   45.9870 C   0  0  0  0  0  0  0  0  0  0  0  0
   56.4850   24.7670   46.4980 N   0  0  0  0  0  0  0  0  0  0  0  0
   57.7450   25.1960   46.7550 C   0  0  0  0  0  0  0  0  0  0  0  0
   58.0810   26.5150   46.4930 C   0  0  0  0  0  0  0  0  0  0  0  0
   57.1110   27.3420   45.9770 C   0  0  0  0  0  0  0  0  0  0  0  0
   57.4030   28.5590   45.7300 N   0  0  0  0  0  0  0  0  0  0  0  0
   57.4120   29.1580   44.4130 C   0  0  0  0  0  0  0  0  0  0  0  0
   56.1470   29.9270   44.1040 C   0  0  0  0  0  0  0  0  0  0  0  0
   55.1640   29.6650   45.0840 O   0  0  0  0  0  0  0  0  0  0  0  0
   55.8690   26.9060   45.7280 N   0  0  0  0  0  0  0  0  0  0  0  0
   56.2530   23.7590   46.7040 H   0  0  0  0  0  0  0  0  0  0  0  0
   58.4938   24.5038   47.1676 H   0  0  0  0  0  0  0  0  0  0  0  0
   59.0957   26.8899   46.6924 H   0  0  0  0  0  0  0  0  0  0  0  0
   58.2662   29.8480   44.3477 H   0  0  0  0  0  0  0  0  0  0  0  0
   57.4869   28.3406   43.6807 H   0  0  0  0  0  0  0  0  0  0  0  0
   56.3704   31.0040   44.0925 H   0  0  0  0  0  0  0  0  0  0  0  0
   55.7666   29.6113   43.1213 H   0  0  0  0  0  0  0  0  0  0  0  0
   55.5910   29.7260   45.9820 H   0  0  0  0  0  0  0  0  0  0  0  0
   55.1460   27.5380   45.3380 H   0  0  0  0  0  0  0  0  0  0  0  0
  1  2  2  0
  2  3  1  0
  3  4  1  0
  4  5  2  0
  5  6  1  0
  6  7  2  0
  7  8  1  0
  8  9  1  0
  9 10  1  0
  6 11  1  0
 11  2  1  0
  3 12  1  0
  4 13  1  0
  5 14  1  0
  8 15  1  0
  8 16  1  0
  9 17  1  0
  9 18  1  0
 10 19  1  0
 11 20  1  0
M  END
>  <smiles>  (40) 
O=c1[nH]ccc(=NCCO)[nH]1

>  <score_type>  (40) 
oracle

>  <origin>  (40) 
adg

>  <m_score__min__energy>  (40) 
-5.0300000000000002

>  <m_primary>  (40) 
energy

$$$$
40:0
     RDKit          3D

 30 31  0  0  0  0  0  0  0  0999 V2000
   60.0520   28.6470   49.1630 C   0  0  0  0  0  0  0  0  0  0  0  0
   58.9350   29.3810   48.4300 C   0  0  0  0  0  0  0  0  0  0  0  0
   59.2510   29.5110   47.0030 N   0  0  0  0  0  0  0  0  0  0  0  0
   60.3370   28.7370   46.3880 C   0  0  0  0  0  0  0  0  0  0  0  0
   60.3430   28.9280   44.8760 C   0  0  0  0  0  0  0  0  0  0  0  0
   58.4150   30.3300   46.1710 C   0  0  0  0  0  0  0  0  0  0  0  0
   57.4630   29.7380   45.4010 N   0  0  0  0  0  0  0  0  0  0  0  0
   56.6480   30.4660   44.5960 C   0  0  0  0  0  0  0  0  0  0  0  0
   55.5180   29.7150   43.6900 S   0  0  0  0  0  0  0  0  0  0  0  0
   56.7700   31.8180   44.5450 N   0  0  0  0  0  0  0  0  0  0  0  0
   57.7020   32.4640   45.2910 C   0  0  0  0  0  0  0  0  0  0  0  0
   57.8100   33.8580   45.2230 C   0  0  0  0  0  0  0  0  0  0  0  0
   58.7700   34.5240   45.9900 C   0  0  0  0  0  0  0  0  0  0  0  0
   59.6240   33.8020   46.8280 C   0  0  0  0  0  0  0  0  0  0  0  0
   59.5250   32.4090   46.9050 C   0  0  0  0  0  0  0  0  0  0  0  0
   58.5630   31.7290   46.1360 C   0  0  0  0  0  0  0  0  0  0  0  0
   59.9039   28.7443   50.2486 H   0  0  0  0  0  0  0  0  0  0  0  0
   60.0358   27.5829   48.8846 H   0  0  0  0  0  0  0  0  0  0  0  0
   61.0223   29.0841   48.8846 H   0  0  0  0  0  0  0  0  0  0  0  0
   57.9973   28.8170   48.5426 H   0  0  0  0  0  0  0  0  0  0  0  0
   58.8287   30.3869   48.8624 H   0  0  0  0  0  0  0  0  0  0  0  0
   61.2996   29.0755   46.7989 H   0  0  0  0  0  0  0  0  0  0  0  0
   60.1820   27.6708   46.6099 H   0  0  0  0  0  0  0  0  0  0  0  0
   60.3767   30.0024   44.6423 H   0  0  0  0  0  0  0  0  0  0  0  0
   61.2260   28.4316   44.4472 H   0  0  0  0  0  0  0  0  0  0  0  0
   59.4306   28.4879   44.4472 H   0  0  0  0  0  0  0  0  0  0  0  0
   57.1387   34.4298   44.5653 H   0  0  0  0  0  0  0  0  0  0  0  0
   58.8535   35.6194   45.9339 H   0  0  0  0  0  0  0  0  0  0  0  0
   60.3774   34.3315   47.4297 H   0  0  0  0  0  0  0  0  0  0  0  0
   60.1991   31.8453   47.5666 H   0  0  0  0  0  0  0  0  0  0  0  0
  1  2  1  0
  2  3  1  0
  3  4  1  0
  4  5  1  0
  3  6  1  0
  6  7  2  0
  7  8  1  0
  8  9  2  0
  8 10  1  0
 10 11  1  0
 11 12  2  0
 12 13  1  0
 13 14  2  0
 14 15  1  0
 15 16  2  0
 16  6  1  0
 16 11  1  0
  1 17  1  0
  1 18  1  0
  1 19  1  0
  2 20  1  0
  2 21  1  0
  4 22  1  0
  4 23  1  0
  5 24  1  0
  5 25  1  0
  5 26  1  0
 12 27  1  0
 13 28  1  0
 14 29  1  0
 15 30  1  0
M  CHG  1  10  -1
M  END
>  <UniqueID>  (41) 
38

>  <SMILES>  (41) 
CCN(CC)c1nc(=S)[n-]c2ccccc12

>  <Energy>  (41) 
32.496455346691405

>  <Genealogy>  (41) 
CCN(CC)c1nc(=S)[n-]c2ccccc12 (protonated)
CCN(CC)c1nc(=S)[n-]c2ccccc12 (3D coordinates assigned)
CCN(CC)c1nc(=S)[n-]c2ccccc12 (optimized conformer: 32.496455346691405 kcal/mol)

>  <smiles>  (41) 
CCN(CC)c1nc(=S)[nH]c2ccccc12

>  <score_type>  (41) 
oracle

>  <origin>  (41) 
adg

>  <m_score__min__energy>  (41) 
-6.9400000000000004

>  <m_primary>  (41) 
energy

$$$$
41:0
     RDKit          3D

 33 35  0  0  0  0  0  0  0  0999 V2000
   62.2080   33.8520   46.2560 O   0  0  0  0  0  0  0  0  0  0  0  0
   61.8200   33.5290   47.4130 C   0  0  0  0  0  0  0  0  0  0  0  0
   60.4420   33.2640   47.6430 N   0  0  0  0  0  0  0  0  0  0  0  0
   59.5340   33.3740   46.5470 C   0  0  0  0  0  0  0  0  0  0  0  0
   59.2760   34.5930   45.9400 C   0  0  0  0  0  0  0  0  0  0  0  0
   58.3930   34.7060   44.8720 C   0  0  0  0  0  0  0  0  0  0  0  0
   57.7670   33.5550   44.4200 C   0  0  0  0  0  0  0  0  0  0  0  0
   58.0320   32.3440   45.0310 C   0  0  0  0  0  0  0  0  0  0  0  0
   57.3520   31.1590   44.5220 C   0  0  0  0  0  0  0  0  0  0  0  0
   56.0540   30.8160   44.7480 N   0  0  0  0  0  0  0  0  0  0  0  0
   55.8080   29.6580   44.1090 C   0  0  0  0  0  0  0  0  0  0  0  0
   56.9780   29.2610   43.4650 C   0  0  0  0  0  0  0  0  0  0  0  0
   57.9200   30.2090   43.7370 N   0  0  0  0  0  0  0  0  0  0  0  0
   58.9050   32.2200   46.0900 C   0  0  0  0  0  0  0  0  0  0  0  0
   62.8150   33.4450   48.4520 C   0  0  0  0  0  0  0  0  0  0  0  0
   62.6340   34.1690   49.6120 C   0  0  0  0  0  0  0  0  0  0  0  0
   63.5710   34.1080   50.6240 C   0  0  0  0  0  0  0  0  0  0  0  0
   64.7170   33.3420   50.5450 C   0  0  0  0  0  0  0  0  0  0  0  0
   65.8830   33.2870   51.8460 Cl  0  0  0  0  0  0  0  0  0  0  0  0
   64.8910   32.6170   49.3730 C   0  0  0  0  0  0  0  0  0  0  0  0
   63.9550   32.6800   48.3650 C   0  0  0  0  0  0  0  0  0  0  0  0
   60.0980   32.9960   48.5900 H   0  0  0  0  0  0  0  0  0  0  0  0
   59.7833   35.4949   46.3131 H   0  0  0  0  0  0  0  0  0  0  0  0
   58.1970   35.6800   44.3998 H   0  0  0  0  0  0  0  0  0  0  0  0
   57.0614   33.6052   43.5776 H   0  0  0  0  0  0  0  0  0  0  0  0
   54.8496   29.1183   44.0970 H   0  0  0  0  0  0  0  0  0  0  0  0
   57.1156   28.3565   42.8543 H   0  0  0  0  0  0  0  0  0  0  0  0
   58.8940   30.1500   43.3710 H   0  0  0  0  0  0  0  0  0  0  0  0
   59.0978   31.2432   46.5576 H   0  0  0  0  0  0  0  0  0  0  0  0
   61.7393   34.7977   49.7312 H   0  0  0  0  0  0  0  0  0  0  0  0
   63.3964   34.6974   51.5362 H   0  0  0  0  0  0  0  0  0  0  0  0
   65.7842   31.9871   49.2490 H   0  0  0  0  0  0  0  0  0  0  0  0
   64.1263   32.0932   47.4505 H   0  0  0  0  0  0  0  0  0  0  0  0
  1  2  2  0
  2  3  1  0
  3  4  1  0
  4  5  2  0
  5  6  1  0
  6  7  2  0
  7  8  1  0
  8  9  1  0
  9 10  2  0
 10 11  1  0
 11 12  2  0
 12 13  1  0
  8 14  2  0
  2 15  1  0
 15 16  2  0
 16 17  1  0
 17 18  2  0
 18 19  1  0
 18 20  1  0
 20 21  2  0
 14  4  1  0
 21 15  1  0
 13  9  1  0
  3 22  1  0
  5 23  1  0
  6 24  1  0
  7 25  1  0
 11 26  1  0
 12 27  1  0
 13 28  1  0
 14 29  1  0
 16 30  1  0
 17 31  1  0
 20 32  1  0
 21 33  1  0
M  END
>  <smiles>  (42) 
O=C(Nc1cccc(-c2ncc[nH]2)c1)c1ccc(Cl)cc1

>  <score_type>  (42) 
oracle

>  <origin>  (42) 
adg

>  <m_score__min__energy>  (42) 
-7.7599999999999998

>  <m_primary>  (42) 
energy

$$$$
42:0
     RDKit          3D

 24 26  0  0  0  0  0  0  0  0999 V2000
   55.6060   29.3920   44.0550 O   0  0  0  0  0  0  0  0  0  0  0  0
   56.5810   29.6950   44.7940 C   0  0  0  0  0  0  0  0  0  0  0  0
   57.0270   31.0260   44.8710 C   0  0  0  0  0  0  0  0  0  0  0  0
   58.1290   31.3650   45.7070 C   0  0  0  0  0  0  0  0  0  0  0  0
   58.6520   32.7640   45.8340 C   0  0  0  0  0  0  0  0  0  0  0  0
   58.6670   33.6740   44.7510 C   0  0  0  0  0  0  0  0  0  0  0  0
   59.1650   34.9710   44.9140 C   0  0  0  0  0  0  0  0  0  0  0  0
   59.6570   35.3850   46.1510 C   0  0  0  0  0  0  0  0  0  0  0  0
   59.6520   34.5040   47.2310 C   0  0  0  0  0  0  0  0  0  0  0  0
   59.1550   33.2060   47.0780 C   0  0  0  0  0  0  0  0  0  0  0  0
   58.7350   30.3720   46.4280 N   0  0  0  0  0  0  0  0  0  0  0  0
   58.2990   29.0930   46.3480 C   0  0  0  0  0  0  0  0  0  0  0  0
   58.9220   27.7620   47.1550 S   0  0  0  0  0  0  0  0  0  0  0  0
   57.8120   26.6800   46.4750 C   0  0  0  0  0  0  0  0  0  0  0  0
   57.7630   24.9620   46.8120 Cl  0  0  0  0  0  0  0  0  0  0  0  0
   56.9500   27.3550   45.6130 C   0  0  0  0  0  0  0  0  0  0  0  0
   57.2370   28.7240   45.5490 C   0  0  0  0  0  0  0  0  0  0  0  0
   56.5233   31.8079   44.2838 H   0  0  0  0  0  0  0  0  0  0  0  0
   58.2828   33.3582   43.7698 H   0  0  0  0  0  0  0  0  0  0  0  0
   59.1684   35.6673   44.0624 H   0  0  0  0  0  0  0  0  0  0  0  0
   60.0486   36.4055   46.2745 H   0  0  0  0  0  0  0  0  0  0  0  0
   60.0403   34.8309   48.2069 H   0  0  0  0  0  0  0  0  0  0  0  0
   59.1557   32.5198   47.9378 H   0  0  0  0  0  0  0  0  0  0  0  0
   56.1397   26.8696   45.0493 H   0  0  0  0  0  0  0  0  0  0  0  0
  1  2  2  0
  2  3  1  0
  3  4  2  0
  4  5  1  0
  5  6  2  0
  6  7  1  0
  7  8  2  0
  8  9  1  0
  9 10  2  0
  4 11  1  0
 11 12  1  0
 12 13  1  0
 13 14  1  0
 14 15  1  0
 14 16  2  0
 16 17  1  0
 17  2  1  0
 10  5  1  0
 17 12  2  0
  3 18  1  0
  6 19  1  0
  7 20  1  0
  8 21  1  0
  9 22  1  0
 10 23  1  0
 16 24  1  0
M  CHG  1  11  -1
M  END
>  <UniqueID>  (43) 
39

>  <SMILES>  (43) 
O=c1cc(-c2ccccc2)[n-]c2sc(Cl)cc12

>  <Energy>  (43) 
65.35081256590783

>  <Genealogy>  (43) 
O=c1cc(-c2ccccc2)[n-]c2sc(Cl)cc12 (protonated)
O=c1cc(-c2ccccc2)[n-]c2sc(Cl)cc12 (3D coordinates assigned)
O=c1cc(-c2ccccc2)[n-]c2sc(Cl)cc12 (optimized conformer: 65.35081256590783 kcal/mol)

>  <smiles>  (43) 
O=c1cc(-c2ccccc2)[nH]c2sc(Cl)cc12

>  <score_type>  (43) 
oracle

>  <origin>  (43) 
adg

>  <m_score__min__energy>  (43) 
-7.4900000000000002

>  <m_primary>  (43) 
energy

$$$$
43:0
     RDKit          3D

 28 30  0  0  0  0  0  0  0  0999 V2000
   57.5730   31.2210   43.0800 C   0  0  0  0  0  0  0  0  0  0  0  0
   57.8320   32.0650   44.2980 C   0  0  0  0  0  0  0  0  0  0  0  0
   57.7510   33.4640   44.1910 C   0  0  0  0  0  0  0  0  0  0  0  0
   57.9590   34.2750   45.3080 C   0  0  0  0  0  0  0  0  0  0  0  0
   58.2530   33.7000   46.5450 C   0  0  0  0  0  0  0  0  0  0  0  0
   58.3560   32.3130   46.6640 C   0  0  0  0  0  0  0  0  0  0  0  0
   58.1700   31.4860   45.5450 C   0  0  0  0  0  0  0  0  0  0  0  0
   58.3050   30.0670   45.6990 N   0  0  0  0  0  0  0  0  0  0  0  0
   59.7330   29.2630   46.0110 S   0  0  0  0  0  0  0  0  0  0  0  0
   59.1340   27.7050   45.9840 C   0  0  0  0  0  0  0  0  0  0  0  0
   59.7840   26.4910   46.1740 C   0  0  0  0  0  0  0  0  0  0  0  0
   59.0200   25.3170   46.0830 C   0  0  0  0  0  0  0  0  0  0  0  0
   57.6390   25.3840   45.8020 C   0  0  0  0  0  0  0  0  0  0  0  0
   56.9130   24.2420   45.7160 F   0  0  0  0  0  0  0  0  0  0  0  0
   57.0070   26.6280   45.6120 C   0  0  0  0  0  0  0  0  0  0  0  0
   57.7750   27.7930   45.7090 C   0  0  0  0  0  0  0  0  0  0  0  0
   57.3350   29.1220   45.5420 C   0  0  0  0  0  0  0  0  0  0  0  0
   56.1460   29.4180   45.2480 O   0  0  0  0  0  0  0  0  0  0  0  0
   57.2635   30.2125   43.3918 H   0  0  0  0  0  0  0  0  0  0  0  0
   56.7744   31.6801   42.4788 H   0  0  0  0  0  0  0  0  0  0  0  0
   58.4917   31.1532   42.4788 H   0  0  0  0  0  0  0  0  0  0  0  0
   57.5217   33.9240   43.2185 H   0  0  0  0  0  0  0  0  0  0  0  0
   57.8911   35.3688   45.2130 H   0  0  0  0  0  0  0  0  0  0  0  0
   58.4037   34.3401   47.4268 H   0  0  0  0  0  0  0  0  0  0  0  0
   58.5847   31.8646   47.6421 H   0  0  0  0  0  0  0  0  0  0  0  0
   60.8621   26.4517   46.3887 H   0  0  0  0  0  0  0  0  0  0  0  0
   59.5008   24.3389   46.2317 H   0  0  0  0  0  0  0  0  0  0  0  0
   55.9307   26.6825   45.3917 H   0  0  0  0  0  0  0  0  0  0  0  0
  1  2  1  0
  2  3  2  0
  3  4  1  0
  4  5  2  0
  5  6  1  0
  6  7  2  0
  7  8  1  0
  8  9  1  0
  9 10  1  0
 10 11  2  0
 11 12  1  0
 12 13  2  0
 13 14  1  0
 13 15  1  0
 15 16  2  0
 16 17  1  0
 17 18  2  0
  7  2  1  0
 17  8  1  0
 16 10  1  0
  1 19  1  0
  1 20  1  0
  1 21  1  0
  3 22  1  0
  4 23  1  0
  5 24  1  0
  6 25  1  0
 11 26  1  0
 12 27  1  0
 15 28  1  0
M  END
>  <UniqueID>  (44) 
40

>  <SMILES>  (44) 
Cc1ccccc1-n1sc2ccc(F)cc2c1=O

>  <Energy>  (44) 
77.48065938133215

>  <Genealogy>  (44) 
Cc1ccccc1-n1sc2ccc(F)cc2c1=O (3D coordinates assigned)
Cc1ccccc1-n1sc2ccc(F)cc2c1=O (optimized conformer: 77.48065938133215 kcal/mol)

>  <smiles>  (44) 
Cc1ccccc1-n1sc2ccc(F)cc2c1=O

>  <score_type>  (44) 
oracle

>  <origin>  (44) 
adg

>  <m_score__min__energy>  (44) 
-6.7400000000000002

>  <m_primary>  (44) 
energy

$$$$
44:0
     RDKit          3D

 40 43  0  0  0  0  0  0  0  0999 V2000
   57.4020   34.5460   44.8890 O   0  0  0  0  0  0  0  0  0  0  0  0
   58.1350   33.6280   45.3470 C   0  0  0  0  0  0  0  0  0  0  0  0
   57.9650   32.2530   44.8490 C   0  0  0  0  0  0  0  0  0  0  0  0
   57.8470   31.8620   43.5190 C   0  0  0  0  0  0  0  0  0  0  0  0
   57.7410   30.5190   43.3320 N   0  0  0  0  0  0  0  0  0  0  0  0
   57.7820   29.8180   44.4910 C   0  0  0  0  0  0  0  0  0  0  0  0
   57.6960   28.3390   44.5870 C   0  0  0  0  0  0  0  0  0  0  0  0
   57.9220   27.5390   43.4500 C   0  0  0  0  0  0  0  0  0  0  0  0
   57.8440   26.1460   43.5350 C   0  0  0  0  0  0  0  0  0  0  0  0
   57.5450   25.5330   44.7540 C   0  0  0  0  0  0  0  0  0  0  0  0
   57.3260   26.3140   45.8900 C   0  0  0  0  0  0  0  0  0  0  0  0
   57.4010   27.7080   45.8110 C   0  0  0  0  0  0  0  0  0  0  0  0
   57.9600   30.8660   45.8020 S   0  0  0  0  0  0  0  0  0  0  0  0
   59.0980   33.9360   46.3660 N   0  0  0  0  0  0  0  0  0  0  0  0
   58.7310   33.6990   47.7740 C   0  0  0  0  0  0  0  0  0  0  0  0
   59.8100   34.1760   48.7620 C   0  0  0  0  0  0  0  0  0  0  0  0
   61.1890   33.8570   48.2500 C   0  0  0  0  0  0  0  0  0  0  0  0
   62.2050   33.4200   49.1130 C   0  0  0  0  0  0  0  0  0  0  0  0
   63.4890   33.1790   48.6150 C   0  0  0  0  0  0  0  0  0  0  0  0
   63.7680   33.3880   47.2610 C   0  0  0  0  0  0  0  0  0  0  0  0
   62.7630   33.8390   46.3990 C   0  0  0  0  0  0  0  0  0  0  0  0
   61.4700   34.0690   46.8920 C   0  0  0  0  0  0  0  0  0  0  0  0
   60.3710   34.5780   46.0020 C   0  0  0  0  0  0  0  0  0  0  0  0
   57.8400   32.5807   42.6863 H   0  0  0  0  0  0  0  0  0  0  0  0
   57.6710   30.0950   42.3810 H   0  0  0  0  0  0  0  0  0  0  0  0
   58.1618   28.0143   42.4874 H   0  0  0  0  0  0  0  0  0  0  0  0
   58.0185   25.5310   42.6398 H   0  0  0  0  0  0  0  0  0  0  0  0
   57.4822   24.4367   44.8186 H   0  0  0  0  0  0  0  0  0  0  0  0
   57.0936   25.8312   46.8507 H   0  0  0  0  0  0  0  0  0  0  0  0
   57.2284   28.3161   46.7112 H   0  0  0  0  0  0  0  0  0  0  0  0
   57.7960   34.2373   47.9885 H   0  0  0  0  0  0  0  0  0  0  0  0
   58.6177   32.6130   47.9075 H   0  0  0  0  0  0  0  0  0  0  0  0
   59.7190   35.2639   48.8965 H   0  0  0  0  0  0  0  0  0  0  0  0
   59.6627   33.6557   49.7199 H   0  0  0  0  0  0  0  0  0  0  0  0
   61.9915   33.2670   50.1812 H   0  0  0  0  0  0  0  0  0  0  0  0
   64.2816   32.8241   49.2901 H   0  0  0  0  0  0  0  0  0  0  0  0
   64.7795   33.1974   46.8730 H   0  0  0  0  0  0  0  0  0  0  0  0
   62.9862   34.0131   45.3360 H   0  0  0  0  0  0  0  0  0  0  0  0
   60.2783   35.6674   46.1226 H   0  0  0  0  0  0  0  0  0  0  0  0
   60.6116   34.3404   44.9553 H   0  0  0  0  0  0  0  0  0  0  0  0
  1  2  2  0
  2  3  1  0
  3  4  2  0
  4  5  1  0
  5  6  2  0
  6  7  1  0
  7  8  2  0
  8  9  1  0
  9 10  2  0
 10 11  1  0
 11 12  2  0
  6 13  1  0
  2 14  1  0
 14 15  1  0
 15 16  1  0
 16 17  1  0
 17 18  2  0
 18 19  1  0
 19 20  2  0
 20 21  1  0
 21 22  2  0
 22 23  1  0
 13  3  1  0
 23 14  1  0
 12  7  1  0
 22 17  1  0
  4 24  1  0
  5 25  1  0
  8 26  1  0
  9 27  1  0
 10 28  1  0
 11 29  1  0
 12 30  1  0
 15 31  1  0
 15 32  1  0
 16 33  1  0
 16 34  1  0
 18 35  1  0
 19 36  1  0
 20 37  1  0
 21 38  1  0
 23 39  1  0
 23 40  1  0
M  CHG  1   5   1
M  END
>  <UniqueID>  (45) 
41

>  <SMILES>  (45) 
O=C(c1c[nH+]c(-c2ccccc2)s1)N1CCc2ccccc2C1

>  <Energy>  (45) 
81.93270803589787

>  <Genealogy>  (45) 
O=C(c1c[nH+]c(-c2ccccc2)s1)N1CCc2ccccc2C1 (protonated)
O=C(c1c[nH+]c(-c2ccccc2)s1)N1CCc2ccccc2C1 (3D coordinates assigned)
O=C(c1c[nH+]c(-c2ccccc2)s1)N1CCc2ccccc2C1 (nonaromatic ring conformer: 81.93270803589787 kcal/mol)

>  <smiles>  (45) 
O=C(c1cnc(-c2ccccc2)s1)N1CCc2ccccc2C1

>  <score_type>  (45) 
oracle

>  <origin>  (45) 
adg

>  <m_score__min__energy>  (45) 
-7.1500000000000004

>  <m_primary>  (45) 
energy

$$$$
45:0
     RDKit          3D

 43 45  0  0  0  0  0  0  0  0999 V2000
   55.6590   29.8080   43.5720 O   0  0  0  0  0  0  0  0  0  0  0  0
   56.5150   29.8370   44.4990 C   0  0  0  0  0  0  0  0  0  0  0  0
   56.3900   28.9960   45.6100 O   0  0  0  0  0  0  0  0  0  0  0  0
   57.3110   27.9480   45.9060 C   0  0  0  0  0  0  0  0  0  0  0  0
   56.6470   26.6140   45.7710 C   0  0  0  0  0  0  0  0  0  0  0  0
   57.2680   25.4400   45.3960 C   0  0  0  0  0  0  0  0  0  0  0  0
   56.2810   24.4780   45.4160 C   0  0  0  0  0  0  0  0  0  0  0  0
   55.1220   25.1250   45.7970 C   0  0  0  0  0  0  0  0  0  0  0  0
   55.3730   26.3980   46.0010 O   0  0  0  0  0  0  0  0  0  0  0  0
   57.6920   30.7710   44.4120 C   0  0  2  0  0  0  0  0  0  0  0  0
   58.0540   31.3570   45.8010 C   0  0  0  0  0  0  0  0  0  0  0  0
   57.4670   32.7660   45.9890 C   0  0  0  0  0  0  0  0  0  0  0  0
   57.9310   33.7290   44.9480 N   0  0  1  0  0  0  0  0  0  0  0  0
   59.0070   34.5790   45.4290 C   0  0  0  0  0  0  0  0  0  0  0  0
   59.2610   35.6580   44.8290 O   0  0  0  0  0  0  0  0  0  0  0  0
   59.8520   34.2080   46.5830 C   0  0  0  0  0  0  0  0  0  0  0  0
   59.4470   34.5240   47.8910 C   0  0  0  0  0  0  0  0  0  0  0  0
   60.2630   34.1950   48.9780 C   0  0  0  0  0  0  0  0  0  0  0  0
   61.4980   33.5740   48.7660 C   0  0  0  0  0  0  0  0  0  0  0  0
   62.5210   33.1660   50.1320 Cl  0  0  0  0  0  0  0  0  0  0  0  0
   61.9240   33.2930   47.4640 C   0  0  0  0  0  0  0  0  0  0  0  0
   61.1090   33.6180   46.3750 C   0  0  0  0  0  0  0  0  0  0  0  0
   58.2980   33.1000   43.6520 C   0  0  0  0  0  0  0  0  0  0  0  0
   57.4320   31.8700   43.3590 C   0  0  0  0  0  0  0  0  0  0  0  0
   58.1588   28.0029   45.2072 H   0  0  0  0  0  0  0  0  0  0  0  0
   57.6646   28.0666   46.9408 H   0  0  0  0  0  0  0  0  0  0  0  0
   58.3277   25.3011   45.1359 H   0  0  0  0  0  0  0  0  0  0  0  0
   56.3938   23.4103   45.1767 H   0  0  0  0  0  0  0  0  0  0  0  0
   54.1381   24.6469   45.9121 H   0  0  0  0  0  0  0  0  0  0  0  0
   58.5694   30.1969   44.0794 H   0  0  0  0  0  0  0  0  0  0  0  0
   57.6534   30.6956   46.5833 H   0  0  0  0  0  0  0  0  0  0  0  0
   59.1495   31.4275   45.8708 H   0  0  0  0  0  0  0  0  0  0  0  0
   56.3701   32.6990   45.9419 H   0  0  0  0  0  0  0  0  0  0  0  0
   57.8112   33.1409   46.9642 H   0  0  0  0  0  0  0  0  0  0  0  0
   57.1140   34.3560   44.7510 H   0  0  0  0  0  0  0  0  0  0  0  0
   58.4858   35.0314   48.0603 H   0  0  0  0  0  0  0  0  0  0  0  0
   59.9328   34.4251   50.0017 H   0  0  0  0  0  0  0  0  0  0  0  0
   62.9009   32.8160   47.2963 H   0  0  0  0  0  0  0  0  0  0  0  0
   61.4541   33.4106   45.3513 H   0  0  0  0  0  0  0  0  0  0  0  0
   58.1588   33.8353   42.8458 H   0  0  0  0  0  0  0  0  0  0  0  0
   59.3478   32.7767   43.7105 H   0  0  0  0  0  0  0  0  0  0  0  0
   56.3707   32.1576   43.3886 H   0  0  0  0  0  0  0  0  0  0  0  0
   57.6881   31.4801   42.3628 H   0  0  0  0  0  0  0  0  0  0  0  0
  1  2  2  0
  2  3  1  0
  3  4  1  0
  4  5  1  0
  5  6  2  0
  6  7  1  0
  7  8  2  0
  8  9  1  0
  2 10  1  0
 10 11  1  0
 11 12  1  0
 12 13  1  0
 13 14  1  0
 14 15  2  0
 14 16  1  0
 16 17  2  0
 17 18  1  0
 18 19  2  0
 19 20  1  0
 19 21  1  0
 21 22  2  0
 13 23  1  0
 23 24  1  0
  9  5  1  0
 24 10  1  0
 22 16  1  0
  4 25  1  0
  4 26  1  0
  6 27  1  0
  7 28  1  0
  8 29  1  0
 10 30  1  6
 11 31  1  0
 11 32  1  0
 12 33  1  0
 12 34  1  0
 13 35  1  6
 17 36  1  0
 18 37  1  0
 21 38  1  0
 22 39  1  0
 23 40  1  0
 23 41  1  0
 24 42  1  0
 24 43  1  0
M  CHG  1  13   1
M  END
>  <UniqueID>  (46) 
42

>  <SMILES>  (46) 
O=C(OCc1ccco1)C1CC[NH+](C(=O)c2ccc(Cl)cc2)CC1

>  <Energy>  (46) 
85.25155944369227

>  <Genealogy>  (46) 
O=C(OCc1ccco1)C1CC[NH+](C(=O)c2ccc(Cl)cc2)CC1 (protonated)
O=C(OCc1ccco1)C1CC[NH+](C(=O)c2ccc(Cl)cc2)CC1 (3D coordinates assigned)
O=C(OCc1ccco1)C1CC[NH+](C(=O)c2ccc(Cl)cc2)CC1 (nonaromatic ring conformer: 85.25155944369227 kcal/mol)

>  <smiles>  (46) 
O=C(OCc1ccco1)C1CCN(C(=O)c2ccc(Cl)cc2)CC1

>  <score_type>  (46) 
oracle

>  <origin>  (46) 
adg

>  <m_score__min__energy>  (46) 
-7.4100000000000001

>  <m_primary>  (46) 
energy

$$$$
46:0
     RDKit          3D

 40 43  0  0  1  0  0  0  0  0999 V2000
   62.7580   33.5510   48.1890 C   0  0  0  0  0  0  0  0  0  0  0  0
   61.7360   33.8860   49.0210 C   0  0  0  0  0  0  0  0  0  0  0  0
   60.4620   34.2280   48.5930 C   0  0  0  0  0  0  0  0  0  0  0  0
   60.2500   34.2150   47.2280 C   0  0  0  0  0  0  0  0  0  0  0  0
   58.9970   34.5400   46.6350 N   0  0  0  0  0  0  0  0  0  0  0  0
   58.5490   33.6760   45.7640 C   0  0  0  0  0  0  0  0  0  0  0  0
   58.0790   32.4520   46.0200 N   0  0  0  0  0  0  0  0  0  0  0  0
   57.7140   31.8700   44.8640 C   0  0  0  0  0  0  0  0  0  0  0  0
   57.1650   30.6010   44.5720 C   0  0  0  0  0  0  0  0  0  0  0  0
   56.9010   29.7120   45.6240 N   0  0  0  0  0  0  0  0  0  0  0  0
   57.7820   28.8060   46.2870 C   0  0  0  0  0  0  0  0  0  0  0  0
   58.9750   29.3720   46.9100 C   0  0  0  0  0  0  0  0  0  0  0  0
   59.0070   29.3890   48.3110 C   0  0  0  0  0  0  0  0  0  0  0  0
   60.1090   29.8850   48.9870 C   0  0  0  0  0  0  0  0  0  0  0  0
   61.1760   30.3600   48.3120 N   0  0  0  0  0  0  0  0  0  0  0  0
   61.1900   30.3630   46.9810 C   0  0  0  0  0  0  0  0  0  0  0  0
   60.0830   29.8660   46.2860 C   0  0  0  0  0  0  0  0  0  0  0  0
   56.9270   30.3800   43.2420 C   0  0  0  0  0  0  0  0  0  0  0  0
   57.1950   31.3110   42.2550 C   0  0  0  0  0  0  0  0  0  0  0  0
   57.7270   32.5260   42.5860 C   0  0  0  0  0  0  0  0  0  0  0  0
   57.9670   32.7580   43.8930 N   0  0  0  0  0  0  0  0  0  0  0  0
   58.4710   33.8470   44.4410 N   0  0  0  0  0  0  0  0  0  0  0  0
   61.2760   33.8770   46.3500 C   0  0  0  0  0  0  0  0  0  0  0  0
   62.5340   33.5430   46.8110 C   0  0  0  0  0  0  0  0  0  0  0  0
   63.7463   33.2902   48.5955 H   0  0  0  0  0  0  0  0  0  0  0  0
   61.9324   33.8857   50.1033 H   0  0  0  0  0  0  0  0  0  0  0  0
   59.6641   34.4950   49.3015 H   0  0  0  0  0  0  0  0  0  0  0  0
   55.8880   29.7150   45.9850 H   0  0  0  0  0  0  0  0  0  0  0  0
   57.2050   28.3004   47.0753 H   0  0  0  0  0  0  0  0  0  0  0  0
   58.1622   28.1471   45.4924 H   0  0  0  0  0  0  0  0  0  0  0  0
   58.1476   29.0042   48.8797 H   0  0  0  0  0  0  0  0  0  0  0  0
   60.1144   29.8918   50.0870 H   0  0  0  0  0  0  0  0  0  0  0  0
   62.0618   30.7517   46.4344 H   0  0  0  0  0  0  0  0  0  0  0  0
   60.1067   29.8737   45.1863 H   0  0  0  0  0  0  0  0  0  0  0  0
   56.5003   29.4113   42.9428 H   0  0  0  0  0  0  0  0  0  0  0  0
   56.9799   31.0736   41.2027 H   0  0  0  0  0  0  0  0  0  0  0  0
   57.9499   33.2824   41.8191 H   0  0  0  0  0  0  0  0  0  0  0  0
   58.7750   34.7260   43.9620 H   0  0  0  0  0  0  0  0  0  0  0  0
   61.0807   33.8760   45.2675 H   0  0  0  0  0  0  0  0  0  0  0  0
   63.3393   33.2774   46.1103 H   0  0  0  0  0  0  0  0  0  0  0  0
  1  2  2  0
  2  3  1  0
  3  4  2  0
  4  5  1  0
  5  6  2  0
  6  7  1  0
  7  8  2  0
  8  9  1  0
  9 10  1  0
 10 11  1  0
 11 12  1  0
 12 13  2  0
 13 14  1  0
 14 15  2  0
 15 16  1  0
 16 17  2  0
  9 18  2  0
 18 19  1  0
 19 20  2  0
 20 21  1  0
 21 22  1  0
  4 23  1  0
 23 24  2  0
 24  1  1  0
 22  6  1  0
 21  8  1  0
 17 12  1  0
  1 25  1  0
  2 26  1  0
  3 27  1  0
 10 28  1  0
 11 29  1  0
 11 30  1  0
 13 31  1  0
 14 32  1  0
 16 33  1  0
 17 34  1  0
 18 35  1  0
 19 36  1  0
 20 37  1  0
 22 38  1  0
 23 39  1  0
 24 40  1  0
M  END
>  <smiles>  (47) 
c1ccc(N=c2nc3c(NCc4ccncc4)cccn3[nH]2)cc1

>  <score_type>  (47) 
oracle

>  <origin>  (47) 
adg

>  <m_score__min__energy>  (47) 
-8.25

>  <m_primary>  (47) 
energy

$$$$
