0:0
     RDKit          3D

 54 56  0  0  0  0  0  0  0  0999 V2000
   55.3600   29.7280   43.7250 C   0  0  0  0  0  0  0  0  0  0  0  0
   56.6140   29.4760   44.5190 C   0  0  0  0  0  0  0  0  0  0  0  0
   56.6530   28.3970   45.3250 N   0  0  0  0  0  0  0  0  0  0  0  0
   57.7730   28.1330   46.0580 C   0  0  0  0  0  0  0  0  0  0  0  0
   58.8710   28.9580   45.9870 C   0  0  0  0  0  0  0  0  0  0  0  0
   58.8430   30.0630   45.1670 C   0  0  0  0  0  0  0  0  0  0  0  0
   57.6950   30.3340   44.4140 C   0  0  0  0  0  0  0  0  0  0  0  0
   57.6620   31.5340   43.5250 C   0  0  0  0  0  0  0  0  0  0  0  0
   57.6200   32.7610   44.2370 N   0  0  0  0  0  0  0  0  0  0  0  0
   56.9750   32.7650   45.5010 C   0  0  0  0  0  0  0  0  0  0  0  0
   57.8680   33.2320   46.6310 C   0  0  0  0  0  0  0  0  0  0  0  0
   58.3710   34.5350   46.3900 N   0  0  0  0  0  0  0  0  0  0  0  0
   59.3660   35.0140   47.3040 C   0  0  0  0  0  0  0  0  0  0  0  0
   59.7490   33.9240   48.2220 C   0  0  0  0  0  0  0  0  0  0  0  0
   59.0540   33.4990   49.1700 O   0  0  0  0  0  0  0  0  0  0  0  0
   61.0290   33.2900   48.0150 N   0  0  0  0  0  0  0  0  0  0  0  0
   61.8590   33.7480   46.9420 C   0  0  0  0  0  0  0  0  0  0  0  0
   63.1450   32.9670   46.8200 C   0  0  0  0  0  0  0  0  0  0  0  0
   64.0450   33.0910   48.0090 C   0  0  0  0  0  0  0  0  0  0  0  0
   63.3910   33.6600   49.2390 C   0  0  0  0  0  0  0  0  0  0  0  0
   62.3920   32.7440   49.8930 C   0  0  0  0  0  0  0  0  0  0  0  0
   61.3750   32.2050   48.9420 C   0  0  0  0  0  0  0  0  0  0  0  0
   58.6960   34.8100   45.0130 C   0  0  0  0  0  0  0  0  0  0  0  0
   58.7840   33.5770   44.1420 C   0  0  0  0  0  0  0  0  0  0  0  0
   54.5183   29.8971   44.4127 H   0  0  0  0  0  0  0  0  0  0  0  0
   55.4997   30.6160   43.0911 H   0  0  0  0  0  0  0  0  0  0  0  0
   55.1458   28.8550   43.0911 H   0  0  0  0  0  0  0  0  0  0  0  0
   57.7981   27.2499   46.7134 H   0  0  0  0  0  0  0  0  0  0  0  0
   59.7682   28.7356   46.5833 H   0  0  0  0  0  0  0  0  0  0  0  0
   59.7167   30.7283   45.1040 H   0  0  0  0  0  0  0  0  0  0  0  0
   58.5640   31.5267   42.8955 H   0  0  0  0  0  0  0  0  0  0  0  0
   56.7393   31.4720   42.9294 H   0  0  0  0  0  0  0  0  0  0  0  0
   56.1039   33.4344   45.4457 H   0  0  0  0  0  0  0  0  0  0  0  0
   56.6882   31.7263   45.7222 H   0  0  0  0  0  0  0  0  0  0  0  0
   57.2877   33.2399   47.5655 H   0  0  0  0  0  0  0  0  0  0  0  0
   58.7205   32.5409   46.7058 H   0  0  0  0  0  0  0  0  0  0  0  0
   60.2503   35.3492   46.7422 H   0  0  0  0  0  0  0  0  0  0  0  0
   58.9604   35.8575   47.8819 H   0  0  0  0  0  0  0  0  0  0  0  0
   61.2994   33.6522   45.9998 H   0  0  0  0  0  0  0  0  0  0  0  0
   62.1265   34.7936   47.1546 H   0  0  0  0  0  0  0  0  0  0  0  0
   62.8935   31.9046   46.6853 H   0  0  0  0  0  0  0  0  0  0  0  0
   63.6914   33.3839   45.9612 H   0  0  0  0  0  0  0  0  0  0  0  0
   64.4254   32.0889   48.2562 H   0  0  0  0  0  0  0  0  0  0  0  0
   64.8380   33.7983   47.7246 H   0  0  0  0  0  0  0  0  0  0  0  0
   64.1783   33.8897   49.9721 H   0  0  0  0  0  0  0  0  0  0  0  0
   62.8337   34.5510   48.9142 H   0  0  0  0  0  0  0  0  0  0  0  0
   62.9344   31.8982   50.3406 H   0  0  0  0  0  0  0  0  0  0  0  0
   61.8521   33.3355   50.6471 H   0  0  0  0  0  0  0  0  0  0  0  0
   61.7934   31.3532   48.3858 H   0  0  0  0  0  0  0  0  0  0  0  0
   60.4833   31.8536   49.4818 H   0  0  0  0  0  0  0  0  0  0  0  0
   57.9192   35.4703   44.5998 H   0  0  0  0  0  0  0  0  0  0  0  0
   59.6935   35.2736   45.0087 H   0  0  0  0  0  0  0  0  0  0  0  0
   58.9103   33.8919   43.0956 H   0  0  0  0  0  0  0  0  0  0  0  0
   59.6408   32.9811   44.4897 H   0  0  0  0  0  0  0  0  0  0  0  0
  1  2  1  0
  2  3  2  0
  3  4  1  0
  4  5  2  0
  5  6  1  0
  6  7  2  0
  7  8  1  0
  8  9  1  0
  9 10  1  0
 10 11  1  0
 11 12  1  0
 12 13  1  0
 13 14  1  0
 14 15  2  0
 14 16  1  0
 16 17  1  0
 17 18  1  0
 18 19  1  0
 19 20  1  0
 20 21  1  0
 21 22  1  0
 12 23  1  0
 23 24  1  0
  7  2  1  0
 24  9  1  0
 22 16  1  0
  1 25  1  0
  1 26  1  0
  1 27  1  0
  4 28  1  0
  5 29  1  0
  6 30  1  0
  8 31  1  0
  8 32  1  0
 10 33  1  0
 10 34  1  0
 11 35  1  0
 11 36  1  0
 13 37  1  0
 13 38  1  0
 17 39  1  0
 17 40  1  0
 18 41  1  0
 18 42  1  0
 19 43  1  0
 19 44  1  0
 20 45  1  0
 20 46  1  0
 21 47  1  0
 21 48  1  0
 22 49  1  0
 22 50  1  0
 23 51  1  0
 23 52  1  0
 24 53  1  0
 24 54  1  0
M  END
>  <smiles>  (1) 
Cc1ncccc1CN1CCN(CC(=O)N2CCCCCC2)CC1

>  <score_type>  (1) 
oracle

>  <origin>  (1) 
adg

>  <m_score__min__energy>  (1) 
-7.0999999999999996

>  <m_primary>  (1) 
energy

$$$$
1:0
     RDKit          3D

 85 88  0  0  0  0  0  0  0  0999 V2000
   55.7770   28.4420   53.4910 C   0  0  0  0  0  0  0  0  0  0  0  0
   55.1000   29.7480   53.2670 C   0  0  0  0  0  0  0  0  0  0  0  0
   55.3330   30.2950   51.9160 N   0  0  0  0  0  0  0  0  0  0  0  0
   54.0320   30.8460   51.5430 C   0  0  0  0  0  0  0  0  0  0  0  0
   52.9470   29.7930   51.6920 C   0  0  0  0  0  0  0  0  0  0  0  0
   56.2790   31.3750   52.0000 C   0  0  0  0  0  0  0  0  0  0  0  0
   57.6980   30.8920   51.9170 C   0  0  0  0  0  0  0  0  0  0  0  0
   58.0080   30.1310   50.8360 O   0  0  0  0  0  0  0  0  0  0  0  0
   59.1320   29.3470   50.9280 C   0  0  0  0  0  0  0  0  0  0  0  0
   60.2540   29.7460   50.0080 C   0  0  0  0  0  0  0  0  0  0  0  0
   59.8260   29.7120   48.5550 C   0  0  0  0  0  0  0  0  0  0  0  0
   58.9260   30.8010   48.2410 N   0  0  0  0  0  0  0  0  0  0  0  0
   58.7360   31.3200   46.9330 C   0  0  0  0  0  0  0  0  0  0  0  0
   58.2750   30.3980   45.9870 C   0  0  0  0  0  0  0  0  0  0  0  0
   58.0530   29.0690   46.3600 C   0  0  0  0  0  0  0  0  0  0  0  0
   57.6040   28.1340   45.4410 C   0  0  0  0  0  0  0  0  0  0  0  0
   57.3940   28.5870   44.1590 C   0  0  0  0  0  0  0  0  0  0  0  0
   57.6130   29.9060   43.7780 C   0  0  0  0  0  0  0  0  0  0  0  0
   58.0580   30.8270   44.6980 C   0  0  0  0  0  0  0  0  0  0  0  0
   58.2770   32.1010   44.3360 N   0  0  0  0  0  0  0  0  0  0  0  0
   58.0570   32.6210   43.0110 C   0  0  0  0  0  0  0  0  0  0  0  0
   58.7300   32.9950   45.2670 C   0  0  0  0  0  0  0  0  0  0  0  0
   58.9700   34.3170   44.8720 C   0  0  0  0  0  0  0  0  0  0  0  0
   59.4380   35.2350   45.7820 C   0  0  0  0  0  0  0  0  0  0  0  0
   59.6670   34.8280   47.0950 C   0  0  0  0  0  0  0  0  0  0  0  0
   59.4460   33.5420   47.5260 C   0  0  0  0  0  0  0  0  0  0  0  0
   59.6470   33.0730   48.7880 O   0  0  0  0  0  0  0  0  0  0  0  0
   60.3010   33.6500   49.8690 C   0  0  0  0  0  0  0  0  0  0  0  0
   61.3400   32.8150   50.5200 C   0  0  0  0  0  0  0  0  0  0  0  0
   62.6470   32.9180   49.8950 N   0  0  0  0  0  0  0  0  0  0  0  0
   63.6890   33.2650   50.8110 C   0  0  0  0  0  0  0  0  0  0  0  0
   62.5090   33.9990   48.9300 C   0  0  0  0  0  0  0  0  0  0  0  0
   63.4280   33.8980   47.7580 C   0  0  0  0  0  0  0  0  0  0  0  0
   63.4070   32.5810   47.0470 C   0  0  0  0  0  0  0  0  0  0  0  0
   62.5220   31.6260   47.8200 C   0  0  0  0  0  0  0  0  0  0  0  0
   63.0000   31.6600   49.2620 C   0  0  0  0  0  0  0  0  0  0  0  0
   58.9670   32.6290   46.5770 C   0  0  0  0  0  0  0  0  0  0  0  0
   55.8720   28.2588   54.5715 H   0  0  0  0  0  0  0  0  0  0  0  0
   55.1824   27.6375   53.0336 H   0  0  0  0  0  0  0  0  0  0  0  0
   56.7771   28.4642   53.0336 H   0  0  0  0  0  0  0  0  0  0  0  0
   54.0177   29.6103   53.4074 H   0  0  0  0  0  0  0  0  0  0  0  0
   55.5202   30.4641   53.9885 H   0  0  0  0  0  0  0  0  0  0  0  0
   53.7998   31.7003   52.1959 H   0  0  0  0  0  0  0  0  0  0  0  0
   54.0708   31.1715   50.4930 H   0  0  0  0  0  0  0  0  0  0  0  0
   52.7581   29.6097   52.7601 H   0  0  0  0  0  0  0  0  0  0  0  0
   52.0231   30.1480   51.2119 H   0  0  0  0  0  0  0  0  0  0  0  0
   53.2742   28.8589   51.2119 H   0  0  0  0  0  0  0  0  0  0  0  0
   56.0934   32.0740   51.1712 H   0  0  0  0  0  0  0  0  0  0  0  0
   56.1455   31.8665   52.9750 H   0  0  0  0  0  0  0  0  0  0  0  0
   58.3535   31.7753   51.9052 H   0  0  0  0  0  0  0  0  0  0  0  0
   57.8385   30.2369   52.7894 H   0  0  0  0  0  0  0  0  0  0  0  0
   59.5022   29.3990   51.9625 H   0  0  0  0  0  0  0  0  0  0  0  0
   58.8291   28.3332   50.6271 H   0  0  0  0  0  0  0  0  0  0  0  0
   60.5765   30.7668   50.2609 H   0  0  0  0  0  0  0  0  0  0  0  0
   61.0773   29.0285   50.1399 H   0  0  0  0  0  0  0  0  0  0  0  0
   60.7189   29.7913   47.9175 H   0  0  0  0  0  0  0  0  0  0  0  0
   59.2976   28.7645   48.3732 H   0  0  0  0  0  0  0  0  0  0  0  0
   58.3700   31.2450   49.0160 H   0  0  0  0  0  0  0  0  0  0  0  0
   58.2377   28.7606   47.3996 H   0  0  0  0  0  0  0  0  0  0  0  0
   57.4250   27.0855   45.7216 H   0  0  0  0  0  0  0  0  0  0  0  0
   57.0369   27.8737   43.4016 H   0  0  0  0  0  0  0  0  0  0  0  0
   57.4299   30.2141   42.7380 H   0  0  0  0  0  0  0  0  0  0  0  0
   57.6292   33.6321   43.0802 H   0  0  0  0  0  0  0  0  0  0  0  0
   59.0140   32.6640   42.4704 H   0  0  0  0  0  0  0  0  0  0  0  0
   57.3597   31.9641   42.4704 H   0  0  0  0  0  0  0  0  0  0  0  0
   58.7837   34.6214   43.8315 H   0  0  0  0  0  0  0  0  0  0  0  0
   59.6288   36.2749   45.4784 H   0  0  0  0  0  0  0  0  0  0  0  0
   60.0409   35.5682   47.8177 H   0  0  0  0  0  0  0  0  0  0  0  0
   60.7832   34.5739   49.5169 H   0  0  0  0  0  0  0  0  0  0  0  0
   59.5267   33.8105   50.6336 H   0  0  0  0  0  0  0  0  0  0  0  0
   61.4312   33.1299   51.5700 H   0  0  0  0  0  0  0  0  0  0  0  0
   61.0185   31.7675   50.4228 H   0  0  0  0  0  0  0  0  0  0  0  0
   63.3259   33.1441   51.8423 H   0  0  0  0  0  0  0  0  0  0  0  0
   64.5551   32.6068   50.6476 H   0  0  0  0  0  0  0  0  0  0  0  0
   63.9875   34.3110   50.6476 H   0  0  0  0  0  0  0  0  0  0  0  0
   61.4741   33.9979   48.5572 H   0  0  0  0  0  0  0  0  0  0  0  0
   62.7727   34.9275   49.4576 H   0  0  0  0  0  0  0  0  0  0  0  0
   63.1474   34.6794   47.0365 H   0  0  0  0  0  0  0  0  0  0  0  0
   64.4467   34.0152   48.1562 H   0  0  0  0  0  0  0  0  0  0  0  0
   63.0078   32.7153   46.0308 H   0  0  0  0  0  0  0  0  0  0  0  0
   64.4272   32.1752   46.9795 H   0  0  0  0  0  0  0  0  0  0  0  0
   61.4723   31.9493   47.7606 H   0  0  0  0  0  0  0  0  0  0  0  0
   62.5814   30.6083   47.4068 H   0  0  0  0  0  0  0  0  0  0  0  0
   62.5311   30.8337   49.8165 H   0  0  0  0  0  0  0  0  0  0  0  0
   64.0951   31.5565   49.2719 H   0  0  0  0  0  0  0  0  0  0  0  0
  1  2  1  0
  2  3  1  0
  3  4  1  0
  4  5  1  0
  3  6  1  0
  6  7  1  0
  7  8  1  0
  8  9  1  0
  9 10  1  0
 10 11  1  0
 11 12  1  0
 12 13  1  0
 13 14  2  0
 14 15  1  0
 15 16  2  0
 16 17  1  0
 17 18  2  0
 18 19  1  0
 19 20  2  0
 20 21  1  0
 20 22  1  0
 22 23  2  0
 23 24  1  0
 24 25  2  0
 25 26  1  0
 26 27  1  0
 27 28  1  0
 28 29  1  0
 29 30  1  0
 30 31  1  0
 30 32  1  0
 32 33  1  0
 33 34  1  0
 34 35  1  0
 35 36  1  0
 26 37  2  0
 37 13  1  0
 19 14  1  0
 37 22  1  0
 36 30  1  0
  1 38  1  0
  1 39  1  0
  1 40  1  0
  2 41  1  0
  2 42  1  0
  4 43  1  0
  4 44  1  0
  5 45  1  0
  5 46  1  0
  5 47  1  0
  6 48  1  0
  6 49  1  0
  7 50  1  0
  7 51  1  0
  9 52  1  0
  9 53  1  0
 10 54  1  0
 10 55  1  0
 11 56  1  0
 11 57  1  0
 12 58  1  0
 15 59  1  0
 16 60  1  0
 17 61  1  0
 18 62  1  0
 21 63  1  0
 21 64  1  0
 21 65  1  0
 23 66  1  0
 24 67  1  0
 25 68  1  0
 28 69  1  0
 28 70  1  0
 29 71  1  0
 29 72  1  0
 31 73  1  0
 31 74  1  0
 31 75  1  0
 32 76  1  0
 32 77  1  0
 33 78  1  0
 33 79  1  0
 34 80  1  0
 34 81  1  0
 35 82  1  0
 35 83  1  0
 36 84  1  0
 36 85  1  0
M  CHG  2  20   1  30   1
M  END
>  <smiles>  (2) 
CCN(CC)CCOCCCNc1c2ccccc2[n+](C)c2cccc(OCC[N+]3(C)CCCCC3)c12

>  <score_type>  (2) 
oracle

>  <origin>  (2) 
adg

>  <m_score__min__energy>  (2) 
-6.0099999999999998

>  <m_primary>  (2) 
energy

$$$$
2:0
     RDKit          3D

 51 53  0  0  0  0  0  0  0  0999 V2000
   64.3630   32.7940   50.3680 C   0  0  0  0  0  0  0  0  0  0  0  0
   63.5570   33.3150   49.3330 N   0  0  0  0  0  0  0  0  0  0  0  0
   62.6450   34.3390   49.6690 C   0  0  0  0  0  0  0  0  0  0  0  0
   63.9620   33.1710   48.0100 C   0  0  0  0  0  0  0  0  0  0  0  0
   63.0950   32.3290   47.1160 C   0  0  0  0  0  0  0  0  0  0  0  0
   61.8130   32.0100   47.7260 N   0  0  0  0  0  0  0  0  0  0  0  0
   60.6870   31.6960   46.9340 C   0  0  0  0  0  0  0  0  0  0  0  0
   60.3890   30.3700   46.6940 C   0  0  0  0  0  0  0  0  0  0  0  0
   59.2810   30.0360   45.9070 C   0  0  0  0  0  0  0  0  0  0  0  0
   58.9580   28.6500   45.6500 N   0  0  0  0  0  0  0  0  0  0  0  0
   58.3390   27.8770   46.7200 C   0  0  0  0  0  0  0  0  0  0  0  0
   57.4360   26.7950   46.2430 C   0  0  0  0  0  0  0  0  0  0  0  0
   57.4020   26.5090   44.8860 N   0  0  0  0  0  0  0  0  0  0  0  0
   58.1590   27.1860   43.9350 C   0  0  0  0  0  0  0  0  0  0  0  0
   59.2600   28.0760   44.3480 C   0  0  0  0  0  0  0  0  0  0  0  0
   58.4830   30.9770   45.3690 N   0  0  0  0  0  0  0  0  0  0  0  0
   57.3280   30.6670   44.5490 C   0  0  0  0  0  0  0  0  0  0  0  0
   58.7630   32.2720   45.5950 C   0  0  0  0  0  0  0  0  0  0  0  0
   57.9600   33.2670   45.0570 C   0  0  0  0  0  0  0  0  0  0  0  0
   58.1980   34.5930   45.2590 C   0  0  0  0  0  0  0  0  0  0  0  0
   59.2790   34.9520   46.0260 C   0  0  0  0  0  0  0  0  0  0  0  0
   60.0950   33.9740   46.5740 C   0  0  0  0  0  0  0  0  0  0  0  0
   59.8540   32.6320   46.3690 C   0  0  0  0  0  0  0  0  0  0  0  0
   63.9337   33.0715   51.3420 H   0  0  0  0  0  0  0  0  0  0  0  0
   64.4041   31.6980   50.2843 H   0  0  0  0  0  0  0  0  0  0  0  0
   65.3793   33.2065   50.2843 H   0  0  0  0  0  0  0  0  0  0  0  0
   62.5723   34.4206   50.7636 H   0  0  0  0  0  0  0  0  0  0  0  0
   62.9968   35.2945   49.2526 H   0  0  0  0  0  0  0  0  0  0  0  0
   61.6554   34.0998   49.2526 H   0  0  0  0  0  0  0  0  0  0  0  0
   64.0149   34.1770   47.5683 H   0  0  0  0  0  0  0  0  0  0  0  0
   64.9212   32.6351   48.0628 H   0  0  0  0  0  0  0  0  0  0  0  0
   62.9139   32.8784   46.1804 H   0  0  0  0  0  0  0  0  0  0  0  0
   63.6234   31.3820   46.9319 H   0  0  0  0  0  0  0  0  0  0  0  0
   61.8060   32.0340   48.7780 H   0  0  0  0  0  0  0  0  0  0  0  0
   61.0211   29.5772   47.1205 H   0  0  0  0  0  0  0  0  0  0  0  0
   59.1377   27.4199   47.3226 H   0  0  0  0  0  0  0  0  0  0  0  0
   57.7180   28.5766   47.2987 H   0  0  0  0  0  0  0  0  0  0  0  0
   57.7338   25.8718   46.7617 H   0  0  0  0  0  0  0  0  0  0  0  0
   56.4262   27.1716   46.4633 H   0  0  0  0  0  0  0  0  0  0  0  0
   57.2120   25.4980   44.6840 H   0  0  0  0  0  0  0  0  0  0  0  0
   58.6017   26.4199   43.2814 H   0  0  0  0  0  0  0  0  0  0  0  0
   57.4322   27.8823   43.4912 H   0  0  0  0  0  0  0  0  0  0  0  0
   60.1944   27.4988   44.4097 H   0  0  0  0  0  0  0  0  0  0  0  0
   59.3752   28.8831   43.6096 H   0  0  0  0  0  0  0  0  0  0  0  0
   56.4695   30.4366   45.1970 H   0  0  0  0  0  0  0  0  0  0  0  0
   57.0863   31.5321   43.9140 H   0  0  0  0  0  0  0  0  0  0  0  0
   57.5520   29.7972   43.9140 H   0  0  0  0  0  0  0  0  0  0  0  0
   57.0962   32.9734   44.4425 H   0  0  0  0  0  0  0  0  0  0  0  0
   57.5406   35.3572   44.8187 H   0  0  0  0  0  0  0  0  0  0  0  0
   59.4975   36.0150   46.2056 H   0  0  0  0  0  0  0  0  0  0  0  0
   60.9563   34.2764   47.1877 H   0  0  0  0  0  0  0  0  0  0  0  0
  1  2  1  0
  2  3  1  0
  2  4  1  0
  4  5  1  0
  5  6  1  0
  6  7  1  0
  7  8  2  0
  8  9  1  0
  9 10  1  0
 10 11  1  0
 11 12  1  0
 12 13  1  0
 13 14  1  0
 14 15  1  0
  9 16  2  0
 16 17  1  0
 16 18  1  0
 18 19  2  0
 19 20  1  0
 20 21  2  0
 21 22  1  0
 22 23  2  0
 23  7  1  0
 15 10  1  0
 23 18  1  0
  1 24  1  0
  1 25  1  0
  1 26  1  0
  3 27  1  0
  3 28  1  0
  3 29  1  0
  4 30  1  0
  4 31  1  0
  5 32  1  0
  5 33  1  0
  6 34  1  0
  8 35  1  0
 11 36  1  0
 11 37  1  0
 12 38  1  0
 12 39  1  0
 13 40  1  0
 14 41  1  0
 14 42  1  0
 15 43  1  0
 15 44  1  0
 17 45  1  0
 17 46  1  0
 17 47  1  0
 19 48  1  0
 20 49  1  0
 21 50  1  0
 22 51  1  0
M  CHG  1  16   1
M  END
>  <smiles>  (3) 
CN(C)CCNc1cc(N2CCNCC2)[n+](C)c2ccccc12

>  <score_type>  (3) 
oracle

>  <origin>  (3) 
adg

>  <m_score__min__energy>  (3) 
-5.0599999999999996

>  <m_primary>  (3) 
energy

$$$$
3:0
     RDKit          3D

 41 43  0  0  1  0  0  0  0  0999 V2000
   65.5150   33.0100   50.1180 C   0  0  0  0  0  0  0  0  0  0  0  0
   64.6970   31.9880   49.3960 C   0  0  0  0  0  0  0  0  0  0  0  0
   63.4350   32.5680   49.0490 N   0  0  2  0  0  0  0  0  0  0  0  0
   63.2570   32.7760   47.6240 C   0  0  0  0  0  0  0  0  0  0  0  0
   62.1290   33.8020   47.4380 C   0  0  0  0  0  0  0  0  0  0  0  0
   61.2600   33.6710   48.5770 N   0  0  2  0  0  0  0  0  0  0  0  0
   59.9980   34.3240   48.4750 C   0  0  0  0  0  0  0  0  0  0  0  0
   59.3090   34.1400   47.1670 C   0  0  0  0  0  0  0  0  0  0  0  0
   58.3660   33.1180   47.0370 C   0  0  0  0  0  0  0  0  0  0  0  0
   57.7090   32.9200   45.8360 C   0  0  0  0  0  0  0  0  0  0  0  0
   57.9760   33.7390   44.7320 C   0  0  0  0  0  0  0  0  0  0  0  0
   58.9150   34.7490   44.8770 C   0  0  0  0  0  0  0  0  0  0  0  0
   59.5870   34.9650   46.0730 C   0  0  0  0  0  0  0  0  0  0  0  0
   61.9110   34.2120   49.7800 C   0  0  0  0  0  0  0  0  0  0  0  0
   63.3730   33.8940   49.6350 C   0  0  0  0  0  0  0  0  0  0  0  0
   61.1010   32.2180   48.7480 C   0  0  0  0  0  0  0  0  0  0  0  0
   62.3300   31.7200   49.4640 C   0  0  0  0  0  0  0  0  0  0  0  0
   65.4026   32.8696   51.2032 H   0  0  0  0  0  0  0  0  0  0  0  0
   66.5733   32.8949   49.8410 H   0  0  0  0  0  0  0  0  0  0  0  0
   65.1709   34.0174   49.8410 H   0  0  0  0  0  0  0  0  0  0  0  0
   65.2223   31.6721   48.4826 H   0  0  0  0  0  0  0  0  0  0  0  0
   64.5404   31.1110   50.0412 H   0  0  0  0  0  0  0  0  0  0  0  0
   64.1886   33.1595   47.1823 H   0  0  0  0  0  0  0  0  0  0  0  0
   63.0019   31.8291   47.1258 H   0  0  0  0  0  0  0  0  0  0  0  0
   62.5452   34.8193   47.3935 H   0  0  0  0  0  0  0  0  0  0  0  0
   61.5823   33.6238   46.5003 H   0  0  0  0  0  0  0  0  0  0  0  0
   59.3430   33.9305   49.2663 H   0  0  0  0  0  0  0  0  0  0  0  0
   60.1953   35.4015   48.5748 H   0  0  0  0  0  0  0  0  0  0  0  0
   58.1444   32.4664   47.8951 H   0  0  0  0  0  0  0  0  0  0  0  0
   56.9691   32.1108   45.7472 H   0  0  0  0  0  0  0  0  0  0  0  0
   57.4549   33.5853   43.7755 H   0  0  0  0  0  0  0  0  0  0  0  0
   59.1345   35.3996   44.0176 H   0  0  0  0  0  0  0  0  0  0  0  0
   60.3276   35.7738   46.1584 H   0  0  0  0  0  0  0  0  0  0  0  0
   61.7601   35.2999   49.8403 H   0  0  0  0  0  0  0  0  0  0  0  0
   61.4914   33.7745   50.6979 H   0  0  0  0  0  0  0  0  0  0  0  0
   63.8605   34.6270   48.9754 H   0  0  0  0  0  0  0  0  0  0  0  0
   63.8928   33.9323   50.6037 H   0  0  0  0  0  0  0  0  0  0  0  0
   60.2030   32.0043   49.3463 H   0  0  0  0  0  0  0  0  0  0  0  0
   60.9854   31.7191   47.7745 H   0  0  0  0  0  0  0  0  0  0  0  0
   62.1878   31.7902   50.5525 H   0  0  0  0  0  0  0  0  0  0  0  0
   62.5288   30.6666   49.2174 H   0  0  0  0  0  0  0  0  0  0  0  0
  1  2  1  0
  3  2  1  6
  3  4  1  0
  4  5  1  0
  5  6  1  0
  6  7  1  6
  7  8  1  0
  8  9  2  0
  9 10  1  0
 10 11  2  0
 11 12  1  0
 12 13  2  0
  6 14  1  0
 14 15  1  0
  6 16  1  0
 16 17  1  0
 15  3  1  0
 17  3  1  0
 13  8  1  0
  1 18  1  0
  1 19  1  0
  1 20  1  0
  2 21  1  0
  2 22  1  0
  4 23  1  0
  4 24  1  0
  5 25  1  0
  5 26  1  0
  7 27  1  0
  7 28  1  0
  9 29  1  0
 10 30  1  0
 11 31  1  0
 12 32  1  0
 13 33  1  0
 14 34  1  0
 14 35  1  0
 15 36  1  0
 15 37  1  0
 16 38  1  0
 16 39  1  0
 17 40  1  0
 17 41  1  0
M  CHG  2   3   1   6   1
M  END
>  <smiles>  (4) 
CC[N+]12CC[N+](Cc3ccccc3)(CC1)CC2

>  <score_type>  (4) 
oracle

>  <origin>  (4) 
adg

>  <m_score__min__energy>  (4) 
-3.3999999999999999

>  <m_primary>  (4) 
energy

$$$$
5:0
     RDKit          3D

 72 75  0  0  0  0  0  0  0  0999 V2000
   63.2300   33.7770   50.7350 C   0  0  0  0  0  0  0  0  0  0  0  0
   63.0480   33.9680   49.2620 C   0  0  0  0  0  0  0  0  0  0  0  0
   62.7980   32.7480   48.5240 N   0  0  0  0  0  0  0  0  0  0  0  0
   63.5000   32.7060   47.2720 C   0  0  0  0  0  0  0  0  0  0  0  0
   63.0290   33.8370   46.3750 C   0  0  0  0  0  0  0  0  0  0  0  0
   63.0370   31.5620   49.2950 C   0  0  0  0  0  0  0  0  0  0  0  0
   61.8220   30.6950   49.4480 C   0  0  0  0  0  0  0  0  0  0  0  0
   61.1620   30.3790   48.1300 C   0  0  0  0  0  0  0  0  0  0  0  0
   59.7110   30.7180   48.1590 N   0  0  0  0  0  0  0  0  0  0  0  0
   59.1450   30.9910   46.9020 C   0  0  0  0  0  0  0  0  0  0  0  0
   58.6940   29.8410   46.2200 C   0  0  0  0  0  0  0  0  0  0  0  0
   58.8710   28.5800   46.7870 C   0  0  0  0  0  0  0  0  0  0  0  0
   58.4590   27.4170   46.1820 C   0  0  0  0  0  0  0  0  0  0  0  0
   57.8410   27.5150   44.9560 C   0  0  0  0  0  0  0  0  0  0  0  0
   57.6590   28.7520   44.3830 C   0  0  0  0  0  0  0  0  0  0  0  0
   58.0780   29.9090   45.0020 C   0  0  0  0  0  0  0  0  0  0  0  0
   57.8880   31.1400   44.4160 N   0  0  0  0  0  0  0  0  0  0  0  0
   57.2270   31.0910   43.1410 C   0  0  0  0  0  0  0  0  0  0  0  0
   58.3120   32.2440   45.0480 C   0  0  0  0  0  0  0  0  0  0  0  0
   58.0810   33.4450   44.4090 C   0  0  0  0  0  0  0  0  0  0  0  0
   58.5030   34.5870   45.0530 C   0  0  0  0  0  0  0  0  0  0  0  0
   59.1370   34.5300   46.2940 C   0  0  0  0  0  0  0  0  0  0  0  0
   59.3760   33.3280   46.9450 C   0  0  0  0  0  0  0  0  0  0  0  0
   60.0760   33.3840   48.1640 N   0  0  0  0  0  0  0  0  0  0  0  0
   59.6520   34.2890   49.2650 C   0  0  0  0  0  0  0  0  0  0  0  0
   59.6200   33.6080   50.5840 C   0  0  0  0  0  0  0  0  0  0  0  0
   59.2200   32.2510   50.6540 N   0  0  0  0  0  0  0  0  0  0  0  0
   59.6560   31.4780   51.7590 C   0  0  0  0  0  0  0  0  0  0  0  0
   58.3950   31.0650   52.5270 C   0  0  0  0  0  0  0  0  0  0  0  0
   57.3740   30.9870   51.4330 C   0  0  0  0  0  0  0  0  0  0  0  0
   57.8260   32.0220   50.4480 C   0  0  0  0  0  0  0  0  0  0  0  0
   58.9490   32.1920   46.3010 C   0  0  0  0  0  0  0  0  0  0  0  0
   62.5704   34.4692   51.2788 H   0  0  0  0  0  0  0  0  0  0  0  0
   62.9765   32.7411   51.0045 H   0  0  0  0  0  0  0  0  0  0  0  0
   64.2769   33.9803   51.0045 H   0  0  0  0  0  0  0  0  0  0  0  0
   62.1947   34.6445   49.1063 H   0  0  0  0  0  0  0  0  0  0  0  0
   63.9958   34.3754   48.8803 H   0  0  0  0  0  0  0  0  0  0  0  0
   64.5794   32.8120   47.4557 H   0  0  0  0  0  0  0  0  0  0  0  0
   63.2988   31.7445   46.7770 H   0  0  0  0  0  0  0  0  0  0  0  0
   62.6797   34.6757   46.9952 H   0  0  0  0  0  0  0  0  0  0  0  0
   63.8621   34.1726   45.7400 H   0  0  0  0  0  0  0  0  0  0  0  0
   62.2039   33.4820   45.7400 H   0  0  0  0  0  0  0  0  0  0  0  0
   63.8234   30.9754   48.7975 H   0  0  0  0  0  0  0  0  0  0  0  0
   63.3341   31.8851   50.3036 H   0  0  0  0  0  0  0  0  0  0  0  0
   62.1215   29.7510   49.9267 H   0  0  0  0  0  0  0  0  0  0  0  0
   61.0941   31.2486   50.0594 H   0  0  0  0  0  0  0  0  0  0  0  0
   61.6508   30.9615   47.3352 H   0  0  0  0  0  0  0  0  0  0  0  0
   61.2640   29.3005   47.9390 H   0  0  0  0  0  0  0  0  0  0  0  0
   59.2000   30.7740   49.0730 H   0  0  0  0  0  0  0  0  0  0  0  0
   59.3650   28.5125   47.7675 H   0  0  0  0  0  0  0  0  0  0  0  0
   58.6178   26.4399   46.6617 H   0  0  0  0  0  0  0  0  0  0  0  0
   57.4946   26.6089   44.4373 H   0  0  0  0  0  0  0  0  0  0  0  0
   57.1648   28.8193   43.4026 H   0  0  0  0  0  0  0  0  0  0  0  0
   56.1407   31.0105   43.2940 H   0  0  0  0  0  0  0  0  0  0  0  0
   57.4508   32.0082   42.5765 H   0  0  0  0  0  0  0  0  0  0  0  0
   57.5836   30.2168   42.5765 H   0  0  0  0  0  0  0  0  0  0  0  0
   57.5823   33.4884   43.4295 H   0  0  0  0  0  0  0  0  0  0  0  0
   58.3364   35.5652   44.5783 H   0  0  0  0  0  0  0  0  0  0  0  0
   59.4577   35.4675   46.7718 H   0  0  0  0  0  0  0  0  0  0  0  0
   60.9350   32.8840   48.4390 H   0  0  0  0  0  0  0  0  0  0  0  0
   60.3577   35.1310   49.3203 H   0  0  0  0  0  0  0  0  0  0  0  0
   58.6303   34.6297   49.0412 H   0  0  0  0  0  0  0  0  0  0  0  0
   60.6371   33.6646   50.9991 H   0  0  0  0  0  0  0  0  0  0  0  0
   58.8300   34.1411   51.1333 H   0  0  0  0  0  0  0  0  0  0  0  0
   60.1968   30.5863   51.4091 H   0  0  0  0  0  0  0  0  0  0  0  0
   60.3415   32.0520   52.3998 H   0  0  0  0  0  0  0  0  0  0  0  0
   58.5283   30.0903   53.0192 H   0  0  0  0  0  0  0  0  0  0  0  0
   58.1235   31.7570   53.3378 H   0  0  0  0  0  0  0  0  0  0  0  0
   57.3661   29.9870   50.9748 H   0  0  0  0  0  0  0  0  0  0  0  0
   56.3496   31.1617   51.7938 H   0  0  0  0  0  0  0  0  0  0  0  0
   57.6548   31.6612   49.4230 H   0  0  0  0  0  0  0  0  0  0  0  0
   57.2613   32.9553   50.5896 H   0  0  0  0  0  0  0  0  0  0  0  0
  1  2  1  0
  2  3  1  0
  3  4  1  0
  4  5  1  0
  3  6  1  0
  6  7  1  0
  7  8  1  0
  8  9  1  0
  9 10  1  0
 10 11  2  0
 11 12  1  0
 12 13  2  0
 13 14  1  0
 14 15  2  0
 15 16  1  0
 16 17  2  0
 17 18  1  0
 17 19  1  0
 19 20  2  0
 20 21  1  0
 21 22  2  0
 22 23  1  0
 23 24  1  0
 24 25  1  0
 25 26  1  0
 26 27  1  0
 27 28  1  0
 28 29  1  0
 29 30  1  0
 30 31  1  0
 23 32  2  0
 32 10  1  0
 16 11  1  0
 32 19  1  0
 31 27  1  0
  1 33  1  0
  1 34  1  0
  1 35  1  0
  2 36  1  0
  2 37  1  0
  4 38  1  0
  4 39  1  0
  5 40  1  0
  5 41  1  0
  5 42  1  0
  6 43  1  0
  6 44  1  0
  7 45  1  0
  7 46  1  0
  8 47  1  0
  8 48  1  0
  9 49  1  0
 12 50  1  0
 13 51  1  0
 14 52  1  0
 15 53  1  0
 18 54  1  0
 18 55  1  0
 18 56  1  0
 20 57  1  0
 21 58  1  0
 22 59  1  0
 24 60  1  0
 25 61  1  0
 25 62  1  0
 26 63  1  0
 26 64  1  0
 28 65  1  0
 28 66  1  0
 29 67  1  0
 29 68  1  0
 30 69  1  0
 30 70  1  0
 31 71  1  0
 31 72  1  0
M  CHG  1  17   1
M  END
>  <smiles>  (5) 
CCN(CC)CCCNc1c2ccccc2[n+](C)c2cccc(NCCN3CCCC3)c12

>  <score_type>  (5) 
oracle

>  <origin>  (5) 
adg

>  <m_score__min__energy>  (5) 
-6.0700000000000003

>  <m_primary>  (5) 
energy

$$$$
6:0
     RDKit          3D

 73 76  0  0  0  0  0  0  0  0999 V2000
   61.7190   31.2300   52.3310 C   0  0  0  0  0  0  0  0  0  0  0  0
   60.4930   31.0300   51.5130 C   0  0  0  0  0  0  0  0  0  0  0  0
   60.7010   30.0700   50.3930 N   0  0  0  0  0  0  0  0  0  0  0  0
   61.6490   29.0730   50.7900 C   0  0  0  0  0  0  0  0  0  0  0  0
   61.1130   27.6950   50.5040 C   0  0  0  0  0  0  0  0  0  0  0  0
   59.3850   29.4690   50.2810 C   0  0  0  0  0  0  0  0  0  0  0  0
   58.6960   29.5880   48.9670 C   0  0  0  0  0  0  0  0  0  0  0  0
   59.6760   30.1210   47.9880 N   0  0  0  0  0  0  0  0  0  0  0  0
   59.1590   30.7180   46.8150 C   0  0  0  0  0  0  0  0  0  0  0  0
   58.7000   29.7890   45.8580 C   0  0  0  0  0  0  0  0  0  0  0  0
   58.7380   28.4190   46.1510 C   0  0  0  0  0  0  0  0  0  0  0  0
   58.2990   27.4590   45.2710 C   0  0  0  0  0  0  0  0  0  0  0  0
   57.8090   27.8610   44.0660 C   0  0  0  0  0  0  0  0  0  0  0  0
   57.7690   29.2140   43.7670 C   0  0  0  0  0  0  0  0  0  0  0  0
   58.2050   30.1840   44.6420 C   0  0  0  0  0  0  0  0  0  0  0  0
   58.1580   31.4960   44.3640 N   0  0  0  0  0  0  0  0  0  0  0  0
   57.6680   31.9930   43.1080 C   0  0  0  0  0  0  0  0  0  0  0  0
   58.5920   32.3970   45.2740 C   0  0  0  0  0  0  0  0  0  0  0  0
   58.5040   33.7370   44.9100 C   0  0  0  0  0  0  0  0  0  0  0  0
   58.9360   34.6720   45.8220 C   0  0  0  0  0  0  0  0  0  0  0  0
   59.4320   34.2940   47.0430 C   0  0  0  0  0  0  0  0  0  0  0  0
   59.5350   32.9540   47.4470 C   0  0  0  0  0  0  0  0  0  0  0  0
   59.9690   32.6720   48.7490 N   0  0  0  0  0  0  0  0  0  0  0  0
   60.0130   33.7960   49.7120 C   0  0  0  0  0  0  0  0  0  0  0  0
   61.3980   34.1770   50.1030 C   0  0  0  0  0  0  0  0  0  0  0  0
   62.2590   34.5920   48.9520 C   0  0  0  0  0  0  0  0  0  0  0  0
   63.4310   33.8260   48.7310 N   0  0  0  0  0  0  0  0  0  0  0  0
   63.7810   32.9300   49.7900 C   0  0  0  0  0  0  0  0  0  0  0  0
   63.3930   31.5010   49.4120 C   0  0  0  0  0  0  0  0  0  0  0  0
   62.3190   31.4750   48.5360 O   0  0  0  0  0  0  0  0  0  0  0  0
   62.7280   31.9550   47.2900 C   0  0  0  0  0  0  0  0  0  0  0  0
   63.5200   33.2300   47.4260 C   0  0  0  0  0  0  0  0  0  0  0  0
   59.1000   32.0400   46.5170 C   0  0  0  0  0  0  0  0  0  0  0  0
   61.4583   31.1875   53.3988 H   0  0  0  0  0  0  0  0  0  0  0  0
   62.4473   30.4388   52.0996 H   0  0  0  0  0  0  0  0  0  0  0  0
   62.1581   32.2116   52.0996 H   0  0  0  0  0  0  0  0  0  0  0  0
   59.6945   30.6442   52.1638 H   0  0  0  0  0  0  0  0  0  0  0  0
   60.2243   32.0017   51.0729 H   0  0  0  0  0  0  0  0  0  0  0  0
   62.5853   29.2207   50.2319 H   0  0  0  0  0  0  0  0  0  0  0  0
   61.8338   29.1667   51.8703 H   0  0  0  0  0  0  0  0  0  0  0  0
   60.9111   27.1759   51.4526 H   0  0  0  0  0  0  0  0  0  0  0  0
   60.1811   27.7769   49.9253 H   0  0  0  0  0  0  0  0  0  0  0  0
   61.8552   27.1257   49.9253 H   0  0  0  0  0  0  0  0  0  0  0  0
   59.4899   28.3971   50.5045 H   0  0  0  0  0  0  0  0  0  0  0  0
   58.7542   30.0308   50.9856 H   0  0  0  0  0  0  0  0  0  0  0  0
   58.3401   28.5998   48.6402 H   0  0  0  0  0  0  0  0  0  0  0  0
   57.8286   30.2597   49.0472 H   0  0  0  0  0  0  0  0  0  0  0  0
   60.7190   30.0800   48.2060 H   0  0  0  0  0  0  0  0  0  0  0  0
   59.1356   28.0989   47.1254 H   0  0  0  0  0  0  0  0  0  0  0  0
   58.3425   26.3917   45.5338 H   0  0  0  0  0  0  0  0  0  0  0  0
   57.4486   27.1199   43.3374 H   0  0  0  0  0  0  0  0  0  0  0  0
   57.3723   29.5260   42.7896 H   0  0  0  0  0  0  0  0  0  0  0  0
   56.9065   32.7654   43.2912 H   0  0  0  0  0  0  0  0  0  0  0  0
   58.5008   32.4276   42.5356 H   0  0  0  0  0  0  0  0  0  0  0  0
   57.2216   31.1665   42.5356 H   0  0  0  0  0  0  0  0  0  0  0  0
   58.1042   34.0374   43.9302 H   0  0  0  0  0  0  0  0  0  0  0  0
   58.8826   35.7408   45.5673 H   0  0  0  0  0  0  0  0  0  0  0  0
   59.7650   35.0782   47.7389 H   0  0  0  0  0  0  0  0  0  0  0  0
   60.2510   31.7940   49.1830 H   0  0  0  0  0  0  0  0  0  0  0  0
   59.5262   34.6692   49.2532 H   0  0  0  0  0  0  0  0  0  0  0  0
   59.4939   33.4666   50.6241 H   0  0  0  0  0  0  0  0  0  0  0  0
   61.3396   35.0158   50.8122 H   0  0  0  0  0  0  0  0  0  0  0  0
   61.8631   33.2832   50.5444 H   0  0  0  0  0  0  0  0  0  0  0  0
   61.6468   34.5371   48.0397 H   0  0  0  0  0  0  0  0  0  0  0  0
   62.6143   35.6022   49.2034 H   0  0  0  0  0  0  0  0  0  0  0  0
   64.8658   32.9790   49.9657 H   0  0  0  0  0  0  0  0  0  0  0  0
   63.2427   33.2217   50.7039 H   0  0  0  0  0  0  0  0  0  0  0  0
   64.2548   31.0125   48.9337 H   0  0  0  0  0  0  0  0  0  0  0  0
   63.0988   30.9717   50.3303 H   0  0  0  0  0  0  0  0  0  0  0  0
   63.3548   31.1945   46.8014 H   0  0  0  0  0  0  0  0  0  0  0  0
   61.8315   32.1663   46.6886 H   0  0  0  0  0  0  0  0  0  0  0  0
   64.5767   33.0071   47.2168 H   0  0  0  0  0  0  0  0  0  0  0  0
   63.0955   33.9513   46.7122 H   0  0  0  0  0  0  0  0  0  0  0  0
  1  2  1  0
  2  3  1  0
  3  4  1  0
  4  5  1  0
  3  6  1  0
  6  7  1  0
  7  8  1  0
  8  9  1  0
  9 10  2  0
 10 11  1  0
 11 12  2  0
 12 13  1  0
 13 14  2  0
 14 15  1  0
 15 16  2  0
 16 17  1  0
 16 18  1  0
 18 19  2  0
 19 20  1  0
 20 21  2  0
 21 22  1  0
 22 23  1  0
 23 24  1  0
 24 25  1  0
 25 26  1  0
 26 27  1  0
 27 28  1  0
 28 29  1  0
 29 30  1  0
 30 31  1  0
 31 32  1  0
 22 33  2  0
 33  9  1  0
 15 10  1  0
 33 18  1  0
 32 27  1  0
  1 34  1  0
  1 35  1  0
  1 36  1  0
  2 37  1  0
  2 38  1  0
  4 39  1  0
  4 40  1  0
  5 41  1  0
  5 42  1  0
  5 43  1  0
  6 44  1  0
  6 45  1  0
  7 46  1  0
  7 47  1  0
  8 48  1  0
 11 49  1  0
 12 50  1  0
 13 51  1  0
 14 52  1  0
 17 53  1  0
 17 54  1  0
 17 55  1  0
 19 56  1  0
 20 57  1  0
 21 58  1  0
 23 59  1  0
 24 60  1  0
 24 61  1  0
 25 62  1  0
 25 63  1  0
 26 64  1  0
 26 65  1  0
 28 66  1  0
 28 67  1  0
 29 68  1  0
 29 69  1  0
 31 70  1  0
 31 71  1  0
 32 72  1  0
 32 73  1  0
M  CHG  1  16   1
M  END
>  <smiles>  (6) 
CCN(CC)CCNc1c2ccccc2[n+](C)c2cccc(NCCCN3CCOCC3)c12

>  <score_type>  (6) 
oracle

>  <origin>  (6) 
adg

>  <m_score__min__energy>  (6) 
-6.0300000000000002

>  <m_primary>  (6) 
energy

$$$$
7:0
     RDKit          3D

 53 55  0  0  0  0  0  0  0  0999 V2000
   63.0480   33.8300   46.3590 C   0  0  0  0  0  0  0  0  0  0  0  0
   63.6790   32.7340   47.1730 C   0  0  0  0  0  0  0  0  0  0  0  0
   63.3700   32.8150   48.5900 N   0  0  0  0  0  0  0  0  0  0  0  0
   64.4520   32.2420   49.3680 C   0  0  0  0  0  0  0  0  0  0  0  0
   64.0820   32.2200   50.8400 C   0  0  0  0  0  0  0  0  0  0  0  0
   63.1880   31.0230   51.1460 C   0  0  0  0  0  0  0  0  0  0  0  0
   62.4500   30.6310   50.0660 O   0  0  0  0  0  0  0  0  0  0  0  0
   61.1750   30.2450   50.2520 C   0  0  0  0  0  0  0  0  0  0  0  0
   60.1270   30.6070   49.2620 C   0  0  0  0  0  0  0  0  0  0  0  0
   60.7340   31.1600   48.0300 N   0  0  0  0  0  0  0  0  0  0  0  0
   59.8790   31.1970   46.9090 C   0  0  0  0  0  0  0  0  0  0  0  0
   59.6570   29.9570   46.2790 C   0  0  0  0  0  0  0  0  0  0  0  0
   60.2270   28.8080   46.7960 C   0  0  0  0  0  0  0  0  0  0  0  0
   60.0410   27.5570   46.2280 C   0  0  0  0  0  0  0  0  0  0  0  0
   59.2470   27.5120   45.1010 C   0  0  0  0  0  0  0  0  0  0  0  0
   58.6610   28.6590   44.5610 C   0  0  0  0  0  0  0  0  0  0  0  0
   58.8570   29.8840   45.1390 C   0  0  0  0  0  0  0  0  0  0  0  0
   58.2710   30.9630   44.5970 N   0  0  0  0  0  0  0  0  0  0  0  0
   57.4500   30.9700   43.4290 C   0  0  0  0  0  0  0  0  0  0  0  0
   58.4750   32.1760   45.2030 C   0  0  0  0  0  0  0  0  0  0  0  0
   57.8580   33.3080   44.6840 C   0  0  0  0  0  0  0  0  0  0  0  0
   57.9980   34.5580   45.2660 C   0  0  0  0  0  0  0  0  0  0  0  0
   58.7840   34.6240   46.3930 C   0  0  0  0  0  0  0  0  0  0  0  0
   59.4000   33.5080   46.9130 C   0  0  0  0  0  0  0  0  0  0  0  0
   60.2890   33.6870   48.3890 Cl  0  0  0  0  0  0  0  0  0  0  0  0
   59.2730   32.2690   46.3460 C   0  0  0  0  0  0  0  0  0  0  0  0
   62.6141   34.5836   47.0326 H   0  0  0  0  0  0  0  0  0  0  0  0
   63.8126   34.3021   45.7245 H   0  0  0  0  0  0  0  0  0  0  0  0
   62.2558   33.4059   45.7245 H   0  0  0  0  0  0  0  0  0  0  0  0
   63.3194   31.7665   46.7927 H   0  0  0  0  0  0  0  0  0  0  0  0
   64.7690   32.8421   47.0723 H   0  0  0  0  0  0  0  0  0  0  0  0
   62.4940   32.3100   48.7870 H   0  0  0  0  0  0  0  0  0  0  0  0
   64.6418   31.2141   49.0253 H   0  0  0  0  0  0  0  0  0  0  0  0
   65.3557   32.8546   49.2333 H   0  0  0  0  0  0  0  0  0  0  0  0
   64.9993   32.1508   51.4432 H   0  0  0  0  0  0  0  0  0  0  0  0
   63.5373   33.1438   51.0847 H   0  0  0  0  0  0  0  0  0  0  0  0
   63.8215   30.1819   51.4642 H   0  0  0  0  0  0  0  0  0  0  0  0
   62.4867   31.3239   51.9382 H   0  0  0  0  0  0  0  0  0  0  0  0
   61.1838   29.1468   50.3149 H   0  0  0  0  0  0  0  0  0  0  0  0
   60.8739   30.8065   51.1487 H   0  0  0  0  0  0  0  0  0  0  0  0
   59.5473   29.7079   49.0059 H   0  0  0  0  0  0  0  0  0  0  0  0
   59.4727   31.3718   49.7059 H   0  0  0  0  0  0  0  0  0  0  0  0
   61.7240   31.4850   48.0400 H   0  0  0  0  0  0  0  0  0  0  0  0
   60.8544   28.8900   47.6958 H   0  0  0  0  0  0  0  0  0  0  0  0
   60.5004   26.6519   46.6520 H   0  0  0  0  0  0  0  0  0  0  0  0
   59.0698   26.5426   44.6123 H   0  0  0  0  0  0  0  0  0  0  0  0
   58.0346   28.5768   43.6605 H   0  0  0  0  0  0  0  0  0  0  0  0
   56.3907   30.9790   43.7254 H   0  0  0  0  0  0  0  0  0  0  0  0
   57.6710   31.8663   42.8308 H   0  0  0  0  0  0  0  0  0  0  0  0
   57.6557   30.0701   42.8308 H   0  0  0  0  0  0  0  0  0  0  0  0
   57.2377   33.2085   43.7810 H   0  0  0  0  0  0  0  0  0  0  0  0
   57.5069   35.4496   44.8490 H   0  0  0  0  0  0  0  0  0  0  0  0
   58.9241   35.5943   46.8920 H   0  0  0  0  0  0  0  0  0  0  0  0
  1  2  1  0
  2  3  1  0
  3  4  1  0
  4  5  1  0
  5  6  1  0
  6  7  1  0
  7  8  1  0
  8  9  1  0
  9 10  1  0
 10 11  1  0
 11 12  2  0
 12 13  1  0
 13 14  2  0
 14 15  1  0
 15 16  2  0
 16 17  1  0
 17 18  2  0
 18 19  1  0
 18 20  1  0
 20 21  2  0
 21 22  1  0
 22 23  2  0
 23 24  1  0
 24 25  1  0
 24 26  2  0
 26 11  1  0
 17 12  1  0
 26 20  1  0
  1 27  1  0
  1 28  1  0
  1 29  1  0
  2 30  1  0
  2 31  1  0
  3 32  1  0
  4 33  1  0
  4 34  1  0
  5 35  1  0
  5 36  1  0
  6 37  1  0
  6 38  1  0
  8 39  1  0
  8 40  1  0
  9 41  1  0
  9 42  1  0
 10 43  1  0
 13 44  1  0
 14 45  1  0
 15 46  1  0
 16 47  1  0
 19 48  1  0
 19 49  1  0
 19 50  1  0
 21 51  1  0
 22 52  1  0
 23 53  1  0
M  CHG  1  18   1
M  END
>  <smiles>  (7) 
CCNCCCOCCNc1c2ccccc2[n+](C)c2cccc(Cl)c12

>  <score_type>  (7) 
oracle

>  <origin>  (7) 
adg

>  <m_score__min__energy>  (7) 
-6.1399999999999997

>  <m_primary>  (7) 
energy

$$$$
8:0
     RDKit          3D

 46 47  0  0  0  0  0  0  0  0999 V2000
   61.4600   31.0230   47.1500 C   0  0  0  0  0  0  0  0  0  0  0  0
   60.1120   30.5260   47.5970 C   0  0  0  0  0  0  0  0  0  0  0  0
   59.6550   29.4360   46.8710 N   0  0  0  0  0  0  0  0  0  0  0  0
   58.6990   28.5350   47.3380 C   0  0  0  0  0  0  0  0  0  0  0  0
   59.2980   27.2760   47.8880 C   0  0  0  0  0  0  0  0  0  0  0  0
   60.4990   28.9550   45.8080 C   0  0  0  0  0  0  0  0  0  0  0  0
   59.6130   28.3670   44.7390 C   0  0  0  0  0  0  0  0  0  0  0  0
   58.9350   29.5080   44.1120 N   0  0  0  0  0  0  0  0  0  0  0  0
   57.5780   29.8160   44.3340 C   0  0  0  0  0  0  0  0  0  0  0  0
   56.6000   28.9640   44.6720 N   0  0  0  0  0  0  0  0  0  0  0  0
   55.4870   29.6650   44.7760 N   0  0  0  0  0  0  0  0  0  0  0  0
   55.7580   30.9310   44.5090 N   0  0  0  0  0  0  0  0  0  0  0  0
   57.0510   31.0420   44.2330 N   0  0  0  0  0  0  0  0  0  0  0  0
   57.6640   32.3090   43.8960 C   0  0  0  0  0  0  0  0  0  0  0  0
   58.2050   32.9560   45.1160 C   0  0  0  0  0  0  0  0  0  0  0  0
   57.7680   32.7090   46.3810 C   0  0  0  0  0  0  0  0  0  0  0  0
   58.3310   33.3590   47.4550 C   0  0  0  0  0  0  0  0  0  0  0  0
   59.3500   34.2830   47.3220 C   0  0  0  0  0  0  0  0  0  0  0  0
   59.8980   34.9250   48.4230 O   0  0  0  0  0  0  0  0  0  0  0  0
   60.6680   34.2220   49.3470 C   0  0  0  0  0  0  0  0  0  0  0  0
   59.8020   34.5390   46.0240 C   0  0  0  0  0  0  0  0  0  0  0  0
   59.2260   33.8770   44.9570 C   0  0  0  0  0  0  0  0  0  0  0  0
   62.0776   31.2507   48.0313 H   0  0  0  0  0  0  0  0  0  0  0  0
   61.9547   30.2481   46.5459 H   0  0  0  0  0  0  0  0  0  0  0  0
   61.3333   31.9335   46.5459 H   0  0  0  0  0  0  0  0  0  0  0  0
   60.1819   30.2347   48.6554 H   0  0  0  0  0  0  0  0  0  0  0  0
   59.3957   31.3451   47.4358 H   0  0  0  0  0  0  0  0  0  0  0  0
   58.1172   29.0229   48.1339 H   0  0  0  0  0  0  0  0  0  0  0  0
   58.0686   28.2521   46.4821 H   0  0  0  0  0  0  0  0  0  0  0  0
   59.2810   27.3117   48.9873 H   0  0  0  0  0  0  0  0  0  0  0  0
   58.7153   26.4103   47.5402 H   0  0  0  0  0  0  0  0  0  0  0  0
   60.3373   27.1820   47.5402 H   0  0  0  0  0  0  0  0  0  0  0  0
   61.0850   29.7873   45.3910 H   0  0  0  0  0  0  0  0  0  0  0  0
   61.1957   28.1934   46.1883 H   0  0  0  0  0  0  0  0  0  0  0  0
   60.2165   27.8244   43.9965 H   0  0  0  0  0  0  0  0  0  0  0  0
   58.8937   27.6481   45.1584 H   0  0  0  0  0  0  0  0  0  0  0  0
   59.5260   30.0890   43.4760 H   0  0  0  0  0  0  0  0  0  0  0  0
   58.4828   32.1380   43.1817 H   0  0  0  0  0  0  0  0  0  0  0  0
   56.9055   32.9669   43.4468 H   0  0  0  0  0  0  0  0  0  0  0  0
   56.9578   31.9835   46.5462 H   0  0  0  0  0  0  0  0  0  0  0  0
   57.9536   33.1334   48.4633 H   0  0  0  0  0  0  0  0  0  0  0  0
   60.3627   34.5008   50.3664 H   0  0  0  0  0  0  0  0  0  0  0  0
   60.5191   33.1418   49.2021 H   0  0  0  0  0  0  0  0  0  0  0  0
   61.7302   34.4684   49.2021 H   0  0  0  0  0  0  0  0  0  0  0  0
   60.6118   35.2636   45.8533 H   0  0  0  0  0  0  0  0  0  0  0  0
   59.5928   34.0900   43.9421 H   0  0  0  0  0  0  0  0  0  0  0  0
  1  2  1  0
  2  3  1  0
  3  4  1  0
  4  5  1  0
  3  6  1  0
  6  7  1  0
  7  8  1  0
  8  9  1  0
  9 10  2  0
 10 11  1  0
 11 12  2  0
 12 13  1  0
 13 14  1  0
 14 15  1  0
 15 16  2  0
 16 17  1  0
 17 18  2  0
 18 19  1  0
 19 20  1  0
 18 21  1  0
 21 22  2  0
 13  9  1  0
 22 15  1  0
  1 23  1  0
  1 24  1  0
  1 25  1  0
  2 26  1  0
  2 27  1  0
  4 28  1  0
  4 29  1  0
  5 30  1  0
  5 31  1  0
  5 32  1  0
  6 33  1  0
  6 34  1  0
  7 35  1  0
  7 36  1  0
  8 37  1  0
 14 38  1  0
 14 39  1  0
 16 40  1  0
 17 41  1  0
 20 42  1  0
 20 43  1  0
 20 44  1  0
 21 45  1  0
 22 46  1  0
M  END
>  <smiles>  (8) 
CCN(CC)CCNc1nnnn1Cc1ccc(OC)cc1

>  <score_type>  (8) 
oracle

>  <origin>  (8) 
adg

>  <m_score__min__energy>  (8) 
-6.71

>  <m_primary>  (8) 
energy

$$$$
9:0
     RDKit          3D

 53 55  0  0  0  0  0  0  0  0999 V2000
   60.7490   27.0880   49.3420 C   0  0  0  0  0  0  0  0  0  0  0  0
   60.3860   28.4690   48.9620 C   0  0  0  0  0  0  0  0  0  0  0  0
   60.7800   29.5390   49.7270 C   0  0  0  0  0  0  0  0  0  0  0  0
   60.4770   30.8570   49.4320 C   0  0  0  0  0  0  0  0  0  0  0  0
   60.9490   31.9020   50.3630 C   0  0  0  0  0  0  0  0  0  0  0  0
   59.7330   31.0870   48.2950 C   0  0  0  0  0  0  0  0  0  0  0  0
   59.4080   32.3840   47.9780 C   0  0  0  0  0  0  0  0  0  0  0  0
   59.7770   33.5420   48.6550 N   0  0  0  0  0  0  0  0  0  0  0  0
   60.8370   34.3660   48.0640 C   0  0  0  0  0  0  0  0  0  0  0  0
   61.5310   33.6240   46.9500 C   0  0  0  0  0  0  0  0  0  0  0  0
   63.0120   33.9060   46.9340 C   0  0  0  0  0  0  0  0  0  0  0  0
   63.7250   32.8450   47.5660 N   0  0  0  0  0  0  0  0  0  0  0  0
   64.1540   33.0860   48.9030 C   0  0  0  0  0  0  0  0  0  0  0  0
   63.1180   31.5560   47.4360 C   0  0  0  0  0  0  0  0  0  0  0  0
   58.6410   32.5580   46.8150 C   0  0  0  0  0  0  0  0  0  0  0  0
   58.2480   31.4780   46.0550 C   0  0  0  0  0  0  0  0  0  0  0  0
   58.5790   30.1970   46.3790 N   0  0  0  0  0  0  0  0  0  0  0  0
   58.1240   29.1740   45.4890 C   0  0  0  0  0  0  0  0  0  0  0  0
   59.3130   30.0130   47.4870 C   0  0  0  0  0  0  0  0  0  0  0  0
   59.6380   28.7210   47.8210 C   0  0  0  0  0  0  0  0  0  0  0  0
   57.4230   31.7840   44.8760 C   0  0  0  0  0  0  0  0  0  0  0  0
   56.5530   30.9380   44.5210 O   0  0  0  0  0  0  0  0  0  0  0  0
   57.6190   33.0750   44.1210 C   0  0  0  0  0  0  0  0  0  0  0  0
   58.0680   34.1700   45.0180 C   0  0  0  0  0  0  0  0  0  0  0  0
   58.2410   33.8110   46.3780 O   0  0  0  0  0  0  0  0  0  0  0  0
   60.7713   27.0033   50.4385 H   0  0  0  0  0  0  0  0  0  0  0  0
   60.0043   26.3880   48.9352 H   0  0  0  0  0  0  0  0  0  0  0  0
   61.7416   26.8447   48.9352 H   0  0  0  0  0  0  0  0  0  0  0  0
   61.3735   29.3361   50.6307 H   0  0  0  0  0  0  0  0  0  0  0  0
   60.7971   31.5657   51.3992 H   0  0  0  0  0  0  0  0  0  0  0  0
   62.0192   32.0896   50.1916 H   0  0  0  0  0  0  0  0  0  0  0  0
   60.3822   32.8290   50.1916 H   0  0  0  0  0  0  0  0  0  0  0  0
   59.3430   33.9140   49.5390 H   0  0  0  0  0  0  0  0  0  0  0  0
   60.3946   35.2894   47.6619 H   0  0  0  0  0  0  0  0  0  0  0  0
   61.5755   34.6043   48.8436 H   0  0  0  0  0  0  0  0  0  0  0  0
   61.3747   32.5440   47.0887 H   0  0  0  0  0  0  0  0  0  0  0  0
   61.1058   33.9627   45.9937 H   0  0  0  0  0  0  0  0  0  0  0  0
   63.3519   34.0015   45.8922 H   0  0  0  0  0  0  0  0  0  0  0  0
   63.2040   34.8412   47.4804 H   0  0  0  0  0  0  0  0  0  0  0  0
   63.4159   32.6713   49.6053 H   0  0  0  0  0  0  0  0  0  0  0  0
   65.1286   32.6033   49.0680 H   0  0  0  0  0  0  0  0  0  0  0  0
   64.2488   34.1694   49.0680 H   0  0  0  0  0  0  0  0  0  0  0  0
   62.9223   31.1404   48.4355 H   0  0  0  0  0  0  0  0  0  0  0  0
   62.1699   31.6509   46.8863 H   0  0  0  0  0  0  0  0  0  0  0  0
   63.7951   30.8856   46.8863 H   0  0  0  0  0  0  0  0  0  0  0  0
   57.7451   28.3221   46.0727 H   0  0  0  0  0  0  0  0  0  0  0  0
   57.3178   29.5716   44.8549 H   0  0  0  0  0  0  0  0  0  0  0  0
   58.9591   28.8416   44.8549 H   0  0  0  0  0  0  0  0  0  0  0  0
   59.3058   27.8874   47.1849 H   0  0  0  0  0  0  0  0  0  0  0  0
   58.3775   32.9200   43.3396 H   0  0  0  0  0  0  0  0  0  0  0  0
   56.6542   33.3655   43.6797 H   0  0  0  0  0  0  0  0  0  0  0  0
   59.0313   34.5439   44.6408 H   0  0  0  0  0  0  0  0  0  0  0  0
   57.2649   34.9215   45.0033 H   0  0  0  0  0  0  0  0  0  0  0  0
  1  2  1  0
  2  3  2  0
  3  4  1  0
  4  5  1  0
  4  6  2  0
  6  7  1  0
  7  8  1  0
  8  9  1  0
  9 10  1  0
 10 11  1  0
 11 12  1  0
 12 13  1  0
 12 14  1  0
  7 15  2  0
 15 16  1  0
 16 17  2  0
 17 18  1  0
 17 19  1  0
 19 20  2  0
 16 21  1  0
 21 22  2  0
 21 23  1  0
 23 24  1  0
 24 25  1  0
 20  2  1  0
 19  6  1  0
 25 15  1  0
  1 26  1  0
  1 27  1  0
  1 28  1  0
  3 29  1  0
  5 30  1  0
  5 31  1  0
  5 32  1  0
  8 33  1  0
  9 34  1  0
  9 35  1  0
 10 36  1  0
 10 37  1  0
 11 38  1  0
 11 39  1  0
 13 40  1  0
 13 41  1  0
 13 42  1  0
 14 43  1  0
 14 44  1  0
 14 45  1  0
 18 46  1  0
 18 47  1  0
 18 48  1  0
 20 49  1  0
 23 50  1  0
 23 51  1  0
 24 52  1  0
 24 53  1  0
M  CHG  1  17   1
M  END
>  <smiles>  (9) 
Cc1cc(C)c2c(NCCCN(C)C)c3c([n+](C)c2c1)C(=O)CCO3

>  <score_type>  (9) 
oracle

>  <origin>  (9) 
adg

>  <m_score__min__energy>  (9) 
-5.8700000000000001

>  <m_primary>  (9) 
energy

$$$$
10:0
     RDKit          3D

 43 45  0  0  0  0  0  0  0  0999 V2000
   63.8090   33.0800   48.7180 C   0  0  0  0  0  0  0  0  0  0  0  0
   63.4350   32.6290   47.3910 N   0  0  0  0  0  0  0  0  0  0  0  0
   63.0620   33.7820   46.6170 C   0  0  0  0  0  0  0  0  0  0  0  0
   62.4010   31.6000   47.4200 C   0  0  0  0  0  0  0  0  0  0  0  0
   61.5530   31.8510   48.6190 C   0  0  0  0  0  0  0  0  0  0  0  0
   60.1510   31.5400   48.4620 N   0  0  0  0  0  0  0  0  0  0  0  0
   59.5580   31.7820   47.2120 C   0  0  0  0  0  0  0  0  0  0  0  0
   59.4020   33.0220   46.6360 C   0  0  0  0  0  0  0  0  0  0  0  0
   58.8290   33.1640   45.3910 C   0  0  0  0  0  0  0  0  0  0  0  0
   58.4100   32.0790   44.7200 N   0  0  0  0  0  0  0  0  0  0  0  0
   57.8000   32.2330   43.3980 C   0  0  0  0  0  0  0  0  0  0  0  0
   58.5310   30.8430   45.2240 C   0  0  0  0  0  0  0  0  0  0  0  0
   58.0830   29.7710   44.4890 C   0  0  0  0  0  0  0  0  0  0  0  0
   58.1990   28.5030   44.9870 C   0  0  0  0  0  0  0  0  0  0  0  0
   58.7690   28.3070   46.2340 C   0  0  0  0  0  0  0  0  0  0  0  0
   59.2210   29.4090   46.9710 C   0  0  0  0  0  0  0  0  0  0  0  0
   59.1070   30.6980   46.4700 C   0  0  0  0  0  0  0  0  0  0  0  0
   58.7830   34.5960   44.9930 C   0  0  0  0  0  0  0  0  0  0  0  0
   59.6310   35.3470   46.0010 C   0  0  0  0  0  0  0  0  0  0  0  0
   59.7270   34.3600   47.1090 C   0  0  0  0  0  0  0  0  0  0  0  0
   60.0410   34.6310   48.2820 O   0  0  0  0  0  0  0  0  0  0  0  0
   63.2979   32.4637   49.4723 H   0  0  0  0  0  0  0  0  0  0  0  0
   64.8977   32.9858   48.8440 H   0  0  0  0  0  0  0  0  0  0  0  0
   63.5150   34.1325   48.8440 H   0  0  0  0  0  0  0  0  0  0  0  0
   62.7951   34.6072   47.2937 H   0  0  0  0  0  0  0  0  0  0  0  0
   63.9073   34.0869   45.9826 H   0  0  0  0  0  0  0  0  0  0  0  0
   62.1983   33.5340   45.9826 H   0  0  0  0  0  0  0  0  0  0  0  0
   61.7885   31.6573   46.5081 H   0  0  0  0  0  0  0  0  0  0  0  0
   62.8526   30.5981   47.4677 H   0  0  0  0  0  0  0  0  0  0  0  0
   61.9455   31.2411   49.4460 H   0  0  0  0  0  0  0  0  0  0  0  0
   61.6044   32.9339   48.8055 H   0  0  0  0  0  0  0  0  0  0  0  0
   59.5760   31.1500   49.2270 H   0  0  0  0  0  0  0  0  0  0  0  0
   56.7393   32.5008   43.5126 H   0  0  0  0  0  0  0  0  0  0  0  0
   58.3211   33.0278   42.8441 H   0  0  0  0  0  0  0  0  0  0  0  0
   57.8814   31.2861   42.8441 H   0  0  0  0  0  0  0  0  0  0  0  0
   57.6309   29.9336   43.4995 H   0  0  0  0  0  0  0  0  0  0  0  0
   57.8417   27.6435   44.4007 H   0  0  0  0  0  0  0  0  0  0  0  0
   58.8663   27.2908   46.6436 H   0  0  0  0  0  0  0  0  0  0  0  0
   59.6729   29.2503   47.9613 H   0  0  0  0  0  0  0  0  0  0  0  0
   59.1936   34.7230   43.9804 H   0  0  0  0  0  0  0  0  0  0  0  0
   57.7500   34.9737   44.9802 H   0  0  0  0  0  0  0  0  0  0  0  0
   60.6230   35.5871   45.5908 H   0  0  0  0  0  0  0  0  0  0  0  0
   59.2109   36.3178   46.3029 H   0  0  0  0  0  0  0  0  0  0  0  0
  1  2  1  0
  2  3  1  0
  2  4  1  0
  4  5  1  0
  5  6  1  0
  6  7  1  0
  7  8  2  0
  8  9  1  0
  9 10  2  0
 10 11  1  0
 10 12  1  0
 12 13  2  0
 13 14  1  0
 14 15  2  0
 15 16  1  0
 16 17  2  0
  9 18  1  0
 18 19  1  0
 19 20  1  0
 20 21  2  0
 17  7  1  0
 20  8  1  0
 17 12  1  0
  1 22  1  0
  1 23  1  0
  1 24  1  0
  3 25  1  0
  3 26  1  0
  3 27  1  0
  4 28  1  0
  4 29  1  0
  5 30  1  0
  5 31  1  0
  6 32  1  0
 11 33  1  0
 11 34  1  0
 11 35  1  0
 13 36  1  0
 14 37  1  0
 15 38  1  0
 16 39  1  0
 18 40  1  0
 18 41  1  0
 19 42  1  0
 19 43  1  0
M  CHG  1  10   1
M  END
>  <smiles>  (10) 
CN(C)CCNc1c2c([n+](C)c3ccccc13)CCC2=O

>  <score_type>  (10) 
oracle

>  <origin>  (10) 
adg

>  <m_score__min__energy>  (10) 
-5.0800000000000001

>  <m_primary>  (10) 
energy

$$$$
11:0
     RDKit          3D

 59 61  0  0  0  0  0  0  0  0999 V2000
   63.3810   33.2630   46.8010 C   0  0  0  0  0  0  0  0  0  0  0  0
   63.6500   33.4580   48.2510 C   0  0  0  0  0  0  0  0  0  0  0  0
   63.6890   32.1370   49.0310 C   0  0  0  0  0  0  0  0  0  0  0  0
   62.3860   31.5750   48.8860 N   0  0  0  0  0  0  0  0  0  0  0  0
   61.7170   31.2000   50.0880 C   0  0  0  0  0  0  0  0  0  0  0  0
   61.6950   29.7240   50.3440 C   0  0  0  0  0  0  0  0  0  0  0  0
   60.7780   28.9980   49.3920 C   0  0  0  0  0  0  0  0  0  0  0  0
   59.6830   29.8310   48.8120 C   0  0  0  0  0  0  0  0  0  0  0  0
   60.1100   30.5600   47.6240 N   0  0  0  0  0  0  0  0  0  0  0  0
   59.3260   30.6300   46.4380 C   0  0  0  0  0  0  0  0  0  0  0  0
   58.9410   29.5170   45.7180 C   0  0  0  0  0  0  0  0  0  0  0  0
   59.3300   28.2820   46.1880 C   0  0  0  0  0  0  0  0  0  0  0  0
   59.0100   27.0940   45.5670 C   0  0  0  0  0  0  0  0  0  0  0  0
   58.2610   27.1720   44.4200 C   0  0  0  0  0  0  0  0  0  0  0  0
   57.8560   28.4200   43.9290 C   0  0  0  0  0  0  0  0  0  0  0  0
   58.1910   29.5710   44.5690 C   0  0  0  0  0  0  0  0  0  0  0  0
   57.7890   30.7500   44.0810 N   0  0  0  0  0  0  0  0  0  0  0  0
   57.0110   30.9380   42.8950 C   0  0  0  0  0  0  0  0  0  0  0  0
   58.1410   31.8890   44.7550 C   0  0  0  0  0  0  0  0  0  0  0  0
   57.7220   33.1180   44.2700 C   0  0  0  0  0  0  0  0  0  0  0  0
   58.0170   34.3130   44.8850 C   0  0  0  0  0  0  0  0  0  0  0  0
   58.7790   34.2580   46.0560 C   0  0  0  0  0  0  0  0  0  0  0  0
   59.2120   33.0550   46.5670 C   0  0  0  0  0  0  0  0  0  0  0  0
   59.9600   32.9810   47.7200 O   0  0  0  0  0  0  0  0  0  0  0  0
   60.0680   34.0950   48.5680 C   0  0  0  0  0  0  0  0  0  0  0  0
   59.6770   33.8400   49.9920 C   0  0  0  0  0  0  0  0  0  0  0  0
   58.8920   31.8550   45.9120 C   0  0  0  0  0  0  0  0  0  0  0  0
   62.4962   32.6216   46.6752 H   0  0  0  0  0  0  0  0  0  0  0  0
   63.1968   34.2388   46.3278 H   0  0  0  0  0  0  0  0  0  0  0  0
   64.2511   32.7844   46.3278 H   0  0  0  0  0  0  0  0  0  0  0  0
   64.6214   33.9616   48.3637 H   0  0  0  0  0  0  0  0  0  0  0  0
   62.8276   34.0616   48.6624 H   0  0  0  0  0  0  0  0  0  0  0  0
   64.4485   31.4626   48.6087 H   0  0  0  0  0  0  0  0  0  0  0  0
   63.9531   32.2925   50.0875 H   0  0  0  0  0  0  0  0  0  0  0  0
   61.8150   32.1910   48.2770 H   0  0  0  0  0  0  0  0  0  0  0  0
   62.2249   31.6890   50.9324 H   0  0  0  0  0  0  0  0  0  0  0  0
   60.6695   31.5174   49.9788 H   0  0  0  0  0  0  0  0  0  0  0  0
   62.7145   29.3281   50.2261 H   0  0  0  0  0  0  0  0  0  0  0  0
   61.3204   29.5624   51.3655 H   0  0  0  0  0  0  0  0  0  0  0  0
   61.3864   28.6085   48.5625 H   0  0  0  0  0  0  0  0  0  0  0  0
   60.2858   28.2096   49.9803 H   0  0  0  0  0  0  0  0  0  0  0  0
   58.8444   29.1730   48.5404 H   0  0  0  0  0  0  0  0  0  0  0  0
   59.3857   30.5700   49.5706 H   0  0  0  0  0  0  0  0  0  0  0  0
   61.0270   31.0550   47.6290 H   0  0  0  0  0  0  0  0  0  0  0  0
   59.9290   28.2418   47.1097 H   0  0  0  0  0  0  0  0  0  0  0  0
   59.3403   26.1264   45.9728 H   0  0  0  0  0  0  0  0  0  0  0  0
   57.9781   26.2533   43.8852 H   0  0  0  0  0  0  0  0  0  0  0  0
   57.2558   28.4691   43.0085 H   0  0  0  0  0  0  0  0  0  0  0  0
   55.9760   31.1881   43.1712 H   0  0  0  0  0  0  0  0  0  0  0  0
   57.4404   31.7582   42.3010 H   0  0  0  0  0  0  0  0  0  0  0  0
   57.0185   30.0122   42.3010 H   0  0  0  0  0  0  0  0  0  0  0  0
   57.1237   33.1391   43.3472 H   0  0  0  0  0  0  0  0  0  0  0  0
   57.6680   35.2713   44.4727 H   0  0  0  0  0  0  0  0  0  0  0  0
   59.0369   35.1914   46.5778 H   0  0  0  0  0  0  0  0  0  0  0  0
   61.1143   34.4344   48.5558 H   0  0  0  0  0  0  0  0  0  0  0  0
   59.3637   34.8471   48.1830 H   0  0  0  0  0  0  0  0  0  0  0  0
   60.4068   34.3159   50.6635 H   0  0  0  0  0  0  0  0  0  0  0  0
   58.6780   34.2607   50.1789 H   0  0  0  0  0  0  0  0  0  0  0  0
   59.6592   32.7561   50.1789 H   0  0  0  0  0  0  0  0  0  0  0  0
  1  2  1  0
  2  3  1  0
  3  4  1  0
  4  5  1  0
  5  6  1  0
  6  7  1  0
  7  8  1  0
  8  9  1  0
  9 10  1  0
 10 11  2  0
 11 12  1  0
 12 13  2  0
 13 14  1  0
 14 15  2  0
 15 16  1  0
 16 17  2  0
 17 18  1  0
 17 19  1  0
 19 20  2  0
 20 21  1  0
 21 22  2  0
 22 23  1  0
 23 24  1  0
 24 25  1  0
 25 26  1  0
 23 27  2  0
 27 10  1  0
 16 11  1  0
 27 19  1  0
  1 28  1  0
  1 29  1  0
  1 30  1  0
  2 31  1  0
  2 32  1  0
  3 33  1  0
  3 34  1  0
  4 35  1  0
  5 36  1  0
  5 37  1  0
  6 38  1  0
  6 39  1  0
  7 40  1  0
  7 41  1  0
  8 42  1  0
  8 43  1  0
  9 44  1  0
 12 45  1  0
 13 46  1  0
 14 47  1  0
 15 48  1  0
 18 49  1  0
 18 50  1  0
 18 51  1  0
 20 52  1  0
 21 53  1  0
 22 54  1  0
 25 55  1  0
 25 56  1  0
 26 57  1  0
 26 58  1  0
 26 59  1  0
M  CHG  1  17   1
M  END
>  <smiles>  (11) 
CCCNCCCCNc1c2ccccc2[n+](C)c2cccc(OCC)c12

>  <score_type>  (11) 
oracle

>  <origin>  (11) 
adg

>  <m_score__min__energy>  (11) 
-4.7999999999999998

>  <m_primary>  (11) 
energy

$$$$
12:0
     RDKit          3D

 42 42  0  0  0  0  0  0  0  0999 V2000
   60.9220   33.9230   46.3930 C   0  0  0  0  0  0  0  0  0  0  0  0
   59.6630   34.4370   45.7460 C   0  0  0  0  0  0  0  0  0  0  0  0
   58.7240   33.3660   45.5710 N   0  0  0  0  0  0  0  0  0  0  0  0
   57.7050   33.4250   46.6560 C   0  0  0  0  0  0  0  0  0  0  0  0
   58.1610   32.7710   47.9120 C   0  0  0  0  0  0  0  0  0  0  0  0
   58.0270   33.3170   44.3220 C   0  0  0  0  0  0  0  0  0  0  0  0
   57.6340   32.0360   43.7290 C   0  0  0  0  0  0  0  0  0  0  0  0
   56.4930   31.6010   44.4830 O   0  0  0  0  0  0  0  0  0  0  0  0
   56.5160   29.9520   44.5490 S   0  0  0  0  0  0  0  0  0  0  0  0
   56.8740   29.4130   43.1720 O   0  0  0  0  0  0  0  0  0  0  0  0
   55.1650   29.3690   44.8750 O   0  0  0  0  0  0  0  0  0  0  0  0
   57.7200   29.3400   45.6400 C   0  0  0  0  0  0  0  0  0  0  0  0
   58.8130   30.0830   46.0580 C   0  0  0  0  0  0  0  0  0  0  0  0
   59.6940   29.4700   46.9200 C   0  0  0  0  0  0  0  0  0  0  0  0
   61.1140   30.3130   47.5060 Cl  0  0  0  0  0  0  0  0  0  0  0  0
   59.5190   28.1620   47.3700 C   0  0  0  0  0  0  0  0  0  0  0  0
   60.4740   27.5630   48.2710 N   0  0  0  0  0  0  0  0  0  0  0  0
   58.4220   27.4240   46.9490 C   0  0  0  0  0  0  0  0  0  0  0  0
   57.5490   28.0310   46.0950 C   0  0  0  0  0  0  0  0  0  0  0  0
   56.4460   27.3150   45.6640 O   0  0  0  0  0  0  0  0  0  0  0  0
   56.2920   25.9330   45.6680 C   0  0  0  0  0  0  0  0  0  0  0  0
   60.8160   33.9663   47.4870 H   0  0  0  0  0  0  0  0  0  0  0  0
   61.0953   32.8821   46.0823 H   0  0  0  0  0  0  0  0  0  0  0  0
   61.7743   34.5452   46.0823 H   0  0  0  0  0  0  0  0  0  0  0  0
   59.2156   35.2118   46.3860 H   0  0  0  0  0  0  0  0  0  0  0  0
   59.9119   34.8610   44.7620 H   0  0  0  0  0  0  0  0  0  0  0  0
   57.4810   34.4803   46.8707 H   0  0  0  0  0  0  0  0  0  0  0  0
   56.8153   32.8821   46.3043 H   0  0  0  0  0  0  0  0  0  0  0  0
   57.7726   33.3280   48.7774 H   0  0  0  0  0  0  0  0  0  0  0  0
   57.7870   31.7370   47.9437 H   0  0  0  0  0  0  0  0  0  0  0  0
   59.2605   32.7644   47.9437 H   0  0  0  0  0  0  0  0  0  0  0  0
   57.1019   33.8967   44.4567 H   0  0  0  0  0  0  0  0  0  0  0  0
   58.7765   33.6941   43.6107 H   0  0  0  0  0  0  0  0  0  0  0  0
   57.3679   32.1677   42.6698 H   0  0  0  0  0  0  0  0  0  0  0  0
   58.4517   31.3011   43.7639 H   0  0  0  0  0  0  0  0  0  0  0  0
   58.9695   31.1167   45.7160 H   0  0  0  0  0  0  0  0  0  0  0  0
   61.1590   26.8610   47.9440 H   0  0  0  0  0  0  0  0  0  0  0  0
   60.4930   27.8260   49.2870 H   0  0  0  0  0  0  0  0  0  0  0  0
   58.2628   26.3905   47.2905 H   0  0  0  0  0  0  0  0  0  0  0  0
   56.2517   25.5716   46.7061 H   0  0  0  0  0  0  0  0  0  0  0  0
   55.3586   25.6666   45.1505 H   0  0  0  0  0  0  0  0  0  0  0  0
   57.1438   25.4676   45.1505 H   0  0  0  0  0  0  0  0  0  0  0  0
  1  2  1  0
  2  3  1  0
  3  4  1  0
  4  5  1  0
  3  6  1  0
  6  7  1  0
  7  8  1  0
  8  9  1  0
  9 10  2  0
  9 11  2  0
  9 12  1  0
 12 13  2  0
 13 14  1  0
 14 15  1  0
 14 16  2  0
 16 17  1  0
 16 18  1  0
 18 19  2  0
 19 20  1  0
 20 21  1  0
 19 12  1  0
  1 22  1  0
  1 23  1  0
  1 24  1  0
  2 25  1  0
  2 26  1  0
  4 27  1  0
  4 28  1  0
  5 29  1  0
  5 30  1  0
  5 31  1  0
  6 32  1  0
  6 33  1  0
  7 34  1  0
  7 35  1  0
 13 36  1  0
 17 37  1  0
 17 38  1  0
 18 39  1  0
 21 40  1  0
 21 41  1  0
 21 42  1  0
M  END
>  <smiles>  (12) 
CCN(CC)CCOS(=O)(=O)c1cc(Cl)c(N)cc1OC

>  <score_type>  (12) 
oracle

>  <origin>  (12) 
adg

>  <m_score__min__energy>  (12) 
-6.6799999999999997

>  <m_primary>  (12) 
energy

$$$$
13:0
     RDKit          3D

 52 55  0  0  0  0  0  0  0  0999 V2000
   58.3270   32.3260   50.1230 C   0  0  0  0  0  0  0  0  0  0  0  0
   59.7100   31.9850   49.9210 N   0  0  0  0  0  0  0  0  0  0  0  0
   60.5890   33.1340   49.9850 C   0  0  0  0  0  0  0  0  0  0  0  0
   61.8440   32.8190   50.7630 C   0  0  0  0  0  0  0  0  0  0  0  0
   62.4330   31.5400   50.4200 N   0  0  0  0  0  0  0  0  0  0  0  0
   63.4000   31.6400   49.3760 C   0  0  0  0  0  0  0  0  0  0  0  0
   63.4110   32.8500   48.5350 C   0  0  0  0  0  0  0  0  0  0  0  0
   62.6340   32.6950   47.2380 C   0  0  0  0  0  0  0  0  0  0  0  0
   61.4260   31.9780   47.4860 N   0  0  0  0  0  0  0  0  0  0  0  0
   60.3760   31.5690   46.6660 C   0  0  0  0  0  0  0  0  0  0  0  0
   59.5730   32.5600   46.0780 C   0  0  0  0  0  0  0  0  0  0  0  0
   59.8650   33.9080   46.2530 C   0  0  0  0  0  0  0  0  0  0  0  0
   59.0720   34.8990   45.6590 C   0  0  0  0  0  0  0  0  0  0  0  0
   57.9810   34.5920   44.8850 C   0  0  0  0  0  0  0  0  0  0  0  0
   57.6910   33.2610   44.7100 C   0  0  0  0  0  0  0  0  0  0  0  0
   58.4770   32.3060   45.2970 C   0  0  0  0  0  0  0  0  0  0  0  0
   58.1500   31.0250   45.0820 N   0  0  0  0  0  0  0  0  0  0  0  0
   56.9780   30.7230   44.2470 C   0  0  0  0  0  0  0  0  0  0  0  0
   58.8940   30.0910   45.6270 C   0  0  0  0  0  0  0  0  0  0  0  0
   58.5680   28.3430   45.4370 S   0  0  0  0  0  0  0  0  0  0  0  0
   60.0390   27.8920   46.5050 C   0  0  0  0  0  0  0  0  0  0  0  0
   60.5770   29.0970   46.8590 C   0  0  0  0  0  0  0  0  0  0  0  0
   60.0040   30.2300   46.4170 C   0  0  0  0  0  0  0  0  0  0  0  0
   61.5060   30.4640   50.3060 C   0  0  0  0  0  0  0  0  0  0  0  0
   60.1680   30.9350   50.8400 C   0  0  0  0  0  0  0  0  0  0  0  0
   58.1159   32.3780   51.2013 H   0  0  0  0  0  0  0  0  0  0  0  0
   58.1188   33.3024   49.6611 H   0  0  0  0  0  0  0  0  0  0  0  0
   57.6888   31.5583   49.6611 H   0  0  0  0  0  0  0  0  0  0  0  0
   60.8658   33.4314   48.9628 H   0  0  0  0  0  0  0  0  0  0  0  0
   60.0581   33.9505   50.4963 H   0  0  0  0  0  0  0  0  0  0  0  0
   62.5843   33.6077   50.5632 H   0  0  0  0  0  0  0  0  0  0  0  0
   61.5617   32.7700   51.8250 H   0  0  0  0  0  0  0  0  0  0  0  0
   64.3920   31.5627   49.8450 H   0  0  0  0  0  0  0  0  0  0  0  0
   63.1259   30.8335   48.6800 H   0  0  0  0  0  0  0  0  0  0  0  0
   62.9681   33.6770   49.1093 H   0  0  0  0  0  0  0  0  0  0  0  0
   64.4588   33.0448   48.2627 H   0  0  0  0  0  0  0  0  0  0  0  0
   62.3930   33.6896   46.8346 H   0  0  0  0  0  0  0  0  0  0  0  0
   63.2449   32.1404   46.5105 H   0  0  0  0  0  0  0  0  0  0  0  0
   61.3400   31.6810   48.5270 H   0  0  0  0  0  0  0  0  0  0  0  0
   60.7302   34.2006   46.8660 H   0  0  0  0  0  0  0  0  0  0  0  0
   59.3321   35.9559   45.8180 H   0  0  0  0  0  0  0  0  0  0  0  0
   57.3651   35.3785   44.4244 H   0  0  0  0  0  0  0  0  0  0  0  0
   56.8271   32.9622   44.0981 H   0  0  0  0  0  0  0  0  0  0  0  0
   56.1154   30.5007   44.8924 H   0  0  0  0  0  0  0  0  0  0  0  0
   56.7468   31.5909   43.6120 H   0  0  0  0  0  0  0  0  0  0  0  0
   57.1950   29.8514   43.6120 H   0  0  0  0  0  0  0  0  0  0  0  0
   60.3895   26.8872   46.7835 H   0  0  0  0  0  0  0  0  0  0  0  0
   61.4703   29.1397   47.4994 H   0  0  0  0  0  0  0  0  0  0  0  0
   61.4037   30.1705   49.2508 H   0  0  0  0  0  0  0  0  0  0  0  0
   61.8598   29.5945   50.8793 H   0  0  0  0  0  0  0  0  0  0  0  0
   59.4493   30.1025   50.8572 H   0  0  0  0  0  0  0  0  0  0  0  0
   60.2562   31.3122   51.8695 H   0  0  0  0  0  0  0  0  0  0  0  0
  1  2  1  0
  2  3  1  0
  3  4  1  0
  4  5  1  0
  5  6  1  0
  6  7  1  0
  7  8  1  0
  8  9  1  0
  9 10  1  0
 10 11  1  0
 11 12  2  0
 12 13  1  0
 13 14  2  0
 14 15  1  0
 15 16  2  0
 16 17  1  0
 17 18  1  0
 17 19  2  0
 19 20  1  0
 20 21  1  0
 21 22  2  0
 22 23  1  0
  5 24  1  0
 24 25  1  0
 25  2  1  0
 23 10  2  0
 16 11  1  0
 23 19  1  0
  1 26  1  0
  1 27  1  0
  1 28  1  0
  3 29  1  0
  3 30  1  0
  4 31  1  0
  4 32  1  0
  6 33  1  0
  6 34  1  0
  7 35  1  0
  7 36  1  0
  8 37  1  0
  8 38  1  0
  9 39  1  0
 12 40  1  0
 13 41  1  0
 14 42  1  0
 15 43  1  0
 18 44  1  0
 18 45  1  0
 18 46  1  0
 21 47  1  0
 22 48  1  0
 24 49  1  0
 24 50  1  0
 25 51  1  0
 25 52  1  0
M  CHG  1  17   1
M  END
>  <smiles>  (13) 
CN1CCN(CCCNc2c3ccccc3[n+](C)c3sccc23)CC1

>  <score_type>  (13) 
oracle

>  <origin>  (13) 
adg

>  <m_score__min__energy>  (13) 
-6.5999999999999996

>  <m_primary>  (13) 
energy

$$$$
14:0
     RDKit          3D

 49 51  0  0  0  0  0  0  0  0999 V2000
   59.2760   34.7740   45.4130 C   0  0  0  0  0  0  0  0  0  0  0  0
   58.0700   33.9190   45.3510 C   0  0  0  0  0  0  0  0  0  0  0  0
   58.3910   32.5970   44.6270 N   0  0  0  0  0  0  0  0  0  0  0  0
   58.4980   31.5840   45.5560 C   0  0  0  0  0  0  0  0  0  0  0  0
   57.9570   30.4930   44.3850 C   0  0  0  0  0  0  0  0  0  0  0  0
   57.8100   29.2270   44.6180 C   0  0  0  0  0  0  0  0  0  0  0  0
   58.0420   28.5400   45.7690 C   0  0  0  0  0  0  0  0  0  0  0  0
   58.4970   29.3960   46.7890 C   0  0  0  0  0  0  0  0  0  0  0  0
   58.5960   30.6580   46.4040 C   0  0  0  0  0  0  0  0  0  0  0  0
   59.2910   31.7400   48.0480 Br  0  0  0  0  0  0  0  0  0  0  0  0
   57.9680   27.1650   46.2540 C   0  0  0  0  0  0  0  0  0  0  0  0
   58.5440   26.2040   45.2050 C   0  0  0  0  0  0  0  0  0  0  0  0
   57.7800   26.2590   44.0070 N   0  0  0  0  0  0  0  0  0  0  0  0
   57.3960   25.0570   43.3880 C   0  0  0  0  0  0  0  0  0  0  0  0
   56.0760   24.4630   43.8050 C   0  0  0  0  0  0  0  0  0  0  0  0
   56.3330   23.6190   44.9600 N   0  0  0  0  0  0  0  0  0  0  0  0
   56.2480   24.1360   46.2860 C   0  0  0  0  0  0  0  0  0  0  0  0
   55.5730   25.1660   46.5300 O   0  0  0  0  0  0  0  0  0  0  0  0
   57.0000   23.3810   47.3340 C   0  0  0  0  0  0  0  0  0  0  0  0
   56.9690   22.0170   47.1570 O   0  0  0  0  0  0  0  0  0  0  0  0
   57.3420   21.5740   45.9260 C   0  0  0  0  0  0  0  0  0  0  0  0
   56.6740   22.2480   44.7970 C   0  0  0  0  0  0  0  0  0  0  0  0
   56.4360   21.6040   43.7580 O   0  0  0  0  0  0  0  0  0  0  0  0
   58.1830   27.3160   43.1350 C   0  0  0  0  0  0  0  0  0  0  0  0
   57.2900   28.5170   43.3600 C   0  0  0  0  0  0  0  0  0  0  0  0
   59.5394   34.9607   46.4645 H   0  0  0  0  0  0  0  0  0  0  0  0
   60.1120   34.2657   44.9103 H   0  0  0  0  0  0  0  0  0  0  0  0
   59.0731   35.7311   44.9103 H   0  0  0  0  0  0  0  0  0  0  0  0
   57.7273   33.6996   46.3730 H   0  0  0  0  0  0  0  0  0  0  0  0
   57.2821   34.4497   44.7963 H   0  0  0  0  0  0  0  0  0  0  0  0
   58.4570   32.7840   43.6610 H   0  0  0  0  0  0  0  0  0  0  0  0
   57.7192   30.8741   43.3809 H   0  0  0  0  0  0  0  0  0  0  0  0
   58.7452   29.0509   47.8036 H   0  0  0  0  0  0  0  0  0  0  0  0
   58.5465   27.0761   47.1854 H   0  0  0  0  0  0  0  0  0  0  0  0
   56.9156   26.9053   46.4408 H   0  0  0  0  0  0  0  0  0  0  0  0
   59.5834   26.4889   44.9850 H   0  0  0  0  0  0  0  0  0  0  0  0
   58.5081   25.1793   45.6033 H   0  0  0  0  0  0  0  0  0  0  0  0
   57.3489   25.2422   42.3047 H   0  0  0  0  0  0  0  0  0  0  0  0
   58.1514   24.3211   43.7009 H   0  0  0  0  0  0  0  0  0  0  0  0
   55.3697   25.2630   44.0719 H   0  0  0  0  0  0  0  0  0  0  0  0
   55.6326   23.8796   42.9846 H   0  0  0  0  0  0  0  0  0  0  0  0
   58.0493   23.7107   47.3150 H   0  0  0  0  0  0  0  0  0  0  0  0
   56.5131   23.5931   48.2973 H   0  0  0  0  0  0  0  0  0  0  0  0
   58.4265   21.7259   45.8219 H   0  0  0  0  0  0  0  0  0  0  0  0
   57.0447   20.5162   45.8746 H   0  0  0  0  0  0  0  0  0  0  0  0
   59.2272   27.5895   43.3470 H   0  0  0  0  0  0  0  0  0  0  0  0
   58.0984   26.9842   42.0896 H   0  0  0  0  0  0  0  0  0  0  0  0
   57.3409   29.1942   42.4946 H   0  0  0  0  0  0  0  0  0  0  0  0
   56.2409   28.2109   43.4848 H   0  0  0  0  0  0  0  0  0  0  0  0
  1  2  1  0
  2  3  1  0
  3  4  1  0
  4  5  2  0
  5  6  1  0
  6  7  2  0
  7  8  1  0
  8  9  2  0
  9 10  1  0
  7 11  1  0
 11 12  1  0
 12 13  1  0
 13 14  1  0
 14 15  1  0
 15 16  1  0
 16 17  1  0
 17 18  2  0
 17 19  1  0
 19 20  1  0
 20 21  1  0
 21 22  1  0
 22 23  2  0
 13 24  1  0
 24 25  1  0
  9  4  1  0
 22 16  1  0
 25  6  1  0
  1 26  1  0
  1 27  1  0
  1 28  1  0
  2 29  1  0
  2 30  1  0
  3 31  1  0
  5 32  1  0
  8 33  1  0
 11 34  1  0
 11 35  1  0
 12 36  1  0
 12 37  1  0
 14 38  1  0
 14 39  1  0
 15 40  1  0
 15 41  1  0
 19 42  1  0
 19 43  1  0
 21 44  1  0
 21 45  1  0
 24 46  1  0
 24 47  1  0
 25 48  1  0
 25 49  1  0
M  END
>  <smiles>  (14) 
CCNc1cc2c(cc1Br)CCN(CCN1C(=O)COCC1=O)CC2

>  <score_type>  (14) 
oracle

>  <origin>  (14) 
adg

>  <m_score__min__energy>  (14) 
-6.2999999999999998

>  <m_primary>  (14) 
energy

$$$$
15:0
     RDKit          3D

 44 45  0  0  0  0  0  0  0  0999 V2000
   57.0050   34.2990   44.8760 C   0  0  0  0  0  0  0  0  0  0  0  0
   57.9130   33.4390   45.7150 C   0  0  0  0  0  0  0  0  0  0  0  0
   58.8820   34.0540   46.4630 C   0  0  0  0  0  0  0  0  0  0  0  0
   59.7210   33.3120   47.2350 C   0  0  0  0  0  0  0  0  0  0  0  0
   60.9470   34.1230   48.1800 Cl  0  0  0  0  0  0  0  0  0  0  0  0
   59.6040   31.9500   47.2710 C   0  0  0  0  0  0  0  0  0  0  0  0
   58.6130   31.3440   46.5040 C   0  0  0  0  0  0  0  0  0  0  0  0
   57.7430   32.0430   45.7100 C   0  0  0  0  0  0  0  0  0  0  0  0
   56.7510   31.5560   44.9320 O   0  0  0  0  0  0  0  0  0  0  0  0
   56.7140   30.8460   43.7690 C   0  0  0  0  0  0  0  0  0  0  0  0
   56.4160   29.3770   43.8900 C   0  0  0  0  0  0  0  0  0  0  0  0
   56.2420   28.9640   45.2550 N   0  0  0  0  0  0  0  0  0  0  0  0
   57.3800   28.2950   45.8280 C   0  0  0  0  0  0  0  0  0  0  0  0
   57.3030   26.8300   45.5930 C   0  0  0  0  0  0  0  0  0  0  0  0
   56.4400   26.1130   46.6120 C   0  0  0  0  0  0  0  0  0  0  0  0
   55.5360   25.2300   46.0190 O   0  0  0  0  0  0  0  0  0  0  0  0
   56.0070   24.2420   45.1780 C   0  0  0  0  0  0  0  0  0  0  0  0
   55.4830   23.9460   43.9480 C   0  0  0  0  0  0  0  0  0  0  0  0
   56.0450   22.9250   43.1890 C   0  0  0  0  0  0  0  0  0  0  0  0
   57.1280   22.2120   43.6730 C   0  0  0  0  0  0  0  0  0  0  0  0
   57.6720   22.4930   44.9080 C   0  0  0  0  0  0  0  0  0  0  0  0
   57.1020   23.5090   45.6480 C   0  0  0  0  0  0  0  0  0  0  0  0
   56.3644   34.9057   45.5330 H   0  0  0  0  0  0  0  0  0  0  0  0
   57.6113   34.9618   44.2411 H   0  0  0  0  0  0  0  0  0  0  0  0
   56.3761   33.6576   44.2411 H   0  0  0  0  0  0  0  0  0  0  0  0
   58.9818   35.1492   46.4393 H   0  0  0  0  0  0  0  0  0  0  0  0
   60.2796   31.3453   47.8937 H   0  0  0  0  0  0  0  0  0  0  0  0
   58.5241   30.2481   46.5373 H   0  0  0  0  0  0  0  0  0  0  0  0
   55.9389   31.2928   43.1290 H   0  0  0  0  0  0  0  0  0  0  0  0
   57.7333   30.9040   43.3595 H   0  0  0  0  0  0  0  0  0  0  0  0
   55.4928   29.1569   43.3339 H   0  0  0  0  0  0  0  0  0  0  0  0
   57.2749   28.8257   43.4797 H   0  0  0  0  0  0  0  0  0  0  0  0
   55.8790   29.7310   45.8650 H   0  0  0  0  0  0  0  0  0  0  0  0
   58.2987   28.6866   45.3669 H   0  0  0  0  0  0  0  0  0  0  0  0
   57.3883   28.4786   46.9125 H   0  0  0  0  0  0  0  0  0  0  0  0
   56.8810   26.6569   44.5920 H   0  0  0  0  0  0  0  0  0  0  0  0
   58.3228   26.4275   45.6830 H   0  0  0  0  0  0  0  0  0  0  0  0
   57.0934   25.5458   47.2912 H   0  0  0  0  0  0  0  0  0  0  0  0
   55.8585   26.8742   47.1528 H   0  0  0  0  0  0  0  0  0  0  0  0
   54.6225   24.5125   43.5624 H   0  0  0  0  0  0  0  0  0  0  0  0
   55.6273   22.6833   42.2005 H   0  0  0  0  0  0  0  0  0  0  0  0
   57.5621   21.4072   43.0616 H   0  0  0  0  0  0  0  0  0  0  0  0
   58.5328   21.9256   45.2914 H   0  0  0  0  0  0  0  0  0  0  0  0
   57.5209   23.7495   46.6363 H   0  0  0  0  0  0  0  0  0  0  0  0
  1  2  1  0
  2  3  2  0
  3  4  1  0
  4  5  1  0
  4  6  2  0
  6  7  1  0
  7  8  2  0
  8  9  1  0
  9 10  1  0
 10 11  1  0
 11 12  1  0
 12 13  1  0
 13 14  1  0
 14 15  1  0
 15 16  1  0
 16 17  1  0
 17 18  2  0
 18 19  1  0
 19 20  2  0
 20 21  1  0
 21 22  2  0
  8  2  1  0
 22 17  1  0
  1 23  1  0
  1 24  1  0
  1 25  1  0
  3 26  1  0
  6 27  1  0
  7 28  1  0
 10 29  1  0
 10 30  1  0
 11 31  1  0
 11 32  1  0
 12 33  1  0
 13 34  1  0
 13 35  1  0
 14 36  1  0
 14 37  1  0
 15 38  1  0
 15 39  1  0
 18 40  1  0
 19 41  1  0
 20 42  1  0
 21 43  1  0
 22 44  1  0
M  END
>  <smiles>  (15) 
Cc1cc(Cl)ccc1OCCNCCCOc1ccccc1

>  <score_type>  (15) 
oracle

>  <origin>  (15) 
adg

>  <m_score__min__energy>  (15) 
-7.2699999999999996

>  <m_primary>  (15) 
energy

$$$$
16:0
     RDKit          3D

 42 43  0  0  0  0  0  0  0  0999 V2000
   58.5350   28.5550   45.1980 C   0  0  0  0  0  0  0  0  0  0  0  0
   57.0260   28.5070   45.2300 C   0  0  0  0  0  0  0  0  0  0  0  0
   56.3990   29.7430   45.1000 O   0  0  0  0  0  0  0  0  0  0  0  0
   56.9740   30.8130   44.4730 C   0  0  0  0  0  0  0  0  0  0  0  0
   57.1700   30.8940   43.1110 C   0  0  0  0  0  0  0  0  0  0  0  0
   57.7550   31.9940   42.5250 C   0  0  0  0  0  0  0  0  0  0  0  0
   57.9450   32.0690   41.1740 F   0  0  0  0  0  0  0  0  0  0  0  0
   58.1470   33.0280   43.3500 C   0  0  0  0  0  0  0  0  0  0  0  0
   57.9830   33.0150   44.7190 C   0  0  0  0  0  0  0  0  0  0  0  0
   58.3820   34.0310   45.5930 N   0  0  0  0  0  0  0  0  0  0  0  0
   59.4680   34.0000   46.4960 C   0  0  0  0  0  0  0  0  0  0  0  0
   60.7770   33.8320   46.0260 C   0  0  0  0  0  0  0  0  0  0  0  0
   61.8610   33.8160   46.8660 C   0  0  0  0  0  0  0  0  0  0  0  0
   61.7130   33.9660   48.2320 C   0  0  0  0  0  0  0  0  0  0  0  0
   62.9350   33.9350   49.0630 C   0  0  0  0  0  0  0  0  0  0  0  0
   63.7780   32.8120   48.7850 N   0  0  0  0  0  0  0  0  0  0  0  0
   63.0480   31.5910   49.0710 C   0  0  0  0  0  0  0  0  0  0  0  0
   64.9750   32.9240   49.5900 C   0  0  0  0  0  0  0  0  0  0  0  0
   60.4460   34.1310   48.7150 C   0  0  0  0  0  0  0  0  0  0  0  0
   59.3490   34.1460   47.8600 C   0  0  0  0  0  0  0  0  0  0  0  0
   57.3860   31.8750   45.2490 C   0  0  0  0  0  0  0  0  0  0  0  0
   58.9234   28.5674   46.2271 H   0  0  0  0  0  0  0  0  0  0  0  0
   58.9190   27.6686   44.6718 H   0  0  0  0  0  0  0  0  0  0  0  0
   58.8619   29.4640   44.6718 H   0  0  0  0  0  0  0  0  0  0  0  0
   56.6867   27.8629   44.4053 H   0  0  0  0  0  0  0  0  0  0  0  0
   56.7498   28.1230   46.2231 H   0  0  0  0  0  0  0  0  0  0  0  0
   56.8500   30.0561   42.4742 H   0  0  0  0  0  0  0  0  0  0  0  0
   58.6158   33.9107   42.8907 H   0  0  0  0  0  0  0  0  0  0  0  0
   57.8170   34.9290   45.5860 H   0  0  0  0  0  0  0  0  0  0  0  0
   60.9411   33.7086   44.9453 H   0  0  0  0  0  0  0  0  0  0  0  0
   62.8680   33.6811   46.4443 H   0  0  0  0  0  0  0  0  0  0  0  0
   63.5072   34.8560   48.8776 H   0  0  0  0  0  0  0  0  0  0  0  0
   62.6147   33.8514   50.1120 H   0  0  0  0  0  0  0  0  0  0  0  0
   62.9684   31.4579   50.1600 H   0  0  0  0  0  0  0  0  0  0  0  0
   62.0402   31.6556   48.6349 H   0  0  0  0  0  0  0  0  0  0  0  0
   63.5820   30.7339   48.6349 H   0  0  0  0  0  0  0  0  0  0  0  0
   64.7038   32.8986   50.6558 H   0  0  0  0  0  0  0  0  0  0  0  0
   65.6493   32.0850   49.3631 H   0  0  0  0  0  0  0  0  0  0  0  0
   65.4819   33.8735   49.3631 H   0  0  0  0  0  0  0  0  0  0  0  0
   60.2908   34.2539   49.7970 H   0  0  0  0  0  0  0  0  0  0  0  0
   58.3458   34.2799   48.2909 H   0  0  0  0  0  0  0  0  0  0  0  0
   57.2360   31.8189   46.3373 H   0  0  0  0  0  0  0  0  0  0  0  0
  1  2  1  0
  2  3  1  0
  3  4  1  0
  4  5  2  0
  5  6  1  0
  6  7  1  0
  6  8  2  0
  8  9  1  0
  9 10  1  0
 10 11  1  0
 11 12  2  0
 12 13  1  0
 13 14  2  0
 14 15  1  0
 15 16  1  0
 16 17  1  0
 16 18  1  0
 14 19  1  0
 19 20  2  0
  9 21  2  0
 21  4  1  0
 20 11  1  0
  1 22  1  0
  1 23  1  0
  1 24  1  0
  2 25  1  0
  2 26  1  0
  5 27  1  0
  8 28  1  0
 10 29  1  0
 12 30  1  0
 13 31  1  0
 15 32  1  0
 15 33  1  0
 17 34  1  0
 17 35  1  0
 17 36  1  0
 18 37  1  0
 18 38  1  0
 18 39  1  0
 19 40  1  0
 20 41  1  0
 21 42  1  0
M  END
>  <smiles>  (16) 
CCOc1cc(F)cc(Nc2ccc(CN(C)C)cc2)c1

>  <score_type>  (16) 
oracle

>  <origin>  (16) 
adg

>  <m_score__min__energy>  (16) 
-6.6799999999999997

>  <m_primary>  (16) 
energy

$$$$
17:0
     RDKit          3D

 44 46  0  0  0  0  0  0  0  0999 V2000
   56.6660   30.4430   43.1260 C   0  0  0  0  0  0  0  0  0  0  0  0
   55.5100   30.0030   43.9940 C   0  0  0  0  0  0  0  0  0  0  0  0
   55.8490   29.2570   45.1380 N   0  0  0  0  0  0  0  0  0  0  0  0
   57.0010   28.4750   45.2180 C   0  0  0  0  0  0  0  0  0  0  0  0
   58.1360   29.1460   45.9230 C   0  0  0  0  0  0  0  0  0  0  0  0
   57.7880   30.5400   46.2490 N   0  0  0  0  0  0  0  0  0  0  0  0
   58.7880   31.3340   46.8820 C   0  0  0  0  0  0  0  0  0  0  0  0
   59.5700   30.8910   47.9200 C   0  0  0  0  0  0  0  0  0  0  0  0
   60.5300   31.7270   48.4970 C   0  0  0  0  0  0  0  0  0  0  0  0
   60.6910   33.0030   48.0230 N   0  0  0  0  0  0  0  0  0  0  0  0
   61.6710   33.8670   48.6090 C   0  0  0  0  0  0  0  0  0  0  0  0
   59.9100   33.4110   47.0050 C   0  0  0  0  0  0  0  0  0  0  0  0
   60.0460   34.6890   46.5000 C   0  0  0  0  0  0  0  0  0  0  0  0
   59.2670   35.1630   45.4470 C   0  0  0  0  0  0  0  0  0  0  0  0
   58.3000   34.3390   44.8570 C   0  0  0  0  0  0  0  0  0  0  0  0
   58.1870   33.0780   45.3770 C   0  0  0  0  0  0  0  0  0  0  0  0
   58.9590   32.6090   46.4180 C   0  0  0  0  0  0  0  0  0  0  0  0
   61.2280   30.9940   49.5930 C   0  0  0  0  0  0  0  0  0  0  0  0
   60.9860   29.5440   49.2470 C   0  0  0  0  0  0  0  0  0  0  0  0
   59.5960   29.5700   48.6110 C   0  0  0  0  0  0  0  0  0  0  0  0
   57.5033   30.7617   43.7643 H   0  0  0  0  0  0  0  0  0  0  0  0
   56.9876   29.6044   42.4909 H   0  0  0  0  0  0  0  0  0  0  0  0
   56.3486   31.2832   42.4909 H   0  0  0  0  0  0  0  0  0  0  0  0
   54.9756   30.9052   44.3263 H   0  0  0  0  0  0  0  0  0  0  0  0
   54.9071   29.3293   43.3674 H   0  0  0  0  0  0  0  0  0  0  0  0
   55.5240   29.7130   45.9950 H   0  0  0  0  0  0  0  0  0  0  0  0
   56.7552   27.5491   45.7587 H   0  0  0  0  0  0  0  0  0  0  0  0
   57.3317   28.2839   44.1864 H   0  0  0  0  0  0  0  0  0  0  0  0
   58.3578   28.6012   46.8525 H   0  0  0  0  0  0  0  0  0  0  0  0
   59.0163   29.1436   45.2634 H   0  0  0  0  0  0  0  0  0  0  0  0
   56.8440   30.9360   46.0300 H   0  0  0  0  0  0  0  0  0  0  0  0
   61.6036   33.8076   49.7053 H   0  0  0  0  0  0  0  0  0  0  0  0
   62.6751   33.5549   48.2859 H   0  0  0  0  0  0  0  0  0  0  0  0
   61.4872   34.9023   48.2859 H   0  0  0  0  0  0  0  0  0  0  0  0
   60.7973   35.3575   46.9457 H   0  0  0  0  0  0  0  0  0  0  0  0
   59.4118   36.1888   45.0772 H   0  0  0  0  0  0  0  0  0  0  0  0
   57.6689   34.6849   44.0251 H   0  0  0  0  0  0  0  0  0  0  0  0
   57.4383   32.4011   44.9397 H   0  0  0  0  0  0  0  0  0  0  0  0
   62.3037   31.2240   49.5987 H   0  0  0  0  0  0  0  0  0  0  0  0
   60.8626   31.2653   50.5944 H   0  0  0  0  0  0  0  0  0  0  0  0
   61.7397   29.1762   48.5352 H   0  0  0  0  0  0  0  0  0  0  0  0
   61.0525   28.8737   50.1167 H   0  0  0  0  0  0  0  0  0  0  0  0
   59.4738   28.7455   47.8932 H   0  0  0  0  0  0  0  0  0  0  0  0
   58.7823   29.4455   49.3406 H   0  0  0  0  0  0  0  0  0  0  0  0
  1  2  1  0
  2  3  1  0
  3  4  1  0
  4  5  1  0
  5  6  1  0
  6  7  1  0
  7  8  2  0
  8  9  1  0
  9 10  2  0
 10 11  1  0
 10 12  1  0
 12 13  2  0
 13 14  1  0
 14 15  2  0
 15 16  1  0
 16 17  2  0
  9 18  1  0
 18 19  1  0
 19 20  1  0
 17  7  1  0
 20  8  1  0
 17 12  1  0
  1 21  1  0
  1 22  1  0
  1 23  1  0
  2 24  1  0
  2 25  1  0
  3 26  1  0
  4 27  1  0
  4 28  1  0
  5 29  1  0
  5 30  1  0
  6 31  1  0
 11 32  1  0
 11 33  1  0
 11 34  1  0
 13 35  1  0
 14 36  1  0
 15 37  1  0
 16 38  1  0
 18 39  1  0
 18 40  1  0
 19 41  1  0
 19 42  1  0
 20 43  1  0
 20 44  1  0
M  CHG  1  10   1
M  END
>  <smiles>  (17) 
CCNCCNc1c2c([n+](C)c3ccccc13)CCC2

>  <score_type>  (17) 
oracle

>  <origin>  (17) 
adg

>  <m_score__min__energy>  (17) 
-5.6200000000000001

>  <m_primary>  (17) 
energy

$$$$
