0:0
     RDKit          3D

 44 46  0  0  0  0  0  0  0  0999 V2000
   54.5530   27.0900   46.7310 H   0  0  0  0  0  0  0  0  0  0  0  0
   55.1420   26.6490   45.9890 N   0  0  0  0  0  0  0  0  0  0  0  0
   56.0830   25.6290   46.3130 C   0  0  0  0  0  0  0  0  0  0  0  0
   55.7210   24.4220   46.3190 O   0  0  0  0  0  0  0  0  0  0  0  0
   57.5050   25.9880   46.6150 C   0  0  0  0  0  0  0  0  0  0  0  0
   57.8332   25.4271   47.5026 H   0  0  0  0  0  0  0  0  0  0  0  0
   57.5538   27.0725   46.7926 H   0  0  0  0  0  0  0  0  0  0  0  0
   58.4370   25.6540   45.4440 C   0  0  0  0  0  0  0  0  0  0  0  0
   58.5642   24.5625   45.3954 H   0  0  0  0  0  0  0  0  0  0  0  0
   59.3936   26.1666   45.6231 H   0  0  0  0  0  0  0  0  0  0  0  0
   57.7860   26.2410   43.8350 S   0  0  0  0  0  0  0  0  0  0  0  0
   57.9380   27.9900   44.2110 C   0  0  0  0  0  0  0  0  0  0  0  0
   58.9930   28.4490   45.0080 C   0  0  0  0  0  0  0  0  0  0  0  0
   59.7390   27.7379   45.3926 H   0  0  0  0  0  0  0  0  0  0  0  0
   59.1020   29.8080   45.3170 C   0  0  0  0  0  0  0  0  0  0  0  0
   59.9373   30.1632   45.9384 H   0  0  0  0  0  0  0  0  0  0  0  0
   58.1490   30.7220   44.8370 C   0  0  0  0  0  0  0  0  0  0  0  0
   58.2620   32.1560   45.1700 C   0  0  0  0  0  0  0  0  0  0  0  0
   57.9270   33.1620   44.3360 N   0  0  0  0  0  0  0  0  0  0  0  0
   58.1640   34.2890   44.9900 N   0  0  0  0  0  0  0  0  0  0  0  0
   58.6340   33.9190   46.1980 C   0  0  0  0  0  0  0  0  0  0  0  0
   58.9880   34.7420   47.1410 N   0  0  0  0  0  0  0  0  0  0  0  0
   59.9220   34.4710   48.2000 C   0  0  0  0  0  0  0  0  0  0  0  0
   59.7360   34.9590   49.3480 O   0  0  0  0  0  0  0  0  0  0  0  0
   61.1090   33.6150   47.9330 C   0  0  0  0  0  0  0  0  0  0  0  0
   62.1310   34.0970   47.0920 C   0  0  0  0  0  0  0  0  0  0  0  0
   62.0362   35.0955   46.6404 H   0  0  0  0  0  0  0  0  0  0  0  0
   63.2620   33.3250   46.8240 C   0  0  0  0  0  0  0  0  0  0  0  0
   64.0517   33.7172   46.1664 H   0  0  0  0  0  0  0  0  0  0  0  0
   63.3920   32.0590   47.3880 C   0  0  0  0  0  0  0  0  0  0  0  0
   64.2844   31.4523   47.1748 H   0  0  0  0  0  0  0  0  0  0  0  0
   62.3930   31.5580   48.2230 C   0  0  0  0  0  0  0  0  0  0  0  0
   62.5039   30.5571   48.6656 H   0  0  0  0  0  0  0  0  0  0  0  0
   61.2420   32.3230   48.5050 C   0  0  0  0  0  0  0  0  0  0  0  0
   60.2220   31.8230   49.3320 O   0  0  0  0  0  0  0  0  0  0  0  0
   59.2130   30.9080   48.9160 C   0  0  0  0  0  0  0  0  0  0  0  0
   58.7288   30.4689   49.8008 H   0  0  0  0  0  0  0  0  0  0  0  0
   58.4621   31.4395   48.3130 H   0  0  0  0  0  0  0  0  0  0  0  0
   59.6688   30.1089   48.3130 H   0  0  0  0  0  0  0  0  0  0  0  0
   58.6990   32.6180   46.3180 O   0  0  0  0  0  0  0  0  0  0  0  0
   57.0860   30.2540   44.0450 C   0  0  0  0  0  0  0  0  0  0  0  0
   56.3333   30.9609   43.6658 H   0  0  0  0  0  0  0  0  0  0  0  0
   56.9810   28.8940   43.7370 C   0  0  0  0  0  0  0  0  0  0  0  0
   56.1440   28.5340   43.1206 H   0  0  0  0  0  0  0  0  0  0  0  0
  1  2  1  0
  2  3  1  0
  3  4  2  0
  3  5  1  0
  5  6  1  0
  5  7  1  0
  5  8  1  0
  8  9  1  0
  8 10  1  0
  8 11  1  0
 11 12  1  0
 12 13  2  0
 13 14  1  0
 13 15  1  0
 15 16  1  0
 15 17  2  0
 17 18  1  0
 18 19  2  0
 19 20  1  0
 20 21  1  0
 21 22  2  0
 22 23  1  0
 23 24  2  0
 23 25  1  0
 25 26  2  0
 26 27  1  0
 26 28  1  0
 28 29  1  0
 28 30  2  0
 30 31  1  0
 30 32  1  0
 32 33  1  0
 32 34  2  0
 34 35  1  0
 35 36  1  0
 36 37  1  0
 36 38  1  0
 36 39  1  0
 21 40  1  0
 17 41  1  0
 41 42  1  0
 41 43  2  0
 43 44  1  0
 43 12  1  0
 40 18  1  0
 34 25  1  0
M  CHG  2   2  -1  20  -1
M  END
>  <UniqueID>  (1) 
1

>  <SMILES>  (1) 
COc1ccccc1C(=O)/N=c1\[n-]nc(-c2ccc(SCCC([NH-])=O)cc2)o1

>  <Energy>  (1) 
79.23785108286847

>  <Genealogy>  (1) 
COc1ccccc1C(=O)N=c1[n-]nc(-c2ccc(SCCC([NH-])=O)cc2)o1 (protonated)
COc1ccccc1C(=O)/N=c1\[n-]nc(-c2ccc(SCCC([NH-])=O)cc2)o1 (cis-trans isomerization)
COc1ccccc1C(=O)/N=c1\[n-]nc(-c2ccc(SCCC([NH-])=O)cc2)o1 (3D coordinates assigned)
COc1ccccc1C(=O)/N=c1\[n-]nc(-c2ccc(SCCC([NH-])=O)cc2)o1 (optimized conformer: 79.23785108286847 kcal/mol)

>  <smiles>  (1) 
COc1ccccc1C(=O)N=c1[nH]nc(-c2ccc(SCCC(N)=O)cc2)o1

>  <score_type>  (1) 
oracle

>  <origin>  (1) 
adg

>  <m_score__min__energy>  (1) 
-12.77

>  <m_primary>  (1) 
energy

$$$$
1:0
     RDKit          3D

 30 32  0  0  0  0  0  0  0  0999 V2000
   56.6080   32.7630   45.6130 F   0  0  0  0  0  0  0  0  0  0  0  0
   57.7790   33.4040   45.8560 C   0  0  0  0  0  0  0  0  0  0  0  0
   58.1190   34.5320   45.1000 C   0  0  0  0  0  0  0  0  0  0  0  0
   59.3210   35.2020   45.3450 C   0  0  0  0  0  0  0  0  0  0  0  0
   60.1810   34.7510   46.3510 C   0  0  0  0  0  0  0  0  0  0  0  0
   59.8440   33.6250   47.1070 C   0  0  0  0  0  0  0  0  0  0  0  0
   58.6440   32.9340   46.8540 C   0  0  0  0  0  0  0  0  0  0  0  0
   58.2630   31.8110   47.6030 O   0  0  0  0  0  0  0  0  0  0  0  0
   58.9000   30.5620   47.5710 C   0  0  0  0  0  0  0  0  0  0  0  0
   59.6830   30.1640   48.6180 N   0  0  0  0  0  0  0  0  0  0  0  0
   60.3350   28.9720   48.6160 C   0  0  0  0  0  0  0  0  0  0  0  0
   60.2310   28.1200   47.5210 C   0  0  0  0  0  0  0  0  0  0  0  0
   59.4580   28.5020   46.4270 C   0  0  0  0  0  0  0  0  0  0  0  0
   58.7770   29.7330   46.4290 C   0  0  0  0  0  0  0  0  0  0  0  0
   57.9490   30.1170   45.2510 C   0  0  0  0  0  0  0  0  0  0  0  0
   56.6440   29.7370   45.1810 N   0  0  0  0  0  0  0  0  0  0  0  0
   55.8810   30.0880   44.1160 C   0  0  0  0  0  0  0  0  0  0  0  0
   56.4150   30.8250   43.1110 N   0  0  0  0  0  0  0  0  0  0  0  0
   57.7140   31.2100   43.1740 C   0  0  0  0  0  0  0  0  0  0  0  0
   58.4750   30.8580   44.2390 N   0  0  0  0  0  0  0  0  0  0  0  0
   57.4399   34.8913   44.3128 H   0  0  0  0  0  0  0  0  0  0  0  0
   59.5905   36.0845   44.7461 H   0  0  0  0  0  0  0  0  0  0  0  0
   61.1236   35.2829   46.5475 H   0  0  0  0  0  0  0  0  0  0  0  0
   60.5191   33.2773   47.9029 H   0  0  0  0  0  0  0  0  0  0  0  0
   59.8170   30.7950   49.4400 H   0  0  0  0  0  0  0  0  0  0  0  0
   60.9467   28.6798   49.4823 H   0  0  0  0  0  0  0  0  0  0  0  0
   60.7549   27.1528   47.5192 H   0  0  0  0  0  0  0  0  0  0  0  0
   59.3795   27.8361   45.5550 H   0  0  0  0  0  0  0  0  0  0  0  0
   54.8278   29.7744   44.0676 H   0  0  0  0  0  0  0  0  0  0  0  0
   58.1502   31.8082   42.3604 H   0  0  0  0  0  0  0  0  0  0  0  0
  1  2  1  0
  2  3  2  0
  3  4  1  0
  4  5  2  0
  5  6  1  0
  6  7  2  0
  7  8  1  0
  8  9  1  0
  9 10  2  0
 10 11  1  0
 11 12  2  0
 12 13  1  0
 13 14  2  0
 14 15  1  0
 15 16  2  0
 16 17  1  0
 17 18  2  0
 18 19  1  0
 19 20  2  0
  7  2  1  0
 14  9  1  0
 20 15  1  0
  3 21  1  0
  4 22  1  0
  5 23  1  0
  6 24  1  0
 10 25  1  0
 11 26  1  0
 12 27  1  0
 13 28  1  0
 17 29  1  0
 19 30  1  0
M  CHG  1  10   1
M  END
>  <UniqueID>  (2) 
2

>  <SMILES>  (2) 
Fc1ccccc1Oc1[nH+]cccc1-c1ncncn1

>  <Energy>  (2) 
43.38812822460125

>  <Genealogy>  (2) 
Fc1ccccc1Oc1[nH+]cccc1-c1ncncn1 (protonated)
Fc1ccccc1Oc1[nH+]cccc1-c1ncncn1 (3D coordinates assigned)
Fc1ccccc1Oc1[nH+]cccc1-c1ncncn1 (optimized conformer: 43.38812822460125 kcal/mol)

>  <smiles>  (2) 
Fc1ccccc1Oc1ncccc1-c1ncncn1

>  <score_type>  (2) 
oracle

>  <origin>  (2) 
adg

>  <m_score__min__energy>  (2) 
-4.8600000000000003

>  <m_primary>  (2) 
energy

$$$$
2:0
     RDKit          3D

 44 46  0  0  0  0  0  0  0  0999 V2000
   59.1830   29.7710   47.6520 C   0  0  0  0  0  0  0  0  0  0  0  0
   58.1450   30.3110   46.8400 O   0  0  0  0  0  0  0  0  0  0  0  0
   58.3040   31.4030   45.9700 C   0  0  0  0  0  0  0  0  0  0  0  0
   58.8240   32.6360   46.4140 C   0  0  0  0  0  0  0  0  0  0  0  0
   58.9570   33.7070   45.5280 C   0  0  0  0  0  0  0  0  0  0  0  0
   58.5760   33.5660   44.1940 C   0  0  0  0  0  0  0  0  0  0  0  0
   58.0630   32.3490   43.7380 C   0  0  0  0  0  0  0  0  0  0  0  0
   57.9280   31.2590   44.6160 C   0  0  0  0  0  0  0  0  0  0  0  0
   57.3310   29.9680   44.1090 C   0  0  0  0  0  0  0  0  0  0  0  0
   56.0070   29.6510   44.8080 C   0  0  0  0  0  0  0  0  0  0  0  0
   55.9820   28.2530   45.2240 N   0  0  0  0  0  0  0  0  0  0  0  0
   57.1450   27.4690   45.5230 C   0  0  0  0  0  0  0  0  0  0  0  0
   58.2790   28.0110   45.4400 O   0  0  0  0  0  0  0  0  0  0  0  0
   57.0570   26.0460   45.9050 C   0  0  0  0  0  0  0  0  0  0  0  0
   57.3270   25.6420   47.2160 C   0  0  0  0  0  0  0  0  0  0  0  0
   57.2900   24.2890   47.5550 C   0  0  0  0  0  0  0  0  0  0  0  0
   56.9770   23.3170   46.5970 C   0  0  0  0  0  0  0  0  0  0  0  0
   56.7130   23.7190   45.2650 C   0  0  0  0  0  0  0  0  0  0  0  0
   56.7750   25.0780   44.9320 C   0  0  0  0  0  0  0  0  0  0  0  0
   56.4600   22.8170   44.2270 O   0  0  0  0  0  0  0  0  0  0  0  0
   57.2280   21.6510   43.9570 C   0  0  0  0  0  0  0  0  0  0  0  0
   57.0060   20.5770   45.0170 C   0  0  0  0  0  0  0  0  0  0  0  0
   57.7090   20.9430   46.3160 C   0  0  0  0  0  0  0  0  0  0  0  0
   57.0220   21.9790   47.0050 O   0  0  0  0  0  0  0  0  0  0  0  0
   58.9257   29.9049   48.7131 H   0  0  0  0  0  0  0  0  0  0  0  0
   59.2980   28.6988   47.4350 H   0  0  0  0  0  0  0  0  0  0  0  0
   60.1270   30.2923   47.4350 H   0  0  0  0  0  0  0  0  0  0  0  0
   59.1268   32.7550   47.4648 H   0  0  0  0  0  0  0  0  0  0  0  0
   59.3637   34.6652   45.8835 H   0  0  0  0  0  0  0  0  0  0  0  0
   58.6794   34.4134   43.5003 H   0  0  0  0  0  0  0  0  0  0  0  0
   57.7627   32.2429   42.6851 H   0  0  0  0  0  0  0  0  0  0  0  0
   57.1520   30.0573   43.0273 H   0  0  0  0  0  0  0  0  0  0  0  0
   58.0382   29.1530   44.3223 H   0  0  0  0  0  0  0  0  0  0  0  0
   55.8991   30.2958   45.6926 H   0  0  0  0  0  0  0  0  0  0  0  0
   55.1779   29.8334   44.1085 H   0  0  0  0  0  0  0  0  0  0  0  0
   57.5693   26.3930   47.9824 H   0  0  0  0  0  0  0  0  0  0  0  0
   57.5096   23.9820   48.5882 H   0  0  0  0  0  0  0  0  0  0  0  0
   56.5998   25.3899   43.8918 H   0  0  0  0  0  0  0  0  0  0  0  0
   56.9357   21.2500   42.9753 H   0  0  0  0  0  0  0  0  0  0  0  0
   58.2922   21.9293   43.9655 H   0  0  0  0  0  0  0  0  0  0  0  0
   55.9273   20.4762   45.2072 H   0  0  0  0  0  0  0  0  0  0  0  0
   57.4213   19.6276   44.6479 H   0  0  0  0  0  0  0  0  0  0  0  0
   57.7541   20.0532   46.9612 H   0  0  0  0  0  0  0  0  0  0  0  0
   58.7201   21.3013   46.0726 H   0  0  0  0  0  0  0  0  0  0  0  0
  1  2  1  0
  2  3  1  0
  3  4  2  0
  4  5  1  0
  5  6  2  0
  6  7  1  0
  7  8  2  0
  8  9  1  0
  9 10  1  0
 10 11  1  0
 11 12  1  0
 12 13  2  0
 12 14  1  0
 14 15  2  0
 15 16  1  0
 16 17  2  0
 17 18  1  0
 18 19  2  0
 18 20  1  0
 20 21  1  0
 21 22  1  0
 22 23  1  0
 23 24  1  0
  8  3  1  0
 19 14  1  0
 24 17  1  0
  1 25  1  0
  1 26  1  0
  1 27  1  0
  4 28  1  0
  5 29  1  0
  6 30  1  0
  7 31  1  0
  9 32  1  0
  9 33  1  0
 10 34  1  0
 10 35  1  0
 15 36  1  0
 16 37  1  0
 19 38  1  0
 21 39  1  0
 21 40  1  0
 22 41  1  0
 22 42  1  0
 23 43  1  0
 23 44  1  0
M  CHG  1  11  -1
M  END
>  <UniqueID>  (3) 
3

>  <SMILES>  (3) 
COc1ccccc1CC[N-]C(=O)c1ccc2c(c1)OCCCO2

>  <Energy>  (3) 
54.605808801626694

>  <Genealogy>  (3) 
COc1ccccc1CC[N-]C(=O)c1ccc2c(c1)OCCCO2 (protonated)
COc1ccccc1CC[N-]C(=O)c1ccc2c(c1)OCCCO2 (3D coordinates assigned)
COc1ccccc1CC[N-]C(=O)c1ccc2c(c1)OCCCO2 (nonaromatic ring conformer: 54.605808801626694 kcal/mol)

>  <smiles>  (3) 
COc1ccccc1CCNC(=O)c1ccc2c(c1)OCCCO2

>  <score_type>  (3) 
oracle

>  <origin>  (3) 
adg

>  <m_score__min__energy>  (3) 
-6.7400000000000002

>  <m_primary>  (3) 
energy

$$$$
3:0
     RDKit          3D

 46 49  0  0  0  0  0  0  0  0999 V2000
   58.4610   24.9420   45.6960 C   0  0  0  0  0  0  0  0  0  0  0  0
   58.9790   26.2860   46.1170 C   0  0  0  0  0  0  0  0  0  0  0  0
   59.1340   26.5890   47.4780 C   0  0  0  0  0  0  0  0  0  0  0  0
   59.5820   27.8530   47.8730 C   0  0  0  0  0  0  0  0  0  0  0  0
   59.8640   28.8400   46.9110 C   0  0  0  0  0  0  0  0  0  0  0  0
   60.3510   30.1820   47.3210 C   0  0  0  0  0  0  0  0  0  0  0  0
   61.4420   30.2760   48.1240 N   0  0  0  0  0  0  0  0  0  0  0  0
   61.9600   31.4820   48.4650 C   0  0  0  0  0  0  0  0  0  0  0  0
   63.1350   31.5490   49.2280 C   0  0  0  0  0  0  0  0  0  0  0  0
   63.6960   32.7500   49.5170 N   0  0  0  0  0  0  0  0  0  0  0  0
   63.1500   33.9110   49.0810 C   0  0  0  0  0  0  0  0  0  0  0  0
   61.9740   33.8990   48.3280 C   0  0  0  0  0  0  0  0  0  0  0  0
   61.3250   32.6730   48.0350 C   0  0  0  0  0  0  0  0  0  0  0  0
   60.1320   32.5960   47.3280 N   0  0  0  0  0  0  0  0  0  0  0  0
   59.3360   33.8320   47.0360 C   0  0  0  0  0  0  0  0  0  0  0  0
   57.7810   33.6660   47.1230 C   0  0  0  0  0  0  0  0  0  0  0  0
   57.0090   33.5870   45.7880 C   0  0  0  0  0  0  0  0  0  0  0  0
   57.5870   34.4990   44.7090 C   0  0  0  0  0  0  0  0  0  0  0  0
   59.0720   34.2140   44.5070 C   0  0  0  0  0  0  0  0  0  0  0  0
   59.8520   34.5600   45.7730 C   0  0  0  0  0  0  0  0  0  0  0  0
   59.7150   31.3590   46.8820 C   0  0  0  0  0  0  0  0  0  0  0  0
   58.7790   31.2600   46.0500 O   0  0  0  0  0  0  0  0  0  0  0  0
   59.6990   28.5350   45.5510 C   0  0  0  0  0  0  0  0  0  0  0  0
   59.2510   27.2710   45.1570 C   0  0  0  0  0  0  0  0  0  0  0  0
   58.2298   24.3421   46.5886 H   0  0  0  0  0  0  0  0  0  0  0  0
   57.5487   25.0723   45.0954 H   0  0  0  0  0  0  0  0  0  0  0  0
   59.2248   24.4263   45.0954 H   0  0  0  0  0  0  0  0  0  0  0  0
   58.9019   25.8284   48.2380 H   0  0  0  0  0  0  0  0  0  0  0  0
   59.7147   28.0770   48.9417 H   0  0  0  0  0  0  0  0  0  0  0  0
   61.9060   29.4010   48.4630 H   0  0  0  0  0  0  0  0  0  0  0  0
   63.6038   30.6235   49.5937 H   0  0  0  0  0  0  0  0  0  0  0  0
   63.6358   34.8682   49.3215 H   0  0  0  0  0  0  0  0  0  0  0  0
   61.5493   34.8449   47.9606 H   0  0  0  0  0  0  0  0  0  0  0  0
   59.5262   34.5149   47.8771 H   0  0  0  0  0  0  0  0  0  0  0  0
   57.5767   32.7396   47.6798 H   0  0  0  0  0  0  0  0  0  0  0  0
   57.4219   34.5863   47.6068 H   0  0  0  0  0  0  0  0  0  0  0  0
   57.0427   32.5493   45.4246 H   0  0  0  0  0  0  0  0  0  0  0  0
   55.9793   33.9208   45.9835 H   0  0  0  0  0  0  0  0  0  0  0  0
   57.0530   34.3243   43.7633 H   0  0  0  0  0  0  0  0  0  0  0  0
   57.4657   35.5455   45.0255 H   0  0  0  0  0  0  0  0  0  0  0  0
   59.2091   33.1474   44.2758 H   0  0  0  0  0  0  0  0  0  0  0  0
   59.4458   34.8295   43.6755 H   0  0  0  0  0  0  0  0  0  0  0  0
   60.9056   34.2843   45.6187 H   0  0  0  0  0  0  0  0  0  0  0  0
   59.7231   35.6385   45.9468 H   0  0  0  0  0  0  0  0  0  0  0  0
   59.9239   29.2963   44.7896 H   0  0  0  0  0  0  0  0  0  0  0  0
   59.1112   27.0480   44.0889 H   0  0  0  0  0  0  0  0  0  0  0  0
  1  2  1  0
  2  3  2  0
  3  4  1  0
  4  5  2  0
  5  6  1  0
  6  7  2  0
  7  8  1  0
  8  9  2  0
  9 10  1  0
 10 11  2  0
 11 12  1  0
 12 13  2  0
 13 14  1  0
 14 15  1  0
 15 16  1  0
 16 17  1  0
 17 18  1  0
 18 19  1  0
 19 20  1  0
 14 21  1  0
 21 22  2  0
  5 23  1  0
 23 24  2  0
 24  2  1  0
 21  6  1  0
 13  8  1  0
 20 15  1  0
  1 25  1  0
  1 26  1  0
  1 27  1  0
  3 28  1  0
  4 29  1  0
  7 30  1  0
  9 31  1  0
 11 32  1  0
 12 33  1  0
 15 34  1  0
 16 35  1  0
 16 36  1  0
 17 37  1  0
 17 38  1  0
 18 39  1  0
 18 40  1  0
 19 41  1  0
 19 42  1  0
 20 43  1  0
 20 44  1  0
 23 45  1  0
 24 46  1  0
M  CHG  1   7   1
M  END
>  <UniqueID>  (4) 
4

>  <SMILES>  (4) 
Cc1ccc(-c2[nH+]c3cnccc3n(C3CCCCC3)c2=O)cc1

>  <Energy>  (4) 
76.5277593238256

>  <Genealogy>  (4) 
Cc1ccc(-c2[nH+]c3cnccc3n(C3CCCCC3)c2=O)cc1 (protonated)
Cc1ccc(-c2[nH+]c3cnccc3n(C3CCCCC3)c2=O)cc1 (3D coordinates assigned)
Cc1ccc(-c2[nH+]c3cnccc3n(C3CCCCC3)c2=O)cc1 (nonaromatic ring conformer: 76.5277593238256 kcal/mol)

>  <smiles>  (4) 
Cc1ccc(-c2nc3cnccc3n(C3CCCCC3)c2=O)cc1

>  <score_type>  (4) 
oracle

>  <origin>  (4) 
adg

>  <m_score__min__energy>  (4) 
-6.1299999999999999

>  <m_primary>  (4) 
energy

$$$$
4:0
     RDKit          3D

 25 25  0  0  0  0  0  0  0  0999 V2000
   63.6510   33.4520   46.7930 C   0  0  0  0  0  0  0  0  0  0  0  0
   62.3670   33.8140   46.7310 C   0  0  0  0  0  0  0  0  0  0  0  0
   61.3120   33.1060   47.5320 C   0  0  0  0  0  0  0  0  0  0  0  0
   60.0560   33.0450   46.7890 N   0  0  0  0  0  0  0  0  0  0  0  0
   58.9970   33.9920   46.9900 C   0  0  0  0  0  0  0  0  0  0  0  0
   59.1390   34.9420   47.8060 O   0  0  0  0  0  0  0  0  0  0  0  0
   57.6960   33.8350   46.2640 C   0  0  0  0  0  0  0  0  0  0  0  0
   57.9830   33.4350   44.5070 S   0  0  0  0  0  0  0  0  0  0  0  0
   57.7540   31.6710   44.7140 C   0  0  0  0  0  0  0  0  0  0  0  0
   56.5020   31.1420   44.7000 N   0  0  0  0  0  0  0  0  0  0  0  0
   56.3100   29.8050   44.8420 C   0  0  0  0  0  0  0  0  0  0  0  0
   55.1430   29.3330   44.8240 O   0  0  0  0  0  0  0  0  0  0  0  0
   57.4070   28.9570   45.0060 C   0  0  0  0  0  0  0  0  0  0  0  0
   58.6830   29.5200   45.0240 C   0  0  0  0  0  0  0  0  0  0  0  0
   58.8330   30.8620   44.8810 N   0  0  0  0  0  0  0  0  0  0  0  0
   64.4030   33.9881   46.1954 H   0  0  0  0  0  0  0  0  0  0  0  0
   63.9565   32.6178   47.4416 H   0  0  0  0  0  0  0  0  0  0  0  0
   62.0753   34.6500   46.0782 H   0  0  0  0  0  0  0  0  0  0  0  0
   61.6514   32.0832   47.7526 H   0  0  0  0  0  0  0  0  0  0  0  0
   61.1443   33.6615   48.4665 H   0  0  0  0  0  0  0  0  0  0  0  0
   59.9130   32.2530   46.1220 H   0  0  0  0  0  0  0  0  0  0  0  0
   57.1182   33.0230   46.7296 H   0  0  0  0  0  0  0  0  0  0  0  0
   57.1400   34.7822   46.3251 H   0  0  0  0  0  0  0  0  0  0  0  0
   57.2684   27.8716   45.1183 H   0  0  0  0  0  0  0  0  0  0  0  0
   59.5666   28.8778   45.1539 H   0  0  0  0  0  0  0  0  0  0  0  0
  1  2  2  0
  2  3  1  0
  3  4  1  0
  4  5  1  0
  5  6  2  0
  5  7  1  0
  7  8  1  0
  8  9  1  0
  9 10  2  0
 10 11  1  0
 11 12  2  0
 11 13  1  0
 13 14  2  0
 14 15  1  0
 15  9  1  0
  1 16  1  0
  1 17  1  0
  2 18  1  0
  3 19  1  0
  3 20  1  0
  4 21  1  0
  7 22  1  0
  7 23  1  0
 13 24  1  0
 14 25  1  0
M  CHG  1  15  -1
M  END
>  <UniqueID>  (5) 
5

>  <SMILES>  (5) 
C=CCNC(=O)CSc1nc(=O)cc[n-]1

>  <Energy>  (5) 
13.616141244707892

>  <Genealogy>  (5) 
C=CCNC(=O)CSc1nc(=O)cc[n-]1 (protonated)
C=CCNC(=O)CSc1nc(=O)cc[n-]1 (3D coordinates assigned)
C=CCNC(=O)CSc1nc(=O)cc[n-]1 (optimized conformer: 13.616141244707892 kcal/mol)

>  <smiles>  (5) 
C=CCNC(=O)CSc1nc(=O)cc[nH]1

>  <score_type>  (5) 
oracle

>  <origin>  (5) 
adg

>  <m_score__min__energy>  (5) 
-6.8899999999999997

>  <m_primary>  (5) 
energy

$$$$
5:0
     RDKit          3D

 33 34  0  0  0  0  0  0  0  0999 V2000
   57.1240   29.7920   43.3920 C   0  0  0  0  0  0  0  0  0  0  0  0
   57.3680   31.2710   43.3540 C   0  0  0  0  0  0  0  0  0  0  0  0
   57.3870   31.8470   42.2320 O   0  0  0  0  0  0  0  0  0  0  0  0
   57.5940   32.0390   44.5560 N   0  0  0  0  0  0  0  0  0  0  0  0
   57.4860   33.5060   44.4800 C   0  0  0  0  0  0  0  0  0  0  0  0
   57.5730   34.1470   45.8650 C   0  0  0  0  0  0  0  0  0  0  0  0
   58.7240   33.5890   46.5860 N   0  0  0  0  0  0  0  0  0  0  0  0
   59.8200   34.4470   46.9750 C   0  0  0  0  0  0  0  0  0  0  0  0
   60.0150   35.5250   46.3500 O   0  0  0  0  0  0  0  0  0  0  0  0
   60.7250   34.1010   48.0920 C   0  0  0  0  0  0  0  0  0  0  0  0
   60.3380   34.0080   49.3820 N   0  0  0  0  0  0  0  0  0  0  0  0
   61.4100   33.7170   50.1020 N   0  0  0  0  0  0  0  0  0  0  0  0
   61.3810   33.4660   51.5360 C   0  0  0  0  0  0  0  0  0  0  0  0
   62.4880   33.6040   49.3050 C   0  0  0  0  0  0  0  0  0  0  0  0
   62.0890   33.8570   48.0120 C   0  0  0  0  0  0  0  0  0  0  0  0
   63.1130   33.8230   46.5870 Cl  0  0  0  0  0  0  0  0  0  0  0  0
   58.8500   32.1260   46.6940 C   0  0  0  0  0  0  0  0  0  0  0  0
   57.7870   31.3870   45.8630 C   0  0  0  0  0  0  0  0  0  0  0  0
   57.0686   29.4563   44.4380 H   0  0  0  0  0  0  0  0  0  0  0  0
   56.1760   29.5636   42.8829 H   0  0  0  0  0  0  0  0  0  0  0  0
   57.9484   29.2712   42.8829 H   0  0  0  0  0  0  0  0  0  0  0  0
   58.3046   33.8927   43.8552 H   0  0  0  0  0  0  0  0  0  0  0  0
   56.5079   33.7578   44.0442 H   0  0  0  0  0  0  0  0  0  0  0  0
   57.6977   35.2348   45.7594 H   0  0  0  0  0  0  0  0  0  0  0  0
   56.6501   33.9388   46.4263 H   0  0  0  0  0  0  0  0  0  0  0  0
   61.4909   34.4174   52.0771 H   0  0  0  0  0  0  0  0  0  0  0  0
   60.4229   32.9986   51.8071 H   0  0  0  0  0  0  0  0  0  0  0  0
   62.2073   32.7924   51.8071 H   0  0  0  0  0  0  0  0  0  0  0  0
   63.5088   33.3535   49.6295 H   0  0  0  0  0  0  0  0  0  0  0  0
   59.8474   31.8293   46.3374 H   0  0  0  0  0  0  0  0  0  0  0  0
   58.7035   31.8520   47.7492 H   0  0  0  0  0  0  0  0  0  0  0  0
   58.1130   30.3487   45.7028 H   0  0  0  0  0  0  0  0  0  0  0  0
   56.8337   31.4104   46.4114 H   0  0  0  0  0  0  0  0  0  0  0  0
  1  2  1  0
  2  3  2  0
  2  4  1  0
  4  5  1  0
  5  6  1  0
  6  7  1  0
  7  8  1  0
  8  9  2  0
  8 10  1  0
 10 11  2  0
 11 12  1  0
 12 13  1  0
 12 14  1  0
 14 15  2  0
 15 16  1  0
  7 17  1  0
 17 18  1  0
 18  4  1  0
 15 10  1  0
  1 19  1  0
  1 20  1  0
  1 21  1  0
  5 22  1  0
  5 23  1  0
  6 24  1  0
  6 25  1  0
 13 26  1  0
 13 27  1  0
 13 28  1  0
 14 29  1  0
 17 30  1  0
 17 31  1  0
 18 32  1  0
 18 33  1  0
M  END
>  <UniqueID>  (6) 
6

>  <SMILES>  (6) 
CC(=O)N1CCN(C(=O)c2nn(C)cc2Cl)CC1

>  <Energy>  (6) 
64.48076919007606

>  <Genealogy>  (6) 
CC(=O)N1CCN(C(=O)c2nn(C)cc2Cl)CC1 (3D coordinates assigned)
CC(=O)N1CCN(C(=O)c2nn(C)cc2Cl)CC1 (nonaromatic ring conformer: 64.48076919007606 kcal/mol)

>  <smiles>  (6) 
CC(=O)N1CCN(C(=O)c2nn(C)cc2Cl)CC1

>  <score_type>  (6) 
oracle

>  <origin>  (6) 
adg

>  <m_score__min__energy>  (6) 
-6.1699999999999999

>  <m_primary>  (6) 
energy

$$$$
6:0
     RDKit          3D

 41 42  0  0  0  0  0  0  0  0999 V2000
   59.3420   30.6040   48.0400 C   0  0  0  0  0  0  0  0  0  0  0  0
   60.4620   30.4890   47.3220 C   0  0  0  0  0  0  0  0  0  0  0  0
   60.4950   29.7090   46.0410 C   0  0  0  0  0  0  0  0  0  0  0  0
   59.1410   29.4940   45.5330 N   0  0  0  0  0  0  0  0  0  0  0  0
   58.8320   28.4690   44.5790 C   0  0  0  0  0  0  0  0  0  0  0  0
   59.7550   27.7930   44.0510 O   0  0  0  0  0  0  0  0  0  0  0  0
   57.4090   28.2000   44.1990 C   0  0  0  0  0  0  0  0  0  0  0  0
   56.8020   29.4370   43.0010 S   0  0  0  0  0  0  0  0  0  0  0  0
   57.2300   30.8510   44.0210 C   0  0  0  0  0  0  0  0  0  0  0  0
   57.0210   30.8960   45.3510 N   0  0  0  0  0  0  0  0  0  0  0  0
   57.3870   32.1030   45.7580 N   0  0  0  0  0  0  0  0  0  0  0  0
   57.8130   32.7750   44.6700 C   0  0  0  0  0  0  0  0  0  0  0  0
   58.2640   34.2080   44.7100 C   0  0  0  0  0  0  0  0  0  0  0  0
   58.5880   34.6190   46.0770 N   0  0  0  0  0  0  0  0  0  0  0  0
   59.7800   34.2200   46.7820 C   0  0  0  0  0  0  0  0  0  0  0  0
   60.9150   33.8410   46.0480 C   0  0  0  0  0  0  0  0  0  0  0  0
   62.0990   33.4910   46.7040 C   0  0  0  0  0  0  0  0  0  0  0  0
   62.1570   33.5040   48.1000 C   0  0  0  0  0  0  0  0  0  0  0  0
   63.7800   33.0380   48.9930 Br  0  0  0  0  0  0  0  0  0  0  0  0
   61.0270   33.8610   48.8410 C   0  0  0  0  0  0  0  0  0  0  0  0
   59.8420   34.2150   48.1890 C   0  0  0  0  0  0  0  0  0  0  0  0
   57.7520   32.0050   43.5640 N   0  0  0  0  0  0  0  0  0  0  0  0
   58.0850   32.3660   42.1880 C   0  0  0  0  0  0  0  0  0  0  0  0
   59.3456   31.1820   48.9759 H   0  0  0  0  0  0  0  0  0  0  0  0
   58.4158   30.1208   47.6955 H   0  0  0  0  0  0  0  0  0  0  0  0
   61.3812   30.9773   47.6779 H   0  0  0  0  0  0  0  0  0  0  0  0
   61.0771   30.2672   45.2930 H   0  0  0  0  0  0  0  0  0  0  0  0
   60.9603   28.7311   46.2338 H   0  0  0  0  0  0  0  0  0  0  0  0
   58.3630   30.0680   45.9310 H   0  0  0  0  0  0  0  0  0  0  0  0
   57.3410   27.1993   43.7474 H   0  0  0  0  0  0  0  0  0  0  0  0
   56.7887   28.2587   45.1056 H   0  0  0  0  0  0  0  0  0  0  0  0
   59.1579   34.3213   44.0791 H   0  0  0  0  0  0  0  0  0  0  0  0
   57.4462   34.8428   44.3382 H   0  0  0  0  0  0  0  0  0  0  0  0
   57.8570   35.1540   46.6000 H   0  0  0  0  0  0  0  0  0  0  0  0
   60.8725   33.8192   44.9490 H   0  0  0  0  0  0  0  0  0  0  0  0
   62.9863   33.2049   46.1202 H   0  0  0  0  0  0  0  0  0  0  0  0
   61.0701   33.8635   49.9402 H   0  0  0  0  0  0  0  0  0  0  0  0
   58.9544   34.4908   48.7774 H   0  0  0  0  0  0  0  0  0  0  0  0
   58.8308   33.1745   42.1913 H   0  0  0  0  0  0  0  0  0  0  0  0
   58.4976   31.4887   41.6684 H   0  0  0  0  0  0  0  0  0  0  0  0
   57.1773   32.7066   41.6684 H   0  0  0  0  0  0  0  0  0  0  0  0
  1  2  2  0
  2  3  1  0
  3  4  1  0
  4  5  1  0
  5  6  2  0
  5  7  1  0
  7  8  1  0
  8  9  1  0
  9 10  2  0
 10 11  1  0
 11 12  2  0
 12 13  1  0
 13 14  1  0
 14 15  1  0
 15 16  2  0
 16 17  1  0
 17 18  2  0
 18 19  1  0
 18 20  1  0
 20 21  2  0
 12 22  1  0
 22 23  1  0
 22  9  1  0
 21 15  1  0
  1 24  1  0
  1 25  1  0
  2 26  1  0
  3 27  1  0
  3 28  1  0
  4 29  1  0
  7 30  1  0
  7 31  1  0
 13 32  1  0
 13 33  1  0
 14 34  1  0
 16 35  1  0
 17 36  1  0
 20 37  1  0
 21 38  1  0
 23 39  1  0
 23 40  1  0
 23 41  1  0
M  END
>  <UniqueID>  (7) 
7

>  <SMILES>  (7) 
C=CCNC(=O)CSc1nnc(CNc2ccc(Br)cc2)n1C

>  <Energy>  (7) 
59.55680362569905

>  <Genealogy>  (7) 
C=CCNC(=O)CSc1nnc(CNc2ccc(Br)cc2)n1C (3D coordinates assigned)
C=CCNC(=O)CSc1nnc(CNc2ccc(Br)cc2)n1C (optimized conformer: 59.55680362569905 kcal/mol)

>  <smiles>  (7) 
C=CCNC(=O)CSc1nnc(CNc2ccc(Br)cc2)n1C

>  <score_type>  (7) 
oracle

>  <origin>  (7) 
adg

>  <m_score__min__energy>  (7) 
-7.9100000000000001

>  <m_primary>  (7) 
energy

$$$$
7:0
     RDKit          3D

 39 42  0  0  0  0  0  0  0  0999 V2000
   61.3520   33.8790   48.6950 C   0  0  0  0  0  0  0  0  0  0  0  0
   59.6800   34.5960   48.7400 S   0  0  0  0  0  0  0  0  0  0  0  0
   59.1940   33.8620   47.1770 C   0  0  0  0  0  0  0  0  0  0  0  0
   59.2020   34.6430   46.0000 C   0  0  0  0  0  0  0  0  0  0  0  0
   58.8250   34.0840   44.7660 C   0  0  0  0  0  0  0  0  0  0  0  0
   58.4550   32.7360   44.7380 C   0  0  0  0  0  0  0  0  0  0  0  0
   58.4460   31.9800   45.8940 C   0  0  0  0  0  0  0  0  0  0  0  0
   58.8110   32.5090   47.1300 C   0  0  0  0  0  0  0  0  0  0  0  0
   58.0010   30.7280   45.5350 C   0  0  0  0  0  0  0  0  0  0  0  0
   57.7650   29.5820   46.2910 C   0  0  0  0  0  0  0  0  0  0  0  0
   57.2770   28.4380   45.6310 C   0  0  0  0  0  0  0  0  0  0  0  0
   57.0110   27.2630   46.4090 N   0  0  0  0  0  0  0  0  0  0  0  0
   56.1440   26.1820   46.0450 C   0  0  0  0  0  0  0  0  0  0  0  0
   54.8960   26.3470   45.9890 O   0  0  0  0  0  0  0  0  0  0  0  0
   56.7340   24.8750   45.6230 C   0  0  0  0  0  0  0  0  0  0  0  0
   58.2340   24.9110   45.3700 C   0  0  0  0  0  0  0  0  0  0  0  0
   57.2700   24.8510   44.1990 C   0  0  0  0  0  0  0  0  0  0  0  0
   56.9980   28.4940   44.2390 C   0  0  0  0  0  0  0  0  0  0  0  0
   57.2420   29.6670   43.5020 C   0  0  0  0  0  0  0  0  0  0  0  0
   57.7580   30.7770   44.1770 C   0  0  0  0  0  0  0  0  0  0  0  0
   58.0500   32.0010   43.6720 N   0  0  0  0  0  0  0  0  0  0  0  0
   57.8500   32.4650   42.2990 C   0  0  0  0  0  0  0  0  0  0  0  0
   61.7125   33.7244   49.7227 H   0  0  0  0  0  0  0  0  0  0  0  0
   61.3231   32.9141   48.1675 H   0  0  0  0  0  0  0  0  0  0  0  0
   62.0311   34.5650   48.1675 H   0  0  0  0  0  0  0  0  0  0  0  0
   59.5062   35.6990   46.0492 H   0  0  0  0  0  0  0  0  0  0  0  0
   58.8213   34.6904   43.8483 H   0  0  0  0  0  0  0  0  0  0  0  0
   58.8001   31.8895   48.0389 H   0  0  0  0  0  0  0  0  0  0  0  0
   57.9548   29.5711   47.3744 H   0  0  0  0  0  0  0  0  0  0  0  0
   56.0557   24.2406   46.2124 H   0  0  0  0  0  0  0  0  0  0  0  0
   58.8029   25.8316   45.5672 H   0  0  0  0  0  0  0  0  0  0  0  0
   59.0929   24.3089   45.7014 H   0  0  0  0  0  0  0  0  0  0  0  0
   57.1405   25.7281   43.5480 H   0  0  0  0  0  0  0  0  0  0  0  0
   57.1415   24.1875   43.3311 H   0  0  0  0  0  0  0  0  0  0  0  0
   56.5862   27.6093   43.7314 H   0  0  0  0  0  0  0  0  0  0  0  0
   57.0323   29.7097   42.4230 H   0  0  0  0  0  0  0  0  0  0  0  0
   57.4146   33.4751   42.3131 H   0  0  0  0  0  0  0  0  0  0  0  0
   58.8173   32.4899   41.7758 H   0  0  0  0  0  0  0  0  0  0  0  0
   57.1677   31.7789   41.7758 H   0  0  0  0  0  0  0  0  0  0  0  0
  1  2  1  0
  2  3  1  0
  3  4  2  0
  4  5  1  0
  5  6  2  0
  6  7  1  0
  7  8  2  0
  7  9  1  0
  9 10  2  0
 10 11  1  0
 11 12  1  0
 12 13  1  0
 13 14  2  0
 13 15  1  0
 15 16  1  0
 16 17  1  0
 11 18  2  0
 18 19  1  0
 19 20  2  0
 20 21  1  0
 21 22  1  0
  8  3  1  0
 20  9  1  0
 21  6  1  0
 17 15  1  0
  1 23  1  0
  1 24  1  0
  1 25  1  0
  4 26  1  0
  5 27  1  0
  8 28  1  0
 10 29  1  0
 15 30  1  0
 16 31  1  0
 16 32  1  0
 17 33  1  0
 17 34  1  0
 18 35  1  0
 19 36  1  0
 22 37  1  0
 22 38  1  0
 22 39  1  0
M  CHG  1  12  -1
M  END
>  <UniqueID>  (8) 
8

>  <SMILES>  (8) 
CSc1ccc2c(c1)c1cc([N-]C(=O)C3CC3)ccc1n2C

>  <Energy>  (8) 
345.5089005436062

>  <Genealogy>  (8) 
CSc1ccc2c(c1)c1cc([N-]C(=O)C3CC3)ccc1n2C (protonated)
CSc1ccc2c(c1)c1cc([N-]C(=O)C3CC3)ccc1n2C (3D coordinates assigned)
CSc1ccc2c(c1)c1cc([N-]C(=O)C3CC3)ccc1n2C (nonaromatic ring conformer: 345.5089005436062 kcal/mol)

>  <smiles>  (8) 
CSc1ccc2c(c1)c1cc(NC(=O)C3CC3)ccc1n2C

>  <score_type>  (8) 
oracle

>  <origin>  (8) 
adg

>  <m_score__min__energy>  (8) 
-9.9199999999999999

>  <m_primary>  (8) 
energy

$$$$
8:0
     RDKit          3D

 27 27  0  0  0  0  0  0  0  0999 V2000
   59.6170   35.4860   45.6710 C   0  0  0  0  0  0  0  0  0  0  0  0
   58.8710   34.6240   46.6990 C   0  0  0  0  0  0  0  0  0  0  0  0
   58.5740   33.2450   46.2390 N   0  0  0  0  0  0  0  0  0  0  0  0
   59.4810   32.2110   46.7880 C   0  0  0  0  0  0  0  0  0  0  0  0
   58.9350   31.6060   48.0810 C   0  0  0  0  0  0  0  0  0  0  0  0
   58.4850   33.1590   44.7650 C   0  0  0  0  0  0  0  0  0  0  0  0
   57.6560   31.9740   44.3690 C   0  0  0  0  0  0  0  0  0  0  0  0
   57.0200   31.1470   45.2260 N   0  0  0  0  0  0  0  0  0  0  0  0
   56.3770   30.2740   44.5040 O   0  0  0  0  0  0  0  0  0  0  0  0
   56.5510   30.4800   43.2320 N   0  0  0  0  0  0  0  0  0  0  0  0
   55.9870   29.7300   42.2260 O   0  0  0  0  0  0  0  0  0  0  0  0
   57.3500   31.5480   43.0920 C   0  0  0  0  0  0  0  0  0  0  0  0
   57.7680   32.1260   41.8420 C   0  0  0  0  0  0  0  0  0  0  0  0
   58.1040   32.5900   40.8370 N   0  0  0  0  0  0  0  0  0  0  0  0
   60.2497   36.2171   46.1956 H   0  0  0  0  0  0  0  0  0  0  0  0
   60.2471   34.8416   45.0404 H   0  0  0  0  0  0  0  0  0  0  0  0
   58.8888   36.0171   45.0404 H   0  0  0  0  0  0  0  0  0  0  0  0
   59.4886   34.5588   47.6069 H   0  0  0  0  0  0  0  0  0  0  0  0
   57.9015   35.1128   46.8756 H   0  0  0  0  0  0  0  0  0  0  0  0
   59.6008   31.4105   46.0431 H   0  0  0  0  0  0  0  0  0  0  0  0
   60.4461   32.6879   47.0144 H   0  0  0  0  0  0  0  0  0  0  0  0
   59.3918   32.1122   48.9442 H   0  0  0  0  0  0  0  0  0  0  0  0
   57.8433   31.7369   48.1147 H   0  0  0  0  0  0  0  0  0  0  0  0
   59.1769   30.5335   48.1147 H   0  0  0  0  0  0  0  0  0  0  0  0
   58.0197   34.0759   44.3741 H   0  0  0  0  0  0  0  0  0  0  0  0
   59.4968   33.0470   44.3483 H   0  0  0  0  0  0  0  0  0  0  0  0
   57.0210   31.1860   46.2690 H   0  0  0  0  0  0  0  0  0  0  0  0
  1  2  1  0
  2  3  1  0
  3  4  1  0
  4  5  1  0
  3  6  1  0
  6  7  1  0
  7  8  2  0
  8  9  1  0
  9 10  1  0
 10 11  1  0
 10 12  2  0
 12 13  1  0
 13 14  3  0
 12  7  1  0
  1 15  1  0
  1 16  1  0
  1 17  1  0
  2 18  1  0
  2 19  1  0
  4 20  1  0
  4 21  1  0
  5 22  1  0
  5 23  1  0
  5 24  1  0
  6 25  1  0
  6 26  1  0
  8 27  1  0
M  CHG  3   8   1  10   1  11  -1
M  END
>  <UniqueID>  (9) 
9

>  <SMILES>  (9) 
CCN(CC)Cc1[nH+]o[n+]([O-])c1C#N

>  <Energy>  (9) 
63.1071420124835

>  <Genealogy>  (9) 
CCN(CC)Cc1[nH+]o[n+]([O-])c1C#N (protonated)
CCN(CC)Cc1[nH+]o[n+]([O-])c1C#N (3D coordinates assigned)
CCN(CC)Cc1[nH+]o[n+]([O-])c1C#N (optimized conformer: 63.1071420124835 kcal/mol)

>  <smiles>  (9) 
CCN(CC)Cc1no[n+]([O-])c1C#N

>  <score_type>  (9) 
oracle

>  <origin>  (9) 
adg

>  <m_score__min__energy>  (9) 
-3.8900000000000001

>  <m_primary>  (9) 
energy

$$$$
9:0
     RDKit          3D

 17 16  0  0  0  0  0  0  0  0999 V2000
   56.6220   29.8060   42.5690 C   0  0  0  0  0  0  0  0  0  0  0  0
   56.2430   30.5110   44.1580 S   0  0  0  0  0  0  0  0  0  0  0  0
   55.6510   29.3220   45.1870 O   0  0  0  0  0  0  0  0  0  0  0  0
   57.6740   31.2910   44.8870 C   0  0  0  0  0  0  0  0  0  0  0  0
   57.3760   32.7070   45.4020 C   0  0  0  0  0  0  0  0  0  0  0  0
   58.2750   33.7860   44.7810 C   0  0  0  0  0  0  0  0  0  0  0  0
   59.4610   34.5920   46.0890 Br  0  0  0  0  0  0  0  0  0  0  0  0
   57.1387   28.8449   42.7081 H   0  0  0  0  0  0  0  0  0  0  0  0
   55.6897   29.6433   42.0083 H   0  0  0  0  0  0  0  0  0  0  0  0
   57.2719   30.4939   42.0083 H   0  0  0  0  0  0  0  0  0  0  0  0
   55.7140   29.7160   46.0940 H   0  0  0  0  0  0  0  0  0  0  0  0
   58.0200   30.6749   45.7301 H   0  0  0  0  0  0  0  0  0  0  0  0
   58.4425   31.3757   44.1045 H   0  0  0  0  0  0  0  0  0  0  0  0
   56.3288   32.9494   45.1683 H   0  0  0  0  0  0  0  0  0  0  0  0
   57.5721   32.7058   46.4844 H   0  0  0  0  0  0  0  0  0  0  0  0
   58.8825   33.3273   43.9869 H   0  0  0  0  0  0  0  0  0  0  0  0
   57.6253   34.5780   44.3803 H   0  0  0  0  0  0  0  0  0  0  0  0
  1  2  1  0
  2  3  1  1
  2  4  1  0
  4  5  1  0
  5  6  1  0
  6  7  1  0
  1  8  1  0
  1  9  1  0
  1 10  1  0
  3 11  1  0
  4 12  1  0
  4 13  1  0
  5 14  1  0
  5 15  1  0
  6 16  1  0
  6 17  1  0
M  CHG  1   2   1
M  END
>  <UniqueID>  (10) 
10

>  <SMILES>  (10) 
C[S@@+](O)CCCBr

>  <Energy>  (10) 
3.935614206325712

>  <Genealogy>  (10) 
C[S+](O)CCCBr (protonated)
C[S@@+](O)CCCBr (chirality)
C[S@@+](O)CCCBr (3D coordinates assigned)
C[S@@+](O)CCCBr (optimized conformer: 3.935614206325712 kcal/mol)

>  <smiles>  (10) 
C[S+]([O-])CCCBr

>  <score_type>  (10) 
oracle

>  <origin>  (10) 
adg

>  <m_score__min__energy>  (10) 
-2.8100000000000001

>  <m_primary>  (10) 
energy

$$$$
10:0
     RDKit          3D

 50 49  0  0  0  0  0  0  0  0999 V2000
   59.3520   30.3970   47.1920 C   0  0  0  0  0  0  0  0  0  0  0  0
   60.8050   30.4910   46.7230 C   0  0  0  0  0  0  0  0  0  0  0  0
   61.7280   31.0950   47.7900 C   0  0  0  0  0  0  0  0  0  0  0  0
   63.0870   31.5360   47.2150 C   0  0  0  0  0  0  0  0  0  0  0  0
   63.4590   32.9730   47.6340 C   0  0  0  0  0  0  0  0  0  0  0  0
   62.2420   33.9020   47.8300 C   0  0  0  0  0  0  0  0  0  0  0  0
   61.7690   34.0490   49.2870 C   0  0  0  0  0  0  0  0  0  0  0  0
   60.2460   34.2050   49.4060 C   0  0  0  0  0  0  0  0  0  0  0  0
   59.5450   33.6660   48.1560 C   0  0  0  0  0  0  0  0  0  0  0  0
   58.9470   34.8050   47.3180 C   0  0  0  0  0  0  0  0  0  0  0  0
   59.6160   34.9190   45.9320 C   0  0  0  0  0  0  0  0  0  0  0  0
   58.8600   34.1650   44.8220 C   0  0  0  0  0  0  0  0  0  0  0  0
   57.7580   33.2150   45.3280 C   0  0  0  0  0  0  0  0  0  0  0  0
   57.5600   31.9990   44.4220 C   0  0  0  0  0  0  0  0  0  0  0  0
   56.3790   31.3080   44.8170 O   0  0  0  0  0  0  0  0  0  0  0  0
   55.9920   30.0900   44.2520 C   0  0  0  0  0  0  0  0  0  0  0  0
   56.4710   29.7270   42.8880 C   0  0  0  0  0  0  0  0  0  0  0  0
   55.2100   29.3140   44.8660 O   0  0  0  0  0  0  0  0  0  0  0  0
   59.3210   30.3950   48.2916 H   0  0  0  0  0  0  0  0  0  0  0  0
   58.7871   31.2605   46.8108 H   0  0  0  0  0  0  0  0  0  0  0  0
   58.9031   29.4679   46.8108 H   0  0  0  0  0  0  0  0  0  0  0  0
   61.1629   29.4801   46.4780 H   0  0  0  0  0  0  0  0  0  0  0  0
   60.8310   31.1526   45.8446 H   0  0  0  0  0  0  0  0  0  0  0  0
   61.2307   31.9715   48.2311 H   0  0  0  0  0  0  0  0  0  0  0  0
   61.9211   30.3170   48.5433 H   0  0  0  0  0  0  0  0  0  0  0  0
   63.8651   30.8486   47.5783 H   0  0  0  0  0  0  0  0  0  0  0  0
   63.0126   31.5131   46.1178 H   0  0  0  0  0  0  0  0  0  0  0  0
   64.0141   32.9245   48.5824 H   0  0  0  0  0  0  0  0  0  0  0  0
   64.0578   33.3994   46.8157 H   0  0  0  0  0  0  0  0  0  0  0  0
   62.5103   34.9007   47.4551 H   0  0  0  0  0  0  0  0  0  0  0  0
   61.4089   33.4405   47.2796 H   0  0  0  0  0  0  0  0  0  0  0  0
   62.0754   33.1537   49.8479 H   0  0  0  0  0  0  0  0  0  0  0  0
   62.2280   34.9624   49.6934 H   0  0  0  0  0  0  0  0  0  0  0  0
   59.8939   33.6467   50.2860 H   0  0  0  0  0  0  0  0  0  0  0  0
   60.0081   35.2739   49.5104 H   0  0  0  0  0  0  0  0  0  0  0  0
   60.2755   33.1162   47.5443 H   0  0  0  0  0  0  0  0  0  0  0  0
   58.7274   33.0027   48.4748 H   0  0  0  0  0  0  0  0  0  0  0  0
   57.8723   34.6164   47.1787 H   0  0  0  0  0  0  0  0  0  0  0  0
   59.1201   35.7485   47.8563 H   0  0  0  0  0  0  0  0  0  0  0  0
   59.6685   35.9828   45.6570 H   0  0  0  0  0  0  0  0  0  0  0  0
   60.6124   34.4602   46.0145 H   0  0  0  0  0  0  0  0  0  0  0  0
   58.3941   34.9083   44.1584 H   0  0  0  0  0  0  0  0  0  0  0  0
   59.6033   33.5358   44.3106 H   0  0  0  0  0  0  0  0  0  0  0  0
   58.0322   32.8629   46.3334 H   0  0  0  0  0  0  0  0  0  0  0  0
   56.8135   33.7787   45.3358 H   0  0  0  0  0  0  0  0  0  0  0  0
   57.4605   32.3305   43.3779 H   0  0  0  0  0  0  0  0  0  0  0  0
   58.4273   31.3281   44.5092 H   0  0  0  0  0  0  0  0  0  0  0  0
   57.3452   29.0645   42.9706 H   0  0  0  0  0  0  0  0  0  0  0  0
   55.6682   29.2085   42.3434 H   0  0  0  0  0  0  0  0  0  0  0  0
   56.7531   30.6401   42.3434 H   0  0  0  0  0  0  0  0  0  0  0  0
  1  2  1  0
  2  3  1  0
  3  4  1  0
  4  5  1  0
  5  6  1  0
  6  7  1  0
  7  8  1  0
  8  9  1  0
  9 10  1  0
 10 11  1  0
 11 12  1  0
 12 13  1  0
 13 14  1  0
 14 15  1  0
 15 16  1  0
 16 17  1  0
 16 18  2  0
  1 19  1  0
  1 20  1  0
  1 21  1  0
  2 22  1  0
  2 23  1  0
  3 24  1  0
  3 25  1  0
  4 26  1  0
  4 27  1  0
  5 28  1  0
  5 29  1  0
  6 30  1  0
  6 31  1  0
  7 32  1  0
  7 33  1  0
  8 34  1  0
  8 35  1  0
  9 36  1  0
  9 37  1  0
 10 38  1  0
 10 39  1  0
 11 40  1  0
 11 41  1  0
 12 42  1  0
 12 43  1  0
 13 44  1  0
 13 45  1  0
 14 46  1  0
 14 47  1  0
 17 48  1  0
 17 49  1  0
 17 50  1  0
M  END
>  <UniqueID>  (11) 
11

>  <SMILES>  (11) 
CCCCCCCCCCCCCCOC(C)=O

>  <Energy>  (11) 
20.29684902150333

>  <Genealogy>  (11) 
CCCCCCCCCCCCCCOC(C)=O (3D coordinates assigned)
CCCCCCCCCCCCCCOC(C)=O (optimized conformer: 20.29684902150333 kcal/mol)

>  <smiles>  (11) 
CCCCCCCCCCCCCCOC(C)=O

>  <score_type>  (11) 
oracle

>  <origin>  (11) 
adg

>  <m_score__min__energy>  (11) 
-6.0099999999999998

>  <m_primary>  (11) 
energy

$$$$
11:0
     RDKit          3D

 47 48  0  0  0  0  0  0  0  0999 V2000
   57.9600   32.0920   42.8110 C   0  0  0  0  0  0  0  0  0  0  0  0
   57.4710   31.7480   44.1570 N   0  0  0  0  0  0  0  0  0  0  0  0
   56.3020   30.8360   44.0670 C   0  0  0  0  0  0  0  0  0  0  0  0
   56.6280   29.5730   43.2490 C   0  0  0  0  0  0  0  0  0  0  0  0
   57.4810   28.5240   43.9960 C   0  0  0  0  0  0  0  0  0  0  0  0
   58.6410   29.0950   44.7260 N   0  0  2  0  0  0  0  0  0  0  0  0
   59.8760   28.3190   44.4960 C   0  0  0  0  0  0  0  0  0  0  0  0
   58.3530   29.2440   46.1760 C   0  0  0  0  0  0  0  0  0  0  0  0
   59.5260   29.7630   46.9840 C   0  0  0  0  0  0  0  0  0  0  0  0
   60.5080   30.5660   46.3810 C   0  0  0  0  0  0  0  0  0  0  0  0
   61.5780   31.0390   47.1450 C   0  0  0  0  0  0  0  0  0  0  0  0
   61.6700   30.7150   48.4620 N   0  0  0  0  0  0  0  0  0  0  0  0
   60.7410   29.9320   49.0710 C   0  0  0  0  0  0  0  0  0  0  0  0
   59.6550   29.4400   48.3440 C   0  0  0  0  0  0  0  0  0  0  0  0
   57.1600   32.9890   44.9040 C   0  0  0  0  0  0  0  0  0  0  0  0
   58.2040   33.2640   45.9520 C   0  0  0  0  0  0  0  0  0  0  0  0
   59.3880   33.9450   45.6220 C   0  0  0  0  0  0  0  0  0  0  0  0
   60.3380   34.2230   46.6100 C   0  0  0  0  0  0  0  0  0  0  0  0
   60.1140   33.8250   47.9320 C   0  0  0  0  0  0  0  0  0  0  0  0
   61.4080   34.2150   49.2810 Br  0  0  0  0  0  0  0  0  0  0  0  0
   58.9390   33.1420   48.2660 C   0  0  0  0  0  0  0  0  0  0  0  0
   57.9890   32.8600   47.2800 C   0  0  0  0  0  0  0  0  0  0  0  0
   58.8569   32.7230   42.8969 H   0  0  0  0  0  0  0  0  0  0  0  0
   58.2109   31.1704   42.2654 H   0  0  0  0  0  0  0  0  0  0  0  0
   57.1774   32.6396   42.2654 H   0  0  0  0  0  0  0  0  0  0  0  0
   56.0045   30.5362   45.0827 H   0  0  0  0  0  0  0  0  0  0  0  0
   55.4863   31.3724   43.5600 H   0  0  0  0  0  0  0  0  0  0  0  0
   55.6792   29.0988   42.9576 H   0  0  0  0  0  0  0  0  0  0  0  0
   57.2270   29.9056   42.3885 H   0  0  0  0  0  0  0  0  0  0  0  0
   56.8359   28.0077   44.7222 H   0  0  0  0  0  0  0  0  0  0  0  0
   57.8892   27.8451   43.2328 H   0  0  0  0  0  0  0  0  0  0  0  0
   58.8160   30.0650   44.3740 H   0  0  0  0  0  0  0  0  0  0  0  0
   60.3195   28.0404   45.4633 H   0  0  0  0  0  0  0  0  0  0  0  0
   59.6364   27.4088   43.9267 H   0  0  0  0  0  0  0  0  0  0  0  0
   60.5921   28.9298   43.9267 H   0  0  0  0  0  0  0  0  0  0  0  0
   57.5143   29.9462   46.2924 H   0  0  0  0  0  0  0  0  0  0  0  0
   58.1191   28.2402   46.5604 H   0  0  0  0  0  0  0  0  0  0  0  0
   60.4351   30.8210   45.3135 H   0  0  0  0  0  0  0  0  0  0  0  0
   62.3466   31.6741   46.6804 H   0  0  0  0  0  0  0  0  0  0  0  0
   60.8447   29.6855   50.1380 H   0  0  0  0  0  0  0  0  0  0  0  0
   58.9045   28.8027   48.8345 H   0  0  0  0  0  0  0  0  0  0  0  0
   57.1259   33.8335   44.2000 H   0  0  0  0  0  0  0  0  0  0  0  0
   56.1877   32.8633   45.4027 H   0  0  0  0  0  0  0  0  0  0  0  0
   59.5682   34.2603   44.5837 H   0  0  0  0  0  0  0  0  0  0  0  0
   61.2636   34.7559   46.3468 H   0  0  0  0  0  0  0  0  0  0  0  0
   58.7629   32.8269   49.3051 H   0  0  0  0  0  0  0  0  0  0  0  0
   57.0687   32.3191   47.5454 H   0  0  0  0  0  0  0  0  0  0  0  0
  1  2  1  0
  2  3  1  0
  3  4  1  0
  4  5  1  0
  5  6  1  0
  6  7  1  0
  6  8  1  0
  8  9  1  0
  9 10  2  0
 10 11  1  0
 11 12  2  0
 12 13  1  0
 13 14  2  0
  2 15  1  0
 15 16  1  0
 16 17  2  0
 17 18  1  0
 18 19  2  0
 19 20  1  0
 19 21  1  0
 21 22  2  0
 14  9  1  0
 22 16  1  0
  1 23  1  0
  1 24  1  0
  1 25  1  0
  3 26  1  0
  3 27  1  0
  4 28  1  0
  4 29  1  0
  5 30  1  0
  5 31  1  0
  6 32  1  6
  7 33  1  0
  7 34  1  0
  7 35  1  0
  8 36  1  0
  8 37  1  0
 10 38  1  0
 11 39  1  0
 13 40  1  0
 14 41  1  0
 15 42  1  0
 15 43  1  0
 17 44  1  0
 18 45  1  0
 21 46  1  0
 22 47  1  0
M  CHG  1   6   1
M  END
>  <UniqueID>  (12) 
12

>  <SMILES>  (12) 
CN(CCC[N@H+](C)Cc1ccncc1)Cc1ccc(Br)cc1

>  <Energy>  (12) 
50.28631753431393

>  <Genealogy>  (12) 
CN(CCC[NH+](C)Cc1ccncc1)Cc1ccc(Br)cc1 (protonated)
CN(CCC[N@H+](C)Cc1ccncc1)Cc1ccc(Br)cc1 (chirality)
CN(CCC[N@H+](C)Cc1ccncc1)Cc1ccc(Br)cc1 (3D coordinates assigned)
CN(CCC[N@H+](C)Cc1ccncc1)Cc1ccc(Br)cc1 (optimized conformer: 50.28631753431393 kcal/mol)

>  <smiles>  (12) 
CN(CCCN(C)Cc1ccc(Br)cc1)Cc1ccncc1

>  <score_type>  (12) 
oracle

>  <origin>  (12) 
adg

>  <m_score__min__energy>  (12) 
-5.4500000000000002

>  <m_primary>  (12) 
energy

$$$$
12:0
     RDKit          3D

 36 38  0  0  0  0  0  0  0  0999 V2000
   57.9076   34.0077   47.8776 H   0  0  0  0  0  0  0  0  0  0  0  0
   58.0990   33.8710   46.8030 C   0  0  0  0  0  0  0  0  0  0  0  0
   57.4940   32.8140   46.1160 C   0  0  0  0  0  0  0  0  0  0  0  0
   56.8306   32.1207   46.6539 H   0  0  0  0  0  0  0  0  0  0  0  0
   57.7290   32.6320   44.7400 C   0  0  0  0  0  0  0  0  0  0  0  0
   57.0760   31.5220   43.9970 C   0  0  0  0  0  0  0  0  0  0  0  0
   57.2310   31.4280   42.7510 O   0  0  0  0  0  0  0  0  0  0  0  0
   56.3320   30.5020   44.6780 N   0  0  0  0  0  0  0  0  0  0  0  0
   56.7730   29.3790   45.1780 C   0  0  0  0  0  0  0  0  0  0  0  0
   55.9000   28.3380   45.2640 N   0  0  0  0  0  0  0  0  0  0  0  0
   56.2690   27.1290   45.7520 C   0  0  0  0  0  0  0  0  0  0  0  0
   55.3750   26.1070   45.8150 N   0  0  0  0  0  0  0  0  0  0  0  0
   55.7260   24.8790   46.2960 C   0  0  0  0  0  0  0  0  0  0  0  0
   54.7930   23.8400   46.3530 O   0  0  0  0  0  0  0  0  0  0  0  0
   53.5240   23.9090   45.7130 C   0  0  0  0  0  0  0  0  0  0  0  0
   52.7312   23.9521   46.4744 H   0  0  0  0  0  0  0  0  0  0  0  0
   53.4786   24.8109   45.0849 H   0  0  0  0  0  0  0  0  0  0  0  0
   53.3811   23.0173   45.0849 H   0  0  0  0  0  0  0  0  0  0  0  0
   57.0350   24.6530   46.7390 C   0  0  0  0  0  0  0  0  0  0  0  0
   57.3245   23.6654   47.1275 H   0  0  0  0  0  0  0  0  0  0  0  0
   57.9720   25.6890   46.6850 C   0  0  0  0  0  0  0  0  0  0  0  0
   59.0029   25.5227   47.0307 H   0  0  0  0  0  0  0  0  0  0  0  0
   57.5890   26.9360   46.1890 C   0  0  0  0  0  0  0  0  0  0  0  0
   58.4660   27.9690   46.1310 N   0  0  0  0  0  0  0  0  0  0  0  0
   58.1010   29.1910   45.6500 C   0  0  0  0  0  0  0  0  0  0  0  0
   59.0280   30.2390   45.6580 O   0  0  0  0  0  0  0  0  0  0  0  0
   60.2950   30.1500   46.2970 C   0  0  0  0  0  0  0  0  0  0  0  0
   60.1568   30.1597   47.3882 H   0  0  0  0  0  0  0  0  0  0  0  0
   60.7913   29.2148   45.9986 H   0  0  0  0  0  0  0  0  0  0  0  0
   60.9172   31.0067   45.9986 H   0  0  0  0  0  0  0  0  0  0  0  0
   58.5890   33.5220   44.0730 C   0  0  0  0  0  0  0  0  0  0  0  0
   58.7897   33.3866   43.0000 H   0  0  0  0  0  0  0  0  0  0  0  0
   59.1910   34.5780   44.7640 C   0  0  0  0  0  0  0  0  0  0  0  0
   59.8590   35.2720   44.2329 H   0  0  0  0  0  0  0  0  0  0  0  0
   58.9450   34.7530   46.1290 C   0  0  0  0  0  0  0  0  0  0  0  0
   59.5290   35.7780   46.7960 F   0  0  0  0  0  0  0  0  0  0  0  0
  1  2  1  0
  2  3  2  0
  3  4  1  0
  3  5  1  0
  5  6  1  0
  6  7  2  0
  6  8  1  0
  8  9  2  0
  9 10  1  0
 10 11  1  0
 11 12  2  0
 12 13  1  0
 13 14  1  0
 14 15  1  0
 15 16  1  0
 15 17  1  0
 15 18  1  0
 13 19  2  0
 19 20  1  0
 19 21  1  0
 21 22  1  0
 21 23  2  0
 23 24  1  0
 24 25  2  0
 25 26  1  0
 26 27  1  0
 27 28  1  0
 27 29  1  0
 27 30  1  0
  5 31  2  0
 31 32  1  0
 31 33  1  0
 33 34  1  0
 33 35  2  0
 35 36  1  0
 35  2  1  0
 25  9  1  0
 23 11  1  0
M  CHG  1  10  -1
M  END
>  <UniqueID>  (13) 
13

>  <SMILES>  (13) 
COc1ccc2nc(OC)/c(=N\C(=O)c3ccc(F)cc3)[n-]c2n1

>  <Energy>  (13) 
51.78490475958422

>  <Genealogy>  (13) 
COc1ccc2nc(OC)c(=NC(=O)c3ccc(F)cc3)[n-]c2n1 (protonated)
COc1ccc2nc(OC)/c(=N\C(=O)c3ccc(F)cc3)[n-]c2n1 (cis-trans isomerization)
COc1ccc2nc(OC)/c(=N\C(=O)c3ccc(F)cc3)[n-]c2n1 (3D coordinates assigned)
COc1ccc2nc(OC)/c(=N\C(=O)c3ccc(F)cc3)[n-]c2n1 (optimized conformer: 51.78490475958422 kcal/mol)

>  <smiles>  (13) 
COc1ccc2nc(OC)c(=NC(=O)c3ccc(F)cc3)[nH]c2n1

>  <score_type>  (13) 
oracle

>  <origin>  (13) 
adg

>  <m_score__min__energy>  (13) 
-9.1799999999999997

>  <m_primary>  (13) 
energy

$$$$
13:0
     RDKit          3D

 55 57  0  0  0  0  0  0  0  0999 V2000
   59.2320   32.6190   50.8060 C   0  0  0  0  0  0  0  0  0  0  0  0
   58.6110   31.3940   50.2770 N   0  0  0  0  0  0  0  0  0  0  0  0
   57.6230   30.8550   51.2260 C   0  0  0  0  0  0  0  0  0  0  0  0
   59.6100   30.3840   49.8610 C   0  0  0  0  0  0  0  0  0  0  0  0
   59.5700   30.0620   48.3820 C   0  0  0  0  0  0  0  0  0  0  0  0
   60.3970   29.0580   47.8550 C   0  0  0  0  0  0  0  0  0  0  0  0
   60.3270   28.7540   46.4970 C   0  0  0  0  0  0  0  0  0  0  0  0
   59.4410   29.4470   45.6750 C   0  0  0  0  0  0  0  0  0  0  0  0
   58.6380   30.4570   46.2210 C   0  0  0  0  0  0  0  0  0  0  0  0
   57.6570   31.1860   45.3440 C   0  0  0  0  0  0  0  0  0  0  0  0
   58.3110   32.3780   44.7500 N   0  0  0  0  0  0  0  0  0  0  0  0
   58.1430   32.3440   43.2810 C   0  0  0  0  0  0  0  0  0  0  0  0
   57.8010   33.6380   45.3630 C   0  0  2  0  0  0  0  0  0  0  0  0
   58.5300   34.9220   44.8710 C   0  0  0  0  0  0  0  0  0  0  0  0
   59.6650   35.1950   45.8660 C   0  0  0  0  0  0  0  0  0  0  0  0
   59.2690   34.5170   47.0830 N   0  0  0  0  0  0  0  0  0  0  0  0
   60.0270   34.5390   48.3320 C   0  0  0  0  0  0  0  0  0  0  0  0
   61.2550   33.6790   48.2090 C   0  0  0  0  0  0  0  0  0  0  0  0
   61.3230   32.6880   47.2170 C   0  0  0  0  0  0  0  0  0  0  0  0
   62.4460   31.8590   47.1240 C   0  0  0  0  0  0  0  0  0  0  0  0
   63.5060   32.0140   48.0200 C   0  0  0  0  0  0  0  0  0  0  0  0
   63.4440   32.9930   49.0170 C   0  0  0  0  0  0  0  0  0  0  0  0
   64.7630   33.1660   50.1590 Cl  0  0  0  0  0  0  0  0  0  0  0  0
   62.3210   33.8230   49.1130 C   0  0  0  0  0  0  0  0  0  0  0  0
   58.1640   33.6750   46.8120 C   0  0  0  0  0  0  0  0  0  0  0  0
   57.5400   33.0620   47.7190 O   0  0  0  0  0  0  0  0  0  0  0  0
   58.7210   30.7410   47.5540 N   0  0  0  0  0  0  0  0  0  0  0  0
   59.2182   32.5917   51.9056 H   0  0  0  0  0  0  0  0  0  0  0  0
   60.2721   32.6843   50.4539 H   0  0  0  0  0  0  0  0  0  0  0  0
   58.6699   33.4965   50.4539 H   0  0  0  0  0  0  0  0  0  0  0  0
   57.9638   31.0409   52.2552 H   0  0  0  0  0  0  0  0  0  0  0  0
   56.6533   31.3491   51.0659 H   0  0  0  0  0  0  0  0  0  0  0  0
   57.5136   29.7722   51.0659 H   0  0  0  0  0  0  0  0  0  0  0  0
   60.6122   30.7651   50.1065 H   0  0  0  0  0  0  0  0  0  0  0  0
   59.3711   29.4548   50.3990 H   0  0  0  0  0  0  0  0  0  0  0  0
   61.0952   28.5152   48.5091 H   0  0  0  0  0  0  0  0  0  0  0  0
   60.9703   27.9680   46.0746 H   0  0  0  0  0  0  0  0  0  0  0  0
   59.3724   29.2029   44.6046 H   0  0  0  0  0  0  0  0  0  0  0  0
   57.3166   30.5165   44.5403 H   0  0  0  0  0  0  0  0  0  0  0  0
   56.7944   31.5051   45.9474 H   0  0  0  0  0  0  0  0  0  0  0  0
   57.0917   32.1313   43.0370 H   0  0  0  0  0  0  0  0  0  0  0  0
   58.4280   33.3180   42.8567 H   0  0  0  0  0  0  0  0  0  0  0  0
   58.7843   31.5574   42.8567 H   0  0  0  0  0  0  0  0  0  0  0  0
   56.7290   33.6331   45.1162 H   0  0  0  0  0  0  0  0  0  0  0  0
   58.9402   34.7620   43.8630 H   0  0  0  0  0  0  0  0  0  0  0  0
   57.8367   35.7745   44.8189 H   0  0  0  0  0  0  0  0  0  0  0  0
   60.6153   34.7890   45.4891 H   0  0  0  0  0  0  0  0  0  0  0  0
   59.8235   36.2717   46.0262 H   0  0  0  0  0  0  0  0  0  0  0  0
   60.3283   35.5729   48.5561 H   0  0  0  0  0  0  0  0  0  0  0  0
   59.3946   34.1483   49.1428 H   0  0  0  0  0  0  0  0  0  0  0  0
   60.4898   32.5628   46.5099 H   0  0  0  0  0  0  0  0  0  0  0  0
   62.4942   31.0844   46.3445 H   0  0  0  0  0  0  0  0  0  0  0  0
   64.3909   31.3653   47.9415 H   0  0  0  0  0  0  0  0  0  0  0  0
   62.2728   34.5909   49.8991 H   0  0  0  0  0  0  0  0  0  0  0  0
   58.1160   31.4940   47.9540 H   0  0  0  0  0  0  0  0  0  0  0  0
  1  2  1  0
  2  3  1  0
  2  4  1  0
  4  5  1  0
  5  6  2  0
  6  7  1  0
  7  8  2  0
  8  9  1  0
  9 10  1  0
 10 11  1  0
 11 12  1  0
 11 13  1  0
 13 14  1  0
 14 15  1  0
 15 16  1  0
 16 17  1  0
 17 18  1  0
 18 19  2  0
 19 20  1  0
 20 21  2  0
 21 22  1  0
 22 23  1  0
 22 24  2  0
 16 25  1  0
 25 26  2  0
  9 27  2  0
 27  5  1  0
 25 13  1  0
 24 18  1  0
  1 28  1  0
  1 29  1  0
  1 30  1  0
  3 31  1  0
  3 32  1  0
  3 33  1  0
  4 34  1  0
  4 35  1  0
  6 36  1  0
  7 37  1  0
  8 38  1  0
 10 39  1  0
 10 40  1  0
 12 41  1  0
 12 42  1  0
 12 43  1  0
 13 44  1  1
 14 45  1  0
 14 46  1  0
 15 47  1  0
 15 48  1  0
 17 49  1  0
 17 50  1  0
 19 51  1  0
 20 52  1  0
 21 53  1  0
 24 54  1  0
 27 55  1  0
M  CHG  1  27   1
M  END
>  <UniqueID>  (14) 
14

>  <SMILES>  (14) 
CN(C)Cc1cccc(CN(C)[C@@H]2CCN(Cc3cccc(Cl)c3)C2=O)[nH+]1

>  <Energy>  (14) 
66.95149298218284

>  <Genealogy>  (14) 
CN(C)Cc1cccc(CN(C)C2CCN(Cc3cccc(Cl)c3)C2=O)[nH+]1 (protonated)
CN(C)Cc1cccc(CN(C)[C@@H]2CCN(Cc3cccc(Cl)c3)C2=O)[nH+]1 (chirality)
CN(C)Cc1cccc(CN(C)[C@@H]2CCN(Cc3cccc(Cl)c3)C2=O)[nH+]1 (3D coordinates assigned)
CN(C)Cc1cccc(CN(C)[C@@H]2CCN(Cc3cccc(Cl)c3)C2=O)[nH+]1 (nonaromatic ring conformer: 66.95149298218284 kcal/mol)

>  <smiles>  (14) 
CN(C)Cc1cccc(CN(C)C2CCN(Cc3cccc(Cl)c3)C2=O)n1

>  <score_type>  (14) 
oracle

>  <origin>  (14) 
adg

>  <m_score__min__energy>  (14) 
-5.9400000000000004

>  <m_primary>  (14) 
energy

$$$$
14:0
     RDKit          3D

 41 42  0  0  0  0  0  0  0  0999 V2000
   63.6780   33.8210   47.2130 C   0  0  0  0  0  0  0  0  0  0  0  0
   63.0590   33.2990   48.3840 O   0  0  0  0  0  0  0  0  0  0  0  0
   62.0600   32.3130   48.3810 C   0  0  0  0  0  0  0  0  0  0  0  0
   61.2710   32.1640   49.5290 C   0  0  0  0  0  0  0  0  0  0  0  0
   60.2620   31.1990   49.5790 C   0  0  0  0  0  0  0  0  0  0  0  0
   60.0300   30.3680   48.4790 C   0  0  0  0  0  0  0  0  0  0  0  0
   59.0620   29.4580   48.5280 O   0  0  0  0  0  0  0  0  0  0  0  0
   58.7950   28.6340   47.5180 C   0  0  0  0  0  0  0  0  0  0  0  0
   57.8430   27.8180   47.6350 O   0  0  0  0  0  0  0  0  0  0  0  0
   59.5630   28.6810   46.3340 C   0  0  0  0  0  0  0  0  0  0  0  0
   59.2720   27.7770   45.1470 C   0  0  0  0  0  0  0  0  0  0  0  0
   57.8100   27.6580   44.8520 N   0  0  0  0  0  0  0  0  0  0  0  0
   57.4230   28.4630   43.6630 C   0  0  0  0  0  0  0  0  0  0  0  0
   56.2700   29.4390   43.9490 C   0  0  0  0  0  0  0  0  0  0  0  0
   55.5800   29.0460   45.1040 O   0  0  0  0  0  0  0  0  0  0  0  0
   57.4450   26.2330   44.6160 C   0  0  0  0  0  0  0  0  0  0  0  0
   56.4280   25.7020   45.6420 C   0  0  0  0  0  0  0  0  0  0  0  0
   55.5260   26.7120   46.0090 O   0  0  0  0  0  0  0  0  0  0  0  0
   60.5650   29.6580   46.2380 C   0  0  0  0  0  0  0  0  0  0  0  0
   60.8180   30.5040   47.3200 C   0  0  0  0  0  0  0  0  0  0  0  0
   61.8290   31.4770   47.2700 C   0  0  0  0  0  0  0  0  0  0  0  0
   64.4895   34.5053   47.5013 H   0  0  0  0  0  0  0  0  0  0  0  0
   64.0904   32.9939   46.6165 H   0  0  0  0  0  0  0  0  0  0  0  0
   62.9324   34.3671   46.6165 H   0  0  0  0  0  0  0  0  0  0  0  0
   61.4476   32.8130   50.3994 H   0  0  0  0  0  0  0  0  0  0  0  0
   59.6487   31.0928   50.4860 H   0  0  0  0  0  0  0  0  0  0  0  0
   59.7769   28.1881   44.2604 H   0  0  0  0  0  0  0  0  0  0  0  0
   59.6415   26.7719   45.3984 H   0  0  0  0  0  0  0  0  0  0  0  0
   57.2360   28.0060   45.6540 H   0  0  0  0  0  0  0  0  0  0  0  0
   58.2979   29.0413   43.3311 H   0  0  0  0  0  0  0  0  0  0  0  0
   57.0771   27.7621   42.8890 H   0  0  0  0  0  0  0  0  0  0  0  0
   56.6775   30.4502   44.0953 H   0  0  0  0  0  0  0  0  0  0  0  0
   55.5753   29.4345   43.0962 H   0  0  0  0  0  0  0  0  0  0  0  0
   55.1450   28.1780   44.8960 H   0  0  0  0  0  0  0  0  0  0  0  0
   57.0093   26.1434   43.6100 H   0  0  0  0  0  0  0  0  0  0  0  0
   58.3622   25.6342   44.7172 H   0  0  0  0  0  0  0  0  0  0  0  0
   55.8712   24.8632   45.1988 H   0  0  0  0  0  0  0  0  0  0  0  0
   56.9699   25.3665   46.5386 H   0  0  0  0  0  0  0  0  0  0  0  0
   56.0440   27.4030   46.4970 H   0  0  0  0  0  0  0  0  0  0  0  0
   61.1505   29.7576   45.3121 H   0  0  0  0  0  0  0  0  0  0  0  0
   62.4414   31.5870   46.3629 H   0  0  0  0  0  0  0  0  0  0  0  0
  1  2  1  0
  2  3  1  0
  3  4  2  0
  4  5  1  0
  5  6  2  0
  6  7  1  0
  7  8  1  0
  8  9  2  0
  8 10  1  0
 10 11  1  0
 11 12  1  0
 12 13  1  0
 13 14  1  0
 14 15  1  0
 12 16  1  0
 16 17  1  0
 17 18  1  0
 10 19  2  0
 19 20  1  0
 20 21  2  0
 21  3  1  0
 20  6  1  0
  1 22  1  0
  1 23  1  0
  1 24  1  0
  4 25  1  0
  5 26  1  0
 11 27  1  0
 11 28  1  0
 12 29  1  0
 13 30  1  0
 13 31  1  0
 14 32  1  0
 14 33  1  0
 15 34  1  0
 16 35  1  0
 16 36  1  0
 17 37  1  0
 17 38  1  0
 18 39  1  0
 19 40  1  0
 21 41  1  0
M  CHG  1  12   1
M  END
>  <UniqueID>  (15) 
15

>  <SMILES>  (15) 
COc1ccc2oc(=O)c(C[NH+](CCO)CCO)cc2c1

>  <Energy>  (15) 
49.8428054841167

>  <Genealogy>  (15) 
COc1ccc2oc(=O)c(C[NH+](CCO)CCO)cc2c1 (protonated)
COc1ccc2oc(=O)c(C[NH+](CCO)CCO)cc2c1 (3D coordinates assigned)
COc1ccc2oc(=O)c(C[NH+](CCO)CCO)cc2c1 (optimized conformer: 49.8428054841167 kcal/mol)

>  <smiles>  (15) 
COc1ccc2oc(=O)c(CN(CCO)CCO)cc2c1

>  <score_type>  (15) 
oracle

>  <origin>  (15) 
adg

>  <m_score__min__energy>  (15) 
-5.6100000000000003

>  <m_primary>  (15) 
energy

$$$$
15:0
     RDKit          3D

 66 69  0  0  0  0  0  0  0  0999 V2000
   59.4450   29.0590   48.5260 C   0  0  0  0  0  0  0  0  0  0  0  0
   59.6430   30.4360   47.8900 C   0  0  0  0  0  0  0  0  0  0  0  0
   58.4610   30.9430   47.2560 O   0  0  0  0  0  0  0  0  0  0  0  0
   58.4010   31.7550   46.1080 C   0  0  0  0  0  0  0  0  0  0  0  0
   58.5980   33.1660   46.1270 C   0  0  0  0  0  0  0  0  0  0  0  0
   59.0960   33.9300   47.3450 C   0  0  0  0  0  0  0  0  0  0  0  0
   60.4870   33.6040   47.7390 N   0  0  0  0  0  0  0  0  0  0  0  0
   60.9030   34.2450   48.9990 C   0  0  0  0  0  0  0  0  0  0  0  0
   62.2830   33.7160   49.4460 C   0  0  0  0  0  0  0  0  0  0  0  0
   62.8490   32.7820   48.4520 N   0  0  0  0  0  0  0  0  0  0  0  0
   64.2020   32.3670   48.8550 C   0  0  0  0  0  0  0  0  0  0  0  0
   62.8850   33.4100   47.1170 C   0  0  0  0  0  0  0  0  0  0  0  0
   61.4750   33.8510   46.6720 C   0  0  0  0  0  0  0  0  0  0  0  0
   58.4280   33.8910   44.9320 C   0  0  0  0  0  0  0  0  0  0  0  0
   58.1440   33.2410   43.7340 C   0  0  0  0  0  0  0  0  0  0  0  0
   58.0550   31.8540   43.6980 C   0  0  0  0  0  0  0  0  0  0  0  0
   58.1900   31.1080   44.8730 C   0  0  0  0  0  0  0  0  0  0  0  0
   58.1790   29.6730   44.8020 N   0  0  0  0  0  0  0  0  0  0  0  0
   59.4540   28.9510   44.7110 C   0  0  0  0  0  0  0  0  0  0  0  0
   59.2520   27.4590   44.9920 C   0  0  0  0  0  0  0  0  0  0  0  0
   58.2470   27.3110   46.0570 N   0  0  0  0  0  0  0  0  0  0  0  0
   58.2760   25.9900   46.7230 C   0  0  0  0  0  0  0  0  0  0  0  0
   57.9660   24.8270   45.8010 C   0  0  0  0  0  0  0  0  0  0  0  0
   56.7410   24.7650   45.1160 C   0  0  0  0  0  0  0  0  0  0  0  0
   56.4610   23.6920   44.2630 C   0  0  0  0  0  0  0  0  0  0  0  0
   57.4080   22.6790   44.0760 C   0  0  0  0  0  0  0  0  0  0  0  0
   57.0570   21.3360   43.0050 Cl  0  0  0  0  0  0  0  0  0  0  0  0
   58.6360   22.7410   44.7440 C   0  0  0  0  0  0  0  0  0  0  0  0
   58.9170   23.8110   45.5990 C   0  0  0  0  0  0  0  0  0  0  0  0
   56.8920   27.7180   45.6180 C   0  0  0  0  0  0  0  0  0  0  0  0
   56.9160   28.9410   44.6760 C   0  0  0  0  0  0  0  0  0  0  0  0
   59.4589   29.1557   49.6217 H   0  0  0  0  0  0  0  0  0  0  0  0
   58.4778   28.6433   48.2069 H   0  0  0  0  0  0  0  0  0  0  0  0
   60.2559   28.3877   48.2069 H   0  0  0  0  0  0  0  0  0  0  0  0
   59.9484   31.1428   48.6756 H   0  0  0  0  0  0  0  0  0  0  0  0
   60.4103   30.3271   47.1094 H   0  0  0  0  0  0  0  0  0  0  0  0
   59.0435   35.0060   47.1226 H   0  0  0  0  0  0  0  0  0  0  0  0
   58.4518   33.6373   48.1872 H   0  0  0  0  0  0  0  0  0  0  0  0
   60.9639   35.3330   48.8486 H   0  0  0  0  0  0  0  0  0  0  0  0
   60.1630   34.0103   49.7783 H   0  0  0  0  0  0  0  0  0  0  0  0
   62.9696   34.5665   49.5697 H   0  0  0  0  0  0  0  0  0  0  0  0
   62.1560   33.1760   50.3959 H   0  0  0  0  0  0  0  0  0  0  0  0
   64.2676   32.3469   49.9529 H   0  0  0  0  0  0  0  0  0  0  0  0
   64.4115   31.3633   48.4567 H   0  0  0  0  0  0  0  0  0  0  0  0
   64.9383   33.0806   48.4567 H   0  0  0  0  0  0  0  0  0  0  0  0
   63.5425   34.2911   47.1522 H   0  0  0  0  0  0  0  0  0  0  0  0
   63.2646   32.6727   46.3943 H   0  0  0  0  0  0  0  0  0  0  0  0
   61.4908   34.9255   46.4370 H   0  0  0  0  0  0  0  0  0  0  0  0
   61.1876   33.2686   45.7842 H   0  0  0  0  0  0  0  0  0  0  0  0
   58.5209   34.9870   44.9451 H   0  0  0  0  0  0  0  0  0  0  0  0
   57.9899   33.8255   42.8150 H   0  0  0  0  0  0  0  0  0  0  0  0
   57.8776   31.3413   42.7411 H   0  0  0  0  0  0  0  0  0  0  0  0
   59.8680   29.0752   43.6995 H   0  0  0  0  0  0  0  0  0  0  0  0
   60.1473   29.3614   45.4599 H   0  0  0  0  0  0  0  0  0  0  0  0
   58.9013   26.9547   44.0795 H   0  0  0  0  0  0  0  0  0  0  0  0
   60.2028   27.0052   45.3084 H   0  0  0  0  0  0  0  0  0  0  0  0
   59.2800   25.8379   47.1459 H   0  0  0  0  0  0  0  0  0  0  0  0
   57.4898   26.0043   47.4922 H   0  0  0  0  0  0  0  0  0  0  0  0
   55.9978   25.5646   45.2511 H   0  0  0  0  0  0  0  0  0  0  0  0
   55.4952   23.6446   43.7387 H   0  0  0  0  0  0  0  0  0  0  0  0
   59.3819   21.9462   44.5961 H   0  0  0  0  0  0  0  0  0  0  0  0
   59.8867   23.8583   46.1162 H   0  0  0  0  0  0  0  0  0  0  0  0
   56.4249   26.8745   45.0885 H   0  0  0  0  0  0  0  0  0  0  0  0
   56.3214   27.9995   46.5153 H   0  0  0  0  0  0  0  0  0  0  0  0
   56.8006   28.5979   43.6373 H   0  0  0  0  0  0  0  0  0  0  0  0
   56.0907   29.6137   44.9522 H   0  0  0  0  0  0  0  0  0  0  0  0
  1  2  1  0
  2  3  1  0
  3  4  1  0
  4  5  2  0
  5  6  1  0
  6  7  1  0
  7  8  1  0
  8  9  1  0
  9 10  1  0
 10 11  1  0
 10 12  1  0
 12 13  1  0
  5 14  1  0
 14 15  2  0
 15 16  1  0
 16 17  2  0
 17 18  1  0
 18 19  1  0
 19 20  1  0
 20 21  1  0
 21 22  1  0
 22 23  1  0
 23 24  2  0
 24 25  1  0
 25 26  2  0
 26 27  1  0
 26 28  1  0
 28 29  2  0
 21 30  1  0
 30 31  1  0
 17  4  1  0
 31 18  1  0
 13  7  1  0
 29 23  1  0
  1 32  1  0
  1 33  1  0
  1 34  1  0
  2 35  1  0
  2 36  1  0
  6 37  1  0
  6 38  1  0
  8 39  1  0
  8 40  1  0
  9 41  1  0
  9 42  1  0
 11 43  1  0
 11 44  1  0
 11 45  1  0
 12 46  1  0
 12 47  1  0
 13 48  1  0
 13 49  1  0
 14 50  1  0
 15 51  1  0
 16 52  1  0
 19 53  1  0
 19 54  1  0
 20 55  1  0
 20 56  1  0
 22 57  1  0
 22 58  1  0
 24 59  1  0
 25 60  1  0
 28 61  1  0
 29 62  1  0
 30 63  1  0
 30 64  1  0
 31 65  1  0
 31 66  1  0
M  END
>  <UniqueID>  (16) 
16

>  <SMILES>  (16) 
CCOc1c(CN2CCN(C)CC2)cccc1N1CCN(Cc2ccc(Cl)cc2)CC1

>  <Energy>  (16) 
99.7105373973822

>  <Genealogy>  (16) 
CCOc1c(CN2CCN(C)CC2)cccc1N1CCN(Cc2ccc(Cl)cc2)CC1 (3D coordinates assigned)
CCOc1c(CN2CCN(C)CC2)cccc1N1CCN(Cc2ccc(Cl)cc2)CC1 (nonaromatic ring conformer: 99.7105373973822 kcal/mol)

>  <smiles>  (16) 
CCOc1c(CN2CCN(C)CC2)cccc1N1CCN(Cc2ccc(Cl)cc2)CC1

>  <score_type>  (16) 
oracle

>  <origin>  (16) 
adg

>  <m_score__min__energy>  (16) 
-8.6699999999999999

>  <m_primary>  (16) 
energy

$$$$
16:0
     RDKit          3D

 44 47  0  0  0  0  0  0  0  0999 V2000
   55.5260   29.0110   44.8530 N   0  0  0  0  0  0  0  0  0  0  0  0
   55.9420   30.3300   44.3860 C   0  0  0  0  0  0  0  0  0  0  0  0
   57.4600   30.3850   44.1810 C   0  0  0  0  0  0  0  0  0  0  0  0
   58.1840   30.2210   45.4630 N   0  0  0  0  0  0  0  0  0  0  0  0
   58.7320   31.3190   46.0880 C   0  0  0  0  0  0  0  0  0  0  0  0
   58.5600   32.6430   45.5630 N   0  0  0  0  0  0  0  0  0  0  0  0
   59.5300   33.5650   45.4140 C   0  0  0  0  0  0  0  0  0  0  0  0
   58.9760   34.7540   44.9850 C   0  0  0  0  0  0  0  0  0  0  0  0
   57.6130   34.5440   44.8910 C   0  0  0  0  0  0  0  0  0  0  0  0
   57.3880   33.2360   45.2680 C   0  0  0  0  0  0  0  0  0  0  0  0
   59.4690   31.1680   47.2610 C   0  0  0  0  0  0  0  0  0  0  0  0
   59.6660   29.9040   47.8100 C   0  0  0  0  0  0  0  0  0  0  0  0
   60.3910   29.7770   49.0030 C   0  0  0  0  0  0  0  0  0  0  0  0
   60.5970   28.5230   49.5720 C   0  0  0  0  0  0  0  0  0  0  0  0
   60.0990   27.3830   48.9470 C   0  0  0  0  0  0  0  0  0  0  0  0
   59.3820   27.4780   47.7440 C   0  0  0  0  0  0  0  0  0  0  0  0
   58.9660   26.2080   47.1130 C   0  0  0  0  0  0  0  0  0  0  0  0
   59.8480   25.5180   46.2670 C   0  0  0  0  0  0  0  0  0  0  0  0
   59.4450   24.3270   45.6550 C   0  0  0  0  0  0  0  0  0  0  0  0
   58.1590   23.8250   45.8770 C   0  0  0  0  0  0  0  0  0  0  0  0
   57.2730   24.5140   46.7100 C   0  0  0  0  0  0  0  0  0  0  0  0
   57.6710   25.7060   47.3220 C   0  0  0  0  0  0  0  0  0  0  0  0
   59.1310   28.7620   47.1680 C   0  0  0  0  0  0  0  0  0  0  0  0
   58.3610   28.9600   45.9890 C   0  0  0  0  0  0  0  0  0  0  0  0
   57.8210   27.9720   45.4170 O   0  0  0  0  0  0  0  0  0  0  0  0
   55.8860   28.8800   45.8260 H   0  0  0  0  0  0  0  0  0  0  0  0
   56.0130   28.2970   44.2650 H   0  0  0  0  0  0  0  0  0  0  0  0
   55.4416   30.5481   43.4310 H   0  0  0  0  0  0  0  0  0  0  0  0
   55.6631   31.0754   45.1454 H   0  0  0  0  0  0  0  0  0  0  0  0
   57.7582   29.5780   43.4956 H   0  0  0  0  0  0  0  0  0  0  0  0
   57.7176   31.3684   43.7609 H   0  0  0  0  0  0  0  0  0  0  0  0
   60.6001   33.3963   45.6050 H   0  0  0  0  0  0  0  0  0  0  0  0
   59.5142   35.6869   44.7615 H   0  0  0  0  0  0  0  0  0  0  0  0
   56.8553   35.2769   44.5768 H   0  0  0  0  0  0  0  0  0  0  0  0
   56.4017   32.7517   45.3196 H   0  0  0  0  0  0  0  0  0  0  0  0
   59.8973   32.0522   47.7557 H   0  0  0  0  0  0  0  0  0  0  0  0
   60.7996   30.6733   49.4925 H   0  0  0  0  0  0  0  0  0  0  0  0
   61.1538   28.4330   50.5164 H   0  0  0  0  0  0  0  0  0  0  0  0
   60.2695   26.3959   49.4014 H   0  0  0  0  0  0  0  0  0  0  0  0
   60.8577   25.9146   46.0851 H   0  0  0  0  0  0  0  0  0  0  0  0
   60.1406   23.7843   44.9980 H   0  0  0  0  0  0  0  0  0  0  0  0
   57.8444   22.8872   45.3958 H   0  0  0  0  0  0  0  0  0  0  0  0
   56.2617   24.1179   46.8841 H   0  0  0  0  0  0  0  0  0  0  0  0
   56.9685   26.2521   47.9687 H   0  0  0  0  0  0  0  0  0  0  0  0
  1  2  1  0
  2  3  1  0
  3  4  1  0
  4  5  1  0
  5  6  1  0
  6  7  1  0
  7  8  2  0
  8  9  1  0
  9 10  2  0
  5 11  2  0
 11 12  1  0
 12 13  2  0
 13 14  1  0
 14 15  2  0
 15 16  1  0
 16 17  1  0
 17 18  2  0
 18 19  1  0
 19 20  2  0
 20 21  1  0
 21 22  2  0
 16 23  2  0
 23 24  1  0
 24 25  2  0
 24  4  1  0
 10  6  1  0
 23 12  1  0
 22 17  1  0
  1 26  1  0
  1 27  1  0
  2 28  1  0
  2 29  1  0
  3 30  1  0
  3 31  1  0
  7 32  1  0
  8 33  1  0
  9 34  1  0
 10 35  1  0
 11 36  1  0
 13 37  1  0
 14 38  1  0
 15 39  1  0
 18 40  1  0
 19 41  1  0
 20 42  1  0
 21 43  1  0
 22 44  1  0
M  END
>  <UniqueID>  (17) 
17

>  <SMILES>  (17) 
NCCn1c(-n2cccc2)cc2cccc(-c3ccccc3)c2c1=O

>  <Energy>  (17) 
97.61526161995853

>  <Genealogy>  (17) 
NCCn1c(-n2cccc2)cc2cccc(-c3ccccc3)c2c1=O (3D coordinates assigned)
NCCn1c(-n2cccc2)cc2cccc(-c3ccccc3)c2c1=O (optimized conformer: 97.61526161995853 kcal/mol)

>  <smiles>  (17) 
NCCn1c(-n2cccc2)cc2cccc(-c3ccccc3)c2c1=O

>  <score_type>  (17) 
oracle

>  <origin>  (17) 
adg

>  <m_score__min__energy>  (17) 
-7.8099999999999996

>  <m_primary>  (17) 
energy

$$$$
17:0
     RDKit          3D

 69 72  0  0  0  0  0  0  0  0999 V2000
   57.0500   25.6750   44.9130 O   0  0  0  0  0  0  0  0  0  0  0  0
   56.9830   26.5470   45.8200 C   0  0  0  0  0  0  0  0  0  0  0  0
   57.8790   26.4200   47.0200 C   0  0  0  0  0  0  0  0  0  0  0  0
   58.8920   27.5330   47.0240 C   0  0  0  0  0  0  0  0  0  0  0  0
   59.8170   27.6500   45.9770 C   0  0  0  0  0  0  0  0  0  0  0  0
   60.7470   28.6910   45.9710 C   0  0  0  0  0  0  0  0  0  0  0  0
   60.7520   29.6320   47.0040 C   0  0  0  0  0  0  0  0  0  0  0  0
   59.8130   29.5540   48.0430 C   0  0  0  0  0  0  0  0  0  0  0  0
   59.8480   30.5280   49.0990 N   0  0  0  0  0  0  0  0  0  0  0  0
   59.0480   31.7240   49.1180 C   0  0  0  0  0  0  0  0  0  0  0  0
   58.4330   32.0960   48.0810 O   0  0  0  0  0  0  0  0  0  0  0  0
   58.9860   32.5650   50.3670 C   0  0  0  0  0  0  0  0  0  0  0  0
   57.8080   32.1980   51.2600 C   0  0  0  0  0  0  0  0  0  0  0  0
   58.2200   32.6260   52.6630 C   0  0  0  0  0  0  0  0  0  0  0  0
   59.7460   32.7220   52.6660 C   0  0  0  0  0  0  0  0  0  0  0  0
   60.2170   32.4030   51.2520 C   0  0  0  0  0  0  0  0  0  0  0  0
   58.8920   28.4900   48.0540 C   0  0  0  0  0  0  0  0  0  0  0  0
   56.1410   27.6910   45.6170 N   0  0  0  0  0  0  0  0  0  0  0  0
   56.5450   28.9600   45.0860 C   0  0  0  0  0  0  0  0  0  0  0  0
   56.1960   29.3560   43.7850 C   0  0  0  0  0  0  0  0  0  0  0  0
   56.6460   30.5780   43.2750 C   0  0  0  0  0  0  0  0  0  0  0  0
   57.4700   31.4080   44.0500 C   0  0  0  0  0  0  0  0  0  0  0  0
   57.9990   32.6960   43.4760 C   0  0  0  0  0  0  0  0  0  0  0  0
   57.8560   33.8400   44.4960 C   0  0  0  0  0  0  0  0  0  0  0  0
   58.7370   33.6870   45.6680 N   0  0  0  0  0  0  0  0  0  0  0  0
   59.6500   34.8200   45.8960 C   0  0  0  0  0  0  0  0  0  0  0  0
   60.0590   34.9660   47.3770 C   0  0  1  0  0  0  0  0  0  0  0  0
   58.9770   34.6160   48.2020 O   0  0  0  0  0  0  0  0  0  0  0  0
   61.2400   34.0830   47.7110 C   0  0  0  0  0  0  0  0  0  0  0  0
   61.9310   34.2310   48.9240 C   0  0  0  0  0  0  0  0  0  0  0  0
   63.0210   33.4100   49.2150 C   0  0  0  0  0  0  0  0  0  0  0  0
   63.4090   32.4360   48.2930 C   0  0  0  0  0  0  0  0  0  0  0  0
   62.7290   32.2960   47.1240 N   0  0  0  0  0  0  0  0  0  0  0  0
   61.6670   33.0870   46.8150 C   0  0  0  0  0  0  0  0  0  0  0  0
   57.8490   30.9920   45.3370 C   0  0  0  0  0  0  0  0  0  0  0  0
   57.3900   29.7750   45.8490 C   0  0  0  0  0  0  0  0  0  0  0  0
   57.2721   26.4761   47.9357 H   0  0  0  0  0  0  0  0  0  0  0  0
   58.4032   25.4538   46.9795 H   0  0  0  0  0  0  0  0  0  0  0  0
   59.8099   26.9178   45.1561 H   0  0  0  0  0  0  0  0  0  0  0  0
   61.4769   28.7707   45.1519 H   0  0  0  0  0  0  0  0  0  0  0  0
   61.4982   30.4402   47.0023 H   0  0  0  0  0  0  0  0  0  0  0  0
   60.5760   30.4180   49.8400 H   0  0  0  0  0  0  0  0  0  0  0  0
   58.9008   33.5924   49.9834 H   0  0  0  0  0  0  0  0  0  0  0  0
   56.9021   32.7356   50.9434 H   0  0  0  0  0  0  0  0  0  0  0  0
   57.5740   31.1243   51.2104 H   0  0  0  0  0  0  0  0  0  0  0  0
   57.7787   33.6040   52.9054 H   0  0  0  0  0  0  0  0  0  0  0  0
   57.8687   31.9039   53.4148 H   0  0  0  0  0  0  0  0  0  0  0  0
   60.0598   33.7378   52.9482 H   0  0  0  0  0  0  0  0  0  0  0  0
   60.1814   32.0195   53.3919 H   0  0  0  0  0  0  0  0  0  0  0  0
   61.0075   33.1027   50.9430 H   0  0  0  0  0  0  0  0  0  0  0  0
   60.6403   31.3902   51.1813 H   0  0  0  0  0  0  0  0  0  0  0  0
   58.1656   28.4063   48.8758 H   0  0  0  0  0  0  0  0  0  0  0  0
   55.5659   28.7022   43.1641 H   0  0  0  0  0  0  0  0  0  0  0  0
   56.3526   30.8898   42.2617 H   0  0  0  0  0  0  0  0  0  0  0  0
   59.0615   32.5692   43.2210 H   0  0  0  0  0  0  0  0  0  0  0  0
   57.4201   32.9482   42.5753 H   0  0  0  0  0  0  0  0  0  0  0  0
   58.1022   34.7878   43.9950 H   0  0  0  0  0  0  0  0  0  0  0  0
   56.8189   33.8233   44.8624 H   0  0  0  0  0  0  0  0  0  0  0  0
   58.1410   33.5650   46.5210 H   0  0  0  0  0  0  0  0  0  0  0  0
   60.5576   34.6674   45.2936 H   0  0  0  0  0  0  0  0  0  0  0  0
   59.1190   35.7385   45.6056 H   0  0  0  0  0  0  0  0  0  0  0  0
   60.3460   36.0140   47.5481 H   0  0  0  0  0  0  0  0  0  0  0  0
   58.5920   33.7770   47.8330 H   0  0  0  0  0  0  0  0  0  0  0  0
   61.6123   34.9963   49.6470 H   0  0  0  0  0  0  0  0  0  0  0  0
   63.5691   33.5289   50.1613 H   0  0  0  0  0  0  0  0  0  0  0  0
   64.2654   31.7815   48.5125 H   0  0  0  0  0  0  0  0  0  0  0  0
   61.1396   32.9471   45.8599 H   0  0  0  0  0  0  0  0  0  0  0  0
   58.5102   31.6270   45.9449 H   0  0  0  0  0  0  0  0  0  0  0  0
   57.6943   29.4559   46.8568 H   0  0  0  0  0  0  0  0  0  0  0  0
  1  2  2  0
  2  3  1  0
  3  4  1  0
  4  5  2  0
  5  6  1  0
  6  7  2  0
  7  8  1  0
  8  9  1  0
  9 10  1  0
 10 11  2  0
 10 12  1  0
 12 13  1  0
 13 14  1  0
 14 15  1  0
 15 16  1  0
  8 17  2  0
  2 18  1  0
 18 19  1  0
 19 20  2  0
 20 21  1  0
 21 22  2  0
 22 23  1  0
 23 24  1  0
 24 25  1  0
 25 26  1  0
 26 27  1  0
 27 28  1  0
 27 29  1  0
 29 30  2  0
 30 31  1  0
 31 32  2  0
 32 33  1  0
 33 34  2  0
 22 35  1  0
 35 36  2  0
 17  4  1  0
 36 19  1  0
 16 12  1  0
 34 29  1  0
  3 37  1  0
  3 38  1  0
  5 39  1  0
  6 40  1  0
  7 41  1  0
  9 42  1  0
 12 43  1  0
 13 44  1  0
 13 45  1  0
 14 46  1  0
 14 47  1  0
 15 48  1  0
 15 49  1  0
 16 50  1  0
 16 51  1  0
 17 52  1  0
 20 53  1  0
 21 54  1  0
 23 55  1  0
 23 56  1  0
 24 57  1  0
 24 58  1  0
 25 59  1  0
 26 60  1  0
 26 61  1  0
 27 62  1  6
 28 63  1  0
 30 64  1  0
 31 65  1  0
 32 66  1  0
 34 67  1  0
 35 68  1  0
 36 69  1  0
M  CHG  1  18  -1
M  END
>  <UniqueID>  (18) 
18

>  <SMILES>  (18) 
O=C(Cc1cccc(NC(=O)C2CCCC2)c1)[N-]c1ccc(CCNC[C@@H](O)c2cccnc2)cc1

>  <Energy>  (18) 
78.3570835758469

>  <Genealogy>  (18) 
O=C(Cc1cccc(NC(=O)C2CCCC2)c1)[N-]c1ccc(CCNCC(O)c2cccnc2)cc1 (protonated)
O=C(Cc1cccc(NC(=O)C2CCCC2)c1)[N-]c1ccc(CCNC[C@@H](O)c2cccnc2)cc1 (chirality)
O=C(Cc1cccc(NC(=O)C2CCCC2)c1)[N-]c1ccc(CCNC[C@@H](O)c2cccnc2)cc1 (3D coordinates assigned)
O=C(Cc1cccc(NC(=O)C2CCCC2)c1)[N-]c1ccc(CCNC[C@@H](O)c2cccnc2)cc1 (nonaromatic ring conformer: 78.3570835758469 kcal/mol)

>  <smiles>  (18) 
O=C(Cc1cccc(NC(=O)C2CCCC2)c1)Nc1ccc(CCNCC(O)c2cccnc2)cc1

>  <score_type>  (18) 
oracle

>  <origin>  (18) 
adg

>  <m_score__min__energy>  (18) 
-11.380000000000001

>  <m_primary>  (18) 
energy

$$$$
18:0
     RDKit          3D

 33 34  0  0  0  0  0  0  0  0999 V2000
   56.6610   20.7660   43.3870 C   0  0  0  0  0  0  0  0  0  0  0  0
   55.9190   21.8480   43.9370 O   0  0  0  0  0  0  0  0  0  0  0  0
   56.4280   23.1420   44.1290 C   0  0  0  0  0  0  0  0  0  0  0  0
   56.5210   23.7350   45.4010 C   0  0  0  0  0  0  0  0  0  0  0  0
   57.0360   25.0270   45.5390 C   0  0  0  0  0  0  0  0  0  0  0  0
   57.4740   25.7480   44.4150 C   0  0  0  0  0  0  0  0  0  0  0  0
   58.0130   27.1210   44.5710 C   0  0  0  0  0  0  0  0  0  0  0  0
   59.0620   27.3020   45.2490 O   0  0  0  0  0  0  0  0  0  0  0  0
   57.3860   28.2380   43.9180 N   0  0  0  0  0  0  0  0  0  0  0  0
   57.5710   29.6070   44.3220 C   0  0  0  0  0  0  0  0  0  0  0  0
   57.9910   29.9370   45.6240 C   0  0  0  0  0  0  0  0  0  0  0  0
   58.1420   31.2750   45.9990 C   0  0  0  0  0  0  0  0  0  0  0  0
   57.8530   32.3040   45.0900 C   0  0  0  0  0  0  0  0  0  0  0  0
   58.0530   33.7370   45.4810 C   0  0  0  0  0  0  0  0  0  0  0  0
   57.4320   31.9760   43.7930 C   0  0  0  0  0  0  0  0  0  0  0  0
   57.2800   30.6380   43.4170 C   0  0  0  0  0  0  0  0  0  0  0  0
   57.3690   25.1530   43.1450 C   0  0  0  0  0  0  0  0  0  0  0  0
   56.8530   23.8620   43.0080 C   0  0  0  0  0  0  0  0  0  0  0  0
   57.0790   20.1565   44.2017 H   0  0  0  0  0  0  0  0  0  0  0  0
   55.9982   20.1445   42.7670 H   0  0  0  0  0  0  0  0  0  0  0  0
   57.4796   21.1604   42.7670 H   0  0  0  0  0  0  0  0  0  0  0  0
   56.1873   23.1801   46.2902 H   0  0  0  0  0  0  0  0  0  0  0  0
   57.0991   25.4841   46.5375 H   0  0  0  0  0  0  0  0  0  0  0  0
   56.8580   28.0580   43.0350 H   0  0  0  0  0  0  0  0  0  0  0  0
   58.2015   29.1380   46.3502 H   0  0  0  0  0  0  0  0  0  0  0  0
   58.4895   31.5227   47.0128 H   0  0  0  0  0  0  0  0  0  0  0  0
   58.0645   33.8196   46.5778 H   0  0  0  0  0  0  0  0  0  0  0  0
   59.0102   34.0974   45.0761 H   0  0  0  0  0  0  0  0  0  0  0  0
   57.2311   34.3457   45.0761 H   0  0  0  0  0  0  0  0  0  0  0  0
   57.2203   32.7756   43.0678 H   0  0  0  0  0  0  0  0  0  0  0  0
   56.9295   30.3922   42.4037 H   0  0  0  0  0  0  0  0  0  0  0  0
   57.6955   25.7081   42.2532 H   0  0  0  0  0  0  0  0  0  0  0  0
   56.7803   23.4075   42.0089 H   0  0  0  0  0  0  0  0  0  0  0  0
  1  2  1  0
  2  3  1  0
  3  4  2  0
  4  5  1  0
  5  6  2  0
  6  7  1  0
  7  8  2  0
  7  9  1  0
  9 10  1  0
 10 11  2  0
 11 12  1  0
 12 13  2  0
 13 14  1  0
 13 15  1  0
 15 16  2  0
  6 17  1  0
 17 18  2  0
 18  3  1  0
 16 10  1  0
  1 19  1  0
  1 20  1  0
  1 21  1  0
  4 22  1  0
  5 23  1  0
  9 24  1  0
 11 25  1  0
 12 26  1  0
 14 27  1  0
 14 28  1  0
 14 29  1  0
 15 30  1  0
 16 31  1  0
 17 32  1  0
 18 33  1  0
M  END
>  <UniqueID>  (19) 
19

>  <SMILES>  (19) 
COc1ccc(C(=O)Nc2ccc(C)cc2)cc1

>  <Energy>  (19) 
37.57077705604087

>  <Genealogy>  (19) 
COc1ccc(C(=O)Nc2ccc(C)cc2)cc1 (3D coordinates assigned)
COc1ccc(C(=O)Nc2ccc(C)cc2)cc1 (optimized conformer: 37.57077705604087 kcal/mol)

>  <smiles>  (19) 
COc1ccc(C(=O)Nc2ccc(C)cc2)cc1

>  <score_type>  (19) 
oracle

>  <origin>  (19) 
adg

>  <m_score__min__energy>  (19) 
-6.2000000000000002

>  <m_primary>  (19) 
energy

$$$$
19:0
     RDKit          3D

 34 36  0  0  0  0  0  0  0  0999 V2000
   58.1680   32.7530   48.1870 C   0  0  0  0  0  0  0  0  0  0  0  0
   59.2160   32.3340   47.1610 C   0  0  0  0  0  0  0  0  0  0  0  0
   58.6370   32.3490   45.7760 C   0  0  0  0  0  0  0  0  0  0  0  0
   58.8290   33.3120   44.7840 C   0  0  0  0  0  0  0  0  0  0  0  0
   59.6080   34.5800   44.9380 C   0  0  0  0  0  0  0  0  0  0  0  0
   58.2000   32.9550   43.6400 N   0  0  0  0  0  0  0  0  0  0  0  0
   57.6280   31.7640   43.8920 C   0  0  0  0  0  0  0  0  0  0  0  0
   56.8750   30.9900   43.0150 C   0  0  0  0  0  0  0  0  0  0  0  0
   56.3770   29.7600   43.4830 C   0  0  0  0  0  0  0  0  0  0  0  0
   56.6510   29.3200   44.8020 C   0  0  0  0  0  0  0  0  0  0  0  0
   56.1140   28.0630   45.2470 N   0  0  0  0  0  0  0  0  0  0  0  0
   56.8640   27.0880   45.9860 C   0  0  0  0  0  0  0  0  0  0  0  0
   58.2320   27.1350   46.1650 C   0  0  0  0  0  0  0  0  0  0  0  0
   58.5430   26.0600   46.9670 C   0  0  0  0  0  0  0  0  0  0  0  0
   57.3470   25.4280   47.2370 C   0  0  0  0  0  0  0  0  0  0  0  0
   57.2130   24.3220   48.0070 F   0  0  0  0  0  0  0  0  0  0  0  0
   56.3090   26.0520   46.6480 N   0  0  0  0  0  0  0  0  0  0  0  0
   57.4020   30.1440   45.6710 C   0  0  0  0  0  0  0  0  0  0  0  0
   57.8780   31.3600   45.1780 C   0  0  0  0  0  0  0  0  0  0  0  0
   58.5638   32.5947   49.2010 H   0  0  0  0  0  0  0  0  0  0  0  0
   57.9256   33.8172   48.0499 H   0  0  0  0  0  0  0  0  0  0  0  0
   57.2588   32.1492   48.0499 H   0  0  0  0  0  0  0  0  0  0  0  0
   60.0646   33.0326   47.2054 H   0  0  0  0  0  0  0  0  0  0  0  0
   59.5507   31.3123   47.3938 H   0  0  0  0  0  0  0  0  0  0  0  0
   59.7430   34.7998   46.0073 H   0  0  0  0  0  0  0  0  0  0  0  0
   60.5921   34.4661   44.4600 H   0  0  0  0  0  0  0  0  0  0  0  0
   59.0616   35.4064   44.4600 H   0  0  0  0  0  0  0  0  0  0  0  0
   58.1710   33.4880   42.7420 H   0  0  0  0  0  0  0  0  0  0  0  0
   56.6751   31.3289   41.9878 H   0  0  0  0  0  0  0  0  0  0  0  0
   55.7673   29.1321   42.8167 H   0  0  0  0  0  0  0  0  0  0  0  0
   55.1490   27.8020   44.9410 H   0  0  0  0  0  0  0  0  0  0  0  0
   58.9298   27.8782   45.7520 H   0  0  0  0  0  0  0  0  0  0  0  0
   59.5420   25.7651   47.3205 H   0  0  0  0  0  0  0  0  0  0  0  0
   57.6056   29.8355   46.7070 H   0  0  0  0  0  0  0  0  0  0  0  0
  1  2  1  0
  2  3  1  0
  3  4  2  0
  4  5  1  0
  4  6  1  0
  6  7  1  0
  7  8  2  0
  8  9  1  0
  9 10  2  0
 10 11  1  0
 11 12  1  0
 12 13  2  0
 13 14  1  0
 14 15  2  0
 15 16  1  0
 15 17  1  0
 10 18  1  0
 18 19  2  0
 19  3  1  0
 19  7  1  0
 17 12  1  0
  1 20  1  0
  1 21  1  0
  1 22  1  0
  2 23  1  0
  2 24  1  0
  5 25  1  0
  5 26  1  0
  5 27  1  0
  6 28  1  0
  8 29  1  0
  9 30  1  0
 11 31  1  0
 13 32  1  0
 14 33  1  0
 18 34  1  0
M  CHG  1  17  -1
M  END
>  <UniqueID>  (20) 
20

>  <SMILES>  (20) 
CCc1c(C)[nH]c2ccc(Nc3ccc(F)[n-]3)cc12

>  <Energy>  (20) 
91.84213836387853

>  <Genealogy>  (20) 
CCc1c(C)[nH]c2ccc(Nc3ccc(F)[n-]3)cc12 (protonated)
CCc1c(C)[nH]c2ccc(Nc3ccc(F)[n-]3)cc12 (3D coordinates assigned)
CCc1c(C)[nH]c2ccc(Nc3ccc(F)[n-]3)cc12 (optimized conformer: 91.84213836387853 kcal/mol)

>  <smiles>  (20) 
CCc1c(C)[nH]c2ccc(Nc3ccc(F)[nH]3)cc12

>  <score_type>  (20) 
oracle

>  <origin>  (20) 
adg

>  <m_score__min__energy>  (20) 
-8.8599999999999994

>  <m_primary>  (20) 
energy

$$$$
20:0
     RDKit          3D

 43 45  0  0  0  0  0  0  0  0999 V2000
   55.1813   24.1301   46.7161 H   0  0  0  0  0  0  0  0  0  0  0  0
   55.9250   24.8990   46.4600 C   0  0  0  0  0  0  0  0  0  0  0  0
   55.5180   26.1120   45.9990 N   0  0  0  0  0  0  0  0  0  0  0  0
   56.3970   27.0950   45.6590 C   0  0  0  0  0  0  0  0  0  0  0  0
   55.9200   28.2330   45.2330 N   0  0  0  0  0  0  0  0  0  0  0  0
   56.6400   29.4540   44.9970 C   0  0  0  0  0  0  0  0  0  0  0  0
   56.4050   30.1650   43.8170 C   0  0  0  0  0  0  0  0  0  0  0  0
   55.6454   29.8081   43.1060 H   0  0  0  0  0  0  0  0  0  0  0  0
   57.1280   31.3250   43.5350 C   0  0  0  0  0  0  0  0  0  0  0  0
   56.9212   31.8861   42.6117 H   0  0  0  0  0  0  0  0  0  0  0  0
   58.1210   31.7830   44.4240 C   0  0  0  0  0  0  0  0  0  0  0  0
   58.8380   32.9670   44.1880 O   0  0  0  0  0  0  0  0  0  0  0  0
   58.4640   34.2510   44.6780 C   0  0  0  0  0  0  0  0  0  0  0  0
   58.4675   34.2390   45.7779 H   0  0  0  0  0  0  0  0  0  0  0  0
   59.1801   35.0040   44.3173 H   0  0  0  0  0  0  0  0  0  0  0  0
   57.4555   34.5017   44.3173 H   0  0  0  0  0  0  0  0  0  0  0  0
   58.3950   31.0400   45.5920 C   0  0  0  0  0  0  0  0  0  0  0  0
   59.4280   31.4600   46.5050 N   0  0  0  0  0  0  0  0  0  0  0  0
   59.2520   32.6530   47.3370 C   0  0  0  0  0  0  0  0  0  0  0  0
   58.4655   33.2901   46.9063 H   0  0  0  0  0  0  0  0  0  0  0  0
   58.9593   32.3560   48.3549 H   0  0  0  0  0  0  0  0  0  0  0  0
   60.5720   33.4280   47.3840 C   0  0  0  0  0  0  0  0  0  0  0  0
   60.8020   33.7888   46.3706 H   0  0  0  0  0  0  0  0  0  0  0  0
   60.4405   34.2555   48.0968 H   0  0  0  0  0  0  0  0  0  0  0  0
   61.7160   32.6070   47.8650 N   0  0  0  0  0  0  0  0  0  0  0  0
   62.9590   32.9800   47.1640 C   0  0  0  0  0  0  0  0  0  0  0  0
   63.7401   33.2144   47.9022 H   0  0  0  0  0  0  0  0  0  0  0  0
   63.2901   32.1416   46.5335 H   0  0  0  0  0  0  0  0  0  0  0  0
   62.7738   33.8621   46.5335 H   0  0  0  0  0  0  0  0  0  0  0  0
   61.4940   31.1400   47.8210 C   0  0  0  0  0  0  0  0  0  0  0  0
   62.4718   30.6368   47.7939 H   0  0  0  0  0  0  0  0  0  0  0  0
   60.9191   30.8640   48.7173 H   0  0  0  0  0  0  0  0  0  0  0  0
   60.6810   30.7000   46.5950 C   0  0  0  0  0  0  0  0  0  0  0  0
   61.2753   30.8740   45.6859 H   0  0  0  0  0  0  0  0  0  0  0  0
   60.4407   29.6312   46.6942 H   0  0  0  0  0  0  0  0  0  0  0  0
   57.6590   29.8770   45.8640 C   0  0  0  0  0  0  0  0  0  0  0  0
   57.8832   29.2902   46.7670 H   0  0  0  0  0  0  0  0  0  0  0  0
   57.7800   26.8610   45.8190 C   0  0  0  0  0  0  0  0  0  0  0  0
   58.5080   27.6488   45.5753 H   0  0  0  0  0  0  0  0  0  0  0  0
   58.2160   25.6190   46.2900 C   0  0  0  0  0  0  0  0  0  0  0  0
   59.2916   25.4222   46.4096 H   0  0  0  0  0  0  0  0  0  0  0  0
   57.2860   24.6300   46.6080 C   0  0  0  0  0  0  0  0  0  0  0  0
   57.6219   23.6478   46.9718 H   0  0  0  0  0  0  0  0  0  0  0  0
  1  2  1  0
  2  3  1  0
  3  4  1  0
  4  5  2  0
  5  6  1  0
  6  7  2  0
  7  8  1  0
  7  9  1  0
  9 10  1  0
  9 11  2  0
 11 12  1  0
 12 13  1  0
 13 14  1  0
 13 15  1  0
 13 16  1  0
 11 17  1  0
 17 18  1  0
 18 19  1  0
 19 20  1  0
 19 21  1  0
 19 22  1  0
 22 23  1  0
 22 24  1  0
 22 25  1  0
 25 26  1  0
 26 27  1  0
 26 28  1  0
 26 29  1  0
 25 30  1  0
 30 31  1  0
 30 32  1  0
 30 33  1  0
 33 34  1  0
 33 35  1  0
 17 36  2  0
 36 37  1  0
  4 38  1  0
 38 39  1  0
 38 40  2  0
 40 41  1  0
 40 42  1  0
 42 43  1  0
 42  2  2  0
 36  6  1  0
 33 18  1  0
M  CHG  1   3  -1
M  END
>  <UniqueID>  (21) 
21

>  <SMILES>  (21) 
COc1ccc(/N=c2\cccc[n-]2)cc1N1CCN(C)CC1

>  <Energy>  (21) 
64.84134959514407

>  <Genealogy>  (21) 
COc1ccc(N=c2cccc[n-]2)cc1N1CCN(C)CC1 (protonated)
COc1ccc(/N=c2\cccc[n-]2)cc1N1CCN(C)CC1 (cis-trans isomerization)
COc1ccc(/N=c2\cccc[n-]2)cc1N1CCN(C)CC1 (3D coordinates assigned)
COc1ccc(/N=c2\cccc[n-]2)cc1N1CCN(C)CC1 (nonaromatic ring conformer: 64.84134959514407 kcal/mol)

>  <smiles>  (21) 
COc1ccc(N=c2cccc[nH]2)cc1N1CCN(C)CC1

>  <score_type>  (21) 
oracle

>  <origin>  (21) 
adg

>  <m_score__min__energy>  (21) 
-8.8399999999999999

>  <m_primary>  (21) 
energy

$$$$
21:0
     RDKit          3D

 50 52  0  0  0  0  0  0  0  0999 V2000
   55.3390   29.7940   43.7420 C   0  0  0  0  0  0  0  0  0  0  0  0
   55.7250   29.0860   44.9160 O   0  0  0  0  0  0  0  0  0  0  0  0
   57.0480   28.7520   45.2420 C   0  0  0  0  0  0  0  0  0  0  0  0
   57.5130   27.4770   44.9020 C   0  0  0  0  0  0  0  0  0  0  0  0
   58.8220   27.0960   45.2030 C   0  0  0  0  0  0  0  0  0  0  0  0
   59.6810   27.9880   45.8490 C   0  0  0  0  0  0  0  0  0  0  0  0
   59.2360   29.2720   46.2000 C   0  0  0  0  0  0  0  0  0  0  0  0
   60.1500   30.2120   46.8820 C   0  0  0  0  0  0  0  0  0  0  0  0
   59.7540   31.0850   47.8350 N   0  0  0  0  0  0  0  0  0  0  0  0
   60.8930   31.7230   48.1670 C   0  0  0  0  0  0  0  0  0  0  0  0
   60.9650   32.8430   49.1690 C   0  0  0  0  0  0  0  0  0  0  0  0
   59.6300   33.4290   49.4370 N   0  0  1  0  0  0  0  0  0  0  0  0
   59.4930   33.8520   50.8450 C   0  0  0  0  0  0  0  0  0  0  0  0
   59.3140   34.5350   48.4980 C   0  0  0  0  0  0  0  0  0  0  0  0
   58.9040   34.0690   47.1140 C   0  0  0  0  0  0  0  0  0  0  0  0
   57.7670   33.2620   46.9430 C   0  0  0  0  0  0  0  0  0  0  0  0
   57.3940   32.8280   45.6680 C   0  0  0  0  0  0  0  0  0  0  0  0
   58.1410   33.2080   44.5440 C   0  0  0  0  0  0  0  0  0  0  0  0
   57.7640   32.7060   43.1810 C   0  0  0  0  0  0  0  0  0  0  0  0
   59.2810   34.0070   44.7120 C   0  0  0  0  0  0  0  0  0  0  0  0
   59.6550   34.4420   45.9880 C   0  0  0  0  0  0  0  0  0  0  0  0
   61.9270   31.2240   47.4020 C   0  0  0  0  0  0  0  0  0  0  0  0
   63.3600   31.6450   47.4250 C   0  0  0  0  0  0  0  0  0  0  0  0
   61.4380   30.2930   46.6230 O   0  0  0  0  0  0  0  0  0  0  0  0
   57.9170   29.6500   45.8930 C   0  0  0  0  0  0  0  0  0  0  0  0
   54.8304   30.7268   44.0269 H   0  0  0  0  0  0  0  0  0  0  0  0
   56.2328   30.0309   43.1462 H   0  0  0  0  0  0  0  0  0  0  0  0
   54.6557   29.1711   43.1462 H   0  0  0  0  0  0  0  0  0  0  0  0
   56.8419   26.7691   44.3935 H   0  0  0  0  0  0  0  0  0  0  0  0
   59.1776   26.0913   44.9308 H   0  0  0  0  0  0  0  0  0  0  0  0
   60.7114   27.6827   46.0838 H   0  0  0  0  0  0  0  0  0  0  0  0
   61.3778   32.4522   50.1107 H   0  0  0  0  0  0  0  0  0  0  0  0
   61.6077   33.6329   48.7531 H   0  0  0  0  0  0  0  0  0  0  0  0
   58.9070   32.6880   49.2670 H   0  0  0  0  0  0  0  0  0  0  0  0
   59.7637   33.0162   51.5069 H   0  0  0  0  0  0  0  0  0  0  0  0
   60.1611   34.7042   51.0385 H   0  0  0  0  0  0  0  0  0  0  0  0
   58.4522   34.1507   51.0385 H   0  0  0  0  0  0  0  0  0  0  0  0
   58.4887   35.1250   48.9232 H   0  0  0  0  0  0  0  0  0  0  0  0
   60.2355   35.1233   48.3765 H   0  0  0  0  0  0  0  0  0  0  0  0
   57.1669   32.9701   47.8175 H   0  0  0  0  0  0  0  0  0  0  0  0
   56.5099   32.1850   45.5457 H   0  0  0  0  0  0  0  0  0  0  0  0
   57.1062   31.8301   43.2818 H   0  0  0  0  0  0  0  0  0  0  0  0
   57.2365   33.4993   42.6310 H   0  0  0  0  0  0  0  0  0  0  0  0
   58.6729   32.4206   42.6310 H   0  0  0  0  0  0  0  0  0  0  0  0
   59.8835   34.2929   43.8372 H   0  0  0  0  0  0  0  0  0  0  0  0
   60.5427   35.0801   46.1097 H   0  0  0  0  0  0  0  0  0  0  0  0
   63.6964   31.7438   48.4676 H   0  0  0  0  0  0  0  0  0  0  0  0
   63.9726   30.8889   46.9122 H   0  0  0  0  0  0  0  0  0  0  0  0
   63.4663   32.6123   46.9122 H   0  0  0  0  0  0  0  0  0  0  0  0
   57.5606   30.6550   46.1632 H   0  0  0  0  0  0  0  0  0  0  0  0
  1  2  1  0
  2  3  1  0
  3  4  2  0
  4  5  1  0
  5  6  2  0
  6  7  1  0
  7  8  1  0
  8  9  2  0
  9 10  1  0
 10 11  1  0
 11 12  1  0
 12 13  1  0
 12 14  1  0
 14 15  1  0
 15 16  2  0
 16 17  1  0
 17 18  2  0
 18 19  1  0
 18 20  1  0
 20 21  2  0
 10 22  2  0
 22 23  1  0
 22 24  1  0
  7 25  2  0
 25  3  1  0
 24  8  1  0
 21 15  1  0
  1 26  1  0
  1 27  1  0
  1 28  1  0
  4 29  1  0
  5 30  1  0
  6 31  1  0
 11 32  1  0
 11 33  1  0
 12 34  1  6
 13 35  1  0
 13 36  1  0
 13 37  1  0
 14 38  1  0
 14 39  1  0
 16 40  1  0
 17 41  1  0
 19 42  1  0
 19 43  1  0
 19 44  1  0
 20 45  1  0
 21 46  1  0
 23 47  1  0
 23 48  1  0
 23 49  1  0
 25 50  1  0
M  CHG  1  12   1
M  END
>  <UniqueID>  (22) 
22

>  <SMILES>  (22) 
COc1cccc(-c2nc(C[N@@H+](C)Cc3ccc(C)cc3)c(C)o2)c1

>  <Energy>  (22) 
81.23778391835779

>  <Genealogy>  (22) 
COc1cccc(-c2nc(C[NH+](C)Cc3ccc(C)cc3)c(C)o2)c1 (protonated)
COc1cccc(-c2nc(C[N@@H+](C)Cc3ccc(C)cc3)c(C)o2)c1 (chirality)
COc1cccc(-c2nc(C[N@@H+](C)Cc3ccc(C)cc3)c(C)o2)c1 (3D coordinates assigned)
COc1cccc(-c2nc(C[N@@H+](C)Cc3ccc(C)cc3)c(C)o2)c1 (optimized conformer: 81.23778391835779 kcal/mol)

>  <smiles>  (22) 
COc1cccc(-c2nc(CN(C)Cc3ccc(C)cc3)c(C)o2)c1

>  <score_type>  (22) 
oracle

>  <origin>  (22) 
adg

>  <m_score__min__energy>  (22) 
-6.8200000000000003

>  <m_primary>  (22) 
energy

$$$$
22:0
     RDKit          3D

 18 19  0  0  0  0  0  0  0  0999 V2000
   58.0440   33.9630   44.8950 Br  0  0  0  0  0  0  0  0  0  0  0  0
   58.1920   32.2840   45.8460 C   0  0  0  0  0  0  0  0  0  0  0  0
   57.5880   31.1850   45.0300 C   0  0  0  0  0  0  0  0  0  0  0  0
   56.3020   31.1490   44.4960 C   0  0  0  0  0  0  0  0  0  0  0  0
   56.0940   29.9910   43.8910 O   0  0  0  0  0  0  0  0  0  0  0  0
   57.1870   29.2800   44.0230 C   0  0  0  0  0  0  0  0  0  0  0  0
   57.3950   28.0230   43.5570 N   0  0  0  0  0  0  0  0  0  0  0  0
   58.5980   27.4160   43.7970 C   0  0  0  0  0  0  0  0  0  0  0  0
   59.6090   28.0880   44.5220 C   0  0  0  0  0  0  0  0  0  0  0  0
   59.3780   29.3910   44.9990 C   0  0  0  0  0  0  0  0  0  0  0  0
   58.1410   29.9630   44.7220 C   0  0  0  0  0  0  0  0  0  0  0  0
   59.2532   32.0610   46.0305 H   0  0  0  0  0  0  0  0  0  0  0  0
   57.6576   32.3608   46.8044 H   0  0  0  0  0  0  0  0  0  0  0  0
   55.5669   31.9642   44.5670 H   0  0  0  0  0  0  0  0  0  0  0  0
   56.6480   27.5240   43.0250 H   0  0  0  0  0  0  0  0  0  0  0  0
   58.7797   26.3976   43.4230 H   0  0  0  0  0  0  0  0  0  0  0  0
   60.5730   27.5935   44.7124 H   0  0  0  0  0  0  0  0  0  0  0  0
   60.1453   29.9359   45.5685 H   0  0  0  0  0  0  0  0  0  0  0  0
  1  2  1  0
  2  3  1  0
  3  4  2  0
  4  5  1  0
  5  6  1  0
  6  7  2  0
  7  8  1  0
  8  9  2  0
  9 10  1  0
 10 11  2  0
 11  3  1  0
 11  6  1  0
  2 12  1  0
  2 13  1  0
  4 14  1  0
  7 15  1  0
  8 16  1  0
  9 17  1  0
 10 18  1  0
M  CHG  1   7   1
M  END
>  <UniqueID>  (23) 
23

>  <SMILES>  (23) 
BrCc1coc2[nH+]cccc12

>  <Energy>  (23) 
52.33129003024624

>  <Genealogy>  (23) 
BrCc1coc2[nH+]cccc12 (protonated)
BrCc1coc2[nH+]cccc12 (3D coordinates assigned)
BrCc1coc2[nH+]cccc12 (optimized conformer: 52.33129003024624 kcal/mol)

>  <smiles>  (23) 
BrCc1coc2ncccc12

>  <score_type>  (23) 
oracle

>  <origin>  (23) 
adg

>  <m_score__min__energy>  (23) 
-3.7000000000000002

>  <m_primary>  (23) 
energy

$$$$
23:0
     RDKit          3D

 41 43  0  0  0  0  0  0  0  0999 V2000
   63.6200   33.2390   47.1240 C   0  0  0  0  0  0  0  0  0  0  0  0
   62.2910   32.5580   47.2350 C   0  0  0  0  0  0  0  0  0  0  0  0
   62.1870   31.2630   47.8000 C   0  0  0  0  0  0  0  0  0  0  0  0
   60.9270   30.6470   47.9290 C   0  0  0  0  0  0  0  0  0  0  0  0
   60.7740   29.2830   48.5340 C   0  0  0  0  0  0  0  0  0  0  0  0
   59.8260   31.3790   47.4840 C   0  0  0  0  0  0  0  0  0  0  0  0
   58.5240   31.0370   47.4990 N   0  0  0  0  0  0  0  0  0  0  0  0
   57.8380   32.0560   46.9920 N   0  0  0  0  0  0  0  0  0  0  0  0
   58.7450   33.0150   46.6700 C   0  0  0  0  0  0  0  0  0  0  0  0
   58.3900   34.3630   46.1210 C   0  0  0  0  0  0  0  0  0  0  0  0
   57.6190   34.2380   44.8080 C   0  0  0  0  0  0  0  0  0  0  0  0
   58.3370   33.3560   43.8900 N   0  0  0  0  0  0  0  0  0  0  0  0
   57.7740   32.2200   43.2210 C   0  0  0  0  0  0  0  0  0  0  0  0
   57.4790   32.3230   42.0000 O   0  0  0  0  0  0  0  0  0  0  0  0
   57.5820   30.9200   43.8950 C   0  0  0  0  0  0  0  0  0  0  0  0
   58.6760   30.1240   44.2710 C   0  0  0  0  0  0  0  0  0  0  0  0
   58.4670   28.9110   44.9330 C   0  0  0  0  0  0  0  0  0  0  0  0
   57.1550   28.4990   45.2170 C   0  0  0  0  0  0  0  0  0  0  0  0
   56.9010   27.2040   45.9300 C   0  0  0  0  0  0  0  0  0  0  0  0
   57.5070   26.1560   45.2550 F   0  0  0  0  0  0  0  0  0  0  0  0
   57.4150   27.2650   47.2120 F   0  0  0  0  0  0  0  0  0  0  0  0
   55.5370   26.9650   45.9960 F   0  0  0  0  0  0  0  0  0  0  0  0
   56.1090   29.2990   44.8660 N   0  0  0  0  0  0  0  0  0  0  0  0
   56.2890   30.4860   44.2270 C   0  0  0  0  0  0  0  0  0  0  0  0
   59.9850   32.5990   46.9730 N   0  0  0  0  0  0  0  0  0  0  0  0
   61.1590   33.2100   46.8400 N   0  0  0  0  0  0  0  0  0  0  0  0
   64.0138   33.4408   48.1311 H   0  0  0  0  0  0  0  0  0  0  0  0
   64.3208   32.5889   46.5797 H   0  0  0  0  0  0  0  0  0  0  0  0
   63.5016   34.1875   46.5797 H   0  0  0  0  0  0  0  0  0  0  0  0
   63.0921   30.7376   48.1386 H   0  0  0  0  0  0  0  0  0  0  0  0
   60.7832   29.3653   49.6309 H   0  0  0  0  0  0  0  0  0  0  0  0
   59.8207   28.8418   48.2074 H   0  0  0  0  0  0  0  0  0  0  0  0
   61.6058   28.6416   48.2074 H   0  0  0  0  0  0  0  0  0  0  0  0
   58.1000   30.1510   47.8520 H   0  0  0  0  0  0  0  0  0  0  0  0
   57.7668   34.8964   46.8539 H   0  0  0  0  0  0  0  0  0  0  0  0
   59.3205   34.9170   45.9277 H   0  0  0  0  0  0  0  0  0  0  0  0
   56.6215   33.8203   45.0094 H   0  0  0  0  0  0  0  0  0  0  0  0
   57.5206   35.2334   44.3503 H   0  0  0  0  0  0  0  0  0  0  0  0
   59.6999   30.4559   44.0440 H   0  0  0  0  0  0  0  0  0  0  0  0
   59.3219   28.2852   45.2287 H   0  0  0  0  0  0  0  0  0  0  0  0
   55.4188   31.1077   43.9696 H   0  0  0  0  0  0  0  0  0  0  0  0
  1  2  1  0
  2  3  1  0
  3  4  2  0
  4  5  1  0
  4  6  1  0
  6  7  2  0
  7  8  1  0
  8  9  2  0
  9 10  1  0
 10 11  1  0
 11 12  1  0
 12 13  1  0
 13 14  2  0
 13 15  1  0
 15 16  2  0
 16 17  1  0
 17 18  2  0
 18 19  1  0
 19 20  1  0
 19 21  1  0
 19 22  1  0
 18 23  1  0
 23 24  2  0
  9 25  1  0
 25 26  1  0
 26  2  2  0
 25  6  1  0
 24 15  1  0
  1 27  1  0
  1 28  1  0
  1 29  1  0
  3 30  1  0
  5 31  1  0
  5 32  1  0
  5 33  1  0
  7 34  1  0
 10 35  1  0
 10 36  1  0
 11 37  1  0
 11 38  1  0
 16 39  1  0
 17 40  1  0
 24 41  1  0
M  CHG  2   7   1  12  -1
M  END
>  <UniqueID>  (24) 
24

>  <SMILES>  (24) 
Cc1cc(C)c2[nH+]nc(CC[N-]C(=O)c3ccc(C(F)(F)F)nc3)n2n1

>  <Energy>  (24) 
86.65179407496444

>  <Genealogy>  (24) 
Cc1cc(C)c2[nH+]nc(CC[N-]C(=O)c3ccc(C(F)(F)F)nc3)n2n1 (protonated)
Cc1cc(C)c2[nH+]nc(CC[N-]C(=O)c3ccc(C(F)(F)F)nc3)n2n1 (3D coordinates assigned)
Cc1cc(C)c2[nH+]nc(CC[N-]C(=O)c3ccc(C(F)(F)F)nc3)n2n1 (optimized conformer: 86.65179407496444 kcal/mol)

>  <smiles>  (24) 
Cc1cc(C)c2nnc(CCNC(=O)c3ccc(C(F)(F)F)nc3)n2n1

>  <score_type>  (24) 
oracle

>  <origin>  (24) 
adg

>  <m_score__min__energy>  (24) 
-7.46

>  <m_primary>  (24) 
energy

$$$$
24:0
     RDKit          3D

 57 60  0  0  0  0  0  0  0  0999 V2000
   56.0451   22.7818   42.0398 H   0  0  0  0  0  0  0  0  0  0  0  0
   56.1440   23.2610   43.0250 C   0  0  0  0  0  0  0  0  0  0  0  0
   55.4220   22.9450   44.1180 N   0  0  0  0  0  0  0  0  0  0  0  0
   55.8180   23.7310   45.1070 N   0  0  0  0  0  0  0  0  0  0  0  0
   55.2170   23.6900   46.4370 C   0  0  0  0  0  0  0  0  0  0  0  0
   56.0086   23.7440   47.1989 H   0  0  0  0  0  0  0  0  0  0  0  0
   54.5337   24.5436   46.5571 H   0  0  0  0  0  0  0  0  0  0  0  0
   54.6559   22.7515   46.5571 H   0  0  0  0  0  0  0  0  0  0  0  0
   56.8050   24.5460   44.6670 C   0  0  0  0  0  0  0  0  0  0  0  0
   57.5030   25.5870   45.4570 C   0  0  0  0  0  0  0  0  0  0  0  0
   56.9480   26.8650   45.6200 C   0  0  0  0  0  0  0  0  0  0  0  0
   55.9753   27.0998   45.1632 H   0  0  0  0  0  0  0  0  0  0  0  0
   57.6210   27.8420   46.3580 C   0  0  0  0  0  0  0  0  0  0  0  0
   57.1759   28.8408   46.4772 H   0  0  0  0  0  0  0  0  0  0  0  0
   58.8660   27.5550   46.9500 C   0  0  0  0  0  0  0  0  0  0  0  0
   59.6080   28.5510   47.6820 N   0  0  0  0  0  0  0  0  0  0  0  0
   60.4340   28.2280   48.2380 H   0  0  0  0  0  0  0  0  0  0  0  0
   59.3560   29.9950   47.5880 C   0  0  0  0  0  0  0  0  0  0  0  0
   58.3057   30.1551   47.3030 H   0  0  0  0  0  0  0  0  0  0  0  0
   60.2470   30.6310   46.4830 C   0  0  0  0  0  0  0  0  0  0  0  0
   61.1048   29.9667   46.3016 H   0  0  0  0  0  0  0  0  0  0  0  0
   59.6181   30.7520   45.5887 H   0  0  0  0  0  0  0  0  0  0  0  0
   60.7790   32.0220   46.8540 C   0  0  0  0  0  0  0  0  0  0  0  0
   61.6920   31.9127   47.4577 H   0  0  0  0  0  0  0  0  0  0  0  0
   61.0029   32.5783   45.9318 H   0  0  0  0  0  0  0  0  0  0  0  0
   59.7730   32.7600   47.6260 N   0  0  0  0  0  0  0  0  0  0  0  0
   59.3030   34.0520   47.2080 C   0  0  0  0  0  0  0  0  0  0  0  0
   59.1550   34.9660   48.0660 O   0  0  0  0  0  0  0  0  0  0  0  0
   58.8530   34.3050   45.7940 C   0  0  0  0  0  0  0  0  0  0  0  0
   58.8766   35.3870   45.5974 H   0  0  0  0  0  0  0  0  0  0  0  0
   59.5315   33.7737   45.1104 H   0  0  0  0  0  0  0  0  0  0  0  0
   57.4320   33.7870   45.5690 C   0  0  0  0  0  0  0  0  0  0  0  0
   56.7722   34.1837   46.3547 H   0  0  0  0  0  0  0  0  0  0  0  0
   57.0816   34.1192   44.5806 H   0  0  0  0  0  0  0  0  0  0  0  0
   57.4130   32.3240   45.6150 N   0  0  0  0  0  0  0  0  0  0  0  0
   57.0660   31.5310   44.6380 C   0  0  0  0  0  0  0  0  0  0  0  0
   56.3250   30.4260   44.9270 N   0  0  0  0  0  0  0  0  0  0  0  0
   55.9110   29.5570   43.9670 C   0  0  0  0  0  0  0  0  0  0  0  0
   55.3123   28.6767   44.2437 H   0  0  0  0  0  0  0  0  0  0  0  0
   56.2450   29.7810   42.6310 C   0  0  0  0  0  0  0  0  0  0  0  0
   55.9089   29.0840   41.8492 H   0  0  0  0  0  0  0  0  0  0  0  0
   57.0100   30.8990   42.2980 C   0  0  0  0  0  0  0  0  0  0  0  0
   57.2839   31.0858   41.2491 H   0  0  0  0  0  0  0  0  0  0  0  0
   57.4280   31.7810   43.2970 C   0  0  0  0  0  0  0  0  0  0  0  0
   58.0339   32.6626   43.0409 H   0  0  0  0  0  0  0  0  0  0  0  0
   59.2480   32.1730   48.8670 C   0  0  0  0  0  0  0  0  0  0  0  0
   59.6985   32.6902   49.7270 H   0  0  0  0  0  0  0  0  0  0  0  0
   58.1544   32.2911   48.8723 H   0  0  0  0  0  0  0  0  0  0  0  0
   59.5760   30.6720   48.9560 C   0  0  0  0  0  0  0  0  0  0  0  0
   60.6263   30.5472   49.2581 H   0  0  0  0  0  0  0  0  0  0  0  0
   58.9127   30.2038   49.6982 H   0  0  0  0  0  0  0  0  0  0  0  0
   59.3990   26.2640   46.8200 C   0  0  0  0  0  0  0  0  0  0  0  0
   60.3555   26.0174   47.3040 H   0  0  0  0  0  0  0  0  0  0  0  0
   58.7250   25.2890   46.0810 C   0  0  0  0  0  0  0  0  0  0  0  0
   59.1545   24.2807   45.9872 H   0  0  0  0  0  0  0  0  0  0  0  0
   57.0270   24.2780   43.3300 C   0  0  0  0  0  0  0  0  0  0  0  0
   57.7475   24.7665   42.6575 H   0  0  0  0  0  0  0  0  0  0  0  0
  1  2  1  0
  2  3  2  0
  3  4  1  0
  4  5  1  0
  5  6  1  0
  5  7  1  0
  5  8  1  0
  4  9  1  0
  9 10  1  0
 10 11  2  0
 11 12  1  0
 11 13  1  0
 13 14  1  0
 13 15  2  0
 15 16  1  0
 16 17  1  0
 16 18  1  0
 18 19  1  0
 18 20  1  0
 20 21  1  0
 20 22  1  0
 20 23  1  0
 23 24  1  0
 23 25  1  0
 23 26  1  0
 26 27  1  0
 27 28  2  0
 27 29  1  0
 29 30  1  0
 29 31  1  0
 29 32  1  0
 32 33  1  0
 32 34  1  0
 32 35  1  0
 35 36  2  0
 36 37  1  0
 37 38  1  0
 38 39  1  0
 38 40  2  0
 40 41  1  0
 40 42  1  0
 42 43  1  0
 42 44  2  0
 44 45  1  0
 26 46  1  0
 46 47  1  0
 46 48  1  0
 46 49  1  0
 49 50  1  0
 49 51  1  0
 15 52  1  0
 52 53  1  0
 52 54  2  0
 54 55  1  0
  9 56  2  0
 56 57  1  0
 56  2  1  0
 54 10  1  0
 49 18  1  0
 44 36  1  0
M  CHG  1  37  -1
M  END
>  <UniqueID>  (25) 
25

>  <SMILES>  (25) 
Cn1nccc1-c1ccc(NC2CCN(C(=O)CC/N=c3\cccc[n-]3)CC2)cc1

>  <Energy>  (25) 
96.36840808195758

>  <Genealogy>  (25) 
Cn1nccc1-c1ccc(NC2CCN(C(=O)CCN=c3cccc[n-]3)CC2)cc1 (protonated)
Cn1nccc1-c1ccc(NC2CCN(C(=O)CC/N=c3\cccc[n-]3)CC2)cc1 (cis-trans isomerization)
Cn1nccc1-c1ccc(NC2CCN(C(=O)CC/N=c3\cccc[n-]3)CC2)cc1 (3D coordinates assigned)
Cn1nccc1-c1ccc(NC2CCN(C(=O)CC/N=c3\cccc[n-]3)CC2)cc1 (nonaromatic ring conformer: 96.36840808195758 kcal/mol)

>  <smiles>  (25) 
Cn1nccc1-c1ccc(NC2CCN(C(=O)CCN=c3cccc[nH]3)CC2)cc1

>  <score_type>  (25) 
oracle

>  <origin>  (25) 
adg

>  <m_score__min__energy>  (25) 
-11.27

>  <m_primary>  (25) 
energy

$$$$
25:0
     RDKit          3D

 60 64  0  0  0  0  0  0  0  0999 V2000
   65.3225   33.0591   48.7534 H   0  0  0  0  0  0  0  0  0  0  0  0
   64.2370   33.0710   48.5760 C   0  0  0  0  0  0  0  0  0  0  0  0
   63.3950   33.7770   49.4410 C   0  0  0  0  0  0  0  0  0  0  0  0
   63.8185   34.3215   50.2979 H   0  0  0  0  0  0  0  0  0  0  0  0
   62.0150   33.7910   49.2170 C   0  0  0  0  0  0  0  0  0  0  0  0
   61.3556   34.3510   49.8964 H   0  0  0  0  0  0  0  0  0  0  0  0
   61.4670   33.0930   48.1280 C   0  0  0  0  0  0  0  0  0  0  0  0
   60.0470   33.1150   47.8930 N   0  0  0  0  0  0  0  0  0  0  0  0
   59.0610   32.6590   48.7130 C   0  0  0  0  0  0  0  0  0  0  0  0
   59.3010   32.1230   49.8760 N   0  0  0  0  0  0  0  0  0  0  0  0
   59.7350   30.7450   50.0940 C   0  0  0  0  0  0  0  0  0  0  0  0
   59.0048   30.2334   50.7383 H   0  0  0  0  0  0  0  0  0  0  0  0
   60.7241   30.7561   50.5752 H   0  0  0  0  0  0  0  0  0  0  0  0
   59.8420   29.9960   48.7590 C   0  0  0  0  0  0  0  0  0  0  0  0
   60.8539   29.5747   48.6671 H   0  0  0  0  0  0  0  0  0  0  0  0
   59.6365   30.7105   47.9483 H   0  0  0  0  0  0  0  0  0  0  0  0
   58.8190   28.8570   48.6620 C   0  0  0  0  0  0  0  0  0  0  0  0
   57.9385   29.2097   48.1049 H   0  0  0  0  0  0  0  0  0  0  0  0
   58.5322   28.5534   49.6796 H   0  0  0  0  0  0  0  0  0  0  0  0
   59.3990   27.6860   47.9630 N   0  0  0  0  0  0  0  0  0  0  0  0
   60.4450   28.0660   46.9760 C   0  0  0  0  0  0  0  0  0  0  0  0
   61.2914   27.3719   47.0851 H   0  0  0  0  0  0  0  0  0  0  0  0
   60.7204   29.1090   47.1913 H   0  0  0  0  0  0  0  0  0  0  0  0
   59.9710   28.0250   45.5090 C   0  0  0  0  0  0  0  0  0  0  0  0
   60.1680   27.0260   45.0928 H   0  0  0  0  0  0  0  0  0  0  0  0
   60.5181   28.7889   44.9370 H   0  0  0  0  0  0  0  0  0  0  0  0
   58.5350   28.3080   45.4250 N   0  0  0  0  0  0  0  0  0  0  0  0
   58.0310   29.2920   44.5040 C   0  0  0  0  0  0  0  0  0  0  0  0
   57.0290   28.9480   43.5800 C   0  0  0  0  0  0  0  0  0  0  0  0
   56.6340   27.9216   43.5579 H   0  0  0  0  0  0  0  0  0  0  0  0
   56.5320   29.9040   42.6890 C   0  0  0  0  0  0  0  0  0  0  0  0
   55.7525   29.6265   41.9642 H   0  0  0  0  0  0  0  0  0  0  0  0
   57.0240   31.2110   42.7180 C   0  0  0  0  0  0  0  0  0  0  0  0
   56.6343   31.9610   42.0140 H   0  0  0  0  0  0  0  0  0  0  0  0
   58.0110   31.5660   43.6410 C   0  0  0  0  0  0  0  0  0  0  0  0
   58.3936   32.5970   43.6655 H   0  0  0  0  0  0  0  0  0  0  0  0
   58.5140   30.6140   44.5340 C   0  0  0  0  0  0  0  0  0  0  0  0
   59.4450   30.9890   45.4470 F   0  0  0  0  0  0  0  0  0  0  0  0
   57.6070   27.5200   46.2400 C   0  0  0  0  0  0  0  0  0  0  0  0
   57.1203   26.7647   45.6054 H   0  0  0  0  0  0  0  0  0  0  0  0
   56.8545   28.1953   46.6733 H   0  0  0  0  0  0  0  0  0  0  0  0
   58.3550   26.8140   47.3820 C   0  0  0  0  0  0  0  0  0  0  0  0
   58.8281   25.9016   46.9899 H   0  0  0  0  0  0  0  0  0  0  0  0
   57.6296   26.5688   48.1717 H   0  0  0  0  0  0  0  0  0  0  0  0
   57.8160   32.8430   48.1990 N   0  0  0  0  0  0  0  0  0  0  0  0
   56.8900   32.5850   48.6070 H   0  0  0  0  0  0  0  0  0  0  0  0
   58.0400   33.4380   47.0150 C   0  0  0  0  0  0  0  0  0  0  0  0
   57.1020   33.8320   46.0630 C   0  0  0  0  0  0  0  0  0  0  0  0
   56.0241   33.6945   46.2342 H   0  0  0  0  0  0  0  0  0  0  0  0
   57.5830   34.4120   44.8750 C   0  0  0  0  0  0  0  0  0  0  0  0
   56.8733   34.7432   44.1026 H   0  0  0  0  0  0  0  0  0  0  0  0
   58.9710   34.5720   44.6670 C   0  0  0  0  0  0  0  0  0  0  0  0
   59.3341   35.0207   43.7306 H   0  0  0  0  0  0  0  0  0  0  0  0
   59.8930   34.1620   45.6480 C   0  0  0  0  0  0  0  0  0  0  0  0
   60.9762   34.2751   45.4933 H   0  0  0  0  0  0  0  0  0  0  0  0
   59.3850   33.6060   46.8260 C   0  0  0  0  0  0  0  0  0  0  0  0
   62.3200   32.3930   47.2600 C   0  0  0  0  0  0  0  0  0  0  0  0
   61.9015   31.8521   46.3984 H   0  0  0  0  0  0  0  0  0  0  0  0
   63.7000   32.3810   47.4870 C   0  0  0  0  0  0  0  0  0  0  0  0
   64.3636   31.8271   46.8066 H   0  0  0  0  0  0  0  0  0  0  0  0
  1  2  1  0
  2  3  2  0
  3  4  1  0
  3  5  1  0
  5  6  1  0
  5  7  2  0
  7  8  1  0
  8  9  1  0
  9 10  2  0
 10 11  1  0
 11 12  1  0
 11 13  1  0
 11 14  1  0
 14 15  1  0
 14 16  1  0
 14 17  1  0
 17 18  1  0
 17 19  1  0
 17 20  1  0
 20 21  1  0
 21 22  1  0
 21 23  1  0
 21 24  1  0
 24 25  1  0
 24 26  1  0
 24 27  1  0
 27 28  1  0
 28 29  2  0
 29 30  1  0
 29 31  1  0
 31 32  1  0
 31 33  2  0
 33 34  1  0
 33 35  1  0
 35 36  1  0
 35 37  2  0
 37 38  1  0
 27 39  1  0
 39 40  1  0
 39 41  1  0
 39 42  1  0
 42 43  1  0
 42 44  1  0
  9 45  1  0
 45 46  1  0
 45 47  1  0
 47 48  2  0
 48 49  1  0
 48 50  1  0
 50 51  1  0
 50 52  2  0
 52 53  1  0
 52 54  1  0
 54 55  1  0
 54 56  2  0
  7 57  1  0
 57 58  1  0
 57 59  2  0
 59 60  1  0
 59  2  1  0
 56  8  1  0
 42 20  1  0
 56 47  1  0
 37 28  1  0
M  END
>  <UniqueID>  (26) 
26

>  <SMILES>  (26) 
Fc1ccccc1N1CCN(CCC/N=c2\[nH]c3ccccc3n2-c2ccccc2)CC1

>  <Energy>  (26) 
120.00498646398702

>  <Genealogy>  (26) 
Fc1ccccc1N1CCN(CCC/N=c2\[nH]c3ccccc3n2-c2ccccc2)CC1 (cis-trans isomerization)
Fc1ccccc1N1CCN(CCC/N=c2\[nH]c3ccccc3n2-c2ccccc2)CC1 (3D coordinates assigned)
Fc1ccccc1N1CCN(CCC/N=c2\[nH]c3ccccc3n2-c2ccccc2)CC1 (nonaromatic ring conformer: 120.00498646398702 kcal/mol)

>  <smiles>  (26) 
Fc1ccccc1N1CCN(CCCN=c2[nH]c3ccccc3n2-c2ccccc2)CC1

>  <score_type>  (26) 
oracle

>  <origin>  (26) 
adg

>  <m_score__min__energy>  (26) 
-9.7799999999999994

>  <m_primary>  (26) 
energy

$$$$
26:0
     RDKit          3D

 28 30  0  0  0  0  0  0  0  0999 V2000
   65.0310   33.0020   49.7650 Br  0  0  0  0  0  0  0  0  0  0  0  0
   63.4070   33.4130   48.8480 C   0  0  0  0  0  0  0  0  0  0  0  0
   62.3100   33.9100   49.5580 C   0  0  0  0  0  0  0  0  0  0  0  0
   61.1200   34.2120   48.8880 C   0  0  0  0  0  0  0  0  0  0  0  0
   61.0240   34.0270   47.4950 C   0  0  0  0  0  0  0  0  0  0  0  0
   59.8470   34.3100   46.7860 O   0  0  0  0  0  0  0  0  0  0  0  0
   59.1270   33.3810   46.0210 C   0  0  0  0  0  0  0  0  0  0  0  0
   58.4890   33.8250   44.8610 C   0  0  0  0  0  0  0  0  0  0  0  0
   57.7700   32.9360   44.0610 C   0  0  0  0  0  0  0  0  0  0  0  0
   57.6600   31.5880   44.4150 C   0  0  0  0  0  0  0  0  0  0  0  0
   56.6520   30.4400   43.2510 Br  0  0  0  0  0  0  0  0  0  0  0  0
   58.2700   31.1240   45.6020 C   0  0  0  0  0  0  0  0  0  0  0  0
   58.1690   29.7860   46.0220 C   0  0  0  0  0  0  0  0  0  0  0  0
   58.7650   29.3790   47.2160 C   0  0  0  0  0  0  0  0  0  0  0  0
   59.4570   30.3100   47.9890 C   0  0  0  0  0  0  0  0  0  0  0  0
   59.5560   31.5990   47.5760 N   0  0  0  0  0  0  0  0  0  0  0  0
   59.0000   32.0320   46.4110 C   0  0  0  0  0  0  0  0  0  0  0  0
   62.1230   33.5130   46.7960 C   0  0  0  0  0  0  0  0  0  0  0  0
   63.3110   33.2120   47.4680 C   0  0  0  0  0  0  0  0  0  0  0  0
   62.3829   34.0637   50.6448 H   0  0  0  0  0  0  0  0  0  0  0  0
   60.2561   34.5953   49.4509 H   0  0  0  0  0  0  0  0  0  0  0  0
   58.5538   34.8852   44.5752 H   0  0  0  0  0  0  0  0  0  0  0  0
   57.2851   33.2994   43.1430 H   0  0  0  0  0  0  0  0  0  0  0  0
   57.6187   29.0582   45.4076 H   0  0  0  0  0  0  0  0  0  0  0  0
   58.6895   28.3320   47.5447 H   0  0  0  0  0  0  0  0  0  0  0  0
   59.9237   29.9994   48.9354 H   0  0  0  0  0  0  0  0  0  0  0  0
   62.0510   33.3451   45.7113 H   0  0  0  0  0  0  0  0  0  0  0  0
   64.1722   32.8161   46.9098 H   0  0  0  0  0  0  0  0  0  0  0  0
  1  2  1  0
  2  3  2  0
  3  4  1  0
  4  5  2  0
  5  6  1  0
  6  7  1  0
  7  8  2  0
  8  9  1  0
  9 10  2  0
 10 11  1  0
 10 12  1  0
 12 13  2  0
 13 14  1  0
 14 15  2  0
 15 16  1  0
 16 17  2  0
  5 18  1  0
 18 19  2  0
 19  2  1  0
 17  7  1  0
 17 12  1  0
  3 20  1  0
  4 21  1  0
  8 22  1  0
  9 23  1  0
 13 24  1  0
 14 25  1  0
 15 26  1  0
 18 27  1  0
 19 28  1  0
M  END
>  <UniqueID>  (27) 
27

>  <SMILES>  (27) 
Brc1ccc(Oc2ccc(Br)c3cccnc23)cc1

>  <Energy>  (27) 
43.636028010287816

>  <Genealogy>  (27) 
Brc1ccc(Oc2ccc(Br)c3cccnc23)cc1 (3D coordinates assigned)
Brc1ccc(Oc2ccc(Br)c3cccnc23)cc1 (optimized conformer: 43.636028010287816 kcal/mol)

>  <smiles>  (27) 
Brc1ccc(Oc2ccc(Br)c3cccnc23)cc1

>  <score_type>  (27) 
oracle

>  <origin>  (27) 
adg

>  <m_score__min__energy>  (27) 
-7.3200000000000003

>  <m_primary>  (27) 
energy

$$$$
27:0
     RDKit          3D

 39 42  0  0  0  0  0  0  0  0999 V2000
   58.3320   35.0550   44.3300 H   0  0  0  0  0  0  0  0  0  0  0  0
   58.3320   34.0220   44.4850 N   0  0  0  0  0  0  0  0  0  0  0  0
   59.0850   33.4270   45.3610 C   0  0  0  0  0  0  0  0  0  0  0  0
   60.1110   34.2140   46.0650 C   0  0  0  0  0  0  0  0  0  0  0  0
   60.0910   35.4750   46.0180 O   0  0  0  0  0  0  0  0  0  0  0  0
   61.1990   33.5010   46.7570 C   0  0  0  0  0  0  0  0  0  0  0  0
   62.4340   34.1390   46.9630 C   0  0  0  0  0  0  0  0  0  0  0  0
   62.5315   35.2180   46.7727 H   0  0  0  0  0  0  0  0  0  0  0  0
   63.5350   33.4110   47.4070 C   0  0  0  0  0  0  0  0  0  0  0  0
   64.4914   33.9198   47.5978 H   0  0  0  0  0  0  0  0  0  0  0  0
   63.4230   32.0380   47.6090 C   0  0  0  0  0  0  0  0  0  0  0  0
   64.3058   31.4558   47.9120 H   0  0  0  0  0  0  0  0  0  0  0  0
   62.1960   31.3960   47.4290 C   0  0  0  0  0  0  0  0  0  0  0  0
   62.1296   30.3064   47.5642 H   0  0  0  0  0  0  0  0  0  0  0  0
   61.0360   32.1270   47.0750 C   0  0  0  0  0  0  0  0  0  0  0  0
   59.6040   31.5240   47.0020 C   0  0  2  0  0  0  0  0  0  0  0  0
   58.7400   32.1860   48.0870 C   0  0  0  0  0  0  0  0  0  0  0  0
   57.6380   32.7090   47.7640 O   0  0  0  0  0  0  0  0  0  0  0  0
   59.0940   32.2140   49.5300 C   0  0  0  0  0  0  0  0  0  0  0  0
   59.3200   33.4810   50.1020 C   0  0  0  0  0  0  0  0  0  0  0  0
   59.3752   34.3664   49.4516 H   0  0  0  0  0  0  0  0  0  0  0  0
   59.4750   33.6310   51.4810 C   0  0  0  0  0  0  0  0  0  0  0  0
   59.6699   34.6260   51.9076 H   0  0  0  0  0  0  0  0  0  0  0  0
   59.3830   32.5220   52.3160 C   0  0  0  0  0  0  0  0  0  0  0  0
   59.4831   32.6434   53.4047 H   0  0  0  0  0  0  0  0  0  0  0  0
   59.1640   31.2570   51.7730 C   0  0  0  0  0  0  0  0  0  0  0  0
   59.0912   30.3860   52.4408 H   0  0  0  0  0  0  0  0  0  0  0  0
   59.0350   31.0780   50.3870 C   0  0  0  0  0  0  0  0  0  0  0  0
   58.9120   29.3620   49.8360 S   0  0  0  0  0  0  0  0  0  0  0  0
   60.1390   29.4030   48.4990 C   0  0  0  0  0  0  0  0  0  0  0  0
   60.5041   28.3811   48.3191 H   0  0  0  0  0  0  0  0  0  0  0  0
   60.9599   30.0669   48.8079 H   0  0  0  0  0  0  0  0  0  0  0  0
   59.5390   29.9580   47.1880 C   0  0  0  0  0  0  0  0  0  0  0  0
   58.4812   29.6588   47.1496 H   0  0  0  0  0  0  0  0  0  0  0  0
   60.1568   29.5390   46.3801 H   0  0  0  0  0  0  0  0  0  0  0  0
   59.0610   31.9150   45.5630 C   0  0  1  0  0  0  0  0  0  0  0  0
   59.7457   31.4472   44.8403 H   0  0  0  0  0  0  0  0  0  0  0  0
   57.7110   31.3700   45.2790 C   0  0  0  0  0  0  0  0  0  0  0  0
   56.6580   30.9450   45.0550 N   0  0  0  0  0  0  0  0  0  0  0  0
  1  2  1  0
  2  3  2  0
  3  4  1  0
  4  5  2  0
  4  6  1  0
  6  7  2  0
  7  8  1  0
  7  9  1  0
  9 10  1  0
  9 11  2  0
 11 12  1  0
 11 13  1  0
 13 14  1  0
 13 15  2  0
 15 16  1  0
 16 17  1  0
 17 18  2  0
 17 19  1  0
 19 20  2  0
 20 21  1  0
 20 22  1  0
 22 23  1  0
 22 24  2  0
 24 25  1  0
 24 26  1  0
 26 27  1  0
 26 28  2  0
 28 29  1  0
 29 30  1  0
 30 31  1  0
 30 32  1  0
 30 33  1  0
 33 34  1  0
 33 35  1  0
 16 36  1  0
 36 37  1  6
 36 38  1  0
 38 39  3  0
 36  3  1  0
 15  6  1  0
 16 33  1  1
 28 19  1  0
M  END
>  <UniqueID>  (28) 
28

>  <SMILES>  (28) 
[H]/N=C1/C(=O)c2ccccc2[C@]2(CCSc3ccccc3C2=O)[C@H]1C#N

>  <Energy>  (28) 
84.13718747533373

>  <Genealogy>  (28) 
N#C[C@H]1C(=N)C(=O)c2ccccc2[C@]12CCSc1ccccc1C2=O (chirality)
[H]/N=C1/C(=O)c2ccccc2[C@]2(CCSc3ccccc3C2=O)[C@H]1C#N (cis-trans isomerization)
[H]/N=C1/C(=O)c2ccccc2[C@]2(CCSc3ccccc3C2=O)[C@H]1C#N (3D coordinates assigned)
[H]/N=C1/C(=O)c2ccccc2[C@]2(CCSc3ccccc3C2=O)[C@H]1C#N (nonaromatic ring conformer: 84.13718747533373 kcal/mol)

>  <smiles>  (28) 
N#CC1C(=N)C(=O)c2ccccc2C12CCSc1ccccc1C2=O

>  <score_type>  (28) 
oracle

>  <origin>  (28) 
adg

>  <m_score__min__energy>  (28) 
-6.3700000000000001

>  <m_primary>  (28) 
energy

$$$$
28:0
     RDKit          3D

 33 34  0  0  0  0  0  0  0  0999 V2000
   55.1110   29.4830   44.1540 N   0  0  0  0  0  0  0  0  0  0  0  0
   56.3790   29.5850   43.5030 C   0  0  0  0  0  0  0  0  0  0  0  0
   56.8960   31.0520   42.9760 S   0  0  0  0  0  0  0  0  0  0  0  0
   57.2270   28.4300   43.3770 N   0  0  0  0  0  0  0  0  0  0  0  0
   57.8510   28.1420   44.6460 C   0  0  0  0  0  0  0  0  0  0  0  0
   59.2310   28.3510   44.8130 C   0  0  0  0  0  0  0  0  0  0  0  0
   59.8450   28.1050   46.0440 C   0  0  0  0  0  0  0  0  0  0  0  0
   59.0860   27.6500   47.1380 C   0  0  0  0  0  0  0  0  0  0  0  0
   59.6510   27.3960   48.3980 O   0  0  0  0  0  0  0  0  0  0  0  0
   60.1020   28.3910   49.3170 C   0  0  0  0  0  0  0  0  0  0  0  0
   60.0380   29.7620   48.6960 C   0  0  0  0  0  0  0  0  0  0  0  0
   58.8640   30.5280   48.7990 C   0  0  0  0  0  0  0  0  0  0  0  0
   58.8030   31.8040   48.2310 C   0  0  0  0  0  0  0  0  0  0  0  0
   59.9140   32.3270   47.5630 C   0  0  0  0  0  0  0  0  0  0  0  0
   61.0890   31.5760   47.4670 C   0  0  0  0  0  0  0  0  0  0  0  0
   61.1540   30.3000   48.0340 C   0  0  0  0  0  0  0  0  0  0  0  0
   57.7140   27.4380   46.9730 C   0  0  0  0  0  0  0  0  0  0  0  0
   57.0930   27.6830   45.7440 C   0  0  0  0  0  0  0  0  0  0  0  0
   55.7250   27.4650   45.6210 O   0  0  0  0  0  0  0  0  0  0  0  0
   54.7610   28.5600   44.4940 H   0  0  0  0  0  0  0  0  0  0  0  0
   54.5090   30.3250   44.2840 H   0  0  0  0  0  0  0  0  0  0  0  0
   57.9580   28.6040   42.6490 H   0  0  0  0  0  0  0  0  0  0  0  0
   56.6620   27.6130   43.0490 H   0  0  0  0  0  0  0  0  0  0  0  0
   59.8335   28.7117   43.9663 H   0  0  0  0  0  0  0  0  0  0  0  0
   60.9269   28.2678   46.1583 H   0  0  0  0  0  0  0  0  0  0  0  0
   59.4634   28.3707   50.2124 H   0  0  0  0  0  0  0  0  0  0  0  0
   61.1464   28.1745   49.5861 H   0  0  0  0  0  0  0  0  0  0  0  0
   57.9897   30.1218   49.3287 H   0  0  0  0  0  0  0  0  0  0  0  0
   57.8799   32.3970   48.3098 H   0  0  0  0  0  0  0  0  0  0  0  0
   59.8636   33.3294   47.1129 H   0  0  0  0  0  0  0  0  0  0  0  0
   61.9640   31.9898   46.9444 H   0  0  0  0  0  0  0  0  0  0  0  0
   62.0827   29.7149   47.9615 H   0  0  0  0  0  0  0  0  0  0  0  0
   57.1151   27.0738   47.8208 H   0  0  0  0  0  0  0  0  0  0  0  0
  1  2  1  0
  2  3  2  0
  2  4  1  0
  4  5  1  0
  5  6  2  0
  6  7  1  0
  7  8  2  0
  8  9  1  0
  9 10  1  0
 10 11  1  0
 11 12  2  0
 12 13  1  0
 13 14  2  0
 14 15  1  0
 15 16  2  0
  8 17  1  0
 17 18  2  0
 18 19  1  0
 18  5  1  0
 16 11  1  0
  1 20  1  0
  1 21  1  0
  4 22  1  0
  4 23  1  0
  6 24  1  0
  7 25  1  0
 10 26  1  0
 10 27  1  0
 12 28  1  0
 13 29  1  0
 14 30  1  0
 15 31  1  0
 16 32  1  0
 17 33  1  0
M  CHG  2   4   1  19  -1
M  END
>  <UniqueID>  (29) 
29

>  <SMILES>  (29) 
NC(=S)[NH2+]c1ccc(OCc2ccccc2)cc1[O-]

>  <Energy>  (29) 
33.7167683508223

>  <Genealogy>  (29) 
NC(=S)[NH2+]c1ccc(OCc2ccccc2)cc1[O-] (protonated)
NC(=S)[NH2+]c1ccc(OCc2ccccc2)cc1[O-] (3D coordinates assigned)
NC(=S)[NH2+]c1ccc(OCc2ccccc2)cc1[O-] (optimized conformer: 33.7167683508223 kcal/mol)

>  <smiles>  (29) 
NC(=S)Nc1ccc(OCc2ccccc2)cc1O

>  <score_type>  (29) 
oracle

>  <origin>  (29) 
adg

>  <m_score__min__energy>  (29) 
-9.7100000000000009

>  <m_primary>  (29) 
energy

$$$$
29:0
     RDKit          3D

 40 42  0  0  0  0  0  0  0  0999 V2000
   55.1820   29.7110   43.7520 C   0  0  0  0  0  0  0  0  0  0  0  0
   56.4950   30.2100   44.2590 C   0  0  0  0  0  0  0  0  0  0  0  0
   56.6510   31.3780   44.8370 O   0  0  0  0  0  0  0  0  0  0  0  0
   57.9240   31.4970   45.1530 C   0  0  0  0  0  0  0  0  0  0  0  0
   58.4840   32.6840   45.8360 C   0  0  0  0  0  0  0  0  0  0  0  0
   58.7920   33.8250   45.0750 C   0  0  0  0  0  0  0  0  0  0  0  0
   59.3200   34.9650   45.6860 C   0  0  0  0  0  0  0  0  0  0  0  0
   59.5580   34.9760   47.0610 C   0  0  0  0  0  0  0  0  0  0  0  0
   59.2720   33.8430   47.8270 C   0  0  0  0  0  0  0  0  0  0  0  0
   58.7420   32.6970   47.2230 C   0  0  0  0  0  0  0  0  0  0  0  0
   58.5320   31.5990   47.9910 F   0  0  0  0  0  0  0  0  0  0  0  0
   58.6290   30.4010   44.7960 N   0  0  0  0  0  0  0  0  0  0  0  0
   57.7330   29.5870   44.2080 C   0  0  0  0  0  0  0  0  0  0  0  0
   58.0770   28.2270   43.6580 C   0  0  0  0  0  0  0  0  0  0  0  0
   58.7220   27.3360   44.6470 N   0  0  0  0  0  0  0  0  0  0  0  0
   59.9340   27.8780   45.3060 C   0  0  0  0  0  0  0  0  0  0  0  0
   59.8950   27.7790   46.8370 C   0  0  0  0  0  0  0  0  0  0  0  0
   58.5130   28.1610   47.3550 C   0  0  0  0  0  0  0  0  0  0  0  0
   57.4390   27.2020   46.8250 C   0  0  0  0  0  0  0  0  0  0  0  0
   57.8110   26.5280   45.4860 C   0  0  0  0  0  0  0  0  0  0  0  0
   54.5305   29.4634   44.6030 H   0  0  0  0  0  0  0  0  0  0  0  0
   54.7051   30.4906   43.1398 H   0  0  0  0  0  0  0  0  0  0  0  0
   55.3432   28.8115   43.1398 H   0  0  0  0  0  0  0  0  0  0  0  0
   58.6158   33.8202   43.9892 H   0  0  0  0  0  0  0  0  0  0  0  0
   59.5486   35.8556   45.0821 H   0  0  0  0  0  0  0  0  0  0  0  0
   59.9703   35.8756   47.5413 H   0  0  0  0  0  0  0  0  0  0  0  0
   59.4643   33.8517   48.9100 H   0  0  0  0  0  0  0  0  0  0  0  0
   59.6380   30.1970   44.9650 H   0  0  0  0  0  0  0  0  0  0  0  0
   57.1501   27.7476   43.3100 H   0  0  0  0  0  0  0  0  0  0  0  0
   58.7989   28.3811   42.8424 H   0  0  0  0  0  0  0  0  0  0  0  0
   60.8079   27.3171   44.9431 H   0  0  0  0  0  0  0  0  0  0  0  0
   59.9893   28.9469   45.0524 H   0  0  0  0  0  0  0  0  0  0  0  0
   60.1240   26.7467   47.1402 H   0  0  0  0  0  0  0  0  0  0  0  0
   60.6399   28.4690   47.2601 H   0  0  0  0  0  0  0  0  0  0  0  0
   58.5182   28.1222   48.4543 H   0  0  0  0  0  0  0  0  0  0  0  0
   58.2775   29.1768   47.0047 H   0  0  0  0  0  0  0  0  0  0  0  0
   57.2758   26.4149   47.5759 H   0  0  0  0  0  0  0  0  0  0  0  0
   56.5358   27.8025   46.6414 H   0  0  0  0  0  0  0  0  0  0  0  0
   58.3006   25.5676   45.7048 H   0  0  0  0  0  0  0  0  0  0  0  0
   56.8770   26.4031   44.9184 H   0  0  0  0  0  0  0  0  0  0  0  0
  1  2  1  0
  2  3  1  0
  3  4  1  0
  4  5  1  0
  5  6  2  0
  6  7  1  0
  7  8  2  0
  8  9  1  0
  9 10  2  0
 10 11  1  0
  4 12  2  0
 12 13  1  0
 13 14  1  0
 14 15  1  0
 15 16  1  0
 16 17  1  0
 17 18  1  0
 18 19  1  0
 19 20  1  0
 13  2  2  0
 20 15  1  0
 10  5  1  0
  1 21  1  0
  1 22  1  0
  1 23  1  0
  6 24  1  0
  7 25  1  0
  8 26  1  0
  9 27  1  0
 12 28  1  0
 14 29  1  0
 14 30  1  0
 16 31  1  0
 16 32  1  0
 17 33  1  0
 17 34  1  0
 18 35  1  0
 18 36  1  0
 19 37  1  0
 19 38  1  0
 20 39  1  0
 20 40  1  0
M  CHG  1  12   1
M  END
>  <UniqueID>  (30) 
30

>  <SMILES>  (30) 
Cc1oc(-c2ccccc2F)[nH+]c1CN1CCCCC1

>  <Energy>  (30) 
84.45549791549539

>  <Genealogy>  (30) 
Cc1oc(-c2ccccc2F)[nH+]c1CN1CCCCC1 (protonated)
Cc1oc(-c2ccccc2F)[nH+]c1CN1CCCCC1 (3D coordinates assigned)
Cc1oc(-c2ccccc2F)[nH+]c1CN1CCCCC1 (nonaromatic ring conformer: 84.45549791549539 kcal/mol)

>  <smiles>  (30) 
Cc1oc(-c2ccccc2F)nc1CN1CCCCC1

>  <score_type>  (30) 
oracle

>  <origin>  (30) 
adg

>  <m_score__min__energy>  (30) 
-5.3200000000000003

>  <m_primary>  (30) 
energy

$$$$
30:0
     RDKit          3D

 26 27  0  0  0  0  0  0  0  0999 V2000
   55.5150   28.9910   44.9350 O   0  0  0  0  0  0  0  0  0  0  0  0
   56.6500   29.8200   44.4040 S   0  0  0  0  0  0  0  0  0  0  0  0
   56.7140   29.6520   42.9120 O   0  0  0  0  0  0  0  0  0  0  0  0
   56.3730   31.4900   44.7930 N   0  0  0  0  0  0  0  0  0  0  0  0
   57.5010   32.2990   44.3350 C   0  0  0  0  0  0  0  0  0  0  0  0
   57.3930   33.7150   44.9020 C   0  0  0  0  0  0  0  0  0  0  0  0
   58.3000   33.9010   46.0800 C   0  0  0  0  0  0  0  0  0  0  0  0
   58.2580   33.1690   47.2610 C   0  0  0  0  0  0  0  0  0  0  0  0
   59.2710   33.5210   48.1610 C   0  0  0  0  0  0  0  0  0  0  0  0
   60.1160   34.5180   47.6890 C   0  0  0  0  0  0  0  0  0  0  0  0
   59.6040   34.9600   46.1490 S   0  0  0  0  0  0  0  0  0  0  0  0
   58.1500   29.2650   45.1260 C   0  0  0  0  0  0  0  0  0  0  0  0
   59.1240   28.5160   44.4840 C   0  0  0  0  0  0  0  0  0  0  0  0
   60.1990   28.1920   45.3200 C   0  0  0  0  0  0  0  0  0  0  0  0
   60.0670   28.6820   46.6140 C   0  0  0  0  0  0  0  0  0  0  0  0
   58.6100   29.5180   46.7210 S   0  0  0  0  0  0  0  0  0  0  0  0
   58.4407   31.8404   44.6766 H   0  0  0  0  0  0  0  0  0  0  0  0
   57.4878   32.3479   43.2362 H   0  0  0  0  0  0  0  0  0  0  0  0
   57.6700   34.4364   44.1192 H   0  0  0  0  0  0  0  0  0  0  0  0
   56.3567   33.8781   45.2329 H   0  0  0  0  0  0  0  0  0  0  0  0
   57.5062   32.3930   47.4672 H   0  0  0  0  0  0  0  0  0  0  0  0
   59.3871   33.0522   49.1493 H   0  0  0  0  0  0  0  0  0  0  0  0
   60.9732   34.9452   48.2300 H   0  0  0  0  0  0  0  0  0  0  0  0
   59.0590   28.2089   43.4297 H   0  0  0  0  0  0  0  0  0  0  0  0
   61.0666   27.6049   44.9845 H   0  0  0  0  0  0  0  0  0  0  0  0
   60.7920   28.5464   47.4301 H   0  0  0  0  0  0  0  0  0  0  0  0
  1  2  2  0
  2  3  2  0
  2  4  1  0
  4  5  1  0
  5  6  1  0
  6  7  1  0
  7  8  2  0
  8  9  1  0
  9 10  2  0
 10 11  1  0
  2 12  1  0
 12 13  2  0
 13 14  1  0
 14 15  2  0
 15 16  1  0
 11  7  1  0
 16 12  1  0
  5 17  1  0
  5 18  1  0
  6 19  1  0
  6 20  1  0
  8 21  1  0
  9 22  1  0
 10 23  1  0
 13 24  1  0
 14 25  1  0
 15 26  1  0
M  CHG  1   4  -1
M  END
>  <UniqueID>  (31) 
31

>  <SMILES>  (31) 
O=S(=O)([N-]CCc1cccs1)c1cccs1

>  <Energy>  (31) 
72.7796370097783

>  <Genealogy>  (31) 
O=S(=O)([N-]CCc1cccs1)c1cccs1 (protonated)
O=S(=O)([N-]CCc1cccs1)c1cccs1 (3D coordinates assigned)
O=S(=O)([N-]CCc1cccs1)c1cccs1 (optimized conformer: 72.7796370097783 kcal/mol)

>  <smiles>  (31) 
O=S(=O)(NCCc1cccs1)c1cccs1

>  <score_type>  (31) 
oracle

>  <origin>  (31) 
adg

>  <m_score__min__energy>  (31) 
-8.3800000000000008

>  <m_primary>  (31) 
energy

$$$$
31:0
     RDKit          3D

 29 30  0  0  0  0  0  0  0  0999 V2000
   56.6500   33.4000   45.6210 N   0  0  0  0  0  0  0  0  0  0  0  0
   57.8470   32.9250   45.8070 C   0  0  0  0  0  0  0  0  0  0  0  0
   58.5060   32.1910   44.7620 N   0  0  0  0  0  0  0  0  0  0  0  0
   57.8990   31.9430   43.5730 O   0  0  0  0  0  0  0  0  0  0  0  0
   56.9660   30.5530   43.8020 S   0  0  0  0  0  0  0  0  0  0  0  0
   55.8860   30.8480   44.8040 O   0  0  0  0  0  0  0  0  0  0  0  0
   56.3170   30.1400   42.5100 O   0  0  0  0  0  0  0  0  0  0  0  0
   57.9630   29.2450   44.4150 C   0  0  0  0  0  0  0  0  0  0  0  0
   57.9820   27.9490   43.9250 C   0  0  0  0  0  0  0  0  0  0  0  0
   58.8540   27.1120   44.6310 C   0  0  0  0  0  0  0  0  0  0  0  0
   59.5180   27.7490   45.6720 C   0  0  0  0  0  0  0  0  0  0  0  0
   59.0200   29.3550   45.7160 S   0  0  0  0  0  0  0  0  0  0  0  0
   58.5660   33.2050   47.0750 C   0  0  0  0  0  0  0  0  0  0  0  0
   58.4320   32.3070   48.1500 C   0  0  0  0  0  0  0  0  0  0  0  0
   59.0790   32.5500   49.3650 C   0  0  0  0  0  0  0  0  0  0  0  0
   59.8660   33.6910   49.5210 C   0  0  0  0  0  0  0  0  0  0  0  0
   60.0130   34.5890   48.4630 C   0  0  0  0  0  0  0  0  0  0  0  0
   59.3700   34.3570   47.2400 C   0  0  0  0  0  0  0  0  0  0  0  0
   59.6560   35.4990   45.9320 Cl  0  0  0  0  0  0  0  0  0  0  0  0
   56.0260   33.0290   44.8710 H   0  0  0  0  0  0  0  0  0  0  0  0
   56.2700   34.1650   46.2240 H   0  0  0  0  0  0  0  0  0  0  0  0
   59.5200   31.9580   44.8610 H   0  0  0  0  0  0  0  0  0  0  0  0
   57.3755   27.6132   43.0709 H   0  0  0  0  0  0  0  0  0  0  0  0
   58.9998   26.0499   44.3848 H   0  0  0  0  0  0  0  0  0  0  0  0
   60.2459   27.2823   46.3520 H   0  0  0  0  0  0  0  0  0  0  0  0
   57.8125   31.4056   48.0332 H   0  0  0  0  0  0  0  0  0  0  0  0
   58.9674   31.8410   50.1986 H   0  0  0  0  0  0  0  0  0  0  0  0
   60.3713   33.8832   50.4790 H   0  0  0  0  0  0  0  0  0  0  0  0
   60.6380   35.4852   48.5901 H   0  0  0  0  0  0  0  0  0  0  0  0
  1  2  2  0
  2  3  1  0
  3  4  1  0
  4  5  1  0
  5  6  2  0
  5  7  2  0
  5  8  1  0
  8  9  2  0
  9 10  1  0
 10 11  2  0
 11 12  1  0
  2 13  1  0
 13 14  2  0
 14 15  1  0
 15 16  2  0
 16 17  1  0
 17 18  2  0
 18 19  1  0
 12  8  1  0
 18 13  1  0
  1 20  1  0
  1 21  1  0
  3 22  1  0
  9 23  1  0
 10 24  1  0
 11 25  1  0
 14 26  1  0
 15 27  1  0
 16 28  1  0
 17 29  1  0
M  CHG  1   1   1
M  END
>  <UniqueID>  (32) 
32

>  <SMILES>  (32) 
[NH2+]=C(NOS(=O)(=O)c1cccs1)c1ccccc1Cl

>  <Energy>  (32) 
58.91977672635915

>  <Genealogy>  (32) 
[NH2+]=C(NOS(=O)(=O)c1cccs1)c1ccccc1Cl (protonated)
[NH2+]=C(NOS(=O)(=O)c1cccs1)c1ccccc1Cl (3D coordinates assigned)
[NH2+]=C(NOS(=O)(=O)c1cccs1)c1ccccc1Cl (optimized conformer: 58.91977672635915 kcal/mol)

>  <smiles>  (32) 
N=C(NOS(=O)(=O)c1cccs1)c1ccccc1Cl

>  <score_type>  (32) 
oracle

>  <origin>  (32) 
adg

>  <m_score__min__energy>  (32) 
-6.6600000000000001

>  <m_primary>  (32) 
energy

$$$$
32:0
     RDKit          3D

 50 51  0  0  0  0  0  0  0  0999 V2000
   66.9480   32.6390   50.4950 C   0  0  0  0  0  0  0  0  0  0  0  0
   65.6770   32.0990   50.8410 O   0  0  0  0  0  0  0  0  0  0  0  0
   64.5610   32.0930   49.9920 C   0  0  0  0  0  0  0  0  0  0  0  0
   63.4780   31.2150   50.1730 C   0  0  0  0  0  0  0  0  0  0  0  0
   62.3880   31.2530   49.3000 C   0  0  0  0  0  0  0  0  0  0  0  0
   62.3540   32.1680   48.2340 C   0  0  0  0  0  0  0  0  0  0  0  0
   61.1830   32.1930   47.3210 C   0  0  0  0  0  0  0  0  0  0  0  0
   60.5280   33.3900   46.9870 C   0  0  0  0  0  0  0  0  0  0  0  0
   59.4140   33.3370   46.1380 C   0  0  0  0  0  0  0  0  0  0  0  0
   58.6890   34.5960   45.7600 C   0  0  0  0  0  0  0  0  0  0  0  0
   59.1080   35.0190   44.5110 F   0  0  0  0  0  0  0  0  0  0  0  0
   58.9400   35.5970   46.6780 F   0  0  0  0  0  0  0  0  0  0  0  0
   57.3290   34.3530   45.7250 F   0  0  0  0  0  0  0  0  0  0  0  0
   58.9920   32.1380   45.6610 N   0  0  0  0  0  0  0  0  0  0  0  0
   59.6310   30.9880   45.9910 C   0  0  0  0  0  0  0  0  0  0  0  0
   59.0550   29.4600   45.3650 S   0  0  0  0  0  0  0  0  0  0  0  0
   60.2880   28.6270   44.5830 O   0  0  0  0  0  0  0  0  0  0  0  0
   57.6370   29.6790   44.3120 C   0  0  0  0  0  0  0  0  0  0  0  0
   56.4740   28.9040   44.8610 C   0  0  0  0  0  0  0  0  0  0  0  0
   55.3770   29.4940   45.0380 O   0  0  0  0  0  0  0  0  0  0  0  0
   56.5940   27.5320   45.2540 N   0  0  0  0  0  0  0  0  0  0  0  0
   57.0330   27.0880   46.5750 C   0  0  0  0  0  0  0  0  0  0  0  0
   58.2750   26.1870   46.4620 C   0  0  0  0  0  0  0  0  0  0  0  0
   59.5690   26.8630   46.7150 N   0  0  0  0  0  0  0  0  0  0  0  0
   60.7360   26.0270   46.3860 C   0  0  0  0  0  0  0  0  0  0  0  0
   59.6770   27.4290   48.0670 C   0  0  0  0  0  0  0  0  0  0  0  0
   60.7100   31.0220   46.8120 N   0  0  0  0  0  0  0  0  0  0  0  0
   63.4480   33.0340   48.0510 C   0  0  0  0  0  0  0  0  0  0  0  0
   64.5360   32.9950   48.9250 C   0  0  0  0  0  0  0  0  0  0  0  0
   67.5073   32.8766   51.4119 H   0  0  0  0  0  0  0  0  0  0  0  0
   67.5106   31.9022   49.9029 H   0  0  0  0  0  0  0  0  0  0  0  0
   66.8082   33.5554   49.9029 H   0  0  0  0  0  0  0  0  0  0  0  0
   63.4889   30.4955   51.0050 H   0  0  0  0  0  0  0  0  0  0  0  0
   61.5474   30.5593   49.4486 H   0  0  0  0  0  0  0  0  0  0  0  0
   60.8832   34.3521   47.3848 H   0  0  0  0  0  0  0  0  0  0  0  0
   60.1430   27.6750   44.8180 H   0  0  0  0  0  0  0  0  0  0  0  0
   57.3763   30.7467   44.2672 H   0  0  0  0  0  0  0  0  0  0  0  0
   57.8737   29.3137   43.3018 H   0  0  0  0  0  0  0  0  0  0  0  0
   57.2797   27.9675   47.1878 H   0  0  0  0  0  0  0  0  0  0  0  0
   56.2204   26.5124   47.0423 H   0  0  0  0  0  0  0  0  0  0  0  0
   58.1699   25.3694   47.1904 H   0  0  0  0  0  0  0  0  0  0  0  0
   58.3090   25.8430   45.4177 H   0  0  0  0  0  0  0  0  0  0  0  0
   61.2149   25.6839   47.3150 H   0  0  0  0  0  0  0  0  0  0  0  0
   60.4093   25.1562   45.7987 H   0  0  0  0  0  0  0  0  0  0  0  0
   61.4554   26.6165   45.7987 H   0  0  0  0  0  0  0  0  0  0  0  0
   59.5251   26.6331   48.8109 H   0  0  0  0  0  0  0  0  0  0  0  0
   60.6756   27.8705   48.2010 H   0  0  0  0  0  0  0  0  0  0  0  0
   58.9111   28.2071   48.2010 H   0  0  0  0  0  0  0  0  0  0  0  0
   63.4459   33.7468   47.2132 H   0  0  0  0  0  0  0  0  0  0  0  0
   65.3820   33.6812   48.7722 H   0  0  0  0  0  0  0  0  0  0  0  0
  1  2  1  0
  2  3  1  0
  3  4  2  0
  4  5  1  0
  5  6  2  0
  6  7  1  0
  7  8  2  0
  8  9  1  0
  9 10  1  0
 10 11  1  0
 10 12  1  0
 10 13  1  0
  9 14  2  0
 14 15  1  0
 15 16  1  0
 16 17  1  6
 16 18  1  0
 18 19  1  0
 19 20  2  0
 19 21  1  0
 21 22  1  0
 22 23  1  0
 23 24  1  0
 24 25  1  0
 24 26  1  0
 15 27  2  0
  6 28  1  0
 28 29  2  0
 29  3  1  0
 27  7  1  0
  1 30  1  0
  1 31  1  0
  1 32  1  0
  4 33  1  0
  5 34  1  0
  8 35  1  0
 17 36  1  0
 18 37  1  0
 18 38  1  0
 22 39  1  0
 22 40  1  0
 23 41  1  0
 23 42  1  0
 25 43  1  0
 25 44  1  0
 25 45  1  0
 26 46  1  0
 26 47  1  0
 26 48  1  0
 28 49  1  0
 29 50  1  0
M  CHG  2  16   1  21  -1
M  END
>  <UniqueID>  (33) 
33

>  <SMILES>  (33) 
COc1ccc(-c2cc(C(F)(F)F)nc([S@+](O)CC(=O)[N-]CCN(C)C)n2)cc1

>  <Energy>  (33) 
48.236888357025826

>  <Genealogy>  (33) 
COc1ccc(-c2cc(C(F)(F)F)nc([S+](O)CC(=O)[N-]CCN(C)C)n2)cc1 (protonated)
COc1ccc(-c2cc(C(F)(F)F)nc([S@+](O)CC(=O)[N-]CCN(C)C)n2)cc1 (chirality)
COc1ccc(-c2cc(C(F)(F)F)nc([S@+](O)CC(=O)[N-]CCN(C)C)n2)cc1 (3D coordinates assigned)
COc1ccc(-c2cc(C(F)(F)F)nc([S@+](O)CC(=O)[N-]CCN(C)C)n2)cc1 (optimized conformer: 48.236888357025826 kcal/mol)

>  <smiles>  (33) 
COc1ccc(-c2cc(C(F)(F)F)nc([S+]([O-])CC(=O)NCCN(C)C)n2)cc1

>  <score_type>  (33) 
oracle

>  <origin>  (33) 
adg

>  <m_score__min__energy>  (33) 
-7.7800000000000002

>  <m_primary>  (33) 
energy

$$$$
33:0
     RDKit          3D

 56 57  0  0  0  0  0  0  0  0999 V2000
   60.7130   34.1430   46.2490 C   0  0  0  0  0  0  0  0  0  0  0  0
   59.6380   34.1990   47.3390 C   0  0  0  0  0  0  0  0  0  0  0  0
   58.8230   32.9560   47.4400 N   0  0  0  0  0  0  0  0  0  0  0  0
   58.8540   32.3960   48.8150 C   0  0  0  0  0  0  0  0  0  0  0  0
   59.6480   33.2660   49.7990 C   0  0  0  0  0  0  0  0  0  0  0  0
   57.4180   33.1030   46.9630 C   0  0  0  0  0  0  0  0  0  0  0  0
   57.2670   33.4780   45.4640 C   0  0  0  0  0  0  0  0  0  0  0  0
   58.2430   32.7260   44.5390 C   0  0  0  0  0  0  0  0  0  0  0  0
   57.5590   31.6160   43.6940 C   0  0  1  0  0  0  0  0  0  0  0  0
   57.4380   31.9740   42.2050 C   0  0  0  0  0  0  0  0  0  0  0  0
   58.2200   30.3130   43.8740 N   0  0  0  0  0  0  0  0  0  0  0  0
   58.0140   29.3750   44.9590 C   0  0  0  0  0  0  0  0  0  0  0  0
   56.9630   28.4360   44.9430 C   0  0  0  0  0  0  0  0  0  0  0  0
   56.7850   27.5210   45.9870 C   0  0  0  0  0  0  0  0  0  0  0  0
   55.7120   26.6190   45.9010 O   0  0  0  0  0  0  0  0  0  0  0  0
   55.8530   25.2090   45.7630 C   0  0  0  0  0  0  0  0  0  0  0  0
   57.6730   27.5300   47.0750 C   0  0  0  0  0  0  0  0  0  0  0  0
   58.7290   28.4490   47.1130 C   0  0  0  0  0  0  0  0  0  0  0  0
   59.6260   28.4670   48.1890 C   0  0  0  0  0  0  0  0  0  0  0  0
   60.6720   29.3900   48.2100 C   0  0  0  0  0  0  0  0  0  0  0  0
   60.8070   30.3000   47.1560 C   0  0  0  0  0  0  0  0  0  0  0  0
   61.9390   31.2770   47.1390 C   0  0  0  0  0  0  0  0  0  0  0  0
   59.9340   30.2610   46.1140 N   0  0  0  0  0  0  0  0  0  0  0  0
   58.9020   29.3730   46.0570 C   0  0  0  0  0  0  0  0  0  0  0  0
   61.7072   34.0912   46.7169 H   0  0  0  0  0  0  0  0  0  0  0  0
   60.5551   33.2519   45.6237 H   0  0  0  0  0  0  0  0  0  0  0  0
   60.6486   35.0457   45.6237 H   0  0  0  0  0  0  0  0  0  0  0  0
   60.1328   34.3695   48.3065 H   0  0  0  0  0  0  0  0  0  0  0  0
   58.9498   35.0140   47.0705 H   0  0  0  0  0  0  0  0  0  0  0  0
   59.2650   32.2490   46.8050 H   0  0  0  0  0  0  0  0  0  0  0  0
   57.8204   32.3073   49.1807 H   0  0  0  0  0  0  0  0  0  0  0  0
   59.3558   31.4186   48.7610 H   0  0  0  0  0  0  0  0  0  0  0  0
   59.3895   32.9827   50.8300 H   0  0  0  0  0  0  0  0  0  0  0  0
   60.7252   33.1140   49.6361 H   0  0  0  0  0  0  0  0  0  0  0  0
   59.3984   34.3249   49.6361 H   0  0  0  0  0  0  0  0  0  0  0  0
   56.9001   32.1468   47.1289 H   0  0  0  0  0  0  0  0  0  0  0  0
   56.9871   33.9394   47.5328 H   0  0  0  0  0  0  0  0  0  0  0  0
   56.2393   33.2444   45.1489 H   0  0  0  0  0  0  0  0  0  0  0  0
   57.4985   34.5496   45.3745 H   0  0  0  0  0  0  0  0  0  0  0  0
   58.7037   33.4524   43.8534 H   0  0  0  0  0  0  0  0  0  0  0  0
   58.9866   32.2332   45.1825 H   0  0  0  0  0  0  0  0  0  0  0  0
   56.5314   31.5369   44.0783 H   0  0  0  0  0  0  0  0  0  0  0  0
   57.0873   33.0118   42.1047 H   0  0  0  0  0  0  0  0  0  0  0  0
   58.4209   31.8709   41.7220 H   0  0  0  0  0  0  0  0  0  0  0  0
   56.7192   31.2957   41.7220 H   0  0  0  0  0  0  0  0  0  0  0  0
   58.9460   30.0820   43.1600 H   0  0  0  0  0  0  0  0  0  0  0  0
   56.2672   28.4220   44.0911 H   0  0  0  0  0  0  0  0  0  0  0  0
   55.8993   24.7458   46.7597 H   0  0  0  0  0  0  0  0  0  0  0  0
   54.9906   24.8065   45.2114 H   0  0  0  0  0  0  0  0  0  0  0  0
   56.7780   24.9852   45.2114 H   0  0  0  0  0  0  0  0  0  0  0  0
   57.5388   26.8137   47.8990 H   0  0  0  0  0  0  0  0  0  0  0  0
   59.5056   27.7533   49.0174 H   0  0  0  0  0  0  0  0  0  0  0  0
   61.3844   29.4021   49.0480 H   0  0  0  0  0  0  0  0  0  0  0  0
   62.2255   31.5243   48.1719 H   0  0  0  0  0  0  0  0  0  0  0  0
   62.7989   30.8328   46.6163 H   0  0  0  0  0  0  0  0  0  0  0  0
   61.6253   32.1926   46.6163 H   0  0  0  0  0  0  0  0  0  0  0  0
  1  2  1  0
  2  3  1  0
  3  4  1  0
  4  5  1  0
  3  6  1  0
  6  7  1  0
  7  8  1  0
  8  9  1  0
  9 10  1  0
  9 11  1  0
 11 12  1  0
 12 13  2  0
 13 14  1  0
 14 15  1  0
 15 16  1  0
 14 17  2  0
 17 18  1  0
 18 19  2  0
 19 20  1  0
 20 21  2  0
 21 22  1  0
 21 23  1  0
 23 24  2  0
 24 12  1  0
 24 18  1  0
  1 25  1  0
  1 26  1  0
  1 27  1  0
  2 28  1  0
  2 29  1  0
  3 30  1  0
  4 31  1  0
  4 32  1  0
  5 33  1  0
  5 34  1  0
  5 35  1  0
  6 36  1  0
  6 37  1  0
  7 38  1  0
  7 39  1  0
  8 40  1  0
  8 41  1  0
  9 42  1  1
 10 43  1  0
 10 44  1  0
 10 45  1  0
 11 46  1  0
 13 47  1  0
 16 48  1  0
 16 49  1  0
 16 50  1  0
 17 51  1  0
 19 52  1  0
 20 53  1  0
 22 54  1  0
 22 55  1  0
 22 56  1  0
M  CHG  1   3   1
M  END
>  <UniqueID>  (34) 
34

>  <SMILES>  (34) 
CC[NH+](CC)CCC[C@@H](C)Nc1cc(OC)cc2ccc(C)nc12

>  <Energy>  (34) 
64.3178968076565

>  <Genealogy>  (34) 
CC[NH+](CC)CCCC(C)Nc1cc(OC)cc2ccc(C)nc12 (protonated)
CC[NH+](CC)CCC[C@@H](C)Nc1cc(OC)cc2ccc(C)nc12 (chirality)
CC[NH+](CC)CCC[C@@H](C)Nc1cc(OC)cc2ccc(C)nc12 (3D coordinates assigned)
CC[NH+](CC)CCC[C@@H](C)Nc1cc(OC)cc2ccc(C)nc12 (optimized conformer: 64.3178968076565 kcal/mol)

>  <smiles>  (34) 
CCN(CC)CCCC(C)Nc1cc(OC)cc2ccc(C)nc12

>  <score_type>  (34) 
oracle

>  <origin>  (34) 
adg

>  <m_score__min__energy>  (34) 
-5.1699999999999999

>  <m_primary>  (34) 
energy

$$$$
34:0
     RDKit          3D

 34 35  0  0  0  0  0  0  0  0999 V2000
   61.5490   34.2040   48.5210 C   0  0  0  0  0  0  0  0  0  0  0  0
   60.1910   34.4860   48.1950 O   0  0  0  0  0  0  0  0  0  0  0  0
   59.4990   33.9160   47.1140 C   0  0  0  0  0  0  0  0  0  0  0  0
   59.5830   34.4400   45.8110 C   0  0  0  0  0  0  0  0  0  0  0  0
   58.8820   33.8420   44.7620 C   0  0  0  0  0  0  0  0  0  0  0  0
   58.0870   32.7100   44.9870 C   0  0  0  0  0  0  0  0  0  0  0  0
   57.3870   32.1120   43.8800 N   0  0  0  0  0  0  0  0  0  0  0  0
   56.7820   30.4860   43.8810 S   0  0  0  0  0  0  0  0  0  0  0  0
   56.6350   30.0110   42.4630 O   0  0  0  0  0  0  0  0  0  0  0  0
   55.4340   30.4630   44.5470 O   0  0  0  0  0  0  0  0  0  0  0  0
   57.9100   29.4240   44.7190 C   0  0  0  0  0  0  0  0  0  0  0  0
   59.2900   29.5470   44.5110 C   0  0  0  0  0  0  0  0  0  0  0  0
   60.1790   28.6900   45.1670 C   0  0  0  0  0  0  0  0  0  0  0  0
   59.6960   27.6950   46.0300 C   0  0  0  0  0  0  0  0  0  0  0  0
   60.6510   26.7990   46.7620 C   0  0  0  0  0  0  0  0  0  0  0  0
   58.3150   27.5880   46.2550 C   0  0  0  0  0  0  0  0  0  0  0  0
   57.4270   28.4460   45.5980 C   0  0  0  0  0  0  0  0  0  0  0  0
   57.9950   32.1920   46.2920 C   0  0  0  0  0  0  0  0  0  0  0  0
   58.6980   32.7870   47.3450 C   0  0  0  0  0  0  0  0  0  0  0  0
   58.5650   32.1050   48.9580 Cl  0  0  0  0  0  0  0  0  0  0  0  0
   61.6661   34.1797   49.6145 H   0  0  0  0  0  0  0  0  0  0  0  0
   61.8320   33.2279   48.1001 H   0  0  0  0  0  0  0  0  0  0  0  0
   62.1973   34.9867   48.1001 H   0  0  0  0  0  0  0  0  0  0  0  0
   60.2049   35.3264   45.6175 H   0  0  0  0  0  0  0  0  0  0  0  0
   58.9545   34.2637   43.7486 H   0  0  0  0  0  0  0  0  0  0  0  0
   57.3000   32.6480   42.9870 H   0  0  0  0  0  0  0  0  0  0  0  0
   59.6752   30.3199   43.8297 H   0  0  0  0  0  0  0  0  0  0  0  0
   61.2619   28.7965   45.0057 H   0  0  0  0  0  0  0  0  0  0  0  0
   60.5154   26.9262   47.8462 H   0  0  0  0  0  0  0  0  0  0  0  0
   60.4544   25.7519   46.4883 H   0  0  0  0  0  0  0  0  0  0  0  0
   61.6835   27.0619   46.4883 H   0  0  0  0  0  0  0  0  0  0  0  0
   57.9298   26.8273   46.9499 H   0  0  0  0  0  0  0  0  0  0  0  0
   56.3449   28.3524   45.7722 H   0  0  0  0  0  0  0  0  0  0  0  0
   57.3648   31.3115   46.4859 H   0  0  0  0  0  0  0  0  0  0  0  0
  1  2  1  0
  2  3  1  0
  3  4  2  0
  4  5  1  0
  5  6  2  0
  6  7  1  0
  7  8  1  0
  8  9  2  0
  8 10  2  0
  8 11  1  0
 11 12  2  0
 12 13  1  0
 13 14  2  0
 14 15  1  0
 14 16  1  0
 16 17  2  0
  6 18  1  0
 18 19  2  0
 19 20  1  0
 19  3  1  0
 17 11  1  0
  1 21  1  0
  1 22  1  0
  1 23  1  0
  4 24  1  0
  5 25  1  0
  7 26  1  0
 12 27  1  0
 13 28  1  0
 15 29  1  0
 15 30  1  0
 15 31  1  0
 16 32  1  0
 17 33  1  0
 18 34  1  0
M  END
>  <UniqueID>  (35) 
35

>  <SMILES>  (35) 
COc1ccc(NS(=O)(=O)c2ccc(C)cc2)cc1Cl

>  <Energy>  (35) 
35.65406882695313

>  <Genealogy>  (35) 
COc1ccc(NS(=O)(=O)c2ccc(C)cc2)cc1Cl (3D coordinates assigned)
COc1ccc(NS(=O)(=O)c2ccc(C)cc2)cc1Cl (optimized conformer: 35.65406882695313 kcal/mol)

>  <smiles>  (35) 
COc1ccc(NS(=O)(=O)c2ccc(C)cc2)cc1Cl

>  <score_type>  (35) 
oracle

>  <origin>  (35) 
adg

>  <m_score__min__energy>  (35) 
-7.7199999999999998

>  <m_primary>  (35) 
energy

$$$$
35:0
     RDKit          3D

 38 39  0  0  1  0  0  0  0  0999 V2000
   60.9650   32.4090   47.1300 C   0  0  0  0  0  0  0  0  0  0  0  0
   60.8510   33.8730   46.6810 C   0  0  0  0  0  0  0  0  0  0  0  0
   59.6970   34.5240   47.3830 C   0  0  0  0  0  0  0  0  0  0  0  0
   58.4050   34.1760   46.7050 C   0  0  0  0  0  0  0  0  0  0  0  0
   58.6120   34.1840   45.2130 C   0  0  0  0  0  0  0  0  0  0  0  0
   57.5340   33.3770   44.5030 C   0  0  0  0  0  0  0  0  0  0  0  0
   58.1290   32.1280   43.8650 C   0  0  2  0  0  0  0  0  0  0  0  0
   57.9480   32.3370   42.3830 C   0  0  0  0  0  0  0  0  0  0  0  0
   57.2370   31.5470   41.7870 O   0  0  0  0  0  0  0  0  0  0  0  0
   57.4590   30.9350   44.2960 N   0  0  0  0  0  0  0  0  0  0  0  0
   56.1110   30.7260   44.2510 C   0  0  0  0  0  0  0  0  0  0  0  0
   55.8500   29.4850   44.7420 N   0  0  0  0  0  0  0  0  0  0  0  0
   57.0240   28.9360   45.0850 C   0  0  0  0  0  0  0  0  0  0  0  0
   57.3350   27.7060   45.6280 C   0  0  0  0  0  0  0  0  0  0  0  0
   56.4210   26.8340   45.9010 N   0  0  0  0  0  0  0  0  0  0  0  0
   58.6310   27.3970   45.8810 N   0  0  0  0  0  0  0  0  0  0  0  0
   59.5850   28.3020   45.5990 C   0  0  0  0  0  0  0  0  0  0  0  0
   59.3240   29.5120   45.0690 N   0  0  0  0  0  0  0  0  0  0  0  0
   58.0410   29.8300   44.8130 C   0  0  0  0  0  0  0  0  0  0  0  0
   60.9687   32.3618   48.2290 H   0  0  0  0  0  0  0  0  0  0  0  0
   60.1086   31.8385   46.7413 H   0  0  0  0  0  0  0  0  0  0  0  0
   61.8994   31.9780   46.7413 H   0  0  0  0  0  0  0  0  0  0  0  0
   61.7800   34.4063   46.9309 H   0  0  0  0  0  0  0  0  0  0  0  0
   60.6868   33.9109   45.5940 H   0  0  0  0  0  0  0  0  0  0  0  0
   59.6641   34.1749   48.4256 H   0  0  0  0  0  0  0  0  0  0  0  0
   59.8320   35.6153   47.3523 H   0  0  0  0  0  0  0  0  0  0  0  0
   58.0786   33.1758   47.0260 H   0  0  0  0  0  0  0  0  0  0  0  0
   57.6348   34.9132   46.9757 H   0  0  0  0  0  0  0  0  0  0  0  0
   58.5791   35.2225   44.8518 H   0  0  0  0  0  0  0  0  0  0  0  0
   59.5889   33.7280   44.9946 H   0  0  0  0  0  0  0  0  0  0  0  0
   56.7665   33.0792   45.2325 H   0  0  0  0  0  0  0  0  0  0  0  0
   57.0885   33.9997   43.7132 H   0  0  0  0  0  0  0  0  0  0  0  0
   59.1828   31.9913   44.1494 H   0  0  0  0  0  0  0  0  0  0  0  0
   58.4390   33.1707   41.8597 H   0  0  0  0  0  0  0  0  0  0  0  0
   55.3619   31.4410   43.8800 H   0  0  0  0  0  0  0  0  0  0  0  0
   55.8800   26.3950   45.1230 H   0  0  0  0  0  0  0  0  0  0  0  0
   58.8610   26.4630   46.2920 H   0  0  0  0  0  0  0  0  0  0  0  0
   60.6320   28.0404   45.8122 H   0  0  0  0  0  0  0  0  0  0  0  0
  1  2  1  0
  2  3  1  0
  3  4  1  0
  4  5  1  0
  5  6  1  0
  6  7  1  0
  7  8  1  0
  8  9  2  0
  7 10  1  0
 10 11  1  0
 11 12  2  0
 12 13  1  0
 13 14  1  0
 14 15  2  3
 14 16  1  0
 16 17  1  0
 17 18  2  0
 18 19  1  0
 19 10  1  0
 19 13  2  0
  1 20  1  0
  1 21  1  0
  1 22  1  0
  2 23  1  0
  2 24  1  0
  3 25  1  0
  3 26  1  0
  4 27  1  0
  4 28  1  0
  5 29  1  0
  5 30  1  0
  6 31  1  0
  6 32  1  0
  7 33  1  6
  8 34  1  0
 11 35  1  0
 15 36  1  0
 16 37  1  0
 17 38  1  0
M  END
>  <smiles>  (36) 
CCCCCCC(C=O)n1cnc2c(=N)[nH]cnc21

>  <score_type>  (36) 
oracle

>  <origin>  (36) 
adg

>  <m_score__min__energy>  (36) 
-6.0999999999999996

>  <m_primary>  (36) 
energy

$$$$
36:0
     RDKit          3D

 49 51  0  0  0  0  0  0  0  0999 V2000
   62.9930   34.5610   49.8920 C   0  0  0  0  0  0  0  0  0  0  0  0
   62.4850   33.7370   48.7510 C   0  0  0  0  0  0  0  0  0  0  0  0
   63.3150   33.1780   47.9870 O   0  0  0  0  0  0  0  0  0  0  0  0
   61.0290   33.6630   48.4610 C   0  0  0  0  0  0  0  0  0  0  0  0
   60.3770   34.5660   47.7000 C   0  0  0  0  0  0  0  0  0  0  0  0
   59.3440   34.2410   46.6950 C   0  0  0  0  0  0  0  0  0  0  0  0
   58.0710   33.8370   47.1270 C   0  0  0  0  0  0  0  0  0  0  0  0
   57.0950   33.4710   46.1980 C   0  0  0  0  0  0  0  0  0  0  0  0
   57.3900   33.4870   44.8290 C   0  0  0  0  0  0  0  0  0  0  0  0
   58.6610   33.8650   44.3920 C   0  0  0  0  0  0  0  0  0  0  0  0
   59.6390   34.2310   45.3210 C   0  0  0  0  0  0  0  0  0  0  0  0
   60.2400   32.5760   49.0910 C   0  0  0  0  0  0  0  0  0  0  0  0
   60.3100   31.2510   48.6210 C   0  0  0  0  0  0  0  0  0  0  0  0
   61.2140   30.9330   47.5430 N   0  0  0  0  0  0  0  0  0  0  0  0
   59.5300   30.2780   49.2080 N   0  0  0  0  0  0  0  0  0  0  0  0
   59.5870   28.8760   48.7290 C   0  0  0  0  0  0  0  0  0  0  0  0
   59.1410   28.7660   47.2890 C   0  0  0  0  0  0  0  0  0  0  0  0
   58.2780   29.7320   46.7430 C   0  0  0  0  0  0  0  0  0  0  0  0
   57.8770   29.6480   45.4070 C   0  0  0  0  0  0  0  0  0  0  0  0
   58.3460   28.6100   44.5980 C   0  0  0  0  0  0  0  0  0  0  0  0
   59.2240   27.6580   45.1240 C   0  0  0  0  0  0  0  0  0  0  0  0
   59.6280   27.7380   46.4600 C   0  0  0  0  0  0  0  0  0  0  0  0
   58.6770   30.6090   50.2370 C   0  0  0  0  0  0  0  0  0  0  0  0
   57.9660   29.7130   50.7750 O   0  0  0  0  0  0  0  0  0  0  0  0
   58.5810   31.9010   50.6850 N   0  0  0  0  0  0  0  0  0  0  0  0
   57.6710   32.2210   51.8010 C   0  0  0  0  0  0  0  0  0  0  0  0
   59.3690   32.8760   50.1430 C   0  0  0  0  0  0  0  0  0  0  0  0
   59.3110   34.0600   50.5810 O   0  0  0  0  0  0  0  0  0  0  0  0
   62.7025   34.0897   50.8425 H   0  0  0  0  0  0  0  0  0  0  0  0
   64.0895   34.6282   49.8361 H   0  0  0  0  0  0  0  0  0  0  0  0
   62.5605   35.5708   49.8361 H   0  0  0  0  0  0  0  0  0  0  0  0
   60.6344   35.6265   47.8384 H   0  0  0  0  0  0  0  0  0  0  0  0
   57.8413   33.8086   48.2024 H   0  0  0  0  0  0  0  0  0  0  0  0
   56.0943   33.1701   46.5414 H   0  0  0  0  0  0  0  0  0  0  0  0
   56.6197   33.2015   44.0975 H   0  0  0  0  0  0  0  0  0  0  0  0
   58.8926   33.8748   43.3167 H   0  0  0  0  0  0  0  0  0  0  0  0
   60.6445   34.5126   44.9750 H   0  0  0  0  0  0  0  0  0  0  0  0
   62.0990   31.4660   47.3910 H   0  0  0  0  0  0  0  0  0  0  0  0
   61.0310   30.1760   46.8500 H   0  0  0  0  0  0  0  0  0  0  0  0
   60.6215   28.5113   48.8120 H   0  0  0  0  0  0  0  0  0  0  0  0
   58.9086   28.2709   49.3484 H   0  0  0  0  0  0  0  0  0  0  0  0
   57.9161   30.5592   47.3713 H   0  0  0  0  0  0  0  0  0  0  0  0
   57.1907   30.4006   44.9915 H   0  0  0  0  0  0  0  0  0  0  0  0
   58.0247   28.5420   43.5482 H   0  0  0  0  0  0  0  0  0  0  0  0
   59.5979   26.8441   44.4854 H   0  0  0  0  0  0  0  0  0  0  0  0
   60.3297   26.9941   46.8652 H   0  0  0  0  0  0  0  0  0  0  0  0
   58.1850   32.0403   52.7566 H   0  0  0  0  0  0  0  0  0  0  0  0
   57.3727   33.2780   51.7393 H   0  0  0  0  0  0  0  0  0  0  0  0
   56.7768   31.5834   51.7393 H   0  0  0  0  0  0  0  0  0  0  0  0
  1  2  1  0
  2  3  2  0
  2  4  1  0
  4  5  2  3
  5  6  1  0
  6  7  2  0
  7  8  1  0
  8  9  2  0
  9 10  1  0
 10 11  2  0
  4 12  1  0
 12 13  2  0
 13 14  1  0
 13 15  1  0
 15 16  1  0
 16 17  1  0
 17 18  2  0
 18 19  1  0
 19 20  2  0
 20 21  1  0
 21 22  2  0
 15 23  1  0
 23 24  2  0
 23 25  1  0
 25 26  1  0
 25 27  1  0
 27 28  2  0
 11  6  1  0
 27 12  1  0
 22 17  1  0
  1 29  1  0
  1 30  1  0
  1 31  1  0
  5 32  1  0
  7 33  1  0
  8 34  1  0
  9 35  1  0
 10 36  1  0
 11 37  1  0
 14 38  1  0
 14 39  1  0
 16 40  1  0
 16 41  1  0
 18 42  1  0
 19 43  1  0
 20 44  1  0
 21 45  1  0
 22 46  1  0
 26 47  1  0
 26 48  1  0
 26 49  1  0
M  END
>  <UniqueID>  (37) 
36

>  <SMILES>  (37) 
CC(=O)C(=Cc1ccccc1)c1c(N)n(Cc2ccccc2)c(=O)n(C)c1=O

>  <Energy>  (37) 
76.87538840465484

>  <Genealogy>  (37) 
CC(=O)C(=Cc1ccccc1)c1c(N)n(Cc2ccccc2)c(=O)n(C)c1=O (3D coordinates assigned)
CC(=O)C(=Cc1ccccc1)c1c(N)n(Cc2ccccc2)c(=O)n(C)c1=O (optimized conformer: 76.87538840465484 kcal/mol)

>  <smiles>  (37) 
CC(=O)C(=Cc1ccccc1)c1c(N)n(Cc2ccccc2)c(=O)n(C)c1=O

>  <score_type>  (37) 
oracle

>  <origin>  (37) 
adg

>  <m_score__min__energy>  (37) 
-9.1500000000000004

>  <m_primary>  (37) 
energy

$$$$
37:0
     RDKit          3D

 55 56  0  0  0  0  0  0  0  0999 V2000
   57.4545   31.3162   42.8753 H   0  0  0  0  0  0  0  0  0  0  0  0
   57.5050   31.5720   43.9440 C   0  0  0  0  0  0  0  0  0  0  0  0
   57.6320   32.8270   44.2700 N   0  0  0  0  0  0  0  0  0  0  0  0
   58.2660   33.3330   45.4520 C   0  0  0  0  0  0  0  0  0  0  0  0
   59.3020   34.2740   45.3690 C   0  0  0  0  0  0  0  0  0  0  0  0
   59.6477   34.6231   44.3848 H   0  0  0  0  0  0  0  0  0  0  0  0
   59.8970   34.7700   46.5320 C   0  0  0  0  0  0  0  0  0  0  0  0
   60.7249   35.4906   46.4589 H   0  0  0  0  0  0  0  0  0  0  0  0
   59.4420   34.3520   47.7960 C   0  0  0  0  0  0  0  0  0  0  0  0
   60.0870   34.8270   48.9950 N   0  0  0  0  0  0  0  0  0  0  0  0
   59.6460   35.7250   49.3060 H   0  0  0  0  0  0  0  0  0  0  0  0
   61.0950   35.0140   48.7870 H   0  0  0  0  0  0  0  0  0  0  0  0
   59.9670   33.8170   50.0580 C   0  0  0  0  0  0  0  0  0  0  0  0
   59.6425   32.8666   49.6092 H   0  0  0  0  0  0  0  0  0  0  0  0
   59.2336   34.1829   50.7916 H   0  0  0  0  0  0  0  0  0  0  0  0
   61.3010   33.5890   50.7940 C   0  0  0  0  0  0  0  0  0  0  0  0
   61.1012   32.9934   51.6969 H   0  0  0  0  0  0  0  0  0  0  0  0
   61.7118   34.5826   51.0264 H   0  0  0  0  0  0  0  0  0  0  0  0
   62.3580   32.8540   49.9530 C   0  0  0  0  0  0  0  0  0  0  0  0
   62.2637   31.7712   50.1223 H   0  0  0  0  0  0  0  0  0  0  0  0
   63.3552   33.2051   50.2569 H   0  0  0  0  0  0  0  0  0  0  0  0
   62.1760   33.1370   48.5100 N   0  0  0  0  0  0  0  0  0  0  0  0
   63.3080   33.9040   47.9400 C   0  0  0  0  0  0  0  0  0  0  0  0
   64.2505   33.4873   48.3247 H   0  0  0  0  0  0  0  0  0  0  0  0
   63.1924   34.9570   48.2364 H   0  0  0  0  0  0  0  0  0  0  0  0
   63.3240   33.8380   46.4140 C   0  0  0  0  0  0  0  0  0  0  0  0
   63.5720   32.8153   46.0938 H   0  0  0  0  0  0  0  0  0  0  0  0
   62.3329   34.1140   46.0246 H   0  0  0  0  0  0  0  0  0  0  0  0
   64.0786   34.5372   46.0246 H   0  0  0  0  0  0  0  0  0  0  0  0
   61.7820   31.9350   47.7330 C   0  0  0  0  0  0  0  0  0  0  0  0
   60.9648   32.2178   47.0532 H   0  0  0  0  0  0  0  0  0  0  0  0
   62.6839   31.5953   47.2027 H   0  0  0  0  0  0  0  0  0  0  0  0
   61.3060   30.7510   48.5900 C   0  0  0  0  0  0  0  0  0  0  0  0
   61.4081   31.0050   49.6554 H   0  0  0  0  0  0  0  0  0  0  0  0
   60.2513   30.5354   48.3639 H   0  0  0  0  0  0  0  0  0  0  0  0
   61.9179   29.8653   48.3639 H   0  0  0  0  0  0  0  0  0  0  0  0
   58.3870   33.4260   47.8730 C   0  0  0  0  0  0  0  0  0  0  0  0
   58.0268   33.0873   48.8556 H   0  0  0  0  0  0  0  0  0  0  0  0
   57.7940   32.9340   46.7080 C   0  0  0  0  0  0  0  0  0  0  0  0
   56.9520   32.2296   46.7778 H   0  0  0  0  0  0  0  0  0  0  0  0
   57.4230   30.4460   44.9520 C   0  0  0  0  0  0  0  0  0  0  0  0
   56.8765   30.8049   45.8366 H   0  0  0  0  0  0  0  0  0  0  0  0
   58.8150   30.0200   45.3610 C   0  0  0  0  0  0  0  0  0  0  0  0
   59.3490   30.5410   46.3290 O   0  0  0  0  0  0  0  0  0  0  0  0
   59.5870   29.0330   44.5230 C   0  0  0  0  0  0  0  0  0  0  0  0
   59.9292   29.5295   43.6030 H   0  0  0  0  0  0  0  0  0  0  0  0
   60.4488   28.6723   45.1037 H   0  0  0  0  0  0  0  0  0  0  0  0
   58.7050   27.8350   44.1510 C   0  0  0  0  0  0  0  0  0  0  0  0
   59.2579   27.1849   43.4570 H   0  0  0  0  0  0  0  0  0  0  0  0
   58.4498   27.2923   45.0732 H   0  0  0  0  0  0  0  0  0  0  0  0
   57.4040   28.2880   43.4810 C   0  0  0  0  0  0  0  0  0  0  0  0
   57.6379   28.7692   42.5199 H   0  0  0  0  0  0  0  0  0  0  0  0
   56.7606   27.4117   43.3134 H   0  0  0  0  0  0  0  0  0  0  0  0
   56.6820   29.2680   44.3660 C   0  0  0  0  0  0  0  0  0  0  0  0
   55.4870   29.1290   44.5770 O   0  0  0  0  0  0  0  0  0  0  0  0
  1  2  1  0
  2  3  2  0
  3  4  1  0
  4  5  2  0
  5  6  1  0
  5  7  1  0
  7  8  1  0
  7  9  2  0
  9 10  1  0
 10 11  1  0
 10 12  1  0
 10 13  1  0
 13 14  1  0
 13 15  1  0
 13 16  1  0
 16 17  1  0
 16 18  1  0
 16 19  1  0
 19 20  1  0
 19 21  1  0
 19 22  1  0
 22 23  1  0
 23 24  1  0
 23 25  1  0
 23 26  1  0
 26 27  1  0
 26 28  1  0
 26 29  1  0
 22 30  1  0
 30 31  1  0
 30 32  1  0
 30 33  1  0
 33 34  1  0
 33 35  1  0
 33 36  1  0
  9 37  1  0
 37 38  1  0
 37 39  2  0
 39 40  1  0
  2 41  1  0
 41 42  1  0
 41 43  1  0
 43 44  2  0
 43 45  1  0
 45 46  1  0
 45 47  1  0
 45 48  1  0
 48 49  1  0
 48 50  1  0
 48 51  1  0
 51 52  1  0
 51 53  1  0
 51 54  1  0
 54 55  2  0
 39  4  1  0
 54 41  1  0
M  CHG  1  10   1
M  END
>  <UniqueID>  (38) 
37

>  <SMILES>  (38) 
CCN(CC)CCC[NH2+]c1ccc(/N=C\C2C(=O)CCCC2=O)cc1

>  <Energy>  (38) 
58.30702543185864

>  <Genealogy>  (38) 
CCN(CC)CCC[NH2+]c1ccc(N=CC2C(=O)CCCC2=O)cc1 (protonated)
CCN(CC)CCC[NH2+]c1ccc(/N=C\C2C(=O)CCCC2=O)cc1 (cis-trans isomerization)
CCN(CC)CCC[NH2+]c1ccc(/N=C\C2C(=O)CCCC2=O)cc1 (3D coordinates assigned)
CCN(CC)CCC[NH2+]c1ccc(/N=C\C2C(=O)CCCC2=O)cc1 (nonaromatic ring conformer: 58.30702543185864 kcal/mol)

>  <smiles>  (38) 
CCN(CC)CCCNc1ccc(N=CC2C(=O)CCCC2=O)cc1

>  <score_type>  (38) 
oracle

>  <origin>  (38) 
adg

>  <m_score__min__energy>  (38) 
-6.1399999999999997

>  <m_primary>  (38) 
energy

$$$$
38:0
     RDKit          3D

 60 62  0  0  0  0  0  0  0  0999 V2000
   56.0260   24.4790   44.7820 C   0  0  0  0  0  0  0  0  0  0  0  0
   55.0330   25.2850   45.6190 C   0  0  0  0  0  0  0  0  0  0  0  0
   55.5220   26.6060   45.8670 O   0  0  0  0  0  0  0  0  0  0  0  0
   56.8730   26.9790   45.9710 C   0  0  0  0  0  0  0  0  0  0  0  0
   57.7960   26.2400   46.7410 C   0  0  0  0  0  0  0  0  0  0  0  0
   59.1330   26.6360   46.8210 C   0  0  0  0  0  0  0  0  0  0  0  0
   59.5670   27.7730   46.1420 C   0  0  0  0  0  0  0  0  0  0  0  0
   58.6670   28.5170   45.3780 C   0  0  0  0  0  0  0  0  0  0  0  0
   57.3170   28.1360   45.2910 C   0  0  0  0  0  0  0  0  0  0  0  0
   56.3740   28.9760   44.4640 C   0  0  0  0  0  0  0  0  0  0  0  0
   57.0930   30.1090   43.8610 N   0  0  0  0  0  0  0  0  0  0  0  0
   57.4200   31.1670   44.8320 C   0  0  0  0  0  0  0  0  0  0  0  0
   57.7070   32.5230   44.1530 C   0  0  0  0  0  0  0  0  0  0  0  0
   57.5410   33.6630   45.0870 N   0  0  0  0  0  0  0  0  0  0  0  0
   57.4790   33.2810   46.5160 C   0  0  0  0  0  0  0  0  0  0  0  0
   58.8100   32.7290   47.0310 C   0  0  0  0  0  0  0  0  0  0  0  0
   59.9020   33.6560   46.7100 N   0  0  0  0  0  0  0  0  0  0  0  0
   61.1140   33.5890   47.4700 C   0  0  0  0  0  0  0  0  0  0  0  0
   61.0910   33.8600   48.8470 C   0  0  0  0  0  0  0  0  0  0  0  0
   62.2710   33.8030   49.5960 C   0  0  0  0  0  0  0  0  0  0  0  0
   63.4890   33.4700   48.9790 C   0  0  0  0  0  0  0  0  0  0  0  0
   64.7620   33.4240   49.7860 C   0  0  0  0  0  0  0  0  0  0  0  0
   65.1240   31.9880   50.1440 C   0  0  0  0  0  0  0  0  0  0  0  0
   63.5160   33.2220   47.5970 C   0  0  0  0  0  0  0  0  0  0  0  0
   62.3360   33.2710   46.8500 C   0  0  0  0  0  0  0  0  0  0  0  0
   59.9690   34.2320   45.3660 C   0  0  0  0  0  0  0  0  0  0  0  0
   58.5830   34.6910   44.8820 C   0  0  0  0  0  0  0  0  0  0  0  0
   56.7052   23.9277   45.4490 H   0  0  0  0  0  0  0  0  0  0  0  0
   55.4777   23.7673   44.1473 H   0  0  0  0  0  0  0  0  0  0  0  0
   56.6098   25.1619   44.1473 H   0  0  0  0  0  0  0  0  0  0  0  0
   54.0776   25.3512   45.0779 H   0  0  0  0  0  0  0  0  0  0  0  0
   54.8959   24.7761   46.5845 H   0  0  0  0  0  0  0  0  0  0  0  0
   57.4596   25.3440   47.2831 H   0  0  0  0  0  0  0  0  0  0  0  0
   59.8445   26.0495   47.4209 H   0  0  0  0  0  0  0  0  0  0  0  0
   60.6200   28.0842   46.2084 H   0  0  0  0  0  0  0  0  0  0  0  0
   59.0173   29.4096   44.8390 H   0  0  0  0  0  0  0  0  0  0  0  0
   55.9406   28.3554   43.6659 H   0  0  0  0  0  0  0  0  0  0  0  0
   55.5769   29.3643   45.1151 H   0  0  0  0  0  0  0  0  0  0  0  0
   57.9690   29.7660   43.4080 H   0  0  0  0  0  0  0  0  0  0  0  0
   56.5704   31.2896   45.5199 H   0  0  0  0  0  0  0  0  0  0  0  0
   58.3315   30.8608   45.3663 H   0  0  0  0  0  0  0  0  0  0  0  0
   58.7412   32.5197   43.7782 H   0  0  0  0  0  0  0  0  0  0  0  0
   56.9847   32.6499   43.3332 H   0  0  0  0  0  0  0  0  0  0  0  0
   57.2123   34.1691   47.1077 H   0  0  0  0  0  0  0  0  0  0  0  0
   56.7247   32.4869   46.6182 H   0  0  0  0  0  0  0  0  0  0  0  0
   58.7520   32.5998   48.1218 H   0  0  0  0  0  0  0  0  0  0  0  0
   59.0078   31.7607   46.5479 H   0  0  0  0  0  0  0  0  0  0  0  0
   60.1416   34.1181   49.3389 H   0  0  0  0  0  0  0  0  0  0  0  0
   62.2455   34.0201   50.6741 H   0  0  0  0  0  0  0  0  0  0  0  0
   65.5789   33.8656   49.1964 H   0  0  0  0  0  0  0  0  0  0  0  0
   64.6107   33.9918   50.7159 H   0  0  0  0  0  0  0  0  0  0  0  0
   65.1516   31.8787   51.2382 H   0  0  0  0  0  0  0  0  0  0  0  0
   64.3700   31.3047   49.7261 H   0  0  0  0  0  0  0  0  0  0  0  0
   66.1118   31.7438   49.7261 H   0  0  0  0  0  0  0  0  0  0  0  0
   64.4695   32.9883   47.1007 H   0  0  0  0  0  0  0  0  0  0  0  0
   62.3629   33.0597   45.7708 H   0  0  0  0  0  0  0  0  0  0  0  0
   60.6475   35.0977   45.3811 H   0  0  0  0  0  0  0  0  0  0  0  0
   60.3379   33.4587   44.6761 H   0  0  0  0  0  0  0  0  0  0  0  0
   58.2982   35.5971   45.4369 H   0  0  0  0  0  0  0  0  0  0  0  0
   58.6539   34.8831   43.8012 H   0  0  0  0  0  0  0  0  0  0  0  0
  1  2  1  0
  2  3  1  0
  3  4  1  0
  4  5  2  0
  5  6  1  0
  6  7  2  0
  7  8  1  0
  8  9  2  0
  9 10  1  0
 10 11  1  0
 11 12  1  0
 12 13  1  0
 13 14  1  0
 14 15  1  0
 15 16  1  0
 16 17  1  0
 17 18  1  0
 18 19  2  0
 19 20  1  0
 20 21  2  0
 21 22  1  0
 22 23  1  0
 21 24  1  0
 24 25  2  0
 17 26  1  0
 26 27  1  0
  9  4  1  0
 27 14  1  0
 25 18  1  0
  1 28  1  0
  1 29  1  0
  1 30  1  0
  2 31  1  0
  2 32  1  0
  5 33  1  0
  6 34  1  0
  7 35  1  0
  8 36  1  0
 10 37  1  0
 10 38  1  0
 11 39  1  0
 12 40  1  0
 12 41  1  0
 13 42  1  0
 13 43  1  0
 15 44  1  0
 15 45  1  0
 16 46  1  0
 16 47  1  0
 19 48  1  0
 20 49  1  0
 22 50  1  0
 22 51  1  0
 23 52  1  0
 23 53  1  0
 23 54  1  0
 24 55  1  0
 25 56  1  0
 26 57  1  0
 26 58  1  0
 27 59  1  0
 27 60  1  0
M  END
>  <UniqueID>  (39) 
38

>  <SMILES>  (39) 
CCOc1ccccc1CNCCN1CCN(c2ccc(CC)cc2)CC1

>  <Energy>  (39) 
62.43342449173831

>  <Genealogy>  (39) 
CCOc1ccccc1CNCCN1CCN(c2ccc(CC)cc2)CC1 (3D coordinates assigned)
CCOc1ccccc1CNCCN1CCN(c2ccc(CC)cc2)CC1 (nonaromatic ring conformer: 62.43342449173831 kcal/mol)

>  <smiles>  (39) 
CCOc1ccccc1CNCCN1CCN(c2ccc(CC)cc2)CC1

>  <score_type>  (39) 
oracle

>  <origin>  (39) 
adg

>  <m_score__min__energy>  (39) 
-8.8300000000000001

>  <m_primary>  (39) 
energy

$$$$
39:0
     RDKit          3D

 48 50  0  0  0  0  0  0  0  0999 V2000
   57.4990   26.3510   45.3980 C   0  0  0  0  0  0  0  0  0  0  0  0
   57.0110   27.7980   45.4680 C   0  0  0  0  0  0  0  0  0  0  0  0
   57.8150   28.6720   44.5840 N   0  0  0  0  0  0  0  0  0  0  0  0
   59.0650   28.0070   44.1310 C   0  0  0  0  0  0  0  0  0  0  0  0
   60.2570   28.6030   44.8690 C   0  0  0  0  0  0  0  0  0  0  0  0
   57.0020   29.1520   43.4430 C   0  0  0  0  0  0  0  0  0  0  0  0
   56.9620   30.6870   43.3980 C   0  0  0  0  0  0  0  0  0  0  0  0
   56.7620   31.2340   44.7020 O   0  0  0  0  0  0  0  0  0  0  0  0
   57.7730   31.6880   45.5640 C   0  0  0  0  0  0  0  0  0  0  0  0
   58.2900   32.9960   45.5110 C   0  0  0  0  0  0  0  0  0  0  0  0
   59.2940   33.3950   46.3980 C   0  0  0  0  0  0  0  0  0  0  0  0
   59.8060   32.4970   47.3510 C   0  0  0  0  0  0  0  0  0  0  0  0
   60.8710   32.9210   48.2950 C   0  0  0  0  0  0  0  0  0  0  0  0
   60.5950   33.8420   49.3220 C   0  0  0  0  0  0  0  0  0  0  0  0
   61.5710   34.2260   50.1850 N   0  0  0  0  0  0  0  0  0  0  0  0
   62.8400   33.7470   50.0930 C   0  0  0  0  0  0  0  0  0  0  0  0
   63.8190   34.1690   51.0000 C   0  0  0  0  0  0  0  0  0  0  0  0
   65.1230   33.6750   50.9010 C   0  0  0  0  0  0  0  0  0  0  0  0
   65.4540   32.7590   49.8970 C   0  0  0  0  0  0  0  0  0  0  0  0
   64.4820   32.3310   48.9870 C   0  0  0  0  0  0  0  0  0  0  0  0
   63.1710   32.8210   49.0800 C   0  0  0  0  0  0  0  0  0  0  0  0
   62.1760   32.4130   48.1830 C   0  0  0  0  0  0  0  0  0  0  0  0
   59.2920   31.1880   47.3930 C   0  0  0  0  0  0  0  0  0  0  0  0
   58.2890   30.7920   46.5060 C   0  0  0  0  0  0  0  0  0  0  0  0
   57.6312   25.9589   46.4172 H   0  0  0  0  0  0  0  0  0  0  0  0
   56.7574   25.7394   44.8632 H   0  0  0  0  0  0  0  0  0  0  0  0
   58.4595   26.3134   44.8632 H   0  0  0  0  0  0  0  0  0  0  0  0
   55.9580   27.8382   45.1526 H   0  0  0  0  0  0  0  0  0  0  0  0
   57.1168   28.1540   46.5034 H   0  0  0  0  0  0  0  0  0  0  0  0
   59.0042   26.9295   44.3436 H   0  0  0  0  0  0  0  0  0  0  0  0
   59.1901   28.1623   43.0492 H   0  0  0  0  0  0  0  0  0  0  0  0
   60.0945   28.5218   45.9539 H   0  0  0  0  0  0  0  0  0  0  0  0
   61.1703   28.0555   44.5930 H   0  0  0  0  0  0  0  0  0  0  0  0
   60.3669   29.6621   44.5930 H   0  0  0  0  0  0  0  0  0  0  0  0
   57.4405   28.7766   42.5066 H   0  0  0  0  0  0  0  0  0  0  0  0
   55.9742   28.7796   43.5658 H   0  0  0  0  0  0  0  0  0  0  0  0
   57.9150   31.0596   42.9943 H   0  0  0  0  0  0  0  0  0  0  0  0
   56.1235   30.9963   42.7567 H   0  0  0  0  0  0  0  0  0  0  0  0
   57.9020   33.7080   44.7677 H   0  0  0  0  0  0  0  0  0  0  0  0
   59.6872   34.4212   46.3499 H   0  0  0  0  0  0  0  0  0  0  0  0
   59.5807   34.2544   49.4269 H   0  0  0  0  0  0  0  0  0  0  0  0
   63.5623   34.8894   51.7907 H   0  0  0  0  0  0  0  0  0  0  0  0
   65.8911   34.0076   51.6148 H   0  0  0  0  0  0  0  0  0  0  0  0
   66.4818   32.3741   49.8230 H   0  0  0  0  0  0  0  0  0  0  0  0
   64.7455   31.6105   48.1987 H   0  0  0  0  0  0  0  0  0  0  0  0
   62.4171   31.6922   47.3879 H   0  0  0  0  0  0  0  0  0  0  0  0
   59.6832   30.4713   48.1301 H   0  0  0  0  0  0  0  0  0  0  0  0
   57.9003   29.7639   46.5485 H   0  0  0  0  0  0  0  0  0  0  0  0
  1  2  1  0
  2  3  1  0
  3  4  1  0
  4  5  1  0
  3  6  1  0
  6  7  1  0
  7  8  1  0
  8  9  1  0
  9 10  2  0
 10 11  1  0
 11 12  2  0
 12 13  1  0
 13 14  2  0
 14 15  1  0
 15 16  2  0
 16 17  1  0
 17 18  2  0
 18 19  1  0
 19 20  2  0
 20 21  1  0
 21 22  2  0
 12 23  1  0
 23 24  2  0
 24  9  1  0
 22 13  1  0
 21 16  1  0
  1 25  1  0
  1 26  1  0
  1 27  1  0
  2 28  1  0
  2 29  1  0
  4 30  1  0
  4 31  1  0
  5 32  1  0
  5 33  1  0
  5 34  1  0
  6 35  1  0
  6 36  1  0
  7 37  1  0
  7 38  1  0
 10 39  1  0
 11 40  1  0
 14 41  1  0
 17 42  1  0
 18 43  1  0
 19 44  1  0
 20 45  1  0
 22 46  1  0
 23 47  1  0
 24 48  1  0
M  END
>  <UniqueID>  (40) 
39

>  <SMILES>  (40) 
CCN(CC)CCOc1ccc(-c2cnc3ccccc3c2)cc1

>  <Energy>  (40) 
56.904643290322035

>  <Genealogy>  (40) 
CCN(CC)CCOc1ccc(-c2cnc3ccccc3c2)cc1 (3D coordinates assigned)
CCN(CC)CCOc1ccc(-c2cnc3ccccc3c2)cc1 (optimized conformer: 56.904643290322035 kcal/mol)

>  <smiles>  (40) 
CCN(CC)CCOc1ccc(-c2cnc3ccccc3c2)cc1

>  <score_type>  (40) 
oracle

>  <origin>  (40) 
adg

>  <m_score__min__energy>  (40) 
-6.9500000000000002

>  <m_primary>  (40) 
energy

$$$$
40:0
     RDKit          3D

 74 78  0  0  0  0  0  0  0  0999 V2000
   64.1260   32.2390   48.5430 C   0  0  0  0  0  0  0  0  0  0  0  0
   64.8540   31.9750   49.7390 O   0  0  0  0  0  0  0  0  0  0  0  0
   65.6940   32.8890   50.3930 C   0  0  0  0  0  0  0  0  0  0  0  0
   67.0720   32.9100   50.1230 C   0  0  0  0  0  0  0  0  0  0  0  0
   67.9000   33.8550   50.7110 C   0  0  0  0  0  0  0  0  0  0  0  0
   67.3690   34.8360   51.5480 C   0  0  0  0  0  0  0  0  0  0  0  0
   68.2190   35.8240   52.0720 C   0  0  0  0  0  0  0  0  0  0  0  0
   67.7050   36.8460   52.8650 C   0  0  0  0  0  0  0  0  0  0  0  0
   66.3410   36.9020   53.1290 C   0  0  0  0  0  0  0  0  0  0  0  0
   65.4810   35.9260   52.6190 C   0  0  0  0  0  0  0  0  0  0  0  0
   65.9770   34.8480   51.8440 C   0  0  0  0  0  0  0  0  0  0  0  0
   65.1390   33.8030   51.3310 C   0  0  0  0  0  0  0  0  0  0  0  0
   63.6540   33.6920   51.7220 C   0  0  2  0  0  0  0  0  0  0  0  0
   63.2350   32.3320   52.3570 C   0  0  0  0  0  0  0  0  0  0  0  0
   62.1830   31.5520   51.5360 C   0  0  0  0  0  0  0  0  0  0  0  0
   61.0200   32.3740   51.0880 N   0  0  1  0  0  0  0  0  0  0  0  0
   59.7810   32.1200   51.8670 C   0  0  0  0  0  0  0  0  0  0  0  0
   58.4670   32.5260   51.1540 C   0  0  0  0  0  0  0  0  0  0  0  0
   58.1780   31.6310   49.9370 C   0  0  0  0  0  0  0  0  0  0  0  0
   58.6400   32.2750   48.6210 C   0  0  0  0  0  0  0  0  0  0  0  0
   60.0600   32.0300   48.3940 N   0  0  0  0  0  0  0  0  0  0  0  0
   60.6360   30.7180   48.3520 C   0  0  0  0  0  0  0  0  0  0  0  0
   61.7110   30.4870   48.9700 O   0  0  0  0  0  0  0  0  0  0  0  0
   59.9550   29.6250   47.6180 C   0  0  0  0  0  0  0  0  0  0  0  0
   59.4990   28.4810   48.2950 C   0  0  0  0  0  0  0  0  0  0  0  0
   58.9070   27.4280   47.5920 C   0  0  0  0  0  0  0  0  0  0  0  0
   58.7530   27.4970   46.1950 C   0  0  0  0  0  0  0  0  0  0  0  0
   58.1480   26.3670   45.4430 C   0  0  0  0  0  0  0  0  0  0  0  0
   57.9680   26.4470   44.0490 C   0  0  0  0  0  0  0  0  0  0  0  0
   57.3920   25.3840   43.3460 C   0  0  0  0  0  0  0  0  0  0  0  0
   56.9860   24.2300   44.0270 C   0  0  0  0  0  0  0  0  0  0  0  0
   56.3890   23.1360   43.3030 C   0  0  0  0  0  0  0  0  0  0  0  0
   55.9100   22.2580   42.7220 N   0  0  0  0  0  0  0  0  0  0  0  0
   57.1600   24.1410   45.4130 C   0  0  0  0  0  0  0  0  0  0  0  0
   57.7370   25.2010   46.1160 C   0  0  0  0  0  0  0  0  0  0  0  0
   59.1910   28.6510   45.5220 C   0  0  0  0  0  0  0  0  0  0  0  0
   59.7870   29.7010   46.2250 C   0  0  0  0  0  0  0  0  0  0  0  0
   61.2910   33.8230   50.9160 C   0  0  0  0  0  0  0  0  0  0  0  0
   62.7520   34.0900   50.5460 C   0  0  0  0  0  0  0  0  0  0  0  0
   63.1203   32.6037   48.7989 H   0  0  0  0  0  0  0  0  0  0  0  0
   64.6540   33.0029   47.9534 H   0  0  0  0  0  0  0  0  0  0  0  0
   64.0417   31.3142   47.9534 H   0  0  0  0  0  0  0  0  0  0  0  0
   67.5010   32.1663   49.4353 H   0  0  0  0  0  0  0  0  0  0  0  0
   68.9823   33.8304   50.5158 H   0  0  0  0  0  0  0  0  0  0  0  0
   69.2967   35.7899   51.8545 H   0  0  0  0  0  0  0  0  0  0  0  0
   68.3779   37.6093   53.2828 H   0  0  0  0  0  0  0  0  0  0  0  0
   65.9364   37.7199   53.7433 H   0  0  0  0  0  0  0  0  0  0  0  0
   64.4022   35.9954   52.8222 H   0  0  0  0  0  0  0  0  0  0  0  0
   63.5101   34.4140   52.5394 H   0  0  0  0  0  0  0  0  0  0  0  0
   64.1331   31.7042   52.4537 H   0  0  0  0  0  0  0  0  0  0  0  0
   62.7730   32.5633   53.3281 H   0  0  0  0  0  0  0  0  0  0  0  0
   62.6781   31.1407   50.6440 H   0  0  0  0  0  0  0  0  0  0  0  0
   61.7806   30.7724   52.1995 H   0  0  0  0  0  0  0  0  0  0  0  0
   60.7940   32.0240   50.1260 H   0  0  0  0  0  0  0  0  0  0  0  0
   59.7312   31.0436   52.0882 H   0  0  0  0  0  0  0  0  0  0  0  0
   59.8493   32.7472   52.7681 H   0  0  0  0  0  0  0  0  0  0  0  0
   57.6335   32.4384   51.8664 H   0  0  0  0  0  0  0  0  0  0  0  0
   58.5762   33.5614   50.7990 H   0  0  0  0  0  0  0  0  0  0  0  0
   58.7051   30.6744   50.0675 H   0  0  0  0  0  0  0  0  0  0  0  0
   57.0896   31.4832   49.8771 H   0  0  0  0  0  0  0  0  0  0  0  0
   58.0627   31.8471   47.7881 H   0  0  0  0  0  0  0  0  0  0  0  0
   58.4755   33.3608   48.6834 H   0  0  0  0  0  0  0  0  0  0  0  0
   59.6089   28.4137   49.3874 H   0  0  0  0  0  0  0  0  0  0  0  0
   58.5584   26.5375   48.1356 H   0  0  0  0  0  0  0  0  0  0  0  0
   58.2827   27.3521   43.5089 H   0  0  0  0  0  0  0  0  0  0  0  0
   57.2577   25.4547   42.2565 H   0  0  0  0  0  0  0  0  0  0  0  0
   56.8418   23.2349   45.9494 H   0  0  0  0  0  0  0  0  0  0  0  0
   57.8714   25.1240   47.2050 H   0  0  0  0  0  0  0  0  0  0  0  0
   59.0633   28.7279   44.4321 H   0  0  0  0  0  0  0  0  0  0  0  0
   60.1279   30.5955   45.6830 H   0  0  0  0  0  0  0  0  0  0  0  0
   60.6445   34.2133   50.1162 H   0  0  0  0  0  0  0  0  0  0  0  0
   61.0844   34.3246   51.8729 H   0  0  0  0  0  0  0  0  0  0  0  0
   63.0208   33.4968   49.6596 H   0  0  0  0  0  0  0  0  0  0  0  0
   62.8864   35.1589   50.3239 H   0  0  0  0  0  0  0  0  0  0  0  0
  1  2  1  0
  2  3  1  0
  3  4  2  0
  4  5  1  0
  5  6  2  0
  6  7  1  0
  7  8  2  0
  8  9  1  0
  9 10  2  0
 10 11  1  0
 11 12  2  0
 12 13  1  0
 13 14  1  0
 14 15  1  0
 15 16  1  0
 16 17  1  0
 17 18  1  0
 18 19  1  0
 19 20  1  0
 20 21  1  0
 21 22  1  0
 22 23  2  0
 22 24  1  0
 24 25  2  0
 25 26  1  0
 26 27  2  0
 27 28  1  0
 28 29  2  0
 29 30  1  0
 30 31  2  0
 31 32  1  0
 32 33  3  0
 31 34  1  0
 34 35  2  0
 27 36  1  0
 36 37  2  0
 16 38  1  0
 38 39  1  0
 12  3  1  0
 39 13  1  0
 11  6  1  0
 37 24  1  0
 35 28  1  0
  1 40  1  0
  1 41  1  0
  1 42  1  0
  4 43  1  0
  5 44  1  0
  7 45  1  0
  8 46  1  0
  9 47  1  0
 10 48  1  0
 13 49  1  1
 14 50  1  0
 14 51  1  0
 15 52  1  0
 15 53  1  0
 16 54  1  6
 17 55  1  0
 17 56  1  0
 18 57  1  0
 18 58  1  0
 19 59  1  0
 19 60  1  0
 20 61  1  0
 20 62  1  0
 25 63  1  0
 26 64  1  0
 29 65  1  0
 30 66  1  0
 34 67  1  0
 35 68  1  0
 36 69  1  0
 37 70  1  0
 38 71  1  0
 38 72  1  0
 39 73  1  0
 39 74  1  0
M  CHG  2  16   1  21  -1
M  END
>  <UniqueID>  (41) 
40

>  <SMILES>  (41) 
COc1ccc2ccccc2c1C1CC[NH+](CCCC[N-]C(=O)c2ccc(-c3ccc(C#N)cc3)cc2)CC1

>  <Energy>  (41) 
105.29426907646327

>  <Genealogy>  (41) 
COc1ccc2ccccc2c1C1CC[NH+](CCCC[N-]C(=O)c2ccc(-c3ccc(C#N)cc3)cc2)CC1 (protonated)
COc1ccc2ccccc2c1C1CC[NH+](CCCC[N-]C(=O)c2ccc(-c3ccc(C#N)cc3)cc2)CC1 (3D coordinates assigned)
COc1ccc2ccccc2c1C1CC[NH+](CCCC[N-]C(=O)c2ccc(-c3ccc(C#N)cc3)cc2)CC1 (nonaromatic ring conformer: 105.29426907646327 kcal/mol)

>  <smiles>  (41) 
COc1ccc2ccccc2c1C1CCN(CCCCNC(=O)c2ccc(-c3ccc(C#N)cc3)cc2)CC1

>  <score_type>  (41) 
oracle

>  <origin>  (41) 
adg

>  <m_score__min__energy>  (41) 
-9.1099999999999994

>  <m_primary>  (41) 
energy

$$$$
41:0
     RDKit          3D

 48 50  0  0  0  0  0  0  0  0999 V2000
   55.8430   21.9410   45.0250 C   0  0  0  0  0  0  0  0  0  0  0  0
   55.9450   22.2350   43.5870 N   0  0  0  0  0  0  0  0  0  0  0  0
   57.0260   21.4260   42.9980 C   0  0  0  0  0  0  0  0  0  0  0  0
   56.1860   23.6810   43.3760 C   0  0  0  0  0  0  0  0  0  0  0  0
   57.3900   24.1660   44.1920 C   0  0  0  0  0  0  0  0  0  0  0  0
   57.4810   25.6260   44.1950 N   0  0  0  0  0  0  0  0  0  0  0  0
   58.3090   26.3200   45.1420 C   0  0  0  0  0  0  0  0  0  0  0  0
   59.0860   25.6600   45.8850 O   0  0  0  0  0  0  0  0  0  0  0  0
   58.2830   27.7980   45.2490 C   0  0  0  0  0  0  0  0  0  0  0  0
   58.5820   28.4450   46.4610 C   0  0  0  0  0  0  0  0  0  0  0  0
   58.5560   29.8390   46.5490 C   0  0  0  0  0  0  0  0  0  0  0  0
   58.2490   30.6190   45.4200 C   0  0  0  0  0  0  0  0  0  0  0  0
   57.9500   29.9760   44.2050 C   0  0  0  0  0  0  0  0  0  0  0  0
   57.9710   28.5770   44.1230 C   0  0  0  0  0  0  0  0  0  0  0  0
   57.6020   30.7640   43.0580 N   0  0  0  0  0  0  0  0  0  0  0  0
   57.7710   32.2150   43.0660 C   0  0  0  0  0  0  0  0  0  0  0  0
   57.4330   32.7810   44.4460 C   0  0  0  0  0  0  0  0  0  0  0  0
   58.1860   32.0630   45.4840 N   0  0  0  0  0  0  0  0  0  0  0  0
   58.8150   32.8080   46.5450 C   0  0  0  0  0  0  0  0  0  0  0  0
   59.7550   33.8090   46.2490 C   0  0  0  0  0  0  0  0  0  0  0  0
   60.3720   34.5220   47.2810 C   0  0  0  0  0  0  0  0  0  0  0  0
   60.0620   34.2370   48.6130 C   0  0  0  0  0  0  0  0  0  0  0  0
   59.1340   33.2360   48.9170 C   0  0  0  0  0  0  0  0  0  0  0  0
   58.5150   32.5210   47.8880 C   0  0  0  0  0  0  0  0  0  0  0  0
   56.1498   22.8254   45.6027 H   0  0  0  0  0  0  0  0  0  0  0  0
   54.8029   21.6833   45.2737 H   0  0  0  0  0  0  0  0  0  0  0  0
   56.5000   21.0945   45.2737 H   0  0  0  0  0  0  0  0  0  0  0  0
   57.6271   20.9762   43.8020 H   0  0  0  0  0  0  0  0  0  0  0  0
   56.5909   20.6298   42.3761 H   0  0  0  0  0  0  0  0  0  0  0  0
   57.6672   22.0679   42.3761 H   0  0  0  0  0  0  0  0  0  0  0  0
   56.3801   23.8606   42.3083 H   0  0  0  0  0  0  0  0  0  0  0  0
   55.2949   24.2350   43.7061 H   0  0  0  0  0  0  0  0  0  0  0  0
   57.2857   23.8120   45.2283 H   0  0  0  0  0  0  0  0  0  0  0  0
   58.3044   23.7636   43.7315 H   0  0  0  0  0  0  0  0  0  0  0  0
   56.9660   26.1730   43.4680 H   0  0  0  0  0  0  0  0  0  0  0  0
   58.8388   27.8478   47.3484 H   0  0  0  0  0  0  0  0  0  0  0  0
   58.7772   30.3299   47.5082 H   0  0  0  0  0  0  0  0  0  0  0  0
   57.7407   28.0842   43.1669 H   0  0  0  0  0  0  0  0  0  0  0  0
   57.2800   30.2980   42.1790 H   0  0  0  0  0  0  0  0  0  0  0  0
   58.8145   32.4602   42.8188 H   0  0  0  0  0  0  0  0  0  0  0  0
   57.0933   32.6583   42.3216 H   0  0  0  0  0  0  0  0  0  0  0  0
   57.6981   33.8481   44.4766 H   0  0  0  0  0  0  0  0  0  0  0  0
   56.3559   32.6577   44.6320 H   0  0  0  0  0  0  0  0  0  0  0  0
   60.0064   34.0325   45.2017 H   0  0  0  0  0  0  0  0  0  0  0  0
   61.1030   35.3090   47.0438 H   0  0  0  0  0  0  0  0  0  0  0  0
   60.5481   34.8003   49.4232 H   0  0  0  0  0  0  0  0  0  0  0  0
   58.8912   33.0114   49.9661 H   0  0  0  0  0  0  0  0  0  0  0  0
   57.7898   31.7301   48.1301 H   0  0  0  0  0  0  0  0  0  0  0  0
  1  2  1  0
  2  3  1  0
  2  4  1  0
  4  5  1  0
  5  6  1  0
  6  7  1  0
  7  8  2  0
  7  9  1  0
  9 10  2  0
 10 11  1  0
 11 12  2  0
 12 13  1  0
 13 14  2  0
 13 15  1  0
 15 16  1  0
 16 17  1  0
 17 18  1  0
 18 19  1  0
 19 20  2  0
 20 21  1  0
 21 22  2  0
 22 23  1  0
 23 24  2  0
 14  9  1  0
 24 19  1  0
 18 12  1  0
  1 25  1  0
  1 26  1  0
  1 27  1  0
  3 28  1  0
  3 29  1  0
  3 30  1  0
  4 31  1  0
  4 32  1  0
  5 33  1  0
  5 34  1  0
  6 35  1  0
 10 36  1  0
 11 37  1  0
 14 38  1  0
 15 39  1  0
 16 40  1  0
 16 41  1  0
 17 42  1  0
 17 43  1  0
 20 44  1  0
 21 45  1  0
 22 46  1  0
 23 47  1  0
 24 48  1  0
M  END
>  <UniqueID>  (42) 
41

>  <SMILES>  (42) 
CN(C)CCNC(=O)c1ccc2c(c1)NCCN2c1ccccc1

>  <Energy>  (42) 
55.43779436023081

>  <Genealogy>  (42) 
CN(C)CCNC(=O)c1ccc2c(c1)NCCN2c1ccccc1 (3D coordinates assigned)
CN(C)CCNC(=O)c1ccc2c(c1)NCCN2c1ccccc1 (nonaromatic ring conformer: 55.43779436023081 kcal/mol)

>  <smiles>  (42) 
CN(C)CCNC(=O)c1ccc2c(c1)NCCN2c1ccccc1

>  <score_type>  (42) 
oracle

>  <origin>  (42) 
adg

>  <m_score__min__energy>  (42) 
-7.6699999999999999

>  <m_primary>  (42) 
energy

$$$$
42:0
     RDKit          3D

 33 35  0  0  0  0  0  0  0  0999 V2000
   60.1750   28.3180   48.8460 C   0  0  0  0  0  0  0  0  0  0  0  0
   60.3870   26.7580   47.9350 S   0  0  0  0  0  0  0  0  0  0  0  0
   59.4750   27.3320   46.5010 C   0  0  0  0  0  0  0  0  0  0  0  0
   58.1800   26.8630   46.2580 C   0  0  0  0  0  0  0  0  0  0  0  0
   57.4670   27.3100   45.1420 C   0  0  0  0  0  0  0  0  0  0  0  0
   58.0480   28.2370   44.2540 C   0  0  0  0  0  0  0  0  0  0  0  0
   57.3820   28.7170   43.1140 O   0  0  0  0  0  0  0  0  0  0  0  0
   56.5440   29.8720   43.0760 C   0  0  0  0  0  0  0  0  0  0  0  0
   57.1380   30.9790   43.8920 C   0  0  0  0  0  0  0  0  0  0  0  0
   57.8500   32.0570   43.3910 C   0  0  0  0  0  0  0  0  0  0  0  0
   58.1820   32.8190   44.4420 N   0  0  0  0  0  0  0  0  0  0  0  0
   58.8830   33.9800   44.4900 C   0  0  0  0  0  0  0  0  0  0  0  0
   59.0860   34.5770   45.7430 C   0  0  0  0  0  0  0  0  0  0  0  0
   58.5640   33.9610   46.8980 C   0  0  0  0  0  0  0  0  0  0  0  0
   57.8430   32.7580   46.7970 C   0  0  0  0  0  0  0  0  0  0  0  0
   57.6740   32.2120   45.5270 C   0  0  0  0  0  0  0  0  0  0  0  0
   57.0130   31.0710   45.2390 N   0  0  0  0  0  0  0  0  0  0  0  0
   59.3430   28.7080   44.5110 C   0  0  0  0  0  0  0  0  0  0  0  0
   60.0530   28.2600   45.6270 C   0  0  0  0  0  0  0  0  0  0  0  0
   60.2022   28.1178   49.9273 H   0  0  0  0  0  0  0  0  0  0  0  0
   60.9873   29.0108   48.5808 H   0  0  0  0  0  0  0  0  0  0  0  0
   59.2073   28.7689   48.5808 H   0  0  0  0  0  0  0  0  0  0  0  0
   57.7208   26.1396   46.9478 H   0  0  0  0  0  0  0  0  0  0  0  0
   56.4490   26.9369   44.9563 H   0  0  0  0  0  0  0  0  0  0  0  0
   56.4374   30.2076   42.0339 H   0  0  0  0  0  0  0  0  0  0  0  0
   55.5602   29.6113   43.4932 H   0  0  0  0  0  0  0  0  0  0  0  0
   58.0949   32.2497   42.3361 H   0  0  0  0  0  0  0  0  0  0  0  0
   59.2804   34.4395   43.5730 H   0  0  0  0  0  0  0  0  0  0  0  0
   59.6484   35.5189   45.8234 H   0  0  0  0  0  0  0  0  0  0  0  0
   58.7214   34.4236   47.8835 H   0  0  0  0  0  0  0  0  0  0  0  0
   57.4275   32.2660   47.6888 H   0  0  0  0  0  0  0  0  0  0  0  0
   59.8039   29.4366   43.8279 H   0  0  0  0  0  0  0  0  0  0  0  0
   61.0683   28.6371   45.8195 H   0  0  0  0  0  0  0  0  0  0  0  0
  1  2  1  0
  2  3  1  0
  3  4  2  0
  4  5  1  0
  5  6  2  0
  6  7  1  0
  7  8  1  0
  8  9  1  0
  9 10  2  0
 10 11  1  0
 11 12  1  0
 12 13  2  0
 13 14  1  0
 14 15  2  0
 15 16  1  0
 16 17  2  0
  6 18  1  0
 18 19  2  0
 19  3  1  0
 17  9  1  0
 16 11  1  0
  1 20  1  0
  1 21  1  0
  1 22  1  0
  4 23  1  0
  5 24  1  0
  8 25  1  0
  8 26  1  0
 10 27  1  0
 12 28  1  0
 13 29  1  0
 14 30  1  0
 15 31  1  0
 18 32  1  0
 19 33  1  0
M  END
>  <UniqueID>  (43) 
42

>  <SMILES>  (43) 
CSc1ccc(OCc2cn3ccccc3n2)cc1

>  <Energy>  (43) 
64.6403341771306

>  <Genealogy>  (43) 
CSc1ccc(OCc2cn3ccccc3n2)cc1 (3D coordinates assigned)
CSc1ccc(OCc2cn3ccccc3n2)cc1 (optimized conformer: 64.6403341771306 kcal/mol)

>  <smiles>  (43) 
CSc1ccc(OCc2cn3ccccc3n2)cc1

>  <score_type>  (43) 
oracle

>  <origin>  (43) 
adg

>  <m_score__min__energy>  (43) 
-6.5700000000000003

>  <m_primary>  (43) 
energy

$$$$
43:0
     RDKit          3D

 34 37  0  0  0  0  0  0  0  0999 V2000
   56.6350   30.1690   43.1900 C   0  0  0  0  0  0  0  0  0  0  0  0
   56.5570   30.6850   44.5150 O   0  0  0  0  0  0  0  0  0  0  0  0
   57.5310   31.5040   45.1140 C   0  0  0  0  0  0  0  0  0  0  0  0
   57.4230   32.9170   45.0670 C   0  0  0  0  0  0  0  0  0  0  0  0
   58.4270   33.6610   45.6650 C   0  0  0  0  0  0  0  0  0  0  0  0
   58.5260   34.9660   45.7380 O   0  0  0  0  0  0  0  0  0  0  0  0
   59.6360   35.2450   46.3980 C   0  0  0  0  0  0  0  0  0  0  0  0
   60.2860   34.0730   46.7680 C   0  0  0  0  0  0  0  0  0  0  0  0
   59.4840   33.0660   46.2800 C   0  0  0  0  0  0  0  0  0  0  0  0
   59.5940   31.6820   46.3370 C   0  0  0  0  0  0  0  0  0  0  0  0
   60.5690   31.1510   46.9380 O   0  0  0  0  0  0  0  0  0  0  0  0
   58.6140   30.9140   45.7430 N   0  0  0  0  0  0  0  0  0  0  0  0
   58.7000   29.4770   45.7890 C   0  0  0  0  0  0  0  0  0  0  0  0
   59.9260   28.8240   45.5820 C   0  0  0  0  0  0  0  0  0  0  0  0
   59.9830   27.4300   45.6170 C   0  0  0  0  0  0  0  0  0  0  0  0
   58.8170   26.6910   45.8530 C   0  0  0  0  0  0  0  0  0  0  0  0
   58.8380   25.2890   45.8930 C   0  0  0  0  0  0  0  0  0  0  0  0
   57.6550   24.5800   46.1270 C   0  0  0  0  0  0  0  0  0  0  0  0
   56.4500   25.2650   46.3200 C   0  0  0  0  0  0  0  0  0  0  0  0
   56.4210   26.6620   46.2810 C   0  0  0  0  0  0  0  0  0  0  0  0
   57.6000   27.3800   46.0480 C   0  0  0  0  0  0  0  0  0  0  0  0
   57.5750   28.7390   46.0110 N   0  0  0  0  0  0  0  0  0  0  0  0
   56.7993   29.0820   43.2289 H   0  0  0  0  0  0  0  0  0  0  0  0
   55.6949   30.3790   42.6588 H   0  0  0  0  0  0  0  0  0  0  0  0
   57.4710   30.6474   42.6588 H   0  0  0  0  0  0  0  0  0  0  0  0
   56.5708   33.4059   44.5724 H   0  0  0  0  0  0  0  0  0  0  0  0
   59.9949   36.2602   46.6228 H   0  0  0  0  0  0  0  0  0  0  0  0
   61.2290   33.9728   47.3253 H   0  0  0  0  0  0  0  0  0  0  0  0
   60.8381   29.4092   45.3930 H   0  0  0  0  0  0  0  0  0  0  0  0
   60.9412   26.9131   45.4596 H   0  0  0  0  0  0  0  0  0  0  0  0
   59.7834   24.7478   45.7406 H   0  0  0  0  0  0  0  0  0  0  0  0
   57.6720   23.4806   46.1594 H   0  0  0  0  0  0  0  0  0  0  0  0
   55.5227   24.7023   46.5030 H   0  0  0  0  0  0  0  0  0  0  0  0
   55.4720   27.1970   46.4333 H   0  0  0  0  0  0  0  0  0  0  0  0
  1  2  1  0
  2  3  1  0
  3  4  2  0
  4  5  1  0
  5  6  1  0
  6  7  1  0
  7  8  2  0
  8  9  1  0
  9 10  1  0
 10 11  2  0
 10 12  1  0
 12 13  1  0
 13 14  2  0
 14 15  1  0
 15 16  2  0
 16 17  1  0
 17 18  2  0
 18 19  1  0
 19 20  2  0
 20 21  1  0
 21 22  2  0
 12  3  1  0
 22 13  1  0
  9  5  2  0
 21 16  1  0
  1 23  1  0
  1 24  1  0
  1 25  1  0
  4 26  1  0
  7 27  1  0
  8 28  1  0
 14 29  1  0
 15 30  1  0
 17 31  1  0
 18 32  1  0
 19 33  1  0
 20 34  1  0
M  END
>  <UniqueID>  (44) 
43

>  <SMILES>  (44) 
COc1cc2occc2c(=O)n1-c1ccc2ccccc2n1

>  <Energy>  (44) 
85.03180671130858

>  <Genealogy>  (44) 
COc1cc2occc2c(=O)n1-c1ccc2ccccc2n1 (3D coordinates assigned)
COc1cc2occc2c(=O)n1-c1ccc2ccccc2n1 (optimized conformer: 85.03180671130858 kcal/mol)

>  <smiles>  (44) 
COc1cc2occc2c(=O)n1-c1ccc2ccccc2n1

>  <score_type>  (44) 
oracle

>  <origin>  (44) 
adg

>  <m_score__min__energy>  (44) 
-6.8700000000000001

>  <m_primary>  (44) 
energy

$$$$
44:0
     RDKit          3D

 70 74  0  0  0  0  0  0  0  0999 V2000
   60.8090   30.3370   46.3730 C   0  0  0  0  0  0  0  0  0  0  0  0
   59.4160   30.5900   46.5110 O   0  0  0  0  0  0  0  0  0  0  0  0
   58.4510   30.3170   45.5270 C   0  0  0  0  0  0  0  0  0  0  0  0
   58.3280   29.0420   44.9410 C   0  0  0  0  0  0  0  0  0  0  0  0
   57.3760   28.8120   43.9450 C   0  0  0  0  0  0  0  0  0  0  0  0
   56.5400   29.8470   43.5210 C   0  0  0  0  0  0  0  0  0  0  0  0
   56.6540   31.1150   44.0920 C   0  0  0  0  0  0  0  0  0  0  0  0
   57.5960   31.3560   45.1020 C   0  0  0  0  0  0  0  0  0  0  0  0
   57.7220   32.6800   45.6460 N   0  0  0  0  0  0  0  0  0  0  0  0
   57.6790   32.9080   47.0950 C   0  0  0  0  0  0  0  0  0  0  0  0
   58.9860   33.5750   47.5710 C   0  0  0  0  0  0  0  0  0  0  0  0
   59.9550   33.6740   46.4590 N   0  0  0  0  0  0  0  0  0  0  0  0
   61.2670   34.1840   46.9010 C   0  0  0  0  0  0  0  0  0  0  0  0
   61.8160   33.2600   47.9970 C   0  0  0  0  0  0  0  0  0  0  0  0
   61.8380   33.9440   49.3690 C   0  0  0  0  0  0  0  0  0  0  0  0
   61.2540   33.1040   50.4130 N   0  0  0  0  0  0  0  0  0  0  0  0
   61.1010   31.6840   50.3060 C   0  0  0  0  0  0  0  0  0  0  0  0
   62.1050   30.9690   50.0450 O   0  0  0  0  0  0  0  0  0  0  0  0
   59.7800   31.0500   50.4930 C   0  0  0  0  0  0  0  0  0  0  0  0
   59.3240   29.8360   49.9860 C   0  0  0  0  0  0  0  0  0  0  0  0
   60.0440   28.9280   49.0420 C   0  0  0  0  0  0  0  0  0  0  0  0
   58.1410   29.5190   50.5500 N   0  0  0  0  0  0  0  0  0  0  0  0
   57.8110   30.4930   51.3860 N   0  0  0  0  0  0  0  0  0  0  0  0
   56.6160   30.4720   52.1860 C   0  0  0  0  0  0  0  0  0  0  0  0
   55.3710   30.8280   51.6370 C   0  0  0  0  0  0  0  0  0  0  0  0
   54.2180   30.8050   52.4280 C   0  0  0  0  0  0  0  0  0  0  0  0
   54.2940   30.4130   53.7670 C   0  0  0  0  0  0  0  0  0  0  0  0
   53.1740   30.3890   54.5320 F   0  0  0  0  0  0  0  0  0  0  0  0
   55.5230   30.0390   54.3150 C   0  0  0  0  0  0  0  0  0  0  0  0
   56.6790   30.0630   53.5280 C   0  0  0  0  0  0  0  0  0  0  0  0
   58.7780   31.4380   51.3710 C   0  0  0  0  0  0  0  0  0  0  0  0
   58.8460   32.5420   52.2820 N   0  0  0  0  0  0  0  0  0  0  0  0
   58.5440   33.8220   52.0010 C   0  0  0  0  0  0  0  0  0  0  0  0
   58.7420   34.6010   53.1230 C   0  0  0  0  0  0  0  0  0  0  0  0
   59.1860   33.7530   54.1200 C   0  0  0  0  0  0  0  0  0  0  0  0
   59.2410   32.4880   53.5670 C   0  0  0  0  0  0  0  0  0  0  0  0
   59.3900   34.4730   45.3510 C   0  0  0  0  0  0  0  0  0  0  0  0
   58.1340   33.7880   44.7790 C   0  0  0  0  0  0  0  0  0  0  0  0
   61.2670   30.2538   47.3696 H   0  0  0  0  0  0  0  0  0  0  0  0
   60.9581   29.3971   45.8213 H   0  0  0  0  0  0  0  0  0  0  0  0
   61.2791   31.1645   45.8213 H   0  0  0  0  0  0  0  0  0  0  0  0
   58.9850   28.2232   45.2694 H   0  0  0  0  0  0  0  0  0  0  0  0
   57.2846   27.8131   43.4936 H   0  0  0  0  0  0  0  0  0  0  0  0
   55.7913   29.6626   42.7365 H   0  0  0  0  0  0  0  0  0  0  0  0
   56.0009   31.9304   43.7477 H   0  0  0  0  0  0  0  0  0  0  0  0
   56.8289   33.5639   47.3341 H   0  0  0  0  0  0  0  0  0  0  0  0
   57.5641   31.9408   47.6062 H   0  0  0  0  0  0  0  0  0  0  0  0
   58.7610   34.5846   47.9453 H   0  0  0  0  0  0  0  0  0  0  0  0
   59.4260   32.9616   48.3711 H   0  0  0  0  0  0  0  0  0  0  0  0
   61.9628   34.2005   46.0492 H   0  0  0  0  0  0  0  0  0  0  0  0
   61.1565   35.2050   47.2951 H   0  0  0  0  0  0  0  0  0  0  0  0
   61.1804   32.3642   48.0572 H   0  0  0  0  0  0  0  0  0  0  0  0
   62.8509   32.9974   47.7323 H   0  0  0  0  0  0  0  0  0  0  0  0
   62.8811   34.1682   49.6366 H   0  0  0  0  0  0  0  0  0  0  0  0
   61.2371   34.8627   49.2985 H   0  0  0  0  0  0  0  0  0  0  0  0
   60.6276   28.1920   49.6145 H   0  0  0  0  0  0  0  0  0  0  0  0
   59.3134   28.4038   48.4084 H   0  0  0  0  0  0  0  0  0  0  0  0
   60.7209   29.5199   48.4084 H   0  0  0  0  0  0  0  0  0  0  0  0
   55.3039   31.1260   50.5803 H   0  0  0  0  0  0  0  0  0  0  0  0
   53.2495   31.0960   51.9953 H   0  0  0  0  0  0  0  0  0  0  0  0
   55.5819   29.7250   55.3676 H   0  0  0  0  0  0  0  0  0  0  0  0
   57.6429   29.7598   53.9627 H   0  0  0  0  0  0  0  0  0  0  0  0
   58.1929   34.1915   51.0262 H   0  0  0  0  0  0  0  0  0  0  0  0
   58.5783   35.6855   53.2073 H   0  0  0  0  0  0  0  0  0  0  0  0
   59.4450   34.0310   55.1523 H   0  0  0  0  0  0  0  0  0  0  0  0
   59.5587   31.5773   54.0958 H   0  0  0  0  0  0  0  0  0  0  0  0
   59.1193   35.4712   45.7256 H   0  0  0  0  0  0  0  0  0  0  0  0
   60.1431   34.5591   44.5538 H   0  0  0  0  0  0  0  0  0  0  0  0
   57.3173   34.5221   44.7147 H   0  0  0  0  0  0  0  0  0  0  0  0
   58.3646   33.3939   43.7782 H   0  0  0  0  0  0  0  0  0  0  0  0
  1  2  1  0
  2  3  1  0
  3  4  2  0
  4  5  1  0
  5  6  2  0
  6  7  1  0
  7  8  2  0
  8  9  1  0
  9 10  1  0
 10 11  1  0
 11 12  1  0
 12 13  1  0
 13 14  1  0
 14 15  1  0
 15 16  1  0
 16 17  1  0
 17 18  2  0
 17 19  1  0
 19 20  1  0
 20 21  1  0
 20 22  2  0
 22 23  1  0
 23 24  1  0
 24 25  2  0
 25 26  1  0
 26 27  2  0
 27 28  1  0
 27 29  1  0
 29 30  2  0
 23 31  1  0
 31 32  1  0
 32 33  1  0
 33 34  2  0
 34 35  1  0
 35 36  2  0
 12 37  1  0
 37 38  1  0
  8  3  1  0
 38  9  1  0
 31 19  2  0
 36 32  1  0
 30 24  1  0
  1 39  1  0
  1 40  1  0
  1 41  1  0
  4 42  1  0
  5 43  1  0
  6 44  1  0
  7 45  1  0
 10 46  1  0
 10 47  1  0
 11 48  1  0
 11 49  1  0
 13 50  1  0
 13 51  1  0
 14 52  1  0
 14 53  1  0
 15 54  1  0
 15 55  1  0
 21 56  1  0
 21 57  1  0
 21 58  1  0
 25 59  1  0
 26 60  1  0
 29 61  1  0
 30 62  1  0
 33 63  1  0
 34 64  1  0
 35 65  1  0
 36 66  1  0
 37 67  1  0
 37 68  1  0
 38 69  1  0
 38 70  1  0
M  CHG  1  16  -1
M  END
>  <UniqueID>  (45) 
44

>  <SMILES>  (45) 
COc1ccccc1N1CCN(CCC[N-]C(=O)c2c(C)nn(-c3ccc(F)cc3)c2-n2cccc2)CC1

>  <Energy>  (45) 
154.78874673557684

>  <Genealogy>  (45) 
COc1ccccc1N1CCN(CCC[N-]C(=O)c2c(C)nn(-c3ccc(F)cc3)c2-n2cccc2)CC1 (protonated)
COc1ccccc1N1CCN(CCC[N-]C(=O)c2c(C)nn(-c3ccc(F)cc3)c2-n2cccc2)CC1 (3D coordinates assigned)
COc1ccccc1N1CCN(CCC[N-]C(=O)c2c(C)nn(-c3ccc(F)cc3)c2-n2cccc2)CC1 (nonaromatic ring conformer: 154.78874673557684 kcal/mol)

>  <smiles>  (45) 
COc1ccccc1N1CCN(CCCNC(=O)c2c(C)nn(-c3ccc(F)cc3)c2-n2cccc2)CC1

>  <score_type>  (45) 
oracle

>  <origin>  (45) 
adg

>  <m_score__min__energy>  (45) 
-9.7599999999999998

>  <m_primary>  (45) 
energy

$$$$
45:0
     RDKit          3D

 68 72  0  0  0  0  0  0  0  0999 V2000
   57.6960   33.0750   47.2080 C   0  0  0  0  0  0  0  0  0  0  0  0
   58.5650   34.3110   47.3980 C   0  0  0  0  0  0  0  0  0  0  0  0
   59.3100   34.5850   46.1480 N   0  0  0  0  0  0  0  0  0  0  0  0
   58.4580   34.4690   44.9390 C   0  0  0  0  0  0  0  0  0  0  0  0
   58.5160   33.0950   44.2570 C   0  0  0  0  0  0  0  0  0  0  0  0
   60.5970   33.8550   46.0820 C   0  0  0  0  0  0  0  0  0  0  0  0
   61.5230   34.1990   47.2580 C   0  0  0  0  0  0  0  0  0  0  0  0
   61.8290   33.0060   48.0460 N   0  0  0  0  0  0  0  0  0  0  0  0
   61.2050   31.7390   47.7910 C   0  0  0  0  0  0  0  0  0  0  0  0
   61.6060   30.9780   46.7300 N   0  0  0  0  0  0  0  0  0  0  0  0
   60.9910   29.8340   46.3970 N   0  0  0  0  0  0  0  0  0  0  0  0
   59.9110   29.3600   47.0840 C   0  0  0  0  0  0  0  0  0  0  0  0
   59.2640   28.0950   46.6640 C   0  0  0  0  0  0  0  0  0  0  0  0
   59.9520   26.8690   46.7150 C   0  0  0  0  0  0  0  0  0  0  0  0
   59.3180   25.6840   46.3320 C   0  0  0  0  0  0  0  0  0  0  0  0
   57.9850   25.6970   45.8900 C   0  0  0  0  0  0  0  0  0  0  0  0
   57.3300   24.4700   45.5110 N   0  0  0  0  0  0  0  0  0  0  0  0
   57.9910   23.1770   45.7450 C   0  0  0  0  0  0  0  0  0  0  0  0
   57.3600   22.0810   44.8800 C   0  0  0  0  0  0  0  0  0  0  0  0
   56.9910   22.6510   43.5720 N   0  0  0  0  0  0  0  0  0  0  0  0
   56.6480   21.5830   42.6200 C   0  0  0  0  0  0  0  0  0  0  0  0
   55.8680   23.6090   43.7000 C   0  0  0  0  0  0  0  0  0  0  0  0
   55.9630   24.4760   44.9740 C   0  0  0  0  0  0  0  0  0  0  0  0
   57.2900   26.9180   45.8600 C   0  0  0  0  0  0  0  0  0  0  0  0
   57.9220   28.1030   46.2450 C   0  0  0  0  0  0  0  0  0  0  0  0
   59.4890   30.0960   48.1940 C   0  0  0  0  0  0  0  0  0  0  0  0
   58.5170   29.8050   49.0330 O   0  0  0  0  0  0  0  0  0  0  0  0
   58.5110   30.7490   49.9490 C   0  0  0  0  0  0  0  0  0  0  0  0
   57.6620   30.8400   51.0490 C   0  0  0  0  0  0  0  0  0  0  0  0
   57.8550   31.9060   51.9440 C   0  0  0  0  0  0  0  0  0  0  0  0
   58.8910   32.8400   51.7300 C   0  0  0  0  0  0  0  0  0  0  0  0
   59.7360   32.7310   50.6110 C   0  0  0  0  0  0  0  0  0  0  0  0
   59.5020   31.6830   49.7150 C   0  0  0  0  0  0  0  0  0  0  0  0
   60.1320   31.2620   48.5530 C   0  0  0  0  0  0  0  0  0  0  0  0
   57.4123   32.6715   48.1912 H   0  0  0  0  0  0  0  0  0  0  0  0
   56.7892   33.3469   46.6478 H   0  0  0  0  0  0  0  0  0  0  0  0
   58.2587   32.3138   46.6478 H   0  0  0  0  0  0  0  0  0  0  0  0
   57.9277   35.1737   47.6421 H   0  0  0  0  0  0  0  0  0  0  0  0
   59.2761   34.1377   48.2192 H   0  0  0  0  0  0  0  0  0  0  0  0
   57.4159   34.6651   45.2314 H   0  0  0  0  0  0  0  0  0  0  0  0
   58.8414   35.1993   44.2112 H   0  0  0  0  0  0  0  0  0  0  0  0
   58.5493   32.3065   45.0232 H   0  0  0  0  0  0  0  0  0  0  0  0
   57.6228   32.9591   43.6295 H   0  0  0  0  0  0  0  0  0  0  0  0
   59.4175   33.0349   43.6295 H   0  0  0  0  0  0  0  0  0  0  0  0
   60.3920   32.7744   46.0975 H   0  0  0  0  0  0  0  0  0  0  0  0
   61.1063   34.1539   45.1540 H   0  0  0  0  0  0  0  0  0  0  0  0
   62.4598   34.6227   46.8670 H   0  0  0  0  0  0  0  0  0  0  0  0
   61.0134   34.9275   47.9058 H   0  0  0  0  0  0  0  0  0  0  0  0
   62.3160   33.1530   48.9540 H   0  0  0  0  0  0  0  0  0  0  0  0
   60.9966   26.8429   47.0588 H   0  0  0  0  0  0  0  0  0  0  0  0
   59.8680   24.7324   46.3771 H   0  0  0  0  0  0  0  0  0  0  0  0
   59.0580   23.2662   45.4929 H   0  0  0  0  0  0  0  0  0  0  0  0
   57.8701   22.9049   46.8039 H   0  0  0  0  0  0  0  0  0  0  0  0
   58.0826   21.2644   44.7352 H   0  0  0  0  0  0  0  0  0  0  0  0
   56.4624   21.6865   45.3786 H   0  0  0  0  0  0  0  0  0  0  0  0
   56.3573   20.6779   43.1735 H   0  0  0  0  0  0  0  0  0  0  0  0
   55.8100   21.9109   41.9874 H   0  0  0  0  0  0  0  0  0  0  0  0
   57.5202   21.3617   41.9874 H   0  0  0  0  0  0  0  0  0  0  0  0
   55.8703   24.2724   42.8225 H   0  0  0  0  0  0  0  0  0  0  0  0
   54.9392   23.0234   43.7666 H   0  0  0  0  0  0  0  0  0  0  0  0
   55.6770   25.5094   44.7286 H   0  0  0  0  0  0  0  0  0  0  0  0
   55.2850   24.0599   45.7337 H   0  0  0  0  0  0  0  0  0  0  0  0
   56.2406   26.9409   45.5310 H   0  0  0  0  0  0  0  0  0  0  0  0
   57.3645   29.0509   46.2201 H   0  0  0  0  0  0  0  0  0  0  0  0
   56.8646   30.1000   51.2123 H   0  0  0  0  0  0  0  0  0  0  0  0
   57.1943   32.0131   52.8170 H   0  0  0  0  0  0  0  0  0  0  0  0
   59.0392   33.6619   52.4459 H   0  0  0  0  0  0  0  0  0  0  0  0
   60.5546   33.4470   50.4459 H   0  0  0  0  0  0  0  0  0  0  0  0
  1  2  1  0
  2  3  1  0
  3  4  1  0
  4  5  1  0
  3  6  1  0
  6  7  1  0
  7  8  1  0
  8  9  1  0
  9 10  2  0
 10 11  1  0
 11 12  2  0
 12 13  1  0
 13 14  2  0
 14 15  1  0
 15 16  2  0
 16 17  1  0
 17 18  1  0
 18 19  1  0
 19 20  1  0
 20 21  1  0
 20 22  1  0
 22 23  1  0
 16 24  1  0
 24 25  2  0
 12 26  1  0
 26 27  1  0
 27 28  1  0
 28 29  2  0
 29 30  1  0
 30 31  2  0
 31 32  1  0
 32 33  2  0
 33 34  1  0
 34  9  1  0
 25 13  1  0
 34 26  2  0
 23 17  1  0
 33 28  1  0
  1 35  1  0
  1 36  1  0
  1 37  1  0
  2 38  1  0
  2 39  1  0
  4 40  1  0
  4 41  1  0
  5 42  1  0
  5 43  1  0
  5 44  1  0
  6 45  1  0
  6 46  1  0
  7 47  1  0
  7 48  1  0
  8 49  1  0
 14 50  1  0
 15 51  1  0
 18 52  1  0
 18 53  1  0
 19 54  1  0
 19 55  1  0
 21 56  1  0
 21 57  1  0
 21 58  1  0
 22 59  1  0
 22 60  1  0
 23 61  1  0
 23 62  1  0
 24 63  1  0
 25 64  1  0
 29 65  1  0
 30 66  1  0
 31 67  1  0
 32 68  1  0
M  END
>  <UniqueID>  (46) 
45

>  <SMILES>  (46) 
CCN(CC)CCNc1nnc(-c2ccc(N3CCN(C)CC3)cc2)c2oc3ccccc3c12

>  <Energy>  (46) 
133.0194334245403

>  <Genealogy>  (46) 
CCN(CC)CCNc1nnc(-c2ccc(N3CCN(C)CC3)cc2)c2oc3ccccc3c12 (3D coordinates assigned)
CCN(CC)CCNc1nnc(-c2ccc(N3CCN(C)CC3)cc2)c2oc3ccccc3c12 (nonaromatic ring conformer: 133.0194334245403 kcal/mol)

>  <smiles>  (46) 
CCN(CC)CCNc1nnc(-c2ccc(N3CCN(C)CC3)cc2)c2oc3ccccc3c12

>  <score_type>  (46) 
oracle

>  <origin>  (46) 
adg

>  <m_score__min__energy>  (46) 
-8.2200000000000006

>  <m_primary>  (46) 
energy

$$$$
46:0
     RDKit          3D

 63 66  0  0  0  0  0  0  0  0999 V2000
   56.9780   27.0750   45.6570 C   0  0  0  0  0  0  0  0  0  0  0  0
   58.0440   27.2930   46.7400 C   0  0  0  0  0  0  0  0  0  0  0  0
   59.0450   28.3360   46.4050 N   0  0  0  0  0  0  0  0  0  0  0  0
   59.5780   28.2450   45.0270 C   0  0  0  0  0  0  0  0  0  0  0  0
   60.9130   28.9740   44.8870 C   0  0  0  0  0  0  0  0  0  0  0  0
   60.1310   28.4160   47.4100 C   0  0  0  0  0  0  0  0  0  0  0  0
   59.5720   28.7890   48.7920 C   0  0  0  0  0  0  0  0  0  0  0  0
   60.0670   30.1570   49.2860 C   0  0  0  0  0  0  0  0  0  0  0  0
   59.9170   31.1820   48.2550 N   0  0  0  0  0  0  0  0  0  0  0  0
   59.3150   32.4600   48.5130 C   0  0  0  0  0  0  0  0  0  0  0  0
   58.8710   32.7210   49.6650 O   0  0  0  0  0  0  0  0  0  0  0  0
   59.1280   33.4450   47.3800 C   0  0  1  0  0  0  0  0  0  0  0  0
   60.2820   34.4710   47.2340 C   0  0  0  0  0  0  0  0  0  0  0  0
   61.6510   33.8820   47.4570 C   0  0  0  0  0  0  0  0  0  0  0  0
   62.5430   33.4480   46.4800 C   0  0  0  0  0  0  0  0  0  0  0  0
   63.7160   33.0750   47.0420 N   0  0  0  0  0  0  0  0  0  0  0  0
   63.5740   33.2690   48.3640 C   0  0  0  0  0  0  0  0  0  0  0  0
   64.5320   33.0610   49.3550 C   0  0  0  0  0  0  0  0  0  0  0  0
   64.1820   33.3610   50.6840 C   0  0  0  0  0  0  0  0  0  0  0  0
   62.8930   33.8490   50.9890 C   0  0  0  0  0  0  0  0  0  0  0  0
   61.9440   34.0450   49.9700 C   0  0  0  0  0  0  0  0  0  0  0  0
   62.3250   33.7510   48.6590 C   0  0  0  0  0  0  0  0  0  0  0  0
   58.8670   32.7550   46.1100 N   0  0  0  0  0  0  0  0  0  0  0  0
   58.8500   33.3200   44.7900 C   0  0  0  0  0  0  0  0  0  0  0  0
   59.3410   34.4400   44.4880 O   0  0  0  0  0  0  0  0  0  0  0  0
   58.1440   32.4360   43.8720 C   0  0  0  0  0  0  0  0  0  0  0  0
   57.8220   32.5960   42.5250 C   0  0  0  0  0  0  0  0  0  0  0  0
   57.0560   31.5920   41.9060 C   0  0  0  0  0  0  0  0  0  0  0  0
   56.6210   30.4680   42.6410 C   0  0  0  0  0  0  0  0  0  0  0  0
   56.9490   30.3380   44.0040 C   0  0  0  0  0  0  0  0  0  0  0  0
   57.7200   31.3410   44.5900 C   0  0  0  0  0  0  0  0  0  0  0  0
   58.1510   31.5230   45.9700 C   0  0  0  0  0  0  0  0  0  0  0  0
   57.8970   30.7410   46.9240 O   0  0  0  0  0  0  0  0  0  0  0  0
   56.0066   26.8763   46.1334 H   0  0  0  0  0  0  0  0  0  0  0  0
   56.9018   27.9762   45.0308 H   0  0  0  0  0  0  0  0  0  0  0  0
   57.2617   26.2163   45.0308 H   0  0  0  0  0  0  0  0  0  0  0  0
   57.5360   27.5880   47.6700 H   0  0  0  0  0  0  0  0  0  0  0  0
   58.5944   26.3456   46.8380 H   0  0  0  0  0  0  0  0  0  0  0  0
   59.7222   27.1852   44.7701 H   0  0  0  0  0  0  0  0  0  0  0  0
   58.8551   28.7211   44.3482 H   0  0  0  0  0  0  0  0  0  0  0  0
   61.3169   29.1945   45.8861 H   0  0  0  0  0  0  0  0  0  0  0  0
   61.6222   28.3379   44.3370 H   0  0  0  0  0  0  0  0  0  0  0  0
   60.7613   29.9145   44.3370 H   0  0  0  0  0  0  0  0  0  0  0  0
   60.6333   27.4396   47.4761 H   0  0  0  0  0  0  0  0  0  0  0  0
   60.8432   29.1937   47.0971 H   0  0  0  0  0  0  0  0  0  0  0  0
   58.4739   28.8135   48.7318 H   0  0  0  0  0  0  0  0  0  0  0  0
   59.9251   28.0315   49.5071 H   0  0  0  0  0  0  0  0  0  0  0  0
   59.4830   30.4509   50.1706 H   0  0  0  0  0  0  0  0  0  0  0  0
   61.1349   30.0697   49.5349 H   0  0  0  0  0  0  0  0  0  0  0  0
   60.2850   30.9740   47.3000 H   0  0  0  0  0  0  0  0  0  0  0  0
   58.2404   34.0360   47.6501 H   0  0  0  0  0  0  0  0  0  0  0  0
   60.2464   34.8909   46.2179 H   0  0  0  0  0  0  0  0  0  0  0  0
   60.1315   35.2353   48.0107 H   0  0  0  0  0  0  0  0  0  0  0  0
   62.3248   33.4132   45.4024 H   0  0  0  0  0  0  0  0  0  0  0  0
   64.5630   32.7250   46.5430 H   0  0  0  0  0  0  0  0  0  0  0  0
   65.5310   32.6741   49.1054 H   0  0  0  0  0  0  0  0  0  0  0  0
   64.9165   33.2146   51.4897 H   0  0  0  0  0  0  0  0  0  0  0  0
   62.6288   34.0778   52.0320 H   0  0  0  0  0  0  0  0  0  0  0  0
   60.9345   34.4177   50.1981 H   0  0  0  0  0  0  0  0  0  0  0  0
   58.1569   33.4806   41.9634 H   0  0  0  0  0  0  0  0  0  0  0  0
   56.7940   31.6832   40.8416 H   0  0  0  0  0  0  0  0  0  0  0  0
   56.0223   29.6892   42.1460 H   0  0  0  0  0  0  0  0  0  0  0  0
   56.6073   29.4713   44.5889 H   0  0  0  0  0  0  0  0  0  0  0  0
  1  2  1  0
  2  3  1  0
  3  4  1  0
  4  5  1  0
  3  6  1  0
  6  7  1  0
  7  8  1  0
  8  9  1  0
  9 10  1  0
 10 11  2  0
 10 12  1  0
 12 13  1  0
 13 14  1  0
 14 15  2  0
 15 16  1  0
 16 17  1  0
 17 18  2  0
 18 19  1  0
 19 20  2  0
 20 21  1  0
 21 22  2  0
 12 23  1  0
 23 24  1  0
 24 25  2  0
 24 26  1  0
 26 27  2  0
 27 28  1  0
 28 29  2  0
 29 30  1  0
 30 31  2  0
 31 32  1  0
 32 33  2  0
 22 14  1  0
 32 23  1  0
 22 17  1  0
 31 26  1  0
  1 34  1  0
  1 35  1  0
  1 36  1  0
  2 37  1  0
  2 38  1  0
  4 39  1  0
  4 40  1  0
  5 41  1  0
  5 42  1  0
  5 43  1  0
  6 44  1  0
  6 45  1  0
  7 46  1  0
  7 47  1  0
  8 48  1  0
  8 49  1  0
  9 50  1  0
 12 51  1  1
 13 52  1  0
 13 53  1  0
 15 54  1  0
 16 55  1  0
 18 56  1  0
 19 57  1  0
 20 58  1  0
 21 59  1  0
 27 60  1  0
 28 61  1  0
 29 62  1  0
 30 63  1  0
M  END
>  <UniqueID>  (47) 
46

>  <SMILES>  (47) 
CCN(CC)CCCNC(=O)[C@@H](Cc1c[nH]c2ccccc12)N1C(=O)c2ccccc2C1=O

>  <Energy>  (47) 
123.17037722081922

>  <Genealogy>  (47) 
CCN(CC)CCCNC(=O)[C@@H](Cc1c[nH]c2ccccc12)N1C(=O)c2ccccc2C1=O (chirality)
CCN(CC)CCCNC(=O)[C@@H](Cc1c[nH]c2ccccc12)N1C(=O)c2ccccc2C1=O (3D coordinates assigned)
CCN(CC)CCCNC(=O)[C@@H](Cc1c[nH]c2ccccc12)N1C(=O)c2ccccc2C1=O (nonaromatic ring conformer: 123.17037722081922 kcal/mol)

>  <smiles>  (47) 
CCN(CC)CCCNC(=O)C(Cc1c[nH]c2ccccc12)N1C(=O)c2ccccc2C1=O

>  <score_type>  (47) 
oracle

>  <origin>  (47) 
adg

>  <m_score__min__energy>  (47) 
-8.5999999999999996

>  <m_primary>  (47) 
energy

$$$$
47:0
     RDKit          3D

 34 36  0  0  0  0  0  0  0  0999 V2000
   58.1003   34.1258   47.8618 H   0  0  0  0  0  0  0  0  0  0  0  0
   58.0340   33.6970   46.8510 C   0  0  0  0  0  0  0  0  0  0  0  0
   57.4090   32.5840   46.5410 O   0  0  0  0  0  0  0  0  0  0  0  0
   57.5410   32.3770   45.2510 C   0  0  0  0  0  0  0  0  0  0  0  0
   56.9590   31.2120   44.5120 C   0  0  0  0  0  0  0  0  0  0  0  0
   57.3125   31.2347   43.4706 H   0  0  0  0  0  0  0  0  0  0  0  0
   55.8623   31.2873   44.5507 H   0  0  0  0  0  0  0  0  0  0  0  0
   57.3610   29.9370   45.1280 N   0  0  0  0  0  0  0  0  0  0  0  0
   56.4800   28.8940   45.2390 C   0  0  0  0  0  0  0  0  0  0  0  0
   55.1540   28.9860   44.8300 O   0  0  0  0  0  0  0  0  0  0  0  0
   56.9900   27.7250   45.7900 C   0  0  0  0  0  0  0  0  0  0  0  0
   56.4372   26.7875   45.9499 H   0  0  0  0  0  0  0  0  0  0  0  0
   58.5990   28.0010   46.1670 S   0  0  0  0  0  0  0  0  0  0  0  0
   58.5890   29.5920   45.6300 C   0  0  0  0  0  0  0  0  0  0  0  0
   59.6500   30.3460   45.7340 N   0  0  0  0  0  0  0  0  0  0  0  0
   60.1990   30.9680   46.8970 C   0  0  0  0  0  0  0  0  0  0  0  0
   59.7370   30.6080   48.1680 C   0  0  0  0  0  0  0  0  0  0  0  0
   58.9752   29.8216   48.2738 H   0  0  0  0  0  0  0  0  0  0  0  0
   60.2430   31.2470   49.3020 C   0  0  0  0  0  0  0  0  0  0  0  0
   59.8951   30.9474   50.3016 H   0  0  0  0  0  0  0  0  0  0  0  0
   61.1910   32.2670   49.1700 C   0  0  0  0  0  0  0  0  0  0  0  0
   61.5958   32.7591   50.0667 H   0  0  0  0  0  0  0  0  0  0  0  0
   61.6290   32.6660   47.8910 C   0  0  0  0  0  0  0  0  0  0  0  0
   62.5740   33.6830   47.7010 O   0  0  0  0  0  0  0  0  0  0  0  0
   63.3650   33.8360   46.5270 C   0  0  0  0  0  0  0  0  0  0  0  0
   64.4082   34.0378   46.8115 H   0  0  0  0  0  0  0  0  0  0  0  0
   63.3195   32.9124   45.9313 H   0  0  0  0  0  0  0  0  0  0  0  0
   62.9784   34.6760   45.9313 H   0  0  0  0  0  0  0  0  0  0  0  0
   61.1090   32.0230   46.7610 C   0  0  0  0  0  0  0  0  0  0  0  0
   61.4184   32.3499   45.7573 H   0  0  0  0  0  0  0  0  0  0  0  0
   58.2720   33.3990   44.6790 C   0  0  0  0  0  0  0  0  0  0  0  0
   58.5402   33.5125   43.6183 H   0  0  0  0  0  0  0  0  0  0  0  0
   58.5950   34.2470   45.7160 C   0  0  0  0  0  0  0  0  0  0  0  0
   59.1817   35.1753   45.6522 H   0  0  0  0  0  0  0  0  0  0  0  0
  1  2  1  0
  2  3  1  0
  3  4  1  0
  4  5  1  0
  5  6  1  0
  5  7  1  0
  5  8  1  0
  8  9  1  0
  9 10  1  0
  9 11  2  0
 11 12  1  0
 11 13  1  0
 13 14  1  0
 14 15  2  0
 15 16  1  0
 16 17  2  0
 17 18  1  0
 17 19  1  0
 19 20  1  0
 19 21  2  0
 21 22  1  0
 21 23  1  0
 23 24  1  0
 24 25  1  0
 25 26  1  0
 25 27  1  0
 25 28  1  0
 23 29  2  0
 29 30  1  0
  4 31  2  0
 31 32  1  0
 31 33  1  0
 33 34  1  0
 33  2  2  0
 14  8  1  0
 29 16  1  0
M  CHG  1  10  -1
M  END
>  <UniqueID>  (48) 
47

>  <SMILES>  (48) 
COc1cccc(/N=c2/scc([O-])n2Cc2ccco2)c1

>  <Energy>  (48) 
104.85357157489526

>  <Genealogy>  (48) 
COc1cccc(N=c2scc([O-])n2Cc2ccco2)c1 (protonated)
COc1cccc(/N=c2/scc([O-])n2Cc2ccco2)c1 (cis-trans isomerization)
COc1cccc(/N=c2/scc([O-])n2Cc2ccco2)c1 (3D coordinates assigned)
COc1cccc(/N=c2/scc([O-])n2Cc2ccco2)c1 (optimized conformer: 104.85357157489526 kcal/mol)

>  <smiles>  (48) 
COc1cccc(N=c2scc(O)n2Cc2ccco2)c1

>  <score_type>  (48) 
oracle

>  <origin>  (48) 
adg

>  <m_score__min__energy>  (48) 
-9.8499999999999996

>  <m_primary>  (48) 
energy

$$$$
