0:0
     RDKit          3D

 40 43  0  0  0  0  0  0  0  0999 V2000
   57.1630   25.3730   46.7000 F   0  0  0  0  0  0  0  0  0  0  0  0
   56.9430   26.4620   45.8770 C   0  0  0  0  0  0  0  0  0  0  0  0
   55.5850   26.7150   45.8140 F   0  0  0  0  0  0  0  0  0  0  0  0
   57.3990   26.1500   44.6080 F   0  0  0  0  0  0  0  0  0  0  0  0
   57.6510   27.6730   46.4320 C   0  0  0  0  0  0  0  0  0  0  0  0
   58.5720   27.5700   47.4450 N   0  0  0  0  0  0  0  0  0  0  0  0
   59.2490   28.6750   47.9220 C   0  0  0  0  0  0  0  0  0  0  0  0
   60.2120   28.5520   48.9900 N   0  0  0  0  0  0  0  0  0  0  0  0
   60.7260   27.2370   49.3930 C   0  0  0  0  0  0  0  0  0  0  0  0
   61.1680   27.2670   50.8600 C   0  0  0  0  0  0  0  0  0  0  0  0
   62.0390   28.3530   51.1040 O   0  0  0  0  0  0  0  0  0  0  0  0
   61.3390   29.5700   50.9280 C   0  0  0  0  0  0  0  0  0  0  0  0
   60.9190   29.7490   49.4670 C   0  0  0  0  0  0  0  0  0  0  0  0
   59.0170   29.9040   47.3670 N   0  0  0  0  0  0  0  0  0  0  0  0
   58.1030   30.0130   46.3770 C   0  0  0  0  0  0  0  0  0  0  0  0
   57.4360   28.9390   45.8930 C   0  0  0  0  0  0  0  0  0  0  0  0
   56.6760   29.4230   44.8480 C   0  0  0  0  0  0  0  0  0  0  0  0
   56.9080   30.7540   44.7330 N   0  0  0  0  0  0  0  0  0  0  0  0
   57.7780   31.1140   45.6740 N   0  0  0  0  0  0  0  0  0  0  0  0
   58.2790   32.4560   45.8300 C   0  0  0  0  0  0  0  0  0  0  0  0
   58.5020   33.2870   44.7150 C   0  0  0  0  0  0  0  0  0  0  0  0
   58.9940   34.5850   44.8890 C   0  0  0  0  0  0  0  0  0  0  0  0
   59.2770   35.0630   46.1700 C   0  0  0  0  0  0  0  0  0  0  0  0
   59.0750   34.2410   47.2810 C   0  0  0  0  0  0  0  0  0  0  0  0
   58.5830   32.9430   47.1140 C   0  0  0  0  0  0  0  0  0  0  0  0
   58.7890   26.6280   47.8390 H   0  0  0  0  0  0  0  0  0  0  0  0
   59.9343   26.4837   49.2676 H   0  0  0  0  0  0  0  0  0  0  0  0
   61.5911   26.9820   48.7632 H   0  0  0  0  0  0  0  0  0  0  0  0
   60.2799   27.3669   51.5014 H   0  0  0  0  0  0  0  0  0  0  0  0
   61.7020   26.3319   51.0845 H   0  0  0  0  0  0  0  0  0  0  0  0
   60.4410   29.5647   51.5633 H   0  0  0  0  0  0  0  0  0  0  0  0
   62.0018   30.4018   51.2088 H   0  0  0  0  0  0  0  0  0  0  0  0
   60.2532   30.6207   49.3849 H   0  0  0  0  0  0  0  0  0  0  0  0
   61.8181   29.9028   48.8521 H   0  0  0  0  0  0  0  0  0  0  0  0
   55.9979   28.8305   44.2163 H   0  0  0  0  0  0  0  0  0  0  0  0
   58.2883   32.9137   43.7026 H   0  0  0  0  0  0  0  0  0  0  0  0
   59.1584   35.2310   44.0140 H   0  0  0  0  0  0  0  0  0  0  0  0
   59.6587   36.0859   46.3041 H   0  0  0  0  0  0  0  0  0  0  0  0
   59.3035   34.6157   48.2897 H   0  0  0  0  0  0  0  0  0  0  0  0
   58.4327   32.2984   47.9926 H   0  0  0  0  0  0  0  0  0  0  0  0
  1  2  1  0
  2  3  1  0
  2  4  1  0
  2  5  1  0
  5  6  2  0
  6  7  1  0
  7  8  1  0
  8  9  1  0
  9 10  1  0
 10 11  1  0
 11 12  1  0
 12 13  1  0
  7 14  2  0
 14 15  1  0
 15 16  2  0
 16 17  1  0
 17 18  2  0
 18 19  1  0
 19 20  1  0
 20 21  2  0
 21 22  1  0
 22 23  2  0
 23 24  1  0
 24 25  2  0
 16  5  1  0
 25 20  1  0
 13  8  1  0
 19 15  1  0
  6 26  1  0
  9 27  1  0
  9 28  1  0
 10 29  1  0
 10 30  1  0
 12 31  1  0
 12 32  1  0
 13 33  1  0
 13 34  1  0
 17 35  1  0
 21 36  1  0
 22 37  1  0
 23 38  1  0
 24 39  1  0
 25 40  1  0
M  CHG  1   6   1
M  END
>  <UniqueID>  (1) 
1

>  <SMILES>  (1) 
FC(F)(F)c1[nH+]c(N2CCOCC2)nc2c1cnn2-c1ccccc1

>  <Energy>  (1) 
92.90096072647574

>  <Genealogy>  (1) 
FC(F)(F)c1[nH+]c(N2CCOCC2)nc2c1cnn2-c1ccccc1 (protonated)
FC(F)(F)c1[nH+]c(N2CCOCC2)nc2c1cnn2-c1ccccc1 (3D coordinates assigned)
FC(F)(F)c1[nH+]c(N2CCOCC2)nc2c1cnn2-c1ccccc1 (nonaromatic ring conformer: 92.90096072647574 kcal/mol)

>  <smiles>  (1) 
FC(F)(F)c1nc(N2CCOCC2)nc2c1cnn2-c1ccccc1

>  <score_type>  (1) 
oracle

>  <origin>  (1) 
adg

>  <m_score__min__energy>  (1) 
-5.1500000000000004

>  <m_primary>  (1) 
energy

$$$$
1:0
     RDKit          3D

 24 25  0  0  0  0  0  0  0  0999 V2000
   57.4610   28.8200   44.0930 C   0  0  0  0  0  0  0  0  0  0  0  0
   56.1230   30.0270   43.8390 S   0  0  0  0  0  0  0  0  0  0  0  0
   57.1430   31.4340   44.2970 C   0  0  0  0  0  0  0  0  0  0  0  0
   57.3170   31.7090   45.6150 N   0  0  0  0  0  0  0  0  0  0  0  0
   58.0720   32.7590   46.0280 C   0  0  0  0  0  0  0  0  0  0  0  0
   58.2330   33.0250   47.3920 C   0  0  0  0  0  0  0  0  0  0  0  0
   59.0110   34.1100   47.8030 C   0  0  0  0  0  0  0  0  0  0  0  0
   59.6290   34.9330   46.8550 C   0  0  0  0  0  0  0  0  0  0  0  0
   59.4730   34.6720   45.4900 C   0  0  0  0  0  0  0  0  0  0  0  0
   58.6930   33.5830   45.0680 C   0  0  0  0  0  0  0  0  0  0  0  0
   58.5270   33.3080   43.7430 N   0  0  0  0  0  0  0  0  0  0  0  0
   57.7700   32.2480   43.3300 C   0  0  0  0  0  0  0  0  0  0  0  0
   57.6130   31.9670   41.8610 C   0  0  0  0  0  0  0  0  0  0  0  0
   57.6231   28.6738   45.1711 H   0  0  0  0  0  0  0  0  0  0  0  0
   57.1827   27.8614   43.6307 H   0  0  0  0  0  0  0  0  0  0  0  0
   58.3859   29.1952   43.6307 H   0  0  0  0  0  0  0  0  0  0  0  0
   57.7476   32.3807   48.1398 H   0  0  0  0  0  0  0  0  0  0  0  0
   59.1382   34.3181   48.8756 H   0  0  0  0  0  0  0  0  0  0  0  0
   60.2389   35.7872   47.1842 H   0  0  0  0  0  0  0  0  0  0  0  0
   59.9612   35.3196   44.7469 H   0  0  0  0  0  0  0  0  0  0  0  0
   58.9890   33.9190   43.0320 H   0  0  0  0  0  0  0  0  0  0  0  0
   57.0806   31.0141   41.7248 H   0  0  0  0  0  0  0  0  0  0  0  0
   57.0377   32.7787   41.3918 H   0  0  0  0  0  0  0  0  0  0  0  0
   58.6058   31.9026   41.3918 H   0  0  0  0  0  0  0  0  0  0  0  0
  1  2  1  0
  2  3  1  0
  3  4  2  0
  4  5  1  0
  5  6  2  0
  6  7  1  0
  7  8  2  0
  8  9  1  0
  9 10  2  0
 10 11  1  0
 11 12  2  0
 12 13  1  0
 12  3  1  0
 10  5  1  0
  1 14  1  0
  1 15  1  0
  1 16  1  0
  6 17  1  0
  7 18  1  0
  8 19  1  0
  9 20  1  0
 11 21  1  0
 13 22  1  0
 13 23  1  0
 13 24  1  0
M  CHG  1  11   1
M  END
>  <UniqueID>  (2) 
2

>  <SMILES>  (2) 
CSc1nc2ccccc2[nH+]c1C

>  <Energy>  (2) 
24.015358052457998

>  <Genealogy>  (2) 
CSc1nc2ccccc2[nH+]c1C (protonated)
CSc1nc2ccccc2[nH+]c1C (3D coordinates assigned)
CSc1nc2ccccc2[nH+]c1C (optimized conformer: 24.015358052457998 kcal/mol)

>  <smiles>  (2) 
CSc1nc2ccccc2nc1C

>  <score_type>  (2) 
oracle

>  <origin>  (2) 
adg

>  <m_score__min__energy>  (2) 
-4.6900000000000004

>  <m_primary>  (2) 
energy

$$$$
2:0
     RDKit          3D

 78 82  0  0  0  0  0  0  0  0999 V2000
   59.4902   26.5089   46.2299 H   0  0  0  0  0  0  0  0  0  0  0  0
   59.9070   27.5220   46.3300 C   0  0  0  0  0  0  0  0  0  0  0  0
   59.5590   33.9230   46.7430 C   0  0  0  0  0  0  0  0  0  0  0  0
   59.6376   35.0181   46.6755 H   0  0  0  0  0  0  0  0  0  0  0  0
   59.8740   29.3730   44.5950 C   0  0  0  0  0  0  0  0  0  0  0  0
   60.2211   30.2234   45.2002 H   0  0  0  0  0  0  0  0  0  0  0  0
   60.2567   29.4063   43.5642 H   0  0  0  0  0  0  0  0  0  0  0  0
   58.3400   29.4350   44.5060 C   0  0  0  0  0  0  0  0  0  0  0  0
   58.0539   29.4285   43.4439 H   0  0  0  0  0  0  0  0  0  0  0  0
   57.9523   28.5625   45.0523 H   0  0  0  0  0  0  0  0  0  0  0  0
   57.7270   30.6870   45.1670 C   0  0  0  0  0  0  0  0  0  0  0  0
   56.6309   30.5974   45.1425 H   0  0  0  0  0  0  0  0  0  0  0  0
   58.1069   30.7392   46.1980 H   0  0  0  0  0  0  0  0  0  0  0  0
   58.1310   31.9900   44.4550 C   0  0  0  0  0  0  0  0  0  0  0  0
   59.2272   32.0217   44.3687 H   0  0  0  0  0  0  0  0  0  0  0  0
   57.6520   31.9971   43.4648 H   0  0  0  0  0  0  0  0  0  0  0  0
   57.6580   33.2370   45.2180 C   0  0  0  0  0  0  0  0  0  0  0  0
   57.8741   34.1287   44.6112 H   0  0  0  0  0  0  0  0  0  0  0  0
   56.5783   33.1354   45.4021 H   0  0  0  0  0  0  0  0  0  0  0  0
   58.3490   33.3750   46.5510 C   0  0  0  0  0  0  0  0  0  0  0  0
   57.8189   32.9961   47.4372 H   0  0  0  0  0  0  0  0  0  0  0  0
   60.3960   28.1020   45.2170 C   0  0  0  0  0  0  0  0  0  0  0  0
   61.2451   27.6086   44.7214 H   0  0  0  0  0  0  0  0  0  0  0  0
   59.8840   28.1470   47.7010 C   0  0  0  0  0  0  0  0  0  0  0  0
   60.7240   28.8515   47.7912 H   0  0  0  0  0  0  0  0  0  0  0  0
   59.9722   27.3509   48.4549 H   0  0  0  0  0  0  0  0  0  0  0  0
   58.5700   28.8990   47.9290 C   0  0  0  0  0  0  0  0  0  0  0  0
   57.7304   28.1956   47.8279 H   0  0  0  0  0  0  0  0  0  0  0  0
   58.4908   29.7022   47.1816 H   0  0  0  0  0  0  0  0  0  0  0  0
   58.5360   29.4830   49.2310 O   0  0  0  0  0  0  0  0  0  0  0  0
   59.6370   30.0380   49.9040 C   0  0  0  0  0  0  0  0  0  0  0  0
   59.8650   31.4230   49.9720 C   0  0  0  0  0  0  0  0  0  0  0  0
   59.1461   32.1189   49.5149 H   0  0  0  0  0  0  0  0  0  0  0  0
   60.9980   31.9200   50.6160 C   0  0  0  0  0  0  0  0  0  0  0  0
   61.1609   33.0067   50.6663 H   0  0  0  0  0  0  0  0  0  0  0  0
   61.9350   31.0500   51.2020 C   0  0  0  0  0  0  0  0  0  0  0  0
   61.6630   29.6650   51.2090 C   0  0  0  0  0  0  0  0  0  0  0  0
   60.5390   29.1710   50.5290 C   0  0  0  0  0  0  0  0  0  0  0  0
   60.3649   28.0857   50.4870 H   0  0  0  0  0  0  0  0  0  0  0  0
   62.5650   28.7030   51.9270 C   0  0  0  0  0  0  0  0  0  0  0  0
   61.9542   27.9215   52.4026 H   0  0  0  0  0  0  0  0  0  0  0  0
   63.2570   28.2556   51.1983 H   0  0  0  0  0  0  0  0  0  0  0  0
   63.3810   29.4260   53.0010 C   0  0  0  0  0  0  0  0  0  0  0  0
   62.7023   29.7671   53.7967 H   0  0  0  0  0  0  0  0  0  0  0  0
   64.1281   28.7235   53.3988 H   0  0  0  0  0  0  0  0  0  0  0  0
   64.0910   30.5910   52.4450 N   0  0  0  0  0  0  0  0  0  0  0  0
   65.2030   30.2110   51.5530 C   0  0  0  0  0  0  0  0  0  0  0  0
   65.8052   29.4205   52.0246 H   0  0  0  0  0  0  0  0  0  0  0  0
   64.8112   29.8318   50.5977 H   0  0  0  0  0  0  0  0  0  0  0  0
   66.0500   31.4220   51.3200 C   0  0  0  0  0  0  0  0  0  0  0  0
   67.4490   31.3680   51.3540 C   0  0  0  0  0  0  0  0  0  0  0  0
   67.9578   30.4126   51.5499 H   0  0  0  0  0  0  0  0  0  0  0  0
   68.1990   32.5280   51.1390 C   0  0  0  0  0  0  0  0  0  0  0  0
   69.2975   32.4845   51.1770 H   0  0  0  0  0  0  0  0  0  0  0  0
   67.5550   33.7520   50.8740 C   0  0  0  0  0  0  0  0  0  0  0  0
   68.2620   34.9410   50.6470 O   0  0  0  0  0  0  0  0  0  0  0  0
   68.5120   35.9290   51.6410 C   0  0  0  0  0  0  0  0  0  0  0  0
   68.3988   35.4815   52.6394 H   0  0  0  0  0  0  0  0  0  0  0  0
   69.5359   36.3141   51.5258 H   0  0  0  0  0  0  0  0  0  0  0  0
   67.7945   36.7548   51.5258 H   0  0  0  0  0  0  0  0  0  0  0  0
   66.1550   33.7920   50.8300 C   0  0  0  0  0  0  0  0  0  0  0  0
   65.6436   34.7394   50.6044 H   0  0  0  0  0  0  0  0  0  0  0  0
   65.4000   32.6350   51.0710 C   0  0  0  0  0  0  0  0  0  0  0  0
   63.9020   32.6400   50.9290 C   0  0  0  0  0  0  0  0  0  0  0  0
   63.5352   33.6526   51.1530 H   0  0  0  0  0  0  0  0  0  0  0  0
   63.6755   32.3304   49.8980 H   0  0  0  0  0  0  0  0  0  0  0  0
   63.1770   31.6300   51.8800 C   0  0  1  0  0  0  0  0  0  0  0  0
   62.8333   32.1919   52.7610 H   0  0  0  0  0  0  0  0  0  0  0  0
   60.7930   33.1670   47.0380 C   0  0  0  0  0  0  0  0  0  0  0  0
   60.7790   31.7680   46.9600 C   0  0  0  0  0  0  0  0  0  0  0  0
   59.8474   31.2426   46.7029 H   0  0  0  0  0  0  0  0  0  0  0  0
   61.9130   31.0580   47.2010 N   0  0  0  0  0  0  0  0  0  0  0  0
   63.0900   31.6690   47.4960 C   0  0  0  0  0  0  0  0  0  0  0  0
   63.9887   31.0659   47.6923 H   0  0  0  0  0  0  0  0  0  0  0  0
   63.1590   33.0630   47.5500 C   0  0  0  0  0  0  0  0  0  0  0  0
   64.1117   33.5637   47.7770 H   0  0  0  0  0  0  0  0  0  0  0  0
   62.0070   33.8140   47.3130 C   0  0  0  0  0  0  0  0  0  0  0  0
   62.0508   34.9127   47.3418 H   0  0  0  0  0  0  0  0  0  0  0  0
  1  2  1  0
  2  3  2  0
  3  4  1  0
  3  5  1  0
  5  6  1  0
  5  7  1  0
  5  8  1  0
  8  9  1  0
  8 10  1  0
  8 11  1  0
 11 12  1  0
 11 13  1  0
 11 14  1  0
 14 15  1  0
 14 16  1  0
 14 17  1  0
 17 18  1  0
 17 19  1  0
 17 20  1  0
 20 21  1  0
 20 22  2  0
 22 23  1  0
 22 24  1  0
 24 25  1  0
 24 26  1  0
 24 27  1  0
 27 28  1  0
 27 29  1  0
 27 30  1  0
 30 31  1  0
 31 32  2  0
 32 33  1  0
 32 34  1  0
 34 35  1  0
 34 36  2  0
 36 37  1  0
 37 38  2  0
 38 39  1  0
 37 40  1  0
 40 41  1  0
 40 42  1  0
 40 43  1  0
 43 44  1  0
 43 45  1  0
 43 46  1  0
 46 47  1  0
 47 48  1  0
 47 49  1  0
 47 50  1  0
 50 51  2  0
 51 52  1  0
 51 53  1  0
 53 54  1  0
 53 55  2  0
 55 56  1  0
 56 57  1  0
 57 58  1  0
 57 59  1  0
 57 60  1  0
 55 61  1  0
 61 62  1  0
 61 63  2  0
 63 64  1  0
 64 65  1  0
 64 66  1  0
 64 67  1  0
 67 68  1  1
  2 69  1  0
 69 70  2  0
 70 71  1  0
 70 72  1  0
 72 73  2  0
 73 74  1  0
 73 75  1  0
 75 76  1  0
 75 77  2  0
 77 78  1  0
 38 31  1  0
 67 46  1  0
 77 69  1  0
 67 36  1  0
 63 50  1  0
M  END
>  <UniqueID>  (3) 
3

>  <SMILES>  (3) 
COc1ccc2c(c1)C[C@H]1c3ccc(OCC/C=C\CCCCC/C=C\c4cccnc4)cc3CCN1C2

>  <Energy>  (3) 
97.0334561773936

>  <Genealogy>  (3) 
COc1ccc2c(c1)C[C@H]1c3ccc(OCCC=CCCCCCC=Cc4cccnc4)cc3CCN1C2 (chirality)
COc1ccc2c(c1)C[C@H]1c3ccc(OCC/C=C\CCCCC/C=C\c4cccnc4)cc3CCN1C2 (cis-trans isomerization)
COc1ccc2c(c1)C[C@H]1c3ccc(OCC/C=C\CCCCC/C=C\c4cccnc4)cc3CCN1C2 (3D coordinates assigned)
COc1ccc2c(c1)C[C@H]1c3ccc(OCC/C=C\CCCCC/C=C\c4cccnc4)cc3CCN1C2 (nonaromatic ring conformer: 97.0334561773936 kcal/mol)

>  <smiles>  (3) 
COc1ccc2c(c1)CC1c3ccc(OCCC=CCCCCCC=Cc4cccnc4)cc3CCN1C2

>  <score_type>  (3) 
oracle

>  <origin>  (3) 
adg

>  <m_score__min__energy>  (3) 
-9.0199999999999996

>  <m_primary>  (3) 
energy

$$$$
3:0
     RDKit          3D

 28 28  0  0  0  0  0  0  0  0999 V2000
   55.4970   29.3920   44.8720 O   0  0  0  0  0  0  0  0  0  0  0  0
   56.5240   29.6580   44.2670 C   0  0  0  0  0  0  0  0  0  0  0  0
   57.3970   28.5400   43.7740 C   0  0  0  0  0  0  0  0  0  0  0  0
   58.7740   28.3100   44.8780 Cl  0  0  0  0  0  0  0  0  0  0  0  0
   56.8950   31.0990   44.0440 C   0  0  0  0  0  0  0  0  0  0  0  0
   56.6450   31.8470   45.2220 O   0  0  0  0  0  0  0  0  0  0  0  0
   57.1150   33.1780   45.1060 C   0  0  0  0  0  0  0  0  0  0  0  0
   58.4530   33.3500   45.7780 C   0  0  0  0  0  0  0  0  0  0  0  0
   59.1010   34.5930   45.7450 C   0  0  0  0  0  0  0  0  0  0  0  0
   60.3250   34.7700   46.3970 C   0  0  0  0  0  0  0  0  0  0  0  0
   60.9210   33.6980   47.0910 C   0  0  0  0  0  0  0  0  0  0  0  0
   62.1450   33.8240   47.7670 O   0  0  0  0  0  0  0  0  0  0  0  0
   63.4030   33.3940   47.2530 C   0  0  0  0  0  0  0  0  0  0  0  0
   63.3990   32.0170   47.1440 F   0  0  0  0  0  0  0  0  0  0  0  0
   63.6140   33.9440   46.0020 F   0  0  0  0  0  0  0  0  0  0  0  0
   60.2730   32.4590   47.1160 C   0  0  0  0  0  0  0  0  0  0  0  0
   59.0500   32.2810   46.4650 C   0  0  0  0  0  0  0  0  0  0  0  0
   56.8085   27.6118   43.7275 H   0  0  0  0  0  0  0  0  0  0  0  0
   57.7756   28.7925   42.7726 H   0  0  0  0  0  0  0  0  0  0  0  0
   57.9629   31.1659   43.7887 H   0  0  0  0  0  0  0  0  0  0  0  0
   56.2907   31.5063   43.2200 H   0  0  0  0  0  0  0  0  0  0  0  0
   57.2149   33.4305   44.0400 H   0  0  0  0  0  0  0  0  0  0  0  0
   56.3920   33.8443   45.5992 H   0  0  0  0  0  0  0  0  0  0  0  0
   58.6436   35.4338   45.2029 H   0  0  0  0  0  0  0  0  0  0  0  0
   60.8246   35.7496   46.3682 H   0  0  0  0  0  0  0  0  0  0  0  0
   64.2037   33.7190   47.9337 H   0  0  0  0  0  0  0  0  0  0  0  0
   60.7311   31.6159   47.6539 H   0  0  0  0  0  0  0  0  0  0  0  0
   58.5530   31.3000   46.4907 H   0  0  0  0  0  0  0  0  0  0  0  0
  1  2  2  0
  2  3  1  0
  3  4  1  0
  2  5  1  0
  5  6  1  0
  6  7  1  0
  7  8  1  0
  8  9  2  0
  9 10  1  0
 10 11  2  0
 11 12  1  0
 12 13  1  0
 13 14  1  0
 13 15  1  0
 11 16  1  0
 16 17  2  0
 17  8  1  0
  3 18  1  0
  3 19  1  0
  5 20  1  0
  5 21  1  0
  7 22  1  0
  7 23  1  0
  9 24  1  0
 10 25  1  0
 13 26  1  0
 16 27  1  0
 17 28  1  0
M  END
>  <UniqueID>  (4) 
4

>  <SMILES>  (4) 
O=C(CCl)COCc1ccc(OC(F)F)cc1

>  <Energy>  (4) 
23.501440136901337

>  <Genealogy>  (4) 
O=C(CCl)COCc1ccc(OC(F)F)cc1 (3D coordinates assigned)
O=C(CCl)COCc1ccc(OC(F)F)cc1 (optimized conformer: 23.501440136901337 kcal/mol)

>  <smiles>  (4) 
O=C(CCl)COCc1ccc(OC(F)F)cc1

>  <score_type>  (4) 
oracle

>  <origin>  (4) 
adg

>  <m_score__min__energy>  (4) 
-5.5700000000000003

>  <m_primary>  (4) 
energy

$$$$
4:0
     RDKit          3D

 48 49  0  0  0  0  0  0  0  0999 V2000
   56.7360   29.0410   42.6750 C   0  0  0  0  0  0  0  0  0  0  0  0
   55.8210   30.0710   43.3360 C   0  0  0  0  0  0  0  0  0  0  0  0
   55.7550   29.9040   44.8600 C   0  0  0  0  0  0  0  0  0  0  0  0
   56.9350   29.1180   45.3990 C   0  0  0  0  0  0  0  0  0  0  0  0
   58.1850   29.7450   45.5780 C   0  0  0  0  0  0  0  0  0  0  0  0
   58.3330   31.0880   45.1970 O   0  0  0  0  0  0  0  0  0  0  0  0
   58.4570   31.5500   43.8550 C   0  0  0  0  0  0  0  0  0  0  0  0
   57.8080   32.9300   43.7240 C   0  0  0  0  0  0  0  0  0  0  0  0
   56.9840   33.4590   45.2720 S   0  0  0  0  0  0  0  0  0  0  0  0
   58.4870   33.6710   46.2320 C   0  0  0  0  0  0  0  0  0  0  0  0
   59.6010   34.2930   45.6580 C   0  0  0  0  0  0  0  0  0  0  0  0
   60.7780   34.4450   46.3950 C   0  0  0  0  0  0  0  0  0  0  0  0
   60.8580   33.9730   47.7110 C   0  0  0  0  0  0  0  0  0  0  0  0
   62.0530   34.1680   48.4170 O   0  0  0  0  0  0  0  0  0  0  0  0
   63.2970   33.5680   48.0710 C   0  0  0  0  0  0  0  0  0  0  0  0
   59.7390   33.3330   48.2810 C   0  0  0  0  0  0  0  0  0  0  0  0
   58.5610   33.1820   47.5400 C   0  0  0  0  0  0  0  0  0  0  0  0
   59.2490   29.0140   46.1280 C   0  0  0  0  0  0  0  0  0  0  0  0
   59.0830   27.6780   46.4880 C   0  0  0  0  0  0  0  0  0  0  0  0
   57.8460   27.0320   46.3140 C   0  0  0  0  0  0  0  0  0  0  0  0
   57.6900   25.6000   46.6960 C   0  0  0  0  0  0  0  0  0  0  0  0
   56.3660   25.0380   47.1240 C   0  0  0  0  0  0  0  0  0  0  0  0
   58.6890   24.8310   46.6980 O   0  0  0  0  0  0  0  0  0  0  0  0
   56.7670   27.7680   45.7720 C   0  0  0  0  0  0  0  0  0  0  0  0
   55.5200   27.1670   45.6150 O   0  0  0  0  0  0  0  0  0  0  0  0
   57.2535   28.4585   43.4514 H   0  0  0  0  0  0  0  0  0  0  0  0
   56.1351   28.3650   42.0489 H   0  0  0  0  0  0  0  0  0  0  0  0
   57.4780   29.5580   42.0489 H   0  0  0  0  0  0  0  0  0  0  0  0
   56.1998   31.0781   43.1073 H   0  0  0  0  0  0  0  0  0  0  0  0
   54.8063   29.9215   42.9385 H   0  0  0  0  0  0  0  0  0  0  0  0
   55.7497   30.9003   45.3262 H   0  0  0  0  0  0  0  0  0  0  0  0
   54.8379   29.3462   45.1005 H   0  0  0  0  0  0  0  0  0  0  0  0
   59.5221   31.6198   43.5890 H   0  0  0  0  0  0  0  0  0  0  0  0
   57.9534   30.8442   43.1781 H   0  0  0  0  0  0  0  0  0  0  0  0
   58.5862   33.6643   43.4685 H   0  0  0  0  0  0  0  0  0  0  0  0
   57.0409   32.8684   42.9380 H   0  0  0  0  0  0  0  0  0  0  0  0
   59.5500   34.6634   44.6235 H   0  0  0  0  0  0  0  0  0  0  0  0
   61.6482   34.9390   45.9383 H   0  0  0  0  0  0  0  0  0  0  0  0
   63.8444   33.3040   48.9879 H   0  0  0  0  0  0  0  0  0  0  0  0
   63.1137   32.6593   47.4789 H   0  0  0  0  0  0  0  0  0  0  0  0
   63.8940   34.2772   47.4789 H   0  0  0  0  0  0  0  0  0  0  0  0
   59.7915   32.9510   49.3112 H   0  0  0  0  0  0  0  0  0  0  0  0
   57.6918   32.6777   47.9875 H   0  0  0  0  0  0  0  0  0  0  0  0
   60.2243   29.5006   46.2765 H   0  0  0  0  0  0  0  0  0  0  0  0
   59.9308   27.1213   46.9139 H   0  0  0  0  0  0  0  0  0  0  0  0
   56.3148   25.0163   48.2226 H   0  0  0  0  0  0  0  0  0  0  0  0
   55.5554   25.6696   46.7316 H   0  0  0  0  0  0  0  0  0  0  0  0
   56.2573   24.0161   46.7316 H   0  0  0  0  0  0  0  0  0  0  0  0
  1  2  1  0
  2  3  1  0
  3  4  1  0
  4  5  2  0
  5  6  1  0
  6  7  1  0
  7  8  1  0
  8  9  1  0
  9 10  1  0
 10 11  2  0
 11 12  1  0
 12 13  2  0
 13 14  1  0
 14 15  1  0
 13 16  1  0
 16 17  2  0
  5 18  1  0
 18 19  2  0
 19 20  1  0
 20 21  1  0
 21 22  1  0
 21 23  2  0
 20 24  2  0
 24 25  1  0
 24  4  1  0
 17 10  1  0
  1 26  1  0
  1 27  1  0
  1 28  1  0
  2 29  1  0
  2 30  1  0
  3 31  1  0
  3 32  1  0
  7 33  1  0
  7 34  1  0
  8 35  1  0
  8 36  1  0
 11 37  1  0
 12 38  1  0
 15 39  1  0
 15 40  1  0
 15 41  1  0
 16 42  1  0
 17 43  1  0
 18 44  1  0
 19 45  1  0
 22 46  1  0
 22 47  1  0
 22 48  1  0
M  CHG  1  25  -1
M  END
>  <UniqueID>  (5) 
5

>  <SMILES>  (5) 
CCCc1c(OCCSc2ccc(OC)cc2)ccc(C(C)=O)c1[O-]

>  <Energy>  (5) 
37.23380007538926

>  <Genealogy>  (5) 
CCCc1c(OCCSc2ccc(OC)cc2)ccc(C(C)=O)c1[O-] (protonated)
CCCc1c(OCCSc2ccc(OC)cc2)ccc(C(C)=O)c1[O-] (3D coordinates assigned)
CCCc1c(OCCSc2ccc(OC)cc2)ccc(C(C)=O)c1[O-] (optimized conformer: 37.23380007538926 kcal/mol)

>  <smiles>  (5) 
CCCc1c(OCCSc2ccc(OC)cc2)ccc(C(C)=O)c1O

>  <score_type>  (5) 
oracle

>  <origin>  (5) 
adg

>  <m_score__min__energy>  (5) 
-11.02

>  <m_primary>  (5) 
energy

$$$$
5:0
     RDKit          3D

 44 46  0  0  0  0  0  0  0  0999 V2000
   59.4600   27.1640   45.6320 C   0  0  0  0  0  0  0  0  0  0  0  0
   58.1470   26.5510   45.1460 C   0  0  0  0  0  0  0  0  0  0  0  0
   56.9790   27.5050   45.2440 C   0  0  0  0  0  0  0  0  0  0  0  0
   55.8610   27.0760   45.6450 O   0  0  0  0  0  0  0  0  0  0  0  0
   57.1080   28.9320   44.8430 C   0  0  0  0  0  0  0  0  0  0  0  0
   56.6440   29.3510   43.5830 C   0  0  0  0  0  0  0  0  0  0  0  0
   56.7620   30.6850   43.1910 C   0  0  0  0  0  0  0  0  0  0  0  0
   57.3450   31.6210   44.0470 C   0  0  0  0  0  0  0  0  0  0  0  0
   57.8200   31.2320   45.3100 C   0  0  0  0  0  0  0  0  0  0  0  0
   58.4280   32.2000   46.1940 N   0  0  0  0  0  0  0  0  0  0  0  0
   58.4290   33.6270   45.8440 C   0  0  0  0  0  0  0  0  0  0  0  0
   59.5950   34.3420   46.5330 C   0  0  0  0  0  0  0  0  0  0  0  0
   59.5390   34.1790   48.0040 N   0  0  0  0  0  0  0  0  0  0  0  0
   60.7760   34.6250   48.6820 C   0  0  0  0  0  0  0  0  0  0  0  0
   61.9770   33.7760   48.3550 C   0  0  0  0  0  0  0  0  0  0  0  0
   62.6550   33.7570   47.1410 C   0  0  0  0  0  0  0  0  0  0  0  0
   63.7450   32.8790   47.1300 C   0  0  0  0  0  0  0  0  0  0  0  0
   63.9360   32.2100   48.3320 C   0  0  0  0  0  0  0  0  0  0  0  0
   62.7480   32.7140   49.4080 S   0  0  0  0  0  0  0  0  0  0  0  0
   59.0190   32.8750   48.4890 C   0  0  0  0  0  0  0  0  0  0  0  0
   59.0970   31.7680   47.4290 C   0  0  0  0  0  0  0  0  0  0  0  0
   57.7010   29.8840   45.6970 C   0  0  0  0  0  0  0  0  0  0  0  0
   59.4762   27.1716   46.7319 H   0  0  0  0  0  0  0  0  0  0  0  0
   60.3044   26.5670   45.2570 H   0  0  0  0  0  0  0  0  0  0  0  0
   59.5445   28.1946   45.2570 H   0  0  0  0  0  0  0  0  0  0  0  0
   58.2678   26.2514   44.0945 H   0  0  0  0  0  0  0  0  0  0  0  0
   57.9251   25.6908   45.7947 H   0  0  0  0  0  0  0  0  0  0  0  0
   56.1842   28.6208   42.9008 H   0  0  0  0  0  0  0  0  0  0  0  0
   56.3941   31.0003   42.2035 H   0  0  0  0  0  0  0  0  0  0  0  0
   57.4330   32.6706   43.7300 H   0  0  0  0  0  0  0  0  0  0  0  0
   58.5312   33.7333   44.7539 H   0  0  0  0  0  0  0  0  0  0  0  0
   57.4837   34.0785   46.1794 H   0  0  0  0  0  0  0  0  0  0  0  0
   60.5414   33.9211   46.1626 H   0  0  0  0  0  0  0  0  0  0  0  0
   59.5265   35.4153   46.3020 H   0  0  0  0  0  0  0  0  0  0  0  0
   60.9873   35.6603   48.3763 H   0  0  0  0  0  0  0  0  0  0  0  0
   60.6022   34.5384   49.7647 H   0  0  0  0  0  0  0  0  0  0  0  0
   62.3638   34.3707   46.2758 H   0  0  0  0  0  0  0  0  0  0  0  0
   64.3902   32.7325   46.2512 H   0  0  0  0  0  0  0  0  0  0  0  0
   64.7283   31.4767   48.5432 H   0  0  0  0  0  0  0  0  0  0  0  0
   59.6097   32.5653   49.3637 H   0  0  0  0  0  0  0  0  0  0  0  0
   57.9575   33.0164   48.7403 H   0  0  0  0  0  0  0  0  0  0  0  0
   60.1524   31.5463   47.2121 H   0  0  0  0  0  0  0  0  0  0  0  0
   58.5953   30.8675   47.8129 H   0  0  0  0  0  0  0  0  0  0  0  0
   58.0767   29.5683   46.6815 H   0  0  0  0  0  0  0  0  0  0  0  0
  1  2  1  0
  2  3  1  0
  3  4  2  0
  3  5  1  0
  5  6  2  0
  6  7  1  0
  7  8  2  0
  8  9  1  0
  9 10  1  0
 10 11  1  0
 11 12  1  0
 12 13  1  0
 13 14  1  0
 14 15  1  0
 15 16  2  0
 16 17  1  0
 17 18  2  0
 18 19  1  0
 13 20  1  0
 20 21  1  0
  9 22  2  0
 22  5  1  0
 21 10  1  0
 19 15  1  0
  1 23  1  0
  1 24  1  0
  1 25  1  0
  2 26  1  0
  2 27  1  0
  6 28  1  0
  7 29  1  0
  8 30  1  0
 11 31  1  0
 11 32  1  0
 12 33  1  0
 12 34  1  0
 14 35  1  0
 14 36  1  0
 16 37  1  0
 17 38  1  0
 18 39  1  0
 20 40  1  0
 20 41  1  0
 21 42  1  0
 21 43  1  0
 22 44  1  0
M  END
>  <UniqueID>  (6) 
6

>  <SMILES>  (6) 
CCC(=O)c1cccc(N2CCN(Cc3cccs3)CC2)c1

>  <Energy>  (6) 
81.5774965166329

>  <Genealogy>  (6) 
CCC(=O)c1cccc(N2CCN(Cc3cccs3)CC2)c1 (3D coordinates assigned)
CCC(=O)c1cccc(N2CCN(Cc3cccs3)CC2)c1 (nonaromatic ring conformer: 81.5774965166329 kcal/mol)

>  <smiles>  (6) 
CCC(=O)c1cccc(N2CCN(Cc3cccs3)CC2)c1

>  <score_type>  (6) 
oracle

>  <origin>  (6) 
adg

>  <m_score__min__energy>  (6) 
-7.7699999999999996

>  <m_primary>  (6) 
energy

$$$$
6:0
     RDKit          3D

 19 19  0  0  0  0  0  0  0  0999 V2000
   57.9456   32.6088   44.0990 H   0  0  0  0  0  0  0  0  0  0  0  0
   57.3970   31.6710   43.9270 C   0  0  0  0  0  0  0  0  0  0  0  0
   56.9080   30.9150   44.9450 N   0  0  0  0  0  0  0  0  0  0  0  0
   56.2750   29.8140   44.4820 C   0  0  0  0  0  0  0  0  0  0  0  0
   55.7140   28.9170   45.2380 N   0  0  0  0  0  0  0  0  0  0  0  0
   56.2840   27.6560   45.6210 C   0  0  0  0  0  0  0  0  0  0  0  0
   55.5560   26.6990   46.0020 O   0  0  0  0  0  0  0  0  0  0  0  0
   57.7710   27.4860   45.5980 C   0  0  0  0  0  0  0  0  0  0  0  0
   58.0994   27.3113   44.5628 H   0  0  0  0  0  0  0  0  0  0  0  0
   58.0409   26.6280   46.2313 H   0  0  0  0  0  0  0  0  0  0  0  0
   58.4340   28.6880   46.1190 N   0  0  0  0  0  0  0  0  0  0  0  0
   57.7250   29.4580   46.1390 H   0  0  0  0  0  0  0  0  0  0  0  0
   58.8940   28.4870   47.4960 C   0  0  0  0  0  0  0  0  0  0  0  0
   58.1162   28.8268   48.1957 H   0  0  0  0  0  0  0  0  0  0  0  0
   59.0959   27.4186   47.6629 H   0  0  0  0  0  0  0  0  0  0  0  0
   59.8151   29.0647   47.6629 H   0  0  0  0  0  0  0  0  0  0  0  0
   56.2930   29.7330   42.8070 S   0  0  0  0  0  0  0  0  0  0  0  0
   57.1530   31.1720   42.6510 C   0  0  0  0  0  0  0  0  0  0  0  0
   57.4674   31.6369   41.7049 H   0  0  0  0  0  0  0  0  0  0  0  0
  1  2  1  0
  2  3  1  0
  3  4  1  0
  4  5  2  0
  5  6  1  0
  6  7  2  0
  6  8  1  0
  8  9  1  0
  8 10  1  0
  8 11  1  0
 11 12  1  0
 11 13  1  0
 13 14  1  0
 13 15  1  0
 13 16  1  0
  4 17  1  0
 17 18  1  0
 18 19  1  0
 18  2  2  0
M  CHG  1   3  -1
M  END
>  <UniqueID>  (7) 
7

>  <SMILES>  (7) 
CNCC(=O)/N=c1\[n-]ccs1

>  <Energy>  (7) 
46.40559284237679

>  <Genealogy>  (7) 
CNCC(=O)N=c1[n-]ccs1 (protonated)
CNCC(=O)/N=c1\[n-]ccs1 (cis-trans isomerization)
CNCC(=O)/N=c1\[n-]ccs1 (3D coordinates assigned)
CNCC(=O)/N=c1\[n-]ccs1 (optimized conformer: 46.40559284237679 kcal/mol)

>  <smiles>  (7) 
CNCC(=O)N=c1[nH]ccs1

>  <score_type>  (7) 
oracle

>  <origin>  (7) 
adg

>  <m_score__min__energy>  (7) 
-6.6100000000000003

>  <m_primary>  (7) 
energy

$$$$
7:0
     RDKit          3D

 40 42  0  0  0  0  0  0  0  0999 V2000
   57.8330   27.1520   43.8640 C   0  0  0  0  0  0  0  0  0  0  0  0
   57.7390   28.5980   43.7080 N   0  0  0  0  0  0  0  0  0  0  0  0
   56.6520   29.3470   44.2670 C   0  0  0  0  0  0  0  0  0  0  0  0
   55.7180   28.7550   44.8740 O   0  0  0  0  0  0  0  0  0  0  0  0
   56.6010   30.8370   44.1160 C   0  0  0  0  0  0  0  0  0  0  0  0
   57.0240   31.4780   45.3180 O   0  0  0  0  0  0  0  0  0  0  0  0
   57.8790   32.5910   45.3870 C   0  0  0  0  0  0  0  0  0  0  0  0
   57.5380   33.8500   44.8340 C   0  0  0  0  0  0  0  0  0  0  0  0
   58.4320   34.9390   44.9150 C   0  0  0  0  0  0  0  0  0  0  0  0
   59.6750   34.7970   45.5480 C   0  0  0  0  0  0  0  0  0  0  0  0
   59.9890   33.5550   46.0920 C   0  0  0  0  0  0  0  0  0  0  0  0
   61.1160   33.1270   46.7570 C   0  0  0  0  0  0  0  0  0  0  0  0
   60.9120   31.7860   47.0330 C   0  0  0  0  0  0  0  0  0  0  0  0
   59.6820   31.3920   46.6120 N   0  0  0  0  0  0  0  0  0  0  0  0
   59.0850   30.0630   46.7590 C   0  0  0  0  0  0  0  0  0  0  0  0
   59.1290   32.4800   46.0220 C   0  0  0  0  0  0  0  0  0  0  0  0
   61.9110   30.9490   47.7860 C   0  0  0  0  0  0  0  0  0  0  0  0
   63.3010   31.6160   47.7910 C   0  0  0  0  0  0  0  0  0  0  0  0
   63.2140   33.1230   48.1030 C   0  0  0  0  0  0  0  0  0  0  0  0
   62.3860   33.8710   47.0430 C   0  0  0  0  0  0  0  0  0  0  0  0
   57.8494   26.8990   44.9344 H   0  0  0  0  0  0  0  0  0  0  0  0
   56.9640   26.6746   43.3877 H   0  0  0  0  0  0  0  0  0  0  0  0
   58.7565   26.7911   43.3877 H   0  0  0  0  0  0  0  0  0  0  0  0
   58.4920   29.0960   43.1820 H   0  0  0  0  0  0  0  0  0  0  0  0
   57.2640   31.1398   43.2922 H   0  0  0  0  0  0  0  0  0  0  0  0
   55.5648   31.1364   43.9001 H   0  0  0  0  0  0  0  0  0  0  0  0
   56.5658   33.9801   44.3361 H   0  0  0  0  0  0  0  0  0  0  0  0
   58.1510   35.9083   44.4774 H   0  0  0  0  0  0  0  0  0  0  0  0
   60.3790   35.6397   45.6126 H   0  0  0  0  0  0  0  0  0  0  0  0
   58.9782   29.8252   47.8277 H   0  0  0  0  0  0  0  0  0  0  0  0
   58.0949   30.0508   46.2799 H   0  0  0  0  0  0  0  0  0  0  0  0
   59.7335   29.3147   46.2799 H   0  0  0  0  0  0  0  0  0  0  0  0
   61.5675   30.8263   48.8238 H   0  0  0  0  0  0  0  0  0  0  0  0
   61.9939   29.9714   47.2885 H   0  0  0  0  0  0  0  0  0  0  0  0
   63.9259   31.1301   48.5548 H   0  0  0  0  0  0  0  0  0  0  0  0
   63.7385   31.5000   46.7884 H   0  0  0  0  0  0  0  0  0  0  0  0
   62.7408   33.2577   49.0868 H   0  0  0  0  0  0  0  0  0  0  0  0
   64.2336   33.5359   48.0994 H   0  0  0  0  0  0  0  0  0  0  0  0
   62.1417   34.8766   47.4161 H   0  0  0  0  0  0  0  0  0  0  0  0
   62.9739   33.9463   46.1163 H   0  0  0  0  0  0  0  0  0  0  0  0
  1  2  1  0
  2  3  1  0
  3  4  2  0
  3  5  1  0
  5  6  1  0
  6  7  1  0
  7  8  2  0
  8  9  1  0
  9 10  2  0
 10 11  1  0
 11 12  1  0
 12 13  2  0
 13 14  1  0
 14 15  1  0
 14 16  1  0
 13 17  1  0
 17 18  1  0
 18 19  1  0
 19 20  1  0
 16  7  1  0
 16 11  2  0
 20 12  1  0
  1 21  1  0
  1 22  1  0
  1 23  1  0
  2 24  1  0
  5 25  1  0
  5 26  1  0
  8 27  1  0
  9 28  1  0
 10 29  1  0
 15 30  1  0
 15 31  1  0
 15 32  1  0
 17 33  1  0
 17 34  1  0
 18 35  1  0
 18 36  1  0
 19 37  1  0
 19 38  1  0
 20 39  1  0
 20 40  1  0
M  END
>  <UniqueID>  (8) 
8

>  <SMILES>  (8) 
CNC(=O)COc1cccc2c3c(n(C)c12)CCCC3

>  <Energy>  (8) 
70.72099026371838

>  <Genealogy>  (8) 
CNC(=O)COc1cccc2c3c(n(C)c12)CCCC3 (3D coordinates assigned)
CNC(=O)COc1cccc2c3c(n(C)c12)CCCC3 (nonaromatic ring conformer: 70.72099026371838 kcal/mol)

>  <smiles>  (8) 
CNC(=O)COc1cccc2c3c(n(C)c12)CCCC3

>  <score_type>  (8) 
oracle

>  <origin>  (8) 
adg

>  <m_score__min__energy>  (8) 
-7.8799999999999999

>  <m_primary>  (8) 
energy

$$$$
8:0
     RDKit          3D

 57 60  0  0  0  0  0  0  0  0999 V2000
   56.1670   22.2900   49.0830 C   0  0  0  0  0  0  0  0  0  0  0  0
   57.1650   22.6210   48.1220 O   0  0  0  0  0  0  0  0  0  0  0  0
   57.0390   22.4120   46.7390 C   0  0  0  0  0  0  0  0  0  0  0  0
   57.4890   21.2310   46.1180 C   0  0  0  0  0  0  0  0  0  0  0  0
   57.3550   21.0620   44.7390 C   0  0  0  0  0  0  0  0  0  0  0  0
   56.7930   22.0770   43.9530 C   0  0  0  0  0  0  0  0  0  0  0  0
   56.6370   21.8860   42.4740 C   0  0  0  0  0  0  0  0  0  0  0  0
   56.3280   23.2470   44.5680 C   0  0  0  0  0  0  0  0  0  0  0  0
   56.4340   23.4150   45.9620 C   0  0  0  0  0  0  0  0  0  0  0  0
   55.9930   24.6180   46.6080 N   0  0  0  0  0  0  0  0  0  0  0  0
   56.1390   25.9540   46.1100 C   0  0  0  0  0  0  0  0  0  0  0  0
   55.1370   26.7120   45.9970 O   0  0  0  0  0  0  0  0  0  0  0  0
   57.5120   26.4650   45.7570 C   0  0  2  0  0  0  0  0  0  0  0  0
   58.3660   26.7240   47.0210 C   0  0  0  0  0  0  0  0  0  0  0  0
   58.3080   28.1980   47.4570 C   0  0  0  0  0  0  0  0  0  0  0  0
   58.7480   29.1460   46.3910 N   0  0  1  0  0  0  0  0  0  0  0  0
   60.3860   29.6980   46.6770 S   0  0  0  0  0  0  0  0  0  0  0  0
   60.9250   28.9910   47.8910 O   0  0  0  0  0  0  0  0  0  0  0  0
   61.2320   29.3480   45.4850 O   0  0  0  0  0  0  0  0  0  0  0  0
   60.4960   31.4580   46.9350 C   0  0  0  0  0  0  0  0  0  0  0  0
   61.4800   31.9670   47.8020 C   0  0  0  0  0  0  0  0  0  0  0  0
   61.6080   33.3380   48.0170 C   0  0  0  0  0  0  0  0  0  0  0  0
   60.7540   34.2330   47.3810 C   0  0  0  0  0  0  0  0  0  0  0  0
   59.7500   33.7630   46.5260 C   0  0  0  0  0  0  0  0  0  0  0  0
   58.8860   34.6750   45.9000 C   0  0  0  0  0  0  0  0  0  0  0  0
   57.8740   34.2200   45.0560 C   0  0  0  0  0  0  0  0  0  0  0  0
   57.7130   32.8540   44.8320 C   0  0  0  0  0  0  0  0  0  0  0  0
   58.5650   31.9330   45.4440 C   0  0  0  0  0  0  0  0  0  0  0  0
   59.6050   32.3660   46.2970 C   0  0  0  0  0  0  0  0  0  0  0  0
   58.6470   28.5980   45.0160 C   0  0  0  0  0  0  0  0  0  0  0  0
   57.4050   27.7150   44.8550 C   0  0  0  0  0  0  0  0  0  0  0  0
   56.5742   22.4251   50.0959 H   0  0  0  0  0  0  0  0  0  0  0  0
   55.2953   22.9472   48.9476 H   0  0  0  0  0  0  0  0  0  0  0  0
   55.8608   21.2422   48.9476 H   0  0  0  0  0  0  0  0  0  0  0  0
   57.9492   20.4364   46.7237 H   0  0  0  0  0  0  0  0  0  0  0  0
   57.6922   20.1275   44.2668 H   0  0  0  0  0  0  0  0  0  0  0  0
   55.9518   21.0470   42.2829 H   0  0  0  0  0  0  0  0  0  0  0  0
   56.2268   22.8036   42.0270 H   0  0  0  0  0  0  0  0  0  0  0  0
   57.6180   21.6673   42.0270 H   0  0  0  0  0  0  0  0  0  0  0  0
   55.8760   24.0416   43.9562 H   0  0  0  0  0  0  0  0  0  0  0  0
   58.0362   25.6852   45.1851 H   0  0  0  0  0  0  0  0  0  0  0  0
   57.9887   26.0950   47.8408 H   0  0  0  0  0  0  0  0  0  0  0  0
   59.4116   26.4784   46.7836 H   0  0  0  0  0  0  0  0  0  0  0  0
   57.2711   28.4400   47.7334 H   0  0  0  0  0  0  0  0  0  0  0  0
   59.0003   28.3152   48.3037 H   0  0  0  0  0  0  0  0  0  0  0  0
   58.1300   29.9900   46.4260 H   0  0  0  0  0  0  0  0  0  0  0  0
   62.1588   31.2722   48.3182 H   0  0  0  0  0  0  0  0  0  0  0  0
   62.3891   33.7146   48.6938 H   0  0  0  0  0  0  0  0  0  0  0  0
   60.8679   35.3139   47.5504 H   0  0  0  0  0  0  0  0  0  0  0  0
   59.0080   35.7539   46.0762 H   0  0  0  0  0  0  0  0  0  0  0  0
   57.2018   34.9400   44.5663 H   0  0  0  0  0  0  0  0  0  0  0  0
   56.9099   32.4995   44.1691 H   0  0  0  0  0  0  0  0  0  0  0  0
   58.4251   30.8575   45.2601 H   0  0  0  0  0  0  0  0  0  0  0  0
   58.5877   29.4325   44.3018 H   0  0  0  0  0  0  0  0  0  0  0  0
   59.5372   27.9812   44.8233 H   0  0  0  0  0  0  0  0  0  0  0  0
   56.5117   28.2909   45.1383 H   0  0  0  0  0  0  0  0  0  0  0  0
   57.3300   27.3926   43.8060 H   0  0  0  0  0  0  0  0  0  0  0  0
  1  2  1  0
  2  3  1  0
  3  4  2  0
  4  5  1  0
  5  6  2  0
  6  7  1  0
  6  8  1  0
  8  9  2  0
  9 10  1  0
 10 11  1  0
 11 12  2  0
 11 13  1  0
 13 14  1  0
 14 15  1  0
 15 16  1  0
 16 17  1  0
 17 18  2  0
 17 19  2  0
 17 20  1  0
 20 21  2  0
 21 22  1  0
 22 23  2  0
 23 24  1  0
 24 25  2  0
 25 26  1  0
 26 27  2  0
 27 28  1  0
 28 29  2  0
 16 30  1  0
 30 31  1  0
  9  3  1  0
 31 13  1  0
 29 20  1  0
 29 24  1  0
  1 32  1  0
  1 33  1  0
  1 34  1  0
  4 35  1  0
  5 36  1  0
  7 37  1  0
  7 38  1  0
  7 39  1  0
  8 40  1  0
 13 41  1  6
 14 42  1  0
 14 43  1  0
 15 44  1  0
 15 45  1  0
 16 46  1  6
 21 47  1  0
 22 48  1  0
 23 49  1  0
 25 50  1  0
 26 51  1  0
 27 52  1  0
 28 53  1  0
 30 54  1  0
 30 55  1  0
 31 56  1  0
 31 57  1  0
M  CHG  2  10  -1  16   1
M  END
>  <UniqueID>  (9) 
9

>  <SMILES>  (9) 
COc1ccc(C)cc1[N-]C(=O)C1CC[NH+](S(=O)(=O)c2cccc3ccccc23)CC1

>  <Energy>  (9) 
76.50640856873915

>  <Genealogy>  (9) 
COc1ccc(C)cc1[N-]C(=O)C1CC[NH+](S(=O)(=O)c2cccc3ccccc23)CC1 (protonated)
COc1ccc(C)cc1[N-]C(=O)C1CC[NH+](S(=O)(=O)c2cccc3ccccc23)CC1 (3D coordinates assigned)
COc1ccc(C)cc1[N-]C(=O)C1CC[NH+](S(=O)(=O)c2cccc3ccccc23)CC1 (nonaromatic ring conformer: 76.50640856873915 kcal/mol)

>  <smiles>  (9) 
COc1ccc(C)cc1NC(=O)C1CCN(S(=O)(=O)c2cccc3ccccc23)CC1

>  <score_type>  (9) 
oracle

>  <origin>  (9) 
adg

>  <m_score__min__energy>  (9) 
-10.380000000000001

>  <m_primary>  (9) 
energy

$$$$
9:0
     RDKit          3D

 38 40  0  0  0  0  0  0  0  0999 V2000
   57.3510   21.9630   46.0290 C   0  0  0  0  0  0  0  0  0  0  0  0
   57.3880   23.0550   46.9420 O   0  0  0  0  0  0  0  0  0  0  0  0
   57.3190   24.4080   46.5700 C   0  0  0  0  0  0  0  0  0  0  0  0
   58.4730   25.1930   46.3940 C   0  0  0  0  0  0  0  0  0  0  0  0
   58.3670   26.5360   46.0230 C   0  0  0  0  0  0  0  0  0  0  0  0
   59.4920   27.2790   45.8580 N   0  0  0  0  0  0  0  0  0  0  0  0
   59.4540   28.5910   45.5000 C   0  0  0  0  0  0  0  0  0  0  0  0
   60.7500   29.3330   45.3490 C   0  0  0  0  0  0  0  0  0  0  0  0
   58.2100   29.2190   45.2820 C   0  0  0  0  0  0  0  0  0  0  0  0
   58.1370   30.6440   44.8850 C   0  0  0  0  0  0  0  0  0  0  0  0
   57.8350   30.9740   43.5560 C   0  0  0  0  0  0  0  0  0  0  0  0
   57.7600   32.3120   43.1610 C   0  0  0  0  0  0  0  0  0  0  0  0
   57.9850   33.3290   44.0910 C   0  0  0  0  0  0  0  0  0  0  0  0
   58.2860   33.0110   45.4170 C   0  0  0  0  0  0  0  0  0  0  0  0
   58.3640   31.6730   45.8220 C   0  0  0  0  0  0  0  0  0  0  0  0
   58.7660   31.3150   47.4980 Cl  0  0  0  0  0  0  0  0  0  0  0  0
   57.0280   28.4730   45.4450 C   0  0  0  0  0  0  0  0  0  0  0  0
   55.9080   29.0220   45.2500 O   0  0  0  0  0  0  0  0  0  0  0  0
   57.1000   27.1180   45.8210 C   0  0  0  0  0  0  0  0  0  0  0  0
   55.9470   26.3320   45.9960 C   0  0  0  0  0  0  0  0  0  0  0  0
   56.0520   24.9780   46.3710 C   0  0  0  0  0  0  0  0  0  0  0  0
   54.9220   24.1660   46.5560 O   0  0  0  0  0  0  0  0  0  0  0  0
   54.0400   23.7600   45.5140 C   0  0  0  0  0  0  0  0  0  0  0  0
   57.3190   21.0172   46.5897 H   0  0  0  0  0  0  0  0  0  0  0  0
   56.4551   22.0445   45.3960 H   0  0  0  0  0  0  0  0  0  0  0  0
   58.2504   21.9837   45.3960 H   0  0  0  0  0  0  0  0  0  0  0  0
   59.4661   24.7463   46.5496 H   0  0  0  0  0  0  0  0  0  0  0  0
   61.1571   29.5661   46.3439 H   0  0  0  0  0  0  0  0  0  0  0  0
   61.4676   28.7089   44.7962 H   0  0  0  0  0  0  0  0  0  0  0  0
   60.5751   30.2678   44.7962 H   0  0  0  0  0  0  0  0  0  0  0  0
   57.6563   30.1755   42.8209 H   0  0  0  0  0  0  0  0  0  0  0  0
   57.5236   32.5645   42.1168 H   0  0  0  0  0  0  0  0  0  0  0  0
   57.9251   34.3820   43.7787 H   0  0  0  0  0  0  0  0  0  0  0  0
   58.4626   33.8152   46.1465 H   0  0  0  0  0  0  0  0  0  0  0  0
   54.9541   26.7785   45.8386 H   0  0  0  0  0  0  0  0  0  0  0  0
   53.1237   23.3382   45.9528 H   0  0  0  0  0  0  0  0  0  0  0  0
   53.7820   24.6300   44.8922 H   0  0  0  0  0  0  0  0  0  0  0  0
   54.5331   22.9983   44.8922 H   0  0  0  0  0  0  0  0  0  0  0  0
  1  2  1  0
  2  3  1  0
  3  4  2  0
  4  5  1  0
  5  6  1  0
  6  7  1  0
  7  8  1  0
  7  9  2  0
  9 10  1  0
 10 11  2  0
 11 12  1  0
 12 13  2  0
 13 14  1  0
 14 15  2  0
 15 16  1  0
  9 17  1  0
 17 18  2  0
 17 19  1  0
 19 20  1  0
 20 21  2  0
 21 22  1  0
 22 23  1  0
 21  3  1  0
 19  5  2  0
 15 10  1  0
  1 24  1  0
  1 25  1  0
  1 26  1  0
  4 27  1  0
  8 28  1  0
  8 29  1  0
  8 30  1  0
 11 31  1  0
 12 32  1  0
 13 33  1  0
 14 34  1  0
 20 35  1  0
 23 36  1  0
 23 37  1  0
 23 38  1  0
M  CHG  1   6  -1
M  END
>  <UniqueID>  (10) 
10

>  <SMILES>  (10) 
COc1cc2[n-]c(C)c(-c3ccccc3Cl)c(=O)c2cc1OC

>  <Energy>  (10) 
52.60362783632055

>  <Genealogy>  (10) 
COc1cc2[n-]c(C)c(-c3ccccc3Cl)c(=O)c2cc1OC (protonated)
COc1cc2[n-]c(C)c(-c3ccccc3Cl)c(=O)c2cc1OC (3D coordinates assigned)
COc1cc2[n-]c(C)c(-c3ccccc3Cl)c(=O)c2cc1OC (optimized conformer: 52.60362783632055 kcal/mol)

>  <smiles>  (10) 
COc1cc2[nH]c(C)c(-c3ccccc3Cl)c(=O)c2cc1OC

>  <score_type>  (10) 
oracle

>  <origin>  (10) 
adg

>  <m_score__min__energy>  (10) 
-8.2200000000000006

>  <m_primary>  (10) 
energy

$$$$
10:0
     RDKit          3D

 39 42  0  0  1  0  0  0  0  0999 V2000
   57.1270   29.1330   45.1260 Br  0  0  0  0  0  0  0  0  0  0  0  0
   57.6660   30.9170   44.6970 C   0  0  0  0  0  0  0  0  0  0  0  0
   57.7140   31.3820   43.3990 C   0  0  0  0  0  0  0  0  0  0  0  0
   58.1150   32.6940   43.1450 C   0  0  0  0  0  0  0  0  0  0  0  0
   58.4710   33.5490   44.1900 C   0  0  0  0  0  0  0  0  0  0  0  0
   58.4180   33.0700   45.4970 C   0  0  0  0  0  0  0  0  0  0  0  0
   58.8560   32.7580   50.8980 N   0  0  0  0  0  0  0  0  0  0  0  0
   59.5230   33.0160   49.8240 C   0  0  0  0  0  0  0  0  0  0  0  0
   58.8930   33.3000   48.6830 N   0  0  0  0  0  0  0  0  0  0  0  0
   59.5340   33.5830   47.5120 C   0  0  0  0  0  0  0  0  0  0  0  0
   58.8580   33.8280   46.5280 N   0  0  0  0  0  0  0  0  0  0  0  0
   57.7990   31.8040   50.9470 C   0  0  0  0  0  0  0  0  0  0  0  0
   57.5560   31.1900   52.3040 C   0  0  0  0  0  0  0  0  0  0  0  0
   57.4050   29.8980   51.6230 N   0  0  0  0  0  0  0  0  0  0  0  0
   58.3860   30.4150   50.6600 C   0  0  0  0  0  0  0  0  0  0  0  0
   60.8600   33.0060   49.8340 N   0  0  0  0  0  0  0  0  0  0  0  0
   61.5220   33.2800   48.6960 C   0  0  0  0  0  0  0  0  0  0  0  0
   62.8970   33.2550   48.7670 C   0  0  0  0  0  0  0  0  0  0  0  0
   63.5840   33.5340   47.6140 C   0  0  0  0  0  0  0  0  0  0  0  0
   63.0230   33.8320   46.4100 C   0  0  0  0  0  0  0  0  0  0  0  0
   61.6160   33.8500   46.3710 C   0  0  0  0  0  0  0  0  0  0  0  0
   60.8930   33.5790   47.4980 C   0  0  0  0  0  0  0  0  0  0  0  0
   58.0110   31.7370   45.7510 C   0  0  0  0  0  0  0  0  0  0  0  0
   57.4366   30.7195   42.5658 H   0  0  0  0  0  0  0  0  0  0  0  0
   58.1512   33.0596   42.1081 H   0  0  0  0  0  0  0  0  0  0  0  0
   58.7876   34.5823   43.9848 H   0  0  0  0  0  0  0  0  0  0  0  0
   57.8470   33.2980   48.7160 H   0  0  0  0  0  0  0  0  0  0  0  0
   57.0091   32.3305   50.3912 H   0  0  0  0  0  0  0  0  0  0  0  0
   58.4113   31.2478   52.9932 H   0  0  0  0  0  0  0  0  0  0  0  0
   56.7839   31.5785   52.9843 H   0  0  0  0  0  0  0  0  0  0  0  0
   56.4430   29.7850   51.2440 H   0  0  0  0  0  0  0  0  0  0  0  0
   59.4373   30.2870   50.9573 H   0  0  0  0  0  0  0  0  0  0  0  0
   58.4728   30.0146   49.6391 H   0  0  0  0  0  0  0  0  0  0  0  0
   61.3520   32.7900   50.7030 H   0  0  0  0  0  0  0  0  0  0  0  0
   63.4202   33.0218   49.7061 H   0  0  0  0  0  0  0  0  0  0  0  0
   64.6826   33.5155   47.6662 H   0  0  0  0  0  0  0  0  0  0  0  0
   63.6331   34.0461   45.5201 H   0  0  0  0  0  0  0  0  0  0  0  0
   61.0968   34.0831   45.4297 H   0  0  0  0  0  0  0  0  0  0  0  0
   57.9704   31.3581   46.7829 H   0  0  0  0  0  0  0  0  0  0  0  0
  1  2  1  0
  2  3  2  0
  3  4  1  0
  4  5  2  0
  5  6  1  0
  6  7  1  0
  7  8  2  0
  8  9  1  0
  9 10  1  0
 10 11  2  0
 11 12  1  0
 12 13  1  0
 13 14  1  0
 14 15  1  0
 10 16  1  0
 16 17  1  0
 17 18  2  0
 18 19  1  0
 19 20  2  0
 20 21  1  0
 21 22  2  0
  6 23  2  0
 23  2  1  0
 22  8  1  0
 15 12  1  0
 22 17  1  0
  3 24  1  0
  4 25  1  0
  5 26  1  0
  9 27  1  0
 12 28  1  0
 13 29  1  0
 13 30  1  0
 14 31  1  0
 15 32  1  0
 15 33  1  0
 16 34  1  0
 18 35  1  0
 19 36  1  0
 20 37  1  0
 21 38  1  0
 23 39  1  0
M  END
>  <smiles>  (11) 
Brc1cccc(N=c2[nH]c(=NC3CNC3)[nH]c3ccccc23)c1

>  <score_type>  (11) 
oracle

>  <origin>  (11) 
adg

>  <m_score__min__energy>  (11) 
-8.9100000000000001

>  <m_primary>  (11) 
energy

$$$$
11:0
     RDKit          3D

 33 34  0  0  0  0  0  0  0  0999 V2000
   51.7900   32.6326   49.6385 H   0  0  0  0  0  0  0  0  0  0  0  0
   51.8310   32.2290   50.6610 C   0  0  0  0  0  0  0  0  0  0  0  0
   51.0080   32.7180   51.6130 N   0  0  0  0  0  0  0  0  0  0  0  0
   51.0200   32.2510   52.8880 C   0  0  0  0  0  0  0  0  0  0  0  0
   50.1290   32.8150   53.8080 C   0  0  0  0  0  0  0  0  0  0  0  0
   49.4475   33.6166   53.4871 H   0  0  0  0  0  0  0  0  0  0  0  0
   50.0990   32.3700   55.1230 C   0  0  0  0  0  0  0  0  0  0  0  0
   49.3969   32.8190   55.8410 H   0  0  0  0  0  0  0  0  0  0  0  0
   50.9580   31.3560   55.5300 C   0  0  0  0  0  0  0  0  0  0  0  0
   50.9314   31.0031   56.5715 H   0  0  0  0  0  0  0  0  0  0  0  0
   51.8560   30.7810   54.6250 C   0  0  0  0  0  0  0  0  0  0  0  0
   52.5271   29.9796   54.9675 H   0  0  0  0  0  0  0  0  0  0  0  0
   51.9190   31.2100   53.2750 C   0  0  0  0  0  0  0  0  0  0  0  0
   52.8060   30.6850   52.2670 C   0  0  0  0  0  0  0  0  0  0  0  0
   53.7000   29.7380   52.4150 N   0  0  0  0  0  0  0  0  0  0  0  0
   54.6200   29.3460   53.4800 C   0  0  0  0  0  0  0  0  0  0  0  0
   55.0531   28.3643   53.2379 H   0  0  0  0  0  0  0  0  0  0  0  0
   54.0608   29.2979   54.4260 H   0  0  0  0  0  0  0  0  0  0  0  0
   55.7580   30.3750   53.6340 C   0  0  0  0  0  0  0  0  0  0  0  0
   56.5866   29.9063   54.1851 H   0  0  0  0  0  0  0  0  0  0  0  0
   55.3554   31.2434   54.1760 H   0  0  0  0  0  0  0  0  0  0  0  0
   56.2650   30.8520   52.3270 N   0  0  0  0  0  0  0  0  0  0  0  0
   55.5180   30.7440   51.6010 H   0  0  0  0  0  0  0  0  0  0  0  0
   57.4170   30.0350   51.9070 C   0  0  0  0  0  0  0  0  0  0  0  0
   57.9448   29.6607   52.7966 H   0  0  0  0  0  0  0  0  0  0  0  0
   57.0635   29.1846   51.3055 H   0  0  0  0  0  0  0  0  0  0  0  0
   58.1027   30.6498   51.3055 H   0  0  0  0  0  0  0  0  0  0  0  0
   56.6620   32.2720   52.3840 C   0  0  0  0  0  0  0  0  0  0  0  0
   56.7499   32.5863   53.4345 H   0  0  0  0  0  0  0  0  0  0  0  0
   57.6310   32.4023   51.8800 H   0  0  0  0  0  0  0  0  0  0  0  0
   55.9011   32.8860   51.8800 H   0  0  0  0  0  0  0  0  0  0  0  0
   52.7290   31.2170   50.9720 C   0  0  0  0  0  0  0  0  0  0  0  0
   53.3929   30.8250   50.1874 H   0  0  0  0  0  0  0  0  0  0  0  0
  1  2  1  0
  2  3  1  0
  3  4  1  0
  4  5  2  0
  5  6  1  0
  5  7  1  0
  7  8  1  0
  7  9  2  0
  9 10  1  0
  9 11  1  0
 11 12  1  0
 11 13  2  0
 13 14  1  0
 14 15  2  0
 15 16  1  0
 16 17  1  0
 16 18  1  0
 16 19  1  0
 19 20  1  0
 19 21  1  0
 19 22  1  0
 22 23  1  0
 22 24  1  0
 24 25  1  0
 24 26  1  0
 24 27  1  0
 22 28  1  0
 28 29  1  0
 28 30  1  0
 28 31  1  0
 14 32  1  0
 32 33  1  0
 32  2  2  0
 13  4  1  0
M  CHG  2   3  -1  22   1
M  END
>  <UniqueID>  (12) 
11

>  <SMILES>  (12) 
C[NH+](C)CC/N=c1/cc[n-]c2ccccc12

>  <Energy>  (12) 
53.05899738514662

>  <Genealogy>  (12) 
C[NH+](C)CCN=c1cc[n-]c2ccccc12 (protonated)
C[NH+](C)CC/N=c1/cc[n-]c2ccccc12 (cis-trans isomerization)
C[NH+](C)CC/N=c1/cc[n-]c2ccccc12 (3D coordinates assigned)
C[NH+](C)CC/N=c1/cc[n-]c2ccccc12 (optimized conformer: 53.05899738514662 kcal/mol)

>  <smiles>  (12) 
CN(C)CCN=c1cc[nH]c2ccccc12

>  <score_type>  (12) 
oracle

>  <origin>  (12) 
adg

>  <m_score__min__energy>  (12) 
-6.0700000000000003

>  <m_primary>  (12) 
energy

$$$$
12:0
     RDKit          3D

 34 35  0  0  1  0  0  0  0  0999 V2000
   60.0110   34.1990   48.1770 C   0  0  0  0  0  0  0  0  0  0  0  0
   58.9970   34.4990   47.2590 O   0  0  0  0  0  0  0  0  0  0  0  0
   58.6420   33.6950   46.1810 C   0  0  0  0  0  0  0  0  0  0  0  0
   58.7330   34.2640   44.9260 C   0  0  0  0  0  0  0  0  0  0  0  0
   58.3990   33.5380   43.7970 C   0  0  0  0  0  0  0  0  0  0  0  0
   57.9740   32.2340   43.9410 C   0  0  0  0  0  0  0  0  0  0  0  0
   57.6190   31.4300   42.8600 O   0  0  0  0  0  0  0  0  0  0  0  0
   57.4270   31.9750   41.5690 C   0  0  0  0  0  0  0  0  0  0  0  0
   57.8880   31.6780   45.2030 C   0  0  0  0  0  0  0  0  0  0  0  0
   57.4400   30.2960   45.3900 C   0  0  0  0  0  0  0  0  0  0  0  0
   56.3240   29.7130   45.0050 N   0  0  0  0  0  0  0  0  0  0  0  0
   56.0850   28.4820   45.2520 N   0  0  0  0  0  0  0  0  0  0  0  0
   56.9640   27.7620   45.9070 C   0  0  0  0  0  0  0  0  0  0  0  0
   57.0340   26.5560   46.3030 N   0  0  0  0  0  0  0  0  0  0  0  0
   56.8360   25.4640   45.3420 C   0  0  0  0  0  0  0  0  0  0  0  0
   55.3650   25.0500   45.3710 C   0  0  0  0  0  0  0  0  0  0  0  0
   54.6370   26.1450   45.8810 O   0  0  0  0  0  0  0  0  0  0  0  0
   58.3140   28.9960   46.2160 S   0  0  0  0  0  0  0  0  0  0  0  0
   58.2150   32.3820   46.3460 C   0  0  0  0  0  0  0  0  0  0  0  0
   59.6246   34.3133   49.2005 H   0  0  0  0  0  0  0  0  0  0  0  0
   60.3477   33.1628   48.0258 H   0  0  0  0  0  0  0  0  0  0  0  0
   60.8573   34.8852   48.0258 H   0  0  0  0  0  0  0  0  0  0  0  0
   59.0744   35.3046   44.8232 H   0  0  0  0  0  0  0  0  0  0  0  0
   58.4713   33.9942   42.7987 H   0  0  0  0  0  0  0  0  0  0  0  0
   57.0627   33.0091   41.6580 H   0  0  0  0  0  0  0  0  0  0  0  0
   58.3816   31.9683   41.0225 H   0  0  0  0  0  0  0  0  0  0  0  0
   56.6874   31.3714   41.0225 H   0  0  0  0  0  0  0  0  0  0  0  0
   55.1540   28.0260   44.9230 H   0  0  0  0  0  0  0  0  0  0  0  0
   57.1049   25.8061   44.3317 H   0  0  0  0  0  0  0  0  0  0  0  0
   57.4728   24.6079   45.6094 H   0  0  0  0  0  0  0  0  0  0  0  0
   55.0207   24.8083   44.3546 H   0  0  0  0  0  0  0  0  0  0  0  0
   55.2213   24.1576   45.9979 H   0  0  0  0  0  0  0  0  0  0  0  0
   55.0540   26.3420   46.7610 H   0  0  0  0  0  0  0  0  0  0  0  0
   58.1408   31.9237   47.3432 H   0  0  0  0  0  0  0  0  0  0  0  0
  1  2  1  0
  2  3  1  0
  3  4  2  0
  4  5  1  0
  5  6  2  0
  6  7  1  0
  7  8  1  0
  6  9  1  0
  9 10  1  0
 10 11  2  0
 11 12  1  0
 12 13  1  0
 13 14  2  0
 14 15  1  0
 15 16  1  0
 16 17  1  0
 13 18  1  0
  9 19  2  0
 19  3  1  0
 18 10  1  0
  1 20  1  0
  1 21  1  0
  1 22  1  0
  4 23  1  0
  5 24  1  0
  8 25  1  0
  8 26  1  0
  8 27  1  0
 12 28  1  0
 15 29  1  0
 15 30  1  0
 16 31  1  0
 16 32  1  0
 17 33  1  0
 19 34  1  0
M  END
>  <smiles>  (13) 
COc1ccc(OC)c(-c2n[nH]c(=NCCO)s2)c1

>  <score_type>  (13) 
oracle

>  <origin>  (13) 
adg

>  <m_score__min__energy>  (13) 
-7.2800000000000002

>  <m_primary>  (13) 
energy

$$$$
13:0
     RDKit          3D

 42 45  0  0  0  0  0  0  0  0999 V2000
   60.9070   26.6450   46.4890 C   0  0  0  0  0  0  0  0  0  0  0  0
   59.8680   25.8960   47.1090 O   0  0  0  0  0  0  0  0  0  0  0  0
   58.5180   25.9440   46.7270 C   0  0  0  0  0  0  0  0  0  0  0  0
   57.7380   24.7970   46.9060 C   0  0  0  0  0  0  0  0  0  0  0  0
   56.3890   24.7930   46.5420 C   0  0  0  0  0  0  0  0  0  0  0  0
   55.8070   25.9400   45.9970 C   0  0  0  0  0  0  0  0  0  0  0  0
   54.4950   25.9210   45.6490 F   0  0  0  0  0  0  0  0  0  0  0  0
   56.5690   27.1000   45.8090 C   0  0  0  0  0  0  0  0  0  0  0  0
   55.9340   28.2560   45.2460 N   0  0  0  0  0  0  0  0  0  0  0  0
   56.6450   29.3270   44.0820 S   0  0  0  0  0  0  0  0  0  0  0  0
   57.6230   28.5590   43.2370 O   0  0  0  0  0  0  0  0  0  0  0  0
   55.5610   29.9110   43.2190 O   0  0  0  0  0  0  0  0  0  0  0  0
   57.4990   30.6380   44.9010 C   0  0  0  0  0  0  0  0  0  0  0  0
   57.8390   30.5010   46.2720 C   0  0  0  0  0  0  0  0  0  0  0  0
   58.5280   31.5310   46.9360 C   0  0  0  0  0  0  0  0  0  0  0  0
   58.8170   32.6780   46.2200 C   0  0  0  0  0  0  0  0  0  0  0  0
   58.5100   32.8390   44.9090 C   0  0  0  0  0  0  0  0  0  0  0  0
   57.8450   31.8290   44.2050 C   0  0  0  0  0  0  0  0  0  0  0  0
   57.4630   32.0660   42.5020 Cl  0  0  0  0  0  0  0  0  0  0  0  0
   59.0110   34.1720   44.4410 C   0  0  0  0  0  0  0  0  0  0  0  0
   59.7080   34.7660   45.7020 C   0  0  0  0  0  0  0  0  0  0  0  0
   59.5080   33.7720   46.7520 N   0  0  0  0  0  0  0  0  0  0  0  0
   60.1280   33.6830   48.0360 C   0  0  0  0  0  0  0  0  0  0  0  0
   60.7530   34.6680   48.5130 O   0  0  0  0  0  0  0  0  0  0  0  0
   60.1010   32.3610   48.7690 C   0  0  0  0  0  0  0  0  0  0  0  0
   58.8570   31.4990   48.4120 C   0  0  0  0  0  0  0  0  0  0  0  0
   57.9280   27.1000   46.1770 C   0  0  0  0  0  0  0  0  0  0  0  0
   61.5413   27.1022   47.2627 H   0  0  0  0  0  0  0  0  0  0  0  0
   61.5167   25.9773   45.8625 H   0  0  0  0  0  0  0  0  0  0  0  0
   60.4662   27.4344   45.8625 H   0  0  0  0  0  0  0  0  0  0  0  0
   58.1899   23.8913   47.3366 H   0  0  0  0  0  0  0  0  0  0  0  0
   55.7844   23.8852   46.6848 H   0  0  0  0  0  0  0  0  0  0  0  0
   57.5626   29.5862   46.8168 H   0  0  0  0  0  0  0  0  0  0  0  0
   59.7279   34.0540   43.6151 H   0  0  0  0  0  0  0  0  0  0  0  0
   58.2092   34.8172   44.0525 H   0  0  0  0  0  0  0  0  0  0  0  0
   60.7811   34.9184   45.5141 H   0  0  0  0  0  0  0  0  0  0  0  0
   59.2927   35.7463   45.9786 H   0  0  0  0  0  0  0  0  0  0  0  0
   61.0073   31.7954   48.5071 H   0  0  0  0  0  0  0  0  0  0  0  0
   60.0537   32.5804   49.8459 H   0  0  0  0  0  0  0  0  0  0  0  0
   59.0545   30.4576   48.7059 H   0  0  0  0  0  0  0  0  0  0  0  0
   57.9961   31.9184   48.9532 H   0  0  0  0  0  0  0  0  0  0  0  0
   58.5330   28.0076   46.0344 H   0  0  0  0  0  0  0  0  0  0  0  0
  1  2  1  0
  2  3  1  0
  3  4  2  0
  4  5  1  0
  5  6  2  0
  6  7  1  0
  6  8  1  0
  8  9  1  0
  9 10  1  0
 10 11  2  0
 10 12  2  0
 10 13  1  0
 13 14  2  0
 14 15  1  0
 15 16  2  0
 16 17  1  0
 17 18  2  0
 18 19  1  0
 17 20  1  0
 20 21  1  0
 21 22  1  0
 22 23  1  0
 23 24  2  0
 23 25  1  0
 25 26  1  0
  8 27  2  0
 27  3  1  0
 18 13  1  0
 26 15  1  0
 22 16  1  0
  1 28  1  0
  1 29  1  0
  1 30  1  0
  4 31  1  0
  5 32  1  0
 14 33  1  0
 20 34  1  0
 20 35  1  0
 21 36  1  0
 21 37  1  0
 25 38  1  0
 25 39  1  0
 26 40  1  0
 26 41  1  0
 27 42  1  0
M  CHG  1   9  -1
M  END
>  <UniqueID>  (14) 
12

>  <SMILES>  (14) 
COc1ccc(F)c([N-]S(=O)(=O)c2cc3c4c(c2Cl)CCN4C(=O)CC3)c1

>  <Energy>  (14) 
68.84769059387557

>  <Genealogy>  (14) 
COc1ccc(F)c([N-]S(=O)(=O)c2cc3c4c(c2Cl)CCN4C(=O)CC3)c1 (protonated)
COc1ccc(F)c([N-]S(=O)(=O)c2cc3c4c(c2Cl)CCN4C(=O)CC3)c1 (3D coordinates assigned)
COc1ccc(F)c([N-]S(=O)(=O)c2cc3c4c(c2Cl)CCN4C(=O)CC3)c1 (nonaromatic ring conformer: 68.84769059387557 kcal/mol)

>  <smiles>  (14) 
COc1ccc(F)c(NS(=O)(=O)c2cc3c4c(c2Cl)CCN4C(=O)CC3)c1

>  <score_type>  (14) 
oracle

>  <origin>  (14) 
adg

>  <m_score__min__energy>  (14) 
-10.42

>  <m_primary>  (14) 
energy

$$$$
14:0
     RDKit          3D

 35 36  0  0  0  0  0  0  0  0999 V2000
   58.4920   35.6348   45.3917 H   0  0  0  0  0  0  0  0  0  0  0  0
   58.5330   34.5540   45.5920 C   0  0  0  0  0  0  0  0  0  0  0  0
   59.5640   34.0260   46.3640 C   0  0  0  0  0  0  0  0  0  0  0  0
   60.3417   34.6848   46.7776 H   0  0  0  0  0  0  0  0  0  0  0  0
   59.6010   32.6520   46.6080 C   0  0  0  0  0  0  0  0  0  0  0  0
   60.4122   32.2256   47.2164 H   0  0  0  0  0  0  0  0  0  0  0  0
   58.6370   31.8370   46.0960 N   0  0  0  0  0  0  0  0  0  0  0  0
   58.7200   30.8180   46.3040 H   0  0  0  0  0  0  0  0  0  0  0  0
   57.6100   32.3330   45.3360 C   0  0  0  0  0  0  0  0  0  0  0  0
   56.6780   31.5660   44.8400 N   0  0  0  0  0  0  0  0  0  0  0  0
   56.7130   30.8410   43.5700 C   0  0  0  0  0  0  0  0  0  0  0  0
   55.9419   31.2487   42.8998 H   0  0  0  0  0  0  0  0  0  0  0  0
   57.7100   30.9608   43.1210 H   0  0  0  0  0  0  0  0  0  0  0  0
   56.4480   29.3470   43.7930 C   0  0  0  0  0  0  0  0  0  0  0  0
   55.8576   29.2203   44.7124 H   0  0  0  0  0  0  0  0  0  0  0  0
   55.8989   28.9563   42.9236 H   0  0  0  0  0  0  0  0  0  0  0  0
   57.7630   28.5660   43.9300 C   0  0  0  0  0  0  0  0  0  0  0  0
   57.5355   27.4937   44.0221 H   0  0  0  0  0  0  0  0  0  0  0  0
   58.3762   28.7573   43.0370 H   0  0  0  0  0  0  0  0  0  0  0  0
   58.5230   29.0020   45.1220 N   0  0  0  0  0  0  0  0  0  0  0  0
   59.9720   28.9080   44.8650 C   0  0  0  0  0  0  0  0  0  0  0  0
   60.2386   27.8590   44.6685 H   0  0  0  0  0  0  0  0  0  0  0  0
   60.2222   29.5296   43.9927 H   0  0  0  0  0  0  0  0  0  0  0  0
   60.7660   29.4150   46.0880 C   0  0  0  0  0  0  0  0  0  0  0  0
   61.5669   28.6948   46.3113 H   0  0  0  0  0  0  0  0  0  0  0  0
   61.1705   30.4061   45.8350 H   0  0  0  0  0  0  0  0  0  0  0  0
   59.9550   29.5640   47.2410 O   0  0  0  0  0  0  0  0  0  0  0  0
   59.1990   28.3890   47.4460 C   0  0  0  0  0  0  0  0  0  0  0  0
   59.8757   27.5219   47.4615 H   0  0  0  0  0  0  0  0  0  0  0  0
   58.6661   28.4730   48.4046 H   0  0  0  0  0  0  0  0  0  0  0  0
   58.1660   28.2050   46.3180 C   0  0  0  0  0  0  0  0  0  0  0  0
   58.1254   27.1415   46.0401 H   0  0  0  0  0  0  0  0  0  0  0  0
   57.1882   28.5507   46.6847 H   0  0  0  0  0  0  0  0  0  0  0  0
   57.5520   33.7090   45.0730 C   0  0  0  0  0  0  0  0  0  0  0  0
   56.7365   34.1204   44.4601 H   0  0  0  0  0  0  0  0  0  0  0  0
  1  2  1  0
  2  3  1  0
  3  4  1  0
  3  5  2  0
  5  6  1  0
  5  7  1  0
  7  8  1  0
  7  9  1  0
  9 10  2  0
 10 11  1  0
 11 12  1  0
 11 13  1  0
 11 14  1  0
 14 15  1  0
 14 16  1  0
 14 17  1  0
 17 18  1  0
 17 19  1  0
 17 20  1  0
 20 21  1  0
 21 22  1  0
 21 23  1  0
 21 24  1  0
 24 25  1  0
 24 26  1  0
 24 27  1  0
 27 28  1  0
 28 29  1  0
 28 30  1  0
 28 31  1  0
 31 32  1  0
 31 33  1  0
  9 34  1  0
 34 35  1  0
 34  2  2  0
 31 20  1  0
M  END
>  <UniqueID>  (15) 
13

>  <SMILES>  (15) 
c1cc/c(=N/CCCN2CCOCC2)[nH]c1

>  <Energy>  (15) 
42.14211918033904

>  <Genealogy>  (15) 
c1cc/c(=N/CCCN2CCOCC2)[nH]c1 (cis-trans isomerization)
c1cc/c(=N/CCCN2CCOCC2)[nH]c1 (3D coordinates assigned)
c1cc/c(=N/CCCN2CCOCC2)[nH]c1 (nonaromatic ring conformer: 42.14211918033904 kcal/mol)

>  <smiles>  (15) 
c1ccc(=NCCCN2CCOCC2)[nH]c1

>  <score_type>  (15) 
oracle

>  <origin>  (15) 
adg

>  <m_score__min__energy>  (15) 
-6.3099999999999996

>  <m_primary>  (15) 
energy

$$$$
15:0
     RDKit          3D

 49 49  0  0  0  0  0  0  0  0999 V2000
   55.1440   26.3360   47.0170 H   0  0  0  0  0  0  0  0  0  0  0  0
   55.1970   26.2470   46.0090 O   0  0  0  0  0  0  0  0  0  0  0  0
   56.0700   25.3380   45.4160 C   0  0  0  0  0  0  0  0  0  0  0  0
   57.3650   25.3920   45.7210 C   0  0  0  0  0  0  0  0  0  0  0  0
   58.5660   24.7450   45.9290 C   0  0  0  0  0  0  0  0  0  0  0  0
   59.2390   23.6850   45.9750 O   0  0  0  0  0  0  0  0  0  0  0  0
   58.4920   26.1180   46.0570 C   0  0  0  0  0  0  0  0  0  0  0  0
   59.0900   27.2800   46.3130 C   0  0  0  0  0  0  0  0  0  0  0  0
   59.3290   27.6850   47.6760 N   0  0  0  0  0  0  0  0  0  0  0  0
   58.6900   28.8930   48.2010 C   0  0  0  0  0  0  0  0  0  0  0  0
   58.7039   28.8668   49.3006 H   0  0  0  0  0  0  0  0  0  0  0  0
   59.2369   29.7799   47.8484 H   0  0  0  0  0  0  0  0  0  0  0  0
   57.6491   28.9400   47.8484 H   0  0  0  0  0  0  0  0  0  0  0  0
   60.4540   27.1200   48.4230 C   0  0  0  0  0  0  0  0  0  0  0  0
   60.2629   27.2160   49.5020 H   0  0  0  0  0  0  0  0  0  0  0  0
   60.5692   26.0571   48.1642 H   0  0  0  0  0  0  0  0  0  0  0  0
   61.3753   27.6623   48.1642 H   0  0  0  0  0  0  0  0  0  0  0  0
   59.4250   28.2000   45.1640 C   0  0  0  0  0  0  0  0  0  0  0  0
   60.4901   28.4700   45.2153 H   0  0  0  0  0  0  0  0  0  0  0  0
   59.2102   27.6805   44.2185 H   0  0  0  0  0  0  0  0  0  0  0  0
   58.5760   29.4780   45.2320 C   0  0  0  0  0  0  0  0  0  0  0  0
   58.8531   30.0424   46.1346 H   0  0  0  0  0  0  0  0  0  0  0  0
   58.7699   30.0671   44.3235 H   0  0  0  0  0  0  0  0  0  0  0  0
   57.0770   29.1610   45.2850 C   0  0  0  0  0  0  0  0  0  0  0  0
   56.8955   28.1937   44.7937 H   0  0  0  0  0  0  0  0  0  0  0  0
   56.7624   29.1208   46.3383 H   0  0  0  0  0  0  0  0  0  0  0  0
   56.2920   30.2110   44.5950 N   0  0  0  0  0  0  0  0  0  0  0  0
   57.0430   31.4760   44.5620 C   0  0  0  0  0  0  0  0  0  0  0  0
   57.2420   31.8112   45.5906 H   0  0  0  0  0  0  0  0  0  0  0  0
   57.9965   31.3227   44.0354 H   0  0  0  0  0  0  0  0  0  0  0  0
   56.4519   32.2397   44.0354 H   0  0  0  0  0  0  0  0  0  0  0  0
   55.9580   29.8020   43.2180 C   0  0  0  0  0  0  0  0  0  0  0  0
   55.2625   28.9503   43.2470 H   0  0  0  0  0  0  0  0  0  0  0  0
   55.4855   30.6434   42.6900 H   0  0  0  0  0  0  0  0  0  0  0  0
   56.8769   29.5072   42.6900 H   0  0  0  0  0  0  0  0  0  0  0  0
   55.5720   24.3370   44.5100 N   0  0  0  0  0  0  0  0  0  0  0  0
   55.4850   23.4290   45.0250 H   0  0  0  0  0  0  0  0  0  0  0  0
   54.6210   24.6070   44.1630 H   0  0  0  0  0  0  0  0  0  0  0  0
   56.4980   24.1710   43.3790 C   0  0  0  0  0  0  0  0  0  0  0  0
   57.4889   24.5518   43.6673 H   0  0  0  0  0  0  0  0  0  0  0  0
   56.1029   24.7320   42.5192 H   0  0  0  0  0  0  0  0  0  0  0  0
   56.6250   22.6980   42.9810 C   0  0  0  0  0  0  0  0  0  0  0  0
   57.6815   22.3962   43.0339 H   0  0  0  0  0  0  0  0  0  0  0  0
   56.2506   22.5677   41.9549 H   0  0  0  0  0  0  0  0  0  0  0  0
   55.8640   21.8930   43.8580 O   0  0  0  0  0  0  0  0  0  0  0  0
   56.6660   20.8400   44.3440 C   0  0  0  0  0  0  0  0  0  0  0  0
   56.6580   20.8505   45.4439 H   0  0  0  0  0  0  0  0  0  0  0  0
   56.2683   19.8798   43.9836 H   0  0  0  0  0  0  0  0  0  0  0  0
   57.6974   20.9682   43.9836 H   0  0  0  0  0  0  0  0  0  0  0  0
  1  2  1  0
  2  3  1  0
  3  4  2  0
  4  5  1  0
  5  6  2  0
  5  7  1  0
  7  8  2  3
  8  9  1  0
  9 10  1  0
 10 11  1  0
 10 12  1  0
 10 13  1  0
  9 14  1  0
 14 15  1  0
 14 16  1  0
 14 17  1  0
  8 18  1  0
 18 19  1  0
 18 20  1  0
 18 21  1  0
 21 22  1  0
 21 23  1  0
 21 24  1  0
 24 25  1  0
 24 26  1  0
 24 27  1  0
 27 28  1  0
 28 29  1  0
 28 30  1  0
 28 31  1  0
 27 32  1  0
 32 33  1  0
 32 34  1  0
 32 35  1  0
  3 36  1  0
 36 37  1  0
 36 38  1  0
 36 39  1  0
 39 40  1  0
 39 41  1  0
 39 42  1  0
 42 43  1  0
 42 44  1  0
 42 45  1  0
 45 46  1  0
 46 47  1  0
 46 48  1  0
 46 49  1  0
  7  4  1  0
M  CHG  1  36   1
M  END
>  <UniqueID>  (16) 
14

>  <SMILES>  (16) 
COCC[NH2+]/C(O)=c1\c(=O)c1=C(CCCN(C)C)N(C)C

>  <Energy>  (16) 
31.903721723868358

>  <Genealogy>  (16) 
COCC[NH2+]C(O)=c1c(=O)c1=C(CCCN(C)C)N(C)C (protonated)
COCC[NH2+]/C(O)=c1\c(=O)c1=C(CCCN(C)C)N(C)C (cis-trans isomerization)
COCC[NH2+]/C(O)=c1\c(=O)c1=C(CCCN(C)C)N(C)C (3D coordinates assigned)
COCC[NH2+]/C(O)=c1\c(=O)c1=C(CCCN(C)C)N(C)C (optimized conformer: 31.903721723868358 kcal/mol)

>  <smiles>  (16) 
COCCNC(O)=c1c(=O)c1=C(CCCN(C)C)N(C)C

>  <score_type>  (16) 
oracle

>  <origin>  (16) 
adg

>  <m_score__min__energy>  (16) 
-5.5300000000000002

>  <m_primary>  (16) 
energy

$$$$
16:0
     RDKit          3D

 51 54  0  0  0  0  0  0  0  0999 V2000
   58.4710   29.7070   46.5560 C   0  0  0  0  0  0  0  0  0  0  0  0
   57.4180   30.4910   46.0040 O   0  0  0  0  0  0  0  0  0  0  0  0
   57.3780   30.9510   44.6780 C   0  0  0  0  0  0  0  0  0  0  0  0
   56.9200   30.1390   43.6200 C   0  0  0  0  0  0  0  0  0  0  0  0
   56.9190   30.6200   42.3090 C   0  0  0  0  0  0  0  0  0  0  0  0
   57.3730   31.9110   42.0370 C   0  0  0  0  0  0  0  0  0  0  0  0
   57.8260   32.7270   43.0760 C   0  0  0  0  0  0  0  0  0  0  0  0
   57.8240   32.2570   44.3980 C   0  0  0  0  0  0  0  0  0  0  0  0
   58.2830   33.1140   45.4530 N   0  0  0  0  0  0  0  0  0  0  0  0
   59.4850   33.9320   45.2480 C   0  0  0  0  0  0  0  0  0  0  0  0
   59.8680   34.6980   46.5210 C   0  0  0  0  0  0  0  0  0  0  0  0
   59.8080   33.8080   47.6920 N   0  0  0  0  0  0  0  0  0  0  0  0
   60.8130   33.9140   48.7230 C   0  0  0  0  0  0  0  0  0  0  0  0
   61.5460   34.9400   48.7800 O   0  0  0  0  0  0  0  0  0  0  0  0
   61.0230   32.8280   49.7500 C   0  0  0  0  0  0  0  0  0  0  0  0
   62.3260   32.9700   50.4270 N   0  0  0  0  0  0  0  0  0  0  0  0
   62.3420   33.3430   51.7440 C   0  0  0  0  0  0  0  0  0  0  0  0
   63.5140   33.4920   52.4140 N   0  0  0  0  0  0  0  0  0  0  0  0
   64.7060   33.2900   51.7950 C   0  0  0  0  0  0  0  0  0  0  0  0
   65.9110   33.4440   52.5010 C   0  0  0  0  0  0  0  0  0  0  0  0
   67.1340   33.2400   51.8570 C   0  0  0  0  0  0  0  0  0  0  0  0
   67.1640   32.8820   50.5070 C   0  0  0  0  0  0  0  0  0  0  0  0
   65.9720   32.7250   49.7940 C   0  0  0  0  0  0  0  0  0  0  0  0
   64.7340   32.9280   50.4330 C   0  0  0  0  0  0  0  0  0  0  0  0
   63.5100   32.7820   49.7570 C   0  0  0  0  0  0  0  0  0  0  0  0
   63.5080   32.4740   48.5320 O   0  0  0  0  0  0  0  0  0  0  0  0
   58.6530   32.9100   47.8700 C   0  0  0  0  0  0  0  0  0  0  0  0
   57.6160   33.0910   46.7580 C   0  0  0  0  0  0  0  0  0  0  0  0
   58.4197   29.7452   47.6541 H   0  0  0  0  0  0  0  0  0  0  0  0
   58.3670   28.6647   46.2201 H   0  0  0  0  0  0  0  0  0  0  0  0
   59.4397   30.1055   46.2201 H   0  0  0  0  0  0  0  0  0  0  0  0
   56.5613   29.1203   43.8287 H   0  0  0  0  0  0  0  0  0  0  0  0
   56.5598   29.9801   41.4895 H   0  0  0  0  0  0  0  0  0  0  0  0
   57.3741   32.2865   41.0031 H   0  0  0  0  0  0  0  0  0  0  0  0
   58.1861   33.7430   42.8568 H   0  0  0  0  0  0  0  0  0  0  0  0
   60.3196   33.2753   44.9613 H   0  0  0  0  0  0  0  0  0  0  0  0
   59.2728   34.6645   44.4553 H   0  0  0  0  0  0  0  0  0  0  0  0
   60.8906   35.0893   46.4149 H   0  0  0  0  0  0  0  0  0  0  0  0
   59.1597   35.5270   46.6658 H   0  0  0  0  0  0  0  0  0  0  0  0
   60.2215   32.8863   50.5011 H   0  0  0  0  0  0  0  0  0  0  0  0
   61.0057   31.8566   49.2342 H   0  0  0  0  0  0  0  0  0  0  0  0
   61.3917   33.5247   52.2674 H   0  0  0  0  0  0  0  0  0  0  0  0
   63.4810   33.7690   53.4210 H   0  0  0  0  0  0  0  0  0  0  0  0
   65.8914   33.7260   53.5640 H   0  0  0  0  0  0  0  0  0  0  0  0
   68.0748   33.3615   52.4139 H   0  0  0  0  0  0  0  0  0  0  0  0
   68.1289   32.7231   50.0034 H   0  0  0  0  0  0  0  0  0  0  0  0
   66.0013   32.4422   48.7314 H   0  0  0  0  0  0  0  0  0  0  0  0
   59.0069   31.8685   47.8609 H   0  0  0  0  0  0  0  0  0  0  0  0
   58.1730   33.1558   48.8287 H   0  0  0  0  0  0  0  0  0  0  0  0
   56.9004   32.2561   46.7872 H   0  0  0  0  0  0  0  0  0  0  0  0
   57.0843   34.0419   46.9098 H   0  0  0  0  0  0  0  0  0  0  0  0
  1  2  1  0
  2  3  1  0
  3  4  2  0
  4  5  1  0
  5  6  2  0
  6  7  1  0
  7  8  2  0
  8  9  1  0
  9 10  1  0
 10 11  1  0
 11 12  1  0
 12 13  1  0
 13 14  2  0
 13 15  1  0
 15 16  1  0
 16 17  1  0
 17 18  2  0
 18 19  1  0
 19 20  2  0
 20 21  1  0
 21 22  2  0
 22 23  1  0
 23 24  2  0
 24 25  1  0
 25 26  2  0
 12 27  1  0
 27 28  1  0
  8  3  1  0
 28  9  1  0
 25 16  1  0
 24 19  1  0
  1 29  1  0
  1 30  1  0
  1 31  1  0
  4 32  1  0
  5 33  1  0
  6 34  1  0
  7 35  1  0
 10 36  1  0
 10 37  1  0
 11 38  1  0
 11 39  1  0
 15 40  1  0
 15 41  1  0
 17 42  1  0
 18 43  1  0
 20 44  1  0
 21 45  1  0
 22 46  1  0
 23 47  1  0
 27 48  1  0
 27 49  1  0
 28 50  1  0
 28 51  1  0
M  CHG  1  18   1
M  END
>  <UniqueID>  (17) 
15

>  <SMILES>  (17) 
COc1ccccc1N1CCN(C(=O)Cn2c[nH+]c3ccccc3c2=O)CC1

>  <Energy>  (17) 
65.95668124613057

>  <Genealogy>  (17) 
COc1ccccc1N1CCN(C(=O)Cn2c[nH+]c3ccccc3c2=O)CC1 (protonated)
COc1ccccc1N1CCN(C(=O)Cn2c[nH+]c3ccccc3c2=O)CC1 (3D coordinates assigned)
COc1ccccc1N1CCN(C(=O)Cn2c[nH+]c3ccccc3c2=O)CC1 (nonaromatic ring conformer: 65.95668124613057 kcal/mol)

>  <smiles>  (17) 
COc1ccccc1N1CCN(C(=O)Cn2cnc3ccccc3c2=O)CC1

>  <score_type>  (17) 
oracle

>  <origin>  (17) 
adg

>  <m_score__min__energy>  (17) 
-6.6699999999999999

>  <m_primary>  (17) 
energy

$$$$
17:0
     RDKit          3D

 42 45  0  0  0  0  0  0  0  0999 V2000
   55.9330   30.7650   52.4060 C   0  0  0  0  0  0  0  0  0  0  0  0
   56.9610   30.1000   51.6790 O   0  0  0  0  0  0  0  0  0  0  0  0
   57.9800   30.7530   50.9700 C   0  0  0  0  0  0  0  0  0  0  0  0
   58.2320   32.1320   51.1080 C   0  0  0  0  0  0  0  0  0  0  0  0
   59.2570   32.7380   50.3760 C   0  0  0  0  0  0  0  0  0  0  0  0
   60.0510   31.9780   49.5030 C   0  0  0  0  0  0  0  0  0  0  0  0
   61.1180   32.6440   48.6770 C   0  0  0  0  0  0  0  0  0  0  0  0
   60.5090   33.6570   47.7590 C   0  0  0  0  0  0  0  0  0  0  0  0
   60.2850   34.9580   48.0900 N   0  0  0  0  0  0  0  0  0  0  0  0
   59.5210   35.4770   47.1270 N   0  0  0  0  0  0  0  0  0  0  0  0
   59.2990   34.4910   46.2450 C   0  0  0  0  0  0  0  0  0  0  0  0
   58.0480   34.2190   45.1650 S   0  0  0  0  0  0  0  0  0  0  0  0
   58.4030   32.5310   45.2180 C   0  0  0  0  0  0  0  0  0  0  0  0
   57.6420   31.4770   44.5120 C   0  0  0  0  0  0  0  0  0  0  0  0
   57.3890   31.5690   43.1330 C   0  0  0  0  0  0  0  0  0  0  0  0
   56.6640   30.5710   42.4790 C   0  0  0  0  0  0  0  0  0  0  0  0
   56.1800   29.4730   43.1920 C   0  0  0  0  0  0  0  0  0  0  0  0
   56.4160   29.3590   44.5660 C   0  0  0  0  0  0  0  0  0  0  0  0
   55.9020   28.2410   45.2400 O   0  0  0  0  0  0  0  0  0  0  0  0
   56.6950   27.1690   45.7400 C   0  0  0  0  0  0  0  0  0  0  0  0
   57.1530   30.3640   45.2230 C   0  0  0  0  0  0  0  0  0  0  0  0
   59.4020   32.2530   46.1030 N   0  0  0  0  0  0  0  0  0  0  0  0
   59.8910   33.3760   46.6040 N   0  0  0  0  0  0  0  0  0  0  0  0
   59.7970   30.6040   49.3660 C   0  0  0  0  0  0  0  0  0  0  0  0
   58.7700   29.9990   50.0950 C   0  0  0  0  0  0  0  0  0  0  0  0
   56.1129   30.6486   53.4849 H   0  0  0  0  0  0  0  0  0  0  0  0
   55.9338   31.8342   52.1473 H   0  0  0  0  0  0  0  0  0  0  0  0
   54.9582   30.3259   52.1473 H   0  0  0  0  0  0  0  0  0  0  0  0
   57.6195   32.7346   51.7948 H   0  0  0  0  0  0  0  0  0  0  0  0
   59.4425   33.8168   50.4847 H   0  0  0  0  0  0  0  0  0  0  0  0
   61.8344   33.1444   49.3451 H   0  0  0  0  0  0  0  0  0  0  0  0
   61.6329   31.8804   48.0755 H   0  0  0  0  0  0  0  0  0  0  0  0
   59.0820   36.4240   47.1500 H   0  0  0  0  0  0  0  0  0  0  0  0
   57.7645   32.4329   42.5650 H   0  0  0  0  0  0  0  0  0  0  0  0
   56.4737   30.6503   41.3985 H   0  0  0  0  0  0  0  0  0  0  0  0
   55.6087   28.6915   42.6695 H   0  0  0  0  0  0  0  0  0  0  0  0
   56.6826   27.1857   46.8398 H   0  0  0  0  0  0  0  0  0  0  0  0
   56.2854   26.2125   45.3832 H   0  0  0  0  0  0  0  0  0  0  0  0
   57.7295   27.2808   45.3832 H   0  0  0  0  0  0  0  0  0  0  0  0
   57.3485   30.2785   46.3021 H   0  0  0  0  0  0  0  0  0  0  0  0
   60.4101   30.0003   48.6807 H   0  0  0  0  0  0  0  0  0  0  0  0
   58.5810   28.9215   49.9802 H   0  0  0  0  0  0  0  0  0  0  0  0
  1  2  1  0
  2  3  1  0
  3  4  2  0
  4  5  1  0
  5  6  2  0
  6  7  1  0
  7  8  1  0
  8  9  2  0
  9 10  1  0
 10 11  2  0
 11 12  1  0
 12 13  1  0
 13 14  1  0
 14 15  2  0
 15 16  1  0
 16 17  2  0
 17 18  1  0
 18 19  1  0
 19 20  1  0
 18 21  2  0
 13 22  2  0
 22 23  1  0
  6 24  1  0
 24 25  2  0
 25  3  1  0
 23  8  1  0
 23 11  1  0
 21 14  1  0
  1 26  1  0
  1 27  1  0
  1 28  1  0
  4 29  1  0
  5 30  1  0
  7 31  1  0
  7 32  1  0
 10 33  1  0
 15 34  1  0
 16 35  1  0
 17 36  1  0
 20 37  1  0
 20 38  1  0
 20 39  1  0
 21 40  1  0
 24 41  1  0
 25 42  1  0
M  CHG  1  10   1
M  END
>  <UniqueID>  (18) 
16

>  <SMILES>  (18) 
COc1ccc(Cc2n[nH+]c3sc(-c4cccc(OC)c4)nn23)cc1

>  <Energy>  (18) 
137.16122882420393

>  <Genealogy>  (18) 
COc1ccc(Cc2n[nH+]c3sc(-c4cccc(OC)c4)nn23)cc1 (protonated)
COc1ccc(Cc2n[nH+]c3sc(-c4cccc(OC)c4)nn23)cc1 (3D coordinates assigned)
COc1ccc(Cc2n[nH+]c3sc(-c4cccc(OC)c4)nn23)cc1 (optimized conformer: 137.16122882420393 kcal/mol)

>  <smiles>  (18) 
COc1ccc(Cc2nnc3sc(-c4cccc(OC)c4)nn23)cc1

>  <score_type>  (18) 
oracle

>  <origin>  (18) 
adg

>  <m_score__min__energy>  (18) 
-7.4699999999999998

>  <m_primary>  (18) 
energy

$$$$
18:0
     RDKit          3D

 33 35  0  0  0  0  0  0  0  0999 V2000
   56.4750   30.0840   43.3080 C   0  0  0  0  0  0  0  0  0  0  0  0
   57.4080   31.6040   42.9480 S   0  0  0  0  0  0  0  0  0  0  0  0
   57.8460   31.8860   44.6630 C   0  0  0  0  0  0  0  0  0  0  0  0
   58.4980   30.8860   45.3940 C   0  0  0  0  0  0  0  0  0  0  0  0
   58.8360   31.1030   46.7330 C   0  0  0  0  0  0  0  0  0  0  0  0
   58.5130   32.3180   47.3590 C   0  0  0  0  0  0  0  0  0  0  0  0
   58.8850   32.5430   48.7720 C   0  0  0  0  0  0  0  0  0  0  0  0
   58.0000   32.5220   49.7850 N   0  0  0  0  0  0  0  0  0  0  0  0
   58.6640   32.6700   50.9210 N   0  0  0  0  0  0  0  0  0  0  0  0
   59.9650   32.7840   50.5870 C   0  0  0  0  0  0  0  0  0  0  0  0
   60.1400   32.7140   49.2500 N   0  0  0  0  0  0  0  0  0  0  0  0
   61.3770   32.9050   48.5420 C   0  0  0  0  0  0  0  0  0  0  0  0
   61.4050   33.6830   47.3720 C   0  0  0  0  0  0  0  0  0  0  0  0
   62.6040   33.8650   46.6750 C   0  0  0  0  0  0  0  0  0  0  0  0
   63.7790   33.2630   47.1330 C   0  0  0  0  0  0  0  0  0  0  0  0
   63.7570   32.4740   48.2860 C   0  0  0  0  0  0  0  0  0  0  0  0
   62.5610   32.2900   48.9850 C   0  0  0  0  0  0  0  0  0  0  0  0
   57.8710   33.3230   46.6140 C   0  0  0  0  0  0  0  0  0  0  0  0
   57.5330   33.1030   45.2760 C   0  0  0  0  0  0  0  0  0  0  0  0
   56.3943   29.9526   44.3971 H   0  0  0  0  0  0  0  0  0  0  0  0
   55.4679   30.1601   42.8723 H   0  0  0  0  0  0  0  0  0  0  0  0
   56.9988   29.2204   42.8723 H   0  0  0  0  0  0  0  0  0  0  0  0
   58.7449   29.9276   44.9139 H   0  0  0  0  0  0  0  0  0  0  0  0
   59.3579   30.3177   47.2995 H   0  0  0  0  0  0  0  0  0  0  0  0
   56.9670   32.3840   49.7200 H   0  0  0  0  0  0  0  0  0  0  0  0
   60.7812   32.9173   51.3123 H   0  0  0  0  0  0  0  0  0  0  0  0
   60.4803   34.1507   47.0029 H   0  0  0  0  0  0  0  0  0  0  0  0
   62.6220   34.4829   45.7651 H   0  0  0  0  0  0  0  0  0  0  0  0
   64.7217   33.4103   46.5856 H   0  0  0  0  0  0  0  0  0  0  0  0
   64.6816   31.9974   48.6437 H   0  0  0  0  0  0  0  0  0  0  0  0
   62.5459   31.6604   49.8869 H   0  0  0  0  0  0  0  0  0  0  0  0
   57.6336   34.2874   47.0869 H   0  0  0  0  0  0  0  0  0  0  0  0
   57.0193   33.8894   44.7036 H   0  0  0  0  0  0  0  0  0  0  0  0
  1  2  1  0
  2  3  1  0
  3  4  2  0
  4  5  1  0
  5  6  2  0
  6  7  1  0
  7  8  2  0
  8  9  1  0
  9 10  2  0
 10 11  1  0
 11 12  1  0
 12 13  2  0
 13 14  1  0
 14 15  2  0
 15 16  1  0
 16 17  2  0
  6 18  1  0
 18 19  2  0
 19  3  1  0
 11  7  1  0
 17 12  1  0
  1 20  1  0
  1 21  1  0
  1 22  1  0
  4 23  1  0
  5 24  1  0
  8 25  1  0
 10 26  1  0
 13 27  1  0
 14 28  1  0
 15 29  1  0
 16 30  1  0
 17 31  1  0
 18 32  1  0
 19 33  1  0
M  CHG  1   8   1
M  END
>  <UniqueID>  (19) 
17

>  <SMILES>  (19) 
CSc1ccc(-c2[nH+]ncn2-c2ccccc2)cc1

>  <Energy>  (19) 
75.15089635530995

>  <Genealogy>  (19) 
CSc1ccc(-c2[nH+]ncn2-c2ccccc2)cc1 (protonated)
CSc1ccc(-c2[nH+]ncn2-c2ccccc2)cc1 (3D coordinates assigned)
CSc1ccc(-c2[nH+]ncn2-c2ccccc2)cc1 (optimized conformer: 75.15089635530995 kcal/mol)

>  <smiles>  (19) 
CSc1ccc(-c2nncn2-c2ccccc2)cc1

>  <score_type>  (19) 
oracle

>  <origin>  (19) 
adg

>  <m_score__min__energy>  (19) 
-5.54

>  <m_primary>  (19) 
energy

$$$$
19:0
     RDKit          3D

 52 54  0  0  0  0  0  0  0  0999 V2000
   58.1227   33.6925   47.3028 H   0  0  0  0  0  0  0  0  0  0  0  0
   58.2560   34.1030   46.2910 C   0  0  0  0  0  0  0  0  0  0  0  0
   59.5360   35.3220   45.9870 S   0  0  0  0  0  0  0  0  0  0  0  0
   60.7160   34.4660   47.0300 C   0  0  0  0  0  0  0  0  0  0  0  0
   60.4910   34.3650   48.4070 C   0  0  0  0  0  0  0  0  0  0  0  0
   59.5908   34.8157   48.8503 H   0  0  0  0  0  0  0  0  0  0  0  0
   61.4070   33.6930   49.2210 C   0  0  0  0  0  0  0  0  0  0  0  0
   61.2233   33.6162   50.3028 H   0  0  0  0  0  0  0  0  0  0  0  0
   62.5630   33.1140   48.6650 C   0  0  0  0  0  0  0  0  0  0  0  0
   63.5360   32.3950   49.5280 C   0  0  0  0  0  0  0  0  0  0  0  0
   63.1190   31.3270   50.3430 C   0  0  0  0  0  0  0  0  0  0  0  0
   62.0625   31.0208   50.3424 H   0  0  0  0  0  0  0  0  0  0  0  0
   64.0350   30.6520   51.1530 C   0  0  0  0  0  0  0  0  0  0  0  0
   63.6954   29.8183   51.7852 H   0  0  0  0  0  0  0  0  0  0  0  0
   65.3890   31.0320   51.1650 C   0  0  0  0  0  0  0  0  0  0  0  0
   66.3460   30.3850   51.9610 O   0  0  0  0  0  0  0  0  0  0  0  0
   67.2470   29.3900   51.4860 C   0  0  0  0  0  0  0  0  0  0  0  0
   67.7112   28.8773   52.3414 H   0  0  0  0  0  0  0  0  0  0  0  0
   66.6972   28.6591   50.8748 H   0  0  0  0  0  0  0  0  0  0  0  0
   68.0287   29.8649   50.8748 H   0  0  0  0  0  0  0  0  0  0  0  0
   65.8060   32.0940   50.3550 C   0  0  0  0  0  0  0  0  0  0  0  0
   66.8630   32.3986   50.3565 H   0  0  0  0  0  0  0  0  0  0  0  0
   64.8910   32.7710   49.5440 C   0  0  0  0  0  0  0  0  0  0  0  0
   65.2334   33.6046   48.9132 H   0  0  0  0  0  0  0  0  0  0  0  0
   62.7820   33.2250   47.2800 C   0  0  0  0  0  0  0  0  0  0  0  0
   63.6818   32.7784   46.8318 H   0  0  0  0  0  0  0  0  0  0  0  0
   61.8640   33.8990   46.4690 C   0  0  0  0  0  0  0  0  0  0  0  0
   62.0455   33.9833   45.3873 H   0  0  0  0  0  0  0  0  0  0  0  0
   57.4620   33.6890   45.2970 C   0  0  0  0  0  0  0  0  0  0  0  0
   56.3728   33.8043   45.3986 H   0  0  0  0  0  0  0  0  0  0  0  0
   58.0190   33.0700   44.0440 C   0  0  0  0  0  0  0  0  0  0  0  0
   57.6041   33.5966   43.1719 H   0  0  0  0  0  0  0  0  0  0  0  0
   59.1148   33.1604   44.0758 H   0  0  0  0  0  0  0  0  0  0  0  0
   57.6660   31.5800   43.9390 C   0  0  0  0  0  0  0  0  0  0  0  0
   56.7437   31.4716   43.3493 H   0  0  0  0  0  0  0  0  0  0  0  0
   58.5043   31.0596   43.4528 H   0  0  0  0  0  0  0  0  0  0  0  0
   57.4640   30.9990   45.2280 O   0  0  0  0  0  0  0  0  0  0  0  0
   57.7590   29.6710   45.5840 C   0  0  0  0  0  0  0  0  0  0  0  0
   59.0270   29.2830   46.0620 C   0  0  0  0  0  0  0  0  0  0  0  0
   59.8253   30.0321   46.1692 H   0  0  0  0  0  0  0  0  0  0  0  0
   59.2730   27.9500   46.4000 C   0  0  0  0  0  0  0  0  0  0  0  0
   60.2652   27.6523   46.7699 H   0  0  0  0  0  0  0  0  0  0  0  0
   58.2650   26.9960   46.2700 C   0  0  0  0  0  0  0  0  0  0  0  0
   58.4631   25.9475   46.5371 H   0  0  0  0  0  0  0  0  0  0  0  0
   57.0040   27.3700   45.8010 C   0  0  0  0  0  0  0  0  0  0  0  0
   56.2106   26.6145   45.7020 H   0  0  0  0  0  0  0  0  0  0  0  0
   56.7430   28.7100   45.4540 C   0  0  0  0  0  0  0  0  0  0  0  0
   55.4910   29.1240   44.9710 O   0  0  0  0  0  0  0  0  0  0  0  0
   55.2760   29.7210   43.6960 C   0  0  0  0  0  0  0  0  0  0  0  0
   54.9061   30.7482   43.8298 H   0  0  0  0  0  0  0  0  0  0  0  0
   56.2230   29.7423   43.1367 H   0  0  0  0  0  0  0  0  0  0  0  0
   54.5329   29.1336   43.1367 H   0  0  0  0  0  0  0  0  0  0  0  0
  1  2  1  0
  2  3  1  0
  3  4  1  0
  4  5  2  0
  5  6  1  0
  5  7  1  0
  7  8  1  0
  7  9  2  0
  9 10  1  0
 10 11  2  0
 11 12  1  0
 11 13  1  0
 13 14  1  0
 13 15  2  0
 15 16  1  0
 16 17  1  0
 17 18  1  0
 17 19  1  0
 17 20  1  0
 15 21  1  0
 21 22  1  0
 21 23  2  0
 23 24  1  0
  9 25  1  0
 25 26  1  0
 25 27  2  0
 27 28  1  0
  2 29  2  0
 29 30  1  0
 29 31  1  0
 31 32  1  0
 31 33  1  0
 31 34  1  0
 34 35  1  0
 34 36  1  0
 34 37  1  0
 37 38  1  0
 38 39  2  0
 39 40  1  0
 39 41  1  0
 41 42  1  0
 41 43  2  0
 43 44  1  0
 43 45  1  0
 45 46  1  0
 45 47  2  0
 47 48  1  0
 48 49  1  0
 49 50  1  0
 49 51  1  0
 49 52  1  0
 27  4  1  0
 47 38  1  0
 23 10  1  0
M  END
>  <UniqueID>  (20) 
18

>  <SMILES>  (20) 
COc1ccc(-c2ccc(S/C=C/CCOc3ccccc3OC)cc2)cc1

>  <Energy>  (20) 
49.38729120553235

>  <Genealogy>  (20) 
COc1ccc(-c2ccc(S/C=C/CCOc3ccccc3OC)cc2)cc1 (cis-trans isomerization)
COc1ccc(-c2ccc(S/C=C/CCOc3ccccc3OC)cc2)cc1 (3D coordinates assigned)
COc1ccc(-c2ccc(S/C=C/CCOc3ccccc3OC)cc2)cc1 (optimized conformer: 49.38729120553235 kcal/mol)

>  <smiles>  (20) 
COc1ccc(-c2ccc(SC=CCCOc3ccccc3OC)cc2)cc1

>  <score_type>  (20) 
oracle

>  <origin>  (20) 
adg

>  <m_score__min__energy>  (20) 
-9.6699999999999999

>  <m_primary>  (20) 
energy

$$$$
20:0
     RDKit          3D

 43 44  0  0  0  0  0  0  0  0999 V2000
   58.9100   29.9270   48.1430 C   0  0  0  0  0  0  0  0  0  0  0  0
   59.9900   30.5170   47.3320 N   0  0  0  0  0  0  0  0  0  0  0  0
   60.1520   29.7740   46.0600 C   0  0  0  0  0  0  0  0  0  0  0  0
   58.7850   29.4180   45.4380 C   0  0  0  0  0  0  0  0  0  0  0  0
   58.5280   30.1870   44.1350 C   0  0  0  0  0  0  0  0  0  0  0  0
   57.1060   30.7550   44.1000 C   0  0  0  0  0  0  0  0  0  0  0  0
   56.8750   31.6000   45.2280 O   0  0  0  0  0  0  0  0  0  0  0  0
   57.6580   32.7090   45.5910 C   0  0  0  0  0  0  0  0  0  0  0  0
   58.2590   33.4550   44.5690 C   0  0  0  0  0  0  0  0  0  0  0  0
   59.0480   34.5690   44.8730 C   0  0  0  0  0  0  0  0  0  0  0  0
   59.2450   34.9450   46.2030 C   0  0  0  0  0  0  0  0  0  0  0  0
   58.6530   34.2080   47.2320 C   0  0  0  0  0  0  0  0  0  0  0  0
   57.8640   33.0920   46.9330 C   0  0  0  0  0  0  0  0  0  0  0  0
   61.2510   30.5160   48.1050 C   0  0  0  0  0  0  0  0  0  0  0  0
   62.0660   31.7430   47.7860 C   0  0  0  0  0  0  0  0  0  0  0  0
   61.5980   32.6950   46.8660 C   0  0  0  0  0  0  0  0  0  0  0  0
   62.3590   33.8350   46.5840 C   0  0  0  0  0  0  0  0  0  0  0  0
   63.5890   34.0310   47.2180 C   0  0  0  0  0  0  0  0  0  0  0  0
   64.0610   33.0880   48.1360 C   0  0  0  0  0  0  0  0  0  0  0  0
   63.3040   31.9470   48.4200 C   0  0  0  0  0  0  0  0  0  0  0  0
   59.1421   30.0538   49.2107 H   0  0  0  0  0  0  0  0  0  0  0  0
   57.9603   30.4316   47.9118 H   0  0  0  0  0  0  0  0  0  0  0  0
   58.8215   28.8552   47.9118 H   0  0  0  0  0  0  0  0  0  0  0  0
   60.7165   30.3972   45.3508 H   0  0  0  0  0  0  0  0  0  0  0  0
   60.6904   28.8384   46.2716 H   0  0  0  0  0  0  0  0  0  0  0  0
   58.7624   28.3393   45.2240 H   0  0  0  0  0  0  0  0  0  0  0  0
   58.0014   29.6976   46.1575 H   0  0  0  0  0  0  0  0  0  0  0  0
   59.2476   31.0155   44.0592 H   0  0  0  0  0  0  0  0  0  0  0  0
   58.6471   29.4923   43.2905 H   0  0  0  0  0  0  0  0  0  0  0  0
   56.9724   31.3389   43.1774 H   0  0  0  0  0  0  0  0  0  0  0  0
   56.3897   29.9207   44.1290 H   0  0  0  0  0  0  0  0  0  0  0  0
   58.1092   33.1624   43.5193 H   0  0  0  0  0  0  0  0  0  0  0  0
   59.5139   35.1496   44.0632 H   0  0  0  0  0  0  0  0  0  0  0  0
   59.8661   35.8212   46.4408 H   0  0  0  0  0  0  0  0  0  0  0  0
   58.8077   34.5059   48.2795 H   0  0  0  0  0  0  0  0  0  0  0  0
   57.4033   32.5119   47.7461 H   0  0  0  0  0  0  0  0  0  0  0  0
   61.0169   30.5062   49.1798 H   0  0  0  0  0  0  0  0  0  0  0  0
   61.8329   29.6222   47.8357 H   0  0  0  0  0  0  0  0  0  0  0  0
   60.6302   32.5442   46.3654 H   0  0  0  0  0  0  0  0  0  0  0  0
   61.9886   34.5779   45.8623 H   0  0  0  0  0  0  0  0  0  0  0  0
   64.1860   34.9275   46.9947 H   0  0  0  0  0  0  0  0  0  0  0  0
   65.0287   33.2437   48.6353 H   0  0  0  0  0  0  0  0  0  0  0  0
   63.6786   31.2065   49.1420 H   0  0  0  0  0  0  0  0  0  0  0  0
  1  2  1  0
  2  3  1  0
  3  4  1  0
  4  5  1  0
  5  6  1  0
  6  7  1  0
  7  8  1  0
  8  9  2  0
  9 10  1  0
 10 11  2  0
 11 12  1  0
 12 13  2  0
  2 14  1  0
 14 15  1  0
 15 16  2  0
 16 17  1  0
 17 18  2  0
 18 19  1  0
 19 20  2  0
 13  8  1  0
 20 15  1  0
  1 21  1  0
  1 22  1  0
  1 23  1  0
  3 24  1  0
  3 25  1  0
  4 26  1  0
  4 27  1  0
  5 28  1  0
  5 29  1  0
  6 30  1  0
  6 31  1  0
  9 32  1  0
 10 33  1  0
 11 34  1  0
 12 35  1  0
 13 36  1  0
 14 37  1  0
 14 38  1  0
 16 39  1  0
 17 40  1  0
 18 41  1  0
 19 42  1  0
 20 43  1  0
M  END
>  <UniqueID>  (21) 
19

>  <SMILES>  (21) 
CN(CCCCOc1ccccc1)Cc1ccccc1

>  <Energy>  (21) 
41.71156344913906

>  <Genealogy>  (21) 
CN(CCCCOc1ccccc1)Cc1ccccc1 (3D coordinates assigned)
CN(CCCCOc1ccccc1)Cc1ccccc1 (optimized conformer: 41.71156344913906 kcal/mol)

>  <smiles>  (21) 
CN(CCCCOc1ccccc1)Cc1ccccc1

>  <score_type>  (21) 
oracle

>  <origin>  (21) 
adg

>  <m_score__min__energy>  (21) 
-6.5599999999999996

>  <m_primary>  (21) 
energy

$$$$
21:0
     RDKit          3D

 43 44  0  0  0  0  0  0  0  0999 V2000
   55.1740   29.0020   44.5380 N   0  0  0  0  0  0  0  0  0  0  0  0
   56.5670   29.9920   44.2710 S   0  0  0  0  0  0  0  0  0  0  0  0
   56.8720   30.0440   42.8020 O   0  0  0  0  0  0  0  0  0  0  0  0
   56.2760   31.3810   44.7660 O   0  0  0  0  0  0  0  0  0  0  0  0
   57.9470   29.3150   45.1310 C   0  0  0  0  0  0  0  0  0  0  0  0
   58.2750   27.9640   44.9620 C   0  0  0  0  0  0  0  0  0  0  0  0
   59.3600   27.4130   45.6470 C   0  0  0  0  0  0  0  0  0  0  0  0
   60.1290   28.2100   46.4990 C   0  0  0  0  0  0  0  0  0  0  0  0
   59.8320   29.5720   46.6580 C   0  0  0  0  0  0  0  0  0  0  0  0
   60.6250   30.3670   47.5550 N   0  0  0  0  0  0  0  0  0  0  0  0
   60.9520   29.9780   48.8990 C   0  0  0  0  0  0  0  0  0  0  0  0
   60.3690   29.0040   49.4480 O   0  0  0  0  0  0  0  0  0  0  0  0
   61.9530   30.7670   49.6810 C   0  0  0  0  0  0  0  0  0  0  0  0
   62.1320   32.0400   49.0700 O   0  0  0  0  0  0  0  0  0  0  0  0
   62.8370   32.2090   47.8750 C   0  0  0  0  0  0  0  0  0  0  0  0
   63.1530   31.2130   47.1690 O   0  0  0  0  0  0  0  0  0  0  0  0
   63.2190   33.5870   47.4320 C   0  0  0  0  0  0  0  0  0  0  0  0
   62.1890   34.1440   46.4450 C   0  0  0  0  0  0  0  0  0  0  0  0
   61.1830   33.1710   46.1690 O   0  0  0  0  0  0  0  0  0  0  0  0
   59.8050   33.4260   46.0720 C   0  0  0  0  0  0  0  0  0  0  0  0
   59.2030   33.9410   44.9040 C   0  0  0  0  0  0  0  0  0  0  0  0
   57.8240   34.1670   44.8650 C   0  0  0  0  0  0  0  0  0  0  0  0
   57.0350   33.8860   45.9830 C   0  0  0  0  0  0  0  0  0  0  0  0
   57.6230   33.3760   47.1430 C   0  0  0  0  0  0  0  0  0  0  0  0
   59.0020   33.1480   47.1860 C   0  0  0  0  0  0  0  0  0  0  0  0
   58.7240   30.1150   45.9810 C   0  0  0  0  0  0  0  0  0  0  0  0
   54.7200   29.3450   45.4150 H   0  0  0  0  0  0  0  0  0  0  0  0
   57.6759   27.3347   44.2874 H   0  0  0  0  0  0  0  0  0  0  0  0
   59.6097   26.3498   45.5156 H   0  0  0  0  0  0  0  0  0  0  0  0
   60.9726   27.7668   47.0485 H   0  0  0  0  0  0  0  0  0  0  0  0
   60.9200   31.3200   47.2390 H   0  0  0  0  0  0  0  0  0  0  0  0
   61.5907   30.9017   50.7109 H   0  0  0  0  0  0  0  0  0  0  0  0
   62.9125   30.2293   49.6986 H   0  0  0  0  0  0  0  0  0  0  0  0
   63.2710   34.2471   48.3104 H   0  0  0  0  0  0  0  0  0  0  0  0
   64.1976   33.5389   46.9319 H   0  0  0  0  0  0  0  0  0  0  0  0
   61.7181   35.0381   46.8796 H   0  0  0  0  0  0  0  0  0  0  0  0
   62.7003   34.4026   45.5060 H   0  0  0  0  0  0  0  0  0  0  0  0
   59.8207   34.1652   44.0218 H   0  0  0  0  0  0  0  0  0  0  0  0
   57.3591   34.5670   43.9518 H   0  0  0  0  0  0  0  0  0  0  0  0
   55.9504   34.0664   45.9499 H   0  0  0  0  0  0  0  0  0  0  0  0
   57.0012   33.1537   48.0227 H   0  0  0  0  0  0  0  0  0  0  0  0
   59.4602   32.7470   48.1021 H   0  0  0  0  0  0  0  0  0  0  0  0
   58.4656   31.1752   46.1197 H   0  0  0  0  0  0  0  0  0  0  0  0
  1  2  1  0
  2  3  2  0
  2  4  2  0
  2  5  1  0
  5  6  2  0
  6  7  1  0
  7  8  2  0
  8  9  1  0
  9 10  1  0
 10 11  1  0
 11 12  2  0
 11 13  1  0
 13 14  1  0
 14 15  1  0
 15 16  2  0
 15 17  1  0
 17 18  1  0
 18 19  1  0
 19 20  1  0
 20 21  2  0
 21 22  1  0
 22 23  2  0
 23 24  1  0
 24 25  2  0
  9 26  2  0
 26  5  1  0
 25 20  1  0
  1 27  1  0
  6 28  1  0
  7 29  1  0
  8 30  1  0
 10 31  1  0
 13 32  1  0
 13 33  1  0
 17 34  1  0
 17 35  1  0
 18 36  1  0
 18 37  1  0
 21 38  1  0
 22 39  1  0
 23 40  1  0
 24 41  1  0
 25 42  1  0
 26 43  1  0
M  CHG  1   1  -1
M  END
>  <UniqueID>  (22) 
20

>  <SMILES>  (22) 
[NH-]S(=O)(=O)c1cccc(NC(=O)COC(=O)CCOc2ccccc2)c1

>  <Energy>  (22) 
40.532787844296955

>  <Genealogy>  (22) 
[NH-]S(=O)(=O)c1cccc(NC(=O)COC(=O)CCOc2ccccc2)c1 (protonated)
[NH-]S(=O)(=O)c1cccc(NC(=O)COC(=O)CCOc2ccccc2)c1 (3D coordinates assigned)
[NH-]S(=O)(=O)c1cccc(NC(=O)COC(=O)CCOc2ccccc2)c1 (optimized conformer: 40.532787844296955 kcal/mol)

>  <smiles>  (22) 
NS(=O)(=O)c1cccc(NC(=O)COC(=O)CCOc2ccccc2)c1

>  <score_type>  (22) 
oracle

>  <origin>  (22) 
adg

>  <m_score__min__energy>  (22) 
-10.710000000000001

>  <m_primary>  (22) 
energy

$$$$
22:0
     RDKit          3D

 52 55  0  0  0  0  0  0  0  0999 V2000
   58.8590   28.3200   47.9550 C   0  0  0  0  0  0  0  0  0  0  0  0
   57.7480   28.0860   47.0970 O   0  0  0  0  0  0  0  0  0  0  0  0
   57.6810   27.0610   46.1410 C   0  0  0  0  0  0  0  0  0  0  0  0
   57.5100   25.7110   46.5100 C   0  0  0  0  0  0  0  0  0  0  0  0
   57.4740   24.7100   45.5370 C   0  0  0  0  0  0  0  0  0  0  0  0
   57.6060   25.0410   44.1880 C   0  0  0  0  0  0  0  0  0  0  0  0
   57.7700   26.3730   43.8080 C   0  0  0  0  0  0  0  0  0  0  0  0
   57.8050   27.3910   44.7760 C   0  0  0  0  0  0  0  0  0  0  0  0
   57.9560   28.7600   44.3590 N   0  0  0  0  0  0  0  0  0  0  0  0
   59.0380   29.5830   44.9120 C   0  0  0  0  0  0  0  0  0  0  0  0
   58.6940   31.0720   44.8000 C   0  0  0  0  0  0  0  0  0  0  0  0
   57.2710   31.2700   45.1390 N   0  0  0  0  0  0  0  0  0  0  0  0
   56.9760   32.7080   45.3150 C   0  0  0  0  0  0  0  0  0  0  0  0
   57.3160   33.1780   46.7360 C   0  0  0  0  0  0  0  0  0  0  0  0
   58.7720   33.3400   46.8850 N   0  0  0  0  0  0  0  0  0  0  0  0
   59.3780   34.4020   46.2700 C   0  0  0  0  0  0  0  0  0  0  0  0
   60.7570   34.5900   46.3570 C   0  0  0  0  0  0  0  0  0  0  0  0
   61.5310   33.6770   47.0740 C   0  0  0  0  0  0  0  0  0  0  0  0
   62.9190   33.8350   47.1820 C   0  0  0  0  0  0  0  0  0  0  0  0
   63.6680   32.9050   47.8990 C   0  0  0  0  0  0  0  0  0  0  0  0
   63.0250   31.8230   48.5020 C   0  0  0  0  0  0  0  0  0  0  0  0
   61.6770   31.6750   48.3930 N   0  0  0  0  0  0  0  0  0  0  0  0
   60.9130   32.5730   47.6970 C   0  0  0  0  0  0  0  0  0  0  0  0
   59.5160   32.4190   47.5820 C   0  0  0  0  0  0  0  0  0  0  0  0
   58.9530   31.4260   48.1220 O   0  0  0  0  0  0  0  0  0  0  0  0
   56.3720   30.6470   44.1290 C   0  0  0  0  0  0  0  0  0  0  0  0
   56.9660   29.3830   43.4760 C   0  0  0  0  0  0  0  0  0  0  0  0
   58.5334   28.2514   49.0035 H   0  0  0  0  0  0  0  0  0  0  0  0
   59.6363   27.5659   47.7624 H   0  0  0  0  0  0  0  0  0  0  0  0
   59.2661   29.3236   47.7624 H   0  0  0  0  0  0  0  0  0  0  0  0
   57.4042   25.4444   47.5719 H   0  0  0  0  0  0  0  0  0  0  0  0
   57.3414   23.6593   45.8344 H   0  0  0  0  0  0  0  0  0  0  0  0
   57.5807   24.2506   43.4233 H   0  0  0  0  0  0  0  0  0  0  0  0
   57.8727   26.6284   42.7430 H   0  0  0  0  0  0  0  0  0  0  0  0
   59.1838   29.3243   45.9712 H   0  0  0  0  0  0  0  0  0  0  0  0
   59.9586   29.3878   44.3425 H   0  0  0  0  0  0  0  0  0  0  0  0
   59.3213   31.6476   45.4965 H   0  0  0  0  0  0  0  0  0  0  0  0
   58.8798   31.4172   43.7722 H   0  0  0  0  0  0  0  0  0  0  0  0
   57.5721   33.2868   44.5941 H   0  0  0  0  0  0  0  0  0  0  0  0
   55.9004   32.8647   45.1459 H   0  0  0  0  0  0  0  0  0  0  0  0
   56.8220   34.1420   46.9275 H   0  0  0  0  0  0  0  0  0  0  0  0
   56.9638   32.4249   47.4563 H   0  0  0  0  0  0  0  0  0  0  0  0
   58.7684   35.1176   45.6988 H   0  0  0  0  0  0  0  0  0  0  0  0
   61.2310   35.4516   45.8641 H   0  0  0  0  0  0  0  0  0  0  0  0
   63.4157   34.6910   46.7019 H   0  0  0  0  0  0  0  0  0  0  0  0
   64.7580   33.0224   47.9893 H   0  0  0  0  0  0  0  0  0  0  0  0
   63.6118   31.0853   49.0689 H   0  0  0  0  0  0  0  0  0  0  0  0
   61.2360   30.8510   48.8600 H   0  0  0  0  0  0  0  0  0  0  0  0
   55.4286   30.3730   44.6240 H   0  0  0  0  0  0  0  0  0  0  0  0
   56.2225   31.3861   43.3281 H   0  0  0  0  0  0  0  0  0  0  0  0
   56.1567   28.6649   43.2774 H   0  0  0  0  0  0  0  0  0  0  0  0
   57.4610   29.6697   42.5365 H   0  0  0  0  0  0  0  0  0  0  0  0
  1  2  1  0
  2  3  1  0
  3  4  2  0
  4  5  1  0
  5  6  2  0
  6  7  1  0
  7  8  2  0
  8  9  1  0
  9 10  1  0
 10 11  1  0
 11 12  1  0
 12 13  1  0
 13 14  1  0
 14 15  1  0
 15 16  1  0
 16 17  2  0
 17 18  1  0
 18 19  2  0
 19 20  1  0
 20 21  2  0
 21 22  1  0
 22 23  2  0
 23 24  1  0
 24 25  2  0
 12 26  1  0
 26 27  1  0
  8  3  1  0
 27  9  1  0
 24 15  1  0
 23 18  1  0
  1 28  1  0
  1 29  1  0
  1 30  1  0
  4 31  1  0
  5 32  1  0
  6 33  1  0
  7 34  1  0
 10 35  1  0
 10 36  1  0
 11 37  1  0
 11 38  1  0
 13 39  1  0
 13 40  1  0
 14 41  1  0
 14 42  1  0
 16 43  1  0
 17 44  1  0
 19 45  1  0
 20 46  1  0
 21 47  1  0
 22 48  1  0
 26 49  1  0
 26 50  1  0
 27 51  1  0
 27 52  1  0
M  CHG  1  22   1
M  END
>  <UniqueID>  (23) 
21

>  <SMILES>  (23) 
COc1ccccc1N1CCN(CCn2ccc3ccc[nH+]c3c2=O)CC1

>  <Energy>  (23) 
71.03560873059268

>  <Genealogy>  (23) 
COc1ccccc1N1CCN(CCn2ccc3ccc[nH+]c3c2=O)CC1 (protonated)
COc1ccccc1N1CCN(CCn2ccc3ccc[nH+]c3c2=O)CC1 (3D coordinates assigned)
COc1ccccc1N1CCN(CCn2ccc3ccc[nH+]c3c2=O)CC1 (nonaromatic ring conformer: 71.03560873059268 kcal/mol)

>  <smiles>  (23) 
COc1ccccc1N1CCN(CCn2ccc3cccnc3c2=O)CC1

>  <score_type>  (23) 
oracle

>  <origin>  (23) 
adg

>  <m_score__min__energy>  (23) 
-7.0300000000000002

>  <m_primary>  (23) 
energy

$$$$
23:0
     RDKit          3D

 45 47  0  0  0  0  0  0  0  0999 V2000
   57.3960   31.6020   42.4430 C   0  0  0  0  0  0  0  0  0  0  0  0
   58.1550   31.6850   43.7770 C   0  0  0  0  0  0  0  0  0  0  0  0
   58.5360   30.3770   44.3700 N   0  0  1  0  0  0  0  0  0  0  0  0
   59.4450   30.5150   45.5330 C   0  0  0  0  0  0  0  0  0  0  0  0
   59.7310   29.1740   46.1680 C   0  0  0  0  0  0  0  0  0  0  0  0
   60.4270   28.1880   45.4490 C   0  0  0  0  0  0  0  0  0  0  0  0
   60.6460   26.9270   46.0120 C   0  0  0  0  0  0  0  0  0  0  0  0
   60.1650   26.6400   47.2930 C   0  0  0  0  0  0  0  0  0  0  0  0
   59.4660   27.6120   48.0120 C   0  0  0  0  0  0  0  0  0  0  0  0
   59.2470   28.8750   47.4520 C   0  0  0  0  0  0  0  0  0  0  0  0
   57.3660   29.5800   44.6950 C   0  0  0  0  0  0  0  0  0  0  0  0
   56.3350   30.1360   45.1670 O   0  0  0  0  0  0  0  0  0  0  0  0
   57.3350   28.1130   44.4720 C   0  0  0  0  0  0  0  0  0  0  0  0
   57.7860   27.5440   43.2690 C   0  0  0  0  0  0  0  0  0  0  0  0
   57.7670   26.1590   43.0880 C   0  0  0  0  0  0  0  0  0  0  0  0
   57.3030   25.3100   44.1080 C   0  0  0  0  0  0  0  0  0  0  0  0
   57.2830   23.8370   43.9150 C   0  0  0  0  0  0  0  0  0  0  0  0
   58.2710   23.0200   44.4920 C   0  0  0  0  0  0  0  0  0  0  0  0
   58.2390   21.6380   44.3000 C   0  0  0  0  0  0  0  0  0  0  0  0
   57.2180   21.0770   43.5340 C   0  0  0  0  0  0  0  0  0  0  0  0
   56.2650   21.8740   42.9810 N   0  0  0  0  0  0  0  0  0  0  0  0
   56.2750   23.2240   43.1500 C   0  0  0  0  0  0  0  0  0  0  0  0
   56.8670   25.8790   45.3180 C   0  0  0  0  0  0  0  0  0  0  0  0
   56.8880   27.2650   45.4990 C   0  0  0  0  0  0  0  0  0  0  0  0
   56.3202   31.4844   42.6399 H   0  0  0  0  0  0  0  0  0  0  0  0
   57.5647   32.5239   41.8672 H   0  0  0  0  0  0  0  0  0  0  0  0
   57.7599   30.7383   41.8672 H   0  0  0  0  0  0  0  0  0  0  0  0
   59.0753   32.2638   43.6096 H   0  0  0  0  0  0  0  0  0  0  0  0
   57.4645   32.1553   44.4926 H   0  0  0  0  0  0  0  0  0  0  0  0
   59.0760   29.8980   43.6130 H   0  0  0  0  0  0  0  0  0  0  0  0
   60.3923   30.9615   45.1965 H   0  0  0  0  0  0  0  0  0  0  0  0
   58.9567   31.1566   46.2813 H   0  0  0  0  0  0  0  0  0  0  0  0
   60.8014   28.4090   44.4386 H   0  0  0  0  0  0  0  0  0  0  0  0
   61.1968   26.1606   45.4470 H   0  0  0  0  0  0  0  0  0  0  0  0
   60.3373   25.6476   47.7350 H   0  0  0  0  0  0  0  0  0  0  0  0
   59.0874   27.3843   49.0194 H   0  0  0  0  0  0  0  0  0  0  0  0
   58.6933   29.6373   48.0198 H   0  0  0  0  0  0  0  0  0  0  0  0
   58.1570   28.1944   42.4632 H   0  0  0  0  0  0  0  0  0  0  0  0
   58.1183   25.7287   42.1386 H   0  0  0  0  0  0  0  0  0  0  0  0
   59.0715   23.4713   45.0965 H   0  0  0  0  0  0  0  0  0  0  0  0
   59.0122   20.9972   44.7489 H   0  0  0  0  0  0  0  0  0  0  0  0
   57.1833   19.9888   43.3769 H   0  0  0  0  0  0  0  0  0  0  0  0
   55.4902   23.8392   42.6856 H   0  0  0  0  0  0  0  0  0  0  0  0
   56.5066   25.2283   46.1284 H   0  0  0  0  0  0  0  0  0  0  0  0
   56.5516   27.6954   46.4538 H   0  0  0  0  0  0  0  0  0  0  0  0
  1  2  1  0
  2  3  1  0
  3  4  1  0
  4  5  1  0
  5  6  2  0
  6  7  1  0
  7  8  2  0
  8  9  1  0
  9 10  2  0
  3 11  1  0
 11 12  2  0
 11 13  1  0
 13 14  2  0
 14 15  1  0
 15 16  2  0
 16 17  1  0
 17 18  2  0
 18 19  1  0
 19 20  2  0
 20 21  1  0
 21 22  2  0
 16 23  1  0
 23 24  2  0
 10  5  1  0
 24 13  1  0
 22 17  1  0
  1 25  1  0
  1 26  1  0
  1 27  1  0
  2 28  1  0
  2 29  1  0
  3 30  1  6
  4 31  1  0
  4 32  1  0
  6 33  1  0
  7 34  1  0
  8 35  1  0
  9 36  1  0
 10 37  1  0
 14 38  1  0
 15 39  1  0
 18 40  1  0
 19 41  1  0
 20 42  1  0
 22 43  1  0
 23 44  1  0
 24 45  1  0
M  CHG  1   3   1
M  END
>  <UniqueID>  (24) 
22

>  <SMILES>  (24) 
CC[N@@H+](Cc1ccccc1)C(=O)c1ccc(-c2cccnc2)cc1

>  <Energy>  (24) 
60.617026827413824

>  <Genealogy>  (24) 
CC[NH+](Cc1ccccc1)C(=O)c1ccc(-c2cccnc2)cc1 (protonated)
CC[N@@H+](Cc1ccccc1)C(=O)c1ccc(-c2cccnc2)cc1 (chirality)
CC[N@@H+](Cc1ccccc1)C(=O)c1ccc(-c2cccnc2)cc1 (3D coordinates assigned)
CC[N@@H+](Cc1ccccc1)C(=O)c1ccc(-c2cccnc2)cc1 (optimized conformer: 60.617026827413824 kcal/mol)

>  <smiles>  (24) 
CCN(Cc1ccccc1)C(=O)c1ccc(-c2cccnc2)cc1

>  <score_type>  (24) 
oracle

>  <origin>  (24) 
adg

>  <m_score__min__energy>  (24) 
-6.8300000000000001

>  <m_primary>  (24) 
energy

$$$$
24:0
     RDKit          3D

 48 51  0  0  0  0  0  0  0  0999 V2000
   57.2720   21.0010   44.3690 C   0  0  0  0  0  0  0  0  0  0  0  0
   56.8270   21.8770   45.3990 O   0  0  0  0  0  0  0  0  0  0  0  0
   57.1400   23.2450   45.4720 C   0  0  0  0  0  0  0  0  0  0  0  0
   57.3320   24.0310   44.3200 C   0  0  0  0  0  0  0  0  0  0  0  0
   57.6530   25.3910   44.4250 C   0  0  0  0  0  0  0  0  0  0  0  0
   57.7520   25.9870   45.7000 C   0  0  0  0  0  0  0  0  0  0  0  0
   57.5660   25.2010   46.8450 C   0  0  0  0  0  0  0  0  0  0  0  0
   57.2580   23.8320   46.7380 C   0  0  0  0  0  0  0  0  0  0  0  0
   57.0600   23.0210   47.8690 O   0  0  0  0  0  0  0  0  0  0  0  0
   55.7930   22.5410   48.3070 C   0  0  0  0  0  0  0  0  0  0  0  0
   58.1170   27.4440   45.8690 C   0  0  0  0  0  0  0  0  0  0  0  0
   58.1170   28.1710   44.5920 N   0  0  0  0  0  0  0  0  0  0  0  0
   58.0540   29.6090   44.5950 C   0  0  0  0  0  0  0  0  0  0  0  0
   58.2900   30.2940   45.7460 N   0  0  0  0  0  0  0  0  0  0  0  0
   58.2440   31.6500   45.7950 C   0  0  0  0  0  0  0  0  0  0  0  0
   57.9810   32.3790   44.6180 C   0  0  0  0  0  0  0  0  0  0  0  0
   57.7320   31.6550   43.4400 C   0  0  0  0  0  0  0  0  0  0  0  0
   57.4630   32.2590   42.3650 O   0  0  0  0  0  0  0  0  0  0  0  0
   57.7830   30.2960   43.4490 N   0  0  0  0  0  0  0  0  0  0  0  0
   57.8640   33.8890   44.6320 C   0  0  0  0  0  0  0  0  0  0  0  0
   58.5390   34.5190   45.8550 C   0  0  0  0  0  0  0  0  0  0  0  0
   58.1160   33.7930   47.1330 C   0  0  0  0  0  0  0  0  0  0  0  0
   58.5800   32.3340   47.0950 C   0  0  0  0  0  0  0  0  0  0  0  0
   58.6100   27.4740   43.4020 C   0  0  0  0  0  0  0  0  0  0  0  0
   57.7820   26.2140   43.1690 C   0  0  0  0  0  0  0  0  0  0  0  0
   57.7265   20.1063   44.8195 H   0  0  0  0  0  0  0  0  0  0  0  0
   56.4159   20.7031   43.7458 H   0  0  0  0  0  0  0  0  0  0  0  0
   58.0174   21.5166   43.7458 H   0  0  0  0  0  0  0  0  0  0  0  0
   57.2288   23.5721   43.3256 H   0  0  0  0  0  0  0  0  0  0  0  0
   57.6620   25.6599   47.8401 H   0  0  0  0  0  0  0  0  0  0  0  0
   55.7651   22.5304   49.4066 H   0  0  0  0  0  0  0  0  0  0  0  0
   54.9994   23.2008   47.9264 H   0  0  0  0  0  0  0  0  0  0  0  0
   55.6358   21.5210   47.9264 H   0  0  0  0  0  0  0  0  0  0  0  0
   57.3877   27.9153   46.5443 H   0  0  0  0  0  0  0  0  0  0  0  0
   59.1354   27.4899   46.2822 H   0  0  0  0  0  0  0  0  0  0  0  0
   57.6360   29.7800   42.5530 H   0  0  0  0  0  0  0  0  0  0  0  0
   58.3380   34.2879   43.7230 H   0  0  0  0  0  0  0  0  0  0  0  0
   56.7940   34.1408   44.6743 H   0  0  0  0  0  0  0  0  0  0  0  0
   59.6309   34.4479   45.7427 H   0  0  0  0  0  0  0  0  0  0  0  0
   58.2333   35.5732   45.9267 H   0  0  0  0  0  0  0  0  0  0  0  0
   58.5676   34.2947   48.0015 H   0  0  0  0  0  0  0  0  0  0  0  0
   57.0191   33.8173   47.2115 H   0  0  0  0  0  0  0  0  0  0  0  0
   59.6708   32.3080   47.2346 H   0  0  0  0  0  0  0  0  0  0  0  0
   58.0539   31.7973   47.8982 H   0  0  0  0  0  0  0  0  0  0  0  0
   58.5238   28.1359   42.5277 H   0  0  0  0  0  0  0  0  0  0  0  0
   59.6641   27.1969   43.5506 H   0  0  0  0  0  0  0  0  0  0  0  0
   56.7773   26.5056   42.8292 H   0  0  0  0  0  0  0  0  0  0  0  0
   58.2933   25.6034   42.4102 H   0  0  0  0  0  0  0  0  0  0  0  0
  1  2  1  0
  2  3  1  0
  3  4  2  0
  4  5  1  0
  5  6  2  0
  6  7  1  0
  7  8  2  0
  8  9  1  0
  9 10  1  0
  6 11  1  0
 11 12  1  0
 12 13  1  0
 13 14  2  0
 14 15  1  0
 15 16  2  0
 16 17  1  0
 17 18  2  0
 17 19  1  0
 16 20  1  0
 20 21  1  0
 21 22  1  0
 22 23  1  0
 12 24  1  0
 24 25  1  0
  8  3  1  0
 19 13  1  0
 25  5  1  0
 23 15  1  0
  1 26  1  0
  1 27  1  0
  1 28  1  0
  4 29  1  0
  7 30  1  0
 10 31  1  0
 10 32  1  0
 10 33  1  0
 11 34  1  0
 11 35  1  0
 19 36  1  0
 20 37  1  0
 20 38  1  0
 21 39  1  0
 21 40  1  0
 22 41  1  0
 22 42  1  0
 23 43  1  0
 23 44  1  0
 24 45  1  0
 24 46  1  0
 25 47  1  0
 25 48  1  0
M  END
>  <UniqueID>  (25) 
23

>  <SMILES>  (25) 
COc1cc2c(cc1OC)CN(c1nc3c(c(=O)[nH]1)CCCC3)CC2

>  <Energy>  (25) 
55.004409889127594

>  <Genealogy>  (25) 
COc1cc2c(cc1OC)CN(c1nc3c(c(=O)[nH]1)CCCC3)CC2 (3D coordinates assigned)
COc1cc2c(cc1OC)CN(c1nc3c(c(=O)[nH]1)CCCC3)CC2 (nonaromatic ring conformer: 55.004409889127594 kcal/mol)

>  <smiles>  (25) 
COc1cc2c(cc1OC)CN(c1nc3c(c(=O)[nH]1)CCCC3)CC2

>  <score_type>  (25) 
oracle

>  <origin>  (25) 
adg

>  <m_score__min__energy>  (25) 
-7.8099999999999996

>  <m_primary>  (25) 
energy

$$$$
25:0
     RDKit          3D

 47 51  0  0  0  0  0  0  0  0999 V2000
   56.0420   28.2380   44.5010 H   0  0  0  0  0  0  0  0  0  0  0  0
   55.7050   29.2250   44.5470 N   0  0  0  0  0  0  0  0  0  0  0  0
   56.5020   30.1940   44.8670 C   0  0  0  0  0  0  0  0  0  0  0  0
   56.2960   31.4700   44.4530 N   0  0  0  0  0  0  0  0  0  0  0  0
   57.3410   32.1250   44.9890 C   0  0  0  0  0  0  0  0  0  0  0  0
   57.6180   33.4860   44.8930 C   0  0  0  0  0  0  0  0  0  0  0  0
   56.9662   34.1583   44.3158 H   0  0  0  0  0  0  0  0  0  0  0  0
   58.7570   33.9740   45.5570 C   0  0  0  0  0  0  0  0  0  0  0  0
   59.0081   35.0434   45.4987 H   0  0  0  0  0  0  0  0  0  0  0  0
   59.5800   33.0990   46.2980 C   0  0  0  0  0  0  0  0  0  0  0  0
   60.4678   33.4921   46.8150 H   0  0  0  0  0  0  0  0  0  0  0  0
   59.2740   31.7270   46.3810 C   0  0  0  0  0  0  0  0  0  0  0  0
   59.9036   31.0387   46.9640 H   0  0  0  0  0  0  0  0  0  0  0  0
   58.1420   31.2680   45.6970 C   0  0  0  0  0  0  0  0  0  0  0  0
   57.6190   30.0240   45.6270 N   0  0  0  0  0  0  0  0  0  0  0  0
   58.1130   28.7970   46.1990 C   0  0  0  0  0  0  0  0  0  0  0  0
   58.9070   28.8310   47.3030 N   0  0  0  0  0  0  0  0  0  0  0  0
   59.3820   27.6960   47.8840 C   0  0  0  0  0  0  0  0  0  0  0  0
   60.2490   27.8030   49.0860 C   0  0  0  0  0  0  0  0  0  0  0  0
   60.6830   29.0480   49.5790 C   0  0  0  0  0  0  0  0  0  0  0  0
   60.3702   29.9748   49.0759 H   0  0  0  0  0  0  0  0  0  0  0  0
   61.4870   29.1110   50.6740 N   0  0  0  0  0  0  0  0  0  0  0  0
   61.8970   27.9930   51.3270 C   0  0  0  0  0  0  0  0  0  0  0  0
   62.5410   28.0798   52.2145 H   0  0  0  0  0  0  0  0  0  0  0  0
   61.5020   26.7350   50.8730 C   0  0  0  0  0  0  0  0  0  0  0  0
   61.8340   25.8261   51.3961 H   0  0  0  0  0  0  0  0  0  0  0  0
   60.6810   26.6410   49.7480 C   0  0  0  0  0  0  0  0  0  0  0  0
   60.3707   25.6527   49.3779 H   0  0  0  0  0  0  0  0  0  0  0  0
   59.0510   26.4550   47.3150 C   0  0  0  0  0  0  0  0  0  0  0  0
   59.4327   25.5201   47.7513 H   0  0  0  0  0  0  0  0  0  0  0  0
   58.2270   26.4280   46.1830 C   0  0  0  0  0  0  0  0  0  0  0  0
   57.8620   25.1820   45.5680 N   0  0  0  0  0  0  0  0  0  0  0  0
   57.1320   25.0650   44.4690 N   0  0  0  0  0  0  0  0  0  0  0  0
   57.0270   23.7410   44.2400 C   0  0  0  0  0  0  0  0  0  0  0  0
   56.3100   23.1550   43.0620 C   0  0  0  0  0  0  0  0  0  0  0  0
   55.3227   23.6310   42.9686 H   0  0  0  0  0  0  0  0  0  0  0  0
   56.9122   23.3363   42.1595 H   0  0  0  0  0  0  0  0  0  0  0  0
   56.1380   21.7600   43.2160 O   0  0  0  0  0  0  0  0  0  0  0  0
   57.3550   21.0870   42.9730 C   0  0  0  0  0  0  0  0  0  0  0  0
   57.8273   20.8258   43.9315 H   0  0  0  0  0  0  0  0  0  0  0  0
   57.1583   20.1694   42.3991 H   0  0  0  0  0  0  0  0  0  0  0  0
   58.0276   21.7414   42.3991 H   0  0  0  0  0  0  0  0  0  0  0  0
   57.6880   23.0160   45.1650 N   0  0  0  0  0  0  0  0  0  0  0  0
   57.7860   21.9790   45.2280 H   0  0  0  0  0  0  0  0  0  0  0  0
   58.1970   23.9470   45.9890 C   0  0  0  0  0  0  0  0  0  0  0  0
   58.8022   23.7312   46.8819 H   0  0  0  0  0  0  0  0  0  0  0  0
   57.7770   27.5980   45.6590 N   0  0  0  0  0  0  0  0  0  0  0  0
  1  2  1  0
  2  3  2  0
  3  4  1  0
  4  5  1  0
  5  6  2  0
  6  7  1  0
  6  8  1  0
  8  9  1  0
  8 10  2  0
 10 11  1  0
 10 12  1  0
 12 13  1  0
 12 14  2  0
 14 15  1  0
 15 16  1  0
 16 17  2  0
 17 18  1  0
 18 19  1  0
 19 20  2  0
 20 21  1  0
 20 22  1  0
 22 23  2  0
 23 24  1  0
 23 25  1  0
 25 26  1  0
 25 27  2  0
 27 28  1  0
 18 29  2  0
 29 30  1  0
 29 31  1  0
 31 32  1  0
 32 33  1  0
 33 34  2  0
 34 35  1  0
 35 36  1  0
 35 37  1  0
 35 38  1  0
 38 39  1  0
 39 40  1  0
 39 41  1  0
 39 42  1  0
 34 43  1  0
 43 44  1  0
 43 45  2  0
 45 46  1  0
 31 47  2  0
 15  3  1  0
 47 16  1  0
 14  5  1  0
 27 19  1  0
 45 32  1  0
M  CHG  2   4  -1  43   1
M  END
>  <UniqueID>  (26) 
24

>  <SMILES>  (26) 
[H]/N=c1\[n-]c2ccccc2n1-c1nc(-c2cccnc2)cc(-n2c[nH+]c(COC)n2)n1

>  <Energy>  (26) 
136.12536176286943

>  <Genealogy>  (26) 
COCc1nn(-c2cc(-c3cccnc3)nc(-n3c(=N)[n-]c4ccccc43)n2)c[nH+]1 (protonated)
[H]/N=c1\[n-]c2ccccc2n1-c1nc(-c2cccnc2)cc(-n2c[nH+]c(COC)n2)n1 (cis-trans isomerization)
[H]/N=c1\[n-]c2ccccc2n1-c1nc(-c2cccnc2)cc(-n2c[nH+]c(COC)n2)n1 (3D coordinates assigned)
[H]/N=c1\[n-]c2ccccc2n1-c1nc(-c2cccnc2)cc(-n2c[nH+]c(COC)n2)n1 (optimized conformer: 136.12536176286943 kcal/mol)

>  <smiles>  (26) 
COCc1ncn(-c2cc(-c3cccnc3)nc(-n3c(=N)[nH]c4ccccc43)n2)n1

>  <score_type>  (26) 
oracle

>  <origin>  (26) 
adg

>  <m_score__min__energy>  (26) 
-8.6500000000000004

>  <m_primary>  (26) 
energy

$$$$
26:0
     RDKit          3D

 35 37  0  0  0  0  0  0  0  0999 V2000
   58.1600   22.0080   44.4280 C   0  0  0  0  0  0  0  0  0  0  0  0
   58.9090   22.7670   45.4800 C   0  0  0  0  0  0  0  0  0  0  0  0
   60.1420   22.5590   45.6190 O   0  0  0  0  0  0  0  0  0  0  0  0
   58.2740   23.7520   46.3070 N   0  0  0  0  0  0  0  0  0  0  0  0
   58.1470   25.1520   46.0270 C   0  0  0  0  0  0  0  0  0  0  0  0
   59.2670   25.9600   45.7760 C   0  0  0  0  0  0  0  0  0  0  0  0
   59.1070   27.3170   45.4770 C   0  0  0  0  0  0  0  0  0  0  0  0
   57.8230   27.8850   45.4050 C   0  0  0  0  0  0  0  0  0  0  0  0
   57.6250   29.3190   45.0920 C   0  0  0  0  0  0  0  0  0  0  0  0
   56.7870   29.8570   44.1280 C   0  0  0  0  0  0  0  0  0  0  0  0
   56.9420   31.2240   44.2100 C   0  0  0  0  0  0  0  0  0  0  0  0
   57.8650   31.4450   45.2190 C   0  0  0  0  0  0  0  0  0  0  0  0
   58.3740   32.7510   45.6970 C   0  0  0  0  0  0  0  0  0  0  0  0
   58.4670   33.0490   47.0700 C   0  0  0  0  0  0  0  0  0  0  0  0
   58.9510   34.2910   47.4930 C   0  0  0  0  0  0  0  0  0  0  0  0
   59.3470   35.2460   46.5550 C   0  0  0  0  0  0  0  0  0  0  0  0
   59.2590   34.9620   45.1900 C   0  0  0  0  0  0  0  0  0  0  0  0
   58.7750   33.7230   44.7620 C   0  0  0  0  0  0  0  0  0  0  0  0
   58.2480   30.2910   45.7200 O   0  0  0  0  0  0  0  0  0  0  0  0
   56.7040   27.0640   45.6280 C   0  0  0  0  0  0  0  0  0  0  0  0
   56.8660   25.7080   45.9250 C   0  0  0  0  0  0  0  0  0  0  0  0
   57.4651   21.3038   44.9088 H   0  0  0  0  0  0  0  0  0  0  0  0
   57.5932   22.7123   43.8013 H   0  0  0  0  0  0  0  0  0  0  0  0
   58.8717   21.4506   43.8013 H   0  0  0  0  0  0  0  0  0  0  0  0
   60.2760   25.5236   45.8147 H   0  0  0  0  0  0  0  0  0  0  0  0
   59.9924   27.9444   45.2969 H   0  0  0  0  0  0  0  0  0  0  0  0
   56.1317   29.3053   43.4380 H   0  0  0  0  0  0  0  0  0  0  0  0
   56.4355   31.9851   43.5983 H   0  0  0  0  0  0  0  0  0  0  0  0
   58.1572   32.3006   47.8142 H   0  0  0  0  0  0  0  0  0  0  0  0
   59.0198   34.5159   48.5676 H   0  0  0  0  0  0  0  0  0  0  0  0
   59.7282   36.2218   46.8905 H   0  0  0  0  0  0  0  0  0  0  0  0
   59.5711   35.7148   44.4511 H   0  0  0  0  0  0  0  0  0  0  0  0
   58.7070   33.5059   43.6858 H   0  0  0  0  0  0  0  0  0  0  0  0
   55.6926   27.4923   45.5683 H   0  0  0  0  0  0  0  0  0  0  0  0
   55.9811   25.0732   46.0797 H   0  0  0  0  0  0  0  0  0  0  0  0
  1  2  1  0
  2  3  2  0
  2  4  1  0
  4  5  1  0
  5  6  2  0
  6  7  1  0
  7  8  2  0
  8  9  1  0
  9 10  2  0
 10 11  1  0
 11 12  2  0
 12 13  1  0
 13 14  2  0
 14 15  1  0
 15 16  2  0
 16 17  1  0
 17 18  2  0
 12 19  1  0
  8 20  1  0
 20 21  2  0
 21  5  1  0
 19  9  1  0
 18 13  1  0
  1 22  1  0
  1 23  1  0
  1 24  1  0
  6 25  1  0
  7 26  1  0
 10 27  1  0
 11 28  1  0
 14 29  1  0
 15 30  1  0
 16 31  1  0
 17 32  1  0
 18 33  1  0
 20 34  1  0
 21 35  1  0
M  CHG  1   4  -1
M  END
>  <UniqueID>  (27) 
25

>  <SMILES>  (27) 
CC(=O)[N-]c1ccc(-c2ccc(-c3ccccc3)o2)cc1

>  <Energy>  (27) 
69.08771163513119

>  <Genealogy>  (27) 
CC(=O)[N-]c1ccc(-c2ccc(-c3ccccc3)o2)cc1 (protonated)
CC(=O)[N-]c1ccc(-c2ccc(-c3ccccc3)o2)cc1 (3D coordinates assigned)
CC(=O)[N-]c1ccc(-c2ccc(-c3ccccc3)o2)cc1 (optimized conformer: 69.08771163513119 kcal/mol)

>  <smiles>  (27) 
CC(=O)Nc1ccc(-c2ccc(-c3ccccc3)o2)cc1

>  <score_type>  (27) 
oracle

>  <origin>  (27) 
adg

>  <m_score__min__energy>  (27) 
-9.1600000000000001

>  <m_primary>  (27) 
energy

$$$$
27:0
     RDKit          3D

 42 45  0  0  0  0  0  0  0  0999 V2000
   58.0910   27.7010   44.3010 C   0  0  0  0  0  0  0  0  0  0  0  0
   56.9000   27.9940   45.2060 C   0  0  0  0  0  0  0  0  0  0  0  0
   56.2070   29.1650   44.7720 O   0  0  0  0  0  0  0  0  0  0  0  0
   56.8080   30.3560   44.3290 C   0  0  0  0  0  0  0  0  0  0  0  0
   57.3800   31.2940   45.2110 C   0  0  0  0  0  0  0  0  0  0  0  0
   57.9810   32.4670   44.7200 C   0  0  0  0  0  0  0  0  0  0  0  0
   58.5970   33.4490   45.6430 C   0  0  0  0  0  0  0  0  0  0  0  0
   59.1310   34.6900   45.3100 C   0  0  0  0  0  0  0  0  0  0  0  0
   59.6200   35.2990   46.4200 N   0  0  0  0  0  0  0  0  0  0  0  0
   59.3760   34.4090   47.4020 C   0  0  0  0  0  0  0  0  0  0  0  0
   59.7170   34.5440   48.7410 C   0  0  0  0  0  0  0  0  0  0  0  0
   59.4120   33.4750   49.6120 C   0  0  0  0  0  0  0  0  0  0  0  0
   59.7480   33.5540   51.0560 C   0  0  0  0  0  0  0  0  0  0  0  0
   60.8310   32.9760   51.7090 C   0  0  0  0  0  0  0  0  0  0  0  0
   60.7570   33.2790   53.0170 N   0  0  0  0  0  0  0  0  0  0  0  0
   59.6880   34.0280   53.2210 N   0  0  0  0  0  0  0  0  0  0  0  0
   59.2360   34.4800   54.5310 C   0  0  0  0  0  0  0  0  0  0  0  0
   59.0400   34.2080   52.0550 C   0  0  0  0  0  0  0  0  0  0  0  0
   58.7860   32.3220   49.0750 C   0  0  0  0  0  0  0  0  0  0  0  0
   58.4820   32.2630   47.7470 N   0  0  0  0  0  0  0  0  0  0  0  0
   58.7690   33.3000   46.9660 N   0  0  0  0  0  0  0  0  0  0  0  0
   57.9770   32.7080   43.3370 C   0  0  0  0  0  0  0  0  0  0  0  0
   57.4030   31.7870   42.4600 C   0  0  0  0  0  0  0  0  0  0  0  0
   56.8240   30.6160   42.9520 C   0  0  0  0  0  0  0  0  0  0  0  0
   56.2730   29.7270   42.0880 F   0  0  0  0  0  0  0  0  0  0  0  0
   58.9754   27.4834   44.9178 H   0  0  0  0  0  0  0  0  0  0  0  0
   57.8640   26.8319   43.6660 H   0  0  0  0  0  0  0  0  0  0  0  0
   58.2931   28.5762   43.6660 H   0  0  0  0  0  0  0  0  0  0  0  0
   56.2102   27.1375   45.1823 H   0  0  0  0  0  0  0  0  0  0  0  0
   57.2683   28.1620   46.2288 H   0  0  0  0  0  0  0  0  0  0  0  0
   57.3563   31.1070   46.2947 H   0  0  0  0  0  0  0  0  0  0  0  0
   59.1535   35.1152   44.2957 H   0  0  0  0  0  0  0  0  0  0  0  0
   60.2093   35.4551   49.1119 H   0  0  0  0  0  0  0  0  0  0  0  0
   61.6177   32.3712   51.2344 H   0  0  0  0  0  0  0  0  0  0  0  0
   61.4230   32.9690   53.7590 H   0  0  0  0  0  0  0  0  0  0  0  0
   59.7814   33.9346   55.3153 H   0  0  0  0  0  0  0  0  0  0  0  0
   59.4279   35.5583   54.6331 H   0  0  0  0  0  0  0  0  0  0  0  0
   58.1577   34.2881   54.6331 H   0  0  0  0  0  0  0  0  0  0  0  0
   58.1084   34.7764   51.9173 H   0  0  0  0  0  0  0  0  0  0  0  0
   58.5449   31.4728   49.7312 H   0  0  0  0  0  0  0  0  0  0  0  0
   58.4296   33.6295   42.9419 H   0  0  0  0  0  0  0  0  0  0  0  0
   57.4068   31.9842   41.3778 H   0  0  0  0  0  0  0  0  0  0  0  0
  1  2  1  0
  2  3  1  0
  3  4  1  0
  4  5  2  0
  5  6  1  0
  6  7  1  0
  7  8  2  0
  8  9  1  0
  9 10  2  0
 10 11  1  0
 11 12  2  0
 12 13  1  0
 13 14  1  0
 14 15  2  0
 15 16  1  0
 16 17  1  0
 16 18  1  0
 12 19  1  0
 19 20  2  0
 20 21  1  0
  6 22  2  0
 22 23  1  0
 23 24  2  0
 24 25  1  0
 24  4  1  0
 21  7  1  0
 21 10  1  0
 18 13  2  0
  1 26  1  0
  1 27  1  0
  1 28  1  0
  2 29  1  0
  2 30  1  0
  5 31  1  0
  8 32  1  0
 11 33  1  0
 14 34  1  0
 15 35  1  0
 17 36  1  0
 17 37  1  0
 17 38  1  0
 18 39  1  0
 19 40  1  0
 22 41  1  0
 23 42  1  0
M  CHG  1  15   1
M  END
>  <UniqueID>  (28) 
26

>  <SMILES>  (28) 
CCOc1cc(-c2cnc3cc(-c4c[nH+]n(C)c4)cnn23)ccc1F

>  <Energy>  (28) 
115.93934875767923

>  <Genealogy>  (28) 
CCOc1cc(-c2cnc3cc(-c4c[nH+]n(C)c4)cnn23)ccc1F (protonated)
CCOc1cc(-c2cnc3cc(-c4c[nH+]n(C)c4)cnn23)ccc1F (3D coordinates assigned)
CCOc1cc(-c2cnc3cc(-c4c[nH+]n(C)c4)cnn23)ccc1F (optimized conformer: 115.93934875767923 kcal/mol)

>  <smiles>  (28) 
CCOc1cc(-c2cnc3cc(-c4cnn(C)c4)cnn23)ccc1F

>  <score_type>  (28) 
oracle

>  <origin>  (28) 
adg

>  <m_score__min__energy>  (28) 
-6.75

>  <m_primary>  (28) 
energy

$$$$
28:0
     RDKit          3D

 33 36  0  0  0  0  0  0  0  0999 V2000
   63.2120   30.4750   51.9310 C   0  0  0  0  0  0  0  0  0  0  0  0
   64.1660   31.0450   51.0420 O   0  0  0  0  0  0  0  0  0  0  0  0
   63.8440   31.7570   49.8750 C   0  0  0  0  0  0  0  0  0  0  0  0
   62.6460   31.5290   49.1680 C   0  0  0  0  0  0  0  0  0  0  0  0
   62.3480   32.2570   48.0000 C   0  0  0  0  0  0  0  0  0  0  0  0
   61.0900   32.0280   47.2450 C   0  0  0  0  0  0  0  0  0  0  0  0
   60.3620   30.8300   47.1850 C   0  0  0  0  0  0  0  0  0  0  0  0
   59.3140   31.0880   46.3970 N   0  0  0  0  0  0  0  0  0  0  0  0
   59.4100   32.3460   46.0140 C   0  0  0  0  0  0  0  0  0  0  0  0
   60.4810   32.9970   46.4970 N   0  0  0  0  0  0  0  0  0  0  0  0
   58.1500   32.8380   45.0030 S   0  0  0  0  0  0  0  0  0  0  0  0
   57.4570   31.2740   45.0950 C   0  0  0  0  0  0  0  0  0  0  0  0
   56.2950   30.8060   44.4880 C   0  0  0  0  0  0  0  0  0  0  0  0
   55.9190   29.4690   44.7110 C   0  0  0  0  0  0  0  0  0  0  0  0
   54.7650   28.9700   44.1210 O   0  0  0  0  0  0  0  0  0  0  0  0
   56.7050   28.6320   45.5320 C   0  0  0  0  0  0  0  0  0  0  0  0
   57.8760   29.1180   46.1380 C   0  0  0  0  0  0  0  0  0  0  0  0
   58.2340   30.4460   45.9060 C   0  0  0  0  0  0  0  0  0  0  0  0
   63.2660   33.2190   47.5480 C   0  0  0  0  0  0  0  0  0  0  0  0
   64.4540   33.4490   48.2440 C   0  0  0  0  0  0  0  0  0  0  0  0
   64.7470   32.7250   49.4020 C   0  0  0  0  0  0  0  0  0  0  0  0
   65.9440   32.9820   50.0720 O   0  0  0  0  0  0  0  0  0  0  0  0
   63.5223   30.6604   52.9699 H   0  0  0  0  0  0  0  0  0  0  0  0
   62.2275   30.9330   51.7551 H   0  0  0  0  0  0  0  0  0  0  0  0
   63.1488   29.3910   51.7551 H   0  0  0  0  0  0  0  0  0  0  0  0
   61.9352   30.7731   49.5332 H   0  0  0  0  0  0  0  0  0  0  0  0
   60.6032   29.8787   47.6820 H   0  0  0  0  0  0  0  0  0  0  0  0
   55.6867   31.4645   43.8506 H   0  0  0  0  0  0  0  0  0  0  0  0
   56.3979   27.5890   45.6991 H   0  0  0  0  0  0  0  0  0  0  0  0
   58.4929   28.4694   46.7773 H   0  0  0  0  0  0  0  0  0  0  0  0
   63.0470   33.7963   46.6376 H   0  0  0  0  0  0  0  0  0  0  0  0
   65.1640   34.2053   47.8781 H   0  0  0  0  0  0  0  0  0  0  0  0
   66.1970   32.5050   50.9280 H   0  0  0  0  0  0  0  0  0  0  0  0
  1  2  1  0
  2  3  1  0
  3  4  2  0
  4  5  1  0
  5  6  1  0
  6  7  2  0
  7  8  1  0
  8  9  1  0
  9 10  2  0
  9 11  1  0
 11 12  1  0
 12 13  2  0
 13 14  1  0
 14 15  1  0
 14 16  2  0
 16 17  1  0
 17 18  2  0
  5 19  2  0
 19 20  1  0
 20 21  2  0
 21 22  1  0
 21  3  1  0
 10  6  1  0
 18 12  1  0
 18  8  1  0
  1 23  1  0
  1 24  1  0
  1 25  1  0
  4 26  1  0
  7 27  1  0
 13 28  1  0
 16 29  1  0
 17 30  1  0
 19 31  1  0
 20 32  1  0
 22 33  1  0
M  CHG  1  15  -1
M  END
>  <UniqueID>  (29) 
27

>  <SMILES>  (29) 
COc1cc(-c2cn3c(n2)sc2cc([O-])ccc23)ccc1O

>  <Energy>  (29) 
122.42536009316076

>  <Genealogy>  (29) 
COc1cc(-c2cn3c(n2)sc2cc([O-])ccc23)ccc1O (protonated)
COc1cc(-c2cn3c(n2)sc2cc([O-])ccc23)ccc1O (3D coordinates assigned)
COc1cc(-c2cn3c(n2)sc2cc([O-])ccc23)ccc1O (optimized conformer: 122.42536009316076 kcal/mol)

>  <smiles>  (29) 
COc1cc(-c2cn3c(n2)sc2cc(O)ccc23)ccc1O

>  <score_type>  (29) 
oracle

>  <origin>  (29) 
adg

>  <m_score__min__energy>  (29) 
-8.4299999999999997

>  <m_primary>  (29) 
energy

$$$$
29:0
     RDKit          3D

 30 32  0  0  0  0  0  0  0  0999 V2000
   65.4220   32.2290   50.1290 C   0  0  0  0  0  0  0  0  0  0  0  0
   64.8380   33.4470   49.6770 O   0  0  0  0  0  0  0  0  0  0  0  0
   63.6650   33.5250   48.9110 C   0  0  0  0  0  0  0  0  0  0  0  0
   63.7680   33.3940   47.5220 C   0  0  0  0  0  0  0  0  0  0  0  0
   62.6280   33.4630   46.7150 C   0  0  0  0  0  0  0  0  0  0  0  0
   61.3620   33.6530   47.2900 C   0  0  0  0  0  0  0  0  0  0  0  0
   60.1540   33.7510   46.4430 C   0  0  0  0  0  0  0  0  0  0  0  0
   59.6160   34.9390   45.9630 C   0  0  0  0  0  0  0  0  0  0  0  0
   58.5130   34.6060   45.1900 C   0  0  0  0  0  0  0  0  0  0  0  0
   58.4210   33.2310   45.2440 C   0  0  0  0  0  0  0  0  0  0  0  0
   57.4610   32.4130   44.6500 C   0  0  0  0  0  0  0  0  0  0  0  0
   57.5460   31.0320   44.8790 C   0  0  0  0  0  0  0  0  0  0  0  0
   58.5660   30.5110   45.6950 C   0  0  0  0  0  0  0  0  0  0  0  0
   59.5040   31.3810   46.2690 C   0  0  0  0  0  0  0  0  0  0  0  0
   59.4060   32.7130   46.0030 N   0  0  0  0  0  0  0  0  0  0  0  0
   61.2590   33.8040   48.6810 C   0  0  0  0  0  0  0  0  0  0  0  0
   62.3990   33.7350   49.4880 C   0  0  0  0  0  0  0  0  0  0  0  0
   65.4300   32.2122   51.2288 H   0  0  0  0  0  0  0  0  0  0  0  0
   64.8336   31.3788   49.7536 H   0  0  0  0  0  0  0  0  0  0  0  0
   66.4533   32.1554   49.7536 H   0  0  0  0  0  0  0  0  0  0  0  0
   64.7540   33.2354   47.0608 H   0  0  0  0  0  0  0  0  0  0  0  0
   62.7241   33.3678   45.6234 H   0  0  0  0  0  0  0  0  0  0  0  0
   59.9938   35.9533   46.1591 H   0  0  0  0  0  0  0  0  0  0  0  0
   57.8498   35.2954   44.6470 H   0  0  0  0  0  0  0  0  0  0  0  0
   56.6632   32.8368   44.0224 H   0  0  0  0  0  0  0  0  0  0  0  0
   56.8123   30.3539   44.4187 H   0  0  0  0  0  0  0  0  0  0  0  0
   58.6276   29.4287   45.8816 H   0  0  0  0  0  0  0  0  0  0  0  0
   60.3022   30.9957   46.9205 H   0  0  0  0  0  0  0  0  0  0  0  0
   60.2746   33.9779   49.1401 H   0  0  0  0  0  0  0  0  0  0  0  0
   62.3056   33.8454   50.5785 H   0  0  0  0  0  0  0  0  0  0  0  0
  1  2  1  0
  2  3  1  0
  3  4  2  0
  4  5  1  0
  5  6  2  0
  6  7  1  0
  7  8  2  0
  8  9  1  0
  9 10  2  0
 10 11  1  0
 11 12  2  0
 12 13  1  0
 13 14  2  0
 14 15  1  0
  6 16  1  0
 16 17  2  0
 17  3  1  0
 15  7  1  0
 15 10  1  0
  1 18  1  0
  1 19  1  0
  1 20  1  0
  4 21  1  0
  5 22  1  0
  8 23  1  0
  9 24  1  0
 11 25  1  0
 12 26  1  0
 13 27  1  0
 14 28  1  0
 16 29  1  0
 17 30  1  0
M  END
>  <UniqueID>  (30) 
28

>  <SMILES>  (30) 
COc1ccc(-c2ccc3ccccn23)cc1

>  <Energy>  (30) 
68.53595357557398

>  <Genealogy>  (30) 
COc1ccc(-c2ccc3ccccn23)cc1 (3D coordinates assigned)
COc1ccc(-c2ccc3ccccn23)cc1 (optimized conformer: 68.53595357557398 kcal/mol)

>  <smiles>  (30) 
COc1ccc(-c2ccc3ccccn23)cc1

>  <score_type>  (30) 
oracle

>  <origin>  (30) 
adg

>  <m_score__min__energy>  (30) 
-6.0599999999999996

>  <m_primary>  (30) 
energy

$$$$
30:0
     RDKit          3D

 52 55  0  0  0  0  0  0  0  0999 V2000
   56.3504   24.2631   47.0863 H   0  0  0  0  0  0  0  0  0  0  0  0
   56.9170   25.0520   46.5700 C   0  0  0  0  0  0  0  0  0  0  0  0
   58.2870   24.8600   46.2880 C   0  0  0  0  0  0  0  0  0  0  0  0
   58.7805   23.9231   46.5860 H   0  0  0  0  0  0  0  0  0  0  0  0
   59.0250   25.8600   45.6280 C   0  0  0  0  0  0  0  0  0  0  0  0
   60.0940   25.7229   45.4077 H   0  0  0  0  0  0  0  0  0  0  0  0
   58.3610   27.0290   45.2620 C   0  0  0  0  0  0  0  0  0  0  0  0
   57.0230   27.2160   45.5380 C   0  0  0  0  0  0  0  0  0  0  0  0
   56.2710   26.2440   46.1960 C   0  0  0  0  0  0  0  0  0  0  0  0
   55.2052   26.4043   46.4159 H   0  0  0  0  0  0  0  0  0  0  0  0
   56.6530   28.5370   45.0460 C   0  0  0  0  0  0  0  0  0  0  0  0
   55.5190   29.0730   45.1740 O   0  0  0  0  0  0  0  0  0  0  0  0
   57.7760   29.1640   44.4180 N   0  0  0  0  0  0  0  0  0  0  0  0
   57.9320   30.5930   44.1420 C   0  0  0  0  0  0  0  0  0  0  0  0
   57.1951   30.8973   43.3841 H   0  0  0  0  0  0  0  0  0  0  0  0
   58.9529   30.7738   43.7743 H   0  0  0  0  0  0  0  0  0  0  0  0
   57.7230   31.3780   45.3580 N   0  0  0  0  0  0  0  0  0  0  0  0
   58.4550   31.9640   46.2810 C   0  0  0  0  0  0  0  0  0  0  0  0
   58.3230   33.3700   46.3440 C   0  0  0  0  0  0  0  0  0  0  0  0
   57.5000   34.0960   45.4010 C   0  0  0  0  0  0  0  0  0  0  0  0
   56.8410   34.6770   44.6470 N   0  0  0  0  0  0  0  0  0  0  0  0
   58.9770   34.0930   47.3280 C   0  0  0  0  0  0  0  0  0  0  0  0
   58.8803   35.1882   47.3621 H   0  0  0  0  0  0  0  0  0  0  0  0
   59.7520   33.4370   48.2680 C   0  0  0  0  0  0  0  0  0  0  0  0
   59.8890   32.0430   48.2110 C   0  0  0  0  0  0  0  0  0  0  0  0
   59.2890   31.3080   47.1930 N   0  0  0  0  0  0  0  0  0  0  0  0
   59.5840   29.8620   47.1130 C   0  0  0  0  0  0  0  0  0  0  0  0
   59.3440   29.5034   46.1012 H   0  0  0  0  0  0  0  0  0  0  0  0
   60.6506   29.7139   47.3375 H   0  0  0  0  0  0  0  0  0  0  0  0
   58.7630   29.0660   48.1310 C   0  0  0  0  0  0  0  0  0  0  0  0
   59.0615   29.3554   49.1494 H   0  0  0  0  0  0  0  0  0  0  0  0
   57.6936   29.2802   47.9875 H   0  0  0  0  0  0  0  0  0  0  0  0
   58.9440   27.9905   47.9875 H   0  0  0  0  0  0  0  0  0  0  0  0
   60.6690   31.4440   49.3740 C   0  0  0  0  0  0  0  0  0  0  0  0
   60.9079   30.3936   49.1513 H   0  0  0  0  0  0  0  0  0  0  0  0
   60.0590   31.4991   50.2877 H   0  0  0  0  0  0  0  0  0  0  0  0
   61.9720   32.2300   49.5850 C   0  0  0  0  0  0  0  0  0  0  0  0
   62.6448   32.0204   48.7404 H   0  0  0  0  0  0  0  0  0  0  0  0
   62.3927   31.9031   50.5474 H   0  0  0  0  0  0  0  0  0  0  0  0
   61.7740   33.7020   49.6740 N   0  0  0  0  0  0  0  0  0  0  0  0
   62.8460   34.4780   49.0120 C   0  0  0  0  0  0  0  0  0  0  0  0
   63.6697   34.6143   49.7282 H   0  0  0  0  0  0  0  0  0  0  0  0
   62.4041   35.4345   48.6961 H   0  0  0  0  0  0  0  0  0  0  0  0
   63.4050   33.8020   47.7520 C   0  0  0  0  0  0  0  0  0  0  0  0
   64.0809   32.9846   48.0436 H   0  0  0  0  0  0  0  0  0  0  0  0
   62.5752   33.3962   47.1548 H   0  0  0  0  0  0  0  0  0  0  0  0
   63.9595   34.5409   47.1548 H   0  0  0  0  0  0  0  0  0  0  0  0
   60.4080   34.2020   49.3910 C   0  0  0  0  0  0  0  0  0  0  0  0
   60.4687   35.2639   49.1104 H   0  0  0  0  0  0  0  0  0  0  0  0
   59.7999   34.0664   50.2976 H   0  0  0  0  0  0  0  0  0  0  0  0
   58.8450   28.2310   44.5940 C   0  0  0  0  0  0  0  0  0  0  0  0
   60.0350   28.4400   44.2360 O   0  0  0  0  0  0  0  0  0  0  0  0
  1  2  1  0
  2  3  2  0
  3  4  1  0
  3  5  1  0
  5  6  1  0
  5  7  2  0
  7  8  1  0
  8  9  2  0
  9 10  1  0
  8 11  1  0
 11 12  2  0
 11 13  1  0
 13 14  1  0
 14 15  1  0
 14 16  1  0
 14 17  1  0
 17 18  2  0
 18 19  1  0
 19 20  1  0
 20 21  3  0
 19 22  2  0
 22 23  1  0
 22 24  1  0
 24 25  2  0
 25 26  1  0
 26 27  1  0
 27 28  1  0
 27 29  1  0
 27 30  1  0
 30 31  1  0
 30 32  1  0
 30 33  1  0
 25 34  1  0
 34 35  1  0
 34 36  1  0
 34 37  1  0
 37 38  1  0
 37 39  1  0
 37 40  1  0
 40 41  1  0
 41 42  1  0
 41 43  1  0
 41 44  1  0
 44 45  1  0
 44 46  1  0
 44 47  1  0
 40 48  1  0
 48 49  1  0
 48 50  1  0
 13 51  1  0
 51 52  2  0
  9  2  1  0
 26 18  1  0
 51  7  1  0
 48 24  1  0
M  END
>  <UniqueID>  (31) 
29

>  <SMILES>  (31) 
CCN1CCc2c(cc(C#N)/c(=N/CN3C(=O)c4ccccc4C3=O)n2CC)C1

>  <Energy>  (31) 
123.2210488050984

>  <Genealogy>  (31) 
CCN1CCc2c(cc(C#N)/c(=N/CN3C(=O)c4ccccc4C3=O)n2CC)C1 (cis-trans isomerization)
CCN1CCc2c(cc(C#N)/c(=N/CN3C(=O)c4ccccc4C3=O)n2CC)C1 (3D coordinates assigned)
CCN1CCc2c(cc(C#N)/c(=N/CN3C(=O)c4ccccc4C3=O)n2CC)C1 (nonaromatic ring conformer: 123.2210488050984 kcal/mol)

>  <smiles>  (31) 
CCN1CCc2c(cc(C#N)c(=NCN3C(=O)c4ccccc4C3=O)n2CC)C1

>  <score_type>  (31) 
oracle

>  <origin>  (31) 
adg

>  <m_score__min__energy>  (31) 
-8.4700000000000006

>  <m_primary>  (31) 
energy

$$$$
31:0
     RDKit          3D

 48 51  0  0  0  0  0  0  0  0999 V2000
   54.9920   24.2730   45.3030 C   0  0  0  0  0  0  0  0  0  0  0  0
   56.0370   25.0900   45.9010 N   0  0  0  0  0  0  0  0  0  0  0  0
   57.3320   24.7470   46.0230 C   0  0  0  0  0  0  0  0  0  0  0  0
   58.0010   25.8120   46.5870 C   0  0  0  0  0  0  0  0  0  0  0  0
   59.4650   25.8870   46.9220 C   0  0  0  0  0  0  0  0  0  0  0  0
   60.0630   27.2080   46.6310 N   0  0  0  0  0  0  0  0  0  0  0  0
   59.9340   28.2060   47.7190 C   0  0  0  0  0  0  0  0  0  0  0  0
   58.7700   29.1980   47.5180 C   0  0  0  0  0  0  0  0  0  0  0  0
   58.6490   29.7260   46.0640 C   0  0  0  0  0  0  0  0  0  0  0  0
   58.5030   31.2000   45.9640 N   0  0  0  0  0  0  0  0  0  0  0  0
   57.3620   31.7310   45.2490 C   0  0  0  0  0  0  0  0  0  0  0  0
   56.6530   30.9850   44.5200 O   0  0  0  0  0  0  0  0  0  0  0  0
   57.0370   33.1960   45.3110 C   0  0  0  0  0  0  0  0  0  0  0  0
   57.5060   33.7930   46.6380 C   0  0  0  0  0  0  0  0  0  0  0  0
   58.9490   33.4520   46.8830 C   0  0  0  0  0  0  0  0  0  0  0  0
   59.8070   34.3930   47.4750 C   0  0  0  0  0  0  0  0  0  0  0  0
   61.1460   34.0740   47.7050 C   0  0  0  0  0  0  0  0  0  0  0  0
   61.6340   32.8170   47.3490 C   0  0  0  0  0  0  0  0  0  0  0  0
   60.7850   31.8690   46.7750 C   0  0  0  0  0  0  0  0  0  0  0  0
   59.4230   32.1610   46.5570 C   0  0  0  0  0  0  0  0  0  0  0  0
   59.7590   29.2070   45.1380 C   0  0  0  0  0  0  0  0  0  0  0  0
   59.8380   27.6820   45.2450 C   0  0  0  0  0  0  0  0  0  0  0  0
   57.0390   26.7910   46.7670 C   0  0  0  0  0  0  0  0  0  0  0  0
   55.8500   26.3280   46.3340 N   0  0  0  0  0  0  0  0  0  0  0  0
   54.3929   23.8046   46.0978 H   0  0  0  0  0  0  0  0  0  0  0  0
   54.3434   24.9059   44.6796 H   0  0  0  0  0  0  0  0  0  0  0  0
   55.4497   23.4908   44.6796 H   0  0  0  0  0  0  0  0  0  0  0  0
   57.7781   23.7866   45.7253 H   0  0  0  0  0  0  0  0  0  0  0  0
   59.5894   25.6756   47.9943 H   0  0  0  0  0  0  0  0  0  0  0  0
   59.9824   25.1484   46.2921 H   0  0  0  0  0  0  0  0  0  0  0  0
   59.7726   27.6688   48.6652 H   0  0  0  0  0  0  0  0  0  0  0  0
   60.8618   28.7969   47.7238 H   0  0  0  0  0  0  0  0  0  0  0  0
   57.8307   28.6906   47.7832 H   0  0  0  0  0  0  0  0  0  0  0  0
   58.9716   30.0671   48.1614 H   0  0  0  0  0  0  0  0  0  0  0  0
   57.7005   29.3011   45.7037 H   0  0  0  0  0  0  0  0  0  0  0  0
   57.5419   33.7142   44.4824 H   0  0  0  0  0  0  0  0  0  0  0  0
   55.9473   33.3223   45.2295 H   0  0  0  0  0  0  0  0  0  0  0  0
   57.3924   34.8866   46.6041 H   0  0  0  0  0  0  0  0  0  0  0  0
   56.8966   33.3756   47.4531 H   0  0  0  0  0  0  0  0  0  0  0  0
   59.4227   35.3840   47.7581 H   0  0  0  0  0  0  0  0  0  0  0  0
   61.8163   34.8138   48.1670 H   0  0  0  0  0  0  0  0  0  0  0  0
   62.6923   32.5715   47.5212 H   0  0  0  0  0  0  0  0  0  0  0  0
   61.1828   30.8839   46.4898 H   0  0  0  0  0  0  0  0  0  0  0  0
   59.5333   29.4909   44.0995 H   0  0  0  0  0  0  0  0  0  0  0  0
   60.7221   29.6469   45.4362 H   0  0  0  0  0  0  0  0  0  0  0  0
   58.8926   27.2557   44.8782 H   0  0  0  0  0  0  0  0  0  0  0  0
   60.6981   27.3547   44.6424 H   0  0  0  0  0  0  0  0  0  0  0  0
   57.2169   27.7884   47.1954 H   0  0  0  0  0  0  0  0  0  0  0  0
  1  2  1  0
  2  3  1  0
  3  4  2  0
  4  5  1  0
  5  6  1  0
  6  7  1  0
  7  8  1  0
  8  9  1  0
  9 10  1  0
 10 11  1  0
 11 12  2  0
 11 13  1  0
 13 14  1  0
 14 15  1  0
 15 16  2  0
 16 17  1  0
 17 18  2  0
 18 19  1  0
 19 20  2  0
  9 21  1  0
 21 22  1  0
  4 23  1  0
 23 24  2  0
 24  2  1  0
 22  6  1  0
 20 10  1  0
 20 15  1  0
  1 25  1  0
  1 26  1  0
  1 27  1  0
  3 28  1  0
  5 29  1  0
  5 30  1  0
  7 31  1  0
  7 32  1  0
  8 33  1  0
  8 34  1  0
  9 35  1  0
 13 36  1  0
 13 37  1  0
 14 38  1  0
 14 39  1  0
 16 40  1  0
 17 41  1  0
 18 42  1  0
 19 43  1  0
 21 44  1  0
 21 45  1  0
 22 46  1  0
 22 47  1  0
 23 48  1  0
M  END
>  <UniqueID>  (32) 
30

>  <SMILES>  (32) 
Cn1cc(CN2CCC(N3C(=O)CCc4ccccc43)CC2)cn1

>  <Energy>  (32) 
99.19162652165458

>  <Genealogy>  (32) 
Cn1cc(CN2CCC(N3C(=O)CCc4ccccc43)CC2)cn1 (3D coordinates assigned)
Cn1cc(CN2CCC(N3C(=O)CCc4ccccc43)CC2)cn1 (nonaromatic ring conformer: 99.19162652165458 kcal/mol)

>  <smiles>  (32) 
Cn1cc(CN2CCC(N3C(=O)CCc4ccccc43)CC2)cn1

>  <score_type>  (32) 
oracle

>  <origin>  (32) 
adg

>  <m_score__min__energy>  (32) 
-8.5

>  <m_primary>  (32) 
energy

$$$$
32:0
     RDKit          3D

 31 33  0  0  1  0  0  0  0  0999 V2000
   54.4820   25.9400   45.9790 O   0  0  0  0  0  0  0  0  0  0  0  0
   55.7110   25.6760   46.0010 C   0  0  0  0  0  0  0  0  0  0  0  0
   56.1440   24.4000   46.2220 N   0  0  0  0  0  0  0  0  0  0  0  0
   57.4740   24.1560   46.2390 C   0  0  0  0  0  0  0  0  0  0  0  0
   58.3840   25.1820   46.0370 C   0  0  0  0  0  0  0  0  0  0  0  0
   57.9830   26.4850   45.8100 C   0  0  0  0  0  0  0  0  0  0  0  0
   58.8850   27.5090   45.6080 C   0  0  0  0  0  0  0  0  0  0  0  0
   58.4070   28.7520   45.3940 N   0  0  0  0  0  0  0  0  0  0  0  0
   57.0690   28.9750   45.3800 C   0  0  0  0  0  0  0  0  0  0  0  0
   56.6520   30.1950   45.1690 N   0  0  0  0  0  0  0  0  0  0  0  0
   57.6610   31.2270   45.0180 C   0  0  0  0  0  0  0  0  0  0  0  0
   58.2330   31.2380   43.6190 C   0  0  0  0  0  0  0  0  0  0  0  0
   57.7490   32.5600   43.0400 C   0  0  0  0  0  0  0  0  0  0  0  0
   57.9220   33.4380   44.2870 C   0  0  0  0  0  0  0  0  0  0  0  0
   57.0640   32.6080   45.2500 C   0  0  0  0  0  0  0  0  0  0  0  0
   56.1790   27.9790   45.5780 N   0  0  0  0  0  0  0  0  0  0  0  0
   56.6060   26.7080   45.7970 C   0  0  0  0  0  0  0  0  0  0  0  0
   55.4870   23.6180   46.3770 H   0  0  0  0  0  0  0  0  0  0  0  0
   57.8375   23.1328   46.4149 H   0  0  0  0  0  0  0  0  0  0  0  0
   59.4594   24.9518   46.0580 H   0  0  0  0  0  0  0  0  0  0  0  0
   59.9679   27.3165   45.6211 H   0  0  0  0  0  0  0  0  0  0  0  0
   58.4441   31.0024   45.7571 H   0  0  0  0  0  0  0  0  0  0  0  0
   59.3321   31.2002   43.6446 H   0  0  0  0  0  0  0  0  0  0  0  0
   57.9153   30.3702   43.0224 H   0  0  0  0  0  0  0  0  0  0  0  0
   58.3779   32.9003   42.2041 H   0  0  0  0  0  0  0  0  0  0  0  0
   56.7392   32.5469   42.6039 H   0  0  0  0  0  0  0  0  0  0  0  0
   58.9713   33.5000   44.6111 H   0  0  0  0  0  0  0  0  0  0  0  0
   57.6400   34.4955   44.1769 H   0  0  0  0  0  0  0  0  0  0  0  0
   57.1882   32.9359   46.2926 H   0  0  0  0  0  0  0  0  0  0  0  0
   55.9795   32.6772   45.0793 H   0  0  0  0  0  0  0  0  0  0  0  0
   55.1480   28.1370   45.5690 H   0  0  0  0  0  0  0  0  0  0  0  0
  1  2  2  0
  2  3  1  0
  3  4  1  0
  4  5  2  0
  5  6  1  0
  6  7  1  0
  7  8  2  0
  8  9  1  0
  9 10  2  0
 10 11  1  0
 11 12  1  0
 12 13  1  0
 13 14  1  0
 14 15  1  0
  9 16  1  0
 16 17  1  0
 17  2  1  0
 17  6  2  0
 15 11  1  0
  3 18  1  0
  4 19  1  0
  5 20  1  0
  7 21  1  0
 11 22  1  0
 12 23  1  0
 12 24  1  0
 13 25  1  0
 13 26  1  0
 14 27  1  0
 14 28  1  0
 15 29  1  0
 15 30  1  0
 16 31  1  0
M  END
>  <smiles>  (33) 
O=c1[nH]ccc2cnc(=NC3CCCC3)[nH]c12

>  <score_type>  (33) 
oracle

>  <origin>  (33) 
adg

>  <m_score__min__energy>  (33) 
-6.96

>  <m_primary>  (33) 
energy

$$$$
33:0
     RDKit          3D

 53 55  0  0  0  0  0  0  0  0999 V2000
   59.6470   34.2150   48.9290 C   0  0  0  0  0  0  0  0  0  0  0  0
   60.3090   34.5460   47.5890 C   0  0  0  0  0  0  0  0  0  0  0  0
   60.7690   33.3330   46.8870 N   0  0  0  0  0  0  0  0  0  0  0  0
   62.1300   32.8200   47.1340 C   0  0  0  0  0  0  0  0  0  0  0  0
   63.2080   33.8160   46.7180 C   0  0  0  0  0  0  0  0  0  0  0  0
   59.7730   32.4340   46.3430 C   0  0  0  0  0  0  0  0  0  0  0  0
   59.9310   31.0400   46.4500 C   0  0  0  0  0  0  0  0  0  0  0  0
   58.9630   30.1710   45.9420 C   0  0  0  0  0  0  0  0  0  0  0  0
   57.8100   30.6740   45.3150 C   0  0  0  0  0  0  0  0  0  0  0  0
   56.7600   29.7680   44.7840 C   0  0  0  0  0  0  0  0  0  0  0  0
   55.6250   30.2520   44.5100 O   0  0  0  0  0  0  0  0  0  0  0  0
   56.9970   28.3460   44.6140 N   0  0  0  0  0  0  0  0  0  0  0  0
   57.3010   27.6970   45.9160 C   0  0  0  0  0  0  0  0  0  0  0  0
   58.0080   26.3330   45.7580 C   0  0  0  0  0  0  0  0  0  0  0  0
   57.8250   25.7960   44.4040 N   0  0  0  0  0  0  0  0  0  0  0  0
   57.4060   24.4310   44.1980 C   0  0  0  0  0  0  0  0  0  0  0  0
   56.6740   24.0780   43.0510 C   0  0  0  0  0  0  0  0  0  0  0  0
   56.2790   22.7540   42.8450 C   0  0  0  0  0  0  0  0  0  0  0  0
   56.6150   21.7670   43.7770 C   0  0  0  0  0  0  0  0  0  0  0  0
   57.3480   22.1060   44.9190 C   0  0  0  0  0  0  0  0  0  0  0  0
   57.7620   20.8720   46.0930 Cl  0  0  0  0  0  0  0  0  0  0  0  0
   57.7460   23.4320   45.1280 C   0  0  0  0  0  0  0  0  0  0  0  0
   58.1600   26.6450   43.2540 C   0  0  0  0  0  0  0  0  0  0  0  0
   58.0800   28.1320   43.6340 C   0  0  0  0  0  0  0  0  0  0  0  0
   57.6410   32.0650   45.2270 C   0  0  0  0  0  0  0  0  0  0  0  0
   58.6110   32.9340   45.7320 C   0  0  0  0  0  0  0  0  0  0  0  0
   60.3004   34.5417   49.7514 H   0  0  0  0  0  0  0  0  0  0  0  0
   58.6808   34.7360   48.9993 H   0  0  0  0  0  0  0  0  0  0  0  0
   59.4841   33.1294   48.9993 H   0  0  0  0  0  0  0  0  0  0  0  0
   59.5808   35.0703   46.9527 H   0  0  0  0  0  0  0  0  0  0  0  0
   61.1875   35.1768   47.7899 H   0  0  0  0  0  0  0  0  0  0  0  0
   62.2390   32.6087   48.2080 H   0  0  0  0  0  0  0  0  0  0  0  0
   62.2615   31.9099   46.5304 H   0  0  0  0  0  0  0  0  0  0  0  0
   63.6748   34.2473   47.6158 H   0  0  0  0  0  0  0  0  0  0  0  0
   63.9727   33.2998   46.1191 H   0  0  0  0  0  0  0  0  0  0  0  0
   62.7537   34.6191   46.1191 H   0  0  0  0  0  0  0  0  0  0  0  0
   60.8269   30.6301   46.9392 H   0  0  0  0  0  0  0  0  0  0  0  0
   59.1040   29.0839   46.0333 H   0  0  0  0  0  0  0  0  0  0  0  0
   56.1220   27.8990   44.2510 H   0  0  0  0  0  0  0  0  0  0  0  0
   57.9535   28.3652   46.4972 H   0  0  0  0  0  0  0  0  0  0  0  0
   56.3431   27.5149   46.4253 H   0  0  0  0  0  0  0  0  0  0  0  0
   59.0833   26.4613   45.9512 H   0  0  0  0  0  0  0  0  0  0  0  0
   57.5675   25.6261   46.4765 H   0  0  0  0  0  0  0  0  0  0  0  0
   56.4108   24.8486   42.3115 H   0  0  0  0  0  0  0  0  0  0  0  0
   55.7021   22.4871   41.9473 H   0  0  0  0  0  0  0  0  0  0  0  0
   56.3031   20.7251   43.6121 H   0  0  0  0  0  0  0  0  0  0  0  0
   58.3276   23.6939   46.0242 H   0  0  0  0  0  0  0  0  0  0  0  0
   59.1817   26.4125   42.9191 H   0  0  0  0  0  0  0  0  0  0  0  0
   57.4392   26.4473   42.4470 H   0  0  0  0  0  0  0  0  0  0  0  0
   59.0373   28.4472   44.0746 H   0  0  0  0  0  0  0  0  0  0  0  0
   57.8715   28.7244   42.7309 H   0  0  0  0  0  0  0  0  0  0  0  0
   56.7355   32.4746   44.7556 H   0  0  0  0  0  0  0  0  0  0  0  0
   58.4635   34.0210   45.6504 H   0  0  0  0  0  0  0  0  0  0  0  0
  1  2  1  0
  2  3  1  0
  3  4  1  0
  4  5  1  0
  3  6  1  0
  6  7  2  0
  7  8  1  0
  8  9  2  0
  9 10  1  0
 10 11  2  0
 10 12  1  0
 12 13  1  0
 13 14  1  0
 14 15  1  0
 15 16  1  0
 16 17  2  0
 17 18  1  0
 18 19  2  0
 19 20  1  0
 20 21  1  0
 20 22  2  0
 15 23  1  0
 23 24  1  0
  9 25  1  0
 25 26  2  0
 26  6  1  0
 24 12  1  0
 22 16  1  0
  1 27  1  0
  1 28  1  0
  1 29  1  0
  2 30  1  0
  2 31  1  0
  4 32  1  0
  4 33  1  0
  5 34  1  0
  5 35  1  0
  5 36  1  0
  7 37  1  0
  8 38  1  0
 12 39  1  0
 13 40  1  0
 13 41  1  0
 14 42  1  0
 14 43  1  0
 17 44  1  0
 18 45  1  0
 19 46  1  0
 22 47  1  0
 23 48  1  0
 23 49  1  0
 24 50  1  0
 24 51  1  0
 25 52  1  0
 26 53  1  0
M  CHG  1  12   1
M  END
>  <UniqueID>  (34) 
31

>  <SMILES>  (34) 
CCN(CC)c1ccc(C(=O)[NH+]2CCN(c3cccc(Cl)c3)CC2)cc1

>  <Energy>  (34) 
70.32629709203952

>  <Genealogy>  (34) 
CCN(CC)c1ccc(C(=O)[NH+]2CCN(c3cccc(Cl)c3)CC2)cc1 (protonated)
CCN(CC)c1ccc(C(=O)[NH+]2CCN(c3cccc(Cl)c3)CC2)cc1 (3D coordinates assigned)
CCN(CC)c1ccc(C(=O)[NH+]2CCN(c3cccc(Cl)c3)CC2)cc1 (nonaromatic ring conformer: 70.32629709203952 kcal/mol)

>  <smiles>  (34) 
CCN(CC)c1ccc(C(=O)N2CCN(c3cccc(Cl)c3)CC2)cc1

>  <score_type>  (34) 
oracle

>  <origin>  (34) 
adg

>  <m_score__min__energy>  (34) 
-6.4299999999999997

>  <m_primary>  (34) 
energy

$$$$
34:0
     RDKit          3D

 35 37  0  0  0  0  0  0  0  0999 V2000
   56.8583   20.9649   42.5688 H   0  0  0  0  0  0  0  0  0  0  0  0
   56.9810   21.8630   43.1920 C   0  0  0  0  0  0  0  0  0  0  0  0
   56.1510   22.9690   42.9950 C   0  0  0  0  0  0  0  0  0  0  0  0
   55.3703   22.9381   42.2206 H   0  0  0  0  0  0  0  0  0  0  0  0
   56.3100   24.1160   43.7800 C   0  0  0  0  0  0  0  0  0  0  0  0
   55.6464   24.9804   43.6299 H   0  0  0  0  0  0  0  0  0  0  0  0
   57.3180   24.1660   44.7620 C   0  0  0  0  0  0  0  0  0  0  0  0
   57.5020   25.3110   45.6070 N   0  0  0  0  0  0  0  0  0  0  0  0
   56.5720   26.3790   45.8200 C   0  0  0  0  0  0  0  0  0  0  0  0
   55.3530   26.1290   46.0220 O   0  0  0  0  0  0  0  0  0  0  0  0
   57.0130   27.7850   45.7480 C   0  0  0  0  0  0  0  0  0  0  0  0
   56.2430   28.9640   44.8170 S   0  0  0  0  0  0  0  0  0  0  0  0
   57.3100   30.1720   45.2770 C   0  0  0  0  0  0  0  0  0  0  0  0
   57.2040   31.4070   44.8890 N   0  0  0  0  0  0  0  0  0  0  0  0
   57.9800   32.5170   45.3700 C   0  0  0  0  0  0  0  0  0  0  0  0
   58.1150   33.6480   44.5570 C   0  0  0  0  0  0  0  0  0  0  0  0
   57.6195   33.6867   43.5757 H   0  0  0  0  0  0  0  0  0  0  0  0
   58.8820   34.7260   44.9990 C   0  0  0  0  0  0  0  0  0  0  0  0
   58.9820   35.6250   44.3731 H   0  0  0  0  0  0  0  0  0  0  0  0
   59.5220   34.6610   46.2370 C   0  0  0  0  0  0  0  0  0  0  0  0
   60.1213   35.5095   46.5988 H   0  0  0  0  0  0  0  0  0  0  0  0
   59.3930   33.5070   47.0110 C   0  0  0  0  0  0  0  0  0  0  0  0
   59.9011   33.4411   47.9844 H   0  0  0  0  0  0  0  0  0  0  0  0
   58.6410   32.4620   46.5670 N   0  0  0  0  0  0  0  0  0  0  0  0
   58.6130   31.5980   47.1510 H   0  0  0  0  0  0  0  0  0  0  0  0
   58.2430   29.7220   46.1430 N   0  0  0  0  0  0  0  0  0  0  0  0
   58.0920   28.3950   46.4080 C   0  0  0  0  0  0  0  0  0  0  0  0
   59.0280   27.6940   47.3430 C   0  0  0  0  0  0  0  0  0  0  0  0
   58.7388   27.9106   48.3820 H   0  0  0  0  0  0  0  0  0  0  0  0
   58.9780   26.6093   47.1670 H   0  0  0  0  0  0  0  0  0  0  0  0
   60.0548   28.0471   47.1670 H   0  0  0  0  0  0  0  0  0  0  0  0
   58.1290   23.0420   44.9680 C   0  0  0  0  0  0  0  0  0  0  0  0
   58.8982   23.0599   45.7541 H   0  0  0  0  0  0  0  0  0  0  0  0
   57.9670   21.8980   44.1810 C   0  0  0  0  0  0  0  0  0  0  0  0
   58.6165   21.0247   44.3406 H   0  0  0  0  0  0  0  0  0  0  0  0
  1  2  1  0
  2  3  2  0
  3  4  1  0
  3  5  1  0
  5  6  1  0
  5  7  2  0
  7  8  1  0
  8  9  1  0
  9 10  2  0
  9 11  1  0
 11 12  1  0
 12 13  1  0
 13 14  2  0
 14 15  1  0
 15 16  2  0
 16 17  1  0
 16 18  1  0
 18 19  1  0
 18 20  2  0
 20 21  1  0
 20 22  1  0
 22 23  1  0
 22 24  2  0
 24 25  1  0
 13 26  1  0
 26 27  1  0
 27 28  1  0
 28 29  1  0
 28 30  1  0
 28 31  1  0
  7 32  1  0
 32 33  1  0
 32 34  2  0
 34 35  1  0
 34  2  1  0
 27 11  2  0
 24 15  1  0
M  CHG  3   8  -1  24   1  26  -1
M  END
>  <UniqueID>  (35) 
32

>  <SMILES>  (35) 
Cc1[n-]/c(=N\c2cccc[nH+]2)sc1C(=O)[N-]c1ccccc1

>  <Energy>  (35) 
75.90780055018648

>  <Genealogy>  (35) 
Cc1[n-]c(=Nc2cccc[nH+]2)sc1C(=O)[N-]c1ccccc1 (protonated)
Cc1[n-]/c(=N\c2cccc[nH+]2)sc1C(=O)[N-]c1ccccc1 (cis-trans isomerization)
Cc1[n-]/c(=N\c2cccc[nH+]2)sc1C(=O)[N-]c1ccccc1 (3D coordinates assigned)
Cc1[n-]/c(=N\c2cccc[nH+]2)sc1C(=O)[N-]c1ccccc1 (optimized conformer: 75.90780055018648 kcal/mol)

>  <smiles>  (35) 
Cc1[nH]c(=Nc2ccccn2)sc1C(=O)Nc1ccccc1

>  <score_type>  (35) 
oracle

>  <origin>  (35) 
adg

>  <m_score__min__energy>  (35) 
-9.4299999999999997

>  <m_primary>  (35) 
energy

$$$$
35:0
     RDKit          3D

 48 51  0  0  0  0  0  0  0  0999 V2000
   57.1540   23.7880   43.8450 C   0  0  0  0  0  0  0  0  0  0  0  0
   58.0050   24.6220   44.6270 O   0  0  0  0  0  0  0  0  0  0  0  0
   57.8900   26.0170   44.7090 C   0  0  0  0  0  0  0  0  0  0  0  0
   58.1480   26.8630   43.6150 C   0  0  0  0  0  0  0  0  0  0  0  0
   58.0160   28.2470   43.7470 C   0  0  0  0  0  0  0  0  0  0  0  0
   57.6220   28.8150   44.9710 C   0  0  0  0  0  0  0  0  0  0  0  0
   57.4690   30.2840   45.1100 C   0  0  0  0  0  0  0  0  0  0  0  0
   56.4830   30.9330   44.5910 N   0  0  0  0  0  0  0  0  0  0  0  0
   56.6030   32.2690   44.8730 O   0  0  0  0  0  0  0  0  0  0  0  0
   57.7790   32.5810   45.6070 C   0  0  0  0  0  0  0  0  0  0  0  0
   58.6960   33.4870   44.7360 C   0  0  0  0  0  0  0  0  0  0  0  0
   59.6010   34.4150   45.5690 C   0  0  0  0  0  0  0  0  0  0  0  0
   59.8170   33.8650   46.9120 N   0  0  0  0  0  0  0  0  0  0  0  0
   61.1080   33.3400   47.2810 C   0  0  0  0  0  0  0  0  0  0  0  0
   61.8410   32.8210   46.3940 O   0  0  0  0  0  0  0  0  0  0  0  0
   61.5840   33.3740   48.6810 C   0  0  0  0  0  0  0  0  0  0  0  0
   60.9890   32.5460   49.6500 C   0  0  0  0  0  0  0  0  0  0  0  0
   61.4430   32.5670   50.9720 C   0  0  0  0  0  0  0  0  0  0  0  0
   62.5000   33.4050   51.3360 C   0  0  0  0  0  0  0  0  0  0  0  0
   63.1080   34.2180   50.3780 C   0  0  0  0  0  0  0  0  0  0  0  0
   62.6570   34.2020   49.0540 C   0  0  0  0  0  0  0  0  0  0  0  0
   58.6420   33.6240   47.7670 C   0  0  0  0  0  0  0  0  0  0  0  0
   57.3960   33.2920   46.9220 C   0  0  0  0  0  0  0  0  0  0  0  0
   58.4010   31.1800   45.8600 C   0  0  0  0  0  0  0  0  0  0  0  0
   57.3680   27.9650   46.0620 C   0  0  0  0  0  0  0  0  0  0  0  0
   57.5020   26.5810   45.9280 C   0  0  0  0  0  0  0  0  0  0  0  0
   56.5287   23.1752   44.5109 H   0  0  0  0  0  0  0  0  0  0  0  0
   56.5096   24.4140   43.2103 H   0  0  0  0  0  0  0  0  0  0  0  0
   57.7669   23.1311   43.2103 H   0  0  0  0  0  0  0  0  0  0  0  0
   58.4553   26.4322   42.6507 H   0  0  0  0  0  0  0  0  0  0  0  0
   58.2223   28.8987   42.8852 H   0  0  0  0  0  0  0  0  0  0  0  0
   59.3344   32.8427   44.1137 H   0  0  0  0  0  0  0  0  0  0  0  0
   58.0400   34.1288   44.1295 H   0  0  0  0  0  0  0  0  0  0  0  0
   60.5717   34.5215   45.0626 H   0  0  0  0  0  0  0  0  0  0  0  0
   59.1090   35.3942   45.6643 H   0  0  0  0  0  0  0  0  0  0  0  0
   60.1621   31.8785   49.3660 H   0  0  0  0  0  0  0  0  0  0  0  0
   60.9675   31.9230   51.7265 H   0  0  0  0  0  0  0  0  0  0  0  0
   62.8531   33.4241   52.3776 H   0  0  0  0  0  0  0  0  0  0  0  0
   63.9439   34.8729   50.6650 H   0  0  0  0  0  0  0  0  0  0  0  0
   63.1439   34.8399   48.3017 H   0  0  0  0  0  0  0  0  0  0  0  0
   58.8547   32.7799   48.4395 H   0  0  0  0  0  0  0  0  0  0  0  0
   58.4379   34.5380   48.3441 H   0  0  0  0  0  0  0  0  0  0  0  0
   56.7337   32.6345   47.5043 H   0  0  0  0  0  0  0  0  0  0  0  0
   56.8880   34.2346   46.6700 H   0  0  0  0  0  0  0  0  0  0  0  0
   59.4234   31.1186   45.4587 H   0  0  0  0  0  0  0  0  0  0  0  0
   58.4988   30.9249   46.9255 H   0  0  0  0  0  0  0  0  0  0  0  0
   57.0616   28.3930   47.0279 H   0  0  0  0  0  0  0  0  0  0  0  0
   57.3002   25.9284   46.7902 H   0  0  0  0  0  0  0  0  0  0  0  0
  1  2  1  0
  2  3  1  0
  3  4  2  0
  4  5  1  0
  5  6  2  0
  6  7  1  0
  7  8  2  0
  8  9  1  0
  9 10  1  0
 10 11  1  0
 11 12  1  0
 12 13  1  0
 13 14  1  0
 14 15  2  0
 14 16  1  0
 16 17  2  0
 17 18  1  0
 18 19  2  0
 19 20  1  0
 20 21  2  0
 13 22  1  0
 22 23  1  0
 10 24  1  0
  6 25  1  0
 25 26  2  0
 26  3  1  0
 24  7  1  0
 23 10  1  0
 21 16  1  0
  1 27  1  0
  1 28  1  0
  1 29  1  0
  4 30  1  0
  5 31  1  0
 11 32  1  0
 11 33  1  0
 12 34  1  0
 12 35  1  0
 17 36  1  0
 18 37  1  0
 19 38  1  0
 20 39  1  0
 21 40  1  0
 22 41  1  0
 22 42  1  0
 23 43  1  0
 23 44  1  0
 24 45  1  0
 24 46  1  0
 25 47  1  0
 26 48  1  0
M  END
>  <UniqueID>  (36) 
33

>  <SMILES>  (36) 
COc1ccc(C2=NOC3(CCN(C(=O)c4ccccc4)CC3)C2)cc1

>  <Energy>  (36) 
73.82086454151904

>  <Genealogy>  (36) 
COc1ccc(C2=NOC3(CCN(C(=O)c4ccccc4)CC3)C2)cc1 (3D coordinates assigned)
COc1ccc(C2=NOC3(CCN(C(=O)c4ccccc4)CC3)C2)cc1 (nonaromatic ring conformer: 73.82086454151904 kcal/mol)

>  <smiles>  (36) 
COc1ccc(C2=NOC3(CCN(C(=O)c4ccccc4)CC3)C2)cc1

>  <score_type>  (36) 
oracle

>  <origin>  (36) 
adg

>  <m_score__min__energy>  (36) 
-8.7100000000000009

>  <m_primary>  (36) 
energy

$$$$
36:0
     RDKit          3D

 56 59  0  0  0  0  0  0  0  0999 V2000
   59.2440   22.1940   44.4950 C   0  0  0  0  0  0  0  0  0  0  0  0
   58.2040   21.8350   45.5560 C   0  0  0  0  0  0  0  0  0  0  0  0
   56.8340   21.8960   45.0200 N   0  0  0  0  0  0  0  0  0  0  0  0
   55.9250   20.7570   45.2120 C   0  0  0  0  0  0  0  0  0  0  0  0
   56.6750   19.5810   45.8270 C   0  0  0  0  0  0  0  0  0  0  0  0
   56.4840   22.9170   44.0630 C   0  0  0  0  0  0  0  0  0  0  0  0
   55.8670   22.5980   43.0090 O   0  0  0  0  0  0  0  0  0  0  0  0
   56.8310   24.3370   44.2870 C   0  0  0  0  0  0  0  0  0  0  0  0
   57.4520   25.0870   43.2790 C   0  0  0  0  0  0  0  0  0  0  0  0
   57.7830   26.4270   43.4950 C   0  0  0  0  0  0  0  0  0  0  0  0
   57.5090   27.0410   44.7300 C   0  0  0  0  0  0  0  0  0  0  0  0
   57.8610   28.4660   44.9600 C   0  0  0  0  0  0  0  0  0  0  0  0
   57.0480   29.4970   44.4580 C   0  0  0  0  0  0  0  0  0  0  0  0
   57.3710   30.8030   44.6690 N   0  0  0  0  0  0  0  0  0  0  0  0
   58.4880   31.1570   45.3720 C   0  0  0  0  0  0  0  0  0  0  0  0
   58.8420   32.4990   45.6060 C   0  0  0  0  0  0  0  0  0  0  0  0
   57.8540   33.8720   45.0000 S   0  0  0  0  0  0  0  0  0  0  0  0
   59.2290   35.0590   45.1100 C   0  0  0  0  0  0  0  0  0  0  0  0
   59.9700   32.7790   46.3090 N   0  0  0  0  0  0  0  0  0  0  0  0
   60.7730   31.7980   46.8030 C   0  0  0  0  0  0  0  0  0  0  0  0
   61.9960   32.1440   47.5690 C   0  0  0  0  0  0  0  0  0  0  0  0
   62.2900   31.4950   48.7850 C   0  0  0  0  0  0  0  0  0  0  0  0
   63.4430   31.8250   49.5040 C   0  0  0  0  0  0  0  0  0  0  0  0
   64.3140   32.8030   49.0220 C   0  0  0  0  0  0  0  0  0  0  0  0
   64.0350   33.4540   47.8190 C   0  0  0  0  0  0  0  0  0  0  0  0
   62.8840   33.1290   47.0950 C   0  0  0  0  0  0  0  0  0  0  0  0
   60.4440   30.4960   46.5890 N   0  0  0  0  0  0  0  0  0  0  0  0
   59.3290   30.1560   45.8910 C   0  0  0  0  0  0  0  0  0  0  0  0
   59.0120   28.8130   45.6840 C   0  0  0  0  0  0  0  0  0  0  0  0
   56.9030   26.2800   45.7460 C   0  0  0  0  0  0  0  0  0  0  0  0
   56.5730   24.9390   45.5280 C   0  0  0  0  0  0  0  0  0  0  0  0
   60.1740   22.5150   44.9870 H   0  0  0  0  0  0  0  0  0  0  0  0
   59.4463   21.3137   43.8672 H   0  0  0  0  0  0  0  0  0  0  0  0
   58.8602   23.0117   43.8672 H   0  0  0  0  0  0  0  0  0  0  0  0
   58.4004   20.8145   45.9164 H   0  0  0  0  0  0  0  0  0  0  0  0
   58.2841   22.5652   46.3748 H   0  0  0  0  0  0  0  0  0  0  0  0
   55.1054   21.0555   45.8822 H   0  0  0  0  0  0  0  0  0  0  0  0
   55.5205   20.4528   44.2354 H   0  0  0  0  0  0  0  0  0  0  0  0
   56.6304   19.6509   46.9239 H   0  0  0  0  0  0  0  0  0  0  0  0
   56.2106   18.6388   45.5005 H   0  0  0  0  0  0  0  0  0  0  0  0
   57.7251   19.6047   45.5005 H   0  0  0  0  0  0  0  0  0  0  0  0
   57.6804   24.6173   42.3109 H   0  0  0  0  0  0  0  0  0  0  0  0
   58.2620   27.0067   42.6922 H   0  0  0  0  0  0  0  0  0  0  0  0
   56.1410   29.2461   43.8885 H   0  0  0  0  0  0  0  0  0  0  0  0
   56.7290   31.5270   44.2770 H   0  0  0  0  0  0  0  0  0  0  0  0
   59.4586   35.2572   46.1674 H   0  0  0  0  0  0  0  0  0  0  0  0
   60.1167   34.6388   44.6146 H   0  0  0  0  0  0  0  0  0  0  0  0
   58.9429   35.9985   44.6146 H   0  0  0  0  0  0  0  0  0  0  0  0
   61.6077   30.7235   49.1712 H   0  0  0  0  0  0  0  0  0  0  0  0
   63.6640   31.3124   50.4519 H   0  0  0  0  0  0  0  0  0  0  0  0
   65.2201   33.0609   49.5898 H   0  0  0  0  0  0  0  0  0  0  0  0
   64.7224   34.2245   47.4398 H   0  0  0  0  0  0  0  0  0  0  0  0
   62.6704   33.6465   46.1481 H   0  0  0  0  0  0  0  0  0  0  0  0
   59.6649   28.0256   46.0887 H   0  0  0  0  0  0  0  0  0  0  0  0
   56.6870   26.7437   46.7198 H   0  0  0  0  0  0  0  0  0  0  0  0
   56.1083   24.3523   46.3342 H   0  0  0  0  0  0  0  0  0  0  0  0
  1  2  1  0
  2  3  1  0
  3  4  1  0
  4  5  1  0
  3  6  1  0
  6  7  2  0
  6  8  1  0
  8  9  2  0
  9 10  1  0
 10 11  2  0
 11 12  1  0
 12 13  2  0
 13 14  1  0
 14 15  2  0
 15 16  1  0
 16 17  1  0
 17 18  1  0
 16 19  2  0
 19 20  1  0
 20 21  1  0
 21 22  2  0
 22 23  1  0
 23 24  2  0
 24 25  1  0
 25 26  2  0
 20 27  2  0
 27 28  1  0
 28 29  2  0
 11 30  1  0
 30 31  2  0
 31  8  1  0
 29 12  1  0
 28 15  1  0
 26 21  1  0
  1 32  1  0
  1 33  1  0
  1 34  1  0
  2 35  1  0
  2 36  1  0
  4 37  1  0
  4 38  1  0
  5 39  1  0
  5 40  1  0
  5 41  1  0
  9 42  1  0
 10 43  1  0
 13 44  1  0
 14 45  1  0
 18 46  1  0
 18 47  1  0
 18 48  1  0
 22 49  1  0
 23 50  1  0
 24 51  1  0
 25 52  1  0
 26 53  1  0
 29 54  1  0
 30 55  1  0
 31 56  1  0
M  CHG  1  14   1
M  END
>  <UniqueID>  (37) 
34

>  <SMILES>  (37) 
CCN(CC)C(=O)c1ccc(-c2c[nH+]c3c(SC)nc(-c4ccccc4)nc3c2)cc1

>  <Energy>  (37) 
66.36016234517993

>  <Genealogy>  (37) 
CCN(CC)C(=O)c1ccc(-c2c[nH+]c3c(SC)nc(-c4ccccc4)nc3c2)cc1 (protonated)
CCN(CC)C(=O)c1ccc(-c2c[nH+]c3c(SC)nc(-c4ccccc4)nc3c2)cc1 (3D coordinates assigned)
CCN(CC)C(=O)c1ccc(-c2c[nH+]c3c(SC)nc(-c4ccccc4)nc3c2)cc1 (optimized conformer: 66.36016234517993 kcal/mol)

>  <smiles>  (37) 
CCN(CC)C(=O)c1ccc(-c2cnc3c(SC)nc(-c4ccccc4)nc3c2)cc1

>  <score_type>  (37) 
oracle

>  <origin>  (37) 
adg

>  <m_score__min__energy>  (37) 
-7.0800000000000001

>  <m_primary>  (37) 
energy

$$$$
37:0
     RDKit          3D

 23 24  0  0  0  0  0  0  0  0999 V2000
   57.9150   33.8300   46.4570 C   0  0  0  0  0  0  0  0  0  0  0  0
   58.1440   34.1790   44.9900 C   0  0  0  0  0  0  0  0  0  0  0  0
   57.5400   33.2070   44.1410 O   0  0  0  0  0  0  0  0  0  0  0  0
   57.5050   31.8440   44.4430 C   0  0  0  0  0  0  0  0  0  0  0  0
   58.6700   31.1840   44.6740 N   0  0  0  0  0  0  0  0  0  0  0  0
   58.6670   29.8600   44.9670 C   0  0  0  0  0  0  0  0  0  0  0  0
   59.8700   29.1860   45.2050 C   0  0  0  0  0  0  0  0  0  0  0  0
   59.8590   27.8210   45.5080 C   0  0  0  0  0  0  0  0  0  0  0  0
   58.6470   27.1240   45.5730 C   0  0  0  0  0  0  0  0  0  0  0  0
   58.6410   25.2600   45.9870 Br  0  0  0  0  0  0  0  0  0  0  0  0
   57.4390   27.7910   45.3360 C   0  0  0  0  0  0  0  0  0  0  0  0
   57.4440   29.1640   45.0310 C   0  0  0  0  0  0  0  0  0  0  0  0
   56.2720   29.8940   44.7820 C   0  0  0  0  0  0  0  0  0  0  0  0
   55.1430   29.3370   44.8210 O   0  0  0  0  0  0  0  0  0  0  0  0
   56.3450   31.1910   44.5000 O   0  0  0  0  0  0  0  0  0  0  0  0
   58.4072   34.5801   47.0935 H   0  0  0  0  0  0  0  0  0  0  0  0
   56.8354   33.8218   46.6678 H   0  0  0  0  0  0  0  0  0  0  0  0
   58.3373   32.8364   46.6678 H   0  0  0  0  0  0  0  0  0  0  0  0
   57.7038   35.1650   44.7804 H   0  0  0  0  0  0  0  0  0  0  0  0
   59.2265   34.1952   44.7951 H   0  0  0  0  0  0  0  0  0  0  0  0
   60.8246   29.7302   45.1537 H   0  0  0  0  0  0  0  0  0  0  0  0
   60.8057   27.2934   45.6958 H   0  0  0  0  0  0  0  0  0  0  0  0
   56.4873   27.2419   45.3883 H   0  0  0  0  0  0  0  0  0  0  0  0
  1  2  1  0
  2  3  1  0
  3  4  1  0
  4  5  2  0
  5  6  1  0
  6  7  2  0
  7  8  1  0
  8  9  2  0
  9 10  1  0
  9 11  1  0
 11 12  2  0
 12 13  1  0
 13 14  2  0
 13 15  1  0
 15  4  1  0
 12  6  1  0
  1 16  1  0
  1 17  1  0
  1 18  1  0
  2 19  1  0
  2 20  1  0
  7 21  1  0
  8 22  1  0
 11 23  1  0
M  END
>  <UniqueID>  (38) 
35

>  <SMILES>  (38) 
CCOc1nc2ccc(Br)cc2c(=O)o1

>  <Energy>  (38) 
24.120195047245346

>  <Genealogy>  (38) 
CCOc1nc2ccc(Br)cc2c(=O)o1 (3D coordinates assigned)
CCOc1nc2ccc(Br)cc2c(=O)o1 (optimized conformer: 24.120195047245346 kcal/mol)

>  <smiles>  (38) 
CCOc1nc2ccc(Br)cc2c(=O)o1

>  <score_type>  (38) 
oracle

>  <origin>  (38) 
adg

>  <m_score__min__energy>  (38) 
-5.96

>  <m_primary>  (38) 
energy

$$$$
38:0
     RDKit          3D

 44 46  0  0  0  0  0  0  0  0999 V2000
   57.0170   31.0670   42.7190 C   0  0  0  0  0  0  0  0  0  0  0  0
   56.5830   30.5020   44.0360 C   0  0  0  0  0  0  0  0  0  0  0  0
   57.2610   31.1320   45.1740 N   0  0  0  0  0  0  0  0  0  0  0  0
   57.9960   30.1500   45.8680 C   0  0  0  0  0  0  0  0  0  0  0  0
   59.3820   30.5060   46.2910 C   0  0  0  0  0  0  0  0  0  0  0  0
   57.9080   32.3240   44.7430 C   0  0  0  0  0  0  0  0  0  0  0  0
   57.4110   33.6060   45.2900 C   0  0  0  0  0  0  0  0  0  0  0  0
   58.3460   34.4300   45.8400 O   0  0  0  0  0  0  0  0  0  0  0  0
   59.5060   34.2150   46.5080 C   0  0  0  0  0  0  0  0  0  0  0  0
   60.7090   33.8340   45.9730 C   0  0  0  0  0  0  0  0  0  0  0  0
   61.8430   33.6390   46.7260 C   0  0  0  0  0  0  0  0  0  0  0  0
   61.8370   33.8180   48.1010 C   0  0  0  0  0  0  0  0  0  0  0  0
   63.0550   33.6060   48.8720 C   0  0  0  0  0  0  0  0  0  0  0  0
   63.1750   33.9460   50.1800 N   0  0  0  0  0  0  0  0  0  0  0  0
   64.4030   33.6230   50.5880 C   0  0  0  0  0  0  0  0  0  0  0  0
   64.9580   33.7780   51.8070 N   0  0  0  0  0  0  0  0  0  0  0  0
   66.2510   33.3670   52.0010 C   0  0  0  0  0  0  0  0  0  0  0  0
   66.9630   32.8170   50.9910 N   0  0  0  0  0  0  0  0  0  0  0  0
   66.3820   32.6700   49.7680 C   0  0  0  0  0  0  0  0  0  0  0  0
   65.0820   33.0700   49.5320 C   0  0  0  0  0  0  0  0  0  0  0  0
   64.2340   33.0710   48.4910 N   0  0  0  0  0  0  0  0  0  0  0  0
   60.6380   34.2010   48.6600 C   0  0  0  0  0  0  0  0  0  0  0  0
   59.4860   34.3990   47.8990 C   0  0  0  0  0  0  0  0  0  0  0  0
   57.6789   31.9287   42.8900 H   0  0  0  0  0  0  0  0  0  0  0  0
   57.5577   30.2965   42.1498 H   0  0  0  0  0  0  0  0  0  0  0  0
   56.1332   31.3908   42.1498 H   0  0  0  0  0  0  0  0  0  0  0  0
   55.4990   30.6543   44.1441 H   0  0  0  0  0  0  0  0  0  0  0  0
   56.8467   29.4341   44.0422 H   0  0  0  0  0  0  0  0  0  0  0  0
   57.4294   29.8923   46.7749 H   0  0  0  0  0  0  0  0  0  0  0  0
   58.1223   29.3288   45.1470 H   0  0  0  0  0  0  0  0  0  0  0  0
   59.4378   30.5203   47.3895 H   0  0  0  0  0  0  0  0  0  0  0  0
   60.0884   29.7601   45.8977 H   0  0  0  0  0  0  0  0  0  0  0  0
   59.6415   31.5000   45.8977 H   0  0  0  0  0  0  0  0  0  0  0  0
   58.9705   32.2393   45.0150 H   0  0  0  0  0  0  0  0  0  0  0  0
   57.7022   32.3806   43.6639 H   0  0  0  0  0  0  0  0  0  0  0  0
   56.9224   34.1533   44.4704 H   0  0  0  0  0  0  0  0  0  0  0  0
   56.7390   33.3316   46.1165 H   0  0  0  0  0  0  0  0  0  0  0  0
   60.7705   33.6762   44.8861 H   0  0  0  0  0  0  0  0  0  0  0  0
   62.7748   33.3345   46.2269 H   0  0  0  0  0  0  0  0  0  0  0  0
   66.7157   33.4860   52.9909 H   0  0  0  0  0  0  0  0  0  0  0  0
   66.9627   32.2217   48.9484 H   0  0  0  0  0  0  0  0  0  0  0  0
   64.4600   32.7080   47.5320 H   0  0  0  0  0  0  0  0  0  0  0  0
   60.5870   34.3566   49.7477 H   0  0  0  0  0  0  0  0  0  0  0  0
   58.5520   34.7026   48.3944 H   0  0  0  0  0  0  0  0  0  0  0  0
  1  2  1  0
  2  3  1  0
  3  4  1  0
  4  5  1  0
  3  6  1  0
  6  7  1  0
  7  8  1  0
  8  9  1  0
  9 10  2  0
 10 11  1  0
 11 12  2  0
 12 13  1  0
 13 14  2  0
 14 15  1  0
 15 16  2  0
 16 17  1  0
 17 18  2  0
 18 19  1  0
 19 20  2  0
 20 21  1  0
 12 22  1  0
 22 23  2  0
 23  9  1  0
 21 13  1  0
 20 15  1  0
  1 24  1  0
  1 25  1  0
  1 26  1  0
  2 27  1  0
  2 28  1  0
  4 29  1  0
  4 30  1  0
  5 31  1  0
  5 32  1  0
  5 33  1  0
  6 34  1  0
  6 35  1  0
  7 36  1  0
  7 37  1  0
 10 38  1  0
 11 39  1  0
 17 40  1  0
 19 41  1  0
 21 42  1  0
 22 43  1  0
 23 44  1  0
M  END
>  <smiles>  (39) 
CCN(CC)CCOc1ccc(-c2nc3ncncc3[nH]2)cc1

>  <score_type>  (39) 
oracle

>  <origin>  (39) 
adg

>  <m_score__min__energy>  (39) 
-6.6100000000000003

>  <m_primary>  (39) 
energy

$$$$
39:0
     RDKit          3D

 47 49  0  0  0  0  0  0  0  0999 V2000
   65.0940   32.4220   49.7520 C   0  0  0  0  0  0  0  0  0  0  0  0
   63.7960   32.8950   49.0870 C   0  0  0  0  0  0  0  0  0  0  0  0
   63.6440   32.3720   47.7050 N   0  0  2  0  0  0  0  0  0  0  0  0
   63.3850   33.4520   46.7320 C   0  0  0  0  0  0  0  0  0  0  0  0
   62.6390   31.2770   47.6120 C   0  0  0  0  0  0  0  0  0  0  0  0
   61.2050   31.6240   48.0830 C   0  0  0  0  0  0  0  0  0  0  0  0
   60.2280   31.7970   46.9560 C   0  0  0  0  0  0  0  0  0  0  0  0
   59.5140   30.7850   46.3200 C   0  0  0  0  0  0  0  0  0  0  0  0
   58.6870   31.3150   45.3920 N   0  0  0  0  0  0  0  0  0  0  0  0
   57.5100   30.4450   44.4630 S   0  0  0  0  0  0  0  0  0  0  0  0
   57.7080   30.7180   42.9980 O   0  0  0  0  0  0  0  0  0  0  0  0
   56.1330   30.9000   44.8620 O   0  0  0  0  0  0  0  0  0  0  0  0
   57.7160   28.7230   44.7640 C   0  0  0  0  0  0  0  0  0  0  0  0
   57.5630   28.2270   46.0660 C   0  0  0  0  0  0  0  0  0  0  0  0
   57.6950   26.8570   46.3160 C   0  0  0  0  0  0  0  0  0  0  0  0
   57.9830   25.9770   45.2670 C   0  0  0  0  0  0  0  0  0  0  0  0
   58.1580   24.1060   45.6090 Br  0  0  0  0  0  0  0  0  0  0  0  0
   58.1400   26.4700   43.9670 C   0  0  0  0  0  0  0  0  0  0  0  0
   58.0070   27.8390   43.7130 C   0  0  0  0  0  0  0  0  0  0  0  0
   58.8720   32.6490   45.4220 C   0  0  0  0  0  0  0  0  0  0  0  0
   58.2170   33.6270   44.6690 C   0  0  0  0  0  0  0  0  0  0  0  0
   58.5620   34.9720   44.8910 C   0  0  0  0  0  0  0  0  0  0  0  0
   59.5360   35.3100   45.8540 C   0  0  0  0  0  0  0  0  0  0  0  0
   60.1750   34.3080   46.6060 C   0  0  0  0  0  0  0  0  0  0  0  0
   59.8180   32.9800   46.3620 C   0  0  0  0  0  0  0  0  0  0  0  0
   64.9818   32.4629   50.8455 H   0  0  0  0  0  0  0  0  0  0  0  0
   65.3082   31.3880   49.4438 H   0  0  0  0  0  0  0  0  0  0  0  0
   65.9232   33.0757   49.4438 H   0  0  0  0  0  0  0  0  0  0  0  0
   62.9438   32.5500   49.6909 H   0  0  0  0  0  0  0  0  0  0  0  0
   63.8304   33.9929   49.0280 H   0  0  0  0  0  0  0  0  0  0  0  0
   64.5540   31.9330   47.4290 H   0  0  0  0  0  0  0  0  0  0  0  0
   63.1613   34.3848   47.2704 H   0  0  0  0  0  0  0  0  0  0  0  0
   64.2737   33.5974   46.1003 H   0  0  0  0  0  0  0  0  0  0  0  0
   62.5270   33.1785   46.1003 H   0  0  0  0  0  0  0  0  0  0  0  0
   62.5800   30.9640   46.5591 H   0  0  0  0  0  0  0  0  0  0  0  0
   62.9929   30.4933   48.2979 H   0  0  0  0  0  0  0  0  0  0  0  0
   60.8463   30.8121   48.7328 H   0  0  0  0  0  0  0  0  0  0  0  0
   61.2629   32.5874   48.6108 H   0  0  0  0  0  0  0  0  0  0  0  0
   59.6091   29.7115   46.5406 H   0  0  0  0  0  0  0  0  0  0  0  0
   57.3386   28.9166   46.8931 H   0  0  0  0  0  0  0  0  0  0  0  0
   57.5722   26.4710   47.3387 H   0  0  0  0  0  0  0  0  0  0  0  0
   58.3687   25.7789   43.1423 H   0  0  0  0  0  0  0  0  0  0  0  0
   58.1304   28.2230   42.6896 H   0  0  0  0  0  0  0  0  0  0  0  0
   57.4545   33.3530   43.9250 H   0  0  0  0  0  0  0  0  0  0  0  0
   58.0693   35.7656   44.3101 H   0  0  0  0  0  0  0  0  0  0  0  0
   59.7977   36.3657   46.0180 H   0  0  0  0  0  0  0  0  0  0  0  0
   60.9321   34.5622   47.3625 H   0  0  0  0  0  0  0  0  0  0  0  0
  1  2  1  0
  2  3  1  0
  3  4  1  0
  3  5  1  0
  5  6  1  0
  6  7  1  0
  7  8  2  0
  8  9  1  0
  9 10  1  0
 10 11  2  0
 10 12  2  0
 10 13  1  0
 13 14  2  0
 14 15  1  0
 15 16  2  0
 16 17  1  0
 16 18  1  0
 18 19  2  0
  9 20  1  0
 20 21  2  0
 21 22  1  0
 22 23  2  0
 23 24  1  0
 24 25  2  0
 25  7  1  0
 19 13  1  0
 25 20  1  0
  1 26  1  0
  1 27  1  0
  1 28  1  0
  2 29  1  0
  2 30  1  0
  3 31  1  6
  4 32  1  0
  4 33  1  0
  4 34  1  0
  5 35  1  0
  5 36  1  0
  6 37  1  0
  6 38  1  0
  8 39  1  0
 14 40  1  0
 15 41  1  0
 18 42  1  0
 19 43  1  0
 21 44  1  0
 22 45  1  0
 23 46  1  0
 24 47  1  0
M  CHG  1   3   1
M  END
>  <UniqueID>  (40) 
36

>  <SMILES>  (40) 
CC[N@H+](C)CCc1cn(S(=O)(=O)c2ccc(Br)cc2)c2ccccc12

>  <Energy>  (40) 
84.23766490402772

>  <Genealogy>  (40) 
CC[NH+](C)CCc1cn(S(=O)(=O)c2ccc(Br)cc2)c2ccccc12 (protonated)
CC[N@H+](C)CCc1cn(S(=O)(=O)c2ccc(Br)cc2)c2ccccc12 (chirality)
CC[N@H+](C)CCc1cn(S(=O)(=O)c2ccc(Br)cc2)c2ccccc12 (3D coordinates assigned)
CC[N@H+](C)CCc1cn(S(=O)(=O)c2ccc(Br)cc2)c2ccccc12 (optimized conformer: 84.23766490402772 kcal/mol)

>  <smiles>  (40) 
CCN(C)CCc1cn(S(=O)(=O)c2ccc(Br)cc2)c2ccccc12

>  <score_type>  (40) 
oracle

>  <origin>  (40) 
adg

>  <m_score__min__energy>  (40) 
-7.9299999999999997

>  <m_primary>  (40) 
energy

$$$$
40:0
     RDKit          3D

 53 56  0  0  0  0  0  0  0  0999 V2000
   60.3360   27.9880   46.1620 C   0  0  0  0  0  0  0  0  0  0  0  0
   59.8630   28.9190   45.1200 N   0  0  1  0  0  0  0  0  0  0  0  0
   58.9880   28.2270   44.1250 C   0  0  0  0  0  0  0  0  0  0  0  0
   57.5030   28.5880   44.2490 C   0  0  0  0  0  0  0  0  0  0  0  0
   57.2640   30.1060   44.1600 C   0  0  0  0  0  0  0  0  0  0  0  0
   58.4900   30.9330   44.5800 C   0  0  0  0  0  0  0  0  0  0  0  0
   59.3260   30.2140   45.6560 C   0  0  1  0  0  0  0  0  0  0  0  0
   58.5200   30.1040   46.9890 C   0  0  0  0  0  0  0  0  0  0  0  0
   59.3760   30.3460   48.1460 N   0  0  0  0  0  0  0  0  0  0  0  0
   58.9800   31.0310   49.3420 C   0  0  0  0  0  0  0  0  0  0  0  0
   58.3070   30.3990   50.2000 O   0  0  0  0  0  0  0  0  0  0  0  0
   59.2780   32.4970   49.5460 C   0  0  0  0  0  0  0  0  0  0  0  0
   59.7320   33.1640   48.2750 C   0  0  0  0  0  0  0  0  0  0  0  0
   61.0050   33.6460   47.9370 C   0  0  0  0  0  0  0  0  0  0  0  0
   62.2470   33.5570   48.7330 C   0  0  0  0  0  0  0  0  0  0  0  0
   62.3590   34.1720   49.9930 C   0  0  0  0  0  0  0  0  0  0  0  0
   63.5380   34.0530   50.7340 C   0  0  0  0  0  0  0  0  0  0  0  0
   64.6080   33.3070   50.2330 C   0  0  0  0  0  0  0  0  0  0  0  0
   64.4970   32.6730   48.9930 C   0  0  0  0  0  0  0  0  0  0  0  0
   63.3200   32.7900   48.2490 C   0  0  0  0  0  0  0  0  0  0  0  0
   60.9610   34.2430   46.7570 O   0  0  0  0  0  0  0  0  0  0  0  0
   59.7340   34.1590   46.3070 C   0  0  0  0  0  0  0  0  0  0  0  0
   59.2360   34.6510   45.1010 C   0  0  0  0  0  0  0  0  0  0  0  0
   57.8710   34.4520   44.8240 C   0  0  0  0  0  0  0  0  0  0  0  0
   57.0440   33.7750   45.7490 C   0  0  0  0  0  0  0  0  0  0  0  0
   57.5760   33.2920   46.9590 C   0  0  0  0  0  0  0  0  0  0  0  0
   58.9340   33.5010   47.2020 C   0  0  0  0  0  0  0  0  0  0  0  0
   60.1218   28.4097   47.1551 H   0  0  0  0  0  0  0  0  0  0  0  0
   59.8187   27.0232   46.0539 H   0  0  0  0  0  0  0  0  0  0  0  0
   61.4202   27.8369   46.0539 H   0  0  0  0  0  0  0  0  0  0  0  0
   60.7320   29.1770   44.5910 H   0  0  0  0  0  0  0  0  0  0  0  0
   59.3280   28.5002   43.1152 H   0  0  0  0  0  0  0  0  0  0  0  0
   59.0724   27.1478   44.3205 H   0  0  0  0  0  0  0  0  0  0  0  0
   56.9494   28.0941   43.4369 H   0  0  0  0  0  0  0  0  0  0  0  0
   57.1543   28.2486   45.2355 H   0  0  0  0  0  0  0  0  0  0  0  0
   57.0090   30.3603   43.1206 H   0  0  0  0  0  0  0  0  0  0  0  0
   56.4476   30.3518   44.8551 H   0  0  0  0  0  0  0  0  0  0  0  0
   59.1215   31.1070   43.6963 H   0  0  0  0  0  0  0  0  0  0  0  0
   58.1319   31.8826   45.0043 H   0  0  0  0  0  0  0  0  0  0  0  0
   60.2165   30.8067   45.9125 H   0  0  0  0  0  0  0  0  0  0  0  0
   57.7097   30.8479   46.9806 H   0  0  0  0  0  0  0  0  0  0  0  0
   58.1115   29.0855   47.0655 H   0  0  0  0  0  0  0  0  0  0  0  0
   58.3663   32.9980   49.9036 H   0  0  0  0  0  0  0  0  0  0  0  0
   60.0922   32.5784   50.2812 H   0  0  0  0  0  0  0  0  0  0  0  0
   61.5145   34.7495   50.3972 H   0  0  0  0  0  0  0  0  0  0  0  0
   63.6237   34.5473   51.7129 H   0  0  0  0  0  0  0  0  0  0  0  0
   65.5374   33.2189   50.8147 H   0  0  0  0  0  0  0  0  0  0  0  0
   65.3374   32.0808   48.6018 H   0  0  0  0  0  0  0  0  0  0  0  0
   63.2331   32.2787   47.2789 H   0  0  0  0  0  0  0  0  0  0  0  0
   59.8890   35.1775   44.3894 H   0  0  0  0  0  0  0  0  0  0  0  0
   57.4446   34.8257   43.8814 H   0  0  0  0  0  0  0  0  0  0  0  0
   55.9783   33.6248   45.5217 H   0  0  0  0  0  0  0  0  0  0  0  0
   56.9423   32.7671   47.6890 H   0  0  0  0  0  0  0  0  0  0  0  0
  1  2  1  0
  2  3  1  0
  3  4  1  0
  4  5  1  0
  5  6  1  0
  6  7  1  0
  7  8  1  0
  8  9  1  0
  9 10  1  0
 10 11  2  0
 10 12  1  0
 12 13  1  0
 13 14  2  0
 14 15  1  0
 15 16  2  0
 16 17  1  0
 17 18  2  0
 18 19  1  0
 19 20  2  0
 14 21  1  0
 21 22  1  0
 22 23  2  0
 23 24  1  0
 24 25  2  0
 25 26  1  0
 26 27  2  0
  7  2  1  0
 27 13  1  0
 20 15  1  0
 27 22  1  0
  1 28  1  0
  1 29  1  0
  1 30  1  0
  2 31  1  6
  3 32  1  0
  3 33  1  0
  4 34  1  0
  4 35  1  0
  5 36  1  0
  5 37  1  0
  6 38  1  0
  6 39  1  0
  7 40  1  1
  8 41  1  0
  8 42  1  0
 12 43  1  0
 12 44  1  0
 16 45  1  0
 17 46  1  0
 18 47  1  0
 19 48  1  0
 20 49  1  0
 23 50  1  0
 24 51  1  0
 25 52  1  0
 26 53  1  0
M  CHG  2   2   1   9  -1
M  END
>  <UniqueID>  (41) 
37

>  <SMILES>  (41) 
C[N@H+]1CCCC[C@H]1C[N-]C(=O)Cc1c(-c2ccccc2)oc2ccccc12

>  <Energy>  (41) 
106.80290986715977

>  <Genealogy>  (41) 
C[NH+]1CCCCC1C[N-]C(=O)Cc1c(-c2ccccc2)oc2ccccc12 (protonated)
C[N@H+]1CCCC[C@H]1C[N-]C(=O)Cc1c(-c2ccccc2)oc2ccccc12 (chirality)
C[N@H+]1CCCC[C@H]1C[N-]C(=O)Cc1c(-c2ccccc2)oc2ccccc12 (3D coordinates assigned)
C[N@H+]1CCCC[C@H]1C[N-]C(=O)Cc1c(-c2ccccc2)oc2ccccc12 (nonaromatic ring conformer: 106.80290986715977 kcal/mol)

>  <smiles>  (41) 
CN1CCCCC1CNC(=O)Cc1c(-c2ccccc2)oc2ccccc12

>  <score_type>  (41) 
oracle

>  <origin>  (41) 
adg

>  <m_score__min__energy>  (41) 
-9.2200000000000006

>  <m_primary>  (41) 
energy

$$$$
41:0
     RDKit          3D

 54 57  0  0  0  0  0  0  0  0999 V2000
   65.3490   32.9810   49.7520 C   0  0  0  0  0  0  0  0  0  0  0  0
   64.0230   33.2880   49.1220 C   0  0  0  0  0  0  0  0  0  0  0  0
   63.0340   33.9630   49.8500 C   0  0  0  0  0  0  0  0  0  0  0  0
   61.7850   34.2160   49.2770 C   0  0  0  0  0  0  0  0  0  0  0  0
   61.4960   33.7700   47.9780 C   0  0  0  0  0  0  0  0  0  0  0  0
   59.9110   34.0790   47.2570 S   0  0  0  0  0  0  0  0  0  0  0  0
   59.1150   34.9560   48.1820 O   0  0  0  0  0  0  0  0  0  0  0  0
   60.1370   34.8630   45.9960 O   0  0  0  0  0  0  0  0  0  0  0  0
   58.9860   32.6310   46.8540 N   0  0  0  0  0  0  0  0  0  0  0  0
   59.5520   31.8870   45.7110 C   0  0  0  0  0  0  0  0  0  0  0  0
   58.4920   30.9660   45.0930 C   0  0  0  0  0  0  0  0  0  0  0  0
   58.8900   29.5560   45.1920 N   0  0  0  0  0  0  0  0  0  0  0  0
   60.1870   29.1690   45.3260 C   0  0  0  0  0  0  0  0  0  0  0  0
   60.3380   27.8700   45.6810 N   0  0  0  0  0  0  0  0  0  0  0  0
   59.0710   27.4360   45.7640 C   0  0  0  0  0  0  0  0  0  0  0  0
   58.6270   26.1900   46.1650 C   0  0  0  0  0  0  0  0  0  0  0  0
   59.4330   25.2720   46.4680 O   0  0  0  0  0  0  0  0  0  0  0  0
   57.2860   25.9850   46.2370 N   0  0  0  0  0  0  0  0  0  0  0  0
   56.3900   26.9660   45.9070 C   0  0  0  0  0  0  0  0  0  0  0  0
   55.1590   26.7080   45.9960 O   0  0  0  0  0  0  0  0  0  0  0  0
   56.8250   28.2080   45.4820 N   0  0  0  0  0  0  0  0  0  0  0  0
   55.8580   29.1970   44.9850 C   0  0  0  0  0  0  0  0  0  0  0  0
   58.1840   28.4260   45.4640 C   0  0  0  0  0  0  0  0  0  0  0  0
   58.5140   31.7520   47.9580 C   0  0  0  0  0  0  0  0  0  0  0  0
   59.2990   30.4470   48.1280 C   0  0  0  0  0  0  0  0  0  0  0  0
   59.7500   30.3880   49.5830 C   0  0  0  0  0  0  0  0  0  0  0  0
   59.5490   31.7770   50.1720 C   0  0  0  0  0  0  0  0  0  0  0  0
   58.4910   32.4550   49.3160 C   0  0  0  0  0  0  0  0  0  0  0  0
   62.4910   33.1020   47.2470 C   0  0  0  0  0  0  0  0  0  0  0  0
   63.7400   32.8520   47.8190 C   0  0  0  0  0  0  0  0  0  0  0  0
   65.2488   33.0042   50.8472 H   0  0  0  0  0  0  0  0  0  0  0  0
   65.6828   31.9818   49.4354 H   0  0  0  0  0  0  0  0  0  0  0  0
   66.0880   33.7318   49.4354 H   0  0  0  0  0  0  0  0  0  0  0  0
   63.2420   34.2954   50.8777 H   0  0  0  0  0  0  0  0  0  0  0  0
   61.0236   34.7681   49.8475 H   0  0  0  0  0  0  0  0  0  0  0  0
   59.8992   32.6014   44.9500 H   0  0  0  0  0  0  0  0  0  0  0  0
   60.3932   31.2738   46.0665 H   0  0  0  0  0  0  0  0  0  0  0  0
   57.5395   31.1080   45.6246 H   0  0  0  0  0  0  0  0  0  0  0  0
   58.3848   31.2235   44.0290 H   0  0  0  0  0  0  0  0  0  0  0  0
   61.0361   29.8486   45.1612 H   0  0  0  0  0  0  0  0  0  0  0  0
   55.3716   29.6945   45.8370 H   0  0  0  0  0  0  0  0  0  0  0  0
   56.3815   29.9463   44.3730 H   0  0  0  0  0  0  0  0  0  0  0  0
   55.0972   28.6905   44.3730 H   0  0  0  0  0  0  0  0  0  0  0  0
   57.4923   31.5027   47.6356 H   0  0  0  0  0  0  0  0  0  0  0  0
   58.6555   29.5855   47.8962 H   0  0  0  0  0  0  0  0  0  0  0  0
   60.1620   30.4150   47.4466 H   0  0  0  0  0  0  0  0  0  0  0  0
   59.1461   29.6531   50.1355 H   0  0  0  0  0  0  0  0  0  0  0  0
   60.8043   30.0823   49.6534 H   0  0  0  0  0  0  0  0  0  0  0  0
   59.2053   31.7026   51.2143 H   0  0  0  0  0  0  0  0  0  0  0  0
   60.4882   32.3497   50.1746 H   0  0  0  0  0  0  0  0  0  0  0  0
   57.5002   32.3490   49.7819 H   0  0  0  0  0  0  0  0  0  0  0  0
   58.6948   33.5308   49.2102 H   0  0  0  0  0  0  0  0  0  0  0  0
   62.2855   32.7736   46.2175 H   0  0  0  0  0  0  0  0  0  0  0  0
   64.5061   32.3103   47.2449 H   0  0  0  0  0  0  0  0  0  0  0  0
  1  2  1  0
  2  3  2  0
  3  4  1  0
  4  5  2  0
  5  6  1  0
  6  7  2  0
  6  8  2  0
  6  9  1  0
  9 10  1  0
 10 11  1  0
 11 12  1  0
 12 13  1  0
 13 14  2  0
 14 15  1  0
 15 16  1  0
 16 17  2  0
 16 18  1  0
 18 19  1  0
 19 20  2  0
 19 21  1  0
 21 22  1  0
 21 23  1  0
  9 24  1  0
 24 25  1  0
 25 26  1  0
 26 27  1  0
 27 28  1  0
  5 29  1  0
 29 30  2  0
 30  2  1  0
 23 12  1  0
 28 24  1  0
 23 15  2  0
  1 31  1  0
  1 32  1  0
  1 33  1  0
  3 34  1  0
  4 35  1  0
 10 36  1  0
 10 37  1  0
 11 38  1  0
 11 39  1  0
 13 40  1  0
 22 41  1  0
 22 42  1  0
 22 43  1  0
 24 44  1  0
 25 45  1  0
 25 46  1  0
 26 47  1  0
 26 48  1  0
 27 49  1  0
 27 50  1  0
 28 51  1  0
 28 52  1  0
 29 53  1  0
 30 54  1  0
M  CHG  1  18  -1
M  END
>  <UniqueID>  (42) 
38

>  <SMILES>  (42) 
Cc1ccc(S(=O)(=O)N(CCn2cnc3c(=O)[n-]c(=O)n(C)c32)C2CCCC2)cc1

>  <Energy>  (42) 
112.27295289267153

>  <Genealogy>  (42) 
Cc1ccc(S(=O)(=O)N(CCn2cnc3c(=O)[n-]c(=O)n(C)c32)C2CCCC2)cc1 (protonated)
Cc1ccc(S(=O)(=O)N(CCn2cnc3c(=O)[n-]c(=O)n(C)c32)C2CCCC2)cc1 (3D coordinates assigned)
Cc1ccc(S(=O)(=O)N(CCn2cnc3c(=O)[n-]c(=O)n(C)c32)C2CCCC2)cc1 (nonaromatic ring conformer: 112.27295289267153 kcal/mol)

>  <smiles>  (42) 
Cc1ccc(S(=O)(=O)N(CCn2cnc3c(=O)[nH]c(=O)n(C)c32)C2CCCC2)cc1

>  <score_type>  (42) 
oracle

>  <origin>  (42) 
adg

>  <m_score__min__energy>  (42) 
-10.81

>  <m_primary>  (42) 
energy

$$$$
42:0
     RDKit          3D

 57 59  0  0  0  0  0  0  0  0999 V2000
   58.6530   32.7130   48.8550 C   0  0  0  0  0  0  0  0  0  0  0  0
   58.2470   32.7210   47.3840 C   0  0  0  0  0  0  0  0  0  0  0  0
   58.5340   34.0500   46.7990 N   0  0  0  0  0  0  0  0  0  0  0  0
   59.8840   34.5430   47.1520 C   0  0  0  0  0  0  0  0  0  0  0  0
   60.9750   33.8340   46.3490 C   0  0  0  0  0  0  0  0  0  0  0  0
   58.1580   34.1700   45.3670 C   0  0  0  0  0  0  0  0  0  0  0  0
   57.4030   32.9670   44.7610 C   0  0  0  0  0  0  0  0  0  0  0  0
   57.9970   32.4480   43.4460 C   0  0  0  0  0  0  0  0  0  0  0  0
   58.2560   31.0140   43.5520 N   0  0  0  0  0  0  0  0  0  0  0  0
   57.2410   30.0810   43.9400 C   0  0  0  0  0  0  0  0  0  0  0  0
   56.1970   30.4810   44.5230 O   0  0  0  0  0  0  0  0  0  0  0  0
   57.3740   28.6320   43.5870 C   0  0  0  0  0  0  0  0  0  0  0  0
   58.2500   27.9760   44.5630 N   0  0  0  0  0  0  0  0  0  0  0  0
   59.4450   28.6230   45.0020 C   0  0  0  0  0  0  0  0  0  0  0  0
   60.2740   29.0080   44.1290 O   0  0  0  0  0  0  0  0  0  0  0  0
   59.6960   28.9110   46.4380 C   0  0  0  0  0  0  0  0  0  0  0  0
   60.7700   29.7660   46.7620 C   0  0  0  0  0  0  0  0  0  0  0  0
   60.9760   30.1930   48.0710 C   0  0  0  0  0  0  0  0  0  0  0  0
   60.1070   29.7710   49.0650 C   0  0  0  0  0  0  0  0  0  0  0  0
   59.0850   28.9330   48.7590 N   0  0  0  0  0  0  0  0  0  0  0  0
   58.8540   28.4720   47.4980 C   0  0  0  0  0  0  0  0  0  0  0  0
   57.7820   27.5770   47.3580 O   0  0  0  0  0  0  0  0  0  0  0  0
   57.6730   26.5220   46.4480 C   0  0  0  0  0  0  0  0  0  0  0  0
   57.2330   25.2820   46.9270 C   0  0  0  0  0  0  0  0  0  0  0  0
   57.0800   24.1980   46.0600 C   0  0  0  0  0  0  0  0  0  0  0  0
   57.3420   24.3500   44.6920 C   0  0  0  0  0  0  0  0  0  0  0  0
   57.2240   23.1810   43.7600 C   0  0  0  0  0  0  0  0  0  0  0  0
   57.7700   25.5960   44.2080 C   0  0  0  0  0  0  0  0  0  0  0  0
   57.9210   26.6860   45.0800 C   0  0  0  0  0  0  0  0  0  0  0  0
   57.7510   32.7308   49.4844 H   0  0  0  0  0  0  0  0  0  0  0  0
   59.2326   31.8033   49.0705 H   0  0  0  0  0  0  0  0  0  0  0  0
   59.2680   33.5992   49.0705 H   0  0  0  0  0  0  0  0  0  0  0  0
   58.8167   31.9515   46.8424 H   0  0  0  0  0  0  0  0  0  0  0  0
   57.1710   32.5086   47.3000 H   0  0  0  0  0  0  0  0  0  0  0  0
   59.9343   35.6223   46.9454 H   0  0  0  0  0  0  0  0  0  0  0  0
   60.0555   34.3364   48.2187 H   0  0  0  0  0  0  0  0  0  0  0  0
   61.6933   33.3672   47.0390 H   0  0  0  0  0  0  0  0  0  0  0  0
   60.5189   33.0593   45.7152 H   0  0  0  0  0  0  0  0  0  0  0  0
   61.4977   34.5655   45.7152 H   0  0  0  0  0  0  0  0  0  0  0  0
   57.5169   35.0575   45.2609 H   0  0  0  0  0  0  0  0  0  0  0  0
   59.1079   34.2315   44.8157 H   0  0  0  0  0  0  0  0  0  0  0  0
   57.4176   32.1464   45.4934 H   0  0  0  0  0  0  0  0  0  0  0  0
   56.3855   33.3163   44.5314 H   0  0  0  0  0  0  0  0  0  0  0  0
   57.2862   32.6312   42.6268 H   0  0  0  0  0  0  0  0  0  0  0  0
   58.9415   32.9736   43.2416 H   0  0  0  0  0  0  0  0  0  0  0  0
   59.1930   30.6560   43.2530 H   0  0  0  0  0  0  0  0  0  0  0  0
   56.3822   28.1565   43.6049 H   0  0  0  0  0  0  0  0  0  0  0  0
   57.8054   28.5353   42.5798 H   0  0  0  0  0  0  0  0  0  0  0  0
   61.4549   30.1003   45.9688 H   0  0  0  0  0  0  0  0  0  0  0  0
   61.8184   30.8574   48.3136 H   0  0  0  0  0  0  0  0  0  0  0  0
   60.2459   30.1151   50.1005 H   0  0  0  0  0  0  0  0  0  0  0  0
   57.0057   25.1606   47.9964 H   0  0  0  0  0  0  0  0  0  0  0  0
   56.7533   23.2234   46.4516 H   0  0  0  0  0  0  0  0  0  0  0  0
   57.1304   22.2539   44.3446 H   0  0  0  0  0  0  0  0  0  0  0  0
   56.3339   23.3060   43.1259 H   0  0  0  0  0  0  0  0  0  0  0  0
   58.1211   23.1256   43.1259 H   0  0  0  0  0  0  0  0  0  0  0  0
   57.9889   25.7195   43.1371 H   0  0  0  0  0  0  0  0  0  0  0  0
  1  2  1  0
  2  3  1  0
  3  4  1  0
  4  5  1  0
  3  6  1  0
  6  7  1  0
  7  8  1  0
  8  9  1  0
  9 10  1  0
 10 11  2  0
 10 12  1  0
 12 13  1  0
 13 14  1  0
 14 15  2  0
 14 16  1  0
 16 17  2  0
 17 18  1  0
 18 19  2  0
 19 20  1  0
 20 21  2  0
 21 22  1  0
 22 23  1  0
 23 24  2  0
 24 25  1  0
 25 26  2  0
 26 27  1  0
 26 28  1  0
 28 29  2  0
 29 13  1  0
 21 16  1  0
 29 23  1  0
  1 30  1  0
  1 31  1  0
  1 32  1  0
  2 33  1  0
  2 34  1  0
  4 35  1  0
  4 36  1  0
  5 37  1  0
  5 38  1  0
  5 39  1  0
  6 40  1  0
  6 41  1  0
  7 42  1  0
  7 43  1  0
  8 44  1  0
  8 45  1  0
  9 46  1  0
 12 47  1  0
 12 48  1  0
 17 49  1  0
 18 50  1  0
 19 51  1  0
 24 52  1  0
 25 53  1  0
 27 54  1  0
 27 55  1  0
 27 56  1  0
 28 57  1  0
M  END
>  <UniqueID>  (43) 
39

>  <SMILES>  (43) 
CCN(CC)CCCNC(=O)CN1C(=O)c2cccnc2Oc2ccc(C)cc21

>  <Energy>  (43) 
80.04453227218254

>  <Genealogy>  (43) 
CCN(CC)CCCNC(=O)CN1C(=O)c2cccnc2Oc2ccc(C)cc21 (3D coordinates assigned)
CCN(CC)CCCNC(=O)CN1C(=O)c2cccnc2Oc2ccc(C)cc21 (nonaromatic ring conformer: 80.04453227218254 kcal/mol)

>  <smiles>  (43) 
CCN(CC)CCCNC(=O)CN1C(=O)c2cccnc2Oc2ccc(C)cc21

>  <score_type>  (43) 
oracle

>  <origin>  (43) 
adg

>  <m_score__min__energy>  (43) 
-7.9299999999999997

>  <m_primary>  (43) 
energy

$$$$
43:0
     RDKit          3D

 47 50  0  0  0  0  0  0  0  0999 V2000
   56.6260   22.4870   43.1720 C   0  0  0  0  0  0  0  0  0  0  0  0
   55.9380   23.7370   43.7390 C   0  0  0  0  0  0  0  0  0  0  0  0
   56.5330   24.2310   45.0000 N   0  0  0  0  0  0  0  0  0  0  0  0
   55.7590   25.3300   45.6250 C   0  0  0  0  0  0  0  0  0  0  0  0
   56.5980   26.1110   46.6380 C   0  0  0  0  0  0  0  0  0  0  0  0
   57.7870   26.6490   45.9680 N   0  0  0  0  0  0  0  0  0  0  0  0
   58.1490   28.0280   46.1440 C   0  0  0  0  0  0  0  0  0  0  0  0
   58.8460   28.3840   47.2510 N   0  0  0  0  0  0  0  0  0  0  0  0
   59.2530   29.6340   47.4650 N   0  0  0  0  0  0  0  0  0  0  0  0
   59.0070   30.6320   46.5700 C   0  0  0  0  0  0  0  0  0  0  0  0
   59.5480   31.9820   46.8520 C   0  0  0  0  0  0  0  0  0  0  0  0
   58.6760   33.0360   47.1690 C   0  0  0  0  0  0  0  0  0  0  0  0
   59.1840   34.3050   47.4630 C   0  0  0  0  0  0  0  0  0  0  0  0
   60.5640   34.5260   47.4520 C   0  0  0  0  0  0  0  0  0  0  0  0
   61.4400   33.4780   47.1540 C   0  0  0  0  0  0  0  0  0  0  0  0
   63.3260   33.7790   47.1510 Br  0  0  0  0  0  0  0  0  0  0  0  0
   60.9350   32.2070   46.8610 C   0  0  0  0  0  0  0  0  0  0  0  0
   58.2470   30.3440   45.4120 C   0  0  0  0  0  0  0  0  0  0  0  0
   57.8780   31.3440   44.4870 C   0  0  0  0  0  0  0  0  0  0  0  0
   57.1080   31.0260   43.3680 C   0  0  0  0  0  0  0  0  0  0  0  0
   56.6780   29.7170   43.1610 C   0  0  0  0  0  0  0  0  0  0  0  0
   57.0160   28.7160   44.0720 C   0  0  0  0  0  0  0  0  0  0  0  0
   57.8090   29.0130   45.1980 C   0  0  0  0  0  0  0  0  0  0  0  0
   58.4370   25.8740   44.9070 C   0  0  0  0  0  0  0  0  0  0  0  0
   58.0060   24.4000   44.9640 C   0  0  0  0  0  0  0  0  0  0  0  0
   56.9750   21.8530   44.0004 H   0  0  0  0  0  0  0  0  0  0  0  0
   55.9111   21.9232   42.5547 H   0  0  0  0  0  0  0  0  0  0  0  0
   57.4848   22.7893   42.5547 H   0  0  0  0  0  0  0  0  0  0  0  0
   56.0033   24.5384   42.9884 H   0  0  0  0  0  0  0  0  0  0  0  0
   54.8998   23.4535   43.9664 H   0  0  0  0  0  0  0  0  0  0  0  0
   55.4193   26.0189   44.8376 H   0  0  0  0  0  0  0  0  0  0  0  0
   54.9049   24.8867   46.1579 H   0  0  0  0  0  0  0  0  0  0  0  0
   56.0015   26.9387   47.0493 H   0  0  0  0  0  0  0  0  0  0  0  0
   56.9056   25.4429   47.4559 H   0  0  0  0  0  0  0  0  0  0  0  0
   59.8000   29.8350   48.3310 H   0  0  0  0  0  0  0  0  0  0  0  0
   57.5899   32.8627   47.1861 H   0  0  0  0  0  0  0  0  0  0  0  0
   58.4971   35.1299   47.7031 H   0  0  0  0  0  0  0  0  0  0  0  0
   60.9616   35.5264   47.6782 H   0  0  0  0  0  0  0  0  0  0  0  0
   61.6259   31.3809   46.6369 H   0  0  0  0  0  0  0  0  0  0  0  0
   58.2003   32.3831   44.6498 H   0  0  0  0  0  0  0  0  0  0  0  0
   56.8394   31.8116   42.6464 H   0  0  0  0  0  0  0  0  0  0  0  0
   56.0706   29.4723   42.2772 H   0  0  0  0  0  0  0  0  0  0  0  0
   56.6609   27.6876   43.9100 H   0  0  0  0  0  0  0  0  0  0  0  0
   58.1560   26.2941   43.9300 H   0  0  0  0  0  0  0  0  0  0  0  0
   59.5265   25.9280   45.0486 H   0  0  0  0  0  0  0  0  0  0  0  0
   58.3968   23.8853   44.0739 H   0  0  0  0  0  0  0  0  0  0  0  0
   58.4103   23.9733   45.8938 H   0  0  0  0  0  0  0  0  0  0  0  0
  1  2  1  0
  2  3  1  0
  3  4  1  0
  4  5  1  0
  5  6  1  0
  6  7  1  0
  7  8  2  0
  8  9  1  0
  9 10  2  0
 10 11  1  0
 11 12  2  0
 12 13  1  0
 13 14  2  0
 14 15  1  0
 15 16  1  0
 15 17  2  0
 10 18  1  0
 18 19  2  0
 19 20  1  0
 20 21  2  0
 21 22  1  0
 22 23  2  0
  6 24  1  0
 24 25  1  0
 25  3  1  0
 23  7  1  0
 17 11  1  0
 23 18  1  0
  1 26  1  0
  1 27  1  0
  1 28  1  0
  2 29  1  0
  2 30  1  0
  4 31  1  0
  4 32  1  0
  5 33  1  0
  5 34  1  0
  9 35  1  0
 12 36  1  0
 13 37  1  0
 14 38  1  0
 17 39  1  0
 19 40  1  0
 20 41  1  0
 21 42  1  0
 22 43  1  0
 24 44  1  0
 24 45  1  0
 25 46  1  0
 25 47  1  0
M  CHG  1   9   1
M  END
>  <UniqueID>  (44) 
40

>  <SMILES>  (44) 
CCN1CCN(c2n[nH+]c(-c3cccc(Br)c3)c3ccccc23)CC1

>  <Energy>  (44) 
76.57214258824797

>  <Genealogy>  (44) 
CCN1CCN(c2n[nH+]c(-c3cccc(Br)c3)c3ccccc23)CC1 (protonated)
CCN1CCN(c2n[nH+]c(-c3cccc(Br)c3)c3ccccc23)CC1 (3D coordinates assigned)
CCN1CCN(c2n[nH+]c(-c3cccc(Br)c3)c3ccccc23)CC1 (nonaromatic ring conformer: 76.57214258824797 kcal/mol)

>  <smiles>  (44) 
CCN1CCN(c2nnc(-c3cccc(Br)c3)c3ccccc23)CC1

>  <score_type>  (44) 
oracle

>  <origin>  (44) 
adg

>  <m_score__min__energy>  (44) 
-7

>  <m_primary>  (44) 
energy

$$$$
44:0
     RDKit          3D

 41 43  0  0  0  0  0  0  0  0999 V2000
   59.7640   31.6930   49.1160 C   0  0  0  0  0  0  0  0  0  0  0  0
   58.7130   32.3340   48.4000 O   0  0  0  0  0  0  0  0  0  0  0  0
   58.8880   33.0820   47.2280 C   0  0  0  0  0  0  0  0  0  0  0  0
   59.4030   34.4020   47.2570 C   0  0  0  0  0  0  0  0  0  0  0  0
   59.5320   35.1540   46.0730 C   0  0  0  0  0  0  0  0  0  0  0  0
   59.1480   34.6100   44.8410 C   0  0  0  0  0  0  0  0  0  0  0  0
   58.6520   33.3100   44.8280 C   0  0  0  0  0  0  0  0  0  0  0  0
   58.1910   32.5700   43.7680 C   0  0  0  0  0  0  0  0  0  0  0  0
   57.7940   31.3550   44.3140 C   0  0  0  0  0  0  0  0  0  0  0  0
   57.1670   30.2470   43.5030 C   0  0  0  0  0  0  0  0  0  0  0  0
   55.6430   30.2130   43.6730 C   0  0  0  0  0  0  0  0  0  0  0  0
   55.2680   29.3900   44.8200 N   0  0  0  0  0  0  0  0  0  0  0  0
   58.0200   31.3280   45.6580 N   0  0  0  0  0  0  0  0  0  0  0  0
   57.7700   30.1870   46.5520 C   0  0  0  0  0  0  0  0  0  0  0  0
   58.8180   29.1170   46.3780 C   0  0  0  0  0  0  0  0  0  0  0  0
   59.8210   29.2470   45.4020 C   0  0  0  0  0  0  0  0  0  0  0  0
   60.7810   28.2420   45.2380 C   0  0  0  0  0  0  0  0  0  0  0  0
   60.7400   27.0970   46.0360 C   0  0  0  0  0  0  0  0  0  0  0  0
   59.7350   26.9510   46.9970 C   0  0  0  0  0  0  0  0  0  0  0  0
   58.7750   27.9530   47.1650 C   0  0  0  0  0  0  0  0  0  0  0  0
   58.5330   32.5500   45.9690 C   0  0  0  0  0  0  0  0  0  0  0  0
   59.5894   31.7995   50.1968 H   0  0  0  0  0  0  0  0  0  0  0  0
   59.7895   30.6254   48.8521 H   0  0  0  0  0  0  0  0  0  0  0  0
   60.7248   32.1590   48.8521 H   0  0  0  0  0  0  0  0  0  0  0  0
   59.7061   34.8452   48.2171 H   0  0  0  0  0  0  0  0  0  0  0  0
   59.9372   36.1757   46.1164 H   0  0  0  0  0  0  0  0  0  0  0  0
   59.2358   35.1925   43.9121 H   0  0  0  0  0  0  0  0  0  0  0  0
   58.1454   32.8737   42.7117 H   0  0  0  0  0  0  0  0  0  0  0  0
   57.4039   30.4049   42.4405 H   0  0  0  0  0  0  0  0  0  0  0  0
   57.5735   29.2889   43.8590 H   0  0  0  0  0  0  0  0  0  0  0  0
   55.2744   31.2377   43.8283 H   0  0  0  0  0  0  0  0  0  0  0  0
   55.1964   29.7791   42.7662 H   0  0  0  0  0  0  0  0  0  0  0  0
   55.1360   30.0270   45.6380 H   0  0  0  0  0  0  0  0  0  0  0  0
   54.3340   28.9660   44.6230 H   0  0  0  0  0  0  0  0  0  0  0  0
   57.7854   30.5380   47.5944 H   0  0  0  0  0  0  0  0  0  0  0  0
   56.7889   29.7571   46.3015 H   0  0  0  0  0  0  0  0  0  0  0  0
   59.8515   30.1427   44.7642 H   0  0  0  0  0  0  0  0  0  0  0  0
   61.5693   28.3543   44.4791 H   0  0  0  0  0  0  0  0  0  0  0  0
   61.4981   26.3101   45.9087 H   0  0  0  0  0  0  0  0  0  0  0  0
   59.6997   26.0463   47.6217 H   0  0  0  0  0  0  0  0  0  0  0  0
   57.9817   27.8300   47.9170 H   0  0  0  0  0  0  0  0  0  0  0  0
  1  2  1  0
  2  3  1  0
  3  4  2  0
  4  5  1  0
  5  6  2  0
  6  7  1  0
  7  8  1  0
  8  9  2  0
  9 10  1  0
 10 11  1  0
 11 12  1  0
  9 13  1  0
 13 14  1  0
 14 15  1  0
 15 16  2  0
 16 17  1  0
 17 18  2  0
 18 19  1  0
 19 20  2  0
 13 21  1  0
 21  3  1  0
 21  7  2  0
 20 15  1  0
  1 22  1  0
  1 23  1  0
  1 24  1  0
  4 25  1  0
  5 26  1  0
  6 27  1  0
  8 28  1  0
 10 29  1  0
 10 30  1  0
 11 31  1  0
 11 32  1  0
 12 33  1  0
 12 34  1  0
 14 35  1  0
 14 36  1  0
 16 37  1  0
 17 38  1  0
 18 39  1  0
 19 40  1  0
 20 41  1  0
M  END
>  <UniqueID>  (45) 
41

>  <SMILES>  (45) 
COc1cccc2cc(CCN)n(Cc3ccccc3)c12

>  <Energy>  (45) 
72.8709937544905

>  <Genealogy>  (45) 
COc1cccc2cc(CCN)n(Cc3ccccc3)c12 (3D coordinates assigned)
COc1cccc2cc(CCN)n(Cc3ccccc3)c12 (optimized conformer: 72.8709937544905 kcal/mol)

>  <smiles>  (45) 
COc1cccc2cc(CCN)n(Cc3ccccc3)c12

>  <score_type>  (45) 
oracle

>  <origin>  (45) 
adg

>  <m_score__min__energy>  (45) 
-7.5

>  <m_primary>  (45) 
energy

$$$$
45:0
     RDKit          3D

 61 63  0  0  0  0  0  0  0  0999 V2000
   63.6680   33.5480   47.9990 C   0  0  0  0  0  0  0  0  0  0  0  0
   62.3000   34.0370   48.0600 N   0  0  0  0  0  0  0  0  0  0  0  0
   61.2230   33.4110   47.3500 C   0  0  0  0  0  0  0  0  0  0  0  0
   61.4860   32.6560   46.3730 O   0  0  0  0  0  0  0  0  0  0  0  0
   59.7760   33.7520   47.7050 C   0  0  0  0  0  0  0  0  0  0  0  0
   59.2380   34.7790   46.6610 C   0  0  0  0  0  0  0  0  0  0  0  0
   58.8410   34.1720   45.2940 C   0  0  0  0  0  0  0  0  0  0  0  0
   57.4050   33.6270   45.2910 C   0  0  0  0  0  0  0  0  0  0  0  0
   57.3860   32.1940   44.8460 C   0  0  0  0  0  0  0  0  0  0  0  0
   58.5780   31.5310   44.5170 C   0  0  0  0  0  0  0  0  0  0  0  0
   58.5320   30.1880   44.1370 C   0  0  0  0  0  0  0  0  0  0  0  0
   57.3080   29.5200   44.0940 C   0  0  0  0  0  0  0  0  0  0  0  0
   56.1410   30.2070   44.4390 C   0  0  0  0  0  0  0  0  0  0  0  0
   56.2060   31.5150   44.8070 N   0  0  0  0  0  0  0  0  0  0  0  0
   58.8590   32.4740   47.7350 C   0  0  0  0  0  0  0  0  0  0  0  0
   58.4830   31.9980   49.1540 C   0  0  0  0  0  0  0  0  0  0  0  0
   59.6050   32.0970   50.1130 N   0  0  0  0  0  0  0  0  0  0  0  0
   60.6380   31.0580   49.9090 C   0  0  0  0  0  0  0  0  0  0  0  0
   60.2060   30.0690   48.8580 C   0  0  0  0  0  0  0  0  0  0  0  0
   59.2240   29.1070   49.1430 C   0  0  0  0  0  0  0  0  0  0  0  0
   58.8380   28.1820   48.1680 C   0  0  0  0  0  0  0  0  0  0  0  0
   59.4210   28.2120   46.8890 C   0  0  0  0  0  0  0  0  0  0  0  0
   59.0590   27.2580   45.8750 N   0  0  0  0  0  0  0  0  0  0  0  0
   57.7530   26.6740   45.7480 C   0  0  0  0  0  0  0  0  0  0  0  0
   57.5340   25.5520   44.7860 C   0  0  0  0  0  0  0  0  0  0  0  0
   56.7710   27.1480   46.3800 O   0  0  0  0  0  0  0  0  0  0  0  0
   60.4220   29.1570   46.6170 C   0  0  0  0  0  0  0  0  0  0  0  0
   60.8080   30.0820   47.5920 C   0  0  0  0  0  0  0  0  0  0  0  0
   60.1740   33.4660   50.2230 C   0  0  0  0  0  0  0  0  0  0  0  0
   59.7280   34.4270   49.1010 C   0  0  0  0  0  0  0  0  0  0  0  0
   64.0539   33.4100   49.0198 H   0  0  0  0  0  0  0  0  0  0  0  0
   63.6902   32.5863   47.4655 H   0  0  0  0  0  0  0  0  0  0  0  0
   64.2948   34.2777   47.4655 H   0  0  0  0  0  0  0  0  0  0  0  0
   58.3500   35.2675   47.0887 H   0  0  0  0  0  0  0  0  0  0  0  0
   60.0647   35.4763   46.4602 H   0  0  0  0  0  0  0  0  0  0  0  0
   58.9244   34.9523   44.5232 H   0  0  0  0  0  0  0  0  0  0  0  0
   59.5198   33.3307   45.0904 H   0  0  0  0  0  0  0  0  0  0  0  0
   56.9899   33.6957   46.3074 H   0  0  0  0  0  0  0  0  0  0  0  0
   56.8002   34.2238   44.5924 H   0  0  0  0  0  0  0  0  0  0  0  0
   59.5394   32.0639   44.5580 H   0  0  0  0  0  0  0  0  0  0  0  0
   59.4588   29.6580   43.8722 H   0  0  0  0  0  0  0  0  0  0  0  0
   57.2620   28.4634   43.7916 H   0  0  0  0  0  0  0  0  0  0  0  0
   55.1702   29.6903   44.4130 H   0  0  0  0  0  0  0  0  0  0  0  0
   57.9309   32.7026   47.1907 H   0  0  0  0  0  0  0  0  0  0  0  0
   59.4359   31.6603   47.2713 H   0  0  0  0  0  0  0  0  0  0  0  0
   57.6514   32.6166   49.5224 H   0  0  0  0  0  0  0  0  0  0  0  0
   58.2044   30.9363   49.0819 H   0  0  0  0  0  0  0  0  0  0  0  0
   61.5738   31.5388   49.5880 H   0  0  0  0  0  0  0  0  0  0  0  0
   60.7875   30.5204   50.8570 H   0  0  0  0  0  0  0  0  0  0  0  0
   58.7560   29.0808   50.1381 H   0  0  0  0  0  0  0  0  0  0  0  0
   58.0738   27.4265   48.4030 H   0  0  0  0  0  0  0  0  0  0  0  0
   59.7630   27.0370   45.1350 H   0  0  0  0  0  0  0  0  0  0  0  0
   57.3523   24.6213   45.3434 H   0  0  0  0  0  0  0  0  0  0  0  0
   56.6627   25.7764   44.1532 H   0  0  0  0  0  0  0  0  0  0  0  0
   58.4257   25.4323   44.1532 H   0  0  0  0  0  0  0  0  0  0  0  0
   60.9066   29.1702   45.6296 H   0  0  0  0  0  0  0  0  0  0  0  0
   61.5879   30.8236   47.3645 H   0  0  0  0  0  0  0  0  0  0  0  0
   59.8621   33.8930   51.1875 H   0  0  0  0  0  0  0  0  0  0  0  0
   61.2657   33.3631   50.1364 H   0  0  0  0  0  0  0  0  0  0  0  0
   58.6972   34.7539   49.3022 H   0  0  0  0  0  0  0  0  0  0  0  0
   60.4210   35.2812   49.0896 H   0  0  0  0  0  0  0  0  0  0  0  0
  1  2  1  0
  2  3  1  0
  3  4  2  0
  3  5  1  0
  5  6  1  0
  6  7  1  0
  7  8  1  0
  8  9  1  0
  9 10  2  0
 10 11  1  0
 11 12  2  0
 12 13  1  0
 13 14  2  0
  5 15  1  0
 15 16  1  0
 16 17  1  0
 17 18  1  0
 18 19  1  0
 19 20  2  0
 20 21  1  0
 21 22  2  0
 22 23  1  0
 23 24  1  0
 24 25  1  0
 24 26  2  0
 22 27  1  0
 27 28  2  0
 17 29  1  0
 29 30  1  0
 30  5  1  0
 14  9  1  0
 28 19  1  0
  1 31  1  0
  1 32  1  0
  1 33  1  0
  6 34  1  0
  6 35  1  0
  7 36  1  0
  7 37  1  0
  8 38  1  0
  8 39  1  0
 10 40  1  0
 11 41  1  0
 12 42  1  0
 13 43  1  0
 15 44  1  0
 15 45  1  0
 16 46  1  0
 16 47  1  0
 18 48  1  0
 18 49  1  0
 20 50  1  0
 21 51  1  0
 23 52  1  0
 25 53  1  0
 25 54  1  0
 25 55  1  0
 27 56  1  0
 28 57  1  0
 29 58  1  0
 29 59  1  0
 30 60  1  0
 30 61  1  0
M  CHG  1   2  -1
M  END
>  <UniqueID>  (46) 
42

>  <SMILES>  (46) 
C[N-]C(=O)C1(CCCc2ccccn2)CCN(Cc2ccc(NC(C)=O)cc2)CC1

>  <Energy>  (46) 
73.70799891111515

>  <Genealogy>  (46) 
C[N-]C(=O)C1(CCCc2ccccn2)CCN(Cc2ccc(NC(C)=O)cc2)CC1 (protonated)
C[N-]C(=O)C1(CCCc2ccccn2)CCN(Cc2ccc(NC(C)=O)cc2)CC1 (3D coordinates assigned)
C[N-]C(=O)C1(CCCc2ccccn2)CCN(Cc2ccc(NC(C)=O)cc2)CC1 (nonaromatic ring conformer: 73.70799891111515 kcal/mol)

>  <smiles>  (46) 
CNC(=O)C1(CCCc2ccccn2)CCN(Cc2ccc(NC(C)=O)cc2)CC1

>  <score_type>  (46) 
oracle

>  <origin>  (46) 
adg

>  <m_score__min__energy>  (46) 
-10.199999999999999

>  <m_primary>  (46) 
energy

$$$$
46:0
     RDKit          3D

 47 48  0  0  0  0  0  0  0  0999 V2000
   61.3810   33.7340   49.8600 C   0  0  0  0  0  0  0  0  0  0  0  0
   62.0720   33.4970   48.5490 C   0  0  0  0  0  0  0  0  0  0  0  0
   61.5340   33.6680   47.2790 C   0  0  0  0  0  0  0  0  0  0  0  0
   60.1610   34.1340   46.8920 C   0  0  0  0  0  0  0  0  0  0  0  0
   59.2860   32.9730   46.6590 N   0  0  0  0  0  0  0  0  0  0  0  0
   58.9100   32.8430   45.2500 C   0  0  0  0  0  0  0  0  0  0  0  0
   58.5520   31.3830   45.0460 C   0  0  2  0  0  0  0  0  0  0  0  0
   57.1150   31.0720   45.2240 N   0  0  0  0  0  0  0  0  0  0  0  0
   56.3680   29.8720   44.1900 S   0  0  0  0  0  0  0  0  0  0  0  0
   57.4540   28.4910   43.8850 C   0  0  0  0  0  0  0  0  0  0  0  0
   55.1560   29.3450   44.9050 O   0  0  0  0  0  0  0  0  0  0  0  0
   55.9210   30.4510   42.8800 O   0  0  0  0  0  0  0  0  0  0  0  0
   59.5070   30.6370   45.9930 C   0  0  2  0  0  0  0  0  0  0  0  0
   59.0070   29.2750   46.5610 C   0  0  0  0  0  0  0  0  0  0  0  0
   59.9530   28.1280   46.1620 C   0  0  0  0  0  0  0  0  0  0  0  0
   58.9050   29.3160   48.0960 C   0  0  0  0  0  0  0  0  0  0  0  0
   59.9030   31.6890   47.0460 C   0  0  0  0  0  0  0  0  0  0  0  0
   62.5850   33.4440   46.4070 C   0  0  0  0  0  0  0  0  0  0  0  0
   63.6850   33.1550   47.1250 N   0  0  0  0  0  0  0  0  0  0  0  0
   63.3820   33.1960   48.4120 N   0  0  0  0  0  0  0  0  0  0  0  0
   64.3440   32.9690   49.4870 C   0  0  0  0  0  0  0  0  0  0  0  0
   62.0691   33.4980   50.6851 H   0  0  0  0  0  0  0  0  0  0  0  0
   61.0751   34.7884   49.9279 H   0  0  0  0  0  0  0  0  0  0  0  0
   60.4923   33.0893   49.9279 H   0  0  0  0  0  0  0  0  0  0  0  0
   59.7427   34.7495   47.7021 H   0  0  0  0  0  0  0  0  0  0  0  0
   60.2268   34.7294   45.9694 H   0  0  0  0  0  0  0  0  0  0  0  0
   58.0448   33.4838   45.0246 H   0  0  0  0  0  0  0  0  0  0  0  0
   59.7284   33.1541   44.5841 H   0  0  0  0  0  0  0  0  0  0  0  0
   58.6879   31.0625   44.0025 H   0  0  0  0  0  0  0  0  0  0  0  0
   57.7870   28.0676   44.8441 H   0  0  0  0  0  0  0  0  0  0  0  0
   56.9165   27.7216   43.3114 H   0  0  0  0  0  0  0  0  0  0  0  0
   58.3285   28.8319   43.3114 H   0  0  0  0  0  0  0  0  0  0  0  0
   60.3812   30.2617   45.4409 H   0  0  0  0  0  0  0  0  0  0  0  0
   58.0099   29.0964   46.1323 H   0  0  0  0  0  0  0  0  0  0  0  0
   60.3494   27.6474   47.0686 H   0  0  0  0  0  0  0  0  0  0  0  0
   59.3999   27.3870   45.5661 H   0  0  0  0  0  0  0  0  0  0  0  0
   60.7857   28.5299   45.5661 H   0  0  0  0  0  0  0  0  0  0  0  0
   59.8405   28.9400   48.5358 H   0  0  0  0  0  0  0  0  0  0  0  0
   58.7358   30.3520   48.4247 H   0  0  0  0  0  0  0  0  0  0  0  0
   58.0658   28.6853   48.4247 H   0  0  0  0  0  0  0  0  0  0  0  0
   59.5370   31.3821   48.0369 H   0  0  0  0  0  0  0  0  0  0  0  0
   60.9973   31.7891   47.0949 H   0  0  0  0  0  0  0  0  0  0  0  0
   62.5299   33.4940   45.3095 H   0  0  0  0  0  0  0  0  0  0  0  0
   64.6340   32.9540   46.7380 H   0  0  0  0  0  0  0  0  0  0  0  0
   63.8425   33.0873   50.4589 H   0  0  0  0  0  0  0  0  0  0  0  0
   64.7508   31.9502   49.4059 H   0  0  0  0  0  0  0  0  0  0  0  0
   65.1633   33.6985   49.4059 H   0  0  0  0  0  0  0  0  0  0  0  0
  1  2  1  0
  2  3  2  0
  3  4  1  0
  4  5  1  0
  5  6  1  0
  6  7  1  0
  7  8  1  0
  8  9  1  0
  9 10  1  0
  9 11  2  0
  9 12  2  0
  7 13  1  0
 13 14  1  0
 14 15  1  0
 14 16  1  0
 13 17  1  0
  3 18  1  0
 18 19  2  0
 19 20  1  0
 20 21  1  0
 20  2  1  0
 17  5  1  0
  1 22  1  0
  1 23  1  0
  1 24  1  0
  4 25  1  0
  4 26  1  0
  6 27  1  0
  6 28  1  0
  7 29  1  6
 10 30  1  0
 10 31  1  0
 10 32  1  0
 13 33  1  6
 14 34  1  0
 15 35  1  0
 15 36  1  0
 15 37  1  0
 16 38  1  0
 16 39  1  0
 16 40  1  0
 17 41  1  0
 17 42  1  0
 18 43  1  0
 19 44  1  0
 21 45  1  0
 21 46  1  0
 21 47  1  0
M  CHG  2   8  -1  19   1
M  END
>  <UniqueID>  (47) 
43

>  <SMILES>  (47) 
Cc1c(CN2C[C@H]([N-]S(C)(=O)=O)[C@H](C(C)C)C2)c[nH+]n1C

>  <Energy>  (47) 
81.22418855943826

>  <Genealogy>  (47) 
Cc1c(CN2CC([N-]S(C)(=O)=O)C(C(C)C)C2)c[nH+]n1C (protonated)
Cc1c(CN2C[C@H]([N-]S(C)(=O)=O)[C@H](C(C)C)C2)c[nH+]n1C (chirality)
Cc1c(CN2C[C@H]([N-]S(C)(=O)=O)[C@H](C(C)C)C2)c[nH+]n1C (3D coordinates assigned)
Cc1c(CN2C[C@H]([N-]S(C)(=O)=O)[C@H](C(C)C)C2)c[nH+]n1C (nonaromatic ring conformer: 81.22418855943826 kcal/mol)

>  <smiles>  (47) 
Cc1c(CN2CC(NS(C)(=O)=O)C(C(C)C)C2)cnn1C

>  <score_type>  (47) 
oracle

>  <origin>  (47) 
adg

>  <m_score__min__energy>  (47) 
-8.4299999999999997

>  <m_primary>  (47) 
energy

$$$$
47:0
     RDKit          3D

 57 61  0  0  0  0  0  0  0  0999 V2000
   57.3940   32.3170   44.2650 C   0  0  0  0  0  0  0  0  0  0  0  0
   57.3400   31.2390   45.1940 O   0  0  0  0  0  0  0  0  0  0  0  0
   57.9590   29.9930   45.0090 C   0  0  0  0  0  0  0  0  0  0  0  0
   57.3300   28.9610   44.2820 C   0  0  0  0  0  0  0  0  0  0  0  0
   57.9650   27.7300   44.1090 C   0  0  0  0  0  0  0  0  0  0  0  0
   59.2310   27.5130   44.6480 C   0  0  0  0  0  0  0  0  0  0  0  0
   59.8670   28.5250   45.3690 C   0  0  0  0  0  0  0  0  0  0  0  0
   59.2370   29.7660   45.5690 C   0  0  0  0  0  0  0  0  0  0  0  0
   59.9790   30.8520   46.3290 C   0  0  0  0  0  0  0  0  0  0  0  0
   59.3770   31.1610   47.6500 N   0  0  0  0  0  0  0  0  0  0  0  0
   58.8010   32.3910   47.8950 C   0  0  0  0  0  0  0  0  0  0  0  0
   58.8070   33.7300   46.6860 S   0  0  0  0  0  0  0  0  0  0  0  0
   59.9570   34.7970   47.6180 C   0  0  0  0  0  0  0  0  0  0  0  0
   61.2750   34.0850   47.7890 C   0  0  0  0  0  0  0  0  0  0  0  0
   62.0560   33.8360   46.6460 C   0  0  0  0  0  0  0  0  0  0  0  0
   63.2720   33.1600   46.7510 C   0  0  0  0  0  0  0  0  0  0  0  0
   63.7210   32.7150   47.9930 C   0  0  0  0  0  0  0  0  0  0  0  0
   62.9520   32.9390   49.1370 C   0  0  0  0  0  0  0  0  0  0  0  0
   61.7190   33.6110   49.0510 C   0  0  0  0  0  0  0  0  0  0  0  0
   60.9180   33.8350   50.3070 C   0  0  0  0  0  0  0  0  0  0  0  0
   58.2490   32.6600   49.1050 N   0  0  0  0  0  0  0  0  0  0  0  0
   58.2570   31.7580   50.1120 C   0  0  0  0  0  0  0  0  0  0  0  0
   57.6570   32.0740   51.3350 C   0  0  0  0  0  0  0  0  0  0  0  0
   57.6820   31.1530   52.3920 C   0  0  0  0  0  0  0  0  0  0  0  0
   57.0790   31.4590   53.6220 C   0  0  0  0  0  0  0  0  0  0  0  0
   57.1110   30.5340   54.6690 C   0  0  0  0  0  0  0  0  0  0  0  0
   57.7420   29.2990   54.4980 C   0  0  0  0  0  0  0  0  0  0  0  0
   58.3480   28.9820   53.2780 C   0  0  0  0  0  0  0  0  0  0  0  0
   58.3230   29.9020   52.2180 C   0  0  0  0  0  0  0  0  0  0  0  0
   58.9260   29.5930   50.9900 C   0  0  0  0  0  0  0  0  0  0  0  0
   58.8920   30.5190   49.9290 C   0  0  0  0  0  0  0  0  0  0  0  0
   59.4810   30.2520   48.6810 C   0  0  0  0  0  0  0  0  0  0  0  0
   60.1130   29.1710   48.5150 O   0  0  0  0  0  0  0  0  0  0  0  0
   57.4418   33.2702   44.8118 H   0  0  0  0  0  0  0  0  0  0  0  0
   58.2880   32.2118   43.6328 H   0  0  0  0  0  0  0  0  0  0  0  0
   56.4940   32.3016   43.6328 H   0  0  0  0  0  0  0  0  0  0  0  0
   56.3327   29.1272   43.8486 H   0  0  0  0  0  0  0  0  0  0  0  0
   57.4642   26.9290   43.5454 H   0  0  0  0  0  0  0  0  0  0  0  0
   59.7301   26.5432   44.5053 H   0  0  0  0  0  0  0  0  0  0  0  0
   60.8703   28.3500   45.7845 H   0  0  0  0  0  0  0  0  0  0  0  0
   61.0161   30.5211   46.4869 H   0  0  0  0  0  0  0  0  0  0  0  0
   59.9236   31.7688   45.7236 H   0  0  0  0  0  0  0  0  0  0  0  0
   60.1158   35.7352   47.0662 H   0  0  0  0  0  0  0  0  0  0  0  0
   59.5300   35.0214   48.6066 H   0  0  0  0  0  0  0  0  0  0  0  0
   61.7051   34.1772   45.6609 H   0  0  0  0  0  0  0  0  0  0  0  0
   63.8779   32.9778   45.8511 H   0  0  0  0  0  0  0  0  0  0  0  0
   64.6825   32.1866   48.0723 H   0  0  0  0  0  0  0  0  0  0  0  0
   63.3137   32.5868   50.1143 H   0  0  0  0  0  0  0  0  0  0  0  0
   61.5558   33.6566   51.1853 H   0  0  0  0  0  0  0  0  0  0  0  0
   60.5485   34.8709   50.3264 H   0  0  0  0  0  0  0  0  0  0  0  0
   60.0648   33.1410   50.3264 H   0  0  0  0  0  0  0  0  0  0  0  0
   57.1639   33.0482   51.4682 H   0  0  0  0  0  0  0  0  0  0  0  0
   56.5800   32.4293   53.7621 H   0  0  0  0  0  0  0  0  0  0  0  0
   56.6377   30.7790   55.6313 H   0  0  0  0  0  0  0  0  0  0  0  0
   57.7622   28.5742   55.3252 H   0  0  0  0  0  0  0  0  0  0  0  0
   58.8454   28.0094   53.1488 H   0  0  0  0  0  0  0  0  0  0  0  0
   59.4276   28.6234   50.8548 H   0  0  0  0  0  0  0  0  0  0  0  0
  1  2  1  0
  2  3  1  0
  3  4  2  0
  4  5  1  0
  5  6  2  0
  6  7  1  0
  7  8  2  0
  8  9  1  0
  9 10  1  0
 10 11  1  0
 11 12  1  0
 12 13  1  0
 13 14  1  0
 14 15  2  0
 15 16  1  0
 16 17  2  0
 17 18  1  0
 18 19  2  0
 19 20  1  0
 11 21  2  0
 21 22  1  0
 22 23  2  0
 23 24  1  0
 24 25  2  0
 25 26  1  0
 26 27  2  0
 27 28  1  0
 28 29  2  0
 29 30  1  0
 30 31  2  0
 31 32  1  0
 32 33  2  0
  8  3  1  0
 32 10  1  0
 19 14  1  0
 31 22  1  0
 29 24  1  0
  1 34  1  0
  1 35  1  0
  1 36  1  0
  4 37  1  0
  5 38  1  0
  6 39  1  0
  7 40  1  0
  9 41  1  0
  9 42  1  0
 13 43  1  0
 13 44  1  0
 15 45  1  0
 16 46  1  0
 17 47  1  0
 18 48  1  0
 20 49  1  0
 20 50  1  0
 20 51  1  0
 23 52  1  0
 25 53  1  0
 26 54  1  0
 27 55  1  0
 28 56  1  0
 30 57  1  0
M  END
>  <UniqueID>  (48) 
44

>  <SMILES>  (48) 
COc1ccccc1Cn1c(SCc2ccccc2C)nc2cc3ccccc3cc2c1=O

>  <Energy>  (48) 
73.93575093055608

>  <Genealogy>  (48) 
COc1ccccc1Cn1c(SCc2ccccc2C)nc2cc3ccccc3cc2c1=O (3D coordinates assigned)
COc1ccccc1Cn1c(SCc2ccccc2C)nc2cc3ccccc3cc2c1=O (optimized conformer: 73.93575093055608 kcal/mol)

>  <smiles>  (48) 
COc1ccccc1Cn1c(SCc2ccccc2C)nc2cc3ccccc3cc2c1=O

>  <score_type>  (48) 
oracle

>  <origin>  (48) 
adg

>  <m_score__min__energy>  (48) 
-8.6199999999999992

>  <m_primary>  (48) 
energy

$$$$
