0:0
     RDKit          3D

 57 59  0  0  0  0  0  0  0  0999 V2000
   56.2720   29.7580   43.0890 C   0  0  0  0  0  0  0  0  0  0  0  0
   56.9870   31.0960   43.2440 C   0  0  0  0  0  0  0  0  0  0  0  0
   57.0850   31.4750   44.6660 N   0  0  0  0  0  0  0  0  0  0  0  0
   57.7260   30.4400   45.5060 C   0  0  0  0  0  0  0  0  0  0  0  0
   59.1440   30.0640   45.0610 C   0  0  0  0  0  0  0  0  0  0  0  0
   57.7420   33.0850   44.9260 S   0  0  0  0  0  0  0  0  0  0  0  0
   58.6570   33.4230   43.7820 O   0  0  0  0  0  0  0  0  0  0  0  0
   56.6250   34.0930   44.9200 O   0  0  0  0  0  0  0  0  0  0  0  0
   58.6550   33.2580   46.4320 C   0  0  0  0  0  0  0  0  0  0  0  0
   59.8730   33.9840   46.4440 C   0  0  0  0  0  0  0  0  0  0  0  0
   60.6060   34.1450   47.6330 C   0  0  0  0  0  0  0  0  0  0  0  0
   60.0840   33.5810   48.7980 C   0  0  0  0  0  0  0  0  0  0  0  0
   58.8980   32.9040   48.7960 C   0  0  0  0  0  0  0  0  0  0  0  0
   58.1460   32.7280   47.6380 C   0  0  0  0  0  0  0  0  0  0  0  0
   58.6170   32.4760   50.0360 N   0  0  0  0  0  0  0  0  0  0  0  0
   59.6660   32.8990   50.7810 C   0  0  0  0  0  0  0  0  0  0  0  0
   59.8070   32.5760   52.5430 S   0  0  0  0  0  0  0  0  0  0  0  0
   59.1270   30.8780   52.4540 C   0  0  0  0  0  0  0  0  0  0  0  0
   57.6390   30.8560   52.7910 C   0  0  0  0  0  0  0  0  0  0  0  0
   56.9000   30.4730   51.6500 O   0  0  0  0  0  0  0  0  0  0  0  0
   55.5230   30.5620   51.9350 C   0  0  0  0  0  0  0  0  0  0  0  0
   60.5800   33.5970   50.0540 N   0  0  0  0  0  0  0  0  0  0  0  0
   61.8200   34.2170   50.5330 C   0  0  0  0  0  0  0  0  0  0  0  0
   62.9460   33.2200   50.5330 C   0  0  0  0  0  0  0  0  0  0  0  0
   62.8510   32.0350   51.2830 C   0  0  0  0  0  0  0  0  0  0  0  0
   63.8930   31.1020   51.2630 C   0  0  0  0  0  0  0  0  0  0  0  0
   65.0380   31.3470   50.5000 C   0  0  0  0  0  0  0  0  0  0  0  0
   65.1430   32.5260   49.7570 C   0  0  0  0  0  0  0  0  0  0  0  0
   64.1040   33.4610   49.7730 C   0  0  0  0  0  0  0  0  0  0  0  0
   56.0504   29.3433   44.0835 H   0  0  0  0  0  0  0  0  0  0  0  0
   55.3328   29.9061   42.5359 H   0  0  0  0  0  0  0  0  0  0  0  0
   56.9171   29.0595   42.5359 H   0  0  0  0  0  0  0  0  0  0  0  0
   57.9994   31.0151   42.8216 H   0  0  0  0  0  0  0  0  0  0  0  0
   56.4111   31.8676   42.7120 H   0  0  0  0  0  0  0  0  0  0  0  0
   57.7760   30.8152   46.5388 H   0  0  0  0  0  0  0  0  0  0  0  0
   57.1128   29.5315   45.4138 H   0  0  0  0  0  0  0  0  0  0  0  0
   59.7741   29.8969   45.9470 H   0  0  0  0  0  0  0  0  0  0  0  0
   59.1075   29.1445   44.4583 H   0  0  0  0  0  0  0  0  0  0  0  0
   59.5679   30.8808   44.4583 H   0  0  0  0  0  0  0  0  0  0  0  0
   60.2495   34.4273   45.5103 H   0  0  0  0  0  0  0  0  0  0  0  0
   61.5578   34.6963   47.6446 H   0  0  0  0  0  0  0  0  0  0  0  0
   57.1853   32.1928   47.6615 H   0  0  0  0  0  0  0  0  0  0  0  0
   57.7800   31.9380   50.3540 H   0  0  0  0  0  0  0  0  0  0  0  0
   59.2690   30.4885   51.4351 H   0  0  0  0  0  0  0  0  0  0  0  0
   59.6575   30.2536   53.1880 H   0  0  0  0  0  0  0  0  0  0  0  0
   57.4582   30.1361   53.6028 H   0  0  0  0  0  0  0  0  0  0  0  0
   57.3223   31.8596   53.1112 H   0  0  0  0  0  0  0  0  0  0  0  0
   55.3740   30.5716   53.0248 H   0  0  0  0  0  0  0  0  0  0  0  0
   55.1179   31.4882   51.5013 H   0  0  0  0  0  0  0  0  0  0  0  0
   55.0021   29.6957   51.5013 H   0  0  0  0  0  0  0  0  0  0  0  0
   62.0818   35.0576   49.8736 H   0  0  0  0  0  0  0  0  0  0  0  0
   61.6631   34.5740   51.5616 H   0  0  0  0  0  0  0  0  0  0  0  0
   61.9533   31.8405   51.8883 H   0  0  0  0  0  0  0  0  0  0  0  0
   63.8111   30.1744   51.8485 H   0  0  0  0  0  0  0  0  0  0  0  0
   65.8563   30.6121   50.4843 H   0  0  0  0  0  0  0  0  0  0  0  0
   66.0454   32.7187   49.1582 H   0  0  0  0  0  0  0  0  0  0  0  0
   64.1927   34.3888   49.1888 H   0  0  0  0  0  0  0  0  0  0  0  0
  1  2  1  0
  2  3  1  0
  3  4  1  0
  4  5  1  0
  3  6  1  0
  6  7  2  0
  6  8  2  0
  6  9  1  0
  9 10  2  0
 10 11  1  0
 11 12  2  0
 12 13  1  0
 13 14  2  0
 13 15  1  0
 15 16  2  0
 16 17  1  0
 17 18  1  0
 18 19  1  0
 19 20  1  0
 20 21  1  0
 16 22  1  0
 22 23  1  0
 23 24  1  0
 24 25  2  0
 25 26  1  0
 26 27  2  0
 27 28  1  0
 28 29  2  0
 14  9  1  0
 29 24  1  0
 22 12  1  0
  1 30  1  0
  1 31  1  0
  1 32  1  0
  2 33  1  0
  2 34  1  0
  4 35  1  0
  4 36  1  0
  5 37  1  0
  5 38  1  0
  5 39  1  0
 10 40  1  0
 11 41  1  0
 14 42  1  0
 15 43  1  0
 18 44  1  0
 18 45  1  0
 19 46  1  0
 19 47  1  0
 21 48  1  0
 21 49  1  0
 21 50  1  0
 23 51  1  0
 23 52  1  0
 25 53  1  0
 26 54  1  0
 27 55  1  0
 28 56  1  0
 29 57  1  0
M  CHG  1  15   1
M  END
>  <UniqueID>  (1) 
1

>  <SMILES>  (1) 
CCN(CC)S(=O)(=O)c1ccc2c(c1)[nH+]c(SCCOC)n2Cc1ccccc1

>  <Energy>  (1) 
90.41345914958967

>  <Genealogy>  (1) 
CCN(CC)S(=O)(=O)c1ccc2c(c1)[nH+]c(SCCOC)n2Cc1ccccc1 (protonated)
CCN(CC)S(=O)(=O)c1ccc2c(c1)[nH+]c(SCCOC)n2Cc1ccccc1 (3D coordinates assigned)
CCN(CC)S(=O)(=O)c1ccc2c(c1)[nH+]c(SCCOC)n2Cc1ccccc1 (optimized conformer: 90.41345914958967 kcal/mol)

>  <smiles>  (1) 
CCN(CC)S(=O)(=O)c1ccc2c(c1)nc(SCCOC)n2Cc1ccccc1

>  <score_type>  (1) 
oracle

>  <origin>  (1) 
adg

>  <m_score__min__energy>  (1) 
-6.8099999999999996

>  <m_primary>  (1) 
energy

$$$$
1:0
     RDKit          3D

 54 58  0  0  0  0  0  0  0  0999 V2000
   62.7310   34.5940   50.0870 C   0  0  0  0  0  0  0  0  0  0  0  0
   62.7310   33.6990   48.9350 N   0  0  0  0  0  0  0  0  0  0  0  0
   63.3890   33.9220   47.8010 N   0  0  0  0  0  0  0  0  0  0  0  0
   63.1630   32.8990   46.9440 C   0  0  0  0  0  0  0  0  0  0  0  0
   62.3250   32.0030   47.5760 C   0  0  0  0  0  0  0  0  0  0  0  0
   61.7750   30.7940   47.1620 C   0  0  0  0  0  0  0  0  0  0  0  0
   60.9440   30.1040   48.0710 C   0  0  0  0  0  0  0  0  0  0  0  0
   60.3280   28.8230   47.6750 C   0  0  0  0  0  0  0  0  0  0  0  0
   60.7240   27.6590   48.3500 C   0  0  0  0  0  0  0  0  0  0  0  0
   60.1650   26.4270   48.0210 C   0  0  0  0  0  0  0  0  0  0  0  0
   59.2010   26.3370   47.0180 C   0  0  0  0  0  0  0  0  0  0  0  0
   58.6570   25.1260   46.7360 F   0  0  0  0  0  0  0  0  0  0  0  0
   58.7910   27.4880   46.3210 C   0  0  0  0  0  0  0  0  0  0  0  0
   59.3440   28.7490   46.6570 C   0  0  0  0  0  0  0  0  0  0  0  0
   58.8650   30.0200   45.9740 C   0  0  0  0  0  0  0  0  0  0  0  0
   57.8400   29.7850   44.9450 N   0  0  0  0  0  0  0  0  0  0  0  0
   57.0940   30.9050   44.4280 C   0  0  0  0  0  0  0  0  0  0  0  0
   55.8330   30.9040   44.4860 O   0  0  0  0  0  0  0  0  0  0  0  0
   57.7660   31.9950   43.8590 O   0  0  0  0  0  0  0  0  0  0  0  0
   57.5110   33.3500   44.2210 C   0  0  0  0  0  0  0  0  0  0  0  0
   58.2760   33.7110   45.4650 C   0  0  0  0  0  0  0  0  0  0  0  0
   59.3150   34.6550   45.4210 C   0  0  0  0  0  0  0  0  0  0  0  0
   60.0030   35.0000   46.5890 C   0  0  0  0  0  0  0  0  0  0  0  0
   59.6560   34.4080   47.8060 C   0  0  0  0  0  0  0  0  0  0  0  0
   58.6200   33.4720   47.8590 C   0  0  0  0  0  0  0  0  0  0  0  0
   57.9300   33.1240   46.6940 C   0  0  0  0  0  0  0  0  0  0  0  0
   57.7940   28.4900   44.2620 C   0  0  0  0  0  0  0  0  0  0  0  0
   57.6970   27.3740   45.2920 C   0  0  0  0  0  0  0  0  0  0  0  0
   60.6790   30.6580   49.3510 C   0  0  0  0  0  0  0  0  0  0  0  0
   61.2510   31.8850   49.7350 C   0  0  0  0  0  0  0  0  0  0  0  0
   62.0750   32.5300   48.8130 C   0  0  0  0  0  0  0  0  0  0  0  0
   63.7681   34.8190   50.3765 H   0  0  0  0  0  0  0  0  0  0  0  0
   62.2125   35.5282   49.8255 H   0  0  0  0  0  0  0  0  0  0  0  0
   62.2125   34.1097   50.9276 H   0  0  0  0  0  0  0  0  0  0  0  0
   63.9830   34.7590   47.6100 H   0  0  0  0  0  0  0  0  0  0  0  0
   63.5729   32.7998   45.9281 H   0  0  0  0  0  0  0  0  0  0  0  0
   61.9807   30.3893   46.1600 H   0  0  0  0  0  0  0  0  0  0  0  0
   61.4817   27.7199   49.1451 H   0  0  0  0  0  0  0  0  0  0  0  0
   60.4856   25.5203   48.5551 H   0  0  0  0  0  0  0  0  0  0  0  0
   58.4429   30.6881   46.7391 H   0  0  0  0  0  0  0  0  0  0  0  0
   59.7356   30.4618   45.4672 H   0  0  0  0  0  0  0  0  0  0  0  0
   57.8234   34.0103   43.3985 H   0  0  0  0  0  0  0  0  0  0  0  0
   56.4351   33.4722   44.4145 H   0  0  0  0  0  0  0  0  0  0  0  0
   59.5887   35.1247   44.4647 H   0  0  0  0  0  0  0  0  0  0  0  0
   60.8178   35.7379   46.5493 H   0  0  0  0  0  0  0  0  0  0  0  0
   60.1990   34.6791   48.7234 H   0  0  0  0  0  0  0  0  0  0  0  0
   58.3470   33.0084   48.8185 H   0  0  0  0  0  0  0  0  0  0  0  0
   57.1135   32.3883   46.7395 H   0  0  0  0  0  0  0  0  0  0  0  0
   56.9155   28.4556   43.6009 H   0  0  0  0  0  0  0  0  0  0  0  0
   58.7087   28.3585   43.6653 H   0  0  0  0  0  0  0  0  0  0  0  0
   56.7215   27.4350   45.7967 H   0  0  0  0  0  0  0  0  0  0  0  0
   57.8049   26.4100   44.7733 H   0  0  0  0  0  0  0  0  0  0  0  0
   60.0196   30.1225   50.0499 H   0  0  0  0  0  0  0  0  0  0  0  0
   61.0553   32.3196   50.7264 H   0  0  0  0  0  0  0  0  0  0  0  0
  1  2  1  0
  2  3  1  0
  3  4  2  0
  4  5  1  0
  5  6  2  0
  6  7  1  0
  7  8  1  0
  8  9  2  0
  9 10  1  0
 10 11  2  0
 11 12  1  0
 11 13  1  0
 13 14  2  0
 14 15  1  0
 15 16  1  0
 16 17  1  0
 17 18  2  0
 17 19  1  0
 19 20  1  0
 20 21  1  0
 21 22  2  0
 22 23  1  0
 23 24  2  0
 24 25  1  0
 25 26  2  0
 16 27  1  0
 27 28  1  0
  7 29  2  0
 29 30  1  0
 30 31  2  0
 31  2  1  0
 31  5  1  0
 14  8  1  0
 26 21  1  0
 28 13  1  0
  1 32  1  0
  1 33  1  0
  1 34  1  0
  3 35  1  0
  4 36  1  0
  6 37  1  0
  9 38  1  0
 10 39  1  0
 15 40  1  0
 15 41  1  0
 20 42  1  0
 20 43  1  0
 22 44  1  0
 23 45  1  0
 24 46  1  0
 25 47  1  0
 26 48  1  0
 27 49  1  0
 27 50  1  0
 28 51  1  0
 28 52  1  0
 29 53  1  0
 30 54  1  0
M  CHG  1   3   1
M  END
>  <UniqueID>  (2) 
2

>  <SMILES>  (2) 
Cn1[nH+]cc2cc(-c3ccc(F)c4c3CN(C(=O)OCc3ccccc3)CC4)ccc21

>  <Energy>  (2) 
106.7246037575829

>  <Genealogy>  (2) 
Cn1[nH+]cc2cc(-c3ccc(F)c4c3CN(C(=O)OCc3ccccc3)CC4)ccc21 (protonated)
Cn1[nH+]cc2cc(-c3ccc(F)c4c3CN(C(=O)OCc3ccccc3)CC4)ccc21 (3D coordinates assigned)
Cn1[nH+]cc2cc(-c3ccc(F)c4c3CN(C(=O)OCc3ccccc3)CC4)ccc21 (nonaromatic ring conformer: 106.7246037575829 kcal/mol)

>  <smiles>  (2) 
Cn1ncc2cc(-c3ccc(F)c4c3CN(C(=O)OCc3ccccc3)CC4)ccc21

>  <score_type>  (2) 
oracle

>  <origin>  (2) 
adg

>  <m_score__min__energy>  (2) 
-8.0600000000000005

>  <m_primary>  (2) 
energy

$$$$
2:0
     RDKit          3D

 49 50  0  0  0  0  0  0  0  0999 V2000
   58.9430   29.8640   48.7930 C   0  0  0  0  0  0  0  0  0  0  0  0
   59.4690   30.7300   47.6500 C   0  0  0  0  0  0  0  0  0  0  0  0
   58.8740   32.1380   47.7010 C   0  0  0  0  0  0  0  0  0  0  0  0
   59.9490   33.1470   47.5330 N   0  0  0  0  0  0  0  0  0  0  0  0
   61.2840   32.5040   47.4230 C   0  0  0  0  0  0  0  0  0  0  0  0
   62.3140   33.4630   46.7980 C   0  0  0  0  0  0  0  0  0  0  0  0
   63.7580   33.1070   47.1520 C   0  0  0  0  0  0  0  0  0  0  0  0
   59.6630   34.0360   46.3760 C   0  0  0  0  0  0  0  0  0  0  0  0
   58.1480   34.2350   46.1800 C   0  0  0  0  0  0  0  0  0  0  0  0
   57.6250   33.8200   44.7960 C   0  0  0  0  0  0  0  0  0  0  0  0
   56.9000   32.5570   44.8810 N   0  0  0  0  0  0  0  0  0  0  0  0
   57.1520   31.4320   44.0240 C   0  0  0  0  0  0  0  0  0  0  0  0
   57.4210   31.6410   42.8120 O   0  0  0  0  0  0  0  0  0  0  0  0
   57.1490   30.0420   44.5360 C   0  0  0  0  0  0  0  0  0  0  0  0
   55.9270   29.3820   44.7250 C   0  0  0  0  0  0  0  0  0  0  0  0
   55.8970   28.1300   45.2510 N   0  0  0  0  0  0  0  0  0  0  0  0
   57.0320   27.4710   45.6130 C   0  0  0  0  0  0  0  0  0  0  0  0
   56.9470   26.1820   46.1470 C   0  0  0  0  0  0  0  0  0  0  0  0
   58.1040   25.5010   46.5160 C   0  0  0  0  0  0  0  0  0  0  0  0
   59.3540   26.1030   46.3570 C   0  0  0  0  0  0  0  0  0  0  0  0
   59.4530   27.3880   45.8220 C   0  0  0  0  0  0  0  0  0  0  0  0
   58.2920   28.0880   45.4450 C   0  0  0  0  0  0  0  0  0  0  0  0
   58.3430   29.3880   44.9010 C   0  0  0  0  0  0  0  0  0  0  0  0
   59.4550   29.9600   44.7250 O   0  0  0  0  0  0  0  0  0  0  0  0
   59.2196   30.3194   49.7553 H   0  0  0  0  0  0  0  0  0  0  0  0
   57.8477   29.7907   48.7234 H   0  0  0  0  0  0  0  0  0  0  0  0
   59.3829   28.8582   48.7234 H   0  0  0  0  0  0  0  0  0  0  0  0
   60.5639   30.8006   47.7284 H   0  0  0  0  0  0  0  0  0  0  0  0
   59.1765   30.2635   46.6977 H   0  0  0  0  0  0  0  0  0  0  0  0
   58.1371   32.2521   46.8923 H   0  0  0  0  0  0  0  0  0  0  0  0
   58.3843   32.2892   48.6743 H   0  0  0  0  0  0  0  0  0  0  0  0
   61.6266   32.2144   48.4273 H   0  0  0  0  0  0  0  0  0  0  0  0
   61.1926   31.6201   46.7746 H   0  0  0  0  0  0  0  0  0  0  0  0
   62.2037   33.4304   45.7040 H   0  0  0  0  0  0  0  0  0  0  0  0
   62.1153   34.4663   47.2027 H   0  0  0  0  0  0  0  0  0  0  0  0
   63.8712   33.0791   48.2458 H   0  0  0  0  0  0  0  0  0  0  0  0
   64.0059   32.1208   46.7325 H   0  0  0  0  0  0  0  0  0  0  0  0
   64.4359   33.8649   46.7325 H   0  0  0  0  0  0  0  0  0  0  0  0
   60.1325   35.0150   46.5524 H   0  0  0  0  0  0  0  0  0  0  0  0
   60.0701   33.5651   45.4691 H   0  0  0  0  0  0  0  0  0  0  0  0
   57.6219   33.6379   46.9394 H   0  0  0  0  0  0  0  0  0  0  0  0
   57.9592   35.3145   46.2752 H   0  0  0  0  0  0  0  0  0  0  0  0
   56.9494   34.6002   44.4155 H   0  0  0  0  0  0  0  0  0  0  0  0
   58.4803   33.6940   44.1158 H   0  0  0  0  0  0  0  0  0  0  0  0
   54.9871   29.8807   44.4458 H   0  0  0  0  0  0  0  0  0  0  0  0
   55.9643   25.7048   46.2759 H   0  0  0  0  0  0  0  0  0  0  0  0
   58.0333   24.4859   46.9339 H   0  0  0  0  0  0  0  0  0  0  0  0
   60.2643   25.5620   46.6547 H   0  0  0  0  0  0  0  0  0  0  0  0
   60.4409   27.8548   45.6947 H   0  0  0  0  0  0  0  0  0  0  0  0
  1  2  1  0
  2  3  1  0
  3  4  1  0
  4  5  1  0
  5  6  1  0
  6  7  1  0
  4  8  1  0
  8  9  1  0
  9 10  1  0
 10 11  1  0
 11 12  1  0
 12 13  2  0
 12 14  1  0
 14 15  2  0
 15 16  1  0
 16 17  1  0
 17 18  2  0
 18 19  1  0
 19 20  2  0
 20 21  1  0
 21 22  2  0
 22 23  1  0
 23 24  2  0
 23 14  1  0
 22 17  1  0
  1 25  1  0
  1 26  1  0
  1 27  1  0
  2 28  1  0
  2 29  1  0
  3 30  1  0
  3 31  1  0
  5 32  1  0
  5 33  1  0
  6 34  1  0
  6 35  1  0
  7 36  1  0
  7 37  1  0
  7 38  1  0
  8 39  1  0
  8 40  1  0
  9 41  1  0
  9 42  1  0
 10 43  1  0
 10 44  1  0
 15 45  1  0
 18 46  1  0
 19 47  1  0
 20 48  1  0
 21 49  1  0
M  CHG  2  11  -1  16  -1
M  END
>  <UniqueID>  (3) 
3

>  <SMILES>  (3) 
CCCN(CCC)CCC[N-]C(=O)c1c[n-]c2ccccc2c1=O

>  <Energy>  (3) 
53.28796764080217

>  <Genealogy>  (3) 
CCCN(CCC)CCC[N-]C(=O)c1c[n-]c2ccccc2c1=O (protonated)
CCCN(CCC)CCC[N-]C(=O)c1c[n-]c2ccccc2c1=O (3D coordinates assigned)
CCCN(CCC)CCC[N-]C(=O)c1c[n-]c2ccccc2c1=O (optimized conformer: 53.28796764080217 kcal/mol)

>  <smiles>  (3) 
CCCN(CCC)CCCNC(=O)c1c[nH]c2ccccc2c1=O

>  <score_type>  (3) 
oracle

>  <origin>  (3) 
adg

>  <m_score__min__energy>  (3) 
-9.7300000000000004

>  <m_primary>  (3) 
energy

$$$$
3:0
     RDKit          3D

 49 51  0  0  0  0  0  0  0  0999 V2000
   60.2130   29.2740   44.8540 C   0  0  0  0  0  0  0  0  0  0  0  0
   59.9080   29.1000   46.3420 C   0  0  0  0  0  0  0  0  0  0  0  0
   59.7810   27.6250   46.7530 C   0  0  0  0  0  0  0  0  0  0  0  0
   58.5280   27.3520   47.5870 C   0  0  0  0  0  0  0  0  0  0  0  0
   57.6060   26.5260   46.8210 N   0  0  0  0  0  0  0  0  0  0  0  0
   56.6380   27.0700   45.9220 C   0  0  0  0  0  0  0  0  0  0  0  0
   55.4350   26.6920   45.9690 O   0  0  0  0  0  0  0  0  0  0  0  0
   57.0480   28.1300   44.9510 C   0  0  0  0  0  0  0  0  0  0  0  0
   55.7070   29.3490   44.7290 S   0  0  0  0  0  0  0  0  0  0  0  0
   56.8040   30.7130   44.3440 C   0  0  0  0  0  0  0  0  0  0  0  0
   56.9980   31.1220   43.0060 C   0  0  0  0  0  0  0  0  0  0  0  0
   57.8380   32.2120   42.7220 C   0  0  0  0  0  0  0  0  0  0  0  0
   58.4610   32.8230   43.8020 C   0  0  0  0  0  0  0  0  0  0  0  0
   59.2620   33.9040   43.7860 N   0  0  0  0  0  0  0  0  0  0  0  0
   59.5770   34.1500   45.0580 N   0  0  0  0  0  0  0  0  0  0  0  0
   58.9690   33.2110   45.8250 C   0  0  0  0  0  0  0  0  0  0  0  0
   59.0520   33.1690   47.3030 C   0  0  0  0  0  0  0  0  0  0  0  0
   59.6040   34.2330   48.0360 C   0  0  0  0  0  0  0  0  0  0  0  0
   59.6690   34.1760   49.4310 C   0  0  0  0  0  0  0  0  0  0  0  0
   59.1730   33.0520   50.1210 C   0  0  0  0  0  0  0  0  0  0  0  0
   59.2160   32.9370   51.5200 O   0  0  0  0  0  0  0  0  0  0  0  0
   58.1670   33.3010   52.4160 C   0  0  0  0  0  0  0  0  0  0  0  0
   57.0150   32.3040   52.3330 C   0  0  0  0  0  0  0  0  0  0  0  0
   58.6160   31.9970   49.3890 C   0  0  0  0  0  0  0  0  0  0  0  0
   58.5480   32.0570   47.9940 C   0  0  0  0  0  0  0  0  0  0  0  0
   58.2650   32.3750   45.0430 N   0  0  0  0  0  0  0  0  0  0  0  0
   57.4530   31.3660   45.3510 N   0  0  0  0  0  0  0  0  0  0  0  0
   61.1629   29.8159   44.7353 H   0  0  0  0  0  0  0  0  0  0  0  0
   60.2928   28.2855   44.3780 H   0  0  0  0  0  0  0  0  0  0  0  0
   59.4027   29.8458   44.3780 H   0  0  0  0  0  0  0  0  0  0  0  0
   60.7211   29.5586   46.9238 H   0  0  0  0  0  0  0  0  0  0  0  0
   58.9411   29.5849   46.5418 H   0  0  0  0  0  0  0  0  0  0  0  0
   59.7398   27.0081   45.8432 H   0  0  0  0  0  0  0  0  0  0  0  0
   60.6546   27.3758   47.3732 H   0  0  0  0  0  0  0  0  0  0  0  0
   58.8100   26.8264   48.5112 H   0  0  0  0  0  0  0  0  0  0  0  0
   58.0417   28.3054   47.8413 H   0  0  0  0  0  0  0  0  0  0  0  0
   57.9436   28.6427   45.3319 H   0  0  0  0  0  0  0  0  0  0  0  0
   57.2639   27.6587   43.9808 H   0  0  0  0  0  0  0  0  0  0  0  0
   56.4924   30.5882   42.1878 H   0  0  0  0  0  0  0  0  0  0  0  0
   57.9947   32.5648   41.6920 H   0  0  0  0  0  0  0  0  0  0  0  0
   59.9881   35.1181   47.5077 H   0  0  0  0  0  0  0  0  0  0  0  0
   60.1095   35.0127   49.9930 H   0  0  0  0  0  0  0  0  0  0  0  0
   58.5588   33.3149   53.4437 H   0  0  0  0  0  0  0  0  0  0  0  0
   57.7930   34.2969   52.1360 H   0  0  0  0  0  0  0  0  0  0  0  0
   56.6955   32.0275   53.3486 H   0  0  0  0  0  0  0  0  0  0  0  0
   56.1717   32.7620   51.7953 H   0  0  0  0  0  0  0  0  0  0  0  0
   57.3472   31.4037   51.7953 H   0  0  0  0  0  0  0  0  0  0  0  0
   58.2283   31.1128   49.9161 H   0  0  0  0  0  0  0  0  0  0  0  0
   58.0956   31.2255   47.4336 H   0  0  0  0  0  0  0  0  0  0  0  0
  1  2  1  0
  2  3  1  0
  3  4  1  0
  4  5  1  0
  5  6  1  0
  6  7  2  0
  6  8  1  0
  8  9  1  0
  9 10  1  0
 10 11  1  0
 11 12  2  0
 12 13  1  0
 13 14  2  0
 14 15  1  0
 15 16  2  0
 16 17  1  0
 17 18  2  0
 18 19  1  0
 19 20  2  0
 20 21  1  0
 21 22  1  0
 22 23  1  0
 20 24  1  0
 24 25  2  0
 16 26  1  0
 26 27  1  0
 27 10  2  0
 26 13  1  0
 25 17  1  0
  1 28  1  0
  1 29  1  0
  1 30  1  0
  2 31  1  0
  2 32  1  0
  3 33  1  0
  3 34  1  0
  4 35  1  0
  4 36  1  0
  8 37  1  0
  8 38  1  0
 11 39  1  0
 12 40  1  0
 18 41  1  0
 19 42  1  0
 22 43  1  0
 22 44  1  0
 23 45  1  0
 23 46  1  0
 23 47  1  0
 24 48  1  0
 25 49  1  0
M  CHG  1   5  -1
M  END
>  <UniqueID>  (4) 
4

>  <SMILES>  (4) 
CCCC[N-]C(=O)CSc1ccc2nnc(-c3ccc(OCC)cc3)n2n1

>  <Energy>  (4) 
80.1674213991814

>  <Genealogy>  (4) 
CCCC[N-]C(=O)CSc1ccc2nnc(-c3ccc(OCC)cc3)n2n1 (protonated)
CCCC[N-]C(=O)CSc1ccc2nnc(-c3ccc(OCC)cc3)n2n1 (3D coordinates assigned)
CCCC[N-]C(=O)CSc1ccc2nnc(-c3ccc(OCC)cc3)n2n1 (optimized conformer: 80.1674213991814 kcal/mol)

>  <smiles>  (4) 
CCCCNC(=O)CSc1ccc2nnc(-c3ccc(OCC)cc3)n2n1

>  <score_type>  (4) 
oracle

>  <origin>  (4) 
adg

>  <m_score__min__energy>  (4) 
-10.039999999999999

>  <m_primary>  (4) 
energy

$$$$
4:0
     RDKit          3D

 40 40  0  0  0  0  0  0  0  0999 V2000
   57.3850   32.3450   40.8230 C   0  0  0  0  0  0  0  0  0  0  0  0
   58.0810   32.4370   42.1800 C   0  0  0  0  0  0  0  0  0  0  0  0
   57.8340   31.1690   43.0140 C   0  0  0  0  0  0  0  0  0  0  0  0
   56.6720   31.3100   44.0170 C   0  0  2  0  0  0  0  0  0  0  0  0
   57.1500   31.8550   45.2950 N   0  0  0  0  0  0  0  0  0  0  0  0
   57.3720   33.2560   45.4970 C   0  0  0  0  0  0  0  0  0  0  0  0
   57.0320   34.0860   44.6100 O   0  0  0  0  0  0  0  0  0  0  0  0
   57.9740   33.6800   46.6910 O   0  0  0  0  0  0  0  0  0  0  0  0
   59.3540   34.0260   46.8720 C   0  0  0  0  0  0  0  0  0  0  0  0
   59.6480   35.2190   45.9490 C   0  0  0  0  0  0  0  0  0  0  0  0
   60.2660   32.8510   46.4700 C   0  0  0  0  0  0  0  0  0  0  0  0
   59.6240   34.4470   48.3300 C   0  0  0  0  0  0  0  0  0  0  0  0
   55.9450   30.0030   44.2070 C   0  0  0  0  0  0  0  0  0  0  0  0
   54.9510   29.7140   43.4830 O   0  0  0  0  0  0  0  0  0  0  0  0
   56.3670   29.1240   45.2620 N   0  0  0  0  0  0  0  0  0  0  0  0
   57.5960   28.8750   45.6060 C   0  0  0  0  0  0  0  0  0  0  0  0
   58.1760   29.3150   46.7450 N   0  0  0  0  0  0  0  0  0  0  0  0
   59.4660   28.8960   46.8400 C   0  0  0  0  0  0  0  0  0  0  0  0
   59.9150   28.1220   45.7740 C   0  0  0  0  0  0  0  0  0  0  0  0
   58.6490   27.9570   44.6750 S   0  0  0  0  0  0  0  0  0  0  0  0
   56.3048   32.2022   40.9739 H   0  0  0  0  0  0  0  0  0  0  0  0
   57.5569   33.2737   40.2591 H   0  0  0  0  0  0  0  0  0  0  0  0
   57.7922   31.4929   40.2591 H   0  0  0  0  0  0  0  0  0  0  0  0
   59.1628   32.5582   42.0218 H   0  0  0  0  0  0  0  0  0  0  0  0
   57.6718   33.3001   42.7255 H   0  0  0  0  0  0  0  0  0  0  0  0
   57.6035   30.3405   42.3281 H   0  0  0  0  0  0  0  0  0  0  0  0
   58.7465   30.9838   43.5997 H   0  0  0  0  0  0  0  0  0  0  0  0
   55.9471   32.0234   43.5979 H   0  0  0  0  0  0  0  0  0  0  0  0
   57.4680   31.2080   46.0510 H   0  0  0  0  0  0  0  0  0  0  0  0
   59.8672   36.1084   46.5580 H   0  0  0  0  0  0  0  0  0  0  0  0
   60.5157   34.9863   45.3142 H   0  0  0  0  0  0  0  0  0  0  0  0
   58.7716   35.4162   45.3142 H   0  0  0  0  0  0  0  0  0  0  0  0
   60.6489   32.3576   47.3755 H   0  0  0  0  0  0  0  0  0  0  0  0
   59.6906   32.1276   45.8737 H   0  0  0  0  0  0  0  0  0  0  0  0
   61.1096   33.2290   45.8737 H   0  0  0  0  0  0  0  0  0  0  0  0
   59.1586   33.7214   49.0133 H   0  0  0  0  0  0  0  0  0  0  0  0
   60.7090   34.4752   48.5086 H   0  0  0  0  0  0  0  0  0  0  0  0
   59.1970   35.4449   48.5086 H   0  0  0  0  0  0  0  0  0  0  0  0
   60.1077   29.1501   47.6965 H   0  0  0  0  0  0  0  0  0  0  0  0
   60.9220   27.6924   45.6676 H   0  0  0  0  0  0  0  0  0  0  0  0
  1  2  1  0
  2  3  1  0
  3  4  1  0
  4  5  1  0
  5  6  1  0
  6  7  2  0
  6  8  1  0
  8  9  1  0
  9 10  1  0
  9 11  1  0
  9 12  1  0
  4 13  1  0
 13 14  2  0
 13 15  1  0
 15 16  2  3
 16 17  1  0
 17 18  1  0
 18 19  2  0
 19 20  1  0
 20 16  1  0
  1 21  1  0
  1 22  1  0
  1 23  1  0
  2 24  1  0
  2 25  1  0
  3 26  1  0
  3 27  1  0
  4 28  1  6
  5 29  1  0
 10 30  1  0
 10 31  1  0
 10 32  1  0
 11 33  1  0
 11 34  1  0
 11 35  1  0
 12 36  1  0
 12 37  1  0
 12 38  1  0
 18 39  1  0
 19 40  1  0
M  CHG  1  17  -1
M  END
>  <UniqueID>  (5) 
5

>  <SMILES>  (5) 
CCC[C@H](NC(=O)OC(C)(C)C)C(=O)N=c1[n-]ccs1

>  <Energy>  (5) 
57.69657018576368

>  <Genealogy>  (5) 
CCCC(NC(=O)OC(C)(C)C)C(=O)N=c1[n-]ccs1 (protonated)
CCC[C@H](NC(=O)OC(C)(C)C)C(=O)N=c1[n-]ccs1 (chirality)
CCC[C@H](NC(=O)OC(C)(C)C)C(=O)N=c1[n-]ccs1 (3D coordinates assigned)
CCC[C@H](NC(=O)OC(C)(C)C)C(=O)N=c1[n-]ccs1 (optimized conformer: 57.69657018576368 kcal/mol)

>  <smiles>  (5) 
CCCC(NC(=O)OC(C)(C)C)C(=O)N=c1[nH]ccs1

>  <score_type>  (5) 
oracle

>  <origin>  (5) 
adg

>  <m_score__min__energy>  (5) 
-8.5500000000000007

>  <m_primary>  (5) 
energy

$$$$
5:0
     RDKit          3D

 48 50  0  0  0  0  0  0  0  0999 V2000
   60.3610   34.4980   46.0240 C   0  0  0  0  0  0  0  0  0  0  0  0
   59.4990   34.7340   47.1330 O   0  0  0  0  0  0  0  0  0  0  0  0
   59.3520   33.8690   48.2290 C   0  0  0  0  0  0  0  0  0  0  0  0
   59.7830   34.2310   49.5230 C   0  0  0  0  0  0  0  0  0  0  0  0
   59.6580   33.3330   50.5850 C   0  0  0  0  0  0  0  0  0  0  0  0
   59.1000   32.0710   50.3760 C   0  0  0  0  0  0  0  0  0  0  0  0
   58.6610   31.7040   49.1020 C   0  0  0  0  0  0  0  0  0  0  0  0
   58.7760   32.5980   48.0250 C   0  0  0  0  0  0  0  0  0  0  0  0
   58.3080   32.1950   46.7260 N   0  0  0  0  0  0  0  0  0  0  0  0
   58.4870   30.8090   46.2830 C   0  0  0  0  0  0  0  0  0  0  0  0
   58.6400   30.7570   44.7600 C   0  0  0  0  0  0  0  0  0  0  0  0
   57.5570   31.4820   44.0600 N   0  0  0  0  0  0  0  0  0  0  0  0
   56.2130   30.8630   44.1820 C   0  0  0  0  0  0  0  0  0  0  0  0
   56.2280   29.3430   43.9400 C   0  0  0  0  0  0  0  0  0  0  0  0
   55.6720   28.6260   45.0860 N   0  0  0  0  0  0  0  0  0  0  0  0
   56.2830   27.4710   45.6720 C   0  0  0  0  0  0  0  0  0  0  0  0
   55.5790   26.4580   45.9410 O   0  0  0  0  0  0  0  0  0  0  0  0
   57.7270   27.4790   46.0020 C   0  0  0  0  0  0  0  0  0  0  0  0
   58.6950   27.5180   44.9840 C   0  0  0  0  0  0  0  0  0  0  0  0
   60.0510   27.5690   45.3190 C   0  0  0  0  0  0  0  0  0  0  0  0
   60.4310   27.5830   46.6230 N   0  0  0  0  0  0  0  0  0  0  0  0
   59.5200   27.5410   47.6310 C   0  0  0  0  0  0  0  0  0  0  0  0
   58.1540   27.4900   47.3410 C   0  0  0  0  0  0  0  0  0  0  0  0
   57.5400   32.9010   44.4820 C   0  0  0  0  0  0  0  0  0  0  0  0
   57.3720   33.0630   46.0030 C   0  0  0  0  0  0  0  0  0  0  0  0
   61.3618   34.2240   46.3893 H   0  0  0  0  0  0  0  0  0  0  0  0
   59.9563   33.6776   45.4131 H   0  0  0  0  0  0  0  0  0  0  0  0
   60.4307   35.4101   45.4131 H   0  0  0  0  0  0  0  0  0  0  0  0
   60.2197   35.2257   49.6960 H   0  0  0  0  0  0  0  0  0  0  0  0
   60.0005   33.6213   51.5898 H   0  0  0  0  0  0  0  0  0  0  0  0
   59.0060   31.3654   51.2146 H   0  0  0  0  0  0  0  0  0  0  0  0
   58.2223   30.7082   48.9411 H   0  0  0  0  0  0  0  0  0  0  0  0
   59.3890   30.3906   46.7534 H   0  0  0  0  0  0  0  0  0  0  0  0
   57.6043   30.2214   46.5757 H   0  0  0  0  0  0  0  0  0  0  0  0
   59.6037   31.2110   44.4859 H   0  0  0  0  0  0  0  0  0  0  0  0
   58.5902   29.7017   44.4535 H   0  0  0  0  0  0  0  0  0  0  0  0
   55.8300   31.0530   45.1955 H   0  0  0  0  0  0  0  0  0  0  0  0
   55.5715   31.3133   43.4101 H   0  0  0  0  0  0  0  0  0  0  0  0
   55.6278   29.1147   43.0469 H   0  0  0  0  0  0  0  0  0  0  0  0
   57.2698   29.0207   43.7960 H   0  0  0  0  0  0  0  0  0  0  0  0
   58.3869   27.5084   43.9281 H   0  0  0  0  0  0  0  0  0  0  0  0
   60.8119   27.5979   44.5251 H   0  0  0  0  0  0  0  0  0  0  0  0
   59.8589   27.5472   48.6775 H   0  0  0  0  0  0  0  0  0  0  0  0
   57.4166   27.4586   48.1566 H   0  0  0  0  0  0  0  0  0  0  0  0
   58.4882   33.3699   44.1802 H   0  0  0  0  0  0  0  0  0  0  0  0
   56.6776   33.3827   43.9979 H   0  0  0  0  0  0  0  0  0  0  0  0
   57.5659   34.1104   46.2777 H   0  0  0  0  0  0  0  0  0  0  0  0
   56.3450   32.7792   46.2765 H   0  0  0  0  0  0  0  0  0  0  0  0
  1  2  1  0
  2  3  1  0
  3  4  2  0
  4  5  1  0
  5  6  2  0
  6  7  1  0
  7  8  2  0
  8  9  1  0
  9 10  1  0
 10 11  1  0
 11 12  1  0
 12 13  1  0
 13 14  1  0
 14 15  1  0
 15 16  1  0
 16 17  2  0
 16 18  1  0
 18 19  2  0
 19 20  1  0
 20 21  2  0
 21 22  1  0
 22 23  2  0
 12 24  1  0
 24 25  1  0
  8  3  1  0
 25  9  1  0
 23 18  1  0
  1 26  1  0
  1 27  1  0
  1 28  1  0
  4 29  1  0
  5 30  1  0
  6 31  1  0
  7 32  1  0
 10 33  1  0
 10 34  1  0
 11 35  1  0
 11 36  1  0
 13 37  1  0
 13 38  1  0
 14 39  1  0
 14 40  1  0
 19 41  1  0
 20 42  1  0
 22 43  1  0
 23 44  1  0
 24 45  1  0
 24 46  1  0
 25 47  1  0
 25 48  1  0
M  CHG  1  15  -1
M  END
>  <UniqueID>  (6) 
6

>  <SMILES>  (6) 
COc1ccccc1N1CCN(CC[N-]C(=O)c2ccncc2)CC1

>  <Energy>  (6) 
55.52666804378189

>  <Genealogy>  (6) 
COc1ccccc1N1CCN(CC[N-]C(=O)c2ccncc2)CC1 (protonated)
COc1ccccc1N1CCN(CC[N-]C(=O)c2ccncc2)CC1 (3D coordinates assigned)
COc1ccccc1N1CCN(CC[N-]C(=O)c2ccncc2)CC1 (nonaromatic ring conformer: 55.52666804378189 kcal/mol)

>  <smiles>  (6) 
COc1ccccc1N1CCN(CCNC(=O)c2ccncc2)CC1

>  <score_type>  (6) 
oracle

>  <origin>  (6) 
adg

>  <m_score__min__energy>  (6) 
-9.9199999999999999

>  <m_primary>  (6) 
energy

$$$$
6:0
     RDKit          3D

 63 66  0  0  0  0  0  0  0  0999 V2000
   57.5150   27.0920   45.4010 C   0  0  0  0  0  0  0  0  0  0  0  0
   57.6820   28.5280   45.1260 N   0  0  0  0  0  0  0  0  0  0  0  0
   57.2650   28.9090   43.7580 C   0  0  0  0  0  0  0  0  0  0  0  0
   56.4410   30.2020   43.7960 C   0  0  0  0  0  0  0  0  0  0  0  0
   57.3330   31.4450   43.9050 C   0  0  0  0  0  0  0  0  0  0  0  0
   56.8760   32.2990   44.9940 N   0  0  0  0  0  0  0  0  0  0  0  0
   57.4070   33.6000   45.2660 C   0  0  0  0  0  0  0  0  0  0  0  0
   57.1560   34.5660   44.4960 O   0  0  0  0  0  0  0  0  0  0  0  0
   58.2470   33.8040   46.4510 C   0  0  0  0  0  0  0  0  0  0  0  0
   58.1760   33.1010   47.6370 C   0  0  0  0  0  0  0  0  0  0  0  0
   59.1770   33.6660   48.4080 C   0  0  0  0  0  0  0  0  0  0  0  0
   59.5690   33.2990   49.7870 C   0  0  0  0  0  0  0  0  0  0  0  0
   58.7430   32.4460   50.5410 C   0  0  0  0  0  0  0  0  0  0  0  0
   59.0900   32.0980   51.8500 C   0  0  0  0  0  0  0  0  0  0  0  0
   60.2620   32.5980   52.4220 C   0  0  0  0  0  0  0  0  0  0  0  0
   61.0940   33.4410   51.6810 C   0  0  0  0  0  0  0  0  0  0  0  0
   60.7520   33.7910   50.3710 C   0  0  0  0  0  0  0  0  0  0  0  0
   59.7600   34.6110   47.7070 O   0  0  0  0  0  0  0  0  0  0  0  0
   59.2260   34.7240   46.5260 N   0  0  0  0  0  0  0  0  0  0  0  0
   58.9920   29.0790   45.5500 C   0  0  0  0  0  0  0  0  0  0  0  0
   60.1330   28.0480   45.7070 C   0  0  0  0  0  0  0  0  0  0  0  0
   60.4030   27.6410   47.1550 C   0  0  0  0  0  0  0  0  0  0  0  0
   59.3700   28.2000   48.0140 N   0  0  0  0  0  0  0  0  0  0  0  0
   59.6130   29.2680   48.9300 C   0  0  0  0  0  0  0  0  0  0  0  0
   58.9200   29.3630   49.9790 O   0  0  0  0  0  0  0  0  0  0  0  0
   60.6570   30.2790   48.6630 C   0  0  0  0  0  0  0  0  0  0  0  0
   60.6320   31.0420   47.5380 N   0  0  0  0  0  0  0  0  0  0  0  0
   61.7380   31.7960   47.6490 C   0  0  0  0  0  0  0  0  0  0  0  0
   62.2020   32.7520   46.7460 C   0  0  0  0  0  0  0  0  0  0  0  0
   63.4020   33.4160   47.0550 C   0  0  0  0  0  0  0  0  0  0  0  0
   64.1000   33.1140   48.2460 C   0  0  0  0  0  0  0  0  0  0  0  0
   63.6050   32.1430   49.1370 C   0  0  0  0  0  0  0  0  0  0  0  0
   62.4090   31.4990   48.8000 C   0  0  0  0  0  0  0  0  0  0  0  0
   61.7340   30.5380   49.4620 N   0  0  0  0  0  0  0  0  0  0  0  0
   62.0990   29.8950   50.7260 C   0  0  0  0  0  0  0  0  0  0  0  0
   57.4958   26.9267   46.4883 H   0  0  0  0  0  0  0  0  0  0  0  0
   56.5701   26.7417   44.9601 H   0  0  0  0  0  0  0  0  0  0  0  0
   58.3543   26.5342   44.9601 H   0  0  0  0  0  0  0  0  0  0  0  0
   58.1587   29.0659   43.1362 H   0  0  0  0  0  0  0  0  0  0  0  0
   56.6486   28.1030   43.3332 H   0  0  0  0  0  0  0  0  0  0  0  0
   55.8453   30.2714   42.8739 H   0  0  0  0  0  0  0  0  0  0  0  0
   55.7934   30.1678   44.6845 H   0  0  0  0  0  0  0  0  0  0  0  0
   58.3696   31.1324   44.0990 H   0  0  0  0  0  0  0  0  0  0  0  0
   57.2807   32.0080   42.9614 H   0  0  0  0  0  0  0  0  0  0  0  0
   57.4878   32.2859   47.9053 H   0  0  0  0  0  0  0  0  0  0  0  0
   57.8175   32.0499   50.0977 H   0  0  0  0  0  0  0  0  0  0  0  0
   58.4383   31.4287   52.4308 H   0  0  0  0  0  0  0  0  0  0  0  0
   60.5296   32.3285   53.4544 H   0  0  0  0  0  0  0  0  0  0  0  0
   62.0201   33.8303   52.1290 H   0  0  0  0  0  0  0  0  0  0  0  0
   61.4115   34.4550   49.7930 H   0  0  0  0  0  0  0  0  0  0  0  0
   59.3062   29.8194   44.7996 H   0  0  0  0  0  0  0  0  0  0  0  0
   58.8295   29.5018   46.5524 H   0  0  0  0  0  0  0  0  0  0  0  0
   59.8656   27.1457   45.1374 H   0  0  0  0  0  0  0  0  0  0  0  0
   61.0501   28.5264   45.3328 H   0  0  0  0  0  0  0  0  0  0  0  0
   60.3938   26.5440   47.2358 H   0  0  0  0  0  0  0  0  0  0  0  0
   61.3866   28.0221   47.4668 H   0  0  0  0  0  0  0  0  0  0  0  0
   61.6479   32.9789   45.8232 H   0  0  0  0  0  0  0  0  0  0  0  0
   63.8000   34.1752   46.3656 H   0  0  0  0  0  0  0  0  0  0  0  0
   65.0369   33.6414   48.4786 H   0  0  0  0  0  0  0  0  0  0  0  0
   64.1401   31.8987   50.0665 H   0  0  0  0  0  0  0  0  0  0  0  0
   61.7485   30.5125   51.5661 H   0  0  0  0  0  0  0  0  0  0  0  0
   61.6303   28.9014   50.7807 H   0  0  0  0  0  0  0  0  0  0  0  0
   63.1924   29.7881   50.7807 H   0  0  0  0  0  0  0  0  0  0  0  0
  1  2  1  0
  2  3  1  0
  3  4  1  0
  4  5  1  0
  5  6  1  0
  6  7  1  0
  7  8  2  0
  7  9  1  0
  9 10  1  0
 10 11  2  0
 11 12  1  0
 12 13  2  0
 13 14  1  0
 14 15  2  0
 15 16  1  0
 16 17  2  0
 11 18  1  0
 18 19  1  0
  2 20  1  0
 20 21  1  0
 21 22  1  0
 22 23  1  0
 23 24  1  0
 24 25  2  0
 24 26  1  0
 26 27  2  0
 27 28  1  0
 28 29  2  0
 29 30  1  0
 30 31  2  0
 31 32  1  0
 32 33  2  0
 33 34  1  0
 34 35  1  0
 19  9  2  0
 34 26  1  0
 17 12  1  0
 33 28  1  0
  1 36  1  0
  1 37  1  0
  1 38  1  0
  3 39  1  0
  3 40  1  0
  4 41  1  0
  4 42  1  0
  5 43  1  0
  5 44  1  0
 10 45  1  0
 13 46  1  0
 14 47  1  0
 15 48  1  0
 16 49  1  0
 17 50  1  0
 20 51  1  0
 20 52  1  0
 21 53  1  0
 21 54  1  0
 22 55  1  0
 22 56  1  0
 29 57  1  0
 30 58  1  0
 31 59  1  0
 32 60  1  0
 35 61  1  0
 35 62  1  0
 35 63  1  0
M  CHG  2   6  -1  23  -1
M  END
>  <UniqueID>  (7) 
7

>  <SMILES>  (7) 
CN(CCC[N-]C(=O)c1cc(-c2ccccc2)on1)CCC[N-]C(=O)c1nc2ccccc2n1C

>  <Energy>  (7) 
131.61885357739598

>  <Genealogy>  (7) 
CN(CCC[N-]C(=O)c1cc(-c2ccccc2)on1)CCC[N-]C(=O)c1nc2ccccc2n1C (protonated)
CN(CCC[N-]C(=O)c1cc(-c2ccccc2)on1)CCC[N-]C(=O)c1nc2ccccc2n1C (3D coordinates assigned)
CN(CCC[N-]C(=O)c1cc(-c2ccccc2)on1)CCC[N-]C(=O)c1nc2ccccc2n1C (optimized conformer: 131.61885357739598 kcal/mol)

>  <smiles>  (7) 
CN(CCCNC(=O)c1cc(-c2ccccc2)on1)CCCNC(=O)c1nc2ccccc2n1C

>  <score_type>  (7) 
oracle

>  <origin>  (7) 
adg

>  <m_score__min__energy>  (7) 
-12.06

>  <m_primary>  (7) 
energy

$$$$
7:0
     RDKit          3D

 54 57  0  0  0  0  0  0  0  0999 V2000
   62.7250   32.1570   48.0570 C   0  0  0  0  0  0  0  0  0  0  0  0
   61.2670   32.1640   48.2600 N   0  0  0  0  0  0  0  0  0  0  0  0
   60.7040   33.5330   48.2050 C   0  0  0  0  0  0  0  0  0  0  0  0
   59.6420   33.7160   47.1390 C   0  0  0  0  0  0  0  0  0  0  0  0
   58.3200   33.2980   47.3730 C   0  0  0  0  0  0  0  0  0  0  0  0
   57.3430   33.4620   46.3850 C   0  0  0  0  0  0  0  0  0  0  0  0
   57.6750   34.0540   45.1620 C   0  0  0  0  0  0  0  0  0  0  0  0
   58.9840   34.4820   44.9250 C   0  0  0  0  0  0  0  0  0  0  0  0
   59.9650   34.3140   45.9080 C   0  0  0  0  0  0  0  0  0  0  0  0
   60.8750   31.4380   49.4860 C   0  0  0  0  0  0  0  0  0  0  0  0
   60.5590   30.0010   49.1680 C   0  0  0  0  0  0  0  0  0  0  0  0
   60.8990   28.9330   49.9660 C   0  0  0  0  0  0  0  0  0  0  0  0
   60.4590   27.7950   49.4000 N   0  0  0  0  0  0  0  0  0  0  0  0
   59.8570   28.1920   48.2580 C   0  0  0  0  0  0  0  0  0  0  0  0
   59.8660   29.5430   48.1000 N   0  0  0  0  0  0  0  0  0  0  0  0
   59.3800   30.3330   46.9600 C   0  0  0  0  0  0  0  0  0  0  0  0
   59.9150   29.8140   45.6200 C   0  0  0  0  0  0  0  0  0  0  0  0
   59.2900   28.5330   45.2480 N   0  0  0  0  0  0  0  0  0  0  0  0
   58.2290   28.5320   44.2700 C   0  0  0  0  0  0  0  0  0  0  0  0
   58.1640   27.5960   43.4240 O   0  0  0  0  0  0  0  0  0  0  0  0
   57.2190   29.6600   44.2220 C   0  0  0  0  0  0  0  0  0  0  0  0
   56.3120   29.6730   42.9860 C   0  0  0  0  0  0  0  0  0  0  0  0
   56.9290   30.9960   42.5510 C   0  0  0  0  0  0  0  0  0  0  0  0
   57.8300   30.9890   43.7810 C   0  0  0  0  0  0  0  0  0  0  0  0
   59.6930   27.2790   45.9040 C   0  0  0  0  0  0  0  0  0  0  0  0
   59.1800   27.2070   47.3450 C   0  0  0  0  0  0  0  0  0  0  0  0
   63.2312   32.1546   49.0336 H   0  0  0  0  0  0  0  0  0  0  0  0
   63.0123   31.2575   47.4928 H   0  0  0  0  0  0  0  0  0  0  0  0
   63.0210   33.0537   47.4928 H   0  0  0  0  0  0  0  0  0  0  0  0
   60.2567   33.7635   49.1832 H   0  0  0  0  0  0  0  0  0  0  0  0
   61.5328   34.2100   47.9507 H   0  0  0  0  0  0  0  0  0  0  0  0
   58.0528   32.8402   48.3368 H   0  0  0  0  0  0  0  0  0  0  0  0
   56.3124   33.1249   46.5703 H   0  0  0  0  0  0  0  0  0  0  0  0
   56.9055   34.1827   44.3865 H   0  0  0  0  0  0  0  0  0  0  0  0
   59.2432   34.9514   43.9646 H   0  0  0  0  0  0  0  0  0  0  0  0
   60.9944   34.6514   45.7170 H   0  0  0  0  0  0  0  0  0  0  0  0
   61.7028   31.4753   50.2094 H   0  0  0  0  0  0  0  0  0  0  0  0
   59.9791   31.9142   49.9110 H   0  0  0  0  0  0  0  0  0  0  0  0
   61.4454   28.9995   50.9184 H   0  0  0  0  0  0  0  0  0  0  0  0
   58.2810   30.2893   46.9426 H   0  0  0  0  0  0  0  0  0  0  0  0
   59.7399   31.3645   47.0885 H   0  0  0  0  0  0  0  0  0  0  0  0
   59.7002   30.5569   44.8377 H   0  0  0  0  0  0  0  0  0  0  0  0
   60.9985   29.6527   45.7205 H   0  0  0  0  0  0  0  0  0  0  0  0
   56.7732   29.5345   45.2197 H   0  0  0  0  0  0  0  0  0  0  0  0
   56.4916   28.8421   42.2879 H   0  0  0  0  0  0  0  0  0  0  0  0
   55.2217   29.5746   43.0932 H   0  0  0  0  0  0  0  0  0  0  0  0
   57.4734   30.9440   41.5966 H   0  0  0  0  0  0  0  0  0  0  0  0
   56.2871   31.8638   42.3392 H   0  0  0  0  0  0  0  0  0  0  0  0
   58.9042   30.9347   43.5504 H   0  0  0  0  0  0  0  0  0  0  0  0
   57.8435   31.8497   44.4658 H   0  0  0  0  0  0  0  0  0  0  0  0
   59.2826   26.4310   45.3361 H   0  0  0  0  0  0  0  0  0  0  0  0
   60.7921   27.2406   45.9276 H   0  0  0  0  0  0  0  0  0  0  0  0
   58.0998   27.4149   47.3437 H   0  0  0  0  0  0  0  0  0  0  0  0
   59.4027   26.1988   47.7243 H   0  0  0  0  0  0  0  0  0  0  0  0
  1  2  1  0
  2  3  1  0
  3  4  1  0
  4  5  2  0
  5  6  1  0
  6  7  2  0
  7  8  1  0
  8  9  2  0
  2 10  1  0
 10 11  1  0
 11 12  2  0
 12 13  1  0
 13 14  2  0
 14 15  1  0
 15 16  1  0
 16 17  1  0
 17 18  1  0
 18 19  1  0
 19 20  2  0
 19 21  1  0
 21 22  1  0
 22 23  1  0
 23 24  1  0
 18 25  1  0
 25 26  1  0
  9  4  1  0
 15 11  1  0
 24 21  1  0
 26 14  1  0
  1 27  1  0
  1 28  1  0
  1 29  1  0
  3 30  1  0
  3 31  1  0
  5 32  1  0
  6 33  1  0
  7 34  1  0
  8 35  1  0
  9 36  1  0
 10 37  1  0
 10 38  1  0
 12 39  1  0
 16 40  1  0
 16 41  1  0
 17 42  1  0
 17 43  1  0
 21 44  1  0
 22 45  1  0
 22 46  1  0
 23 47  1  0
 23 48  1  0
 24 49  1  0
 24 50  1  0
 25 51  1  0
 25 52  1  0
 26 53  1  0
 26 54  1  0
M  END
>  <UniqueID>  (8) 
8

>  <SMILES>  (8) 
CN(Cc1ccccc1)Cc1cnc2n1CCN(C(=O)C1CCC1)CC2

>  <Energy>  (8) 
153.15250442965498

>  <Genealogy>  (8) 
CN(Cc1ccccc1)Cc1cnc2n1CCN(C(=O)C1CCC1)CC2 (3D coordinates assigned)
CN(Cc1ccccc1)Cc1cnc2n1CCN(C(=O)C1CCC1)CC2 (nonaromatic ring conformer: 153.15250442965498 kcal/mol)

>  <smiles>  (8) 
CN(Cc1ccccc1)Cc1cnc2n1CCN(C(=O)C1CCC1)CC2

>  <score_type>  (8) 
oracle

>  <origin>  (8) 
adg

>  <m_score__min__energy>  (8) 
-6.5099999999999998

>  <m_primary>  (8) 
energy

$$$$
8:0
     RDKit          3D

 42 44  0  0  0  0  0  0  0  0999 V2000
   59.1240   26.4050   45.7260 C   0  0  0  0  0  0  0  0  0  0  0  0
   57.7210   26.0720   45.4500 N   0  0  0  0  0  0  0  0  0  0  0  0
   57.3370   24.6890   45.1610 C   0  0  0  0  0  0  0  0  0  0  0  0
   56.6890   27.0660   45.6160 C   0  0  0  0  0  0  0  0  0  0  0  0
   55.5400   26.7090   45.9950 O   0  0  0  0  0  0  0  0  0  0  0  0
   56.9420   28.5000   45.3650 C   0  0  0  0  0  0  0  0  0  0  0  0
   56.2620   29.1630   44.3310 C   0  0  0  0  0  0  0  0  0  0  0  0
   56.5090   30.5150   44.0760 C   0  0  0  0  0  0  0  0  0  0  0  0
   57.4570   31.2160   44.8290 C   0  0  0  0  0  0  0  0  0  0  0  0
   57.6780   32.6050   44.5470 N   0  0  0  0  0  0  0  0  0  0  0  0
   57.8940   33.6420   45.5140 C   0  0  0  0  0  0  0  0  0  0  0  0
   57.0720   34.5940   45.5710 O   0  0  0  0  0  0  0  0  0  0  0  0
   59.0780   33.6510   46.4060 C   0  0  0  0  0  0  0  0  0  0  0  0
   58.9360   33.4780   47.7930 C   0  0  0  0  0  0  0  0  0  0  0  0
   60.0560   33.4890   48.6280 C   0  0  0  0  0  0  0  0  0  0  0  0
   61.3470   33.6640   48.0950 C   0  0  0  0  0  0  0  0  0  0  0  0
   62.5330   33.6770   48.9920 C   0  0  0  0  0  0  0  0  0  0  0  0
   62.5990   34.1860   50.2900 C   0  0  0  0  0  0  0  0  0  0  0  0
   63.8600   34.0480   50.8840 C   0  0  0  0  0  0  0  0  0  0  0  0
   64.8000   33.4330   50.0710 C   0  0  0  0  0  0  0  0  0  0  0  0
   64.0570   33.0600   48.6120 S   0  0  0  0  0  0  0  0  0  0  0  0
   61.4870   33.8160   46.7030 C   0  0  0  0  0  0  0  0  0  0  0  0
   60.3650   33.8050   45.8690 C   0  0  0  0  0  0  0  0  0  0  0  0
   58.1370   30.5560   45.8670 C   0  0  0  0  0  0  0  0  0  0  0  0
   57.8910   29.2040   46.1220 C   0  0  0  0  0  0  0  0  0  0  0  0
   59.2847   26.4431   46.8135 H   0  0  0  0  0  0  0  0  0  0  0  0
   59.7767   25.6368   45.2856 H   0  0  0  0  0  0  0  0  0  0  0  0
   59.3618   27.3845   45.2856 H   0  0  0  0  0  0  0  0  0  0  0  0
   57.1861   24.1454   46.1053 H   0  0  0  0  0  0  0  0  0  0  0  0
   56.4028   24.6816   44.5803 H   0  0  0  0  0  0  0  0  0  0  0  0
   58.1336   24.2010   44.5803 H   0  0  0  0  0  0  0  0  0  0  0  0
   55.5308   28.6155   43.7181 H   0  0  0  0  0  0  0  0  0  0  0  0
   55.9545   31.0310   43.2783 H   0  0  0  0  0  0  0  0  0  0  0  0
   57.9349   33.3327   48.2250 H   0  0  0  0  0  0  0  0  0  0  0  0
   59.9277   33.3596   49.7128 H   0  0  0  0  0  0  0  0  0  0  0  0
   61.7418   34.6515   50.7984 H   0  0  0  0  0  0  0  0  0  0  0  0
   64.0843   34.3960   51.9031 H   0  0  0  0  0  0  0  0  0  0  0  0
   65.8476   33.2260   50.3352 H   0  0  0  0  0  0  0  0  0  0  0  0
   62.4887   33.9447   46.2670 H   0  0  0  0  0  0  0  0  0  0  0  0
   60.4924   33.9181   44.7823 H   0  0  0  0  0  0  0  0  0  0  0  0
   58.8656   31.1056   46.4810 H   0  0  0  0  0  0  0  0  0  0  0  0
   58.4445   28.6887   46.9208 H   0  0  0  0  0  0  0  0  0  0  0  0
  1  2  1  0
  2  3  1  0
  2  4  1  0
  4  5  2  0
  4  6  1  0
  6  7  2  0
  7  8  1  0
  8  9  2  0
  9 10  1  0
 10 11  1  0
 11 12  2  0
 11 13  1  0
 13 14  2  0
 14 15  1  0
 15 16  2  0
 16 17  1  0
 17 18  2  0
 18 19  1  0
 19 20  2  0
 20 21  1  0
 16 22  1  0
 22 23  2  0
  9 24  1  0
 24 25  2  0
 25  6  1  0
 23 13  1  0
 21 17  1  0
  1 26  1  0
  1 27  1  0
  1 28  1  0
  3 29  1  0
  3 30  1  0
  3 31  1  0
  7 32  1  0
  8 33  1  0
 14 34  1  0
 15 35  1  0
 18 36  1  0
 19 37  1  0
 20 38  1  0
 22 39  1  0
 23 40  1  0
 24 41  1  0
 25 42  1  0
M  CHG  1  10  -1
M  END
>  <UniqueID>  (9) 
9

>  <SMILES>  (9) 
CN(C)C(=O)c1ccc([N-]C(=O)c2ccc(-c3cccs3)cc2)cc1

>  <Energy>  (9) 
82.63532406075724

>  <Genealogy>  (9) 
CN(C)C(=O)c1ccc([N-]C(=O)c2ccc(-c3cccs3)cc2)cc1 (protonated)
CN(C)C(=O)c1ccc([N-]C(=O)c2ccc(-c3cccs3)cc2)cc1 (3D coordinates assigned)
CN(C)C(=O)c1ccc([N-]C(=O)c2ccc(-c3cccs3)cc2)cc1 (optimized conformer: 82.63532406075724 kcal/mol)

>  <smiles>  (9) 
CN(C)C(=O)c1ccc(NC(=O)c2ccc(-c3cccs3)cc2)cc1

>  <score_type>  (9) 
oracle

>  <origin>  (9) 
adg

>  <m_score__min__energy>  (9) 
-9.0500000000000007

>  <m_primary>  (9) 
energy

$$$$
9:0
     RDKit          3D

 44 46  0  0  0  0  0  0  0  0999 V2000
   57.0630   31.7060   41.9860 C   0  0  0  0  0  0  0  0  0  0  0  0
   58.2040   32.2780   42.6170 O   0  0  0  0  0  0  0  0  0  0  0  0
   58.2630   32.6960   43.9570 C   0  0  0  0  0  0  0  0  0  0  0  0
   58.8990   33.9180   44.2150 C   0  0  0  0  0  0  0  0  0  0  0  0
   58.9390   34.4460   45.5070 C   0  0  0  0  0  0  0  0  0  0  0  0
   58.3480   33.7540   46.5620 C   0  0  0  0  0  0  0  0  0  0  0  0
   58.3830   34.2700   47.8150 F   0  0  0  0  0  0  0  0  0  0  0  0
   57.7410   32.5180   46.3330 C   0  0  0  0  0  0  0  0  0  0  0  0
   57.7160   31.9620   45.0430 C   0  0  0  0  0  0  0  0  0  0  0  0
   57.1790   30.5960   44.8990 C   0  0  0  0  0  0  0  0  0  0  0  0
   55.9780   30.4680   44.5360 O   0  0  0  0  0  0  0  0  0  0  0  0
   57.9680   29.4200   45.2140 N   0  0  0  0  0  0  0  0  0  0  0  0
   58.8090   28.8090   44.1720 C   0  0  0  0  0  0  0  0  0  0  0  0
   60.3160   28.8660   44.5130 C   0  0  0  0  0  0  0  0  0  0  0  0
   60.6660   28.5060   45.9740 C   0  0  0  0  0  0  0  0  0  0  0  0
   60.0750   29.4070   46.9910 N   0  0  0  0  0  0  0  0  0  0  0  0
   60.8950   30.4420   47.5860 C   0  0  0  0  0  0  0  0  0  0  0  0
   61.2590   31.5270   46.8460 N   0  0  0  0  0  0  0  0  0  0  0  0
   62.0050   32.5300   47.3740 C   0  0  0  0  0  0  0  0  0  0  0  0
   62.4100   32.4630   48.7030 C   0  0  0  0  0  0  0  0  0  0  0  0
   63.1510   33.4580   49.2520 F   0  0  0  0  0  0  0  0  0  0  0  0
   62.0430   31.3490   49.4550 C   0  0  0  0  0  0  0  0  0  0  0  0
   61.3000   30.3610   48.8910 N   0  0  0  0  0  0  0  0  0  0  0  0
   58.7390   29.1420   47.5550 C   0  0  0  0  0  0  0  0  0  0  0  0
   57.7690   28.6700   46.4670 C   0  0  0  0  0  0  0  0  0  0  0  0
   56.3583   31.3527   42.7532 H   0  0  0  0  0  0  0  0  0  0  0  0
   56.5721   32.4646   41.3587 H   0  0  0  0  0  0  0  0  0  0  0  0
   57.3771   30.8588   41.3587 H   0  0  0  0  0  0  0  0  0  0  0  0
   59.3729   34.4683   43.3888 H   0  0  0  0  0  0  0  0  0  0  0  0
   59.4375   35.4090   45.6920 H   0  0  0  0  0  0  0  0  0  0  0  0
   57.2782   31.9745   47.1699 H   0  0  0  0  0  0  0  0  0  0  0  0
   58.5143   27.7558   44.0544 H   0  0  0  0  0  0  0  0  0  0  0  0
   58.6562   29.3798   43.2442 H   0  0  0  0  0  0  0  0  0  0  0  0
   60.8428   28.1621   43.8520 H   0  0  0  0  0  0  0  0  0  0  0  0
   60.6254   29.9119   44.3702 H   0  0  0  0  0  0  0  0  0  0  0  0
   60.3075   27.4848   46.1708 H   0  0  0  0  0  0  0  0  0  0  0  0
   61.7575   28.6061   46.0663 H   0  0  0  0  0  0  0  0  0  0  0  0
   62.2884   33.3928   46.7533 H   0  0  0  0  0  0  0  0  0  0  0  0
   62.3552   31.2692   50.5068 H   0  0  0  0  0  0  0  0  0  0  0  0
   61.0570   29.5360   49.4810 H   0  0  0  0  0  0  0  0  0  0  0  0
   58.8221   28.3620   48.3262 H   0  0  0  0  0  0  0  0  0  0  0  0
   58.3508   30.0743   47.9910 H   0  0  0  0  0  0  0  0  0  0  0  0
   57.9377   27.6000   46.2754 H   0  0  0  0  0  0  0  0  0  0  0  0
   56.7409   28.8438   46.8175 H   0  0  0  0  0  0  0  0  0  0  0  0
  1  2  1  0
  2  3  1  0
  3  4  2  0
  4  5  1  0
  5  6  2  0
  6  7  1  0
  6  8  1  0
  8  9  2  0
  9 10  1  0
 10 11  2  0
 10 12  1  0
 12 13  1  0
 13 14  1  0
 14 15  1  0
 15 16  1  0
 16 17  1  0
 17 18  2  0
 18 19  1  0
 19 20  2  0
 20 21  1  0
 20 22  1  0
 22 23  2  0
 16 24  1  0
 24 25  1  0
  9  3  1  0
 25 12  1  0
 23 17  1  0
  1 26  1  0
  1 27  1  0
  1 28  1  0
  4 29  1  0
  5 30  1  0
  8 31  1  0
 13 32  1  0
 13 33  1  0
 14 34  1  0
 14 35  1  0
 15 36  1  0
 15 37  1  0
 19 38  1  0
 22 39  1  0
 23 40  1  0
 24 41  1  0
 24 42  1  0
 25 43  1  0
 25 44  1  0
M  CHG  1  23   1
M  END
>  <UniqueID>  (10) 
10

>  <SMILES>  (10) 
COc1ccc(F)cc1C(=O)N1CCCN(c2ncc(F)c[nH+]2)CC1

>  <Energy>  (10) 
63.230694788184685

>  <Genealogy>  (10) 
COc1ccc(F)cc1C(=O)N1CCCN(c2ncc(F)c[nH+]2)CC1 (protonated)
COc1ccc(F)cc1C(=O)N1CCCN(c2ncc(F)c[nH+]2)CC1 (3D coordinates assigned)
COc1ccc(F)cc1C(=O)N1CCCN(c2ncc(F)c[nH+]2)CC1 (nonaromatic ring conformer: 63.230694788184685 kcal/mol)

>  <smiles>  (10) 
COc1ccc(F)cc1C(=O)N1CCCN(c2ncc(F)cn2)CC1

>  <score_type>  (10) 
oracle

>  <origin>  (10) 
adg

>  <m_score__min__energy>  (10) 
-3.6299999999999999

>  <m_primary>  (10) 
energy

$$$$
10:0
     RDKit          3D

 45 47  0  0  0  0  0  0  0  0999 V2000
   57.4190   31.5550   42.8280 C   0  0  0  0  0  0  0  0  0  0  0  0
   57.8570   32.2090   44.1120 C   0  0  0  0  0  0  0  0  0  0  0  0
   57.8810   33.6090   44.1890 C   0  0  0  0  0  0  0  0  0  0  0  0
   58.2620   34.2340   45.3760 C   0  0  0  0  0  0  0  0  0  0  0  0
   58.6140   33.4910   46.4580 N   0  0  0  0  0  0  0  0  0  0  0  0
   58.6210   32.1320   46.4140 C   0  0  0  0  0  0  0  0  0  0  0  0
   58.2600   31.4530   45.2390 C   0  0  0  0  0  0  0  0  0  0  0  0
   58.3050   29.9740   45.2220 C   0  0  0  0  0  0  0  0  0  0  0  0
   57.3730   29.2250   45.9570 C   0  0  0  0  0  0  0  0  0  0  0  0
   57.4250   27.8290   45.9450 C   0  0  0  0  0  0  0  0  0  0  0  0
   58.4000   27.1620   45.1870 C   0  0  0  0  0  0  0  0  0  0  0  0
   58.5060   25.6650   45.2470 C   0  0  0  0  0  0  0  0  0  0  0  0
   57.2630   25.0620   44.7560 N   0  0  0  0  0  0  0  0  0  0  0  0
   57.0570   24.8230   43.3220 C   0  0  0  0  0  0  0  0  0  0  0  0
   56.5470   23.4010   43.0320 C   0  0  0  0  0  0  0  0  0  0  0  0
   57.0280   22.3840   44.0850 C   0  0  0  0  0  0  0  0  0  0  0  0
   56.1190   22.2550   45.3270 C   0  0  0  0  0  0  0  0  0  0  0  0
   56.2020   23.4030   46.3450 C   0  0  0  0  0  0  0  0  0  0  0  0
   56.2280   24.7530   45.6990 C   0  0  0  0  0  0  0  0  0  0  0  0
   55.3360   25.6020   45.9610 O   0  0  0  0  0  0  0  0  0  0  0  0
   59.3300   27.9120   44.4500 C   0  0  0  0  0  0  0  0  0  0  0  0
   59.2760   29.3080   44.4600 C   0  0  0  0  0  0  0  0  0  0  0  0
   56.8204   30.6611   43.0574 H   0  0  0  0  0  0  0  0  0  0  0  0
   56.8121   32.2629   42.2444 H   0  0  0  0  0  0  0  0  0  0  0  0
   58.3046   31.2633   42.2444 H   0  0  0  0  0  0  0  0  0  0  0  0
   57.5996   34.2135   43.3141 H   0  0  0  0  0  0  0  0  0  0  0  0
   58.2777   35.3322   45.4367 H   0  0  0  0  0  0  0  0  0  0  0  0
   58.8930   33.9750   47.3400 H   0  0  0  0  0  0  0  0  0  0  0  0
   58.9121   31.5593   47.3069 H   0  0  0  0  0  0  0  0  0  0  0  0
   56.5985   29.7393   46.5449 H   0  0  0  0  0  0  0  0  0  0  0  0
   56.6979   27.2494   46.5328 H   0  0  0  0  0  0  0  0  0  0  0  0
   59.3464   25.3324   44.6200 H   0  0  0  0  0  0  0  0  0  0  0  0
   58.6761   25.3531   46.2880 H   0  0  0  0  0  0  0  0  0  0  0  0
   56.3189   25.5466   42.9457 H   0  0  0  0  0  0  0  0  0  0  0  0
   58.0285   24.9400   42.8195 H   0  0  0  0  0  0  0  0  0  0  0  0
   55.4471   23.4131   43.0278 H   0  0  0  0  0  0  0  0  0  0  0  0
   56.9477   23.0911   42.0556 H   0  0  0  0  0  0  0  0  0  0  0  0
   57.0905   21.3971   43.6033 H   0  0  0  0  0  0  0  0  0  0  0  0
   57.9981   22.7528   44.4496 H   0  0  0  0  0  0  0  0  0  0  0  0
   55.0782   22.1903   44.9770 H   0  0  0  0  0  0  0  0  0  0  0  0
   56.4712   21.3598   45.8604 H   0  0  0  0  0  0  0  0  0  0  0  0
   55.3262   23.3480   47.0083 H   0  0  0  0  0  0  0  0  0  0  0  0
   57.1440   23.2844   46.9005 H   0  0  0  0  0  0  0  0  0  0  0  0
   60.1048   27.3982   43.8620 H   0  0  0  0  0  0  0  0  0  0  0  0
   59.9988   29.8878   43.8672 H   0  0  0  0  0  0  0  0  0  0  0  0
  1  2  1  0
  2  3  2  0
  3  4  1  0
  4  5  2  0
  5  6  1  0
  6  7  2  0
  7  8  1  0
  8  9  2  0
  9 10  1  0
 10 11  2  0
 11 12  1  0
 12 13  1  0
 13 14  1  0
 14 15  1  0
 15 16  1  0
 16 17  1  0
 17 18  1  0
 18 19  1  0
 19 20  2  0
 11 21  1  0
 21 22  2  0
  7  2  1  0
 22  8  1  0
 19 13  1  0
  1 23  1  0
  1 24  1  0
  1 25  1  0
  3 26  1  0
  4 27  1  0
  5 28  1  0
  6 29  1  0
  9 30  1  0
 10 31  1  0
 12 32  1  0
 12 33  1  0
 14 34  1  0
 14 35  1  0
 15 36  1  0
 15 37  1  0
 16 38  1  0
 16 39  1  0
 17 40  1  0
 17 41  1  0
 18 42  1  0
 18 43  1  0
 21 44  1  0
 22 45  1  0
M  CHG  1   5   1
M  END
>  <UniqueID>  (11) 
11

>  <SMILES>  (11) 
Cc1cc[nH+]cc1-c1ccc(CN2CCCCCC2=O)cc1

>  <Energy>  (11) 
57.361367968790404

>  <Genealogy>  (11) 
Cc1cc[nH+]cc1-c1ccc(CN2CCCCCC2=O)cc1 (protonated)
Cc1cc[nH+]cc1-c1ccc(CN2CCCCCC2=O)cc1 (3D coordinates assigned)
Cc1cc[nH+]cc1-c1ccc(CN2CCCCCC2=O)cc1 (nonaromatic ring conformer: 57.361367968790404 kcal/mol)

>  <smiles>  (11) 
Cc1ccncc1-c1ccc(CN2CCCCCC2=O)cc1

>  <score_type>  (11) 
oracle

>  <origin>  (11) 
adg

>  <m_score__min__energy>  (11) 
-4.5800000000000001

>  <m_primary>  (11) 
energy

$$$$
11:0
     RDKit          3D

 43 45  0  0  1  0  0  0  0  0999 V2000
   57.4950   31.8240   42.3300 C   0  0  0  0  0  0  0  0  0  0  0  0
   58.1230   32.0800   43.7020 C   0  0  0  0  0  0  0  0  0  0  0  0
   57.7620   33.4660   44.1200 C   0  0  0  0  0  0  0  0  0  0  0  0
   57.7680   33.6860   45.5950 C   0  0  0  0  0  0  0  0  0  0  0  0
   58.3180   32.5980   46.3630 N   0  0  0  0  0  0  0  0  0  0  0  0
   59.0570   32.8490   47.5370 C   0  0  0  0  0  0  0  0  0  0  0  0
   60.3010   33.4440   47.5600 C   0  0  0  0  0  0  0  0  0  0  0  0
   60.9650   33.6560   48.7740 C   0  0  0  0  0  0  0  0  0  0  0  0
   62.1160   34.2070   48.6600 N   0  0  0  0  0  0  0  0  0  0  0  0
   63.2920   33.4390   48.3360 C   0  0  0  0  0  0  0  0  0  0  0  0
   63.4600   33.5060   46.7700 C   0  0  0  0  0  0  0  0  0  0  0  0
   63.3410   32.2530   47.4740 C   0  0  0  0  0  0  0  0  0  0  0  0
   60.4440   33.3010   49.9610 N   0  0  0  0  0  0  0  0  0  0  0  0
   61.0990   33.5110   51.2180 C   0  0  0  0  0  0  0  0  0  0  0  0
   59.2070   32.7100   49.9050 C   0  0  0  0  0  0  0  0  0  0  0  0
   58.5130   32.2550   51.1430 C   0  0  0  0  0  0  0  0  0  0  0  0
   57.2310   31.7590   50.8660 F   0  0  0  0  0  0  0  0  0  0  0  0
   59.2540   31.4340   51.9330 F   0  0  0  0  0  0  0  0  0  0  0  0
   58.2450   33.3860   51.9300 F   0  0  0  0  0  0  0  0  0  0  0  0
   58.5610   32.5030   48.7450 N   0  0  0  0  0  0  0  0  0  0  0  0
   58.1480   31.1930   45.9820 C   0  0  0  0  0  0  0  0  0  0  0  0
   57.5570   31.0210   44.6220 C   0  0  0  0  0  0  0  0  0  0  0  0
   56.4836   31.4117   42.4609 H   0  0  0  0  0  0  0  0  0  0  0  0
   57.4360   32.7698   41.7715 H   0  0  0  0  0  0  0  0  0  0  0  0
   58.1140   31.1064   41.7715 H   0  0  0  0  0  0  0  0  0  0  0  0
   59.2210   32.0141   43.7107 H   0  0  0  0  0  0  0  0  0  0  0  0
   58.4832   34.1612   43.6655 H   0  0  0  0  0  0  0  0  0  0  0  0
   56.7295   33.6371   43.7813 H   0  0  0  0  0  0  0  0  0  0  0  0
   58.3616   34.5880   45.8046 H   0  0  0  0  0  0  0  0  0  0  0  0
   56.7153   33.7808   45.8996 H   0  0  0  0  0  0  0  0  0  0  0  0
   60.7751   33.7544   46.6172 H   0  0  0  0  0  0  0  0  0  0  0  0
   63.7769   33.6063   49.3091 H   0  0  0  0  0  0  0  0  0  0  0  0
   62.6360   33.8685   46.1378 H   0  0  0  0  0  0  0  0  0  0  0  0
   64.1823   33.9539   46.0717 H   0  0  0  0  0  0  0  0  0  0  0  0
   62.4298   31.6510   47.3420 H   0  0  0  0  0  0  0  0  0  0  0  0
   63.9654   31.3475   47.4905 H   0  0  0  0  0  0  0  0  0  0  0  0
   60.4003   33.2870   52.0375 H   0  0  0  0  0  0  0  0  0  0  0  0
   61.9740   32.8484   51.2907 H   0  0  0  0  0  0  0  0  0  0  0  0
   61.4256   34.5589   51.2907 H   0  0  0  0  0  0  0  0  0  0  0  0
   59.1332   30.7041   45.9997 H   0  0  0  0  0  0  0  0  0  0  0  0
   57.4500   30.7407   46.7019 H   0  0  0  0  0  0  0  0  0  0  0  0
   57.8083   30.0228   44.2341 H   0  0  0  0  0  0  0  0  0  0  0  0
   56.4630   31.1220   44.6765 H   0  0  0  0  0  0  0  0  0  0  0  0
  1  2  1  0
  2  3  1  0
  3  4  1  0
  4  5  1  0
  5  6  1  0
  6  7  2  0
  7  8  1  0
  8  9  2  0
  9 10  1  0
 10 11  1  0
 11 12  1  0
  8 13  1  0
 13 14  1  0
 13 15  1  0
 15 16  1  0
 16 17  1  0
 16 18  1  0
 16 19  1  0
 15 20  2  0
  5 21  1  0
 21 22  1  0
 22  2  1  0
 20  6  1  0
 12 10  1  0
  1 23  1  0
  1 24  1  0
  1 25  1  0
  2 26  1  0
  3 27  1  0
  3 28  1  0
  4 29  1  0
  4 30  1  0
  7 31  1  0
 10 32  1  0
 11 33  1  0
 11 34  1  0
 12 35  1  0
 12 36  1  0
 14 37  1  0
 14 38  1  0
 14 39  1  0
 21 40  1  0
 21 41  1  0
 22 42  1  0
 22 43  1  0
M  END
>  <smiles>  (12) 
CC1CCN(c2cc(=NC3CC3)n(C)c(C(F)(F)F)n2)CC1

>  <score_type>  (12) 
oracle

>  <origin>  (12) 
adg

>  <m_score__min__energy>  (12) 
-6.21

>  <m_primary>  (12) 
energy

$$$$
12:0
     RDKit          3D

 57 61  0  0  0  0  0  0  0  0999 V2000
   66.5700   34.0140   50.8860 C   0  0  0  0  0  0  0  0  0  0  0  0
   65.8930   32.7290   51.0470 N   0  0  0  0  0  0  0  0  0  0  0  0
   66.2320   31.6400   50.1330 C   0  0  0  0  0  0  0  0  0  0  0  0
   64.6460   32.6850   51.7570 C   0  0  0  0  0  0  0  0  0  0  0  0
   64.6550   32.5580   53.1520 C   0  0  0  0  0  0  0  0  0  0  0  0
   63.4580   32.4800   53.8600 C   0  0  0  0  0  0  0  0  0  0  0  0
   62.2390   32.5180   53.1830 C   0  0  0  0  0  0  0  0  0  0  0  0
   62.1980   32.6520   51.7810 C   0  0  0  0  0  0  0  0  0  0  0  0
   63.4150   32.7480   51.0700 C   0  0  0  0  0  0  0  0  0  0  0  0
   63.3540   32.9710   49.3300 S   0  0  0  0  0  0  0  0  0  0  0  0
   63.3800   31.6420   48.6290 O   0  0  0  0  0  0  0  0  0  0  0  0
   64.4860   33.8330   48.8460 O   0  0  0  0  0  0  0  0  0  0  0  0
   61.8240   33.8060   49.0130 C   0  0  0  0  0  0  0  0  0  0  0  0
   60.6920   33.1490   49.7710 C   0  0  0  0  0  0  0  0  0  0  0  0
   59.3920   33.0820   49.2180 C   0  0  0  0  0  0  0  0  0  0  0  0
   59.0680   33.6380   47.8930 C   0  0  0  0  0  0  0  0  0  0  0  0
   59.4750   34.7960   47.6090 O   0  0  0  0  0  0  0  0  0  0  0  0
   58.3310   32.8730   46.9180 N   0  0  0  0  0  0  0  0  0  0  0  0
   58.2730   31.4090   46.9940 C   0  0  0  0  0  0  0  0  0  0  0  0
   58.1670   30.8210   45.5850 C   0  0  0  0  0  0  0  0  0  0  0  0
   57.1050   31.4210   44.8660 O   0  0  0  0  0  0  0  0  0  0  0  0
   57.3870   32.7910   44.6540 C   0  0  0  0  0  0  0  0  0  0  0  0
   57.4280   33.5520   45.9820 C   0  0  0  0  0  0  0  0  0  0  0  0
   58.3910   32.4890   49.9160 N   0  0  0  0  0  0  0  0  0  0  0  0
   58.5880   31.9850   51.1590 C   0  0  0  0  0  0  0  0  0  0  0  0
   57.4670   31.3550   51.8970 C   0  0  0  0  0  0  0  0  0  0  0  0
   57.7010   30.6760   53.1060 C   0  0  0  0  0  0  0  0  0  0  0  0
   56.6330   30.0890   53.7880 C   0  0  0  0  0  0  0  0  0  0  0  0
   55.3450   30.1790   53.2670 C   0  0  0  0  0  0  0  0  0  0  0  0
   55.1400   30.8580   52.0650 C   0  0  0  0  0  0  0  0  0  0  0  0
   56.1900   31.4260   51.4090 N   0  0  0  0  0  0  0  0  0  0  0  0
   59.8190   32.0740   51.7240 N   0  0  0  0  0  0  0  0  0  0  0  0
   60.8770   32.6380   51.0810 C   0  0  0  0  0  0  0  0  0  0  0  0
   66.7931   34.4375   51.8764 H   0  0  0  0  0  0  0  0  0  0  0  0
   67.5079   33.8672   50.3302 H   0  0  0  0  0  0  0  0  0  0  0  0
   65.9186   34.7045   50.3302 H   0  0  0  0  0  0  0  0  0  0  0  0
   66.5098   30.7476   50.7130 H   0  0  0  0  0  0  0  0  0  0  0  0
   65.3631   31.4095   49.4991 H   0  0  0  0  0  0  0  0  0  0  0  0
   67.0782   31.9434   49.4991 H   0  0  0  0  0  0  0  0  0  0  0  0
   65.6129   32.5196   53.6914 H   0  0  0  0  0  0  0  0  0  0  0  0
   63.4740   32.3882   54.9560 H   0  0  0  0  0  0  0  0  0  0  0  0
   61.2994   32.4425   53.7499 H   0  0  0  0  0  0  0  0  0  0  0  0
   61.9118   34.8550   49.3321 H   0  0  0  0  0  0  0  0  0  0  0  0
   61.6075   33.7527   47.9358 H   0  0  0  0  0  0  0  0  0  0  0  0
   59.1853   31.0320   47.4794 H   0  0  0  0  0  0  0  0  0  0  0  0
   57.3912   31.1102   47.5797 H   0  0  0  0  0  0  0  0  0  0  0  0
   59.1108   30.9987   45.0486 H   0  0  0  0  0  0  0  0  0  0  0  0
   57.9698   29.7420   45.6682 H   0  0  0  0  0  0  0  0  0  0  0  0
   58.3627   32.8849   44.1548 H   0  0  0  0  0  0  0  0  0  0  0  0
   56.5919   33.2207   44.0270 H   0  0  0  0  0  0  0  0  0  0  0  0
   57.7888   34.5759   45.8048 H   0  0  0  0  0  0  0  0  0  0  0  0
   56.4164   33.5840   46.4129 H   0  0  0  0  0  0  0  0  0  0  0  0
   58.7207   30.6075   53.5127 H   0  0  0  0  0  0  0  0  0  0  0  0
   56.8089   29.5568   54.7345 H   0  0  0  0  0  0  0  0  0  0  0  0
   54.4977   29.7197   53.7973 H   0  0  0  0  0  0  0  0  0  0  0  0
   54.1260   30.9348   51.6455 H   0  0  0  0  0  0  0  0  0  0  0  0
   55.9910   31.9240   50.5120 H   0  0  0  0  0  0  0  0  0  0  0  0
  1  2  1  0
  2  3  1  0
  2  4  1  0
  4  5  2  0
  5  6  1  0
  6  7  2  0
  7  8  1  0
  8  9  2  0
  9 10  1  0
 10 11  2  0
 10 12  2  0
 10 13  1  0
 13 14  1  0
 14 15  2  0
 15 16  1  0
 16 17  2  0
 16 18  1  0
 18 19  1  0
 19 20  1  0
 20 21  1  0
 21 22  1  0
 22 23  1  0
 15 24  1  0
 24 25  2  0
 25 26  1  0
 26 27  2  0
 27 28  1  0
 28 29  2  0
 29 30  1  0
 30 31  2  0
 25 32  1  0
 32 33  2  0
  9  4  1  0
 33 14  1  0
 33  8  1  0
 23 18  1  0
 31 26  1  0
  1 34  1  0
  1 35  1  0
  1 36  1  0
  3 37  1  0
  3 38  1  0
  3 39  1  0
  5 40  1  0
  6 41  1  0
  7 42  1  0
 13 43  1  0
 13 44  1  0
 19 45  1  0
 19 46  1  0
 20 47  1  0
 20 48  1  0
 22 49  1  0
 22 50  1  0
 23 51  1  0
 23 52  1  0
 27 53  1  0
 28 54  1  0
 29 55  1  0
 30 56  1  0
 31 57  1  0
M  CHG  1  31   1
M  END
>  <UniqueID>  (13) 
12

>  <SMILES>  (13) 
CN(C)c1cccc2c1S(=O)(=O)Cc1c(C(=O)N3CCOCC3)nc(-c3cccc[nH+]3)nc1-2

>  <Energy>  (13) 
82.76531165158943

>  <Genealogy>  (13) 
CN(C)c1cccc2c1S(=O)(=O)Cc1c(C(=O)N3CCOCC3)nc(-c3cccc[nH+]3)nc1-2 (protonated)
CN(C)c1cccc2c1S(=O)(=O)Cc1c(C(=O)N3CCOCC3)nc(-c3cccc[nH+]3)nc1-2 (3D coordinates assigned)
CN(C)c1cccc2c1S(=O)(=O)Cc1c(C(=O)N3CCOCC3)nc(-c3cccc[nH+]3)nc1-2 (nonaromatic ring conformer: 82.76531165158943 kcal/mol)

>  <smiles>  (13) 
CN(C)c1cccc2c1S(=O)(=O)Cc1c(C(=O)N3CCOCC3)nc(-c3ccccn3)nc1-2

>  <score_type>  (13) 
oracle

>  <origin>  (13) 
adg

>  <m_score__min__energy>  (13) 
-6.7400000000000002

>  <m_primary>  (13) 
energy

$$$$
13:0
     RDKit          3D

 33 35  0  0  0  0  0  0  0  0999 V2000
   62.7570   31.6750   47.7930 C   0  0  0  0  0  0  0  0  0  0  0  0
   61.4800   32.1530   47.1800 C   0  0  0  0  0  0  0  0  0  0  0  0
   61.1910   33.5380   47.1240 C   0  0  0  0  0  0  0  0  0  0  0  0
   59.9740   33.9890   46.5670 C   0  0  0  0  0  0  0  0  0  0  0  0
   59.6510   35.4550   46.5210 C   0  0  0  0  0  0  0  0  0  0  0  0
   59.0980   33.0090   46.0840 C   0  0  0  0  0  0  0  0  0  0  0  0
   57.8250   33.0220   45.5260 C   0  0  0  0  0  0  0  0  0  0  0  0
   56.9600   34.2090   45.2450 C   0  0  0  0  0  0  0  0  0  0  0  0
   57.4360   31.7470   45.2870 N   0  0  0  0  0  0  0  0  0  0  0  0
   58.4160   30.9300   45.6590 N   0  0  0  0  0  0  0  0  0  0  0  0
   58.3380   29.4960   45.5660 C   0  0  0  0  0  0  0  0  0  0  0  0
   58.3550   28.6880   46.7180 C   0  0  0  0  0  0  0  0  0  0  0  0
   58.2880   27.2950   46.6070 C   0  0  0  0  0  0  0  0  0  0  0  0
   58.2110   26.6950   45.3490 C   0  0  0  0  0  0  0  0  0  0  0  0
   58.2090   27.4860   44.1950 C   0  0  0  0  0  0  0  0  0  0  0  0
   58.1210   26.7320   42.6140 Cl  0  0  0  0  0  0  0  0  0  0  0  0
   58.2780   28.8800   44.3040 C   0  0  0  0  0  0  0  0  0  0  0  0
   59.4230   31.6830   46.1450 C   0  0  0  0  0  0  0  0  0  0  0  0
   60.5800   31.2430   46.6970 N   0  0  0  0  0  0  0  0  0  0  0  0
   62.6719   31.7068   48.8892 H   0  0  0  0  0  0  0  0  0  0  0  0
   62.9545   30.6421   47.4704 H   0  0  0  0  0  0  0  0  0  0  0  0
   63.5842   32.3244   47.4704 H   0  0  0  0  0  0  0  0  0  0  0  0
   61.9171   34.2655   47.5158 H   0  0  0  0  0  0  0  0  0  0  0  0
   59.5653   35.8439   47.5464 H   0  0  0  0  0  0  0  0  0  0  0  0
   60.4527   35.9907   45.9915 H   0  0  0  0  0  0  0  0  0  0  0  0
   58.6985   35.6042   45.9915 H   0  0  0  0  0  0  0  0  0  0  0  0
   56.6331   34.6575   46.1947 H   0  0  0  0  0  0  0  0  0  0  0  0
   57.5311   34.9503   44.6668 H   0  0  0  0  0  0  0  0  0  0  0  0
   56.0794   33.8923   44.6668 H   0  0  0  0  0  0  0  0  0  0  0  0
   58.4214   29.1546   47.7119 H   0  0  0  0  0  0  0  0  0  0  0  0
   58.2960   26.6712   47.5130 H   0  0  0  0  0  0  0  0  0  0  0  0
   58.1519   25.5998   45.2649 H   0  0  0  0  0  0  0  0  0  0  0  0
   58.2853   29.4985   43.3944 H   0  0  0  0  0  0  0  0  0  0  0  0
  1  2  1  0
  2  3  2  0
  3  4  1  0
  4  5  1  0
  4  6  2  0
  6  7  1  0
  7  8  1  0
  7  9  2  0
  9 10  1  0
 10 11  1  0
 11 12  2  0
 12 13  1  0
 13 14  2  0
 14 15  1  0
 15 16  1  0
 15 17  2  0
 10 18  1  0
 18 19  2  0
 19  2  1  0
 18  6  1  0
 17 11  1  0
  1 20  1  0
  1 21  1  0
  1 22  1  0
  3 23  1  0
  5 24  1  0
  5 25  1  0
  5 26  1  0
  8 27  1  0
  8 28  1  0
  8 29  1  0
 12 30  1  0
 13 31  1  0
 14 32  1  0
 17 33  1  0
M  END
>  <UniqueID>  (14) 
13

>  <SMILES>  (14) 
Cc1cc(C)c2c(C)nn(-c3cccc(Cl)c3)c2n1

>  <Energy>  (14) 
77.91322168475105

>  <Genealogy>  (14) 
Cc1cc(C)c2c(C)nn(-c3cccc(Cl)c3)c2n1 (3D coordinates assigned)
Cc1cc(C)c2c(C)nn(-c3cccc(Cl)c3)c2n1 (optimized conformer: 77.91322168475105 kcal/mol)

>  <smiles>  (14) 
Cc1cc(C)c2c(C)nn(-c3cccc(Cl)c3)c2n1

>  <score_type>  (14) 
oracle

>  <origin>  (14) 
adg

>  <m_score__min__energy>  (14) 
-7.2400000000000002

>  <m_primary>  (14) 
energy

$$$$
14:0
     RDKit          3D

 37 39  0  0  0  0  0  0  0  0999 V2000
   55.9400   30.8420   52.1140 C   0  0  0  0  0  0  0  0  0  0  0  0
   57.0250   30.0730   51.6080 O   0  0  0  0  0  0  0  0  0  0  0  0
   58.1230   30.6090   50.9210 C   0  0  0  0  0  0  0  0  0  0  0  0
   59.2020   29.8170   50.4840 C   0  0  0  0  0  0  0  0  0  0  0  0
   60.2740   30.4000   49.8020 C   0  0  0  0  0  0  0  0  0  0  0  0
   60.2880   31.7800   49.5410 C   0  0  0  0  0  0  0  0  0  0  0  0
   61.3970   32.3820   48.8450 N   0  0  0  0  0  0  0  0  0  0  0  0
   62.3900   33.1640   49.5790 C   0  0  0  0  0  0  0  0  0  0  0  0
   61.5390   32.2400   47.1160 S   0  0  0  0  0  0  0  0  0  0  0  0
   62.0580   33.5240   46.5300 O   0  0  0  0  0  0  0  0  0  0  0  0
   62.4960   31.1270   46.7930 O   0  0  0  0  0  0  0  0  0  0  0  0
   59.9560   31.9190   46.4170 C   0  0  0  0  0  0  0  0  0  0  0  0
   59.2440   32.9710   45.7950 C   0  0  0  0  0  0  0  0  0  0  0  0
   57.9740   32.7440   45.2330 C   0  0  0  0  0  0  0  0  0  0  0  0
   57.4470   31.4570   45.3090 C   0  0  0  0  0  0  0  0  0  0  0  0
   56.2570   31.0450   44.8340 N   0  0  0  0  0  0  0  0  0  0  0  0
   56.2190   29.7300   45.1570 C   0  0  0  0  0  0  0  0  0  0  0  0
   55.1450   28.9070   44.8460 O   0  0  0  0  0  0  0  0  0  0  0  0
   57.3600   29.3070   45.8230 C   0  0  0  0  0  0  0  0  0  0  0  0
   58.1380   30.4350   45.9100 C   0  0  0  0  0  0  0  0  0  0  0  0
   59.3960   30.6250   46.4760 C   0  0  0  0  0  0  0  0  0  0  0  0
   59.2130   32.5680   49.9840 C   0  0  0  0  0  0  0  0  0  0  0  0
   58.1420   31.9850   50.6660 C   0  0  0  0  0  0  0  0  0  0  0  0
   55.9613   30.8269   53.2137 H   0  0  0  0  0  0  0  0  0  0  0  0
   56.0293   31.8796   51.7597 H   0  0  0  0  0  0  0  0  0  0  0  0
   54.9906   30.4140   51.7597 H   0  0  0  0  0  0  0  0  0  0  0  0
   59.2014   28.7346   50.6801 H   0  0  0  0  0  0  0  0  0  0  0  0
   61.1134   29.7729   49.4670 H   0  0  0  0  0  0  0  0  0  0  0  0
   62.2299   33.0380   50.6600 H   0  0  0  0  0  0  0  0  0  0  0  0
   63.3994   32.8157   49.3147 H   0  0  0  0  0  0  0  0  0  0  0  0
   62.2880   34.2269   49.3147 H   0  0  0  0  0  0  0  0  0  0  0  0
   59.6874   33.9767   45.7501 H   0  0  0  0  0  0  0  0  0  0  0  0
   57.4147   33.5580   44.7486 H   0  0  0  0  0  0  0  0  0  0  0  0
   57.5892   28.2980   46.1963 H   0  0  0  0  0  0  0  0  0  0  0  0
   59.9355   29.7938   46.9534 H   0  0  0  0  0  0  0  0  0  0  0  0
   59.2143   33.6512   49.7927 H   0  0  0  0  0  0  0  0  0  0  0  0
   57.3057   32.6135   51.0058 H   0  0  0  0  0  0  0  0  0  0  0  0
  1  2  1  0
  2  3  1  0
  3  4  2  0
  4  5  1  0
  5  6  2  0
  6  7  1  0
  7  8  1  0
  7  9  1  0
  9 10  2  0
  9 11  2  0
  9 12  1  0
 12 13  2  0
 13 14  1  0
 14 15  2  0
 15 16  1  0
 16 17  1  0
 17 18  1  0
 17 19  2  0
 19 20  1  0
 20 21  2  0
  6 22  1  0
 22 23  2  0
 23  3  1  0
 21 12  1  0
 20 15  1  0
  1 24  1  0
  1 25  1  0
  1 26  1  0
  4 27  1  0
  5 28  1  0
  8 29  1  0
  8 30  1  0
  8 31  1  0
 13 32  1  0
 14 33  1  0
 19 34  1  0
 21 35  1  0
 22 36  1  0
 23 37  1  0
M  CHG  2  16  -1  18  -1
M  END
>  <UniqueID>  (15) 
14

>  <SMILES>  (15) 
COc1ccc(N(C)S(=O)(=O)c2ccc3[n-]c([O-])cc3c2)cc1

>  <Energy>  (15) 
75.42114579379543

>  <Genealogy>  (15) 
COc1ccc(N(C)S(=O)(=O)c2ccc3[n-]c([O-])cc3c2)cc1 (protonated)
COc1ccc(N(C)S(=O)(=O)c2ccc3[n-]c([O-])cc3c2)cc1 (3D coordinates assigned)
COc1ccc(N(C)S(=O)(=O)c2ccc3[n-]c([O-])cc3c2)cc1 (optimized conformer: 75.42114579379543 kcal/mol)

>  <smiles>  (15) 
COc1ccc(N(C)S(=O)(=O)c2ccc3[nH]c(O)cc3c2)cc1

>  <score_type>  (15) 
oracle

>  <origin>  (15) 
adg

>  <m_score__min__energy>  (15) 
-12.98

>  <m_primary>  (15) 
energy

$$$$
15:0
     RDKit          3D

 44 46  0  0  0  0  0  0  0  0999 V2000
   56.9200   34.5820   44.9320 C   0  0  0  0  0  0  0  0  0  0  0  0
   58.1150   33.7240   44.9760 N   0  0  0  0  0  0  0  0  0  0  0  0
   59.3810   34.4090   45.0560 C   0  0  0  0  0  0  0  0  0  0  0  0
   60.0820   34.2430   46.3460 C   0  0  0  0  0  0  0  0  0  0  0  0
   59.5180   34.4810   47.5760 C   0  0  0  0  0  0  0  0  0  0  0  0
   60.1920   34.3120   48.7290 N   0  0  0  0  0  0  0  0  0  0  0  0
   61.4690   33.8940   48.7080 C   0  0  0  0  0  0  0  0  0  0  0  0
   62.1090   33.7370   49.8830 N   0  0  0  0  0  0  0  0  0  0  0  0
   63.4010   33.3140   49.8920 C   0  0  0  0  0  0  0  0  0  0  0  0
   64.0510   33.0510   48.7370 N   0  0  0  0  0  0  0  0  0  0  0  0
   63.4030   33.2110   47.5540 C   0  0  0  0  0  0  0  0  0  0  0  0
   64.0290   32.9570   46.4530 N   0  0  0  0  0  0  0  0  0  0  0  0
   62.0970   33.6350   47.5040 C   0  0  0  0  0  0  0  0  0  0  0  0
   61.4050   33.8080   46.3180 C   0  0  0  0  0  0  0  0  0  0  0  0
   57.9600   32.3130   44.9450 C   0  0  0  0  0  0  0  0  0  0  0  0
   58.3170   31.4750   45.9720 C   0  0  0  0  0  0  0  0  0  0  0  0
   58.1570   30.1070   45.9210 C   0  0  0  0  0  0  0  0  0  0  0  0
   57.6160   29.5290   44.7950 C   0  0  0  0  0  0  0  0  0  0  0  0
   57.4210   28.0920   44.6770 C   0  0  0  0  0  0  0  0  0  0  0  0
   57.7220   27.5630   43.5800 O   0  0  0  0  0  0  0  0  0  0  0  0
   56.9180   27.3100   45.7380 N   0  0  0  0  0  0  0  0  0  0  0  0
   56.7410   25.9190   45.5910 C   0  0  0  0  0  0  0  0  0  0  0  0
   56.9800   25.2120   44.5830 N   0  0  0  0  0  0  0  0  0  0  0  0
   56.2160   25.2270   46.7550 N   0  0  0  0  0  0  0  0  0  0  0  0
   57.2610   30.3740   43.7670 C   0  0  0  0  0  0  0  0  0  0  0  0
   57.4200   31.7390   43.8180 C   0  0  0  0  0  0  0  0  0  0  0  0
   56.5971   34.8138   45.9577 H   0  0  0  0  0  0  0  0  0  0  0  0
   57.1587   35.5163   44.4027 H   0  0  0  0  0  0  0  0  0  0  0  0
   56.1111   34.0571   44.4027 H   0  0  0  0  0  0  0  0  0  0  0  0
   60.0324   34.0233   44.2579 H   0  0  0  0  0  0  0  0  0  0  0  0
   59.1654   35.4825   44.9507 H   0  0  0  0  0  0  0  0  0  0  0  0
   58.4736   34.8234   47.6204 H   0  0  0  0  0  0  0  0  0  0  0  0
   63.9236   33.1843   50.8512 H   0  0  0  0  0  0  0  0  0  0  0  0
   65.0340   32.7330   48.8060 H   0  0  0  0  0  0  0  0  0  0  0  0
   64.7690   32.2510   46.4020 H   0  0  0  0  0  0  0  0  0  0  0  0
   61.8981   33.6027   45.3564 H   0  0  0  0  0  0  0  0  0  0  0  0
   58.7522   31.9171   46.8804 H   0  0  0  0  0  0  0  0  0  0  0  0
   58.4594   29.4817   46.7739 H   0  0  0  0  0  0  0  0  0  0  0  0
   56.6760   27.7560   46.6280 H   0  0  0  0  0  0  0  0  0  0  0  0
   57.0590   25.4550   43.6140 H   0  0  0  0  0  0  0  0  0  0  0  0
   55.5260   25.6980   47.3790 H   0  0  0  0  0  0  0  0  0  0  0  0
   56.5260   24.2590   46.9650 H   0  0  0  0  0  0  0  0  0  0  0  0
   56.8273   29.9337   42.8570 H   0  0  0  0  0  0  0  0  0  0  0  0
   57.1182   32.3656   42.9657 H   0  0  0  0  0  0  0  0  0  0  0  0
  1  2  1  0
  2  3  1  0
  3  4  1  0
  4  5  2  0
  5  6  1  0
  6  7  2  0
  7  8  1  0
  8  9  2  0
  9 10  1  0
 10 11  1  0
 11 12  2  3
 11 13  1  0
 13 14  2  0
  2 15  1  0
 15 16  2  0
 16 17  1  0
 17 18  2  0
 18 19  1  0
 19 20  2  0
 19 21  1  0
 21 22  1  0
 22 23  2  3
 22 24  1  0
 18 25  1  0
 25 26  2  0
 14  4  1  0
 26 15  1  0
 13  7  1  0
  1 27  1  0
  1 28  1  0
  1 29  1  0
  3 30  1  0
  3 31  1  0
  5 32  1  0
  9 33  1  0
 10 34  1  0
 12 35  1  0
 14 36  1  0
 16 37  1  0
 17 38  1  0
 21 39  1  0
 23 40  1  0
 24 41  1  0
 24 42  1  0
 25 43  1  0
 26 44  1  0
M  END
>  <smiles>  (16) 
CN(Cc1cnc2nc[nH]c(=N)c2c1)c1ccc(C(=O)NC(=N)N)cc1

>  <score_type>  (16) 
oracle

>  <origin>  (16) 
adg

>  <m_score__min__energy>  (16) 
-7.96

>  <m_primary>  (16) 
energy

$$$$
16:0
     RDKit          3D

 49 50  0  0  0  0  0  0  0  0999 V2000
   59.2450   34.8920   45.2910 C   0  0  0  0  0  0  0  0  0  0  0  0
   58.5330   33.7230   45.6830 O   0  0  0  0  0  0  0  0  0  0  0  0
   58.0280   32.7650   44.7900 C   0  0  0  0  0  0  0  0  0  0  0  0
   58.1290   33.0190   43.4180 C   0  0  0  0  0  0  0  0  0  0  0  0
   57.6590   32.0880   42.4810 C   0  0  0  0  0  0  0  0  0  0  0  0
   57.7450   32.3850   41.0120 C   0  0  0  0  0  0  0  0  0  0  0  0
   57.0490   30.9070   42.9250 C   0  0  0  0  0  0  0  0  0  0  0  0
   56.9330   30.6410   44.2980 C   0  0  0  0  0  0  0  0  0  0  0  0
   56.3120   29.3470   44.7690 C   0  0  0  0  0  0  0  0  0  0  0  0
   57.0010   28.7980   45.9460 N   0  0  0  0  0  0  0  0  0  0  0  0
   58.4450   28.6380   45.7140 C   0  0  0  0  0  0  0  0  0  0  0  0
   58.7820   27.1640   45.4190 C   0  0  0  0  0  0  0  0  0  0  0  0
   57.6740   26.5060   44.5600 C   0  0  0  0  0  0  0  0  0  0  0  0
   57.6740   24.9820   44.7310 C   0  0  0  0  0  0  0  0  0  0  0  0
   57.4370   24.5560   46.1380 N   0  0  0  0  0  0  0  0  0  0  0  0
   56.0620   24.0520   46.3570 C   0  0  0  0  0  0  0  0  0  0  0  0
   55.0420   24.9340   45.6280 C   0  0  0  0  0  0  0  0  0  0  0  0
   55.1360   26.2710   46.0420 O   0  0  0  0  0  0  0  0  0  0  0  0
   57.7970   25.5790   47.1490 C   0  0  0  0  0  0  0  0  0  0  0  0
   59.0370   26.3750   46.7290 C   0  0  0  0  0  0  0  0  0  0  0  0
   57.4310   31.5680   45.2270 C   0  0  0  0  0  0  0  0  0  0  0  0
   59.5769   35.4369   46.1871 H   0  0  0  0  0  0  0  0  0  0  0  0
   60.1212   34.6039   44.6915 H   0  0  0  0  0  0  0  0  0  0  0  0
   58.5870   35.5383   44.6915 H   0  0  0  0  0  0  0  0  0  0  0  0
   58.5820   33.9593   43.0706 H   0  0  0  0  0  0  0  0  0  0  0  0
   58.0483   33.4324   40.8668 H   0  0  0  0  0  0  0  0  0  0  0  0
   58.4876   31.7203   40.5464 H   0  0  0  0  0  0  0  0  0  0  0  0
   56.7622   32.2199   40.5464 H   0  0  0  0  0  0  0  0  0  0  0  0
   56.6589   30.1844   42.1931 H   0  0  0  0  0  0  0  0  0  0  0  0
   55.2595   29.5329   45.0290 H   0  0  0  0  0  0  0  0  0  0  0  0
   56.3987   28.6137   43.9537 H   0  0  0  0  0  0  0  0  0  0  0  0
   56.5890   27.8650   46.1850 H   0  0  0  0  0  0  0  0  0  0  0  0
   58.7449   29.2571   44.8556 H   0  0  0  0  0  0  0  0  0  0  0  0
   58.9884   28.9543   46.6166 H   0  0  0  0  0  0  0  0  0  0  0  0
   59.7141   27.1361   44.8356 H   0  0  0  0  0  0  0  0  0  0  0  0
   56.6960   26.9022   44.8705 H   0  0  0  0  0  0  0  0  0  0  0  0
   57.8677   26.7387   43.5025 H   0  0  0  0  0  0  0  0  0  0  0  0
   56.8809   24.5579   44.0977 H   0  0  0  0  0  0  0  0  0  0  0  0
   58.6700   24.6175   44.4394 H   0  0  0  0  0  0  0  0  0  0  0  0
   55.9889   23.0231   45.9748 H   0  0  0  0  0  0  0  0  0  0  0  0
   55.8436   24.0737   47.4349 H   0  0  0  0  0  0  0  0  0  0  0  0
   55.2304   24.8800   44.5456 H   0  0  0  0  0  0  0  0  0  0  0  0
   54.0328   24.5670   45.8662 H   0  0  0  0  0  0  0  0  0  0  0  0
   56.1030   26.4620   46.1620 H   0  0  0  0  0  0  0  0  0  0  0  0
   56.9521   26.2726   47.2715 H   0  0  0  0  0  0  0  0  0  0  0  0
   58.0227   25.0640   48.0944 H   0  0  0  0  0  0  0  0  0  0  0  0
   59.2962   27.0835   47.5295 H   0  0  0  0  0  0  0  0  0  0  0  0
   59.8611   25.6677   46.5539 H   0  0  0  0  0  0  0  0  0  0  0  0
   57.3541   31.3573   46.3039 H   0  0  0  0  0  0  0  0  0  0  0  0
  1  2  1  0
  2  3  1  0
  3  4  2  0
  4  5  1  0
  5  6  1  0
  5  7  2  0
  7  8  1  0
  8  9  1  0
  9 10  1  0
 10 11  1  0
 11 12  1  0
 12 13  1  0
 13 14  1  0
 14 15  1  0
 15 16  1  0
 16 17  1  0
 17 18  1  0
 15 19  1  0
 19 20  1  0
  8 21  2  0
 21  3  1  0
 20 12  1  0
  1 22  1  0
  1 23  1  0
  1 24  1  0
  4 25  1  0
  6 26  1  0
  6 27  1  0
  6 28  1  0
  7 29  1  0
  9 30  1  0
  9 31  1  0
 10 32  1  0
 11 33  1  0
 11 34  1  0
 12 35  1  0
 13 36  1  0
 13 37  1  0
 14 38  1  0
 14 39  1  0
 16 40  1  0
 16 41  1  0
 17 42  1  0
 17 43  1  0
 18 44  1  0
 19 45  1  0
 19 46  1  0
 20 47  1  0
 20 48  1  0
 21 49  1  0
M  END
>  <UniqueID>  (17) 
15

>  <SMILES>  (17) 
COc1cc(C)cc(CNCC2CCN(CCO)CC2)c1

>  <Energy>  (17) 
51.596032795844856

>  <Genealogy>  (17) 
COc1cc(C)cc(CNCC2CCN(CCO)CC2)c1 (3D coordinates assigned)
COc1cc(C)cc(CNCC2CCN(CCO)CC2)c1 (nonaromatic ring conformer: 51.596032795844856 kcal/mol)

>  <smiles>  (17) 
COc1cc(C)cc(CNCC2CCN(CCO)CC2)c1

>  <score_type>  (17) 
oracle

>  <origin>  (17) 
adg

>  <m_score__min__energy>  (17) 
-7.3200000000000003

>  <m_primary>  (17) 
energy

$$$$
17:0
     RDKit          3D

 45 46  0  0  0  0  0  0  0  0999 V2000
   55.0200   24.9350   45.5900 C   0  0  0  0  0  0  0  0  0  0  0  0
   55.1590   26.2830   45.9840 O   0  0  0  0  0  0  0  0  0  0  0  0
   56.4570   26.7570   45.6790 C   0  0  0  0  0  0  0  0  0  0  0  0
   57.3950   26.5340   46.8700 C   0  0  0  0  0  0  0  0  0  0  0  0
   58.8290   26.9630   46.5460 C   0  0  0  0  0  0  0  0  0  0  0  0
   58.9800   28.4320   46.7350 N   0  0  0  0  0  0  0  0  0  0  0  0
   58.9950   28.7340   48.1840 C   0  0  0  0  0  0  0  0  0  0  0  0
   59.2650   30.2170   48.4980 C   0  0  0  0  0  0  0  0  0  0  0  0
   59.3750   31.0510   47.2940 N   0  0  0  0  0  0  0  0  0  0  0  0
   58.1430   31.7310   46.8300 C   0  0  0  0  0  0  0  0  0  0  0  0
   57.9250   31.6850   45.3270 C   0  0  0  0  0  0  0  0  0  0  0  0
   57.2210   30.6010   44.7580 C   0  0  0  0  0  0  0  0  0  0  0  0
   56.7210   29.6100   45.5370 F   0  0  0  0  0  0  0  0  0  0  0  0
   56.9870   30.5490   43.3810 C   0  0  0  0  0  0  0  0  0  0  0  0
   57.4350   31.5770   42.5540 C   0  0  0  0  0  0  0  0  0  0  0  0
   58.1010   32.6710   43.1010 C   0  0  0  0  0  0  0  0  0  0  0  0
   58.3330   32.7470   44.4790 C   0  0  0  0  0  0  0  0  0  0  0  0
   59.0510   34.2320   45.0950 Cl  0  0  0  0  0  0  0  0  0  0  0  0
   60.2850   30.5230   46.2630 C   0  0  0  0  0  0  0  0  0  0  0  0
   60.2020   28.9790   46.0870 C   0  0  2  0  0  0  0  0  0  0  0  0
   60.2760   28.6500   44.5810 C   0  0  0  0  0  0  0  0  0  0  0  0
   54.9542   24.2968   46.4835 H   0  0  0  0  0  0  0  0  0  0  0  0
   54.1053   24.8209   44.9897 H   0  0  0  0  0  0  0  0  0  0  0  0
   55.8921   24.6366   44.9897 H   0  0  0  0  0  0  0  0  0  0  0  0
   56.8455   26.2151   44.8041 H   0  0  0  0  0  0  0  0  0  0  0  0
   56.4039   27.8338   45.4606 H   0  0  0  0  0  0  0  0  0  0  0  0
   57.0313   27.1216   47.7258 H   0  0  0  0  0  0  0  0  0  0  0  0
   57.4022   25.4596   47.1059 H   0  0  0  0  0  0  0  0  0  0  0  0
   59.5259   26.4368   47.2150 H   0  0  0  0  0  0  0  0  0  0  0  0
   59.0518   26.7105   45.4988 H   0  0  0  0  0  0  0  0  0  0  0  0
   58.0171   28.4607   48.6070 H   0  0  0  0  0  0  0  0  0  0  0  0
   59.8175   28.1537   48.6276 H   0  0  0  0  0  0  0  0  0  0  0  0
   58.4387   30.6001   49.1148 H   0  0  0  0  0  0  0  0  0  0  0  0
   60.2303   30.2703   49.0227 H   0  0  0  0  0  0  0  0  0  0  0  0
   57.2815   31.2506   47.3168 H   0  0  0  0  0  0  0  0  0  0  0  0
   58.2522   32.7924   47.0976 H   0  0  0  0  0  0  0  0  0  0  0  0
   56.4473   29.6935   42.9487 H   0  0  0  0  0  0  0  0  0  0  0  0
   57.2626   31.5245   41.4689 H   0  0  0  0  0  0  0  0  0  0  0  0
   58.4477   33.4824   42.4442 H   0  0  0  0  0  0  0  0  0  0  0  0
   60.0333   30.9961   45.3024 H   0  0  0  0  0  0  0  0  0  0  0  0
   61.3096   30.7548   46.5892 H   0  0  0  0  0  0  0  0  0  0  0  0
   61.0513   28.4941   46.5906 H   0  0  0  0  0  0  0  0  0  0  0  0
   60.5157   27.5845   44.4498 H   0  0  0  0  0  0  0  0  0  0  0  0
   59.3063   28.8684   44.1099 H   0  0  0  0  0  0  0  0  0  0  0  0
   61.0588   29.2626   44.1099 H   0  0  0  0  0  0  0  0  0  0  0  0
  1  2  1  0
  2  3  1  0
  3  4  1  0
  4  5  1  0
  5  6  1  0
  6  7  1  0
  7  8  1  0
  8  9  1  0
  9 10  1  0
 10 11  1  0
 11 12  2  0
 12 13  1  0
 12 14  1  0
 14 15  2  0
 15 16  1  0
 16 17  2  0
 17 18  1  0
  9 19  1  0
 19 20  1  0
 20 21  1  0
 20  6  1  0
 17 11  1  0
  1 22  1  0
  1 23  1  0
  1 24  1  0
  3 25  1  0
  3 26  1  0
  4 27  1  0
  4 28  1  0
  5 29  1  0
  5 30  1  0
  7 31  1  0
  7 32  1  0
  8 33  1  0
  8 34  1  0
 10 35  1  0
 10 36  1  0
 14 37  1  0
 15 38  1  0
 16 39  1  0
 19 40  1  0
 19 41  1  0
 20 42  1  1
 21 43  1  0
 21 44  1  0
 21 45  1  0
M  END
>  <UniqueID>  (18) 
16

>  <SMILES>  (18) 
COCCCN1CCN(Cc2c(F)cccc2Cl)C[C@@H]1C

>  <Energy>  (18) 
62.92264069554113

>  <Genealogy>  (18) 
COCCCN1CCN(Cc2c(F)cccc2Cl)C[C@@H]1C (chirality)
COCCCN1CCN(Cc2c(F)cccc2Cl)C[C@@H]1C (3D coordinates assigned)
COCCCN1CCN(Cc2c(F)cccc2Cl)C[C@@H]1C (nonaromatic ring conformer: 62.92264069554113 kcal/mol)

>  <smiles>  (18) 
COCCCN1CCN(Cc2c(F)cccc2Cl)CC1C

>  <score_type>  (18) 
oracle

>  <origin>  (18) 
adg

>  <m_score__min__energy>  (18) 
-6.9900000000000002

>  <m_primary>  (18) 
energy

$$$$
18:0
     RDKit          3D

 30 31  0  0  0  0  0  0  0  0999 V2000
   56.9780   26.8550   45.6570 C   0  0  0  0  0  0  0  0  0  0  0  0
   56.5520   28.1920   45.2410 N   0  0  0  0  0  0  0  0  0  0  0  0
   57.3850   29.2480   45.8370 C   0  0  0  0  0  0  0  0  0  0  0  0
   57.5410   30.4420   44.9170 C   0  0  0  0  0  0  0  0  0  0  0  0
   57.2540   30.2430   43.6010 N   0  0  0  0  0  0  0  0  0  0  0  0
   57.3590   31.2220   42.6680 C   0  0  0  0  0  0  0  0  0  0  0  0
   57.7780   32.4950   43.0360 C   0  0  0  0  0  0  0  0  0  0  0  0
   58.0960   32.7560   44.3750 C   0  0  0  0  0  0  0  0  0  0  0  0
   58.5280   34.0350   44.7510 C   0  0  0  0  0  0  0  0  0  0  0  0
   58.8600   34.3090   46.0820 C   0  0  0  0  0  0  0  0  0  0  0  0
   59.2890   35.5830   46.4500 O   0  0  0  0  0  0  0  0  0  0  0  0
   58.7650   33.3050   47.0530 C   0  0  0  0  0  0  0  0  0  0  0  0
   59.1170   33.6240   48.3740 O   0  0  0  0  0  0  0  0  0  0  0  0
   60.4480   33.8570   48.8240 C   0  0  0  0  0  0  0  0  0  0  0  0
   58.3270   32.0190   46.6810 C   0  0  0  0  0  0  0  0  0  0  0  0
   57.9860   31.7250   45.3430 C   0  0  0  0  0  0  0  0  0  0  0  0
   56.9952   26.8009   46.7555 H   0  0  0  0  0  0  0  0  0  0  0  0
   56.2737   26.1069   45.2641 H   0  0  0  0  0  0  0  0  0  0  0  0
   57.9852   26.6523   45.2641 H   0  0  0  0  0  0  0  0  0  0  0  0
   56.6060   28.2510   44.1970 H   0  0  0  0  0  0  0  0  0  0  0  0
   56.9164   29.5820   46.7745 H   0  0  0  0  0  0  0  0  0  0  0  0
   58.3854   28.8275   46.0170 H   0  0  0  0  0  0  0  0  0  0  0  0
   57.1119   31.0079   41.6177 H   0  0  0  0  0  0  0  0  0  0  0  0
   57.8593   33.2914   42.2816 H   0  0  0  0  0  0  0  0  0  0  0  0
   58.6066   34.8292   43.9940 H   0  0  0  0  0  0  0  0  0  0  0  0
   59.3510   35.8630   47.4210 H   0  0  0  0  0  0  0  0  0  0  0  0
   60.4679   33.8605   49.9238 H   0  0  0  0  0  0  0  0  0  0  0  0
   61.1069   33.0605   48.4479 H   0  0  0  0  0  0  0  0  0  0  0  0
   60.7972   34.8299   48.4479 H   0  0  0  0  0  0  0  0  0  0  0  0
   58.2494   31.2314   47.4450 H   0  0  0  0  0  0  0  0  0  0  0  0
  1  2  1  0
  2  3  1  0
  3  4  1  0
  4  5  2  0
  5  6  1  0
  6  7  2  0
  7  8  1  0
  8  9  2  0
  9 10  1  0
 10 11  1  0
 10 12  2  0
 12 13  1  0
 13 14  1  0
 12 15  1  0
 15 16  2  0
 16  4  1  0
 16  8  1  0
  1 17  1  0
  1 18  1  0
  1 19  1  0
  2 20  1  0
  3 21  1  0
  3 22  1  0
  6 23  1  0
  7 24  1  0
  9 25  1  0
 11 26  1  0
 14 27  1  0
 14 28  1  0
 14 29  1  0
 15 30  1  0
M  END
>  <UniqueID>  (19) 
17

>  <SMILES>  (19) 
CNCc1nccc2cc(O)c(OC)cc12

>  <Energy>  (19) 
35.56254064903016

>  <Genealogy>  (19) 
CNCc1nccc2cc(O)c(OC)cc12 (3D coordinates assigned)
CNCc1nccc2cc(O)c(OC)cc12 (optimized conformer: 35.56254064903016 kcal/mol)

>  <smiles>  (19) 
CNCc1nccc2cc(O)c(OC)cc12

>  <score_type>  (19) 
oracle

>  <origin>  (19) 
adg

>  <m_score__min__energy>  (19) 
-5.5800000000000001

>  <m_primary>  (19) 
energy

$$$$
19:0
     RDKit          3D

 36 38  0  0  0  0  0  0  0  0999 V2000
   56.8820   27.2700   45.6490 C   0  0  0  0  0  0  0  0  0  0  0  0
   56.1150   28.3820   45.1960 O   0  0  0  0  0  0  0  0  0  0  0  0
   56.6590   29.5330   44.6080 C   0  0  0  0  0  0  0  0  0  0  0  0
   56.4570   29.7350   43.2380 C   0  0  0  0  0  0  0  0  0  0  0  0
   56.9790   30.8650   42.6040 C   0  0  0  0  0  0  0  0  0  0  0  0
   57.7110   31.8030   43.3340 C   0  0  0  0  0  0  0  0  0  0  0  0
   57.9270   31.6230   44.7100 C   0  0  0  0  0  0  0  0  0  0  0  0
   58.7060   32.6240   45.4810 C   0  0  0  0  0  0  0  0  0  0  0  0
   58.4570   33.9970   45.3180 C   0  0  0  0  0  0  0  0  0  0  0  0
   59.2020   34.9240   46.0470 C   0  0  0  0  0  0  0  0  0  0  0  0
   60.1900   34.4850   46.9250 C   0  0  0  0  0  0  0  0  0  0  0  0
   60.4310   33.1110   47.0630 C   0  0  0  0  0  0  0  0  0  0  0  0
   61.4760   32.6310   47.9950 C   0  0  0  0  0  0  0  0  0  0  0  0
   61.0980   31.9120   49.1430 C   0  0  0  0  0  0  0  0  0  0  0  0
   62.0650   31.4330   50.0300 C   0  0  0  0  0  0  0  0  0  0  0  0
   63.4190   31.6690   49.7840 C   0  0  0  0  0  0  0  0  0  0  0  0
   63.8080   32.3910   48.6540 C   0  0  0  0  0  0  0  0  0  0  0  0
   62.8470   32.8770   47.7580 C   0  0  0  0  0  0  0  0  0  0  0  0
   63.3970   33.8420   46.3910 Cl  0  0  0  0  0  0  0  0  0  0  0  0
   59.6800   32.2190   46.3520 N   0  0  0  0  0  0  0  0  0  0  0  0
   57.3980   30.4820   45.3420 C   0  0  0  0  0  0  0  0  0  0  0  0
   56.8922   27.2553   46.7489 H   0  0  0  0  0  0  0  0  0  0  0  0
   56.4337   26.3382   45.2739 H   0  0  0  0  0  0  0  0  0  0  0  0
   57.9123   27.3581   45.2739 H   0  0  0  0  0  0  0  0  0  0  0  0
   55.8831   28.9987   42.6562 H   0  0  0  0  0  0  0  0  0  0  0  0
   56.8129   31.0160   41.5272 H   0  0  0  0  0  0  0  0  0  0  0  0
   58.1215   32.6893   42.8280 H   0  0  0  0  0  0  0  0  0  0  0  0
   57.6791   34.3390   44.6196 H   0  0  0  0  0  0  0  0  0  0  0  0
   59.0094   36.0005   45.9286 H   0  0  0  0  0  0  0  0  0  0  0  0
   60.7771   35.2114   47.5061 H   0  0  0  0  0  0  0  0  0  0  0  0
   60.0327   31.7254   49.3440 H   0  0  0  0  0  0  0  0  0  0  0  0
   61.7593   30.8690   50.9236 H   0  0  0  0  0  0  0  0  0  0  0  0
   64.1794   31.2861   50.4806 H   0  0  0  0  0  0  0  0  0  0  0  0
   64.8754   32.5793   48.4662 H   0  0  0  0  0  0  0  0  0  0  0  0
   59.8330   31.1960   46.5060 H   0  0  0  0  0  0  0  0  0  0  0  0
   57.5630   30.3297   46.4188 H   0  0  0  0  0  0  0  0  0  0  0  0
  1  2  1  0
  2  3  1  0
  3  4  2  0
  4  5  1  0
  5  6  2  0
  6  7  1  0
  7  8  1  0
  8  9  2  0
  9 10  1  0
 10 11  2  0
 11 12  1  0
 12 13  1  0
 13 14  2  0
 14 15  1  0
 15 16  2  0
 16 17  1  0
 17 18  2  0
 18 19  1  0
 12 20  2  0
  7 21  2  0
 21  3  1  0
 20  8  1  0
 18 13  1  0
  1 22  1  0
  1 23  1  0
  1 24  1  0
  4 25  1  0
  5 26  1  0
  6 27  1  0
  9 28  1  0
 10 29  1  0
 11 30  1  0
 14 31  1  0
 15 32  1  0
 16 33  1  0
 17 34  1  0
 20 35  1  0
 21 36  1  0
M  CHG  1  20   1
M  END
>  <UniqueID>  (20) 
18

>  <SMILES>  (20) 
COc1cccc(-c2cccc(-c3ccccc3Cl)[nH+]2)c1

>  <Energy>  (20) 
50.049188251938666

>  <Genealogy>  (20) 
COc1cccc(-c2cccc(-c3ccccc3Cl)[nH+]2)c1 (protonated)
COc1cccc(-c2cccc(-c3ccccc3Cl)[nH+]2)c1 (3D coordinates assigned)
COc1cccc(-c2cccc(-c3ccccc3Cl)[nH+]2)c1 (optimized conformer: 50.049188251938666 kcal/mol)

>  <smiles>  (20) 
COc1cccc(-c2cccc(-c3ccccc3Cl)n2)c1

>  <score_type>  (20) 
oracle

>  <origin>  (20) 
adg

>  <m_score__min__energy>  (20) 
-6.7199999999999998

>  <m_primary>  (20) 
energy

$$$$
20:0
     RDKit          3D

 42 43  0  0  0  0  0  0  0  0999 V2000
   63.7670   33.2230   48.3200 C   0  0  0  0  0  0  0  0  0  0  0  0
   62.8880   33.7050   49.4620 C   0  0  0  0  0  0  0  0  0  0  0  0
   61.8900   34.5870   48.9560 O   0  0  0  0  0  0  0  0  0  0  0  0
   60.8850   34.2140   48.0510 C   0  0  0  0  0  0  0  0  0  0  0  0
   59.5920   33.8460   48.4690 C   0  0  0  0  0  0  0  0  0  0  0  0
   58.6260   33.4770   47.5280 C   0  0  0  0  0  0  0  0  0  0  0  0
   58.9370   33.4700   46.1620 C   0  0  0  0  0  0  0  0  0  0  0  0
   57.7330   32.9390   44.9890 S   0  0  0  0  0  0  0  0  0  0  0  0
   56.6440   33.9680   44.8750 O   0  0  0  0  0  0  0  0  0  0  0  0
   58.3850   32.7710   43.6460 O   0  0  0  0  0  0  0  0  0  0  0  0
   57.0600   31.4230   45.4840 N   0  0  0  0  0  0  0  0  0  0  0  0
   57.6620   30.1860   45.0890 C   0  0  0  0  0  0  0  0  0  0  0  0
   57.2020   29.5100   43.9370 C   0  0  0  0  0  0  0  0  0  0  0  0
   56.0910   30.0730   43.0930 C   0  0  0  0  0  0  0  0  0  0  0  0
   57.7570   28.2660   43.5980 C   0  0  0  0  0  0  0  0  0  0  0  0
   58.7840   27.7190   44.3660 C   0  0  0  0  0  0  0  0  0  0  0  0
   59.2660   28.4010   45.4820 C   0  0  0  0  0  0  0  0  0  0  0  0
   58.7070   29.6310   45.8610 C   0  0  0  0  0  0  0  0  0  0  0  0
   59.2740   30.3600   47.0560 C   0  0  0  0  0  0  0  0  0  0  0  0
   60.7860   30.5120   46.9270 C   0  0  0  0  0  0  0  0  0  0  0  0
   60.2230   33.8360   45.7450 C   0  0  0  0  0  0  0  0  0  0  0  0
   61.1890   34.2060   46.6850 C   0  0  0  0  0  0  0  0  0  0  0  0
   64.6625   32.7320   48.7286 H   0  0  0  0  0  0  0  0  0  0  0  0
   63.2056   32.5066   47.7024 H   0  0  0  0  0  0  0  0  0  0  0  0
   64.0692   34.0816   47.7024 H   0  0  0  0  0  0  0  0  0  0  0  0
   62.4044   32.8413   49.9417 H   0  0  0  0  0  0  0  0  0  0  0  0
   63.5062   34.2370   50.2001 H   0  0  0  0  0  0  0  0  0  0  0  0
   59.3408   33.8488   49.5399 H   0  0  0  0  0  0  0  0  0  0  0  0
   57.6176   33.1910   47.8616 H   0  0  0  0  0  0  0  0  0  0  0  0
   55.3013   30.4732   43.7459 H   0  0  0  0  0  0  0  0  0  0  0  0
   56.4857   30.8799   42.4580 H   0  0  0  0  0  0  0  0  0  0  0  0
   55.6737   29.2776   42.4580 H   0  0  0  0  0  0  0  0  0  0  0  0
   57.3794   27.7195   42.7212 H   0  0  0  0  0  0  0  0  0  0  0  0
   59.2156   26.7455   44.0902 H   0  0  0  0  0  0  0  0  0  0  0  0
   60.0907   27.9718   46.0700 H   0  0  0  0  0  0  0  0  0  0  0  0
   58.8151   31.3575   47.1216 H   0  0  0  0  0  0  0  0  0  0  0  0
   59.0531   29.7780   47.9629 H   0  0  0  0  0  0  0  0  0  0  0  0
   61.2368   30.5573   47.9294 H   0  0  0  0  0  0  0  0  0  0  0  0
   61.1957   29.6505   46.3793 H   0  0  0  0  0  0  0  0  0  0  0  0
   61.0160   31.4378   46.3793 H   0  0  0  0  0  0  0  0  0  0  0  0
   60.4737   33.8322   44.6739 H   0  0  0  0  0  0  0  0  0  0  0  0
   62.1961   34.4932   46.3484 H   0  0  0  0  0  0  0  0  0  0  0  0
  1  2  1  0
  2  3  1  0
  3  4  1  0
  4  5  2  0
  5  6  1  0
  6  7  2  0
  7  8  1  0
  8  9  2  0
  8 10  2  0
  8 11  1  0
 11 12  1  0
 12 13  2  0
 13 14  1  0
 13 15  1  0
 15 16  2  0
 16 17  1  0
 17 18  2  0
 18 19  1  0
 19 20  1  0
  7 21  1  0
 21 22  2  0
 22  4  1  0
 18 12  1  0
  1 23  1  0
  1 24  1  0
  1 25  1  0
  2 26  1  0
  2 27  1  0
  5 28  1  0
  6 29  1  0
 14 30  1  0
 14 31  1  0
 14 32  1  0
 15 33  1  0
 16 34  1  0
 17 35  1  0
 19 36  1  0
 19 37  1  0
 20 38  1  0
 20 39  1  0
 20 40  1  0
 21 41  1  0
 22 42  1  0
M  CHG  1  11  -1
M  END
>  <UniqueID>  (21) 
19

>  <SMILES>  (21) 
CCOc1ccc(S(=O)(=O)[N-]c2c(C)cccc2CC)cc1

>  <Energy>  (21) 
43.70828210956729

>  <Genealogy>  (21) 
CCOc1ccc(S(=O)(=O)[N-]c2c(C)cccc2CC)cc1 (protonated)
CCOc1ccc(S(=O)(=O)[N-]c2c(C)cccc2CC)cc1 (3D coordinates assigned)
CCOc1ccc(S(=O)(=O)[N-]c2c(C)cccc2CC)cc1 (optimized conformer: 43.70828210956729 kcal/mol)

>  <smiles>  (21) 
CCOc1ccc(S(=O)(=O)Nc2c(C)cccc2CC)cc1

>  <score_type>  (21) 
oracle

>  <origin>  (21) 
adg

>  <m_score__min__energy>  (21) 
-8.1600000000000001

>  <m_primary>  (21) 
energy

$$$$
21:0
     RDKit          3D

 43 46  0  0  0  0  0  0  0  0999 V2000
   58.6970   34.5680   52.7470 C   0  0  0  0  0  0  0  0  0  0  0  0
   58.8720   33.4530   51.7590 C   0  0  0  0  0  0  0  0  0  0  0  0
   57.9660   32.3820   51.7340 C   0  0  0  0  0  0  0  0  0  0  0  0
   58.1480   31.3300   50.8350 C   0  0  0  0  0  0  0  0  0  0  0  0
   59.2430   31.3270   49.9680 C   0  0  0  0  0  0  0  0  0  0  0  0
   60.1770   32.3750   50.0040 C   0  0  0  0  0  0  0  0  0  0  0  0
   61.3120   32.3840   49.1200 N   0  0  0  0  0  0  0  0  0  0  0  0
   61.4110   32.8910   47.8500 C   0  0  0  0  0  0  0  0  0  0  0  0
   60.2630   33.3510   47.0370 C   0  0  0  0  0  0  0  0  0  0  0  0
   59.1050   32.5660   46.9150 C   0  0  0  0  0  0  0  0  0  0  0  0
   58.0350   33.0050   46.1300 C   0  0  0  0  0  0  0  0  0  0  0  0
   58.1160   34.2280   45.4570 C   0  0  0  0  0  0  0  0  0  0  0  0
   59.2670   35.0120   45.5670 C   0  0  0  0  0  0  0  0  0  0  0  0
   60.3390   34.5760   46.3530 C   0  0  0  0  0  0  0  0  0  0  0  0
   62.7650   32.9310   47.4750 C   0  0  0  0  0  0  0  0  0  0  0  0
   63.3860   33.5920   46.2850 C   0  0  0  0  0  0  0  0  0  0  0  0
   63.4460   32.4160   48.5090 N   0  0  0  0  0  0  0  0  0  0  0  0
   64.6420   32.6600   49.0010 N   0  0  0  0  0  0  0  0  0  0  0  0
   64.5490   32.4340   50.3370 C   0  0  0  0  0  0  0  0  0  0  0  0
   65.6290   32.7730   51.3090 C   0  0  0  0  0  0  0  0  0  0  0  0
   63.2260   32.1120   50.6840 C   0  0  0  0  0  0  0  0  0  0  0  0
   62.5900   32.1190   49.4580 C   0  0  0  0  0  0  0  0  0  0  0  0
   59.9830   33.4380   50.9000 C   0  0  0  0  0  0  0  0  0  0  0  0
   58.7601   34.1657   53.7689 H   0  0  0  0  0  0  0  0  0  0  0  0
   59.4885   35.3172   52.5983 H   0  0  0  0  0  0  0  0  0  0  0  0
   57.7140   35.0387   52.5983 H   0  0  0  0  0  0  0  0  0  0  0  0
   57.1100   32.3714   52.4247 H   0  0  0  0  0  0  0  0  0  0  0  0
   57.4264   30.5002   50.8092 H   0  0  0  0  0  0  0  0  0  0  0  0
   59.3743   30.5004   49.2542 H   0  0  0  0  0  0  0  0  0  0  0  0
   59.0397   31.6013   47.4395 H   0  0  0  0  0  0  0  0  0  0  0  0
   57.1287   32.3880   46.0416 H   0  0  0  0  0  0  0  0  0  0  0  0
   57.2728   34.5730   44.8405 H   0  0  0  0  0  0  0  0  0  0  0  0
   59.3304   35.9728   45.0352 H   0  0  0  0  0  0  0  0  0  0  0  0
   61.2448   35.1945   46.4359 H   0  0  0  0  0  0  0  0  0  0  0  0
   64.1030   34.3551   46.6220 H   0  0  0  0  0  0  0  0  0  0  0  0
   63.9104   32.8384   45.6790 H   0  0  0  0  0  0  0  0  0  0  0  0
   62.6012   34.0684   45.6790 H   0  0  0  0  0  0  0  0  0  0  0  0
   65.4370   33.0980   48.4830 H   0  0  0  0  0  0  0  0  0  0  0  0
   65.2498   32.6540   52.3347 H   0  0  0  0  0  0  0  0  0  0  0  0
   66.4857   32.1006   51.1545 H   0  0  0  0  0  0  0  0  0  0  0  0
   65.9477   33.8144   51.1545 H   0  0  0  0  0  0  0  0  0  0  0  0
   62.8042   31.9066   51.6789 H   0  0  0  0  0  0  0  0  0  0  0  0
   60.7068   34.2658   50.9296 H   0  0  0  0  0  0  0  0  0  0  0  0
  1  2  1  0
  2  3  2  0
  3  4  1  0
  4  5  2  0
  5  6  1  0
  6  7  1  0
  7  8  1  0
  8  9  1  0
  9 10  2  0
 10 11  1  0
 11 12  2  0
 12 13  1  0
 13 14  2  0
  8 15  2  0
 15 16  1  0
 15 17  1  0
 17 18  1  0
 18 19  2  0
 19 20  1  0
 19 21  1  0
 21 22  2  0
  6 23  2  0
 23  2  1  0
 22  7  1  0
 14  9  1  0
 22 17  1  0
  1 24  1  0
  1 25  1  0
  1 26  1  0
  3 27  1  0
  4 28  1  0
  5 29  1  0
 10 30  1  0
 11 31  1  0
 12 32  1  0
 13 33  1  0
 14 34  1  0
 16 35  1  0
 16 36  1  0
 16 37  1  0
 18 38  1  0
 20 39  1  0
 20 40  1  0
 20 41  1  0
 21 42  1  0
 23 43  1  0
M  CHG  1  18   1
M  END
>  <UniqueID>  (22) 
20

>  <SMILES>  (22) 
Cc1cccc(-n2c(-c3ccccc3)c(C)n3[nH+]c(C)cc23)c1

>  <Energy>  (22) 
144.38374266950711

>  <Genealogy>  (22) 
Cc1cccc(-n2c(-c3ccccc3)c(C)n3[nH+]c(C)cc23)c1 (protonated)
Cc1cccc(-n2c(-c3ccccc3)c(C)n3[nH+]c(C)cc23)c1 (3D coordinates assigned)
Cc1cccc(-n2c(-c3ccccc3)c(C)n3[nH+]c(C)cc23)c1 (optimized conformer: 144.38374266950711 kcal/mol)

>  <smiles>  (22) 
Cc1cccc(-n2c(-c3ccccc3)c(C)n3nc(C)cc23)c1

>  <score_type>  (22) 
oracle

>  <origin>  (22) 
adg

>  <m_score__min__energy>  (22) 
-6.6600000000000001

>  <m_primary>  (22) 
energy

$$$$
22:0
     RDKit          3D

 32 34  0  0  0  0  0  0  0  0999 V2000
   63.7730   32.7270   48.2620 C   0  0  0  0  0  0  0  0  0  0  0  0
   63.6500   33.7980   47.1830 C   0  0  0  0  0  0  0  0  0  0  0  0
   62.3730   33.6780   46.4840 N   0  0  0  0  0  0  0  0  0  0  0  0
   61.1130   33.8810   47.1380 C   0  0  0  0  0  0  0  0  0  0  0  0
   61.0730   34.1840   48.3610 O   0  0  0  0  0  0  0  0  0  0  0  0
   59.8550   33.6770   46.4000 C   0  0  0  0  0  0  0  0  0  0  0  0
   59.2790   34.7650   45.7110 C   0  0  0  0  0  0  0  0  0  0  0  0
   58.1430   34.5870   44.8980 C   0  0  0  0  0  0  0  0  0  0  0  0
   57.5650   33.3180   44.7550 C   0  0  0  0  0  0  0  0  0  0  0  0
   58.1290   32.2540   45.4530 C   0  0  0  0  0  0  0  0  0  0  0  0
   59.2330   32.4190   46.2820 C   0  0  0  0  0  0  0  0  0  0  0  0
   59.5050   31.1160   46.9250 C   0  0  0  0  0  0  0  0  0  0  0  0
   60.3930   30.7590   47.9470 C   0  0  0  0  0  0  0  0  0  0  0  0
   60.3910   29.4320   48.4080 C   0  0  0  0  0  0  0  0  0  0  0  0
   59.4890   28.4900   47.8730 C   0  0  0  0  0  0  0  0  0  0  0  0
   58.5710   28.8700   46.8830 C   0  0  0  0  0  0  0  0  0  0  0  0
   58.5970   30.1890   46.4310 C   0  0  0  0  0  0  0  0  0  0  0  0
   57.7070   30.8600   45.4980 C   0  0  0  0  0  0  0  0  0  0  0  0
   56.7440   30.3450   44.8710 O   0  0  0  0  0  0  0  0  0  0  0  0
   63.7189   33.1984   49.2544 H   0  0  0  0  0  0  0  0  0  0  0  0
   62.9521   32.0026   48.1549 H   0  0  0  0  0  0  0  0  0  0  0  0
   64.7367   32.2076   48.1549 H   0  0  0  0  0  0  0  0  0  0  0  0
   63.7144   34.7916   47.6506 H   0  0  0  0  0  0  0  0  0  0  0  0
   64.4659   33.6660   46.4571 H   0  0  0  0  0  0  0  0  0  0  0  0
   62.3870   33.5060   45.4530 H   0  0  0  0  0  0  0  0  0  0  0  0
   59.7234   35.7663   45.8102 H   0  0  0  0  0  0  0  0  0  0  0  0
   57.7066   35.4489   44.3720 H   0  0  0  0  0  0  0  0  0  0  0  0
   56.6884   33.1669   44.1079 H   0  0  0  0  0  0  0  0  0  0  0  0
   61.0783   31.5025   48.3801 H   0  0  0  0  0  0  0  0  0  0  0  0
   61.0987   29.1256   49.1924 H   0  0  0  0  0  0  0  0  0  0  0  0
   59.5052   27.4510   48.2340 H   0  0  0  0  0  0  0  0  0  0  0  0
   57.8499   28.1470   46.4741 H   0  0  0  0  0  0  0  0  0  0  0  0
  1  2  1  0
  2  3  1  0
  3  4  1  0
  4  5  2  0
  4  6  1  0
  6  7  2  0
  7  8  1  0
  8  9  2  0
  9 10  1  0
 10 11  2  0
 11 12  1  0
 12 13  2  0
 13 14  1  0
 14 15  2  0
 15 16  1  0
 16 17  2  0
 17 18  1  0
 18 19  2  0
 11  6  1  0
 17 12  1  0
 18 10  1  0
  1 20  1  0
  1 21  1  0
  1 22  1  0
  2 23  1  0
  2 24  1  0
  3 25  1  0
  7 26  1  0
  8 27  1  0
  9 28  1  0
 13 29  1  0
 14 30  1  0
 15 31  1  0
 16 32  1  0
M  END
>  <UniqueID>  (23) 
21

>  <SMILES>  (23) 
CCNC(=O)c1cccc2c1-c1ccccc1C2=O

>  <Energy>  (23) 
70.12920770461147

>  <Genealogy>  (23) 
CCNC(=O)c1cccc2c1-c1ccccc1C2=O (3D coordinates assigned)
CCNC(=O)c1cccc2c1-c1ccccc1C2=O (nonaromatic ring conformer: 70.12920770461147 kcal/mol)

>  <smiles>  (23) 
CCNC(=O)c1cccc2c1-c1ccccc1C2=O

>  <score_type>  (23) 
oracle

>  <origin>  (23) 
adg

>  <m_score__min__energy>  (23) 
-7.46

>  <m_primary>  (23) 
energy

$$$$
23:0
     RDKit          3D

 43 45  0  0  0  0  0  0  0  0999 V2000
   63.7520   33.0610   47.0840 C   0  0  0  0  0  0  0  0  0  0  0  0
   63.0580   33.8080   48.2160 C   0  0  0  0  0  0  0  0  0  0  0  0
   61.6780   34.1050   47.8510 N   0  0  0  0  0  0  0  0  0  0  0  0
   61.0860   33.8510   46.6680 C   0  0  0  0  0  0  0  0  0  0  0  0
   59.8160   34.3790   46.7510 C   0  0  0  0  0  0  0  0  0  0  0  0
   58.7960   34.4480   45.6590 C   0  0  0  0  0  0  0  0  0  0  0  0
   58.3390   33.0620   45.2950 C   0  0  0  0  0  0  0  0  0  0  0  0
   58.3270   32.0440   46.2600 C   0  0  0  0  0  0  0  0  0  0  0  0
   57.8660   30.7670   45.9310 C   0  0  0  0  0  0  0  0  0  0  0  0
   57.4140   30.4870   44.6360 C   0  0  0  0  0  0  0  0  0  0  0  0
   56.9460   29.1960   44.3510 O   0  0  0  0  0  0  0  0  0  0  0  0
   57.3580   28.0200   44.9960 C   0  0  0  0  0  0  0  0  0  0  0  0
   58.7140   27.6760   44.9620 C   0  0  0  0  0  0  0  0  0  0  0  0
   59.1600   26.5060   45.5820 C   0  0  0  0  0  0  0  0  0  0  0  0
   58.2530   25.6640   46.2300 C   0  0  0  0  0  0  0  0  0  0  0  0
   56.8820   25.9840   46.2540 C   0  0  0  0  0  0  0  0  0  0  0  0
   55.9300   25.1670   46.8780 O   0  0  0  0  0  0  0  0  0  0  0  0
   56.1260   23.7890   47.1800 C   0  0  0  0  0  0  0  0  0  0  0  0
   56.4440   27.1600   45.6310 C   0  0  0  0  0  0  0  0  0  0  0  0
   57.3950   31.5150   43.6780 C   0  0  0  0  0  0  0  0  0  0  0  0
   57.8560   32.7930   44.0050 C   0  0  0  0  0  0  0  0  0  0  0  0
   59.6910   34.9540   47.9630 N   0  0  0  0  0  0  0  0  0  0  0  0
   60.8300   34.7810   48.6140 N   0  0  0  0  0  0  0  0  0  0  0  0
   64.4435   32.3167   47.5056 H   0  0  0  0  0  0  0  0  0  0  0  0
   62.9988   32.5522   46.4645 H   0  0  0  0  0  0  0  0  0  0  0  0
   64.3148   33.7748   46.4645 H   0  0  0  0  0  0  0  0  0  0  0  0
   63.0681   33.1850   49.1225 H   0  0  0  0  0  0  0  0  0  0  0  0
   63.5910   34.7518   48.4033 H   0  0  0  0  0  0  0  0  0  0  0  0
   61.5280   33.3269   45.8078 H   0  0  0  0  0  0  0  0  0  0  0  0
   57.9334   35.0377   46.0028 H   0  0  0  0  0  0  0  0  0  0  0  0
   59.2446   34.9246   44.7749 H   0  0  0  0  0  0  0  0  0  0  0  0
   58.6821   32.2521   47.2801 H   0  0  0  0  0  0  0  0  0  0  0  0
   57.8581   29.9757   46.6951 H   0  0  0  0  0  0  0  0  0  0  0  0
   59.4319   28.3296   44.4449 H   0  0  0  0  0  0  0  0  0  0  0  0
   60.2289   26.2470   45.5598 H   0  0  0  0  0  0  0  0  0  0  0  0
   58.6110   24.7482   46.7230 H   0  0  0  0  0  0  0  0  0  0  0  0
   56.1455   23.6520   48.2713 H   0  0  0  0  0  0  0  0  0  0  0  0
   55.3027   23.1989   46.7510 H   0  0  0  0  0  0  0  0  0  0  0  0
   57.0811   23.4519   46.7510 H   0  0  0  0  0  0  0  0  0  0  0  0
   55.3736   27.4135   45.6386 H   0  0  0  0  0  0  0  0  0  0  0  0
   57.0153   31.3126   42.6656 H   0  0  0  0  0  0  0  0  0  0  0  0
   57.8403   33.5913   43.2484 H   0  0  0  0  0  0  0  0  0  0  0  0
   58.8650   35.4740   48.3340 H   0  0  0  0  0  0  0  0  0  0  0  0
  1  2  1  0
  2  3  1  0
  3  4  1  0
  4  5  2  0
  5  6  1  0
  6  7  1  0
  7  8  2  0
  8  9  1  0
  9 10  2  0
 10 11  1  0
 11 12  1  0
 12 13  2  0
 13 14  1  0
 14 15  2  0
 15 16  1  0
 16 17  1  0
 17 18  1  0
 16 19  2  0
 10 20  1  0
 20 21  2  0
  5 22  1  0
 22 23  2  0
 23  3  1  0
 21  7  1  0
 19 12  1  0
  1 24  1  0
  1 25  1  0
  1 26  1  0
  2 27  1  0
  2 28  1  0
  4 29  1  0
  6 30  1  0
  6 31  1  0
  8 32  1  0
  9 33  1  0
 13 34  1  0
 14 35  1  0
 15 36  1  0
 18 37  1  0
 18 38  1  0
 18 39  1  0
 19 40  1  0
 20 41  1  0
 21 42  1  0
 22 43  1  0
M  CHG  1  22   1
M  END
>  <UniqueID>  (24) 
22

>  <SMILES>  (24) 
CCn1cc(Cc2ccc(Oc3cccc(OC)c3)cc2)[nH+]n1

>  <Energy>  (24) 
80.31141876654098

>  <Genealogy>  (24) 
CCn1cc(Cc2ccc(Oc3cccc(OC)c3)cc2)[nH+]n1 (protonated)
CCn1cc(Cc2ccc(Oc3cccc(OC)c3)cc2)[nH+]n1 (3D coordinates assigned)
CCn1cc(Cc2ccc(Oc3cccc(OC)c3)cc2)[nH+]n1 (optimized conformer: 80.31141876654098 kcal/mol)

>  <smiles>  (24) 
CCn1cc(Cc2ccc(Oc3cccc(OC)c3)cc2)nn1

>  <score_type>  (24) 
oracle

>  <origin>  (24) 
adg

>  <m_score__min__energy>  (24) 
-6.1299999999999999

>  <m_primary>  (24) 
energy

$$$$
24:0
     RDKit          3D

 43 45  0  0  0  0  0  0  0  0999 V2000
   62.7200   32.8700   48.1620 C   0  0  0  0  0  0  0  0  0  0  0  0
   61.2590   33.1110   48.3460 N   0  0  0  0  0  0  0  0  0  0  0  0
   60.9460   34.3260   47.5120 C   0  0  0  0  0  0  0  0  0  0  0  0
   59.4610   34.7850   47.4650 C   0  0  0  0  0  0  0  0  0  0  0  0
   58.6940   34.0440   46.4610 N   0  0  0  0  0  0  0  0  0  0  0  0
   58.8840   34.0920   45.0390 C   0  0  0  0  0  0  0  0  0  0  0  0
   59.5820   34.9550   44.4440 O   0  0  0  0  0  0  0  0  0  0  0  0
   58.1880   32.9810   44.4020 C   0  0  0  0  0  0  0  0  0  0  0  0
   58.0680   32.6010   43.0690 C   0  0  0  0  0  0  0  0  0  0  0  0
   57.3340   31.4360   42.7890 C   0  0  0  0  0  0  0  0  0  0  0  0
   56.7570   30.6960   43.8460 C   0  0  0  0  0  0  0  0  0  0  0  0
   56.9090   31.1040   45.1420 N   0  0  0  0  0  0  0  0  0  0  0  0
   57.6110   32.2350   45.4000 C   0  0  0  0  0  0  0  0  0  0  0  0
   57.9290   32.8510   46.6770 C   0  0  0  0  0  0  0  0  0  0  0  0
   57.6320   32.3870   47.8100 O   0  0  0  0  0  0  0  0  0  0  0  0
   60.4580   31.9490   47.8360 C   0  0  0  0  0  0  0  0  0  0  0  0
   61.1000   30.5490   47.9980 C   0  0  0  0  0  0  0  0  0  0  0  0
   61.5610   30.2290   49.4290 C   0  0  0  0  0  0  0  0  0  0  0  0
   60.8250   30.9920   50.5400 C   0  0  0  0  0  0  0  0  0  0  0  0
   61.4200   32.3770   50.8260 C   0  0  0  0  0  0  0  0  0  0  0  0
   60.9870   33.4370   49.7850 C   0  0  0  0  0  0  0  0  0  0  0  0
   63.2052   32.7900   49.1460 H   0  0  0  0  0  0  0  0  0  0  0  0
   62.8697   31.9350   47.6022 H   0  0  0  0  0  0  0  0  0  0  0  0
   63.1621   33.7074   47.6022 H   0  0  0  0  0  0  0  0  0  0  0  0
   61.5398   35.1628   47.9084 H   0  0  0  0  0  0  0  0  0  0  0  0
   61.1883   34.0345   46.4794 H   0  0  0  0  0  0  0  0  0  0  0  0
   59.0062   34.6208   48.4530 H   0  0  0  0  0  0  0  0  0  0  0  0
   59.4410   35.8505   47.1926 H   0  0  0  0  0  0  0  0  0  0  0  0
   58.5307   33.1908   42.2640 H   0  0  0  0  0  0  0  0  0  0  0  0
   57.2087   31.1005   41.7490 H   0  0  0  0  0  0  0  0  0  0  0  0
   56.1815   29.7852   43.6243 H   0  0  0  0  0  0  0  0  0  0  0  0
   59.4983   31.9418   48.3736 H   0  0  0  0  0  0  0  0  0  0  0  0
   60.3698   32.1073   46.7510 H   0  0  0  0  0  0  0  0  0  0  0  0
   60.3598   29.7931   47.6969 H   0  0  0  0  0  0  0  0  0  0  0  0
   62.0004   30.5391   47.3662 H   0  0  0  0  0  0  0  0  0  0  0  0
   61.4142   29.1525   49.6009 H   0  0  0  0  0  0  0  0  0  0  0  0
   62.6132   30.5444   49.4880 H   0  0  0  0  0  0  0  0  0  0  0  0
   59.7748   31.1193   50.2387 H   0  0  0  0  0  0  0  0  0  0  0  0
   60.9246   30.3995   51.4614 H   0  0  0  0  0  0  0  0  0  0  0  0
   61.0871   32.7047   51.8219 H   0  0  0  0  0  0  0  0  0  0  0  0
   62.5150   32.2865   50.7738 H   0  0  0  0  0  0  0  0  0  0  0  0
   59.9031   33.5896   49.8942 H   0  0  0  0  0  0  0  0  0  0  0  0
   61.5973   34.3259   50.0029 H   0  0  0  0  0  0  0  0  0  0  0  0
  1  2  1  0
  2  3  1  0
  3  4  1  0
  4  5  1  0
  5  6  1  0
  6  7  2  0
  6  8  1  0
  8  9  2  0
  9 10  1  0
 10 11  2  0
 11 12  1  0
 12 13  2  0
 13 14  1  0
 14 15  2  0
  2 16  1  0
 16 17  1  0
 17 18  1  0
 18 19  1  0
 19 20  1  0
 20 21  1  0
 21  2  1  0
 14  5  1  0
 13  8  1  0
  1 22  1  0
  1 23  1  0
  1 24  1  0
  3 25  1  0
  3 26  1  0
  4 27  1  0
  4 28  1  0
  9 29  1  0
 10 30  1  0
 11 31  1  0
 16 32  1  0
 16 33  1  0
 17 34  1  0
 17 35  1  0
 18 36  1  0
 18 37  1  0
 19 38  1  0
 19 39  1  0
 20 40  1  0
 20 41  1  0
 21 42  1  0
 21 43  1  0
M  CHG  1   2   1
M  END
>  <UniqueID>  (25) 
23

>  <SMILES>  (25) 
C[N+]1(CCN2C(=O)c3cccnc3C2=O)CCCCCC1

>  <Energy>  (25) 
101.01266875496312

>  <Genealogy>  (25) 
C[N+]1(CCN2C(=O)c3cccnc3C2=O)CCCCCC1 (3D coordinates assigned)
C[N+]1(CCN2C(=O)c3cccnc3C2=O)CCCCCC1 (nonaromatic ring conformer: 101.01266875496312 kcal/mol)

>  <smiles>  (25) 
C[N+]1(CCN2C(=O)c3cccnc3C2=O)CCCCCC1

>  <score_type>  (25) 
oracle

>  <origin>  (25) 
adg

>  <m_score__min__energy>  (25) 
-3.9900000000000002

>  <m_primary>  (25) 
energy

$$$$
25:0
     RDKit          3D

 46 48  0  0  0  0  0  0  0  0999 V2000
   63.7480   33.0019   47.0608 H   0  0  0  0  0  0  0  0  0  0  0  0
   62.6750   32.7780   47.1530 C   0  0  0  0  0  0  0  0  0  0  0  0
   61.7480   33.8210   47.2200 C   0  0  0  0  0  0  0  0  0  0  0  0
   62.0916   34.8652   47.1807 H   0  0  0  0  0  0  0  0  0  0  0  0
   60.3830   33.5380   47.3370 C   0  0  0  0  0  0  0  0  0  0  0  0
   59.6555   34.3611   47.3932 H   0  0  0  0  0  0  0  0  0  0  0  0
   59.9380   32.2060   47.3830 C   0  0  0  0  0  0  0  0  0  0  0  0
   58.4690   31.9060   47.5540 C   0  0  0  0  0  0  0  0  0  0  0  0
   58.0993   32.4171   48.4552 H   0  0  0  0  0  0  0  0  0  0  0  0
   58.3408   30.8178   47.6505 H   0  0  0  0  0  0  0  0  0  0  0  0
   57.7010   32.3690   46.3880 N   0  0  0  0  0  0  0  0  0  0  0  0
   57.8720   31.8040   45.0890 C   0  0  0  0  0  0  0  0  0  0  0  0
   57.7560   30.5400   44.8040 N   0  0  0  0  0  0  0  0  0  0  0  0
   56.5790   29.7360   44.9500 C   0  0  0  0  0  0  0  0  0  0  0  0
   55.4790   30.1200   44.4700 O   0  0  0  0  0  0  0  0  0  0  0  0
   56.6570   28.4550   45.5800 N   0  0  0  0  0  0  0  0  0  0  0  0
   57.8820   27.9310   46.0990 C   0  0  0  0  0  0  0  0  0  0  0  0
   58.4010   28.4770   47.2810 C   0  0  0  0  0  0  0  0  0  0  0  0
   57.8621   29.2895   47.7904 H   0  0  0  0  0  0  0  0  0  0  0  0
   59.5980   27.9960   47.8160 C   0  0  0  0  0  0  0  0  0  0  0  0
   60.0055   28.4379   48.7373 H   0  0  0  0  0  0  0  0  0  0  0  0
   60.2770   26.9550   47.1820 C   0  0  0  0  0  0  0  0  0  0  0  0
   61.2209   26.5786   47.6032 H   0  0  0  0  0  0  0  0  0  0  0  0
   59.7610   26.3900   46.0140 C   0  0  0  0  0  0  0  0  0  0  0  0
   60.2943   25.5597   45.5281 H   0  0  0  0  0  0  0  0  0  0  0  0
   58.5640   26.8740   45.4530 C   0  0  0  0  0  0  0  0  0  0  0  0
   57.9980   26.1960   44.2290 C   0  0  0  0  0  0  0  0  0  0  0  0
   56.9340   25.9744   44.3987 H   0  0  0  0  0  0  0  0  0  0  0  0
   58.5580   25.2664   44.0494 H   0  0  0  0  0  0  0  0  0  0  0  0
   58.1330   27.0940   43.0030 C   0  0  0  0  0  0  0  0  0  0  0  0
   58.2893   28.1339   43.3256 H   0  0  0  0  0  0  0  0  0  0  0  0
   58.9917   26.7642   42.3997 H   0  0  0  0  0  0  0  0  0  0  0  0
   57.2153   27.0313   42.3997 H   0  0  0  0  0  0  0  0  0  0  0  0
   58.1080   32.8210   44.0420 C   0  0  0  0  0  0  0  0  0  0  0  0
   59.1020   32.6960   43.5876 H   0  0  0  0  0  0  0  0  0  0  0  0
   57.3922   32.7568   43.2092 H   0  0  0  0  0  0  0  0  0  0  0  0
   58.0180   34.1410   44.8100 C   0  0  0  0  0  0  0  0  0  0  0  0
   59.0157   34.5936   44.9087 H   0  0  0  0  0  0  0  0  0  0  0  0
   57.3787   34.8669   44.2862 H   0  0  0  0  0  0  0  0  0  0  0  0
   57.4520   33.7930   46.1940 C   0  0  0  0  0  0  0  0  0  0  0  0
   57.9617   34.3790   46.9730 H   0  0  0  0  0  0  0  0  0  0  0  0
   56.3787   34.0251   46.2586 H   0  0  0  0  0  0  0  0  0  0  0  0
   60.8770   31.1640   47.3190 C   0  0  0  0  0  0  0  0  0  0  0  0
   60.5387   30.1181   47.3602 H   0  0  0  0  0  0  0  0  0  0  0  0
   62.2410   31.4510   47.2030 C   0  0  0  0  0  0  0  0  0  0  0  0
   62.9726   30.6312   47.1511 H   0  0  0  0  0  0  0  0  0  0  0  0
  1  2  1  0
  2  3  2  0
  3  4  1  0
  3  5  1  0
  5  6  1  0
  5  7  2  0
  7  8  1  0
  8  9  1  0
  8 10  1  0
  8 11  1  0
 11 12  1  0
 12 13  2  0
 13 14  1  0
 14 15  2  0
 14 16  1  0
 16 17  1  0
 17 18  2  0
 18 19  1  0
 18 20  1  0
 20 21  1  0
 20 22  2  0
 22 23  1  0
 22 24  1  0
 24 25  1  0
 24 26  2  0
 26 27  1  0
 27 28  1  0
 27 29  1  0
 27 30  1  0
 30 31  1  0
 30 32  1  0
 30 33  1  0
 12 34  1  0
 34 35  1  0
 34 36  1  0
 34 37  1  0
 37 38  1  0
 37 39  1  0
 37 40  1  0
 40 41  1  0
 40 42  1  0
  7 43  1  0
 43 44  1  0
 43 45  2  0
 45 46  1  0
 45  2  1  0
 40 11  1  0
 26 17  1  0
M  CHG  1  16  -1
M  END
>  <UniqueID>  (26) 
24

>  <SMILES>  (26) 
CCc1ccccc1[N-]C(=O)/N=C1/CCCN1Cc1ccccc1

>  <Energy>  (26) 
63.51364221910923

>  <Genealogy>  (26) 
CCc1ccccc1[N-]C(=O)N=C1CCCN1Cc1ccccc1 (protonated)
CCc1ccccc1[N-]C(=O)/N=C1/CCCN1Cc1ccccc1 (cis-trans isomerization)
CCc1ccccc1[N-]C(=O)/N=C1/CCCN1Cc1ccccc1 (3D coordinates assigned)
CCc1ccccc1[N-]C(=O)/N=C1/CCCN1Cc1ccccc1 (nonaromatic ring conformer: 63.51364221910923 kcal/mol)

>  <smiles>  (26) 
CCc1ccccc1NC(=O)N=C1CCCN1Cc1ccccc1

>  <score_type>  (26) 
oracle

>  <origin>  (26) 
adg

>  <m_score__min__energy>  (26) 
-9.3000000000000007

>  <m_primary>  (26) 
energy

$$$$
26:0
     RDKit          3D

 62 66  0  0  0  0  0  0  0  0999 V2000
   60.3830   28.1430   45.5810 C   0  0  0  0  0  0  0  0  0  0  0  0
   59.2460   29.0060   45.1220 C   0  0  0  0  0  0  0  0  0  0  0  0
   58.2940   28.5010   44.2240 C   0  0  0  0  0  0  0  0  0  0  0  0
   57.2090   29.2890   43.8340 C   0  0  0  0  0  0  0  0  0  0  0  0
   57.0610   30.5810   44.3410 C   0  0  0  0  0  0  0  0  0  0  0  0
   58.0010   31.1010   45.2480 C   0  0  0  0  0  0  0  0  0  0  0  0
   57.8310   32.4240   45.7940 N   0  0  0  0  0  0  0  0  0  0  0  0
   58.2050   32.6970   47.1890 C   0  0  0  0  0  0  0  0  0  0  0  0
   58.5550   34.1800   47.3930 C   0  0  0  0  0  0  0  0  0  0  0  0
   59.2840   34.7690   46.1600 C   0  0  0  0  0  0  0  0  0  0  0  0
   60.6750   34.1260   45.9380 C   0  0  0  0  0  0  0  0  0  0  0  0
   61.1930   33.5140   47.1630 N   0  0  0  0  0  0  0  0  0  0  0  0
   62.5740   33.1520   47.2920 C   0  0  0  0  0  0  0  0  0  0  0  0
   63.3950   33.4630   46.3850 O   0  0  0  0  0  0  0  0  0  0  0  0
   63.0310   32.3640   48.4590 C   0  0  0  0  0  0  0  0  0  0  0  0
   64.2980   32.6510   48.9930 C   0  0  0  0  0  0  0  0  0  0  0  0
   64.7550   31.9790   50.1380 C   0  0  0  0  0  0  0  0  0  0  0  0
   66.0850   32.2700   50.7350 C   0  0  0  0  0  0  0  0  0  0  0  0
   66.6690   31.3470   51.6240 C   0  0  0  0  0  0  0  0  0  0  0  0
   67.9130   31.6110   52.2060 C   0  0  0  0  0  0  0  0  0  0  0  0
   68.5870   32.7980   51.9120 C   0  0  0  0  0  0  0  0  0  0  0  0
   68.0140   33.7270   51.0400 C   0  0  0  0  0  0  0  0  0  0  0  0
   66.7700   33.4690   50.4570 C   0  0  0  0  0  0  0  0  0  0  0  0
   63.9650   31.0310   50.7100 N   0  0  0  0  0  0  0  0  0  0  0  0
   62.7400   30.7080   50.2210 C   0  0  0  0  0  0  0  0  0  0  0  0
   61.9870   29.7160   50.8560 C   0  0  0  0  0  0  0  0  0  0  0  0
   60.7370   29.3520   50.3540 C   0  0  0  0  0  0  0  0  0  0  0  0
   60.2380   29.9710   49.2070 C   0  0  0  0  0  0  0  0  0  0  0  0
   60.9800   30.9670   48.5630 C   0  0  0  0  0  0  0  0  0  0  0  0
   62.2350   31.3640   49.0700 C   0  0  0  0  0  0  0  0  0  0  0  0
   58.4070   34.6480   44.8800 C   0  0  0  0  0  0  0  0  0  0  0  0
   57.3490   33.5340   44.9620 C   0  0  0  0  0  0  0  0  0  0  0  0
   59.0850   30.2980   45.6440 C   0  0  0  0  0  0  0  0  0  0  0  0
   60.4082   28.1239   46.6805 H   0  0  0  0  0  0  0  0  0  0  0  0
   60.2445   27.1206   45.1996 H   0  0  0  0  0  0  0  0  0  0  0  0
   61.3305   28.5514   45.1996 H   0  0  0  0  0  0  0  0  0  0  0  0
   58.4024   27.4813   43.8258 H   0  0  0  0  0  0  0  0  0  0  0  0
   56.4686   28.8902   43.1249 H   0  0  0  0  0  0  0  0  0  0  0  0
   56.2039   31.1959   44.0291 H   0  0  0  0  0  0  0  0  0  0  0  0
   57.3613   32.4344   47.8442 H   0  0  0  0  0  0  0  0  0  0  0  0
   59.0912   32.0938   47.4355 H   0  0  0  0  0  0  0  0  0  0  0  0
   57.6270   34.7456   47.5628 H   0  0  0  0  0  0  0  0  0  0  0  0
   59.2274   34.2585   48.2600 H   0  0  0  0  0  0  0  0  0  0  0  0
   59.4501   35.8364   46.3674 H   0  0  0  0  0  0  0  0  0  0  0  0
   60.5893   33.3514   45.1617 H   0  0  0  0  0  0  0  0  0  0  0  0
   61.3729   34.9187   45.6304 H   0  0  0  0  0  0  0  0  0  0  0  0
   60.5560   33.3580   47.9770 H   0  0  0  0  0  0  0  0  0  0  0  0
   64.9360   33.4067   48.5114 H   0  0  0  0  0  0  0  0  0  0  0  0
   66.1426   30.4111   51.8625 H   0  0  0  0  0  0  0  0  0  0  0  0
   68.3615   30.8819   52.8969 H   0  0  0  0  0  0  0  0  0  0  0  0
   69.5679   33.0014   52.3664 H   0  0  0  0  0  0  0  0  0  0  0  0
   68.5431   34.6639   50.8116 H   0  0  0  0  0  0  0  0  0  0  0  0
   66.3226   34.2079   49.7760 H   0  0  0  0  0  0  0  0  0  0  0  0
   62.3816   29.2203   51.7552 H   0  0  0  0  0  0  0  0  0  0  0  0
   60.1447   28.5770   50.8624 H   0  0  0  0  0  0  0  0  0  0  0  0
   59.2569   29.6745   48.8075 H   0  0  0  0  0  0  0  0  0  0  0  0
   60.5820   31.4438   47.6551 H   0  0  0  0  0  0  0  0  0  0  0  0
   57.8914   35.6063   44.7197 H   0  0  0  0  0  0  0  0  0  0  0  0
   59.0815   34.3922   44.0496 H   0  0  0  0  0  0  0  0  0  0  0  0
   56.4274   33.9423   45.4025 H   0  0  0  0  0  0  0  0  0  0  0  0
   57.1513   33.1572   43.9477 H   0  0  0  0  0  0  0  0  0  0  0  0
   59.8140   30.6867   46.3703 H   0  0  0  0  0  0  0  0  0  0  0  0
  1  2  1  0
  2  3  2  0
  3  4  1  0
  4  5  2  0
  5  6  1  0
  6  7  1  0
  7  8  1  0
  8  9  1  0
  9 10  1  0
 10 11  1  0
 11 12  1  0
 12 13  1  0
 13 14  2  0
 13 15  1  0
 15 16  2  0
 16 17  1  0
 17 18  1  0
 18 19  2  0
 19 20  1  0
 20 21  2  0
 21 22  1  0
 22 23  2  0
 17 24  2  0
 24 25  1  0
 25 26  2  0
 26 27  1  0
 27 28  2  0
 28 29  1  0
 29 30  2  0
 10 31  1  0
 31 32  1  0
  6 33  2  0
 33  2  1  0
 32  7  1  0
 30 15  1  0
 23 18  1  0
 30 25  1  0
  1 34  1  0
  1 35  1  0
  1 36  1  0
  3 37  1  0
  4 38  1  0
  5 39  1  0
  8 40  1  0
  8 41  1  0
  9 42  1  0
  9 43  1  0
 10 44  1  0
 11 45  1  0
 11 46  1  0
 12 47  1  0
 16 48  1  0
 19 49  1  0
 20 50  1  0
 21 51  1  0
 22 52  1  0
 23 53  1  0
 26 54  1  0
 27 55  1  0
 28 56  1  0
 29 57  1  0
 31 58  1  0
 31 59  1  0
 32 60  1  0
 32 61  1  0
 33 62  1  0
M  END
>  <UniqueID>  (27) 
25

>  <SMILES>  (27) 
Cc1cccc(N2CCC(CNC(=O)c3cc(-c4ccccc4)nc4ccccc34)CC2)c1

>  <Energy>  (27) 
84.4957237461783

>  <Genealogy>  (27) 
Cc1cccc(N2CCC(CNC(=O)c3cc(-c4ccccc4)nc4ccccc34)CC2)c1 (3D coordinates assigned)
Cc1cccc(N2CCC(CNC(=O)c3cc(-c4ccccc4)nc4ccccc34)CC2)c1 (nonaromatic ring conformer: 84.4957237461783 kcal/mol)

>  <smiles>  (27) 
Cc1cccc(N2CCC(CNC(=O)c3cc(-c4ccccc4)nc4ccccc34)CC2)c1

>  <score_type>  (27) 
oracle

>  <origin>  (27) 
adg

>  <m_score__min__energy>  (27) 
-10.49

>  <m_primary>  (27) 
energy

$$$$
27:0
     RDKit          3D

 38 41  0  0  0  0  0  0  0  0999 V2000
   59.3470   34.0290   45.1800 C   0  0  0  0  0  0  0  0  0  0  0  0
   59.2380   32.7150   45.8120 N   0  0  0  0  0  0  0  0  0  0  0  0
   59.9740   32.1960   46.8370 C   0  0  0  0  0  0  0  0  0  0  0  0
   61.1060   32.8760   47.5010 C   0  0  0  0  0  0  0  0  0  0  0  0
   62.3460   32.9620   46.8480 C   0  0  0  0  0  0  0  0  0  0  0  0
   63.4200   33.6230   47.4540 C   0  0  0  0  0  0  0  0  0  0  0  0
   63.2590   34.2150   48.7100 C   0  0  0  0  0  0  0  0  0  0  0  0
   62.0220   34.1540   49.3570 C   0  0  0  0  0  0  0  0  0  0  0  0
   60.9470   33.4950   48.7540 C   0  0  0  0  0  0  0  0  0  0  0  0
   59.5630   30.9560   47.2150 N   0  0  0  0  0  0  0  0  0  0  0  0
   58.5500   30.6970   46.3680 C   0  0  0  0  0  0  0  0  0  0  0  0
   57.7700   29.5460   46.3120 C   0  0  0  0  0  0  0  0  0  0  0  0
   56.7590   29.4770   45.3240 C   0  0  0  0  0  0  0  0  0  0  0  0
   55.9020   28.3330   45.2090 N   0  0  0  0  0  0  0  0  0  0  0  0
   56.1340   27.0450   45.7930 C   0  0  0  0  0  0  0  0  0  0  0  0
   55.1480   26.2960   46.0230 O   0  0  0  0  0  0  0  0  0  0  0  0
   57.4930   26.5490   46.0800 C   0  0  0  0  0  0  0  0  0  0  0  0
   58.2670   25.7250   45.2670 C   0  0  0  0  0  0  0  0  0  0  0  0
   59.5040   25.3950   45.8320 C   0  0  0  0  0  0  0  0  0  0  0  0
   59.7080   25.9430   47.0910 C   0  0  0  0  0  0  0  0  0  0  0  0
   58.3450   26.8380   47.5010 S   0  0  0  0  0  0  0  0  0  0  0  0
   56.5490   30.5760   44.4580 C   0  0  0  0  0  0  0  0  0  0  0  0
   57.3550   31.7260   44.5450 C   0  0  0  0  0  0  0  0  0  0  0  0
   58.3550   31.7450   45.5200 C   0  0  0  0  0  0  0  0  0  0  0  0
   59.4114   34.8052   45.9567 H   0  0  0  0  0  0  0  0  0  0  0  0
   60.2509   34.0609   44.5539 H   0  0  0  0  0  0  0  0  0  0  0  0
   58.4607   34.2094   44.5539 H   0  0  0  0  0  0  0  0  0  0  0  0
   62.4738   32.5072   45.8546 H   0  0  0  0  0  0  0  0  0  0  0  0
   64.3919   33.6769   46.9416 H   0  0  0  0  0  0  0  0  0  0  0  0
   64.1057   34.7286   49.1888 H   0  0  0  0  0  0  0  0  0  0  0  0
   61.8940   34.6254   50.3426 H   0  0  0  0  0  0  0  0  0  0  0  0
   59.9718   33.4603   49.2618 H   0  0  0  0  0  0  0  0  0  0  0  0
   57.9342   28.7153   47.0141 H   0  0  0  0  0  0  0  0  0  0  0  0
   57.9388   25.3690   44.2793 H   0  0  0  0  0  0  0  0  0  0  0  0
   60.2459   24.7602   45.3254 H   0  0  0  0  0  0  0  0  0  0  0  0
   60.6061   25.8140   47.7129 H   0  0  0  0  0  0  0  0  0  0  0  0
   55.7459   30.5308   43.7077 H   0  0  0  0  0  0  0  0  0  0  0  0
   57.2029   32.5802   43.8688 H   0  0  0  0  0  0  0  0  0  0  0  0
  1  2  1  0
  2  3  1  0
  3  4  1  0
  4  5  2  0
  5  6  1  0
  6  7  2  0
  7  8  1  0
  8  9  2  0
  3 10  2  0
 10 11  1  0
 11 12  2  0
 12 13  1  0
 13 14  1  0
 14 15  1  0
 15 16  2  0
 15 17  1  0
 17 18  2  0
 18 19  1  0
 19 20  2  0
 20 21  1  0
 13 22  2  0
 22 23  1  0
 23 24  2  0
 24  2  1  0
  9  4  1  0
 24 11  1  0
 21 17  1  0
  1 25  1  0
  1 26  1  0
  1 27  1  0
  5 28  1  0
  6 29  1  0
  7 30  1  0
  8 31  1  0
  9 32  1  0
 12 33  1  0
 18 34  1  0
 19 35  1  0
 20 36  1  0
 22 37  1  0
 23 38  1  0
M  CHG  1  14  -1
M  END
>  <UniqueID>  (28) 
26

>  <SMILES>  (28) 
Cn1c(-c2ccccc2)nc2cc([N-]C(=O)c3cccs3)ccc21

>  <Energy>  (28) 
115.73712274025256

>  <Genealogy>  (28) 
Cn1c(-c2ccccc2)nc2cc([N-]C(=O)c3cccs3)ccc21 (protonated)
Cn1c(-c2ccccc2)nc2cc([N-]C(=O)c3cccs3)ccc21 (3D coordinates assigned)
Cn1c(-c2ccccc2)nc2cc([N-]C(=O)c3cccs3)ccc21 (optimized conformer: 115.73712274025256 kcal/mol)

>  <smiles>  (28) 
Cn1c(-c2ccccc2)nc2cc(NC(=O)c3cccs3)ccc21

>  <score_type>  (28) 
oracle

>  <origin>  (28) 
adg

>  <m_score__min__energy>  (28) 
-9.8399999999999999

>  <m_primary>  (28) 
energy

$$$$
28:0
     RDKit          3D

 50 51  0  0  0  0  0  0  0  0999 V2000
   56.4420   29.7100   42.6770 C   0  0  0  0  0  0  0  0  0  0  0  0
   55.9060   29.8600   44.1040 C   0  0  0  0  0  0  0  0  0  0  0  0
   56.5370   30.9710   44.8310 N   0  0  0  0  0  0  0  0  0  0  0  0
   57.4110   31.7770   43.9680 C   0  0  0  0  0  0  0  0  0  0  0  0
   58.0410   32.9250   44.7650 C   0  0  0  0  0  0  0  0  0  0  0  0
   58.3770   32.5040   46.2030 C   0  0  0  0  0  0  0  0  0  0  0  0
   59.3650   31.3150   46.3020 C   0  0  0  0  0  0  0  0  0  0  0  0
   58.8040   29.9560   46.0550 N   0  0  0  0  0  0  0  0  0  0  0  0
   59.4670   29.2390   44.9430 C   0  0  0  0  0  0  0  0  0  0  0  0
   58.7100   27.9460   44.6200 C   0  0  0  0  0  0  0  0  0  0  0  0
   58.4920   27.1520   45.8380 N   0  0  0  0  0  0  0  0  0  0  0  0
   58.0010   25.7990   45.7210 C   0  0  0  0  0  0  0  0  0  0  0  0
   58.8920   24.7120   45.7340 C   0  0  0  0  0  0  0  0  0  0  0  0
   58.4180   23.4060   45.5980 C   0  0  0  0  0  0  0  0  0  0  0  0
   57.0500   23.1670   45.4560 C   0  0  0  0  0  0  0  0  0  0  0  0
   56.1370   24.2350   45.4670 C   0  0  0  0  0  0  0  0  0  0  0  0
   54.6630   23.9830   45.2660 C   0  0  0  0  0  0  0  0  0  0  0  0
   53.9310   25.1190   45.5640 F   0  0  0  0  0  0  0  0  0  0  0  0
   54.2240   22.9590   46.0870 F   0  0  0  0  0  0  0  0  0  0  0  0
   54.4370   23.6330   43.9480 F   0  0  0  0  0  0  0  0  0  0  0  0
   56.6250   25.5490   45.5750 C   0  0  0  0  0  0  0  0  0  0  0  0
   58.9930   27.6510   47.1250 C   0  0  0  0  0  0  0  0  0  0  0  0
   58.6690   29.1470   47.3030 C   0  0  0  0  0  0  0  0  0  0  0  0
   57.5008   29.4137   42.7123 H   0  0  0  0  0  0  0  0  0  0  0  0
   55.8630   28.9394   42.1470 H   0  0  0  0  0  0  0  0  0  0  0  0
   56.3471   30.6692   42.1470 H   0  0  0  0  0  0  0  0  0  0  0  0
   54.8220   30.0409   44.0560 H   0  0  0  0  0  0  0  0  0  0  0  0
   56.1388   28.9319   44.6466 H   0  0  0  0  0  0  0  0  0  0  0  0
   55.7930   31.5880   45.2360 H   0  0  0  0  0  0  0  0  0  0  0  0
   58.2087   31.1375   43.5622 H   0  0  0  0  0  0  0  0  0  0  0  0
   56.8107   32.1998   43.1489 H   0  0  0  0  0  0  0  0  0  0  0  0
   58.9661   33.2422   44.2615 H   0  0  0  0  0  0  0  0  0  0  0  0
   57.3134   33.7487   44.8111 H   0  0  0  0  0  0  0  0  0  0  0  0
   58.8226   33.3667   46.7199 H   0  0  0  0  0  0  0  0  0  0  0  0
   57.4349   32.1714   46.6633 H   0  0  0  0  0  0  0  0  0  0  0  0
   60.1649   31.4842   45.5661 H   0  0  0  0  0  0  0  0  0  0  0  0
   59.6995   31.3036   47.3498 H   0  0  0  0  0  0  0  0  0  0  0  0
   57.8240   30.1310   45.7250 H   0  0  0  0  0  0  0  0  0  0  0  0
   59.4809   29.8840   44.0520 H   0  0  0  0  0  0  0  0  0  0  0  0
   60.4955   28.9875   45.2411 H   0  0  0  0  0  0  0  0  0  0  0  0
   57.7363   28.1994   44.1753 H   0  0  0  0  0  0  0  0  0  0  0  0
   59.3098   27.3526   43.9142 H   0  0  0  0  0  0  0  0  0  0  0  0
   59.9708   24.8917   45.8522 H   0  0  0  0  0  0  0  0  0  0  0  0
   59.1245   22.5629   45.6027 H   0  0  0  0  0  0  0  0  0  0  0  0
   56.6846   22.1366   45.3348 H   0  0  0  0  0  0  0  0  0  0  0  0
   55.9206   26.3933   45.5449 H   0  0  0  0  0  0  0  0  0  0  0  0
   58.5213   27.0817   47.9395 H   0  0  0  0  0  0  0  0  0  0  0  0
   60.0855   27.5246   47.1478 H   0  0  0  0  0  0  0  0  0  0  0  0
   57.6325   29.2352   47.6607 H   0  0  0  0  0  0  0  0  0  0  0  0
   59.4027   29.5460   48.0189 H   0  0  0  0  0  0  0  0  0  0  0  0
  1  2  1  0
  2  3  1  0
  3  4  1  0
  4  5  1  0
  5  6  1  0
  6  7  1  0
  7  8  1  0
  8  9  1  0
  9 10  1  0
 10 11  1  0
 11 12  1  0
 12 13  2  0
 13 14  1  0
 14 15  2  0
 15 16  1  0
 16 17  1  0
 17 18  1  0
 17 19  1  0
 17 20  1  0
 16 21  2  0
 11 22  1  0
 22 23  1  0
 23  8  1  0
 21 12  1  0
  1 24  1  0
  1 25  1  0
  1 26  1  0
  2 27  1  0
  2 28  1  0
  3 29  1  0
  4 30  1  0
  4 31  1  0
  5 32  1  0
  5 33  1  0
  6 34  1  0
  6 35  1  0
  7 36  1  0
  7 37  1  0
  8 38  1  0
  9 39  1  0
  9 40  1  0
 10 41  1  0
 10 42  1  0
 13 43  1  0
 14 44  1  0
 15 45  1  0
 21 46  1  0
 22 47  1  0
 22 48  1  0
 23 49  1  0
 23 50  1  0
M  CHG  1   8   1
M  END
>  <UniqueID>  (29) 
27

>  <SMILES>  (29) 
CCNCCCC[NH+]1CCN(c2cccc(C(F)(F)F)c2)CC1

>  <Energy>  (29) 
58.56747680113538

>  <Genealogy>  (29) 
CCNCCCC[NH+]1CCN(c2cccc(C(F)(F)F)c2)CC1 (protonated)
CCNCCCC[NH+]1CCN(c2cccc(C(F)(F)F)c2)CC1 (3D coordinates assigned)
CCNCCCC[NH+]1CCN(c2cccc(C(F)(F)F)c2)CC1 (nonaromatic ring conformer: 58.56747680113538 kcal/mol)

>  <smiles>  (29) 
CCNCCCCN1CCN(c2cccc(C(F)(F)F)c2)CC1

>  <score_type>  (29) 
oracle

>  <origin>  (29) 
adg

>  <m_score__min__energy>  (29) 
-5.3200000000000003

>  <m_primary>  (29) 
energy

$$$$
29:0
     RDKit          3D

 42 44  0  0  0  0  0  0  0  0999 V2000
   56.3390   30.1560   44.1220 C   0  0  0  0  0  0  0  0  0  0  0  0
   57.1040   30.8450   42.9970 C   0  0  0  0  0  0  0  0  0  0  0  0
   57.8200   32.0990   43.5040 C   0  0  0  0  0  0  0  0  0  0  0  0
   57.0180   32.7420   45.0140 S   0  0  0  0  0  0  0  0  0  0  0  0
   58.5130   33.4810   45.6830 C   0  0  0  0  0  0  0  0  0  0  0  0
   58.8870   34.7490   45.4210 N   0  0  0  0  0  0  0  0  0  0  0  0
   60.0590   34.9150   46.0130 N   0  0  0  0  0  0  0  0  0  0  0  0
   60.3900   33.7640   46.6290 C   0  0  0  0  0  0  0  0  0  0  0  0
   61.6290   33.5840   47.4190 C   0  0  0  0  0  0  0  0  0  0  0  0
   62.8470   33.2810   46.7910 C   0  0  0  0  0  0  0  0  0  0  0  0
   64.0100   33.1090   47.5480 C   0  0  0  0  0  0  0  0  0  0  0  0
   63.9670   33.2150   48.9460 C   0  0  0  0  0  0  0  0  0  0  0  0
   65.2220   33.0710   49.7540 C   0  0  0  0  0  0  0  0  0  0  0  0
   62.7510   33.5190   49.5750 C   0  0  0  0  0  0  0  0  0  0  0  0
   61.5880   33.6900   48.8190 C   0  0  0  0  0  0  0  0  0  0  0  0
   59.4250   32.8350   46.4420 N   0  0  0  0  0  0  0  0  0  0  0  0
   59.4350   31.4410   46.7970 C   0  0  0  0  0  0  0  0  0  0  0  0
   59.2820   31.0490   48.1360 C   0  0  0  0  0  0  0  0  0  0  0  0
   59.2920   29.6940   48.4790 C   0  0  0  0  0  0  0  0  0  0  0  0
   59.4580   28.7230   47.4880 C   0  0  0  0  0  0  0  0  0  0  0  0
   59.6140   29.1050   46.1520 C   0  0  0  0  0  0  0  0  0  0  0  0
   59.6040   30.4600   45.8060 C   0  0  0  0  0  0  0  0  0  0  0  0
   56.7236   30.5024   45.0926 H   0  0  0  0  0  0  0  0  0  0  0  0
   55.2697   30.4017   44.0424 H   0  0  0  0  0  0  0  0  0  0  0  0
   56.4719   29.0670   44.0424 H   0  0  0  0  0  0  0  0  0  0  0  0
   57.8491   30.1462   42.5889 H   0  0  0  0  0  0  0  0  0  0  0  0
   56.3863   31.1435   42.2186 H   0  0  0  0  0  0  0  0  0  0  0  0
   58.8669   31.8490   43.7308 H   0  0  0  0  0  0  0  0  0  0  0  0
   57.7701   32.8721   42.7231 H   0  0  0  0  0  0  0  0  0  0  0  0
   60.6050   35.8050   46.0010 H   0  0  0  0  0  0  0  0  0  0  0  0
   62.8870   33.1782   45.6965 H   0  0  0  0  0  0  0  0  0  0  0  0
   64.9632   32.8895   47.0448 H   0  0  0  0  0  0  0  0  0  0  0  0
   64.9737   33.0995   50.8252 H   0  0  0  0  0  0  0  0  0  0  0  0
   65.7041   32.1116   49.5147 H   0  0  0  0  0  0  0  0  0  0  0  0
   65.9088   33.8962   49.5147 H   0  0  0  0  0  0  0  0  0  0  0  0
   62.7123   33.6234   50.6693 H   0  0  0  0  0  0  0  0  0  0  0  0
   60.6352   33.9088   49.3232 H   0  0  0  0  0  0  0  0  0  0  0  0
   59.1537   31.8112   48.9187 H   0  0  0  0  0  0  0  0  0  0  0  0
   59.1691   29.3919   49.5295 H   0  0  0  0  0  0  0  0  0  0  0  0
   59.4660   27.6570   47.7592 H   0  0  0  0  0  0  0  0  0  0  0  0
   59.7446   28.3395   45.3729 H   0  0  0  0  0  0  0  0  0  0  0  0
   59.7289   30.7584   44.7546 H   0  0  0  0  0  0  0  0  0  0  0  0
  1  2  1  0
  2  3  1  0
  3  4  1  0
  4  5  1  0
  5  6  2  0
  6  7  1  0
  7  8  2  0
  8  9  1  0
  9 10  2  0
 10 11  1  0
 11 12  2  0
 12 13  1  0
 12 14  1  0
 14 15  2  0
  8 16  1  0
 16 17  1  0
 17 18  2  0
 18 19  1  0
 19 20  2  0
 20 21  1  0
 21 22  2  0
 16  5  1  0
 22 17  1  0
 15  9  1  0
  1 23  1  0
  1 24  1  0
  1 25  1  0
  2 26  1  0
  2 27  1  0
  3 28  1  0
  3 29  1  0
  7 30  1  0
 10 31  1  0
 11 32  1  0
 13 33  1  0
 13 34  1  0
 13 35  1  0
 14 36  1  0
 15 37  1  0
 18 38  1  0
 19 39  1  0
 20 40  1  0
 21 41  1  0
 22 42  1  0
M  CHG  1   7   1
M  END
>  <UniqueID>  (30) 
28

>  <SMILES>  (30) 
CCCSc1n[nH+]c(-c2ccc(C)cc2)n1-c1ccccc1

>  <Energy>  (30) 
79.16271686244784

>  <Genealogy>  (30) 
CCCSc1n[nH+]c(-c2ccc(C)cc2)n1-c1ccccc1 (protonated)
CCCSc1n[nH+]c(-c2ccc(C)cc2)n1-c1ccccc1 (3D coordinates assigned)
CCCSc1n[nH+]c(-c2ccc(C)cc2)n1-c1ccccc1 (optimized conformer: 79.16271686244784 kcal/mol)

>  <smiles>  (30) 
CCCSc1nnc(-c2ccc(C)cc2)n1-c1ccccc1

>  <score_type>  (30) 
oracle

>  <origin>  (30) 
adg

>  <m_score__min__energy>  (30) 
-6.21

>  <m_primary>  (30) 
energy

$$$$
30:0
     RDKit          3D

 41 44  0  0  0  0  0  0  0  0999 V2000
   59.9020   28.5920   48.6850 C   0  0  0  0  0  0  0  0  0  0  0  0
   59.6900   29.4380   47.4720 C   0  0  0  0  0  0  0  0  0  0  0  0
   58.7640   29.2020   46.5720 O   0  0  0  0  0  0  0  0  0  0  0  0
   58.8130   30.1830   45.6960 C   0  0  0  0  0  0  0  0  0  0  0  0
   57.9350   30.2620   44.5160 C   0  0  0  0  0  0  0  0  0  0  0  0
   57.9190   31.3410   43.6160 C   0  0  0  0  0  0  0  0  0  0  0  0
   57.0150   31.1830   42.5750 C   0  0  0  0  0  0  0  0  0  0  0  0
   56.2420   29.7050   42.7750 S   0  0  0  0  0  0  0  0  0  0  0  0
   57.0420   29.2490   44.1790 C   0  0  0  0  0  0  0  0  0  0  0  0
   59.7590   31.0910   46.0110 N   0  0  0  0  0  0  0  0  0  0  0  0
   60.3390   30.6120   47.1260 C   0  0  0  0  0  0  0  0  0  0  0  0
   61.4770   31.2910   47.8430 C   0  0  0  0  0  0  0  0  0  0  0  0
   61.0980   32.5510   48.5240 N   0  0  0  0  0  0  0  0  0  0  0  0
   59.9610   32.4740   49.4630 C   0  0  0  0  0  0  0  0  0  0  0  0
   58.5740   32.7130   48.8170 C   0  0  0  0  0  0  0  0  0  0  0  0
   58.6010   33.3810   47.4660 C   0  0  0  0  0  0  0  0  0  0  0  0
   57.4050   33.4990   46.7400 C   0  0  0  0  0  0  0  0  0  0  0  0
   57.3980   34.1120   45.4850 C   0  0  0  0  0  0  0  0  0  0  0  0
   58.5810   34.6220   44.9480 C   0  0  0  0  0  0  0  0  0  0  0  0
   59.7760   34.5130   45.6630 C   0  0  0  0  0  0  0  0  0  0  0  0
   59.7960   33.8760   46.9130 C   0  0  0  0  0  0  0  0  0  0  0  0
   61.0810   33.7580   47.6810 C   0  0  0  0  0  0  0  0  0  0  0  0
   59.7494   29.2011   49.5881 H   0  0  0  0  0  0  0  0  0  0  0  0
   59.1852   27.7577   48.6800 H   0  0  0  0  0  0  0  0  0  0  0  0
   60.9276   28.1943   48.6800 H   0  0  0  0  0  0  0  0  0  0  0  0
   58.5619   32.2267   43.7261 H   0  0  0  0  0  0  0  0  0  0  0  0
   56.8358   31.9006   41.7607 H   0  0  0  0  0  0  0  0  0  0  0  0
   56.8873   28.3128   44.7355 H   0  0  0  0  0  0  0  0  0  0  0  0
   59.9930   31.9780   45.5130 H   0  0  0  0  0  0  0  0  0  0  0  0
   61.8731   30.5960   48.5981 H   0  0  0  0  0  0  0  0  0  0  0  0
   62.2209   31.5561   47.0772 H   0  0  0  0  0  0  0  0  0  0  0  0
   59.9594   31.4727   49.9185 H   0  0  0  0  0  0  0  0  0  0  0  0
   60.1068   33.2812   50.1959 H   0  0  0  0  0  0  0  0  0  0  0  0
   58.0786   31.7374   48.7042 H   0  0  0  0  0  0  0  0  0  0  0  0
   58.0401   33.4025   49.4875 H   0  0  0  0  0  0  0  0  0  0  0  0
   56.4681   33.1064   47.1620 H   0  0  0  0  0  0  0  0  0  0  0  0
   56.4584   34.1930   44.9188 H   0  0  0  0  0  0  0  0  0  0  0  0
   58.5723   35.1096   43.9620 H   0  0  0  0  0  0  0  0  0  0  0  0
   60.7048   34.9281   45.2446 H   0  0  0  0  0  0  0  0  0  0  0  0
   61.9189   33.7090   46.9700 H   0  0  0  0  0  0  0  0  0  0  0  0
   61.1732   34.6371   48.3358 H   0  0  0  0  0  0  0  0  0  0  0  0
  1  2  1  0
  2  3  1  0
  3  4  1  0
  4  5  1  0
  5  6  1  0
  6  7  2  0
  7  8  1  0
  8  9  1  0
  4 10  2  0
 10 11  1  0
 11 12  1  0
 12 13  1  0
 13 14  1  0
 14 15  1  0
 15 16  1  0
 16 17  2  0
 17 18  1  0
 18 19  2  0
 19 20  1  0
 20 21  2  0
 21 22  1  0
 11  2  2  0
 22 13  1  0
  9  5  2  0
 21 16  1  0
  1 23  1  0
  1 24  1  0
  1 25  1  0
  6 26  1  0
  7 27  1  0
  9 28  1  0
 10 29  1  0
 12 30  1  0
 12 31  1  0
 14 32  1  0
 14 33  1  0
 15 34  1  0
 15 35  1  0
 17 36  1  0
 18 37  1  0
 19 38  1  0
 20 39  1  0
 22 40  1  0
 22 41  1  0
M  CHG  1  10   1
M  END
>  <UniqueID>  (31) 
29

>  <SMILES>  (31) 
Cc1oc(-c2ccsc2)[nH+]c1CN1CCc2ccccc2C1

>  <Energy>  (31) 
108.72344563125473

>  <Genealogy>  (31) 
Cc1oc(-c2ccsc2)[nH+]c1CN1CCc2ccccc2C1 (protonated)
Cc1oc(-c2ccsc2)[nH+]c1CN1CCc2ccccc2C1 (3D coordinates assigned)
Cc1oc(-c2ccsc2)[nH+]c1CN1CCc2ccccc2C1 (nonaromatic ring conformer: 108.72344563125473 kcal/mol)

>  <smiles>  (31) 
Cc1oc(-c2ccsc2)nc1CN1CCc2ccccc2C1

>  <score_type>  (31) 
oracle

>  <origin>  (31) 
adg

>  <m_score__min__energy>  (31) 
-5.8399999999999999

>  <m_primary>  (31) 
energy

$$$$
31:0
     RDKit          3D

 47 49  0  0  0  0  0  0  0  0999 V2000
   57.3490   32.3420   40.9540 C   0  0  0  0  0  0  0  0  0  0  0  0
   58.1170   32.4860   42.2640 C   0  0  0  0  0  0  0  0  0  0  0  0
   57.6750   31.4790   43.2350 N   0  0  0  0  0  0  0  0  0  0  0  0
   56.6300   30.5130   42.8660 C   0  0  0  0  0  0  0  0  0  0  0  0
   55.8950   30.0080   44.1040 C   0  0  0  0  0  0  0  0  0  0  0  0
   58.4850   31.2300   44.3950 C   0  0  0  0  0  0  0  0  0  0  0  0
   59.1950   30.0650   44.5070 N   0  0  0  0  0  0  0  0  0  0  0  0
   59.9900   29.8110   45.5980 C   0  0  0  0  0  0  0  0  0  0  0  0
   60.7440   28.5240   45.6940 C   0  0  0  0  0  0  0  0  0  0  0  0
   60.0770   30.7200   46.6140 N   0  0  0  0  0  0  0  0  0  0  0  0
   59.3680   31.8690   46.5150 C   0  0  0  0  0  0  0  0  0  0  0  0
   58.5870   32.1530   45.4380 C   0  0  0  0  0  0  0  0  0  0  0  0
   58.0550   33.4060   45.7170 C   0  0  0  0  0  0  0  0  0  0  0  0
   57.1600   34.2390   44.8580 C   0  0  0  0  0  0  0  0  0  0  0  0
   58.5410   33.8300   46.9090 N   0  0  0  0  0  0  0  0  0  0  0  0
   59.3410   32.8860   47.3940 N   0  0  0  0  0  0  0  0  0  0  0  0
   60.0170   32.9660   48.6610 C   0  0  0  0  0  0  0  0  0  0  0  0
   59.2930   32.7770   49.8500 C   0  0  0  0  0  0  0  0  0  0  0  0
   59.9280   32.8690   51.0910 C   0  0  0  0  0  0  0  0  0  0  0  0
   61.3010   33.1400   51.1650 C   0  0  0  0  0  0  0  0  0  0  0  0
   61.9730   33.2770   52.4990 C   0  0  0  0  0  0  0  0  0  0  0  0
   62.0260   33.3480   49.9840 C   0  0  0  0  0  0  0  0  0  0  0  0
   61.3960   33.2580   48.7350 C   0  0  0  0  0  0  0  0  0  0  0  0
   62.3800   33.4590   47.2910 Cl  0  0  0  0  0  0  0  0  0  0  0  0
   56.2890   32.1432   41.1704 H   0  0  0  0  0  0  0  0  0  0  0  0
   57.4366   33.2722   40.3735 H   0  0  0  0  0  0  0  0  0  0  0  0
   57.7676   31.5067   40.3735 H   0  0  0  0  0  0  0  0  0  0  0  0
   59.1915   32.3535   42.0695 H   0  0  0  0  0  0  0  0  0  0  0  0
   57.9259   33.4867   42.6790 H   0  0  0  0  0  0  0  0  0  0  0  0
   55.9095   31.0011   42.1933 H   0  0  0  0  0  0  0  0  0  0  0  0
   57.1040   29.6564   42.3644 H   0  0  0  0  0  0  0  0  0  0  0  0
   56.4119   30.3632   45.0077 H   0  0  0  0  0  0  0  0  0  0  0  0
   54.8630   30.3886   44.0984 H   0  0  0  0  0  0  0  0  0  0  0  0
   55.8802   28.9081   44.0984 H   0  0  0  0  0  0  0  0  0  0  0  0
   59.1450   29.3590   43.7370 H   0  0  0  0  0  0  0  0  0  0  0  0
   60.8953   28.2658   46.7525 H   0  0  0  0  0  0  0  0  0  0  0  0
   60.1709   27.7255   45.2001 H   0  0  0  0  0  0  0  0  0  0  0  0
   61.7207   28.6336   45.2001 H   0  0  0  0  0  0  0  0  0  0  0  0
   56.5040   34.8496   45.4958 H   0  0  0  0  0  0  0  0  0  0  0  0
   57.7705   34.8978   44.2229 H   0  0  0  0  0  0  0  0  0  0  0  0
   56.5467   33.5829   44.2229 H   0  0  0  0  0  0  0  0  0  0  0  0
   58.2167   32.5546   49.8035 H   0  0  0  0  0  0  0  0  0  0  0  0
   59.3474   32.7280   52.0146 H   0  0  0  0  0  0  0  0  0  0  0  0
   61.2335   33.1262   53.2993 H   0  0  0  0  0  0  0  0  0  0  0  0
   62.7686   32.5226   52.5880 H   0  0  0  0  0  0  0  0  0  0  0  0
   62.4097   34.2827   52.5880 H   0  0  0  0  0  0  0  0  0  0  0  0
   63.0991   33.5840   50.0375 H   0  0  0  0  0  0  0  0  0  0  0  0
  1  2  1  0
  2  3  1  0
  3  4  1  0
  4  5  1  0
  3  6  1  0
  6  7  2  0
  7  8  1  0
  8  9  1  0
  8 10  2  0
 10 11  1  0
 11 12  2  0
 12 13  1  0
 13 14  1  0
 13 15  2  0
 15 16  1  0
 16 17  1  0
 17 18  2  0
 18 19  1  0
 19 20  2  0
 20 21  1  0
 20 22  1  0
 22 23  2  0
 23 24  1  0
 12  6  1  0
 23 17  1  0
 16 11  1  0
  1 25  1  0
  1 26  1  0
  1 27  1  0
  2 28  1  0
  2 29  1  0
  4 30  1  0
  4 31  1  0
  5 32  1  0
  5 33  1  0
  5 34  1  0
  7 35  1  0
  9 36  1  0
  9 37  1  0
  9 38  1  0
 14 39  1  0
 14 40  1  0
 14 41  1  0
 18 42  1  0
 19 43  1  0
 21 44  1  0
 21 45  1  0
 21 46  1  0
 22 47  1  0
M  CHG  1   7   1
M  END
>  <UniqueID>  (32) 
30

>  <SMILES>  (32) 
CCN(CC)c1[nH+]c(C)nc2c1c(C)nn2-c1ccc(C)cc1Cl

>  <Energy>  (32) 
90.74996621624965

>  <Genealogy>  (32) 
CCN(CC)c1[nH+]c(C)nc2c1c(C)nn2-c1ccc(C)cc1Cl (protonated)
CCN(CC)c1[nH+]c(C)nc2c1c(C)nn2-c1ccc(C)cc1Cl (3D coordinates assigned)
CCN(CC)c1[nH+]c(C)nc2c1c(C)nn2-c1ccc(C)cc1Cl (optimized conformer: 90.74996621624965 kcal/mol)

>  <smiles>  (32) 
CCN(CC)c1nc(C)nc2c1c(C)nn2-c1ccc(C)cc1Cl

>  <score_type>  (32) 
oracle

>  <origin>  (32) 
adg

>  <m_score__min__energy>  (32) 
-6.04

>  <m_primary>  (32) 
energy

$$$$
32:0
     RDKit          3D

 40 41  0  0  0  0  0  0  0  0999 V2000
   55.8560   29.7880   43.6690 C   0  0  0  0  0  0  0  0  0  0  0  0
   55.9070   29.0360   44.8770 O   0  0  0  0  0  0  0  0  0  0  0  0
   57.0560   28.8440   45.6560 C   0  0  0  0  0  0  0  0  0  0  0  0
   57.7550   29.9410   46.2020 C   0  0  0  0  0  0  0  0  0  0  0  0
   58.8880   29.7410   46.9900 C   0  0  0  0  0  0  0  0  0  0  0  0
   59.3380   28.4500   47.2500 C   0  0  0  0  0  0  0  0  0  0  0  0
   58.6610   27.3530   46.7180 C   0  0  0  0  0  0  0  0  0  0  0  0
   57.5230   27.5290   45.9030 C   0  0  0  0  0  0  0  0  0  0  0  0
   56.8100   26.2820   45.3870 C   0  0  2  0  0  0  0  0  0  0  0  0
   55.9420   25.6980   46.4080 N   0  0  0  0  0  0  0  0  0  0  0  0
   56.2980   24.5020   47.1000 C   0  0  0  0  0  0  0  0  0  0  0  0
   55.5370   24.0320   47.9840 O   0  0  0  0  0  0  0  0  0  0  0  0
   57.5430   23.8650   46.8150 N   0  0  0  0  0  0  0  0  0  0  0  0
   58.2910   24.2270   45.8150 C   0  0  0  0  0  0  0  0  0  0  0  0
   59.6050   23.5330   45.6240 C   0  0  0  0  0  0  0  0  0  0  0  0
   57.8030   25.2390   44.7900 C   0  0  1  0  0  0  0  0  0  0  0  0
   57.1520   24.4990   43.6340 C   0  0  0  0  0  0  0  0  0  0  0  0
   57.3670   24.8730   42.4890 O   0  0  0  0  0  0  0  0  0  0  0  0
   56.2690   23.2860   43.8500 C   0  0  0  0  0  0  0  0  0  0  0  0
   54.8010   23.6930   44.0200 C   0  0  0  0  0  0  0  0  0  0  0  0
   56.4320   22.2640   42.7210 C   0  0  0  0  0  0  0  0  0  0  0  0
   55.7833   30.8595   43.9069 H   0  0  0  0  0  0  0  0  0  0  0  0
   56.7687   29.6035   43.0834 H   0  0  0  0  0  0  0  0  0  0  0  0
   54.9765   29.4820   43.0834 H   0  0  0  0  0  0  0  0  0  0  0  0
   57.4029   30.9642   46.0042 H   0  0  0  0  0  0  0  0  0  0  0  0
   59.4268   30.6048   47.4066 H   0  0  0  0  0  0  0  0  0  0  0  0
   60.2290   28.2946   47.8761 H   0  0  0  0  0  0  0  0  0  0  0  0
   59.0193   26.3363   46.9369 H   0  0  0  0  0  0  0  0  0  0  0  0
   56.1622   26.6013   44.5573 H   0  0  0  0  0  0  0  0  0  0  0  0
   60.0435   23.3014   46.6059 H   0  0  0  0  0  0  0  0  0  0  0  0
   59.4487   22.5998   45.0629 H   0  0  0  0  0  0  0  0  0  0  0  0
   60.2876   24.1882   45.0629 H   0  0  0  0  0  0  0  0  0  0  0  0
   58.6782   25.8073   44.4421 H   0  0  0  0  0  0  0  0  0  0  0  0
   56.5951   22.8026   44.7827 H   0  0  0  0  0  0  0  0  0  0  0  0
   54.5607   23.7596   45.0914 H   0  0  0  0  0  0  0  0  0  0  0  0
   54.6344   24.6712   43.5453 H   0  0  0  0  0  0  0  0  0  0  0  0
   54.1545   22.9402   43.5453 H   0  0  0  0  0  0  0  0  0  0  0  0
   56.5914   21.2644   43.1515 H   0  0  0  0  0  0  0  0  0  0  0  0
   55.5239   22.2553   42.1003 H   0  0  0  0  0  0  0  0  0  0  0  0
   57.2978   22.5383   42.1003 H   0  0  0  0  0  0  0  0  0  0  0  0
  1  2  1  0
  2  3  1  0
  3  4  2  0
  4  5  1  0
  5  6  2  0
  6  7  1  0
  7  8  2  0
  8  9  1  0
  9 10  1  0
 10 11  1  0
 11 12  2  0
 11 13  1  0
 13 14  2  0
 14 15  1  0
 14 16  1  0
 16 17  1  0
 17 18  2  0
 17 19  1  0
 19 20  1  0
 19 21  1  0
  8  3  1  0
 16  9  1  0
  1 22  1  0
  1 23  1  0
  1 24  1  0
  4 25  1  0
  5 26  1  0
  6 27  1  0
  7 28  1  0
  9 29  1  6
 15 30  1  0
 15 31  1  0
 15 32  1  0
 16 33  1  6
 19 34  1  0
 20 35  1  0
 20 36  1  0
 20 37  1  0
 21 38  1  0
 21 39  1  0
 21 40  1  0
M  CHG  1  10  -1
M  END
>  <UniqueID>  (33) 
31

>  <SMILES>  (33) 
COc1ccccc1[C@@H]1[N-]C(=O)N=C(C)[C@H]1C(=O)C(C)C

>  <Energy>  (33) 
35.5307774370757

>  <Genealogy>  (33) 
COc1ccccc1C1[N-]C(=O)N=C(C)C1C(=O)C(C)C (protonated)
COc1ccccc1[C@@H]1[N-]C(=O)N=C(C)[C@H]1C(=O)C(C)C (chirality)
COc1ccccc1[C@@H]1[N-]C(=O)N=C(C)[C@H]1C(=O)C(C)C (3D coordinates assigned)
COc1ccccc1[C@@H]1[N-]C(=O)N=C(C)[C@H]1C(=O)C(C)C (nonaromatic ring conformer: 35.5307774370757 kcal/mol)

>  <smiles>  (33) 
COc1ccccc1C1NC(=O)N=C(C)C1C(=O)C(C)C

>  <score_type>  (33) 
oracle

>  <origin>  (33) 
adg

>  <m_score__min__energy>  (33) 
-8.5800000000000001

>  <m_primary>  (33) 
energy

$$$$
33:0
     RDKit          3D

 55 57  0  0  0  0  0  0  0  0999 V2000
   59.6340   27.0900   45.6260 C   0  0  0  0  0  0  0  0  0  0  0  0
   59.2670   28.2420   44.6950 C   0  0  0  0  0  0  0  0  0  0  0  0
   58.0750   27.8710   43.8010 C   0  0  0  0  0  0  0  0  0  0  0  0
   57.0810   29.0310   43.6590 C   0  0  0  0  0  0  0  0  0  0  0  0
   57.7660   30.3170   43.5260 N   0  0  0  0  0  0  0  0  0  0  0  0
   57.2770   31.4910   44.1880 C   0  0  0  0  0  0  0  0  0  0  0  0
   56.2150   31.4430   44.8670 O   0  0  0  0  0  0  0  0  0  0  0  0
   58.0350   32.7810   44.0970 C   0  0  0  0  0  0  0  0  0  0  0  0
   58.1030   33.6330   45.7130 S   0  0  0  0  0  0  0  0  0  0  0  0
   59.3070   32.5130   46.4300 C   0  0  0  0  0  0  0  0  0  0  0  0
   59.0700   31.2230   46.8840 C   0  0  0  0  0  0  0  0  0  0  0  0
   60.2220   30.6740   47.3410 N   0  0  0  0  0  0  0  0  0  0  0  0
   60.3580   29.3490   47.9440 C   0  0  0  0  0  0  0  0  0  0  0  0
   59.0020   28.8590   48.4550 C   0  0  0  0  0  0  0  0  0  0  0  0
   58.8840   29.0790   49.8920 N   0  0  0  0  0  0  0  0  0  0  0  0
   58.5160   30.3350   50.4790 C   0  0  0  0  0  0  0  0  0  0  0  0
   57.4170   30.4430   51.0910 O   0  0  0  0  0  0  0  0  0  0  0  0
   59.4180   31.5040   50.3610 C   0  0  0  0  0  0  0  0  0  0  0  0
   60.7730   31.4060   50.7290 C   0  0  0  0  0  0  0  0  0  0  0  0
   61.6210   32.5110   50.6070 C   0  0  0  0  0  0  0  0  0  0  0  0
   61.1300   33.7220   50.1150 C   0  0  0  0  0  0  0  0  0  0  0  0
   61.9600   34.7880   49.9810 F   0  0  0  0  0  0  0  0  0  0  0  0
   59.7860   33.8340   49.7530 C   0  0  0  0  0  0  0  0  0  0  0  0
   58.9320   32.7330   49.8740 C   0  0  0  0  0  0  0  0  0  0  0  0
   61.1760   31.6210   47.2000 C   0  0  0  0  0  0  0  0  0  0  0  0
   62.5280   31.5460   47.5520 C   0  0  0  0  0  0  0  0  0  0  0  0
   63.3360   32.6720   47.3080 C   0  0  0  0  0  0  0  0  0  0  0  0
   62.7850   33.8380   46.7330 C   0  0  0  0  0  0  0  0  0  0  0  0
   61.4210   33.8910   46.3990 C   0  0  0  0  0  0  0  0  0  0  0  0
   60.6470   32.7570   46.6430 C   0  0  0  0  0  0  0  0  0  0  0  0
   59.5301   27.4161   46.6714 H   0  0  0  0  0  0  0  0  0  0  0  0
   58.9624   26.2391   45.4389 H   0  0  0  0  0  0  0  0  0  0  0  0
   60.6740   26.7844   45.4389 H   0  0  0  0  0  0  0  0  0  0  0  0
   59.0027   29.1223   45.2994 H   0  0  0  0  0  0  0  0  0  0  0  0
   60.1319   28.4608   44.0516 H   0  0  0  0  0  0  0  0  0  0  0  0
   58.4501   27.6004   42.8030 H   0  0  0  0  0  0  0  0  0  0  0  0
   57.5479   27.0270   44.2699 H   0  0  0  0  0  0  0  0  0  0  0  0
   56.4619   28.8627   42.7655 H   0  0  0  0  0  0  0  0  0  0  0  0
   56.4612   29.0648   44.5671 H   0  0  0  0  0  0  0  0  0  0  0  0
   58.6650   30.3830   42.9950 H   0  0  0  0  0  0  0  0  0  0  0  0
   59.0608   32.5699   43.7607 H   0  0  0  0  0  0  0  0  0  0  0  0
   57.5160   33.4368   43.3825 H   0  0  0  0  0  0  0  0  0  0  0  0
   58.0916   30.7203   46.8744 H   0  0  0  0  0  0  0  0  0  0  0  0
   60.7384   28.6441   47.1901 H   0  0  0  0  0  0  0  0  0  0  0  0
   61.0593   29.4098   48.7893 H   0  0  0  0  0  0  0  0  0  0  0  0
   58.2012   29.4083   47.9384 H   0  0  0  0  0  0  0  0  0  0  0  0
   58.9159   27.7811   48.2534 H   0  0  0  0  0  0  0  0  0  0  0  0
   61.1672   30.4543   51.1149 H   0  0  0  0  0  0  0  0  0  0  0  0
   62.6780   32.4261   50.8995 H   0  0  0  0  0  0  0  0  0  0  0  0
   59.3981   34.7902   49.3719 H   0  0  0  0  0  0  0  0  0  0  0  0
   57.8743   32.8275   49.5871 H   0  0  0  0  0  0  0  0  0  0  0  0
   62.9463   30.6352   48.0053 H   0  0  0  0  0  0  0  0  0  0  0  0
   64.4047   32.6436   47.5671 H   0  0  0  0  0  0  0  0  0  0  0  0
   63.4277   34.7107   46.5452 H   0  0  0  0  0  0  0  0  0  0  0  0
   60.9785   34.7971   45.9596 H   0  0  0  0  0  0  0  0  0  0  0  0
  1  2  1  0
  2  3  1  0
  3  4  1  0
  4  5  1  0
  5  6  1  0
  6  7  2  0
  6  8  1  0
  8  9  1  0
  9 10  1  0
 10 11  2  0
 11 12  1  0
 12 13  1  0
 13 14  1  0
 14 15  1  0
 15 16  1  0
 16 17  2  0
 16 18  1  0
 18 19  2  0
 19 20  1  0
 20 21  2  0
 21 22  1  0
 21 23  1  0
 23 24  2  0
 12 25  1  0
 25 26  2  0
 26 27  1  0
 27 28  2  0
 28 29  1  0
 29 30  2  0
 30 10  1  0
 24 18  1  0
 30 25  1  0
  1 31  1  0
  1 32  1  0
  1 33  1  0
  2 34  1  0
  2 35  1  0
  3 36  1  0
  3 37  1  0
  4 38  1  0
  4 39  1  0
  5 40  1  0
  8 41  1  0
  8 42  1  0
 11 43  1  0
 13 44  1  0
 13 45  1  0
 14 46  1  0
 14 47  1  0
 19 48  1  0
 20 49  1  0
 23 50  1  0
 24 51  1  0
 26 52  1  0
 27 53  1  0
 28 54  1  0
 29 55  1  0
M  CHG  1  15  -1
M  END
>  <UniqueID>  (34) 
32

>  <SMILES>  (34) 
CCCCNC(=O)CSc1cn(CC[N-]C(=O)c2ccc(F)cc2)c2ccccc12

>  <Energy>  (34) 
71.7257734015109

>  <Genealogy>  (34) 
CCCCNC(=O)CSc1cn(CC[N-]C(=O)c2ccc(F)cc2)c2ccccc12 (protonated)
CCCCNC(=O)CSc1cn(CC[N-]C(=O)c2ccc(F)cc2)c2ccccc12 (3D coordinates assigned)
CCCCNC(=O)CSc1cn(CC[N-]C(=O)c2ccc(F)cc2)c2ccccc12 (optimized conformer: 71.7257734015109 kcal/mol)

>  <smiles>  (34) 
CCCCNC(=O)CSc1cn(CCNC(=O)c2ccc(F)cc2)c2ccccc12

>  <score_type>  (34) 
oracle

>  <origin>  (34) 
adg

>  <m_score__min__energy>  (34) 
-9.9399999999999995

>  <m_primary>  (34) 
energy

$$$$
34:0
     RDKit          3D

 57 60  0  0  0  0  0  0  0  0999 V2000
   57.4930   32.3720   41.3590 C   0  0  0  0  0  0  0  0  0  0  0  0
   56.6740   31.5530   42.1870 O   0  0  0  0  0  0  0  0  0  0  0  0
   57.1550   30.7530   43.2350 C   0  0  0  0  0  0  0  0  0  0  0  0
   58.3950   31.0680   43.7930 C   0  0  0  0  0  0  0  0  0  0  0  0
   58.9170   30.3170   44.8480 C   0  0  0  0  0  0  0  0  0  0  0  0
   58.2060   29.2130   45.3650 C   0  0  0  0  0  0  0  0  0  0  0  0
   58.6800   28.3950   46.4250 C   0  0  0  0  0  0  0  0  0  0  0  0
   59.9850   28.6190   47.1630 C   0  0  0  0  0  0  0  0  0  0  0  0
   59.8090   29.5830   48.2720 N   0  0  0  0  0  0  0  0  0  0  0  0
   59.1680   30.8520   47.8560 C   0  0  0  0  0  0  0  0  0  0  0  0
   58.7180   31.6350   49.0950 C   0  0  0  0  0  0  0  0  0  0  0  0
   58.9210   33.1480   48.9390 C   0  0  0  0  0  0  0  0  0  0  0  0
   58.7570   33.5930   47.5090 C   0  0  0  0  0  0  0  0  0  0  0  0
   57.5330   33.4120   46.8490 C   0  0  0  0  0  0  0  0  0  0  0  0
   57.3930   33.8450   45.5280 C   0  0  0  0  0  0  0  0  0  0  0  0
   58.4420   34.4210   44.8840 N   0  0  0  0  0  0  0  0  0  0  0  0
   59.6460   34.5910   45.4930 C   0  0  0  0  0  0  0  0  0  0  0  0
   59.8260   34.1810   46.8160 C   0  0  0  0  0  0  0  0  0  0  0  0
   61.0510   29.7810   49.0580 C   0  0  0  0  0  0  0  0  0  0  0  0
   61.7950   31.0570   48.7130 C   0  0  0  0  0  0  0  0  0  0  0  0
   62.2700   31.2800   47.4070 C   0  0  0  0  0  0  0  0  0  0  0  0
   62.9580   32.4570   47.0960 C   0  0  0  0  0  0  0  0  0  0  0  0
   63.1670   33.4270   48.0800 C   0  0  0  0  0  0  0  0  0  0  0  0
   62.6820   33.2260   49.3730 C   0  0  0  0  0  0  0  0  0  0  0  0
   61.9930   32.0500   49.6890 C   0  0  0  0  0  0  0  0  0  0  0  0
   57.8750   27.3290   46.8580 C   0  0  0  0  0  0  0  0  0  0  0  0
   56.6470   27.0950   46.2430 C   0  0  0  0  0  0  0  0  0  0  0  0
   55.9230   26.1420   46.6300 O   0  0  0  0  0  0  0  0  0  0  0  0
   56.2340   27.8720   45.2510 O   0  0  0  0  0  0  0  0  0  0  0  0
   56.9460   28.8970   44.7940 C   0  0  0  0  0  0  0  0  0  0  0  0
   56.4310   29.6610   43.7430 C   0  0  0  0  0  0  0  0  0  0  0  0
   58.1304   33.0094   41.9894 H   0  0  0  0  0  0  0  0  0  0  0  0
   58.1258   31.7346   40.7239 H   0  0  0  0  0  0  0  0  0  0  0  0
   56.8556   33.0048   40.7239 H   0  0  0  0  0  0  0  0  0  0  0  0
   58.9684   31.9189   43.3965 H   0  0  0  0  0  0  0  0  0  0  0  0
   59.8915   30.5884   45.2802 H   0  0  0  0  0  0  0  0  0  0  0  0
   60.3359   27.6601   47.5723 H   0  0  0  0  0  0  0  0  0  0  0  0
   60.7212   29.0291   46.4560 H   0  0  0  0  0  0  0  0  0  0  0  0
   59.8886   31.4552   47.2842 H   0  0  0  0  0  0  0  0  0  0  0  0
   58.2924   30.6289   47.2286 H   0  0  0  0  0  0  0  0  0  0  0  0
   57.6496   31.4383   49.2680 H   0  0  0  0  0  0  0  0  0  0  0  0
   59.3330   31.3007   49.9435 H   0  0  0  0  0  0  0  0  0  0  0  0
   58.1808   33.6720   49.5615 H   0  0  0  0  0  0  0  0  0  0  0  0
   59.9468   33.3884   49.2550 H   0  0  0  0  0  0  0  0  0  0  0  0
   56.6895   32.9327   47.3674 H   0  0  0  0  0  0  0  0  0  0  0  0
   56.4317   33.7194   45.0082 H   0  0  0  0  0  0  0  0  0  0  0  0
   60.4794   35.0521   44.9428 H   0  0  0  0  0  0  0  0  0  0  0  0
   60.7987   34.3181   47.3110 H   0  0  0  0  0  0  0  0  0  0  0  0
   60.7853   29.8118   50.1250 H   0  0  0  0  0  0  0  0  0  0  0  0
   61.7212   28.9430   48.8159 H   0  0  0  0  0  0  0  0  0  0  0  0
   62.0990   30.5240   46.6264 H   0  0  0  0  0  0  0  0  0  0  0  0
   63.3352   32.6195   46.0755 H   0  0  0  0  0  0  0  0  0  0  0  0
   63.7141   34.3494   47.8353 H   0  0  0  0  0  0  0  0  0  0  0  0
   62.8416   33.9933   50.1449 H   0  0  0  0  0  0  0  0  0  0  0  0
   61.6038   31.9012   50.7070 H   0  0  0  0  0  0  0  0  0  0  0  0
   58.2129   26.6809   47.6800 H   0  0  0  0  0  0  0  0  0  0  0  0
   55.4523   29.4057   43.3106 H   0  0  0  0  0  0  0  0  0  0  0  0
  1  2  1  0
  2  3  1  0
  3  4  2  0
  4  5  1  0
  5  6  2  0
  6  7  1  0
  7  8  1  0
  8  9  1  0
  9 10  1  0
 10 11  1  0
 11 12  1  0
 12 13  1  0
 13 14  2  0
 14 15  1  0
 15 16  2  0
 16 17  1  0
 17 18  2  0
  9 19  1  0
 19 20  1  0
 20 21  2  0
 21 22  1  0
 22 23  2  0
 23 24  1  0
 24 25  2  0
  7 26  2  0
 26 27  1  0
 27 28  2  0
 27 29  1  0
 29 30  1  0
 30 31  2  0
 31  3  1  0
 30  6  1  0
 18 13  1  0
 25 20  1  0
  1 32  1  0
  1 33  1  0
  1 34  1  0
  4 35  1  0
  5 36  1  0
  8 37  1  0
  8 38  1  0
 10 39  1  0
 10 40  1  0
 11 41  1  0
 11 42  1  0
 12 43  1  0
 12 44  1  0
 14 45  1  0
 15 46  1  0
 17 47  1  0
 18 48  1  0
 19 49  1  0
 19 50  1  0
 21 51  1  0
 22 52  1  0
 23 53  1  0
 24 54  1  0
 25 55  1  0
 26 56  1  0
 31 57  1  0
M  END
>  <UniqueID>  (35) 
33

>  <SMILES>  (35) 
COc1ccc2c(CN(CCCc3ccncc3)Cc3ccccc3)cc(=O)oc2c1

>  <Energy>  (35) 
65.30366348540399

>  <Genealogy>  (35) 
COc1ccc2c(CN(CCCc3ccncc3)Cc3ccccc3)cc(=O)oc2c1 (3D coordinates assigned)
COc1ccc2c(CN(CCCc3ccncc3)Cc3ccccc3)cc(=O)oc2c1 (optimized conformer: 65.30366348540399 kcal/mol)

>  <smiles>  (35) 
COc1ccc2c(CN(CCCc3ccncc3)Cc3ccccc3)cc(=O)oc2c1

>  <score_type>  (35) 
oracle

>  <origin>  (35) 
adg

>  <m_score__min__energy>  (35) 
-8.7300000000000004

>  <m_primary>  (35) 
energy

$$$$
36:0
     RDKit          3D

 43 44  0  0  0  0  0  0  0  0999 V2000
   59.8546   25.2564   47.1448 H   0  0  0  0  0  0  0  0  0  0  0  0
   59.6290   26.3280   47.2490 C   0  0  0  0  0  0  0  0  0  0  0  0
   57.4520   23.8720   45.5450 C   0  0  0  0  0  0  0  0  0  0  0  0
   58.7220   23.2840   45.5940 C   0  0  0  0  0  0  0  0  0  0  0  0
   59.4585   23.6221   46.3378 H   0  0  0  0  0  0  0  0  0  0  0  0
   59.0490   22.2700   44.6980 C   0  0  0  0  0  0  0  0  0  0  0  0
   60.0436   21.8014   44.7326 H   0  0  0  0  0  0  0  0  0  0  0  0
   58.1110   21.8520   43.7580 C   0  0  0  0  0  0  0  0  0  0  0  0
   58.3556   21.0450   43.0517 H   0  0  0  0  0  0  0  0  0  0  0  0
   56.8580   22.4650   43.7190 C   0  0  0  0  0  0  0  0  0  0  0  0
   56.1134   22.1325   42.9808 H   0  0  0  0  0  0  0  0  0  0  0  0
   56.5440   23.4750   44.5880 N   0  0  0  0  0  0  0  0  0  0  0  0
   55.2120   24.0910   44.5060 C   0  0  0  0  0  0  0  0  0  0  0  0
   54.8272   24.2690   45.5210 H   0  0  0  0  0  0  0  0  0  0  0  0
   55.2830   25.0477   43.9678 H   0  0  0  0  0  0  0  0  0  0  0  0
   54.5290   23.4173   43.9678 H   0  0  0  0  0  0  0  0  0  0  0  0
   58.6450   26.8320   46.4510 C   0  0  0  0  0  0  0  0  0  0  0  0
   58.9250   28.0140   45.7300 C   0  0  0  0  0  0  0  0  0  0  0  0
   60.2300   28.5030   45.6470 O   0  0  0  0  0  0  0  0  0  0  0  0
   57.9120   28.7520   45.1130 C   0  0  0  0  0  0  0  0  0  0  0  0
   58.3180   29.9060   44.4110 O   0  0  0  0  0  0  0  0  0  0  0  0
   58.4900   31.2150   44.9460 C   0  0  0  0  0  0  0  0  0  0  0  0
   58.4835   31.1658   46.0449 H   0  0  0  0  0  0  0  0  0  0  0  0
   59.4501   31.6280   44.6031 H   0  0  0  0  0  0  0  0  0  0  0  0
   57.6692   31.8620   44.6031 H   0  0  0  0  0  0  0  0  0  0  0  0
   56.5670   28.3430   45.2410 C   0  0  0  0  0  0  0  0  0  0  0  0
   55.5600   29.1850   44.7270 O   0  0  0  0  0  0  0  0  0  0  0  0
   55.5130   29.7880   43.4390 C   0  0  0  0  0  0  0  0  0  0  0  0
   55.4279   30.8793   43.5479 H   0  0  0  0  0  0  0  0  0  0  0  0
   56.4328   29.5452   42.8867 H   0  0  0  0  0  0  0  0  0  0  0  0
   54.6419   29.4056   42.8867 H   0  0  0  0  0  0  0  0  0  0  0  0
   56.2810   27.1080   45.8710 C   0  0  0  0  0  0  0  0  0  0  0  0
   54.9590   26.7100   46.0360 O   0  0  0  0  0  0  0  0  0  0  0  0
   57.3330   26.2710   46.3370 C   0  0  0  0  0  0  0  0  0  0  0  0
   57.1380   24.9360   46.5210 C   0  0  0  0  0  0  0  0  0  0  0  0
   56.7078   24.6212   47.4832 H   0  0  0  0  0  0  0  0  0  0  0  0
   60.4390   27.1020   48.2630 C   0  0  0  0  0  0  0  0  0  0  0  0
   61.3641   27.4595   47.7872 H   0  0  0  0  0  0  0  0  0  0  0  0
   60.6722   26.4363   49.1071 H   0  0  0  0  0  0  0  0  0  0  0  0
   59.6540   28.3000   48.7910 C   0  0  0  0  0  0  0  0  0  0  0  0
   59.6620   28.2877   49.8909 H   0  0  0  0  0  0  0  0  0  0  0  0
   60.1184   29.2300   48.4313 H   0  0  0  0  0  0  0  0  0  0  0  0
   58.6159   28.2455   48.4313 H   0  0  0  0  0  0  0  0  0  0  0  0
  1  2  1  0
  2  3  1  0
  3  4  2  0
  4  5  1  0
  4  6  1  0
  6  7  1  0
  6  8  2  0
  8  9  1  0
  8 10  1  0
 10 11  1  0
 10 12  2  0
 12 13  1  0
 13 14  1  0
 13 15  1  0
 13 16  1  0
  2 17  2  0
 17 18  1  0
 18 19  1  0
 18 20  2  0
 20 21  1  0
 21 22  1  0
 22 23  1  0
 22 24  1  0
 22 25  1  0
 20 26  1  0
 26 27  1  0
 27 28  1  0
 28 29  1  0
 28 30  1  0
 28 31  1  0
 26 32  2  0
 32 33  1  0
 32 34  1  0
 34 35  2  0
 35 36  1  0
 35 37  1  0
 37 38  1  0
 37 39  1  0
 37 40  1  0
 40 41  1  0
 40 42  1  0
 40 43  1  0
 12  3  1  0
 34 17  1  0
M  CHG  3  12   1  19  -1  33  -1
M  END
>  <UniqueID>  (36) 
34

>  <SMILES>  (36) 
CC/C=c1/c([O-])c(OC)c(OC)c([O-])/c1=C\c1cccc[n+]1C

>  <Energy>  (36) 
84.76309678486379

>  <Genealogy>  (36) 
CCC=c1c([O-])c(OC)c(OC)c([O-])c1=Cc1cccc[n+]1C (protonated)
CC/C=c1/c([O-])c(OC)c(OC)c([O-])/c1=C\c1cccc[n+]1C (cis-trans isomerization)
CC/C=c1/c([O-])c(OC)c(OC)c([O-])/c1=C\c1cccc[n+]1C (3D coordinates assigned)
CC/C=c1/c([O-])c(OC)c(OC)c([O-])/c1=C\c1cccc[n+]1C (optimized conformer: 84.76309678486379 kcal/mol)

>  <smiles>  (36) 
CCC=c1c(O)c(OC)c(OC)c(O)c1=Cc1cccc[n+]1C

>  <score_type>  (36) 
oracle

>  <origin>  (36) 
adg

>  <m_score__min__energy>  (36) 
-9.8000000000000007

>  <m_primary>  (36) 
energy

$$$$
37:0
     RDKit          3D

 55 58  0  0  0  0  0  0  0  0999 V2000
   57.4600   31.0400   43.8910 C   0  0  0  0  0  0  0  0  0  0  0  0
   58.2690   30.9950   45.1460 C   0  0  0  0  0  0  0  0  0  0  0  0
   58.0320   31.7230   46.2070 O   0  0  0  0  0  0  0  0  0  0  0  0
   58.9410   31.4050   47.1040 C   0  0  0  0  0  0  0  0  0  0  0  0
   59.0100   32.0120   48.4480 C   0  0  0  0  0  0  0  0  0  0  0  0
   58.5130   31.3170   49.5640 C   0  0  0  0  0  0  0  0  0  0  0  0
   58.5790   31.8880   50.8380 C   0  0  0  0  0  0  0  0  0  0  0  0
   59.1410   33.1560   51.0110 C   0  0  0  0  0  0  0  0  0  0  0  0
   59.2230   33.8710   52.6120 Cl  0  0  0  0  0  0  0  0  0  0  0  0
   59.6380   33.8550   49.9070 C   0  0  0  0  0  0  0  0  0  0  0  0
   59.5740   33.2870   48.6310 C   0  0  0  0  0  0  0  0  0  0  0  0
   59.8000   30.4590   46.6610 N   0  0  0  0  0  0  0  0  0  0  0  0
   59.3670   30.2040   45.4120 C   0  0  0  0  0  0  0  0  0  0  0  0
   59.9950   29.1810   44.5080 C   0  0  0  0  0  0  0  0  0  0  0  0
   59.4070   27.8450   44.7390 N   0  0  0  0  0  0  0  0  0  0  0  0
   57.9580   27.8220   44.4010 C   0  0  0  0  0  0  0  0  0  0  0  0
   57.0580   27.9740   45.6370 C   0  0  0  0  0  0  0  0  0  0  0  0
   57.3080   26.8420   46.6650 C   0  0  0  0  0  0  0  0  0  0  0  0
   56.2940   25.7320   46.5410 C   0  0  0  0  0  0  0  0  0  0  0  0
   55.1730   25.9610   46.0080 O   0  0  0  0  0  0  0  0  0  0  0  0
   56.6300   24.4020   46.9630 N   0  0  0  0  0  0  0  0  0  0  0  0
   55.7480   23.2610   46.7300 C   0  0  0  0  0  0  0  0  0  0  0  0
   55.9190   22.7520   45.3250 C   0  0  0  0  0  0  0  0  0  0  0  0
   55.5020   23.5220   44.2280 C   0  0  0  0  0  0  0  0  0  0  0  0
   55.6960   23.0360   42.9340 C   0  0  0  0  0  0  0  0  0  0  0  0
   56.2890   21.8270   42.7400 N   0  0  0  0  0  0  0  0  0  0  0  0
   56.7060   21.0630   43.7840 C   0  0  0  0  0  0  0  0  0  0  0  0
   56.5310   21.5120   45.0950 C   0  0  0  0  0  0  0  0  0  0  0  0
   58.7340   26.2630   46.5560 C   0  0  0  0  0  0  0  0  0  0  0  0
   59.7200   27.3450   46.1040 C   0  0  0  0  0  0  0  0  0  0  0  0
   56.3915   31.0994   44.1455 H   0  0  0  0  0  0  0  0  0  0  0  0
   57.7463   31.9236   43.3017 H   0  0  0  0  0  0  0  0  0  0  0  0
   57.6465   30.1301   43.3017 H   0  0  0  0  0  0  0  0  0  0  0  0
   58.0699   30.3186   49.4341 H   0  0  0  0  0  0  0  0  0  0  0  0
   58.1877   31.3381   51.7066 H   0  0  0  0  0  0  0  0  0  0  0  0
   60.0800   34.8532   50.0424 H   0  0  0  0  0  0  0  0  0  0  0  0
   59.9670   33.8406   47.7655 H   0  0  0  0  0  0  0  0  0  0  0  0
   59.8265   29.4731   43.4610 H   0  0  0  0  0  0  0  0  0  0  0  0
   61.0726   29.1340   44.7237 H   0  0  0  0  0  0  0  0  0  0  0  0
   57.7454   28.6487   43.7071 H   0  0  0  0  0  0  0  0  0  0  0  0
   57.7381   26.8439   43.9483 H   0  0  0  0  0  0  0  0  0  0  0  0
   57.2671   28.9427   46.1143 H   0  0  0  0  0  0  0  0  0  0  0  0
   56.0095   27.9168   45.3092 H   0  0  0  0  0  0  0  0  0  0  0  0
   57.1978   27.3044   47.6570 H   0  0  0  0  0  0  0  0  0  0  0  0
   57.5480   24.2310   47.4330 H   0  0  0  0  0  0  0  0  0  0  0  0
   55.9964   22.4585   47.4401 H   0  0  0  0  0  0  0  0  0  0  0  0
   54.7045   23.5784   46.8727 H   0  0  0  0  0  0  0  0  0  0  0  0
   55.0260   24.5009   44.3868 H   0  0  0  0  0  0  0  0  0  0  0  0
   55.3687   23.6318   42.0692 H   0  0  0  0  0  0  0  0  0  0  0  0
   57.1821   20.0894   43.5961 H   0  0  0  0  0  0  0  0  0  0  0  0
   56.8711   20.8968   45.9411 H   0  0  0  0  0  0  0  0  0  0  0  0
   59.0444   25.8782   47.5386 H   0  0  0  0  0  0  0  0  0  0  0  0
   58.7323   25.4511   45.8138 H   0  0  0  0  0  0  0  0  0  0  0  0
   59.6728   28.1867   46.8106 H   0  0  0  0  0  0  0  0  0  0  0  0
   60.7264   26.9015   46.0822 H   0  0  0  0  0  0  0  0  0  0  0  0
  1  2  1  0
  2  3  1  0
  3  4  1  0
  4  5  1  0
  5  6  2  0
  6  7  1  0
  7  8  2  0
  8  9  1  0
  8 10  1  0
 10 11  2  0
  4 12  2  0
 12 13  1  0
 13 14  1  0
 14 15  1  0
 15 16  1  0
 16 17  1  0
 17 18  1  0
 18 19  1  0
 19 20  2  0
 19 21  1  0
 21 22  1  0
 22 23  1  0
 23 24  2  0
 24 25  1  0
 25 26  2  0
 26 27  1  0
 27 28  2  0
 18 29  1  0
 29 30  1  0
 13  2  2  0
 30 15  1  0
 11  5  1  0
 28 23  1  0
  1 31  1  0
  1 32  1  0
  1 33  1  0
  6 34  1  0
  7 35  1  0
 10 36  1  0
 11 37  1  0
 14 38  1  0
 14 39  1  0
 16 40  1  0
 16 41  1  0
 17 42  1  0
 17 43  1  0
 18 44  1  0
 21 45  1  0
 22 46  1  0
 22 47  1  0
 24 48  1  0
 25 49  1  0
 27 50  1  0
 28 51  1  0
 29 52  1  0
 29 53  1  0
 30 54  1  0
 30 55  1  0
M  END
>  <UniqueID>  (37) 
35

>  <SMILES>  (37) 
Cc1oc(-c2ccc(Cl)cc2)nc1CN1CCC(C(=O)NCc2ccncc2)CC1

>  <Energy>  (37) 
92.20365712600253

>  <Genealogy>  (37) 
Cc1oc(-c2ccc(Cl)cc2)nc1CN1CCC(C(=O)NCc2ccncc2)CC1 (3D coordinates assigned)
Cc1oc(-c2ccc(Cl)cc2)nc1CN1CCC(C(=O)NCc2ccncc2)CC1 (nonaromatic ring conformer: 92.20365712600253 kcal/mol)

>  <smiles>  (37) 
Cc1oc(-c2ccc(Cl)cc2)nc1CN1CCC(C(=O)NCc2ccncc2)CC1

>  <score_type>  (37) 
oracle

>  <origin>  (37) 
adg

>  <m_score__min__energy>  (37) 
-9.1899999999999995

>  <m_primary>  (37) 
energy

$$$$
38:0
     RDKit          3D

 28 31  0  0  0  0  0  0  0  0999 V2000
   55.5280   29.7150   44.0860 C   0  0  0  0  0  0  0  0  0  0  0  0
   56.6560   30.4640   43.3890 C   0  0  0  0  0  0  0  0  0  0  0  0
   57.5480   31.1150   44.3920 C   0  0  0  0  0  0  0  0  0  0  0  0
   58.6060   30.6960   45.2230 C   0  0  0  0  0  0  0  0  0  0  0  0
   59.5010   29.7610   45.7760 C   0  0  0  0  0  0  0  0  0  0  0  0
   60.4770   30.2900   46.7170 C   0  0  0  0  0  0  0  0  0  0  0  0
   60.5010   31.7080   47.0400 C   0  0  0  0  0  0  0  0  0  0  0  0
   61.4170   32.3480   47.8910 C   0  0  0  0  0  0  0  0  0  0  0  0
   61.3420   33.7560   48.0710 C   0  0  0  0  0  0  0  0  0  0  0  0
   60.3650   34.5420   47.3990 C   0  0  0  0  0  0  0  0  0  0  0  0
   59.4430   33.9190   46.5450 C   0  0  0  0  0  0  0  0  0  0  0  0
   58.4180   34.5870   45.7560 C   0  0  0  0  0  0  0  0  0  0  0  0
   57.5540   33.8240   44.8660 C   0  0  0  0  0  0  0  0  0  0  0  0
   57.7730   32.4350   44.8340 C   0  0  0  0  0  0  0  0  0  0  0  0
   58.7160   31.9490   45.6170 C   0  0  0  0  0  0  0  0  0  0  0  0
   59.5540   32.5340   46.4370 C   0  0  0  0  0  0  0  0  0  0  0  0
   55.6518   29.7972   45.1759 H   0  0  0  0  0  0  0  0  0  0  0  0
   54.5619   30.1516   43.7928 H   0  0  0  0  0  0  0  0  0  0  0  0
   55.5555   28.6552   43.7928 H   0  0  0  0  0  0  0  0  0  0  0  0
   57.2440   29.7551   42.7876 H   0  0  0  0  0  0  0  0  0  0  0  0
   56.2215   31.2403   42.7421 H   0  0  0  0  0  0  0  0  0  0  0  0
   59.4649   28.6936   45.5125 H   0  0  0  0  0  0  0  0  0  0  0  0
   61.2032   29.6113   47.1883 H   0  0  0  0  0  0  0  0  0  0  0  0
   62.1875   31.7633   48.4148 H   0  0  0  0  0  0  0  0  0  0  0  0
   62.0565   34.2497   48.7461 H   0  0  0  0  0  0  0  0  0  0  0  0
   60.3328   35.6314   47.5482 H   0  0  0  0  0  0  0  0  0  0  0  0
   58.2951   35.6774   45.8328 H   0  0  0  0  0  0  0  0  0  0  0  0
   56.7762   34.3054   44.2550 H   0  0  0  0  0  0  0  0  0  0  0  0
  1  2  1  0
  2  3  1  0
  3  4  2  0
  4  5  1  0
  5  6  2  0
  6  7  1  0
  7  8  2  0
  8  9  1  0
  9 10  2  0
 10 11  1  0
 11 12  2  0
 12 13  1  0
 13 14  2  0
 14 15  1  0
 15 16  2  0
 14  3  1  0
 15  4  1  0
 16  7  1  0
 16 11  1  0
  1 17  1  0
  1 18  1  0
  1 19  1  0
  2 20  1  0
  2 21  1  0
  5 22  1  0
  6 23  1  0
  8 24  1  0
  9 25  1  0
 10 26  1  0
 12 27  1  0
 13 28  1  0
M  END
>  <UniqueID>  (38) 
36

>  <SMILES>  (38) 
CCc1c2ccc3cccc4ccc1c2c34

>  <Energy>  (38) 
99.75737088433328

>  <Genealogy>  (38) 
CCc1c2ccc3cccc4ccc1c2c34 (3D coordinates assigned)
CCc1c2ccc3cccc4ccc1c2c34 (optimized conformer: 99.75737088433328 kcal/mol)

>  <smiles>  (38) 
CCc1c2ccc3cccc4ccc1c2c34

>  <score_type>  (38) 
oracle

>  <origin>  (38) 
adg

>  <m_score__min__energy>  (38) 
-6.7800000000000002

>  <m_primary>  (38) 
energy

$$$$
39:0
     RDKit          3D

 27 28  0  0  0  0  0  0  0  0999 V2000
   57.8810   27.6930   44.1620 C   0  0  0  0  0  0  0  0  0  0  0  0
   57.1690   28.0760   45.4490 C   0  0  0  0  0  0  0  0  0  0  0  0
   55.8800   28.5990   45.1430 O   0  0  0  0  0  0  0  0  0  0  0  0
   55.6780   29.5890   44.1780 C   0  0  0  0  0  0  0  0  0  0  0  0
   54.7200   29.5080   43.3620 O   0  0  0  0  0  0  0  0  0  0  0  0
   56.5890   30.7330   44.1150 C   0  0  0  0  0  0  0  0  0  0  0  0
   57.0210   31.4120   45.1980 N   0  0  0  0  0  0  0  0  0  0  0  0
   57.8180   32.3500   44.6380 C   0  0  0  0  0  0  0  0  0  0  0  0
   58.5530   33.3740   45.4220 C   0  0  0  0  0  0  0  0  0  0  0  0
   58.9560   34.5930   44.8440 C   0  0  0  0  0  0  0  0  0  0  0  0
   59.6470   35.5420   45.6020 C   0  0  0  0  0  0  0  0  0  0  0  0
   59.9420   35.2910   46.9430 C   0  0  0  0  0  0  0  0  0  0  0  0
   59.5490   34.0870   47.5310 C   0  0  0  0  0  0  0  0  0  0  0  0
   59.9550   33.7430   49.3650 Br  0  0  0  0  0  0  0  0  0  0  0  0
   58.8580   33.1330   46.7750 C   0  0  0  0  0  0  0  0  0  0  0  0
   57.8530   32.2250   43.2950 N   0  0  0  0  0  0  0  0  0  0  0  0
   57.0850   31.2210   43.0050 O   0  0  0  0  0  0  0  0  0  0  0  0
   58.8262   27.1846   44.4032 H   0  0  0  0  0  0  0  0  0  0  0  0
   57.2406   27.0176   43.5757 H   0  0  0  0  0  0  0  0  0  0  0  0
   58.0915   28.5996   43.5757 H   0  0  0  0  0  0  0  0  0  0  0  0
   57.0614   27.1863   46.0868 H   0  0  0  0  0  0  0  0  0  0  0  0
   57.7572   28.8395   45.9793 H   0  0  0  0  0  0  0  0  0  0  0  0
   58.7253   34.7997   43.7885 H   0  0  0  0  0  0  0  0  0  0  0  0
   59.9596   36.4902   45.1403 H   0  0  0  0  0  0  0  0  0  0  0  0
   60.4841   36.0418   47.5367 H   0  0  0  0  0  0  0  0  0  0  0  0
   58.5504   32.1860   47.2425 H   0  0  0  0  0  0  0  0  0  0  0  0
   58.3730   32.7960   42.5950 H   0  0  0  0  0  0  0  0  0  0  0  0
  1  2  1  0
  2  3  1  0
  3  4  1  0
  4  5  2  0
  4  6  1  0
  6  7  2  0
  7  8  1  0
  8  9  1  0
  9 10  2  0
 10 11  1  0
 11 12  2  0
 12 13  1  0
 13 14  1  0
 13 15  2  0
  8 16  2  0
 16 17  1  0
 17  6  1  0
 15  9  1  0
  1 18  1  0
  1 19  1  0
  1 20  1  0
  2 21  1  0
  2 22  1  0
 10 23  1  0
 11 24  1  0
 12 25  1  0
 15 26  1  0
 16 27  1  0
M  CHG  1  16   1
M  END
>  <UniqueID>  (39) 
37

>  <SMILES>  (39) 
CCOC(=O)c1nc(-c2cccc(Br)c2)[nH+]o1

>  <Energy>  (39) 
56.16531336013515

>  <Genealogy>  (39) 
CCOC(=O)c1nc(-c2cccc(Br)c2)[nH+]o1 (protonated)
CCOC(=O)c1nc(-c2cccc(Br)c2)[nH+]o1 (3D coordinates assigned)
CCOC(=O)c1nc(-c2cccc(Br)c2)[nH+]o1 (optimized conformer: 56.16531336013515 kcal/mol)

>  <smiles>  (39) 
CCOC(=O)c1nc(-c2cccc(Br)c2)no1

>  <score_type>  (39) 
oracle

>  <origin>  (39) 
adg

>  <m_score__min__energy>  (39) 
-5.4400000000000004

>  <m_primary>  (39) 
energy

$$$$
40:0
     RDKit          3D

 33 35  0  0  0  0  0  0  0  0999 V2000
   59.8670   29.5290   45.9470 C   0  0  0  0  0  0  0  0  0  0  0  0
   59.4500   30.9250   46.0100 N   0  0  0  0  0  0  0  0  0  0  0  0
   60.1030   31.8280   46.7260 N   0  0  0  0  0  0  0  0  0  0  0  0
   59.4500   32.9980   46.5910 C   0  0  0  0  0  0  0  0  0  0  0  0
   59.8360   34.1990   47.1940 O   0  0  0  0  0  0  0  0  0  0  0  0
   60.2810   34.2770   48.5450 C   0  0  0  0  0  0  0  0  0  0  0  0
   61.7190   33.8490   48.6460 C   0  0  0  0  0  0  0  0  0  0  0  0
   62.4220   33.9890   49.8530 C   0  0  0  0  0  0  0  0  0  0  0  0
   63.7480   33.5620   49.9280 C   0  0  0  0  0  0  0  0  0  0  0  0
   64.3600   32.9980   48.8090 C   0  0  0  0  0  0  0  0  0  0  0  0
   63.6320   32.8690   47.6240 C   0  0  0  0  0  0  0  0  0  0  0  0
   62.3390   33.2900   47.5650 N   0  0  0  0  0  0  0  0  0  0  0  0
   58.3540   32.8410   45.7710 C   0  0  0  0  0  0  0  0  0  0  0  0
   57.1230   34.2040   45.2400 Br  0  0  0  0  0  0  0  0  0  0  0  0
   58.3860   31.5080   45.4010 C   0  0  0  0  0  0  0  0  0  0  0  0
   57.4020   30.8470   44.5150 C   0  0  0  0  0  0  0  0  0  0  0  0
   57.3690   30.8710   43.1320 C   0  0  0  0  0  0  0  0  0  0  0  0
   56.2630   30.1320   42.7710 C   0  0  0  0  0  0  0  0  0  0  0  0
   55.6860   29.7050   43.9470 C   0  0  0  0  0  0  0  0  0  0  0  0
   56.3850   30.1490   44.9660 O   0  0  0  0  0  0  0  0  0  0  0  0
   59.9847   29.1351   46.9673 H   0  0  0  0  0  0  0  0  0  0  0  0
   59.1049   28.9424   45.4131 H   0  0  0  0  0  0  0  0  0  0  0  0
   60.8260   29.4565   45.4131 H   0  0  0  0  0  0  0  0  0  0  0  0
   60.1852   35.3139   48.8994 H   0  0  0  0  0  0  0  0  0  0  0  0
   59.6643   33.6089   49.1641 H   0  0  0  0  0  0  0  0  0  0  0  0
   61.9314   34.4317   50.7324 H   0  0  0  0  0  0  0  0  0  0  0  0
   64.3096   33.6699   50.8677 H   0  0  0  0  0  0  0  0  0  0  0  0
   65.4050   32.6583   48.8591 H   0  0  0  0  0  0  0  0  0  0  0  0
   64.1052   32.4257   46.7354 H   0  0  0  0  0  0  0  0  0  0  0  0
   61.8150   33.1760   46.6670 H   0  0  0  0  0  0  0  0  0  0  0  0
   58.0786   31.3755   42.4597 H   0  0  0  0  0  0  0  0  0  0  0  0
   55.9116   29.9248   41.7494 H   0  0  0  0  0  0  0  0  0  0  0  0
   54.7790   29.0870   44.0209 H   0  0  0  0  0  0  0  0  0  0  0  0
  1  2  1  0
  2  3  1  0
  3  4  2  0
  4  5  1  0
  5  6  1  0
  6  7  1  0
  7  8  2  0
  8  9  1  0
  9 10  2  0
 10 11  1  0
 11 12  2  0
  4 13  1  0
 13 14  1  0
 13 15  2  0
 15 16  1  0
 16 17  2  0
 17 18  1  0
 18 19  2  0
 19 20  1  0
 15  2  1  0
 20 16  1  0
 12  7  1  0
  1 21  1  0
  1 22  1  0
  1 23  1  0
  6 24  1  0
  6 25  1  0
  8 26  1  0
  9 27  1  0
 10 28  1  0
 11 29  1  0
 12 30  1  0
 17 31  1  0
 18 32  1  0
 19 33  1  0
M  CHG  1  12   1
M  END
>  <UniqueID>  (40) 
38

>  <SMILES>  (40) 
Cn1nc(OCc2cccc[nH+]2)c(Br)c1-c1ccco1

>  <Energy>  (40) 
92.22979168530597

>  <Genealogy>  (40) 
Cn1nc(OCc2cccc[nH+]2)c(Br)c1-c1ccco1 (protonated)
Cn1nc(OCc2cccc[nH+]2)c(Br)c1-c1ccco1 (3D coordinates assigned)
Cn1nc(OCc2cccc[nH+]2)c(Br)c1-c1ccco1 (optimized conformer: 92.22979168530597 kcal/mol)

>  <smiles>  (40) 
Cn1nc(OCc2ccccn2)c(Br)c1-c1ccco1

>  <score_type>  (40) 
oracle

>  <origin>  (40) 
adg

>  <m_score__min__energy>  (40) 
-5.4400000000000004

>  <m_primary>  (40) 
energy

$$$$
41:0
     RDKit          3D

 47 49  0  0  0  0  0  0  0  0999 V2000
   57.3790   33.4330   47.0470 C   0  0  0  0  0  0  0  0  0  0  0  0
   57.5940   33.7750   45.5780 C   0  0  0  0  0  0  0  0  0  0  0  0
   57.4190   32.5610   44.7230 C   0  0  0  0  0  0  0  0  0  0  0  0
   57.0390   31.3580   45.2070 N   0  0  0  0  0  0  0  0  0  0  0  0
   57.0200   30.4060   44.2350 C   0  0  0  0  0  0  0  0  0  0  0  0
   56.6510   28.9820   44.5280 C   0  0  0  0  0  0  0  0  0  0  0  0
   57.4280   28.4680   45.6760 N   0  0  0  0  0  0  0  0  0  0  0  0
   57.1860   27.0220   45.8540 C   0  0  0  0  0  0  0  0  0  0  0  0
   58.8690   28.7250   45.4730 C   0  0  0  0  0  0  0  0  0  0  0  0
   59.3670   29.7320   46.4630 C   0  0  0  0  0  0  0  0  0  0  0  0
   58.5960   30.2820   47.4210 N   0  0  0  0  0  0  0  0  0  0  0  0
   59.3750   31.1190   48.0330 O   0  0  0  0  0  0  0  0  0  0  0  0
   60.5660   31.0910   47.4870 C   0  0  0  0  0  0  0  0  0  0  0  0
   61.7170   31.9560   47.9150 C   0  0  1  0  0  0  0  0  0  0  0  0
   63.0250   31.4890   47.2710 C   0  0  0  0  0  0  0  0  0  0  0  0
   63.7450   32.7590   46.8270 C   0  0  0  0  0  0  0  0  0  0  0  0
   62.6730   33.8360   46.7240 C   0  0  0  0  0  0  0  0  0  0  0  0
   61.5340   33.3330   47.4760 N   0  0  0  0  0  0  0  0  0  0  0  0
   60.4170   34.1540   47.8710 C   0  0  0  0  0  0  0  0  0  0  0  0
   59.8080   34.0240   49.2330 C   0  0  0  0  0  0  0  0  0  0  0  0
   59.9310   34.9870   47.0600 O   0  0  0  0  0  0  0  0  0  0  0  0
   60.6240   30.2200   46.4610 N   0  0  0  0  0  0  0  0  0  0  0  0
   57.4040   30.8430   42.9690 C   0  0  0  0  0  0  0  0  0  0  0  0
   57.7770   32.4790   43.0820 S   0  0  0  0  0  0  0  0  0  0  0  0
   57.8595   34.1973   47.6755 H   0  0  0  0  0  0  0  0  0  0  0  0
   56.3008   33.4054   47.2631 H   0  0  0  0  0  0  0  0  0  0  0  0
   57.8215   32.4494   47.2631 H   0  0  0  0  0  0  0  0  0  0  0  0
   56.8635   34.5392   45.2743 H   0  0  0  0  0  0  0  0  0  0  0  0
   58.6184   34.1545   45.4489 H   0  0  0  0  0  0  0  0  0  0  0  0
   55.5781   28.9281   44.7646 H   0  0  0  0  0  0  0  0  0  0  0  0
   56.8773   28.3682   43.6437 H   0  0  0  0  0  0  0  0  0  0  0  0
   57.1466   26.7863   46.9277 H   0  0  0  0  0  0  0  0  0  0  0  0
   56.2298   26.7496   45.3834 H   0  0  0  0  0  0  0  0  0  0  0  0
   58.0014   26.4531   45.3834 H   0  0  0  0  0  0  0  0  0  0  0  0
   59.4259   27.7851   45.6015 H   0  0  0  0  0  0  0  0  0  0  0  0
   59.0202   29.1198   44.4575 H   0  0  0  0  0  0  0  0  0  0  0  0
   61.7578   31.8860   49.0120 H   0  0  0  0  0  0  0  0  0  0  0  0
   63.6359   30.9373   48.0007 H   0  0  0  0  0  0  0  0  0  0  0  0
   62.8407   30.8107   46.4249 H   0  0  0  0  0  0  0  0  0  0  0  0
   64.5052   33.0463   47.5683 H   0  0  0  0  0  0  0  0  0  0  0  0
   64.2631   32.6136   45.8676 H   0  0  0  0  0  0  0  0  0  0  0  0
   63.0340   34.7790   47.1603 H   0  0  0  0  0  0  0  0  0  0  0  0
   62.4073   34.0447   45.6772 H   0  0  0  0  0  0  0  0  0  0  0  0
   60.5813   34.1891   49.9977 H   0  0  0  0  0  0  0  0  0  0  0  0
   59.0102   34.7721   49.3509 H   0  0  0  0  0  0  0  0  0  0  0  0
   59.3852   33.0154   49.3509 H   0  0  0  0  0  0  0  0  0  0  0  0
   57.4542   30.2279   42.0584 H   0  0  0  0  0  0  0  0  0  0  0  0
  1  2  1  0
  2  3  1  0
  3  4  2  0
  4  5  1  0
  5  6  1  0
  6  7  1  0
  7  8  1  0
  7  9  1  0
  9 10  1  0
 10 11  2  0
 11 12  1  0
 12 13  1  0
 13 14  1  0
 14 15  1  0
 15 16  1  0
 16 17  1  0
 17 18  1  0
 18 19  1  0
 19 20  1  0
 19 21  2  0
 13 22  2  0
  5 23  2  0
 23 24  1  0
 24  3  1  0
 22 10  1  0
 18 14  1  0
  1 25  1  0
  1 26  1  0
  1 27  1  0
  2 28  1  0
  2 29  1  0
  6 30  1  0
  6 31  1  0
  8 32  1  0
  8 33  1  0
  8 34  1  0
  9 35  1  0
  9 36  1  0
 14 37  1  1
 15 38  1  0
 15 39  1  0
 16 40  1  0
 16 41  1  0
 17 42  1  0
 17 43  1  0
 20 44  1  0
 20 45  1  0
 20 46  1  0
 23 47  1  0
M  END
>  <UniqueID>  (41) 
39

>  <SMILES>  (41) 
CCc1nc(CN(C)Cc2noc([C@H]3CCCN3C(C)=O)n2)cs1

>  <Energy>  (41) 
102.89190355257541

>  <Genealogy>  (41) 
CCc1nc(CN(C)Cc2noc([C@H]3CCCN3C(C)=O)n2)cs1 (chirality)
CCc1nc(CN(C)Cc2noc([C@H]3CCCN3C(C)=O)n2)cs1 (3D coordinates assigned)
CCc1nc(CN(C)Cc2noc([C@H]3CCCN3C(C)=O)n2)cs1 (nonaromatic ring conformer: 102.89190355257541 kcal/mol)

>  <smiles>  (41) 
CCc1nc(CN(C)Cc2noc(C3CCCN3C(C)=O)n2)cs1

>  <score_type>  (41) 
oracle

>  <origin>  (41) 
adg

>  <m_score__min__energy>  (41) 
-8.6699999999999999

>  <m_primary>  (41) 
energy

$$$$
42:0
     RDKit          3D

 33 34  0  0  0  0  0  0  0  0999 V2000
   56.3840   22.2090   48.9010 C   0  0  0  0  0  0  0  0  0  0  0  0
   57.3940   22.5690   47.9640 O   0  0  0  0  0  0  0  0  0  0  0  0
   57.1470   23.1990   46.7350 C   0  0  0  0  0  0  0  0  0  0  0  0
   57.2190   24.5950   46.5740 C   0  0  0  0  0  0  0  0  0  0  0  0
   56.9740   25.1830   45.3220 C   0  0  0  0  0  0  0  0  0  0  0  0
   57.0200   26.6080   45.1420 N   0  0  0  0  0  0  0  0  0  0  0  0
   58.0240   27.4570   45.7310 C   0  0  0  0  0  0  0  0  0  0  0  0
   58.9880   26.9440   46.3620 O   0  0  0  0  0  0  0  0  0  0  0  0
   57.9570   28.9330   45.6030 C   0  0  0  0  0  0  0  0  0  0  0  0
   59.0040   29.7280   46.1030 C   0  0  0  0  0  0  0  0  0  0  0  0
   58.9500   31.1170   45.9840 C   0  0  0  0  0  0  0  0  0  0  0  0
   57.8530   31.7080   45.3590 C   0  0  0  0  0  0  0  0  0  0  0  0
   57.7610   33.4510   45.1960 Cl  0  0  0  0  0  0  0  0  0  0  0  0
   56.8540   30.9320   44.8640 N   0  0  0  0  0  0  0  0  0  0  0  0
   56.8790   29.5760   44.9690 C   0  0  0  0  0  0  0  0  0  0  0  0
   56.6150   24.3670   44.2390 C   0  0  0  0  0  0  0  0  0  0  0  0
   56.5400   22.9690   44.3890 C   0  0  0  0  0  0  0  0  0  0  0  0
   56.2000   22.1170   43.3290 O   0  0  0  0  0  0  0  0  0  0  0  0
   57.0180   21.0500   42.8590 C   0  0  0  0  0  0  0  0  0  0  0  0
   56.8140   22.4000   45.6370 C   0  0  0  0  0  0  0  0  0  0  0  0
   56.7667   22.3454   49.9232 H   0  0  0  0  0  0  0  0  0  0  0  0
   55.5010   22.8477   48.7518 H   0  0  0  0  0  0  0  0  0  0  0  0
   56.1041   21.1557   48.7518 H   0  0  0  0  0  0  0  0  0  0  0  0
   57.4692   25.2312   47.4358 H   0  0  0  0  0  0  0  0  0  0  0  0
   56.3060   27.0260   44.5060 H   0  0  0  0  0  0  0  0  0  0  0  0
   59.8686   29.2529   46.5896 H   0  0  0  0  0  0  0  0  0  0  0  0
   59.7656   31.7401   46.3797 H   0  0  0  0  0  0  0  0  0  0  0  0
   56.0521   28.9796   44.5560 H   0  0  0  0  0  0  0  0  0  0  0  0
   56.3900   24.8234   43.2637 H   0  0  0  0  0  0  0  0  0  0  0  0
   57.4368   20.5037   43.7170 H   0  0  0  0  0  0  0  0  0  0  0  0
   56.4117   20.3647   42.2485 H   0  0  0  0  0  0  0  0  0  0  0  0
   57.8373   21.4576   42.2485 H   0  0  0  0  0  0  0  0  0  0  0  0
   56.7668   21.3075   45.7564 H   0  0  0  0  0  0  0  0  0  0  0  0
  1  2  1  0
  2  3  1  0
  3  4  2  0
  4  5  1  0
  5  6  1  0
  6  7  1  0
  7  8  2  0
  7  9  1  0
  9 10  2  0
 10 11  1  0
 11 12  2  0
 12 13  1  0
 12 14  1  0
 14 15  2  0
  5 16  2  0
 16 17  1  0
 17 18  1  0
 18 19  1  0
 17 20  2  0
 20  3  1  0
 15  9  1  0
  1 21  1  0
  1 22  1  0
  1 23  1  0
  4 24  1  0
  6 25  1  0
 10 26  1  0
 11 27  1  0
 15 28  1  0
 16 29  1  0
 19 30  1  0
 19 31  1  0
 19 32  1  0
 20 33  1  0
M  END
>  <UniqueID>  (42) 
40

>  <SMILES>  (42) 
COc1cc(NC(=O)c2ccc(Cl)nc2)cc(OC)c1

>  <Energy>  (42) 
39.72849710706007

>  <Genealogy>  (42) 
COc1cc(NC(=O)c2ccc(Cl)nc2)cc(OC)c1 (3D coordinates assigned)
COc1cc(NC(=O)c2ccc(Cl)nc2)cc(OC)c1 (optimized conformer: 39.72849710706007 kcal/mol)

>  <smiles>  (42) 
COc1cc(NC(=O)c2ccc(Cl)nc2)cc(OC)c1

>  <score_type>  (42) 
oracle

>  <origin>  (42) 
adg

>  <m_score__min__energy>  (42) 
-6.8300000000000001

>  <m_primary>  (42) 
energy

$$$$
43:0
     RDKit          3D

 47 49  0  0  0  0  0  0  0  0999 V2000
   59.9270   29.8350   49.0840 C   0  0  0  0  0  0  0  0  0  0  0  0
   59.9270   31.0440   48.3320 O   0  0  0  0  0  0  0  0  0  0  0  0
   61.0820   31.7490   47.9530 C   0  0  0  0  0  0  0  0  0  0  0  0
   62.2420   31.0830   47.5070 C   0  0  0  0  0  0  0  0  0  0  0  0
   63.3720   31.8100   47.1250 C   0  0  0  0  0  0  0  0  0  0  0  0
   63.3600   33.2030   47.1820 C   0  0  0  0  0  0  0  0  0  0  0  0
   62.2200   33.8760   47.6230 C   0  0  0  0  0  0  0  0  0  0  0  0
   61.0770   33.1590   48.0180 C   0  0  0  0  0  0  0  0  0  0  0  0
   59.8500   33.9210   48.4680 C   0  0  0  0  0  0  0  0  0  0  0  0
   58.8220   34.0970   47.3280 C   0  0  1  0  0  0  0  0  0  0  0  0
   59.4870   34.5600   46.0210 C   0  0  0  0  0  0  0  0  0  0  0  0
   58.4580   34.7550   44.8950 C   0  0  0  0  0  0  0  0  0  0  0  0
   57.1320   34.0150   45.1570 C   0  0  0  0  0  0  0  0  0  0  0  0
   57.3360   32.6880   45.7810 N   0  0  1  0  0  0  0  0  0  0  0  0
   57.9950   31.7490   44.8350 C   0  0  0  0  0  0  0  0  0  0  0  0
   57.7300   30.3040   45.1950 C   0  0  0  0  0  0  0  0  0  0  0  0
   58.7090   29.5300   45.8380 C   0  0  0  0  0  0  0  0  0  0  0  0
   58.4430   28.2010   46.1680 C   0  0  0  0  0  0  0  0  0  0  0  0
   57.2000   27.6520   45.8490 C   0  0  0  0  0  0  0  0  0  0  0  0
   56.2610   28.4110   45.2220 N   0  0  0  0  0  0  0  0  0  0  0  0
   56.4960   29.7080   44.8910 C   0  0  0  0  0  0  0  0  0  0  0  0
   58.0460   32.7720   47.0940 C   0  0  0  0  0  0  0  0  0  0  0  0
   60.9641   29.5237   49.2777 H   0  0  0  0  0  0  0  0  0  0  0  0
   59.4085   29.9980   50.0403 H   0  0  0  0  0  0  0  0  0  0  0  0
   59.4085   29.0493   48.5150 H   0  0  0  0  0  0  0  0  0  0  0  0
   62.2572   29.9841   47.4596 H   0  0  0  0  0  0  0  0  0  0  0  0
   64.2729   31.2825   46.7786 H   0  0  0  0  0  0  0  0  0  0  0  0
   64.2509   33.7725   46.8788 H   0  0  0  0  0  0  0  0  0  0  0  0
   62.2156   34.9753   47.6619 H   0  0  0  0  0  0  0  0  0  0  0  0
   59.3737   33.3705   49.2927 H   0  0  0  0  0  0  0  0  0  0  0  0
   60.1730   34.9223   48.7891 H   0  0  0  0  0  0  0  0  0  0  0  0
   58.1167   34.8822   47.6378 H   0  0  0  0  0  0  0  0  0  0  0  0
   60.0018   35.5150   46.2023 H   0  0  0  0  0  0  0  0  0  0  0  0
   60.1973   33.7820   45.7043 H   0  0  0  0  0  0  0  0  0  0  0  0
   58.2461   35.8298   44.7960 H   0  0  0  0  0  0  0  0  0  0  0  0
   58.8927   34.3360   43.9755 H   0  0  0  0  0  0  0  0  0  0  0  0
   56.5124   34.6285   45.8276 H   0  0  0  0  0  0  0  0  0  0  0  0
   56.6413   33.8552   44.1856 H   0  0  0  0  0  0  0  0  0  0  0  0
   56.3730   32.3180   45.9700 H   0  0  0  0  0  0  0  0  0  0  0  0
   57.6118   31.9386   43.8215 H   0  0  0  0  0  0  0  0  0  0  0  0
   59.0805   31.9190   44.8879 H   0  0  0  0  0  0  0  0  0  0  0  0
   59.6864   29.9718   46.0817 H   0  0  0  0  0  0  0  0  0  0  0  0
   59.2056   27.5914   46.6748 H   0  0  0  0  0  0  0  0  0  0  0  0
   56.9795   26.6051   46.1047 H   0  0  0  0  0  0  0  0  0  0  0  0
   55.7157   30.2934   44.3826 H   0  0  0  0  0  0  0  0  0  0  0  0
   57.2993   32.6661   47.8948 H   0  0  0  0  0  0  0  0  0  0  0  0
   58.7967   31.9680   47.0935 H   0  0  0  0  0  0  0  0  0  0  0  0
  1  2  1  0
  2  3  1  0
  3  4  2  0
  4  5  1  0
  5  6  2  0
  6  7  1  0
  7  8  2  0
  8  9  1  0
  9 10  1  0
 10 11  1  0
 11 12  1  0
 12 13  1  0
 13 14  1  0
 14 15  1  0
 15 16  1  0
 16 17  2  0
 17 18  1  0
 18 19  2  0
 19 20  1  0
 20 21  2  0
 14 22  1  0
  8  3  1  0
 22 10  1  0
 21 16  1  0
  1 23  1  0
  1 24  1  0
  1 25  1  0
  4 26  1  0
  5 27  1  0
  6 28  1  0
  7 29  1  0
  9 30  1  0
  9 31  1  0
 10 32  1  1
 11 33  1  0
 11 34  1  0
 12 35  1  0
 12 36  1  0
 13 37  1  0
 13 38  1  0
 14 39  1  1
 15 40  1  0
 15 41  1  0
 17 42  1  0
 18 43  1  0
 19 44  1  0
 21 45  1  0
 22 46  1  0
 22 47  1  0
M  CHG  1  14   1
M  END
>  <UniqueID>  (43) 
41

>  <SMILES>  (43) 
COc1ccccc1C[C@H]1CCC[N@@H+](Cc2cccnc2)C1

>  <Energy>  (43) 
57.08100108634851

>  <Genealogy>  (43) 
COc1ccccc1CC1CCC[NH+](Cc2cccnc2)C1 (protonated)
COc1ccccc1C[C@H]1CCC[N@@H+](Cc2cccnc2)C1 (chirality)
COc1ccccc1C[C@H]1CCC[N@@H+](Cc2cccnc2)C1 (3D coordinates assigned)
COc1ccccc1C[C@H]1CCC[N@@H+](Cc2cccnc2)C1 (nonaromatic ring conformer: 57.08100108634851 kcal/mol)

>  <smiles>  (43) 
COc1ccccc1CC1CCCN(Cc2cccnc2)C1

>  <score_type>  (43) 
oracle

>  <origin>  (43) 
adg

>  <m_score__min__energy>  (43) 
-5.8600000000000003

>  <m_primary>  (43) 
energy

$$$$
44:0
     RDKit          3D

 44 46  0  0  0  0  0  0  0  0999 V2000
   58.2390   22.9330   44.5390 C   0  0  0  0  0  0  0  0  0  0  0  0
   56.6910   23.7600   44.0590 S   0  0  0  0  0  0  0  0  0  0  0  0
   57.2860   25.3930   44.5030 C   0  0  0  0  0  0  0  0  0  0  0  0
   57.7680   26.2570   43.5140 C   0  0  0  0  0  0  0  0  0  0  0  0
   58.2340   27.5280   43.8600 C   0  0  0  0  0  0  0  0  0  0  0  0
   58.2190   27.9510   45.2000 C   0  0  0  0  0  0  0  0  0  0  0  0
   58.7190   29.3010   45.5530 C   0  0  0  0  0  0  0  0  0  0  0  0
   60.0000   29.4370   46.0800 C   0  0  0  0  0  0  0  0  0  0  0  0
   60.4480   30.6850   46.4990 C   0  0  0  0  0  0  0  0  0  0  0  0
   61.6900   30.8240   47.1220 C   0  0  0  0  0  0  0  0  0  0  0  0
   62.0950   32.0360   47.5940 N   0  0  0  0  0  0  0  0  0  0  0  0
   63.3960   32.1520   48.2660 C   0  0  0  0  0  0  0  0  0  0  0  0
   61.2530   33.1100   47.5200 C   0  0  0  0  0  0  0  0  0  0  0  0
   61.5860   34.2170   48.0290 O   0  0  0  0  0  0  0  0  0  0  0  0
   60.0410   32.9970   46.9080 N   0  0  0  0  0  0  0  0  0  0  0  0
   59.6290   31.8210   46.3340 C   0  0  0  0  0  0  0  0  0  0  0  0
   58.4300   31.7120   45.6440 N   0  0  0  0  0  0  0  0  0  0  0  0
   57.6770   32.9310   45.2200 C   0  0  0  0  0  0  0  0  0  0  0  0
   57.0160   33.6790   46.3950 C   0  0  0  0  0  0  0  0  0  0  0  0
   58.5710   33.8600   44.3920 C   0  0  0  0  0  0  0  0  0  0  0  0
   57.9360   30.4540   45.3490 C   0  0  0  0  0  0  0  0  0  0  0  0
   56.7730   30.3160   44.8790 O   0  0  0  0  0  0  0  0  0  0  0  0
   57.7470   27.0720   46.1930 C   0  0  0  0  0  0  0  0  0  0  0  0
   57.7640   27.4320   47.5020 F   0  0  0  0  0  0  0  0  0  0  0  0
   57.2830   25.8000   45.8420 C   0  0  0  0  0  0  0  0  0  0  0  0
   58.3096   22.8953   45.6361 H   0  0  0  0  0  0  0  0  0  0  0  0
   58.2484   21.9097   44.1356 H   0  0  0  0  0  0  0  0  0  0  0  0
   59.0948   23.4941   44.1356 H   0  0  0  0  0  0  0  0  0  0  0  0
   57.7802   25.9352   42.4622 H   0  0  0  0  0  0  0  0  0  0  0  0
   58.6150   28.2018   43.0785 H   0  0  0  0  0  0  0  0  0  0  0  0
   60.6569   28.5588   46.1649 H   0  0  0  0  0  0  0  0  0  0  0  0
   62.3463   29.9482   47.2325 H   0  0  0  0  0  0  0  0  0  0  0  0
   63.2482   32.1388   49.3559 H   0  0  0  0  0  0  0  0  0  0  0  0
   64.0368   31.3074   47.9726 H   0  0  0  0  0  0  0  0  0  0  0  0
   63.8773   33.0966   47.9726 H   0  0  0  0  0  0  0  0  0  0  0  0
   59.4200   33.8310   46.9590 H   0  0  0  0  0  0  0  0  0  0  0  0
   56.8488   32.5844   44.5844 H   0  0  0  0  0  0  0  0  0  0  0  0
   57.3822   33.2646   47.3459 H   0  0  0  0  0  0  0  0  0  0  0  0
   57.2701   34.7478   46.3387 H   0  0  0  0  0  0  0  0  0  0  0  0
   55.9241   33.5583   46.3387 H   0  0  0  0  0  0  0  0  0  0  0  0
   59.1735   34.4861   45.0665 H   0  0  0  0  0  0  0  0  0  0  0  0
   59.2378   33.2576   43.7575 H   0  0  0  0  0  0  0  0  0  0  0  0
   57.9435   34.5032   43.7575 H   0  0  0  0  0  0  0  0  0  0  0  0
   56.9143   25.1169   46.6214 H   0  0  0  0  0  0  0  0  0  0  0  0
  1  2  1  0
  2  3  1  0
  3  4  2  0
  4  5  1  0
  5  6  2  0
  6  7  1  0
  7  8  2  0
  8  9  1  0
  9 10  2  0
 10 11  1  0
 11 12  1  0
 11 13  1  0
 13 14  2  0
 13 15  1  0
 15 16  2  0
 16 17  1  0
 17 18  1  0
 18 19  1  0
 18 20  1  0
 17 21  1  0
 21 22  2  0
  6 23  1  0
 23 24  1  0
 23 25  2  0
 25  3  1  0
 21  7  1  0
 16  9  1  0
  1 26  1  0
  1 27  1  0
  1 28  1  0
  4 29  1  0
  5 30  1  0
  8 31  1  0
 10 32  1  0
 12 33  1  0
 12 34  1  0
 12 35  1  0
 15 36  1  0
 18 37  1  0
 19 38  1  0
 19 39  1  0
 19 40  1  0
 20 41  1  0
 20 42  1  0
 20 43  1  0
 25 44  1  0
M  CHG  1  15   1
M  END
>  <UniqueID>  (44) 
42

>  <SMILES>  (44) 
CSc1ccc(-c2cc3cn(C)c(=O)[nH+]c3n(C(C)C)c2=O)c(F)c1

>  <Energy>  (44) 
65.00316103877881

>  <Genealogy>  (44) 
CSc1ccc(-c2cc3cn(C)c(=O)[nH+]c3n(C(C)C)c2=O)c(F)c1 (protonated)
CSc1ccc(-c2cc3cn(C)c(=O)[nH+]c3n(C(C)C)c2=O)c(F)c1 (3D coordinates assigned)
CSc1ccc(-c2cc3cn(C)c(=O)[nH+]c3n(C(C)C)c2=O)c(F)c1 (optimized conformer: 65.00316103877881 kcal/mol)

>  <smiles>  (44) 
CSc1ccc(-c2cc3cn(C)c(=O)nc3n(C(C)C)c2=O)c(F)c1

>  <score_type>  (44) 
oracle

>  <origin>  (44) 
adg

>  <m_score__min__energy>  (44) 
-6.2599999999999998

>  <m_primary>  (44) 
energy

$$$$
45:0
     RDKit          3D

 40 42  0  0  0  0  0  0  0  0999 V2000
   57.5140   33.3010   45.2650 C   0  0  0  0  0  0  0  0  0  0  0  0
   57.0040   31.9850   45.4510 O   0  0  0  0  0  0  0  0  0  0  0  0
   57.7990   30.8310   45.5500 C   0  0  0  0  0  0  0  0  0  0  0  0
   59.1590   30.8900   45.9120 C   0  0  0  0  0  0  0  0  0  0  0  0
   59.9180   29.7200   45.9810 C   0  0  0  0  0  0  0  0  0  0  0  0
   59.3290   28.4840   45.7180 C   0  0  0  0  0  0  0  0  0  0  0  0
   57.9710   28.4010   45.3880 C   0  0  0  0  0  0  0  0  0  0  0  0
   57.3820   27.1060   45.1900 N   0  0  0  0  0  0  0  0  0  0  0  0
   57.7610   26.2380   44.1070 C   0  0  0  0  0  0  0  0  0  0  0  0
   58.4020   26.7070   43.1280 O   0  0  0  0  0  0  0  0  0  0  0  0
   57.3820   24.8030   44.1150 C   0  0  0  0  0  0  0  0  0  0  0  0
   56.7010   24.2460   43.0140 C   0  0  0  0  0  0  0  0  0  0  0  0
   56.3420   22.8950   43.0100 C   0  0  0  0  0  0  0  0  0  0  0  0
   56.6640   22.0860   44.1010 C   0  0  0  0  0  0  0  0  0  0  0  0
   57.3750   22.6190   45.1840 C   0  0  0  0  0  0  0  0  0  0  0  0
   57.7210   23.9720   45.2000 C   0  0  0  0  0  0  0  0  0  0  0  0
   57.7310   21.7770   46.2420 O   0  0  0  0  0  0  0  0  0  0  0  0
   57.6310   20.3550   46.1210 C   0  0  0  0  0  0  0  0  0  0  0  0
   56.3690   19.9770   45.3360 C   0  0  0  0  0  0  0  0  0  0  0  0
   56.2880   20.7390   44.1300 O   0  0  0  0  0  0  0  0  0  0  0  0
   57.2130   29.5890   45.2630 C   0  0  0  0  0  0  0  0  0  0  0  0
   55.8780   29.5600   44.8450 O   0  0  0  0  0  0  0  0  0  0  0  0
   55.5090   29.7180   43.4800 C   0  0  0  0  0  0  0  0  0  0  0  0
   57.6943   33.7663   46.2453 H   0  0  0  0  0  0  0  0  0  0  0  0
   58.4583   33.2522   44.7030 H   0  0  0  0  0  0  0  0  0  0  0  0
   56.7834   33.9013   44.7030 H   0  0  0  0  0  0  0  0  0  0  0  0
   59.6243   31.8601   46.1409 H   0  0  0  0  0  0  0  0  0  0  0  0
   60.9848   29.7737   46.2439 H   0  0  0  0  0  0  0  0  0  0  0  0
   59.9355   27.5678   45.7701 H   0  0  0  0  0  0  0  0  0  0  0  0
   56.5200   26.8740   45.7320 H   0  0  0  0  0  0  0  0  0  0  0  0
   56.4499   24.8796   42.1506 H   0  0  0  0  0  0  0  0  0  0  0  0
   55.8065   22.4700   42.1483 H   0  0  0  0  0  0  0  0  0  0  0  0
   58.2601   24.3898   46.0630 H   0  0  0  0  0  0  0  0  0  0  0  0
   58.5162   19.9724   45.5918 H   0  0  0  0  0  0  0  0  0  0  0  0
   57.5738   19.9127   47.1265 H   0  0  0  0  0  0  0  0  0  0  0  0
   56.4038   18.9061   45.0869 H   0  0  0  0  0  0  0  0  0  0  0  0
   55.4852   20.1916   45.9547 H   0  0  0  0  0  0  0  0  0  0  0  0
   54.4993   30.1504   43.4208 H   0  0  0  0  0  0  0  0  0  0  0  0
   56.2248   30.3885   42.9819 H   0  0  0  0  0  0  0  0  0  0  0  0
   55.5177   28.7373   42.9819 H   0  0  0  0  0  0  0  0  0  0  0  0
  1  2  1  0
  2  3  1  0
  3  4  2  0
  4  5  1  0
  5  6  2  0
  6  7  1  0
  7  8  1  0
  8  9  1  0
  9 10  2  0
  9 11  1  0
 11 12  2  0
 12 13  1  0
 13 14  2  0
 14 15  1  0
 15 16  2  0
 15 17  1  0
 17 18  1  0
 18 19  1  0
 19 20  1  0
  7 21  2  0
 21 22  1  0
 22 23  1  0
 21  3  1  0
 16 11  1  0
 20 14  1  0
  1 24  1  0
  1 25  1  0
  1 26  1  0
  4 27  1  0
  5 28  1  0
  6 29  1  0
  8 30  1  0
 12 31  1  0
 13 32  1  0
 16 33  1  0
 18 34  1  0
 18 35  1  0
 19 36  1  0
 19 37  1  0
 23 38  1  0
 23 39  1  0
 23 40  1  0
M  END
>  <UniqueID>  (45) 
43

>  <SMILES>  (45) 
COc1cccc(NC(=O)c2ccc3c(c2)OCCO3)c1OC

>  <Energy>  (45) 
54.04262817656702

>  <Genealogy>  (45) 
COc1cccc(NC(=O)c2ccc3c(c2)OCCO3)c1OC (3D coordinates assigned)
COc1cccc(NC(=O)c2ccc3c(c2)OCCO3)c1OC (nonaromatic ring conformer: 54.04262817656702 kcal/mol)

>  <smiles>  (45) 
COc1cccc(NC(=O)c2ccc3c(c2)OCCO3)c1OC

>  <score_type>  (45) 
oracle

>  <origin>  (45) 
adg

>  <m_score__min__energy>  (45) 
-6.8399999999999999

>  <m_primary>  (45) 
energy

$$$$
46:0
     RDKit          3D

 45 48  0  0  0  0  0  0  0  0999 V2000
   59.6267   26.2926   49.1494 H   0  0  0  0  0  0  0  0  0  0  0  0
   59.5160   26.6960   48.1320 C   0  0  0  0  0  0  0  0  0  0  0  0
   60.4900   27.5510   47.6100 C   0  0  0  0  0  0  0  0  0  0  0  0
   61.3667   27.8205   48.2173 H   0  0  0  0  0  0  0  0  0  0  0  0
   60.3520   28.0650   46.3160 C   0  0  0  0  0  0  0  0  0  0  0  0
   61.1226   28.7348   45.9068 H   0  0  0  0  0  0  0  0  0  0  0  0
   59.2320   27.7280   45.5380 C   0  0  0  0  0  0  0  0  0  0  0  0
   59.0880   28.2520   44.1330 C   0  0  0  0  0  0  0  0  0  0  0  0
   59.9013   27.8513   43.5101 H   0  0  0  0  0  0  0  0  0  0  0  0
   59.1375   29.3507   44.1515 H   0  0  0  0  0  0  0  0  0  0  0  0
   57.7860   27.8350   43.5660 N   0  0  0  0  0  0  0  0  0  0  0  0
   57.9860   26.8780   42.4640 C   0  0  0  0  0  0  0  0  0  0  0  0
   58.1945   25.8804   42.8780 H   0  0  0  0  0  0  0  0  0  0  0  0
   57.0773   26.8358   41.8456 H   0  0  0  0  0  0  0  0  0  0  0  0
   58.8356   27.2032   41.8456 H   0  0  0  0  0  0  0  0  0  0  0  0
   57.0110   28.9970   43.0840 C   0  0  0  0  0  0  0  0  0  0  0  0
   57.6961   29.7081   42.5993 H   0  0  0  0  0  0  0  0  0  0  0  0
   56.2541   28.6373   42.3714 H   0  0  0  0  0  0  0  0  0  0  0  0
   56.3020   29.6940   44.2190 C   0  0  0  0  0  0  0  0  0  0  0  0
   55.4670   29.0410   44.8970 O   0  0  0  0  0  0  0  0  0  0  0  0
   56.4820   31.0890   44.5140 N   0  0  0  0  0  0  0  0  0  0  0  0
   57.4620   31.6560   45.1570 C   0  0  0  0  0  0  0  0  0  0  0  0
   58.9010   30.9130   45.6630 S   0  0  0  0  0  0  0  0  0  0  0  0
   59.4790   32.3250   46.3780 C   0  0  0  0  0  0  0  0  0  0  0  0
   60.6890   32.5540   47.0450 C   0  0  0  0  0  0  0  0  0  0  0  0
   61.6560   31.5480   47.2120 C   0  0  0  0  0  0  0  0  0  0  0  0
   61.4750   30.5388   46.8135 H   0  0  0  0  0  0  0  0  0  0  0  0
   62.8480   31.8310   47.8850 C   0  0  0  0  0  0  0  0  0  0  0  0
   63.6031   31.0420   48.0163 H   0  0  0  0  0  0  0  0  0  0  0  0
   63.0850   33.1120   48.3920 C   0  0  0  0  0  0  0  0  0  0  0  0
   64.0258   33.3260   48.9203 H   0  0  0  0  0  0  0  0  0  0  0  0
   62.1320   34.1230   48.2310 C   0  0  0  0  0  0  0  0  0  0  0  0
   62.3256   35.1290   48.6317 H   0  0  0  0  0  0  0  0  0  0  0  0
   60.9290   33.8560   47.5590 C   0  0  0  0  0  0  0  0  0  0  0  0
   59.9610   34.8720   47.3910 C   0  0  0  0  0  0  0  0  0  0  0  0
   60.1518   35.8782   47.7924 H   0  0  0  0  0  0  0  0  0  0  0  0
   58.7590   34.6090   46.7170 C   0  0  0  0  0  0  0  0  0  0  0  0
   58.0072   35.4014   46.5868 H   0  0  0  0  0  0  0  0  0  0  0  0
   58.5310   33.3270   46.2140 C   0  0  0  0  0  0  0  0  0  0  0  0
   57.4100   32.9520   45.5450 N   0  0  0  0  0  0  0  0  0  0  0  0
   56.6060   33.5900   45.3430 H   0  0  0  0  0  0  0  0  0  0  0  0
   58.2590   26.8660   46.0690 C   0  0  0  0  0  0  0  0  0  0  0  0
   57.3811   26.5931   45.4650 H   0  0  0  0  0  0  0  0  0  0  0  0
   58.4010   26.3530   47.3620 C   0  0  0  0  0  0  0  0  0  0  0  0
   57.6350   25.6792   47.7734 H   0  0  0  0  0  0  0  0  0  0  0  0
  1  2  1  0
  2  3  2  0
  3  4  1  0
  3  5  1  0
  5  6  1  0
  5  7  2  0
  7  8  1  0
  8  9  1  0
  8 10  1  0
  8 11  1  0
 11 12  1  0
 12 13  1  0
 12 14  1  0
 12 15  1  0
 11 16  1  0
 16 17  1  0
 16 18  1  0
 16 19  1  0
 19 20  2  0
 19 21  1  0
 21 22  2  0
 22 23  1  0
 23 24  1  0
 24 25  2  0
 25 26  1  0
 26 27  1  0
 26 28  2  0
 28 29  1  0
 28 30  1  0
 30 31  1  0
 30 32  2  0
 32 33  1  0
 32 34  1  0
 34 35  2  0
 35 36  1  0
 35 37  1  0
 37 38  1  0
 37 39  2  0
 39 40  1  0
 40 41  1  0
  7 42  1  0
 42 43  1  0
 42 44  2  0
 44 45  1  0
 44  2  1  0
 40 22  1  0
 39 24  1  0
 34 25  1  0
M  END
>  <UniqueID>  (46) 
44

>  <SMILES>  (46) 
CN(CC(=O)/N=c1/[nH]c2ccc3ccccc3c2s1)Cc1ccccc1

>  <Energy>  (46) 
92.36424587797877

>  <Genealogy>  (46) 
CN(CC(=O)/N=c1/[nH]c2ccc3ccccc3c2s1)Cc1ccccc1 (cis-trans isomerization)
CN(CC(=O)/N=c1/[nH]c2ccc3ccccc3c2s1)Cc1ccccc1 (3D coordinates assigned)
CN(CC(=O)/N=c1/[nH]c2ccc3ccccc3c2s1)Cc1ccccc1 (optimized conformer: 92.36424587797877 kcal/mol)

>  <smiles>  (46) 
CN(CC(=O)N=c1[nH]c2ccc3ccccc3c2s1)Cc1ccccc1

>  <score_type>  (46) 
oracle

>  <origin>  (46) 
adg

>  <m_score__min__energy>  (46) 
-8.9199999999999999

>  <m_primary>  (46) 
energy

$$$$
47:0
     RDKit          3D

 58 60  0  0  0  0  0  0  0  0999 V2000
   57.9140   23.7570   44.8260 C   0  0  0  0  0  0  0  0  0  0  0  0
   58.3600   24.8240   45.8210 C   0  0  0  0  0  0  0  0  0  0  0  0
   57.9040   26.2170   45.3810 C   0  0  0  0  0  0  0  0  0  0  0  0
   56.5060   26.4780   45.8480 C   0  0  0  0  0  0  0  0  0  0  0  0
   55.8690   25.5690   46.4440 O   0  0  0  0  0  0  0  0  0  0  0  0
   55.9130   27.7620   45.6150 N   0  0  0  0  0  0  0  0  0  0  0  0
   56.5470   28.8910   44.9970 C   0  0  0  0  0  0  0  0  0  0  0  0
   55.7960   29.6900   44.1270 C   0  0  0  0  0  0  0  0  0  0  0  0
   56.3670   30.8170   43.5280 C   0  0  0  0  0  0  0  0  0  0  0  0
   57.6980   31.1670   43.8040 C   0  0  0  0  0  0  0  0  0  0  0  0
   58.2940   32.4110   43.2000 C   0  0  0  0  0  0  0  0  0  0  0  0
   58.1780   33.6370   44.1280 C   0  0  0  0  0  0  0  0  0  0  0  0
   58.5690   33.3430   45.5380 N   0  0  0  0  0  0  0  0  0  0  0  0
   57.4030   33.3920   46.4410 C   0  0  0  0  0  0  0  0  0  0  0  0
   57.7820   32.8670   47.8410 C   0  0  0  0  0  0  0  0  0  0  0  0
   59.1580   33.2400   48.2590 N   0  0  0  0  0  0  0  0  0  0  0  0
   60.1090   32.1050   48.2380 C   0  0  0  0  0  0  0  0  0  0  0  0
   61.5270   32.6070   48.3170 C   0  0  0  0  0  0  0  0  0  0  0  0
   62.3570   32.5510   47.1840 C   0  0  0  0  0  0  0  0  0  0  0  0
   63.6810   32.9980   47.2570 C   0  0  0  0  0  0  0  0  0  0  0  0
   64.1840   33.5010   48.4600 C   0  0  0  0  0  0  0  0  0  0  0  0
   63.3660   33.5580   49.5910 C   0  0  0  0  0  0  0  0  0  0  0  0
   62.0430   33.1120   49.5240 C   0  0  0  0  0  0  0  0  0  0  0  0
   59.6670   34.4310   47.5490 C   0  0  0  0  0  0  0  0  0  0  0  0
   59.6170   34.2860   46.0070 C   0  0  0  0  0  0  0  0  0  0  0  0
   58.4450   30.3810   44.6940 C   0  0  0  0  0  0  0  0  0  0  0  0
   57.8730   29.2540   45.2920 C   0  0  0  0  0  0  0  0  0  0  0  0
   57.5460   22.8765   45.3730 H   0  0  0  0  0  0  0  0  0  0  0  0
   57.1086   24.1590   44.1938 H   0  0  0  0  0  0  0  0  0  0  0  0
   58.7659   23.4662   44.1938 H   0  0  0  0  0  0  0  0  0  0  0  0
   57.9261   24.5992   46.8065 H   0  0  0  0  0  0  0  0  0  0  0  0
   59.4589   24.8168   45.8699 H   0  0  0  0  0  0  0  0  0  0  0  0
   58.5775   26.9723   45.8122 H   0  0  0  0  0  0  0  0  0  0  0  0
   57.9302   26.2716   44.2827 H   0  0  0  0  0  0  0  0  0  0  0  0
   54.7490   29.4294   43.9130 H   0  0  0  0  0  0  0  0  0  0  0  0
   55.7708   31.4318   42.8377 H   0  0  0  0  0  0  0  0  0  0  0  0
   59.3583   32.2263   42.9922 H   0  0  0  0  0  0  0  0  0  0  0  0
   57.7333   32.6357   42.2807 H   0  0  0  0  0  0  0  0  0  0  0  0
   58.8329   34.4318   43.7415 H   0  0  0  0  0  0  0  0  0  0  0  0
   57.1213   33.9424   44.1375 H   0  0  0  0  0  0  0  0  0  0  0  0
   58.9720   32.3770   45.5760 H   0  0  0  0  0  0  0  0  0  0  0  0
   57.0546   34.4319   46.5264 H   0  0  0  0  0  0  0  0  0  0  0  0
   56.6053   32.7578   46.0270 H   0  0  0  0  0  0  0  0  0  0  0  0
   57.0716   33.2800   48.5722 H   0  0  0  0  0  0  0  0  0  0  0  0
   57.7427   31.7686   47.7973 H   0  0  0  0  0  0  0  0  0  0  0  0
   59.9086   31.4482   49.0973 H   0  0  0  0  0  0  0  0  0  0  0  0
   59.9793   31.5480   47.2984 H   0  0  0  0  0  0  0  0  0  0  0  0
   61.9642   32.1542   46.2362 H   0  0  0  0  0  0  0  0  0  0  0  0
   64.3262   32.9535   46.3672 H   0  0  0  0  0  0  0  0  0  0  0  0
   65.2249   33.8523   48.5163 H   0  0  0  0  0  0  0  0  0  0  0  0
   63.7640   33.9548   50.5366 H   0  0  0  0  0  0  0  0  0  0  0  0
   61.4035   33.1561   50.4179 H   0  0  0  0  0  0  0  0  0  0  0  0
   59.0568   35.2991   47.8391 H   0  0  0  0  0  0  0  0  0  0  0  0
   60.7223   34.5565   47.8329 H   0  0  0  0  0  0  0  0  0  0  0  0
   59.4171   35.2754   45.5698 H   0  0  0  0  0  0  0  0  0  0  0  0
   60.5876   33.8792   45.6869 H   0  0  0  0  0  0  0  0  0  0  0  0
   59.4861   30.6527   44.9226 H   0  0  0  0  0  0  0  0  0  0  0  0
   58.4628   28.6488   45.9962 H   0  0  0  0  0  0  0  0  0  0  0  0
  1  2  1  0
  2  3  1  0
  3  4  1  0
  4  5  2  0
  4  6  1  0
  6  7  1  0
  7  8  2  0
  8  9  1  0
  9 10  2  0
 10 11  1  0
 11 12  1  0
 12 13  1  0
 13 14  1  0
 14 15  1  0
 15 16  1  0
 16 17  1  0
 17 18  1  0
 18 19  2  0
 19 20  1  0
 20 21  2  0
 21 22  1  0
 22 23  2  0
 16 24  1  0
 24 25  1  0
 10 26  1  0
 26 27  2  0
 27  7  1  0
 25 13  1  0
 23 18  1  0
  1 28  1  0
  1 29  1  0
  1 30  1  0
  2 31  1  0
  2 32  1  0
  3 33  1  0
  3 34  1  0
  8 35  1  0
  9 36  1  0
 11 37  1  0
 11 38  1  0
 12 39  1  0
 12 40  1  0
 13 41  1  0
 14 42  1  0
 14 43  1  0
 15 44  1  0
 15 45  1  0
 17 46  1  0
 17 47  1  0
 19 48  1  0
 20 49  1  0
 21 50  1  0
 22 51  1  0
 23 52  1  0
 24 53  1  0
 24 54  1  0
 25 55  1  0
 25 56  1  0
 26 57  1  0
 27 58  1  0
M  CHG  2   6  -1  13   1
M  END
>  <UniqueID>  (47) 
45

>  <SMILES>  (47) 
CCCC(=O)[N-]c1ccc(CC[NH+]2CCN(Cc3ccccc3)CC2)cc1

>  <Energy>  (47) 
69.66010474369092

>  <Genealogy>  (47) 
CCCC(=O)[N-]c1ccc(CC[NH+]2CCN(Cc3ccccc3)CC2)cc1 (protonated)
CCCC(=O)[N-]c1ccc(CC[NH+]2CCN(Cc3ccccc3)CC2)cc1 (3D coordinates assigned)
CCCC(=O)[N-]c1ccc(CC[NH+]2CCN(Cc3ccccc3)CC2)cc1 (nonaromatic ring conformer: 69.66010474369092 kcal/mol)

>  <smiles>  (47) 
CCCC(=O)Nc1ccc(CCN2CCN(Cc3ccccc3)CC2)cc1

>  <score_type>  (47) 
oracle

>  <origin>  (47) 
adg

>  <m_score__min__energy>  (47) 
-9.4100000000000001

>  <m_primary>  (47) 
energy

$$$$
48:0
     RDKit          3D

 31 33  0  0  0  0  0  0  0  0999 V2000
   66.2760   32.7140   50.1260 C   0  0  0  0  0  0  0  0  0  0  0  0
   65.2580   33.3840   49.3900 O   0  0  0  0  0  0  0  0  0  0  0  0
   64.0950   32.7670   48.9050 C   0  0  0  0  0  0  0  0  0  0  0  0
   63.6950   33.0420   47.5940 C   0  0  0  0  0  0  0  0  0  0  0  0
   62.5450   32.4510   47.0620 C   0  0  0  0  0  0  0  0  0  0  0  0
   61.7750   31.5690   47.8390 C   0  0  0  0  0  0  0  0  0  0  0  0
   60.5460   30.9460   47.2830 C   0  0  0  0  0  0  0  0  0  0  0  0
   60.1820   29.6480   47.6760 C   0  0  0  0  0  0  0  0  0  0  0  0
   59.0840   29.0730   47.1970 O   0  0  0  0  0  0  0  0  0  0  0  0
   58.2770   29.6760   46.3310 C   0  0  0  0  0  0  0  0  0  0  0  0
   57.1360   29.0100   45.8690 C   0  0  0  0  0  0  0  0  0  0  0  0
   56.2800   29.6340   44.9560 C   0  0  0  0  0  0  0  0  0  0  0  0
   55.1480   28.9700   44.5000 O   0  0  0  0  0  0  0  0  0  0  0  0
   56.5630   30.9260   44.4990 C   0  0  0  0  0  0  0  0  0  0  0  0
   57.7000   31.6000   44.9540 C   0  0  0  0  0  0  0  0  0  0  0  0
   58.5680   30.9820   45.8750 C   0  0  0  0  0  0  0  0  0  0  0  0
   59.7250   31.6170   46.3580 C   0  0  0  0  0  0  0  0  0  0  0  0
   60.0330   32.7720   45.9510 O   0  0  0  0  0  0  0  0  0  0  0  0
   62.1730   31.2980   49.1590 C   0  0  0  0  0  0  0  0  0  0  0  0
   63.3240   31.8880   49.6880 C   0  0  0  0  0  0  0  0  0  0  0  0
   66.0903   32.8362   51.2033 H   0  0  0  0  0  0  0  0  0  0  0  0
   66.2683   31.6438   49.8717 H   0  0  0  0  0  0  0  0  0  0  0  0
   67.2559   33.1443   49.8717 H   0  0  0  0  0  0  0  0  0  0  0  0
   64.2904   33.7296   46.9754 H   0  0  0  0  0  0  0  0  0  0  0  0
   62.2413   32.6778   46.0294 H   0  0  0  0  0  0  0  0  0  0  0  0
   60.8143   29.0998   48.3900 H   0  0  0  0  0  0  0  0  0  0  0  0
   56.9121   27.9935   46.2248 H   0  0  0  0  0  0  0  0  0  0  0  0
   55.8885   31.4129   43.7793 H   0  0  0  0  0  0  0  0  0  0  0  0
   57.9173   32.6157   44.5918 H   0  0  0  0  0  0  0  0  0  0  0  0
   61.5740   30.6163   49.7807 H   0  0  0  0  0  0  0  0  0  0  0  0
   63.6287   31.6643   50.7210 H   0  0  0  0  0  0  0  0  0  0  0  0
  1  2  1  0
  2  3  1  0
  3  4  2  0
  4  5  1  0
  5  6  2  0
  6  7  1  0
  7  8  2  0
  8  9  1  0
  9 10  1  0
 10 11  2  0
 11 12  1  0
 12 13  1  0
 12 14  2  0
 14 15  1  0
 15 16  2  0
 16 17  1  0
 17 18  2  0
  6 19  1  0
 19 20  2  0
 20  3  1  0
 17  7  1  0
 16 10  1  0
  1 21  1  0
  1 22  1  0
  1 23  1  0
  4 24  1  0
  5 25  1  0
  8 26  1  0
 11 27  1  0
 14 28  1  0
 15 29  1  0
 19 30  1  0
 20 31  1  0
M  CHG  1  13  -1
M  END
>  <UniqueID>  (48) 
46

>  <SMILES>  (48) 
COc1ccc(-c2coc3cc([O-])ccc3c2=O)cc1

>  <Energy>  (48) 
45.471513979235205

>  <Genealogy>  (48) 
COc1ccc(-c2coc3cc([O-])ccc3c2=O)cc1 (protonated)
COc1ccc(-c2coc3cc([O-])ccc3c2=O)cc1 (3D coordinates assigned)
COc1ccc(-c2coc3cc([O-])ccc3c2=O)cc1 (optimized conformer: 45.471513979235205 kcal/mol)

>  <smiles>  (48) 
COc1ccc(-c2coc3cc(O)ccc3c2=O)cc1

>  <score_type>  (48) 
oracle

>  <origin>  (48) 
adg

>  <m_score__min__energy>  (48) 
-8.9299999999999997

>  <m_primary>  (48) 
energy

$$$$
