0:0
     RDKit          3D

 39 42  0  0  0  0  0  0  0  0999 V2000
   57.0360   21.1490   42.9470 C   0  0  0  0  0  0  0  0  0  0  0  0
   55.9750   21.9590   43.4420 O   0  0  0  0  0  0  0  0  0  0  0  0
   55.8880   22.4310   44.7590 C   0  0  0  0  0  0  0  0  0  0  0  0
   54.8270   22.0830   45.6180 C   0  0  0  0  0  0  0  0  0  0  0  0
   54.7800   22.5910   46.9180 C   0  0  0  0  0  0  0  0  0  0  0  0
   55.7890   23.4410   47.3770 C   0  0  0  0  0  0  0  0  0  0  0  0
   56.8610   23.7810   46.5440 C   0  0  0  0  0  0  0  0  0  0  0  0
   57.8480   24.6480   47.0360 O   0  0  0  0  0  0  0  0  0  0  0  0
   57.9180   26.0260   46.7840 C   0  0  0  0  0  0  0  0  0  0  0  0
   58.8840   26.7830   47.4550 C   0  0  0  0  0  0  0  0  0  0  0  0
   58.9970   28.1570   47.2220 C   0  0  0  0  0  0  0  0  0  0  0  0
   58.1510   28.7940   46.2990 C   0  0  0  0  0  0  0  0  0  0  0  0
   58.2670   30.2490   46.0510 C   0  0  0  0  0  0  0  0  0  0  0  0
   59.2560   31.0130   46.5910 N   0  0  0  0  0  0  0  0  0  0  0  0
   58.9790   32.2340   46.1120 C   0  0  0  0  0  0  0  0  0  0  0  0
   59.6740   33.4190   46.3440 C   0  0  0  0  0  0  0  0  0  0  0  0
   59.1910   34.5890   45.7270 C   0  0  0  0  0  0  0  0  0  0  0  0
   58.0420   34.5430   44.9050 C   0  0  0  0  0  0  0  0  0  0  0  0
   57.3670   33.3250   44.6950 C   0  0  0  0  0  0  0  0  0  0  0  0
   57.8730   32.1890   45.3220 C   0  0  0  0  0  0  0  0  0  0  0  0
   57.3970   30.9370   45.2640 N   0  0  0  0  0  0  0  0  0  0  0  0
   57.1940   28.0280   45.6100 C   0  0  0  0  0  0  0  0  0  0  0  0
   57.0830   26.6550   45.8450 C   0  0  0  0  0  0  0  0  0  0  0  0
   56.8950   23.2840   45.2280 C   0  0  0  0  0  0  0  0  0  0  0  0
   57.5959   20.7216   43.7919 H   0  0  0  0  0  0  0  0  0  0  0  0
   56.6210   20.3359   42.3333 H   0  0  0  0  0  0  0  0  0  0  0  0
   57.7110   21.7637   42.3333 H   0  0  0  0  0  0  0  0  0  0  0  0
   54.0331   21.4091   45.2636 H   0  0  0  0  0  0  0  0  0  0  0  0
   53.9460   22.3210   47.5825 H   0  0  0  0  0  0  0  0  0  0  0  0
   55.7407   23.8454   48.3988 H   0  0  0  0  0  0  0  0  0  0  0  0
   59.5600   26.2936   48.1716 H   0  0  0  0  0  0  0  0  0  0  0  0
   59.7532   28.7429   47.7649 H   0  0  0  0  0  0  0  0  0  0  0  0
   60.5673   33.4399   46.9856 H   0  0  0  0  0  0  0  0  0  0  0  0
   59.7113   35.5451   45.8858 H   0  0  0  0  0  0  0  0  0  0  0  0
   57.6734   35.4627   44.4272 H   0  0  0  0  0  0  0  0  0  0  0  0
   56.4716   33.2727   44.0582 H   0  0  0  0  0  0  0  0  0  0  0  0
   56.5281   28.5129   44.8810 H   0  0  0  0  0  0  0  0  0  0  0  0
   56.3383   26.0636   45.2922 H   0  0  0  0  0  0  0  0  0  0  0  0
   57.7215   23.5685   44.5603 H   0  0  0  0  0  0  0  0  0  0  0  0
  1  2  1  0
  2  3  1  0
  3  4  2  0
  4  5  1  0
  5  6  2  0
  6  7  1  0
  7  8  1  0
  8  9  1  0
  9 10  2  0
 10 11  1  0
 11 12  2  0
 12 13  1  0
 13 14  2  0
 14 15  1  0
 15 16  2  0
 16 17  1  0
 17 18  2  0
 18 19  1  0
 19 20  2  0
 20 21  1  0
 12 22  1  0
 22 23  2  0
  7 24  2  0
 24  3  1  0
 23  9  1  0
 21 13  1  0
 20 15  1  0
  1 25  1  0
  1 26  1  0
  1 27  1  0
  4 28  1  0
  5 29  1  0
  6 30  1  0
 10 31  1  0
 11 32  1  0
 16 33  1  0
 17 34  1  0
 18 35  1  0
 19 36  1  0
 22 37  1  0
 23 38  1  0
 24 39  1  0
M  CHG  1  21  -1
M  END
>  <UniqueID>  (1) 
1

>  <SMILES>  (1) 
COc1cccc(Oc2ccc(-c3nc4ccccc4[n-]3)cc2)c1

>  <Energy>  (1) 
85.09013351974522

>  <Genealogy>  (1) 
COc1cccc(Oc2ccc(-c3nc4ccccc4[n-]3)cc2)c1 (protonated)
COc1cccc(Oc2ccc(-c3nc4ccccc4[n-]3)cc2)c1 (3D coordinates assigned)
COc1cccc(Oc2ccc(-c3nc4ccccc4[n-]3)cc2)c1 (optimized conformer: 85.09013351974522 kcal/mol)

>  <smiles>  (1) 
COc1cccc(Oc2ccc(-c3nc4ccccc4[nH]3)cc2)c1

>  <score_type>  (1) 
oracle

>  <origin>  (1) 
adg

>  <m_score__min__energy>  (1) 
-8.6099999999999994

>  <m_primary>  (1) 
energy

$$$$
1:0
     RDKit          3D

 30 32  0  0  0  0  0  0  0  0999 V2000
   57.0190   33.8480   45.0290 C   0  0  0  0  0  0  0  0  0  0  0  0
   58.3520   33.7640   45.7270 C   0  0  0  0  0  0  0  0  0  0  0  0
   58.9660   34.9620   46.1240 C   0  0  0  0  0  0  0  0  0  0  0  0
   60.2140   34.9560   46.7390 C   0  0  0  0  0  0  0  0  0  0  0  0
   60.8830   33.7520   46.9700 C   0  0  0  0  0  0  0  0  0  0  0  0
   60.2720   32.5290   46.6250 C   0  0  0  0  0  0  0  0  0  0  0  0
   59.0060   32.5270   45.9850 C   0  0  0  0  0  0  0  0  0  0  0  0
   58.4330   31.2060   45.5980 C   0  0  0  0  0  0  0  0  0  0  0  0
   57.2300   31.0800   45.2500 O   0  0  0  0  0  0  0  0  0  0  0  0
   59.3100   29.9910   45.6090 C   0  0  0  0  0  0  0  0  0  0  0  0
   60.2090   30.0170   46.8400 C   0  0  0  0  0  0  0  0  0  0  0  0
   60.9540   31.2800   46.9050 N   0  0  0  0  0  0  0  0  0  0  0  0
   62.2670   31.2660   47.5650 C   0  0  0  0  0  0  0  0  0  0  0  0
   63.0500   32.5460   47.2740 C   0  0  0  0  0  0  0  0  0  0  0  0
   62.2230   33.7710   47.6580 C   0  0  0  0  0  0  0  0  0  0  0  0
   56.2153   33.8986   45.7783 H   0  0  0  0  0  0  0  0  0  0  0  0
   56.9909   34.7497   44.3996 H   0  0  0  0  0  0  0  0  0  0  0  0
   56.8779   32.9570   44.3996 H   0  0  0  0  0  0  0  0  0  0  0  0
   58.4534   35.9190   45.9465 H   0  0  0  0  0  0  0  0  0  0  0  0
   60.6768   35.9057   47.0453 H   0  0  0  0  0  0  0  0  0  0  0  0
   58.6828   29.0876   45.6333 H   0  0  0  0  0  0  0  0  0  0  0  0
   59.9335   29.9837   44.7028 H   0  0  0  0  0  0  0  0  0  0  0  0
   59.5894   29.9152   47.7432 H   0  0  0  0  0  0  0  0  0  0  0  0
   60.9248   29.1842   46.7758 H   0  0  0  0  0  0  0  0  0  0  0  0
   62.1207   31.1749   48.6514 H   0  0  0  0  0  0  0  0  0  0  0  0
   62.8414   30.4123   47.1760 H   0  0  0  0  0  0  0  0  0  0  0  0
   63.9833   32.5410   47.8562 H   0  0  0  0  0  0  0  0  0  0  0  0
   63.2774   32.5901   46.1987 H   0  0  0  0  0  0  0  0  0  0  0  0
   62.0687   33.7744   48.7471 H   0  0  0  0  0  0  0  0  0  0  0  0
   62.7665   34.6744   47.3442 H   0  0  0  0  0  0  0  0  0  0  0  0
  1  2  1  0
  2  3  2  0
  3  4  1  0
  4  5  2  0
  5  6  1  0
  6  7  2  0
  7  8  1  0
  8  9  2  0
  8 10  1  0
 10 11  1  0
 11 12  1  0
 12 13  1  0
 13 14  1  0
 14 15  1  0
  7  2  1  0
 15  5  1  0
 12  6  1  0
  1 16  1  0
  1 17  1  0
  1 18  1  0
  3 19  1  0
  4 20  1  0
 10 21  1  0
 10 22  1  0
 11 23  1  0
 11 24  1  0
 13 25  1  0
 13 26  1  0
 14 27  1  0
 14 28  1  0
 15 29  1  0
 15 30  1  0
M  END
>  <UniqueID>  (2) 
2

>  <SMILES>  (2) 
Cc1ccc2c3c1C(=O)CCN3CCC2

>  <Energy>  (2) 
34.45747139202964

>  <Genealogy>  (2) 
Cc1ccc2c3c1C(=O)CCN3CCC2 (3D coordinates assigned)
Cc1ccc2c3c1C(=O)CCN3CCC2 (nonaromatic ring conformer: 34.45747139202964 kcal/mol)

>  <smiles>  (2) 
Cc1ccc2c3c1C(=O)CCN3CCC2

>  <score_type>  (2) 
oracle

>  <origin>  (2) 
adg

>  <m_score__min__energy>  (2) 
-6.4299999999999997

>  <m_primary>  (2) 
energy

$$$$
2:0
     RDKit          3D

 38 40  0  0  0  0  0  0  0  0999 V2000
   59.9410   35.3280   46.3470 C   0  0  0  0  0  0  0  0  0  0  0  0
   59.1500   34.7830   45.4190 C   0  0  0  0  0  0  0  0  0  0  0  0
   57.9260   33.9930   45.7910 C   0  0  0  0  0  0  0  0  0  0  0  0
   58.1110   32.5310   45.4660 C   0  0  0  0  0  0  0  0  0  0  0  0
   57.2510   31.9020   44.5510 C   0  0  0  0  0  0  0  0  0  0  0  0
   57.4190   30.5530   44.2300 C   0  0  0  0  0  0  0  0  0  0  0  0
   56.2330   29.7150   42.9890 Br  0  0  0  0  0  0  0  0  0  0  0  0
   58.4510   29.8150   44.8140 C   0  0  0  0  0  0  0  0  0  0  0  0
   59.3320   30.4280   45.7210 C   0  0  0  0  0  0  0  0  0  0  0  0
   60.3850   29.7280   46.3300 C   0  0  0  0  0  0  0  0  0  0  0  0
   60.5770   28.5040   46.0890 O   0  0  0  0  0  0  0  0  0  0  0  0
   61.2320   30.3940   47.2160 C   0  0  0  0  0  0  0  0  0  0  0  0
   61.0170   31.7590   47.4790 C   0  0  0  0  0  0  0  0  0  0  0  0
   61.8850   32.5300   48.4070 C   0  0  0  0  0  0  0  0  0  0  0  0
   61.3580   33.4980   49.2830 C   0  0  0  0  0  0  0  0  0  0  0  0
   62.1990   34.1950   50.1540 C   0  0  0  0  0  0  0  0  0  0  0  0
   63.5700   33.9310   50.1700 C   0  0  0  0  0  0  0  0  0  0  0  0
   64.1150   32.9640   49.3210 C   0  0  0  0  0  0  0  0  0  0  0  0
   65.4960   32.7280   49.3820 O   0  0  0  0  0  0  0  0  0  0  0  0
   66.1870   32.2870   50.5470 C   0  0  0  0  0  0  0  0  0  0  0  0
   63.2670   32.2610   48.4420 C   0  0  0  0  0  0  0  0  0  0  0  0
   59.9990   32.3850   46.8930 O   0  0  0  0  0  0  0  0  0  0  0  0
   59.1630   31.7930   46.0440 C   0  0  0  0  0  0  0  0  0  0  0  0
   60.8300   35.9008   46.0444 H   0  0  0  0  0  0  0  0  0  0  0  0
   59.7035   35.2040   47.4139 H   0  0  0  0  0  0  0  0  0  0  0  0
   59.4003   34.9154   44.3561 H   0  0  0  0  0  0  0  0  0  0  0  0
   57.7410   34.1018   46.8699 H   0  0  0  0  0  0  0  0  0  0  0  0
   57.0710   34.3763   45.2147 H   0  0  0  0  0  0  0  0  0  0  0  0
   56.4381   32.4767   44.0831 H   0  0  0  0  0  0  0  0  0  0  0  0
   58.5745   28.7511   44.5633 H   0  0  0  0  0  0  0  0  0  0  0  0
   62.0592   29.8575   47.7038 H   0  0  0  0  0  0  0  0  0  0  0  0
   60.2780   33.7067   49.2816 H   0  0  0  0  0  0  0  0  0  0  0  0
   61.7795   34.9548   50.8298 H   0  0  0  0  0  0  0  0  0  0  0  0
   64.2256   34.4880   50.8556 H   0  0  0  0  0  0  0  0  0  0  0  0
   65.6499   32.6298   51.4437 H   0  0  0  0  0  0  0  0  0  0  0  0
   66.2392   31.1882   50.5485 H   0  0  0  0  0  0  0  0  0  0  0  0
   67.2055   32.7024   50.5485 H   0  0  0  0  0  0  0  0  0  0  0  0
   63.6890   31.4939   47.7761 H   0  0  0  0  0  0  0  0  0  0  0  0
  1  2  2  0
  2  3  1  0
  3  4  1  0
  4  5  2  0
  5  6  1  0
  6  7  1  0
  6  8  2  0
  8  9  1  0
  9 10  1  0
 10 11  2  0
 10 12  1  0
 12 13  2  0
 13 14  1  0
 14 15  2  0
 15 16  1  0
 16 17  2  0
 17 18  1  0
 18 19  1  0
 19 20  1  0
 18 21  2  0
 13 22  1  0
 22 23  1  0
 23  4  1  0
 23  9  2  0
 21 14  1  0
  1 24  1  0
  1 25  1  0
  2 26  1  0
  3 27  1  0
  3 28  1  0
  5 29  1  0
  8 30  1  0
 12 31  1  0
 15 32  1  0
 16 33  1  0
 17 34  1  0
 20 35  1  0
 20 36  1  0
 20 37  1  0
 21 38  1  0
M  END
>  <UniqueID>  (3) 
3

>  <SMILES>  (3) 
C=CCc1cc(Br)cc2c(=O)cc(-c3cccc(OC)c3)oc12

>  <Energy>  (3) 
44.626405418003294

>  <Genealogy>  (3) 
C=CCc1cc(Br)cc2c(=O)cc(-c3cccc(OC)c3)oc12 (3D coordinates assigned)
C=CCc1cc(Br)cc2c(=O)cc(-c3cccc(OC)c3)oc12 (optimized conformer: 44.626405418003294 kcal/mol)

>  <smiles>  (3) 
C=CCc1cc(Br)cc2c(=O)cc(-c3cccc(OC)c3)oc12

>  <score_type>  (3) 
oracle

>  <origin>  (3) 
adg

>  <m_score__min__energy>  (3) 
-7.79

>  <m_primary>  (3) 
energy

$$$$
3:0
     RDKit          3D

 48 51  0  0  0  0  0  0  0  0999 V2000
   59.0090   24.3520   45.9640 C   0  0  0  0  0  0  0  0  0  0  0  0
   59.1940   25.8400   45.9970 C   0  0  0  0  0  0  0  0  0  0  0  0
   58.5040   26.6600   45.0940 C   0  0  0  0  0  0  0  0  0  0  0  0
   58.6480   28.0490   45.1490 C   0  0  0  0  0  0  0  0  0  0  0  0
   59.4840   28.6450   46.1110 C   0  0  0  0  0  0  0  0  0  0  0  0
   59.6140   30.1250   46.1620 C   0  0  0  0  0  0  0  0  0  0  0  0
   58.7320   30.9690   45.4680 C   0  0  0  0  0  0  0  0  0  0  0  0
   58.9030   32.3570   45.5340 C   0  0  0  0  0  0  0  0  0  0  0  0
   58.0390   33.2140   44.8320 C   0  0  0  0  0  0  0  0  0  0  0  0
   58.2220   34.5970   44.8880 C   0  0  0  0  0  0  0  0  0  0  0  0
   59.2680   35.1370   45.6400 C   0  0  0  0  0  0  0  0  0  0  0  0
   60.1330   34.2960   46.3460 C   0  0  0  0  0  0  0  0  0  0  0  0
   59.9540   32.9010   46.3090 C   0  0  0  0  0  0  0  0  0  0  0  0
   60.7990   32.0190   47.0160 C   0  0  0  0  0  0  0  0  0  0  0  0
   61.8600   32.5010   47.8470 N   0  0  0  0  0  0  0  0  0  0  0  0
   61.8060   32.3000   49.2980 C   0  0  0  0  0  0  0  0  0  0  0  0
   63.1800   31.8750   49.8680 C   0  0  0  0  0  0  0  0  0  0  0  0
   64.3240   32.1940   48.9720 N   0  0  0  0  0  0  0  0  0  0  0  0
   65.5750   32.2710   49.7450 C   0  0  0  0  0  0  0  0  0  0  0  0
   64.1040   33.4490   48.2260 C   0  0  0  0  0  0  0  0  0  0  0  0
   62.9490   33.2680   47.2360 C   0  0  0  0  0  0  0  0  0  0  0  0
   60.6050   30.6770   46.9150 N   0  0  0  0  0  0  0  0  0  0  0  0
   60.1530   27.8180   47.0330 C   0  0  0  0  0  0  0  0  0  0  0  0
   60.0060   26.4290   46.9770 C   0  0  0  0  0  0  0  0  0  0  0  0
   58.9610   23.9656   46.9928 H   0  0  0  0  0  0  0  0  0  0  0  0
   58.0739   24.1104   45.4375 H   0  0  0  0  0  0  0  0  0  0  0  0
   59.8565   23.8887   45.4375 H   0  0  0  0  0  0  0  0  0  0  0  0
   57.8454   26.2079   44.3378 H   0  0  0  0  0  0  0  0  0  0  0  0
   58.1027   28.6821   44.4336 H   0  0  0  0  0  0  0  0  0  0  0  0
   57.9101   30.5414   44.8750 H   0  0  0  0  0  0  0  0  0  0  0  0
   57.2154   32.7939   44.2361 H   0  0  0  0  0  0  0  0  0  0  0  0
   57.5406   35.2632   44.3385 H   0  0  0  0  0  0  0  0  0  0  0  0
   59.4114   36.2270   45.6767 H   0  0  0  0  0  0  0  0  0  0  0  0
   60.9574   34.7268   46.9332 H   0  0  0  0  0  0  0  0  0  0  0  0
   61.4968   33.2407   49.7770 H   0  0  0  0  0  0  0  0  0  0  0  0
   61.0847   31.4961   49.5063 H   0  0  0  0  0  0  0  0  0  0  0  0
   63.3340   32.3935   50.8258 H   0  0  0  0  0  0  0  0  0  0  0  0
   63.1563   30.7812   49.9818 H   0  0  0  0  0  0  0  0  0  0  0  0
   64.4340   31.4100   48.2830 H   0  0  0  0  0  0  0  0  0  0  0  0
   65.3431   32.2567   50.8202 H   0  0  0  0  0  0  0  0  0  0  0  0
   66.2134   31.4104   49.4961 H   0  0  0  0  0  0  0  0  0  0  0  0
   66.1030   33.2033   49.4961 H   0  0  0  0  0  0  0  0  0  0  0  0
   63.8567   34.2552   48.9323 H   0  0  0  0  0  0  0  0  0  0  0  0
   65.0190   33.7084   47.6734 H   0  0  0  0  0  0  0  0  0  0  0  0
   62.5710   34.2568   46.9371 H   0  0  0  0  0  0  0  0  0  0  0  0
   63.3186   32.7197   46.3570 H   0  0  0  0  0  0  0  0  0  0  0  0
   60.7963   28.2682   47.8034 H   0  0  0  0  0  0  0  0  0  0  0  0
   60.5305   25.7940   47.7062 H   0  0  0  0  0  0  0  0  0  0  0  0
  1  2  1  0
  2  3  2  0
  3  4  1  0
  4  5  2  0
  5  6  1  0
  6  7  2  0
  7  8  1  0
  8  9  2  0
  9 10  1  0
 10 11  2  0
 11 12  1  0
 12 13  2  0
 13 14  1  0
 14 15  1  0
 15 16  1  0
 16 17  1  0
 17 18  1  0
 18 19  1  0
 18 20  1  0
 20 21  1  0
 14 22  2  0
  5 23  1  0
 23 24  2  0
 24  2  1  0
 22  6  1  0
 13  8  1  0
 21 15  1  0
  1 25  1  0
  1 26  1  0
  1 27  1  0
  3 28  1  0
  4 29  1  0
  7 30  1  0
  9 31  1  0
 10 32  1  0
 11 33  1  0
 12 34  1  0
 16 35  1  0
 16 36  1  0
 17 37  1  0
 17 38  1  0
 18 39  1  0
 19 40  1  0
 19 41  1  0
 19 42  1  0
 20 43  1  0
 20 44  1  0
 21 45  1  0
 21 46  1  0
 23 47  1  0
 24 48  1  0
M  CHG  1  18   1
M  END
>  <UniqueID>  (4) 
4

>  <SMILES>  (4) 
Cc1ccc(-c2cc3ccccc3c(N3CC[NH+](C)CC3)n2)cc1

>  <Energy>  (4) 
69.77838894649592

>  <Genealogy>  (4) 
Cc1ccc(-c2cc3ccccc3c(N3CC[NH+](C)CC3)n2)cc1 (protonated)
Cc1ccc(-c2cc3ccccc3c(N3CC[NH+](C)CC3)n2)cc1 (3D coordinates assigned)
Cc1ccc(-c2cc3ccccc3c(N3CC[NH+](C)CC3)n2)cc1 (nonaromatic ring conformer: 69.77838894649592 kcal/mol)

>  <smiles>  (4) 
Cc1ccc(-c2cc3ccccc3c(N3CCN(C)CC3)n2)cc1

>  <score_type>  (4) 
oracle

>  <origin>  (4) 
adg

>  <m_score__min__energy>  (4) 
-6.5499999999999998

>  <m_primary>  (4) 
energy

$$$$
4:0
     RDKit          3D

 40 43  0  0  0  0  0  0  0  0999 V2000
   60.8480   33.6080   46.8290 C   0  0  0  0  0  0  0  0  0  0  0  0
   60.3210   32.2900   47.3580 C   0  0  0  0  0  0  0  0  0  0  0  0
   61.0510   31.6130   48.3760 C   0  0  0  0  0  0  0  0  0  0  0  0
   62.0940   32.2690   49.1350 N   0  0  0  0  0  0  0  0  0  0  0  0
   63.3850   32.1110   48.4440 C   0  0  0  0  0  0  0  0  0  0  0  0
   63.8400   33.3700   47.7210 C   0  0  0  0  0  0  0  0  0  0  0  0
   64.5400   32.9380   49.0000 C   0  0  0  0  0  0  0  0  0  0  0  0
   60.7820   30.2580   48.6260 C   0  0  0  0  0  0  0  0  0  0  0  0
   61.4880   29.5790   49.5660 F   0  0  0  0  0  0  0  0  0  0  0  0
   59.8330   29.5740   47.8800 C   0  0  0  0  0  0  0  0  0  0  0  0
   59.0400   30.2460   46.9380 C   0  0  0  0  0  0  0  0  0  0  0  0
   58.0950   29.5420   46.1700 C   0  0  0  0  0  0  0  0  0  0  0  0
   57.9750   28.2920   46.3060 O   0  0  0  0  0  0  0  0  0  0  0  0
   57.2930   30.2290   45.2430 C   0  0  0  0  0  0  0  0  0  0  0  0
   56.3230   29.5220   44.3610 C   0  0  0  0  0  0  0  0  0  0  0  0
   56.5550   29.3990   43.1280 O   0  0  0  0  0  0  0  0  0  0  0  0
   55.1520   28.9770   44.8730 O   0  0  0  0  0  0  0  0  0  0  0  0
   57.3850   31.6250   45.1930 C   0  0  0  0  0  0  0  0  0  0  0  0
   58.2390   32.3180   46.0070 N   0  0  0  0  0  0  0  0  0  0  0  0
   58.0220   33.7750   46.0970 C   0  0  0  0  0  0  0  0  0  0  0  0
   57.0320   34.3480   45.0840 C   0  0  0  0  0  0  0  0  0  0  0  0
   58.5160   34.5460   44.8710 C   0  0  0  0  0  0  0  0  0  0  0  0
   59.1900   31.6460   46.7560 C   0  0  0  0  0  0  0  0  0  0  0  0
   61.1100   34.2633   47.6728 H   0  0  0  0  0  0  0  0  0  0  0  0
   61.7423   33.4254   46.2151 H   0  0  0  0  0  0  0  0  0  0  0  0
   60.0744   34.0923   46.2151 H   0  0  0  0  0  0  0  0  0  0  0  0
   62.1150   31.8700   50.1040 H   0  0  0  0  0  0  0  0  0  0  0  0
   61.8860   33.2860   49.2530 H   0  0  0  0  0  0  0  0  0  0  0  0
   63.2559   31.0494   48.1864 H   0  0  0  0  0  0  0  0  0  0  0  0
   64.3615   33.2912   46.7557 H   0  0  0  0  0  0  0  0  0  0  0  0
   63.3453   34.2912   47.3794 H   0  0  0  0  0  0  0  0  0  0  0  0
   65.5669   32.5458   48.9597 H   0  0  0  0  0  0  0  0  0  0  0  0
   64.7607   33.4159   49.9659 H   0  0  0  0  0  0  0  0  0  0  0  0
   59.7009   28.4922   48.0290 H   0  0  0  0  0  0  0  0  0  0  0  0
   56.7549   32.1787   44.4814 H   0  0  0  0  0  0  0  0  0  0  0  0
   58.1492   33.8525   47.1869 H   0  0  0  0  0  0  0  0  0  0  0  0
   56.4684   33.6717   44.4245 H   0  0  0  0  0  0  0  0  0  0  0  0
   56.1613   35.0176   45.1443 H   0  0  0  0  0  0  0  0  0  0  0  0
   59.0300   34.0131   44.0575 H   0  0  0  0  0  0  0  0  0  0  0  0
   59.1679   35.4179   44.7133 H   0  0  0  0  0  0  0  0  0  0  0  0
  1  2  1  0
  2  3  2  0
  3  4  1  0
  4  5  1  0
  5  6  1  0
  6  7  1  0
  3  8  1  0
  8  9  1  0
  8 10  2  0
 10 11  1  0
 11 12  1  0
 12 13  2  0
 12 14  1  0
 14 15  1  0
 15 16  2  0
 15 17  1  0
 14 18  2  0
 18 19  1  0
 19 20  1  0
 20 21  1  0
 21 22  1  0
 19 23  1  0
 23  2  1  0
  7  5  1  0
 23 11  2  0
 22 20  1  0
  1 24  1  0
  1 25  1  0
  1 26  1  0
  4 27  1  0
  4 28  1  0
  5 29  1  0
  6 30  1  0
  6 31  1  0
  7 32  1  0
  7 33  1  0
 10 34  1  0
 18 35  1  0
 20 36  1  0
 21 37  1  0
 21 38  1  0
 22 39  1  0
 22 40  1  0
M  CHG  2   4   1  17  -1
M  END
>  <UniqueID>  (5) 
5

>  <SMILES>  (5) 
Cc1c([NH2+]C2CC2)c(F)cc2c(=O)c(C(=O)[O-])cn(C3CC3)c12

>  <Energy>  (5) 
600.0434473502136

>  <Genealogy>  (5) 
Cc1c([NH2+]C2CC2)c(F)cc2c(=O)c(C(=O)[O-])cn(C3CC3)c12 (protonated)
Cc1c([NH2+]C2CC2)c(F)cc2c(=O)c(C(=O)[O-])cn(C3CC3)c12 (3D coordinates assigned)
Cc1c([NH2+]C2CC2)c(F)cc2c(=O)c(C(=O)[O-])cn(C3CC3)c12 (nonaromatic ring conformer: 600.0434473502136 kcal/mol)

>  <smiles>  (5) 
Cc1c(NC2CC2)c(F)cc2c(=O)c(C(=O)O)cn(C3CC3)c12

>  <score_type>  (5) 
oracle

>  <origin>  (5) 
adg

>  <m_score__min__energy>  (5) 
-8.3000000000000007

>  <m_primary>  (5) 
energy

$$$$
5:0
     RDKit          3D

 47 50  0  0  0  0  0  0  0  0999 V2000
   56.7460   27.1480   45.7210 C   0  0  0  0  0  0  0  0  0  0  0  0
   56.0400   28.2900   45.2450 O   0  0  0  0  0  0  0  0  0  0  0  0
   56.6460   29.5030   44.8830 C   0  0  0  0  0  0  0  0  0  0  0  0
   56.4310   29.9900   43.5880 C   0  0  0  0  0  0  0  0  0  0  0  0
   57.0080   31.1940   43.1740 C   0  0  0  0  0  0  0  0  0  0  0  0
   57.8100   31.9260   44.0550 C   0  0  0  0  0  0  0  0  0  0  0  0
   58.3680   33.1000   43.6560 N   0  0  0  0  0  0  0  0  0  0  0  0
   59.1530   33.8390   44.4850 C   0  0  0  0  0  0  0  0  0  0  0  0
   59.4160   33.3980   45.7910 C   0  0  0  0  0  0  0  0  0  0  0  0
   60.2480   34.2330   46.7250 C   0  0  0  0  0  0  0  0  0  0  0  0
   61.3950   33.4200   47.2640 C   0  0  0  0  0  0  0  0  0  0  0  0
   62.6780   33.5470   46.7150 C   0  0  0  0  0  0  0  0  0  0  0  0
   63.7000   32.7780   47.1760 N   0  0  0  0  0  0  0  0  0  0  0  0
   63.5140   31.8640   48.1670 C   0  0  0  0  0  0  0  0  0  0  0  0
   62.2460   31.6920   48.7450 C   0  0  0  0  0  0  0  0  0  0  0  0
   62.0310   30.7180   49.7840 N   0  0  0  0  0  0  0  0  0  0  0  0
   60.8050   29.9150   49.7960 C   0  0  0  0  0  0  0  0  0  0  0  0
   61.0760   28.5700   50.4760 C   0  0  0  0  0  0  0  0  0  0  0  0
   61.6610   28.7600   51.7500 O   0  0  0  0  0  0  0  0  0  0  0  0
   62.9400   29.3510   51.6050 C   0  0  0  0  0  0  0  0  0  0  0  0
   62.8250   30.7610   51.0170 C   0  0  0  0  0  0  0  0  0  0  0  0
   61.1830   32.4760   48.2770 C   0  0  0  0  0  0  0  0  0  0  0  0
   58.8420   32.1970   46.2300 C   0  0  0  0  0  0  0  0  0  0  0  0
   58.0360   31.4460   45.3620 C   0  0  0  0  0  0  0  0  0  0  0  0
   57.4530   30.2380   45.7740 C   0  0  0  0  0  0  0  0  0  0  0  0
   56.7455   27.1488   46.8210 H   0  0  0  0  0  0  0  0  0  0  0  0
   56.2549   26.2344   45.3548 H   0  0  0  0  0  0  0  0  0  0  0  0
   57.7828   27.1789   45.3548 H   0  0  0  0  0  0  0  0  0  0  0  0
   55.8016   29.4193   42.8893 H   0  0  0  0  0  0  0  0  0  0  0  0
   56.8310   31.5660   42.1541 H   0  0  0  0  0  0  0  0  0  0  0  0
   59.5838   34.7869   44.1301 H   0  0  0  0  0  0  0  0  0  0  0  0
   60.6432   35.1033   46.1806 H   0  0  0  0  0  0  0  0  0  0  0  0
   59.6200   34.5692   47.5632 H   0  0  0  0  0  0  0  0  0  0  0  0
   62.8590   34.2719   45.9077 H   0  0  0  0  0  0  0  0  0  0  0  0
   64.6500   32.8890   46.7580 H   0  0  0  0  0  0  0  0  0  0  0  0
   64.3617   31.2567   48.5171 H   0  0  0  0  0  0  0  0  0  0  0  0
   60.0209   30.4529   50.3490 H   0  0  0  0  0  0  0  0  0  0  0  0
   60.4737   29.7402   48.7617 H   0  0  0  0  0  0  0  0  0  0  0  0
   60.1265   28.0270   50.5925 H   0  0  0  0  0  0  0  0  0  0  0  0
   61.7729   27.9928   49.8506 H   0  0  0  0  0  0  0  0  0  0  0  0
   63.4238   29.4100   52.5911 H   0  0  0  0  0  0  0  0  0  0  0  0
   63.5387   28.7317   50.9209 H   0  0  0  0  0  0  0  0  0  0  0  0
   62.3336   31.4224   51.7458 H   0  0  0  0  0  0  0  0  0  0  0  0
   63.8306   31.1448   50.7902 H   0  0  0  0  0  0  0  0  0  0  0  0
   60.1783   32.3497   48.7067 H   0  0  0  0  0  0  0  0  0  0  0  0
   59.0237   31.8434   47.2556 H   0  0  0  0  0  0  0  0  0  0  0  0
   57.6262   29.8643   46.7940 H   0  0  0  0  0  0  0  0  0  0  0  0
  1  2  1  0
  2  3  1  0
  3  4  2  0
  4  5  1  0
  5  6  2  0
  6  7  1  0
  7  8  2  0
  8  9  1  0
  9 10  1  0
 10 11  1  0
 11 12  2  0
 12 13  1  0
 13 14  2  0
 14 15  1  0
 15 16  1  0
 16 17  1  0
 17 18  1  0
 18 19  1  0
 19 20  1  0
 20 21  1  0
 15 22  2  0
  9 23  2  0
 23 24  1  0
 24 25  2  0
 25  3  1  0
 24  6  1  0
 22 11  1  0
 21 16  1  0
  1 26  1  0
  1 27  1  0
  1 28  1  0
  4 29  1  0
  5 30  1  0
  8 31  1  0
 10 32  1  0
 10 33  1  0
 12 34  1  0
 13 35  1  0
 14 36  1  0
 17 37  1  0
 17 38  1  0
 18 39  1  0
 18 40  1  0
 20 41  1  0
 20 42  1  0
 21 43  1  0
 21 44  1  0
 22 45  1  0
 23 46  1  0
 25 47  1  0
M  CHG  1  13   1
M  END
>  <UniqueID>  (6) 
6

>  <SMILES>  (6) 
COc1ccc2ncc(Cc3c[nH+]cc(N4CCOCC4)c3)cc2c1

>  <Energy>  (6) 
56.40457070241383

>  <Genealogy>  (6) 
COc1ccc2ncc(Cc3c[nH+]cc(N4CCOCC4)c3)cc2c1 (protonated)
COc1ccc2ncc(Cc3c[nH+]cc(N4CCOCC4)c3)cc2c1 (3D coordinates assigned)
COc1ccc2ncc(Cc3c[nH+]cc(N4CCOCC4)c3)cc2c1 (nonaromatic ring conformer: 56.40457070241383 kcal/mol)

>  <smiles>  (6) 
COc1ccc2ncc(Cc3cncc(N4CCOCC4)c3)cc2c1

>  <score_type>  (6) 
oracle

>  <origin>  (6) 
adg

>  <m_score__min__energy>  (6) 
-6.8600000000000003

>  <m_primary>  (6) 
energy

$$$$
6:0
     RDKit          3D

 44 45  0  0  0  0  0  0  0  0999 V2000
   57.6260   33.3980   45.5320 C   0  0  0  0  0  0  0  0  0  0  0  0
   59.0390   33.9480   45.3690 C   0  0  0  0  0  0  0  0  0  0  0  0
   60.0000   33.0450   45.9140 O   0  0  0  0  0  0  0  0  0  0  0  0
   60.5260   33.0890   47.2190 C   0  0  0  0  0  0  0  0  0  0  0  0
   60.3950   34.2230   48.0430 C   0  0  0  0  0  0  0  0  0  0  0  0
   60.9350   34.2290   49.3300 C   0  0  0  0  0  0  0  0  0  0  0  0
   61.6130   33.1100   49.8120 C   0  0  0  0  0  0  0  0  0  0  0  0
   62.2900   33.1250   51.4290 Cl  0  0  0  0  0  0  0  0  0  0  0  0
   61.7550   31.9810   49.0040 C   0  0  0  0  0  0  0  0  0  0  0  0
   61.2170   31.9610   47.7060 C   0  0  0  0  0  0  0  0  0  0  0  0
   61.3900   30.7360   46.8400 C   0  0  0  0  0  0  0  0  0  0  0  0
   60.1270   30.4180   46.1430 N   0  0  0  0  0  0  0  0  0  0  0  0
   60.2830   29.2740   45.2330 C   0  0  0  0  0  0  0  0  0  0  0  0
   59.0790   29.2410   44.2970 C   0  0  0  0  0  0  0  0  0  0  0  0
   57.8270   29.4790   45.0320 N   0  0  0  0  0  0  0  0  0  0  0  0
   56.5690   29.4730   44.3230 C   0  0  0  0  0  0  0  0  0  0  0  0
   55.5170   29.1200   44.9240 O   0  0  0  0  0  0  0  0  0  0  0  0
   56.5050   29.8280   42.8560 C   0  0  0  0  0  0  0  0  0  0  0  0
   57.0660   31.2170   42.5600 C   0  0  0  0  0  0  0  0  0  0  0  0
   57.8230   29.4390   46.5030 C   0  0  0  0  0  0  0  0  0  0  0  0
   59.0410   30.1720   47.1150 C   0  0  0  0  0  0  0  0  0  0  0  0
   57.3896   33.3060   46.6023 H   0  0  0  0  0  0  0  0  0  0  0  0
   56.9088   34.0826   45.0556 H   0  0  0  0  0  0  0  0  0  0  0  0
   57.5604   32.4087   45.0556 H   0  0  0  0  0  0  0  0  0  0  0  0
   59.2479   34.0944   44.2990 H   0  0  0  0  0  0  0  0  0  0  0  0
   59.1093   34.9048   45.9071 H   0  0  0  0  0  0  0  0  0  0  0  0
   59.8632   35.1107   47.6698 H   0  0  0  0  0  0  0  0  0  0  0  0
   60.8253   35.1196   49.9663 H   0  0  0  0  0  0  0  0  0  0  0  0
   62.2920   31.1003   49.3860 H   0  0  0  0  0  0  0  0  0  0  0  0
   62.1773   30.9261   46.0956 H   0  0  0  0  0  0  0  0  0  0  0  0
   61.6712   29.8844   47.4770 H   0  0  0  0  0  0  0  0  0  0  0  0
   61.2070   29.3877   44.6471 H   0  0  0  0  0  0  0  0  0  0  0  0
   60.3434   28.3377   45.8071 H   0  0  0  0  0  0  0  0  0  0  0  0
   59.1989   30.0209   43.5305 H   0  0  0  0  0  0  0  0  0  0  0  0
   59.0262   28.2453   43.8324 H   0  0  0  0  0  0  0  0  0  0  0  0
   57.0859   29.0858   42.2888 H   0  0  0  0  0  0  0  0  0  0  0  0
   55.4454   29.8281   42.5604 H   0  0  0  0  0  0  0  0  0  0  0  0
   57.2760   31.7369   43.5063 H   0  0  0  0  0  0  0  0  0  0  0  0
   57.9959   31.1210   41.9802 H   0  0  0  0  0  0  0  0  0  0  0  0
   56.3303   31.7937   41.9802 H   0  0  0  0  0  0  0  0  0  0  0  0
   56.9023   29.9183   46.8672 H   0  0  0  0  0  0  0  0  0  0  0  0
   57.8762   28.3842   46.8106 H   0  0  0  0  0  0  0  0  0  0  0  0
   58.7020   31.1404   47.5116 H   0  0  0  0  0  0  0  0  0  0  0  0
   59.4503   29.5210   47.9015 H   0  0  0  0  0  0  0  0  0  0  0  0
  1  2  1  0
  2  3  1  0
  3  4  1  0
  4  5  2  0
  5  6  1  0
  6  7  2  0
  7  8  1  0
  7  9  1  0
  9 10  2  0
 10 11  1  0
 11 12  1  0
 12 13  1  0
 13 14  1  0
 14 15  1  0
 15 16  1  0
 16 17  2  0
 16 18  1  0
 18 19  1  0
 15 20  1  0
 20 21  1  0
 10  4  1  0
 21 12  1  0
  1 22  1  0
  1 23  1  0
  1 24  1  0
  2 25  1  0
  2 26  1  0
  5 27  1  0
  6 28  1  0
  9 29  1  0
 11 30  1  0
 11 31  1  0
 13 32  1  0
 13 33  1  0
 14 34  1  0
 14 35  1  0
 18 36  1  0
 18 37  1  0
 19 38  1  0
 19 39  1  0
 19 40  1  0
 20 41  1  0
 20 42  1  0
 21 43  1  0
 21 44  1  0
M  END
>  <UniqueID>  (7) 
7

>  <SMILES>  (7) 
CCOc1ccc(Cl)cc1CN1CCN(C(=O)CC)CC1

>  <Energy>  (7) 
44.413500944168504

>  <Genealogy>  (7) 
CCOc1ccc(Cl)cc1CN1CCN(C(=O)CC)CC1 (3D coordinates assigned)
CCOc1ccc(Cl)cc1CN1CCN(C(=O)CC)CC1 (nonaromatic ring conformer: 44.413500944168504 kcal/mol)

>  <smiles>  (7) 
CCOc1ccc(Cl)cc1CN1CCN(C(=O)CC)CC1

>  <score_type>  (7) 
oracle

>  <origin>  (7) 
adg

>  <m_score__min__energy>  (7) 
-6.7599999999999998

>  <m_primary>  (7) 
energy

$$$$
7:0
     RDKit          3D

 32 34  0  0  0  0  0  0  0  0999 V2000
   58.3630   31.9590   47.3640 C   0  0  0  0  0  0  0  0  0  0  0  0
   58.1660   31.9660   45.8710 C   0  0  0  0  0  0  0  0  0  0  0  0
   57.7560   30.7830   45.2300 C   0  0  0  0  0  0  0  0  0  0  0  0
   57.5520   30.7580   43.8490 C   0  0  0  0  0  0  0  0  0  0  0  0
   57.7530   31.9090   43.0910 C   0  0  0  0  0  0  0  0  0  0  0  0
   58.1620   33.0920   43.7090 C   0  0  0  0  0  0  0  0  0  0  0  0
   58.3830   33.1350   45.0980 C   0  0  0  0  0  0  0  0  0  0  0  0
   58.7950   34.4470   45.7270 C   0  0  0  0  0  0  0  0  0  0  0  0
   60.0250   34.2790   46.5000 N   0  0  0  0  0  0  0  0  0  0  0  0
   61.1820   33.8500   46.0050 N   0  0  0  0  0  0  0  0  0  0  0  0
   62.0430   33.7870   47.0400 C   0  0  0  0  0  0  0  0  0  0  0  0
   63.3770   33.3920   47.0090 C   0  0  0  0  0  0  0  0  0  0  0  0
   64.0820   33.4000   48.2260 C   0  0  0  0  0  0  0  0  0  0  0  0
   63.4420   33.7960   49.4200 C   0  0  0  0  0  0  0  0  0  0  0  0
   62.0930   34.1820   49.3880 C   0  0  0  0  0  0  0  0  0  0  0  0
   61.4570   34.1590   48.1910 N   0  0  0  0  0  0  0  0  0  0  0  0
   60.1960   34.4560   47.8300 C   0  0  0  0  0  0  0  0  0  0  0  0
   59.2980   34.8400   48.6260 O   0  0  0  0  0  0  0  0  0  0  0  0
   57.3834   31.9938   47.8633 H   0  0  0  0  0  0  0  0  0  0  0  0
   58.8928   31.0415   47.6596 H   0  0  0  0  0  0  0  0  0  0  0  0
   58.9566   32.8366   47.6596 H   0  0  0  0  0  0  0  0  0  0  0  0
   57.5947   29.8698   45.8217 H   0  0  0  0  0  0  0  0  0  0  0  0
   57.2317   29.8270   43.3585 H   0  0  0  0  0  0  0  0  0  0  0  0
   57.5892   31.8858   42.0035 H   0  0  0  0  0  0  0  0  0  0  0  0
   58.3129   33.9987   43.1047 H   0  0  0  0  0  0  0  0  0  0  0  0
   58.9638   35.1913   44.9348 H   0  0  0  0  0  0  0  0  0  0  0  0
   57.9943   34.7862   46.4007 H   0  0  0  0  0  0  0  0  0  0  0  0
   61.3680   33.6040   45.0060 H   0  0  0  0  0  0  0  0  0  0  0  0
   63.8609   33.0856   46.0699 H   0  0  0  0  0  0  0  0  0  0  0  0
   65.1389   33.0957   48.2474 H   0  0  0  0  0  0  0  0  0  0  0  0
   63.9970   33.8021   50.3697 H   0  0  0  0  0  0  0  0  0  0  0  0
   61.5691   34.4929   50.3039 H   0  0  0  0  0  0  0  0  0  0  0  0
  1  2  1  0
  2  3  2  0
  3  4  1  0
  4  5  2  0
  5  6  1  0
  6  7  2  0
  7  8  1  0
  8  9  1  0
  9 10  1  0
 10 11  2  0
 11 12  1  0
 12 13  2  0
 13 14  1  0
 14 15  2  0
 15 16  1  0
 16 17  1  0
 17 18  2  0
  7  2  1  0
 17  9  1  0
 16 11  1  0
  1 19  1  0
  1 20  1  0
  1 21  1  0
  3 22  1  0
  4 23  1  0
  5 24  1  0
  6 25  1  0
  8 26  1  0
  8 27  1  0
 10 28  1  0
 12 29  1  0
 13 30  1  0
 14 31  1  0
 15 32  1  0
M  CHG  1  10   1
M  END
>  <UniqueID>  (8) 
8

>  <SMILES>  (8) 
Cc1ccccc1Cn1[nH+]c2ccccn2c1=O

>  <Energy>  (8) 
79.32280481512966

>  <Genealogy>  (8) 
Cc1ccccc1Cn1[nH+]c2ccccn2c1=O (protonated)
Cc1ccccc1Cn1[nH+]c2ccccn2c1=O (3D coordinates assigned)
Cc1ccccc1Cn1[nH+]c2ccccn2c1=O (optimized conformer: 79.32280481512966 kcal/mol)

>  <smiles>  (8) 
Cc1ccccc1Cn1nc2ccccn2c1=O

>  <score_type>  (8) 
oracle

>  <origin>  (8) 
adg

>  <m_score__min__energy>  (8) 
-5.2599999999999998

>  <m_primary>  (8) 
energy

$$$$
8:0
     RDKit          3D

 39 42  0  0  0  0  0  0  0  0999 V2000
   55.5390   30.0760   44.1280 C   0  0  0  0  0  0  0  0  0  0  0  0
   56.2480   29.3950   45.1570 O   0  0  0  0  0  0  0  0  0  0  0  0
   57.6390   29.2110   45.1720 C   0  0  0  0  0  0  0  0  0  0  0  0
   58.2700   28.1740   44.4600 C   0  0  0  0  0  0  0  0  0  0  0  0
   59.6580   28.0260   44.5180 C   0  0  0  0  0  0  0  0  0  0  0  0
   60.4280   28.9120   45.2750 C   0  0  0  0  0  0  0  0  0  0  0  0
   59.8170   29.9650   45.9710 C   0  0  0  0  0  0  0  0  0  0  0  0
   60.6460   30.8920   46.7720 C   0  0  0  0  0  0  0  0  0  0  0  0
   61.7720   30.4780   47.4140 N   0  0  0  0  0  0  0  0  0  0  0  0
   62.2010   31.5920   48.0320 C   0  0  0  0  0  0  0  0  0  0  0  0
   63.3450   31.7380   48.8150 C   0  0  0  0  0  0  0  0  0  0  0  0
   63.6280   33.0160   49.3300 C   0  0  0  0  0  0  0  0  0  0  0  0
   62.7760   34.1070   49.0430 C   0  0  0  0  0  0  0  0  0  0  0  0
   61.6310   33.9280   48.2460 C   0  0  0  0  0  0  0  0  0  0  0  0
   61.3670   32.6400   47.7690 C   0  0  0  0  0  0  0  0  0  0  0  0
   60.3720   32.2150   46.9700 N   0  0  0  0  0  0  0  0  0  0  0  0
   59.3510   33.0180   46.3560 C   0  0  0  0  0  0  0  0  0  0  0  0
   58.0290   32.9650   46.8280 C   0  0  0  0  0  0  0  0  0  0  0  0
   57.0330   33.7360   46.2210 C   0  0  0  0  0  0  0  0  0  0  0  0
   57.3490   34.5640   45.1400 C   0  0  0  0  0  0  0  0  0  0  0  0
   58.6630   34.6230   44.6660 C   0  0  0  0  0  0  0  0  0  0  0  0
   59.6610   33.8540   45.2720 C   0  0  0  0  0  0  0  0  0  0  0  0
   58.4180   30.0940   45.9290 C   0  0  0  0  0  0  0  0  0  0  0  0
   54.8155   30.7709   44.5793 H   0  0  0  0  0  0  0  0  0  0  0  0
   56.2489   30.6395   43.5047 H   0  0  0  0  0  0  0  0  0  0  0  0
   55.0046   29.3440   43.5047 H   0  0  0  0  0  0  0  0  0  0  0  0
   57.6688   27.4782   43.8563 H   0  0  0  0  0  0  0  0  0  0  0  0
   60.1459   27.2093   43.9658 H   0  0  0  0  0  0  0  0  0  0  0  0
   61.5193   28.7831   45.3255 H   0  0  0  0  0  0  0  0  0  0  0  0
   64.0043   30.8825   49.0232 H   0  0  0  0  0  0  0  0  0  0  0  0
   64.5172   33.1674   49.9596 H   0  0  0  0  0  0  0  0  0  0  0  0
   63.0103   35.1033   49.4460 H   0  0  0  0  0  0  0  0  0  0  0  0
   60.9666   34.7713   48.0063 H   0  0  0  0  0  0  0  0  0  0  0  0
   57.7764   32.3145   47.6783 H   0  0  0  0  0  0  0  0  0  0  0  0
   55.9994   33.6909   46.5946 H   0  0  0  0  0  0  0  0  0  0  0  0
   56.5641   35.1689   44.6624 H   0  0  0  0  0  0  0  0  0  0  0  0
   58.9118   35.2749   43.8157 H   0  0  0  0  0  0  0  0  0  0  0  0
   60.6941   33.9044   44.8975 H   0  0  0  0  0  0  0  0  0  0  0  0
   57.9293   30.8987   46.4979 H   0  0  0  0  0  0  0  0  0  0  0  0
  1  2  1  0
  2  3  1  0
  3  4  2  0
  4  5  1  0
  5  6  2  0
  6  7  1  0
  7  8  1  0
  8  9  2  0
  9 10  1  0
 10 11  2  0
 11 12  1  0
 12 13  2  0
 13 14  1  0
 14 15  2  0
 15 16  1  0
 16 17  1  0
 17 18  2  0
 18 19  1  0
 19 20  2  0
 20 21  1  0
 21 22  2  0
  7 23  2  0
 23  3  1  0
 16  8  1  0
 22 17  1  0
 15 10  1  0
  1 24  1  0
  1 25  1  0
  1 26  1  0
  4 27  1  0
  5 28  1  0
  6 29  1  0
 11 30  1  0
 12 31  1  0
 13 32  1  0
 14 33  1  0
 18 34  1  0
 19 35  1  0
 20 36  1  0
 21 37  1  0
 22 38  1  0
 23 39  1  0
M  END
>  <UniqueID>  (9) 
9

>  <SMILES>  (9) 
COc1cccc(-c2nc3ccccc3n2-c2ccccc2)c1

>  <Energy>  (9) 
90.11351251395936

>  <Genealogy>  (9) 
COc1cccc(-c2nc3ccccc3n2-c2ccccc2)c1 (3D coordinates assigned)
COc1cccc(-c2nc3ccccc3n2-c2ccccc2)c1 (optimized conformer: 90.11351251395936 kcal/mol)

>  <smiles>  (9) 
COc1cccc(-c2nc3ccccc3n2-c2ccccc2)c1

>  <score_type>  (9) 
oracle

>  <origin>  (9) 
adg

>  <m_score__min__energy>  (9) 
-7.7599999999999998

>  <m_primary>  (9) 
energy

$$$$
9:0
     RDKit          3D

 59 63  0  0  0  0  0  0  0  0999 V2000
   59.1540   34.9550   46.0750 C   0  0  0  0  0  0  0  0  0  0  0  0
   59.0090   33.4620   45.9360 C   0  0  0  0  0  0  0  0  0  0  0  0
   57.7880   32.9440   45.4670 C   0  0  0  0  0  0  0  0  0  0  0  0
   57.6110   31.5680   45.3050 C   0  0  0  0  0  0  0  0  0  0  0  0
   56.4210   31.0810   44.8600 N   0  0  0  0  0  0  0  0  0  0  0  0
   56.2110   29.7470   44.6920 C   0  0  0  0  0  0  0  0  0  0  0  0
   55.0940   29.3370   44.2820 O   0  0  0  0  0  0  0  0  0  0  0  0
   57.2320   28.8360   44.9780 C   0  0  0  0  0  0  0  0  0  0  0  0
   58.4650   29.3070   45.4360 C   0  0  0  0  0  0  0  0  0  0  0  0
   58.6660   30.6840   45.6030 C   0  0  0  0  0  0  0  0  0  0  0  0
   59.8880   31.1880   46.0610 C   0  0  0  0  0  0  0  0  0  0  0  0
   60.0750   32.5720   46.2350 C   0  0  0  0  0  0  0  0  0  0  0  0
   61.4150   33.0500   46.7600 C   0  0  0  0  0  0  0  0  0  0  0  0
   61.5800   32.7830   48.2650 C   0  0  0  0  0  0  0  0  0  0  0  0
   61.4160   34.0540   49.1120 C   0  0  0  0  0  0  0  0  0  0  0  0
   59.9460   34.3880   49.4430 C   0  0  0  0  0  0  0  0  0  0  0  0
   59.2830   33.4550   50.3820 N   0  0  0  0  0  0  0  0  0  0  0  0
   58.5270   32.3450   49.7590 C   0  0  0  0  0  0  0  0  0  0  0  0
   58.4750   31.0970   50.6450 C   0  0  0  0  0  0  0  0  0  0  0  0
   59.8230   30.7730   51.1150 N   0  0  0  0  0  0  0  0  0  0  0  0
   60.2790   29.4100   51.1260 C   0  0  0  0  0  0  0  0  0  0  0  0
   60.6940   28.8000   52.3260 C   0  0  0  0  0  0  0  0  0  0  0  0
   61.1440   27.4670   52.3310 C   0  0  0  0  0  0  0  0  0  0  0  0
   61.1900   26.7250   51.1400 C   0  0  0  0  0  0  0  0  0  0  0  0
   60.7800   27.3330   49.9510 C   0  0  0  0  0  0  0  0  0  0  0  0
   60.7800   26.7380   48.6850 C   0  0  0  0  0  0  0  0  0  0  0  0
   60.3320   27.5980   47.6850 C   0  0  0  0  0  0  0  0  0  0  0  0
   59.9410   29.0880   48.3780 S   0  0  0  0  0  0  0  0  0  0  0  0
   60.3330   28.6470   49.9530 C   0  0  0  0  0  0  0  0  0  0  0  0
   60.6710   31.8250   51.6880 C   0  0  0  0  0  0  0  0  0  0  0  0
   59.9690   33.1920   51.6650 C   0  0  0  0  0  0  0  0  0  0  0  0
   59.1800   35.2231   47.1415 H   0  0  0  0  0  0  0  0  0  0  0  0
   60.0879   35.2792   45.5925 H   0  0  0  0  0  0  0  0  0  0  0  0
   58.3000   35.4528   45.5925 H   0  0  0  0  0  0  0  0  0  0  0  0
   56.9632   33.6305   45.2251 H   0  0  0  0  0  0  0  0  0  0  0  0
   57.0659   27.7570   44.8435 H   0  0  0  0  0  0  0  0  0  0  0  0
   59.2755   28.5994   45.6648 H   0  0  0  0  0  0  0  0  0  0  0  0
   60.7117   30.4950   46.2876 H   0  0  0  0  0  0  0  0  0  0  0  0
   62.2152   32.5251   46.2176 H   0  0  0  0  0  0  0  0  0  0  0  0
   61.4700   34.1373   46.6028 H   0  0  0  0  0  0  0  0  0  0  0  0
   60.8213   32.0507   48.5781 H   0  0  0  0  0  0  0  0  0  0  0  0
   62.6002   32.4045   48.4263 H   0  0  0  0  0  0  0  0  0  0  0  0
   61.9628   33.9160   50.0564 H   0  0  0  0  0  0  0  0  0  0  0  0
   61.8123   34.8913   48.5189 H   0  0  0  0  0  0  0  0  0  0  0  0
   59.9173   35.3943   49.8863 H   0  0  0  0  0  0  0  0  0  0  0  0
   59.3944   34.3094   48.4946 H   0  0  0  0  0  0  0  0  0  0  0  0
   57.4982   32.6837   49.5670 H   0  0  0  0  0  0  0  0  0  0  0  0
   59.0447   32.0710   48.8279 H   0  0  0  0  0  0  0  0  0  0  0  0
   57.8219   31.2883   51.5092 H   0  0  0  0  0  0  0  0  0  0  0  0
   58.0775   30.2521   50.0636 H   0  0  0  0  0  0  0  0  0  0  0  0
   60.6660   29.3702   53.2663 H   0  0  0  0  0  0  0  0  0  0  0  0
   61.4624   27.0023   53.2758 H   0  0  0  0  0  0  0  0  0  0  0  0
   61.5427   25.6831   51.1431 H   0  0  0  0  0  0  0  0  0  0  0  0
   61.0995   25.7020   48.4991 H   0  0  0  0  0  0  0  0  0  0  0  0
   60.2467   27.3475   46.6173 H   0  0  0  0  0  0  0  0  0  0  0  0
   60.9096   31.5636   52.7295 H   0  0  0  0  0  0  0  0  0  0  0  0
   61.5861   31.8977   51.0820 H   0  0  0  0  0  0  0  0  0  0  0  0
   59.2252   33.2202   52.4749 H   0  0  0  0  0  0  0  0  0  0  0  0
   60.7398   33.9657   51.7964 H   0  0  0  0  0  0  0  0  0  0  0  0
  1  2  1  0
  2  3  2  0
  3  4  1  0
  4  5  1  0
  5  6  1  0
  6  7  2  0
  6  8  1  0
  8  9  2  0
  9 10  1  0
 10 11  1  0
 11 12  2  0
 12 13  1  0
 13 14  1  0
 14 15  1  0
 15 16  1  0
 16 17  1  0
 17 18  1  0
 18 19  1  0
 19 20  1  0
 20 21  1  0
 21 22  2  0
 22 23  1  0
 23 24  2  0
 24 25  1  0
 25 26  1  0
 26 27  2  0
 27 28  1  0
 28 29  1  0
 20 30  1  0
 30 31  1  0
 12  2  1  0
 31 17  1  0
 10  4  2  0
 29 21  1  0
 29 25  2  0
  1 32  1  0
  1 33  1  0
  1 34  1  0
  3 35  1  0
  8 36  1  0
  9 37  1  0
 11 38  1  0
 13 39  1  0
 13 40  1  0
 14 41  1  0
 14 42  1  0
 15 43  1  0
 15 44  1  0
 16 45  1  0
 16 46  1  0
 18 47  1  0
 18 48  1  0
 19 49  1  0
 19 50  1  0
 22 51  1  0
 23 52  1  0
 24 53  1  0
 26 54  1  0
 27 55  1  0
 30 56  1  0
 30 57  1  0
 31 58  1  0
 31 59  1  0
M  CHG  1   5  -1
M  END
>  <UniqueID>  (10) 
10

>  <SMILES>  (10) 
Cc1cc2[n-]c(=O)ccc2cc1CCCCN1CCN(c2cccc3ccsc23)CC1

>  <Energy>  (10) 
110.82102077464539

>  <Genealogy>  (10) 
Cc1cc2[n-]c(=O)ccc2cc1CCCCN1CCN(c2cccc3ccsc23)CC1 (protonated)
Cc1cc2[n-]c(=O)ccc2cc1CCCCN1CCN(c2cccc3ccsc23)CC1 (3D coordinates assigned)
Cc1cc2[n-]c(=O)ccc2cc1CCCCN1CCN(c2cccc3ccsc23)CC1 (nonaromatic ring conformer: 110.82102077464539 kcal/mol)

>  <smiles>  (10) 
Cc1cc2[nH]c(=O)ccc2cc1CCCCN1CCN(c2cccc3ccsc23)CC1

>  <score_type>  (10) 
oracle

>  <origin>  (10) 
adg

>  <m_score__min__energy>  (10) 
-11.119999999999999

>  <m_primary>  (10) 
energy

$$$$
10:0
     RDKit          3D

 52 54  0  0  0  0  0  0  0  0999 V2000
   64.8600   32.3640   49.7030 C   0  0  0  0  0  0  0  0  0  0  0  0
   63.7750   32.2180   48.6270 C   0  0  0  0  0  0  0  0  0  0  0  0
   62.9630   33.4590   48.4780 N   0  0  0  0  0  0  0  0  0  0  0  0
   61.6920   33.3240   49.2350 C   0  0  0  0  0  0  0  0  0  0  0  0
   60.6130   34.2720   48.6930 C   0  0  0  0  0  0  0  0  0  0  0  0
   60.2470   33.9210   47.3020 N   0  0  0  0  0  0  0  0  0  0  0  0
   59.6110   35.0720   46.6260 C   0  0  0  0  0  0  0  0  0  0  0  0
   59.1160   34.7120   45.2120 C   0  0  0  0  0  0  0  0  0  0  0  0
   57.6590   34.1980   45.1850 C   0  0  0  0  0  0  0  0  0  0  0  0
   57.4940   32.9170   44.3560 C   0  0  0  0  0  0  0  0  0  0  0  0
   57.0250   31.8600   45.1970 O   0  0  0  0  0  0  0  0  0  0  0  0
   57.9020   30.9680   45.8150 C   0  0  0  0  0  0  0  0  0  0  0  0
   58.5740   31.3900   46.9690 C   0  0  0  0  0  0  0  0  0  0  0  0
   59.4520   30.5320   47.6310 C   0  0  0  0  0  0  0  0  0  0  0  0
   59.6760   29.2420   47.1450 C   0  0  0  0  0  0  0  0  0  0  0  0
   59.0320   28.8010   45.9800 C   0  0  0  0  0  0  0  0  0  0  0  0
   59.2750   27.5120   45.4750 C   0  0  0  0  0  0  0  0  0  0  0  0
   58.6440   27.0860   44.3050 C   0  0  0  0  0  0  0  0  0  0  0  0
   57.7720   27.9390   43.6270 C   0  0  0  0  0  0  0  0  0  0  0  0
   57.5250   29.2290   44.1120 C   0  0  0  0  0  0  0  0  0  0  0  0
   58.1390   29.6720   45.3000 C   0  0  0  0  0  0  0  0  0  0  0  0
   61.3800   33.3530   46.5180 C   0  0  0  0  0  0  0  0  0  0  0  0
   62.7520   33.8130   47.0450 C   0  0  0  0  0  0  0  0  0  0  0  0
   64.3987   32.3019   50.6997 H   0  0  0  0  0  0  0  0  0  0  0  0
   65.5992   31.5572   49.5902 H   0  0  0  0  0  0  0  0  0  0  0  0
   65.3596   33.3375   49.5902 H   0  0  0  0  0  0  0  0  0  0  0  0
   64.2578   31.9923   47.6647 H   0  0  0  0  0  0  0  0  0  0  0  0
   63.0997   31.4061   48.9347 H   0  0  0  0  0  0  0  0  0  0  0  0
   63.4860   34.2510   48.9200 H   0  0  0  0  0  0  0  0  0  0  0  0
   61.3332   32.2876   49.1499 H   0  0  0  0  0  0  0  0  0  0  0  0
   61.8858   33.5853   50.2858 H   0  0  0  0  0  0  0  0  0  0  0  0
   59.7186   34.1999   49.3292 H   0  0  0  0  0  0  0  0  0  0  0  0
   61.0113   35.2973   48.7020 H   0  0  0  0  0  0  0  0  0  0  0  0
   58.7532   35.4071   47.2276 H   0  0  0  0  0  0  0  0  0  0  0  0
   60.3650   35.8670   46.5290 H   0  0  0  0  0  0  0  0  0  0  0  0
   59.1807   35.6104   44.5805 H   0  0  0  0  0  0  0  0  0  0  0  0
   59.7551   33.8970   44.8416 H   0  0  0  0  0  0  0  0  0  0  0  0
   57.3402   33.9917   46.2174 H   0  0  0  0  0  0  0  0  0  0  0  0
   57.0420   34.9779   44.7147 H   0  0  0  0  0  0  0  0  0  0  0  0
   56.7669   33.0936   43.5497 H   0  0  0  0  0  0  0  0  0  0  0  0
   58.4642   32.6353   43.9209 H   0  0  0  0  0  0  0  0  0  0  0  0
   58.4081   32.4061   47.3563 H   0  0  0  0  0  0  0  0  0  0  0  0
   59.9701   30.8727   48.5395 H   0  0  0  0  0  0  0  0  0  0  0  0
   60.3617   28.5679   47.6792 H   0  0  0  0  0  0  0  0  0  0  0  0
   59.9644   26.8370   46.0033 H   0  0  0  0  0  0  0  0  0  0  0  0
   58.8347   26.0748   43.9162 H   0  0  0  0  0  0  0  0  0  0  0  0
   57.2762   27.5961   42.7069 H   0  0  0  0  0  0  0  0  0  0  0  0
   56.8482   29.8999   43.5627 H   0  0  0  0  0  0  0  0  0  0  0  0
   61.3313   32.2554   46.5725 H   0  0  0  0  0  0  0  0  0  0  0  0
   61.2826   33.7117   45.4827 H   0  0  0  0  0  0  0  0  0  0  0  0
   63.5390   33.3340   46.4440 H   0  0  0  0  0  0  0  0  0  0  0  0
   62.7902   34.9093   46.9632 H   0  0  0  0  0  0  0  0  0  0  0  0
  1  2  1  0
  2  3  1  0
  3  4  1  0
  4  5  1  0
  5  6  1  0
  6  7  1  0
  7  8  1  0
  8  9  1  0
  9 10  1  0
 10 11  1  0
 11 12  1  0
 12 13  2  0
 13 14  1  0
 14 15  2  0
 15 16  1  0
 16 17  2  0
 17 18  1  0
 18 19  2  0
 19 20  1  0
 20 21  2  0
  6 22  1  0
 22 23  1  0
 23  3  1  0
 21 12  1  0
 21 16  1  0
  1 24  1  0
  1 25  1  0
  1 26  1  0
  2 27  1  0
  2 28  1  0
  3 29  1  0
  4 30  1  0
  4 31  1  0
  5 32  1  0
  5 33  1  0
  7 34  1  0
  7 35  1  0
  8 36  1  0
  8 37  1  0
  9 38  1  0
  9 39  1  0
 10 40  1  0
 10 41  1  0
 13 42  1  0
 14 43  1  0
 15 44  1  0
 17 45  1  0
 18 46  1  0
 19 47  1  0
 20 48  1  0
 22 49  1  0
 22 50  1  0
 23 51  1  0
 23 52  1  0
M  CHG  1   3   1
M  END
>  <UniqueID>  (11) 
11

>  <SMILES>  (11) 
CC[NH+]1CCN(CCCCOc2cccc3ccccc23)CC1

>  <Energy>  (11) 
72.21345254076026

>  <Genealogy>  (11) 
CC[NH+]1CCN(CCCCOc2cccc3ccccc23)CC1 (protonated)
CC[NH+]1CCN(CCCCOc2cccc3ccccc23)CC1 (3D coordinates assigned)
CC[NH+]1CCN(CCCCOc2cccc3ccccc23)CC1 (nonaromatic ring conformer: 72.21345254076026 kcal/mol)

>  <smiles>  (11) 
CCN1CCN(CCCCOc2cccc3ccccc23)CC1

>  <score_type>  (11) 
oracle

>  <origin>  (11) 
adg

>  <m_score__min__energy>  (11) 
-6.2599999999999998

>  <m_primary>  (11) 
energy

$$$$
11:0
     RDKit          3D

 47 50  0  0  0  0  0  0  0  0999 V2000
   54.9210   24.8070   46.1860 O   0  0  0  0  0  0  0  0  0  0  0  0
   55.7470   25.6560   45.7560 C   0  0  0  0  0  0  0  0  0  0  0  0
   55.5760   26.9820   45.9020 N   0  0  0  0  0  0  0  0  0  0  0  0
   56.6330   27.5310   45.2720 C   0  0  0  0  0  0  0  0  0  0  0  0
   56.8660   28.9480   45.1560 N   0  0  0  0  0  0  0  0  0  0  0  0
   57.7430   29.6320   46.1090 C   0  0  0  0  0  0  0  0  0  0  0  0
   58.4930   30.7780   45.4200 C   0  0  0  0  0  0  0  0  0  0  0  0
   57.6150   31.6310   44.5960 N   0  0  0  0  0  0  0  0  0  0  0  0
   57.1130   32.8740   45.2190 C   0  0  0  0  0  0  0  0  0  0  0  0
   58.1370   33.5880   46.0670 C   0  0  0  0  0  0  0  0  0  0  0  0
   58.9210   34.6180   45.5170 C   0  0  0  0  0  0  0  0  0  0  0  0
   59.8590   35.2880   46.3070 C   0  0  0  0  0  0  0  0  0  0  0  0
   60.0120   34.9490   47.6540 C   0  0  0  0  0  0  0  0  0  0  0  0
   59.2200   33.9420   48.2140 C   0  0  0  0  0  0  0  0  0  0  0  0
   58.2800   33.2700   47.4280 C   0  0  0  0  0  0  0  0  0  0  0  0
   56.6930   30.9170   43.6910 C   0  0  0  0  0  0  0  0  0  0  0  0
   55.9400   29.7790   44.3870 C   0  0  0  0  0  0  0  0  0  0  0  0
   57.4290   26.5260   44.7510 C   0  0  0  0  0  0  0  0  0  0  0  0
   56.8690   25.3400   45.0680 N   0  0  0  0  0  0  0  0  0  0  0  0
   57.3680   24.0340   44.7220 C   0  0  0  0  0  0  0  0  0  0  0  0
   56.6780   23.2170   43.8060 C   0  0  0  0  0  0  0  0  0  0  0  0
   57.1660   21.9480   43.4820 C   0  0  0  0  0  0  0  0  0  0  0  0
   58.3430   21.4790   44.0700 C   0  0  0  0  0  0  0  0  0  0  0  0
   59.0340   22.2770   44.9860 C   0  0  0  0  0  0  0  0  0  0  0  0
   58.5490   23.5460   45.3130 C   0  0  0  0  0  0  0  0  0  0  0  0
   54.7740   27.4660   46.3640 H   0  0  0  0  0  0  0  0  0  0  0  0
   57.1366   30.0389   46.9316 H   0  0  0  0  0  0  0  0  0  0  0  0
   58.4759   28.9107   46.4996 H   0  0  0  0  0  0  0  0  0  0  0  0
   58.9635   31.4033   46.1930 H   0  0  0  0  0  0  0  0  0  0  0  0
   59.2367   30.3259   44.7473 H   0  0  0  0  0  0  0  0  0  0  0  0
   56.7888   33.5561   44.4193 H   0  0  0  0  0  0  0  0  0  0  0  0
   56.2883   32.5863   45.8877 H   0  0  0  0  0  0  0  0  0  0  0  0
   58.7953   34.8974   44.4605 H   0  0  0  0  0  0  0  0  0  0  0  0
   60.4782   36.0839   45.8676 H   0  0  0  0  0  0  0  0  0  0  0  0
   60.7546   35.4738   48.2730 H   0  0  0  0  0  0  0  0  0  0  0  0
   59.3370   33.6782   49.2755 H   0  0  0  0  0  0  0  0  0  0  0  0
   57.6492   32.4886   47.8769 H   0  0  0  0  0  0  0  0  0  0  0  0
   55.9587   31.6360   43.2988 H   0  0  0  0  0  0  0  0  0  0  0  0
   57.2973   30.4711   42.8873 H   0  0  0  0  0  0  0  0  0  0  0  0
   55.1867   30.2052   45.0659 H   0  0  0  0  0  0  0  0  0  0  0  0
   55.4522   29.1554   43.6233 H   0  0  0  0  0  0  0  0  0  0  0  0
   58.3570   26.6691   44.1780 H   0  0  0  0  0  0  0  0  0  0  0  0
   55.7488   23.5799   43.3424 H   0  0  0  0  0  0  0  0  0  0  0  0
   56.6224   21.3177   42.7629 H   0  0  0  0  0  0  0  0  0  0  0  0
   58.7264   20.4808   43.8119 H   0  0  0  0  0  0  0  0  0  0  0  0
   59.9599   21.9060   45.4497 H   0  0  0  0  0  0  0  0  0  0  0  0
   59.0941   24.1685   46.0378 H   0  0  0  0  0  0  0  0  0  0  0  0
  1  2  2  0
  2  3  1  0
  3  4  1  0
  4  5  1  0
  5  6  1  0
  6  7  1  0
  7  8  1  0
  8  9  1  0
  9 10  1  0
 10 11  2  0
 11 12  1  0
 12 13  2  0
 13 14  1  0
 14 15  2  0
  8 16  1  0
 16 17  1  0
  4 18  2  0
 18 19  1  0
 19 20  1  0
 20 21  2  0
 21 22  1  0
 22 23  2  0
 23 24  1  0
 24 25  2  0
 19  2  1  0
 25 20  1  0
 17  5  1  0
 15 10  1  0
  3 26  1  0
  6 27  1  0
  6 28  1  0
  7 29  1  0
  7 30  1  0
  9 31  1  0
  9 32  1  0
 11 33  1  0
 12 34  1  0
 13 35  1  0
 14 36  1  0
 15 37  1  0
 16 38  1  0
 16 39  1  0
 17 40  1  0
 17 41  1  0
 18 42  1  0
 21 43  1  0
 22 44  1  0
 23 45  1  0
 24 46  1  0
 25 47  1  0
M  END
>  <UniqueID>  (12) 
12

>  <SMILES>  (12) 
O=c1[nH]c(N2CCN(Cc3ccccc3)CC2)cn1-c1ccccc1

>  <Energy>  (12) 
98.03302837090452

>  <Genealogy>  (12) 
O=c1[nH]c(N2CCN(Cc3ccccc3)CC2)cn1-c1ccccc1 (3D coordinates assigned)
O=c1[nH]c(N2CCN(Cc3ccccc3)CC2)cn1-c1ccccc1 (nonaromatic ring conformer: 98.03302837090452 kcal/mol)

>  <smiles>  (12) 
O=c1[nH]c(N2CCN(Cc3ccccc3)CC2)cn1-c1ccccc1

>  <score_type>  (12) 
oracle

>  <origin>  (12) 
adg

>  <m_score__min__energy>  (12) 
-9.0299999999999994

>  <m_primary>  (12) 
energy

$$$$
12:0
     RDKit          3D

 35 36  0  0  0  0  0  0  0  0999 V2000
   56.4750   30.1670   43.5600 C   0  0  0  0  0  0  0  0  0  0  0  0
   57.0360   30.9540   44.4820 C   0  0  0  0  0  0  0  0  0  0  0  0
   57.9750   32.0720   44.1090 C   0  0  0  0  0  0  0  0  0  0  0  0
   58.2130   33.1310   45.2180 C   0  0  0  0  0  0  0  0  0  0  0  0
   58.6000   32.6280   46.6280 C   0  0  0  0  0  0  0  0  0  0  0  0
   58.9270   33.7730   47.6000 C   0  0  0  0  0  0  0  0  0  0  0  0
   60.4020   33.9020   47.8660 C   0  0  0  0  0  0  0  0  0  0  0  0
   60.8030   34.1720   49.0670 N   0  0  0  0  0  0  0  0  0  0  0  0
   62.2000   34.3140   49.4330 C   0  0  0  0  0  0  0  0  0  0  0  0
   62.9930   33.0620   49.0490 C   0  0  0  0  0  0  0  0  0  0  0  0
   62.7560   32.7130   47.3180 S   0  0  0  0  0  0  0  0  0  0  0  0
   64.1420   33.0990   46.4530 O   0  0  0  0  0  0  0  0  0  0  0  0
   61.3910   33.7000   46.7390 C   0  0  0  0  0  0  0  0  0  0  0  0
   57.1200   34.2070   45.2300 C   0  0  0  0  0  0  0  0  0  0  0  0
   58.5490   34.5900   44.8880 C   0  0  0  0  0  0  0  0  0  0  0  0
   55.7938   29.3597   43.8668 H   0  0  0  0  0  0  0  0  0  0  0  0
   56.6942   30.3262   42.4939 H   0  0  0  0  0  0  0  0  0  0  0  0
   56.8060   30.7811   45.5437 H   0  0  0  0  0  0  0  0  0  0  0  0
   58.9469   31.6277   43.8482 H   0  0  0  0  0  0  0  0  0  0  0  0
   57.4983   32.6058   43.2737 H   0  0  0  0  0  0  0  0  0  0  0  0
   57.7593   32.0487   47.0375 H   0  0  0  0  0  0  0  0  0  0  0  0
   59.5064   32.0136   46.5232 H   0  0  0  0  0  0  0  0  0  0  0  0
   58.5630   34.7168   47.1679 H   0  0  0  0  0  0  0  0  0  0  0  0
   58.4340   33.5486   48.5574 H   0  0  0  0  0  0  0  0  0  0  0  0
   62.6234   35.1837   48.9092 H   0  0  0  0  0  0  0  0  0  0  0  0
   62.2666   34.4530   50.5221 H   0  0  0  0  0  0  0  0  0  0  0  0
   64.0620   33.2310   49.2455 H   0  0  0  0  0  0  0  0  0  0  0  0
   62.6398   32.2082   49.6458 H   0  0  0  0  0  0  0  0  0  0  0  0
   64.8000   32.4070   46.7180 H   0  0  0  0  0  0  0  0  0  0  0  0
   61.7635   34.6773   46.3983 H   0  0  0  0  0  0  0  0  0  0  0  0
   60.8947   33.1855   45.9030 H   0  0  0  0  0  0  0  0  0  0  0  0
   56.3473   34.2137   44.4471 H   0  0  0  0  0  0  0  0  0  0  0  0
   56.3790   34.5523   45.9660 H   0  0  0  0  0  0  0  0  0  0  0  0
   58.8098   34.8739   43.8577 H   0  0  0  0  0  0  0  0  0  0  0  0
   59.2683   35.3270   45.2746 H   0  0  0  0  0  0  0  0  0  0  0  0
  1  2  2  0
  2  3  1  0
  3  4  1  0
  4  5  1  0
  5  6  1  0
  6  7  1  0
  7  8  2  0
  8  9  1  0
  9 10  1  0
 10 11  1  0
 11 12  1  6
 11 13  1  0
  4 14  1  0
 14 15  1  0
 15  4  1  0
 13  7  1  0
  1 16  1  0
  1 17  1  0
  2 18  1  0
  3 19  1  0
  3 20  1  0
  5 21  1  0
  5 22  1  0
  6 23  1  0
  6 24  1  0
  9 25  1  0
  9 26  1  0
 10 27  1  0
 10 28  1  0
 12 29  1  0
 13 30  1  0
 13 31  1  0
 14 32  1  0
 14 33  1  0
 15 34  1  0
 15 35  1  0
M  CHG  1  11   1
M  END
>  <UniqueID>  (13) 
13

>  <SMILES>  (13) 
C=CCC1(CCC2=NCC[S@+](O)C2)CC1

>  <Energy>  (13) 
291.59522192849556

>  <Genealogy>  (13) 
C=CCC1(CCC2=NCC[S+](O)C2)CC1 (protonated)
C=CCC1(CCC2=NCC[S@+](O)C2)CC1 (chirality)
C=CCC1(CCC2=NCC[S@+](O)C2)CC1 (3D coordinates assigned)
C=CCC1(CCC2=NCC[S@+](O)C2)CC1 (nonaromatic ring conformer: 291.59522192849556 kcal/mol)

>  <smiles>  (13) 
C=CCC1(CCC2=NCC[S+]([O-])C2)CC1

>  <score_type>  (13) 
oracle

>  <origin>  (13) 
adg

>  <m_score__min__energy>  (13) 
-5.25

>  <m_primary>  (13) 
energy

$$$$
13:0
     RDKit          3D

 30 31  0  0  0  0  0  0  0  0999 V2000
   59.6340   31.2830   46.5070 C   0  0  0  0  0  0  0  0  0  0  0  0
   58.8540   30.2870   47.1600 O   0  0  0  0  0  0  0  0  0  0  0  0
   58.5020   29.0530   46.5920 C   0  0  0  0  0  0  0  0  0  0  0  0
   59.1180   27.8490   46.9790 C   0  0  0  0  0  0  0  0  0  0  0  0
   58.7410   26.6410   46.3910 C   0  0  0  0  0  0  0  0  0  0  0  0
   57.7470   26.6120   45.4030 C   0  0  0  0  0  0  0  0  0  0  0  0
   57.3560   25.3610   44.8010 N   0  0  0  0  0  0  0  0  0  0  0  0
   56.9550   24.3330   45.6080 C   0  0  0  0  0  0  0  0  0  0  0  0
   56.5620   23.1160   45.0590 C   0  0  0  0  0  0  0  0  0  0  0  0
   56.5870   22.9680   43.6760 C   0  0  0  0  0  0  0  0  0  0  0  0
   56.2340   21.8790   43.1510 O   0  0  0  0  0  0  0  0  0  0  0  0
   56.9940   24.0030   42.8930 N   0  0  0  0  0  0  0  0  0  0  0  0
   57.3800   25.1890   43.4410 C   0  0  0  0  0  0  0  0  0  0  0  0
   57.7740   26.1180   42.6830 O   0  0  0  0  0  0  0  0  0  0  0  0
   57.1260   27.8110   45.0180 C   0  0  0  0  0  0  0  0  0  0  0  0
   57.5010   29.0350   45.6070 C   0  0  0  0  0  0  0  0  0  0  0  0
   56.9010   30.2510   45.2440 O   0  0  0  0  0  0  0  0  0  0  0  0
   57.0000   30.8450   43.9530 C   0  0  0  0  0  0  0  0  0  0  0  0
   60.1282   31.9140   47.2604 H   0  0  0  0  0  0  0  0  0  0  0  0
   60.3954   30.7985   45.8780 H   0  0  0  0  0  0  0  0  0  0  0  0
   58.9811   31.9060   45.8780 H   0  0  0  0  0  0  0  0  0  0  0  0
   59.9022   27.8599   47.7503 H   0  0  0  0  0  0  0  0  0  0  0  0
   59.2270   25.7054   46.7048 H   0  0  0  0  0  0  0  0  0  0  0  0
   56.9429   24.4687   46.6995 H   0  0  0  0  0  0  0  0  0  0  0  0
   56.2380   22.2874   45.7059 H   0  0  0  0  0  0  0  0  0  0  0  0
   57.0160   23.8830   41.8550 H   0  0  0  0  0  0  0  0  0  0  0  0
   56.3393   27.7947   44.2493 H   0  0  0  0  0  0  0  0  0  0  0  0
   57.1800   31.9250   44.0591 H   0  0  0  0  0  0  0  0  0  0  0  0
   57.8342   30.3867   43.4015 H   0  0  0  0  0  0  0  0  0  0  0  0
   56.0623   30.6820   43.4015 H   0  0  0  0  0  0  0  0  0  0  0  0
  1  2  1  0
  2  3  1  0
  3  4  2  0
  4  5  1  0
  5  6  2  0
  6  7  1  0
  7  8  1  0
  8  9  2  0
  9 10  1  0
 10 11  2  0
 10 12  1  0
 12 13  1  0
 13 14  2  0
  6 15  1  0
 15 16  2  0
 16 17  1  0
 17 18  1  0
 16  3  1  0
 13  7  1  0
  1 19  1  0
  1 20  1  0
  1 21  1  0
  4 22  1  0
  5 23  1  0
  8 24  1  0
  9 25  1  0
 12 26  1  0
 15 27  1  0
 18 28  1  0
 18 29  1  0
 18 30  1  0
M  END
>  <UniqueID>  (14) 
14

>  <SMILES>  (14) 
COc1ccc(-n2ccc(=O)[nH]c2=O)cc1OC

>  <Energy>  (14) 
38.37391382561735

>  <Genealogy>  (14) 
COc1ccc(-n2ccc(=O)[nH]c2=O)cc1OC (3D coordinates assigned)
COc1ccc(-n2ccc(=O)[nH]c2=O)cc1OC (optimized conformer: 38.37391382561735 kcal/mol)

>  <smiles>  (14) 
COc1ccc(-n2ccc(=O)[nH]c2=O)cc1OC

>  <score_type>  (14) 
oracle

>  <origin>  (14) 
adg

>  <m_score__min__energy>  (14) 
-5.46

>  <m_primary>  (14) 
energy

$$$$
14:0
     RDKit          3D

 30 32  0  0  0  0  0  0  0  0999 V2000
   62.4110   34.2150   49.4810 C   0  0  0  0  0  0  0  0  0  0  0  0
   61.1440   34.6010   48.9570 O   0  0  0  0  0  0  0  0  0  0  0  0
   60.3680   33.8100   48.0970 C   0  0  0  0  0  0  0  0  0  0  0  0
   59.9790   32.5380   48.5340 C   0  0  0  0  0  0  0  0  0  0  0  0
   59.2060   31.7120   47.7150 C   0  0  0  0  0  0  0  0  0  0  0  0
   58.8230   32.1420   46.4340 C   0  0  0  0  0  0  0  0  0  0  0  0
   57.9750   31.2900   45.5730 C   0  0  0  0  0  0  0  0  0  0  0  0
   56.7480   31.7610   45.2240 N   0  0  0  0  0  0  0  0  0  0  0  0
   55.8990   31.0500   44.4820 N   0  0  0  0  0  0  0  0  0  0  0  0
   56.2140   29.8100   44.0320 C   0  0  0  0  0  0  0  0  0  0  0  0
   57.4640   29.2650   44.3310 C   0  0  0  0  0  0  0  0  0  0  0  0
   57.8210   27.9930   43.8560 C   0  0  0  0  0  0  0  0  0  0  0  0
   59.0850   27.4710   44.1330 C   0  0  0  0  0  0  0  0  0  0  0  0
   60.0040   28.2150   44.8750 C   0  0  0  0  0  0  0  0  0  0  0  0
   59.6610   29.4820   45.3560 C   0  0  0  0  0  0  0  0  0  0  0  0
   58.3790   30.0160   45.1080 C   0  0  0  0  0  0  0  0  0  0  0  0
   59.1930   33.4230   46.0010 C   0  0  0  0  0  0  0  0  0  0  0  0
   59.9670   34.2510   46.8220 C   0  0  0  0  0  0  0  0  0  0  0  0
   62.3722   34.2268   50.5803 H   0  0  0  0  0  0  0  0  0  0  0  0
   62.6579   33.2009   49.1337 H   0  0  0  0  0  0  0  0  0  0  0  0
   63.1814   34.9192   49.1337 H   0  0  0  0  0  0  0  0  0  0  0  0
   60.2847   32.1864   49.5305 H   0  0  0  0  0  0  0  0  0  0  0  0
   58.8957   30.7200   48.0749 H   0  0  0  0  0  0  0  0  0  0  0  0
   55.4890   29.2372   43.4351 H   0  0  0  0  0  0  0  0  0  0  0  0
   57.1027   27.4066   43.2642 H   0  0  0  0  0  0  0  0  0  0  0  0
   59.3580   26.4707   43.7658 H   0  0  0  0  0  0  0  0  0  0  0  0
   61.0025   27.8025   45.0821 H   0  0  0  0  0  0  0  0  0  0  0  0
   60.3948   30.0658   45.9310 H   0  0  0  0  0  0  0  0  0  0  0  0
   58.8733   33.7793   45.0106 H   0  0  0  0  0  0  0  0  0  0  0  0
   60.2630   35.2501   46.4695 H   0  0  0  0  0  0  0  0  0  0  0  0
  1  2  1  0
  2  3  1  0
  3  4  2  0
  4  5  1  0
  5  6  2  0
  6  7  1  0
  7  8  2  0
  8  9  1  0
  9 10  2  0
 10 11  1  0
 11 12  2  0
 12 13  1  0
 13 14  2  0
 14 15  1  0
 15 16  2  0
  6 17  1  0
 17 18  2  0
 18  3  1  0
 16  7  1  0
 16 11  1  0
  1 19  1  0
  1 20  1  0
  1 21  1  0
  4 22  1  0
  5 23  1  0
 10 24  1  0
 12 25  1  0
 13 26  1  0
 14 27  1  0
 15 28  1  0
 17 29  1  0
 18 30  1  0
M  END
>  <UniqueID>  (15) 
15

>  <SMILES>  (15) 
COc1ccc(-c2nncc3ccccc23)cc1

>  <Energy>  (15) 
44.830409247503546

>  <Genealogy>  (15) 
COc1ccc(-c2nncc3ccccc23)cc1 (3D coordinates assigned)
COc1ccc(-c2nncc3ccccc23)cc1 (optimized conformer: 44.830409247503546 kcal/mol)

>  <smiles>  (15) 
COc1ccc(-c2nncc3ccccc23)cc1

>  <score_type>  (15) 
oracle

>  <origin>  (15) 
adg

>  <m_score__min__energy>  (15) 
-6.7300000000000004

>  <m_primary>  (15) 
energy

$$$$
15:0
     RDKit          3D

 38 40  0  0  0  0  0  0  0  0999 V2000
   58.3108   34.0223   48.7304 H   0  0  0  0  0  0  0  0  0  0  0  0
   58.8800   33.7870   47.8190 C   0  0  0  0  0  0  0  0  0  0  0  0
   59.9760   34.4540   47.5940 N   0  0  0  0  0  0  0  0  0  0  0  0
   61.3190   33.9780   47.7610 C   0  0  0  0  0  0  0  0  0  0  0  0
   62.1270   33.8400   46.6250 C   0  0  0  0  0  0  0  0  0  0  0  0
   61.7245   34.0979   45.6343 H   0  0  0  0  0  0  0  0  0  0  0  0
   63.4410   33.3770   46.7410 C   0  0  0  0  0  0  0  0  0  0  0  0
   64.0753   33.2925   45.8463 H   0  0  0  0  0  0  0  0  0  0  0  0
   63.9480   33.0220   47.9920 C   0  0  0  0  0  0  0  0  0  0  0  0
   64.9879   32.6759   48.0856 H   0  0  0  0  0  0  0  0  0  0  0  0
   63.1350   33.1060   49.1260 C   0  0  0  0  0  0  0  0  0  0  0  0
   63.5323   32.8086   50.1077 H   0  0  0  0  0  0  0  0  0  0  0  0
   61.8170   33.5670   49.0180 C   0  0  0  0  0  0  0  0  0  0  0  0
   60.7970   33.5240   50.4520 Cl  0  0  0  0  0  0  0  0  0  0  0  0
   58.3540   32.7340   46.9260 C   0  0  0  0  0  0  0  0  0  0  0  0
   57.5790   32.8460   45.7760 C   0  0  0  0  0  0  0  0  0  0  0  0
   57.0490   34.0990   45.1560 C   0  0  0  0  0  0  0  0  0  0  0  0
   56.7515   34.8024   45.9477 H   0  0  0  0  0  0  0  0  0  0  0  0
   57.8300   34.5581   44.5321 H   0  0  0  0  0  0  0  0  0  0  0  0
   56.1756   33.8584   44.5321 H   0  0  0  0  0  0  0  0  0  0  0  0
   57.4030   31.6270   45.2250 N   0  0  0  0  0  0  0  0  0  0  0  0
   58.0490   30.7410   45.9710 N   0  0  0  0  0  0  0  0  0  0  0  0
   58.0940   29.3330   45.6680 C   0  0  0  0  0  0  0  0  0  0  0  0
   58.1660   28.3970   46.7130 C   0  0  0  0  0  0  0  0  0  0  0  0
   58.1855   28.7440   47.7566 H   0  0  0  0  0  0  0  0  0  0  0  0
   58.2130   27.0280   46.4360 C   0  0  0  0  0  0  0  0  0  0  0  0
   58.2556   26.3024   47.2616 H   0  0  0  0  0  0  0  0  0  0  0  0
   58.2060   26.5790   45.1140 C   0  0  0  0  0  0  0  0  0  0  0  0
   58.2272   25.5000   44.9010 H   0  0  0  0  0  0  0  0  0  0  0  0
   58.1720   27.5000   44.0570 C   0  0  0  0  0  0  0  0  0  0  0  0
   58.1440   27.0170   42.6360 C   0  0  0  0  0  0  0  0  0  0  0  0
   58.0803   25.9189   42.6232 H   0  0  0  0  0  0  0  0  0  0  0  0
   57.2689   27.4410   42.1218 H   0  0  0  0  0  0  0  0  0  0  0  0
   59.0622   27.3371   42.1218 H   0  0  0  0  0  0  0  0  0  0  0  0
   58.1050   28.8740   44.3380 C   0  0  0  0  0  0  0  0  0  0  0  0
   58.0607   29.5980   43.5111 H   0  0  0  0  0  0  0  0  0  0  0  0
   58.6530   31.3910   46.9870 C   0  0  0  0  0  0  0  0  0  0  0  0
   59.4060   30.8510   47.8410 O   0  0  0  0  0  0  0  0  0  0  0  0
  1  2  1  0
  2  3  2  0
  3  4  1  0
  4  5  2  0
  5  6  1  0
  5  7  1  0
  7  8  1  0
  7  9  2  0
  9 10  1  0
  9 11  1  0
 11 12  1  0
 11 13  2  0
 13 14  1  0
  2 15  1  0
 15 16  2  0
 16 17  1  0
 17 18  1  0
 17 19  1  0
 17 20  1  0
 16 21  1  0
 21 22  1  0
 22 23  1  0
 23 24  2  0
 24 25  1  0
 24 26  1  0
 26 27  1  0
 26 28  2  0
 28 29  1  0
 28 30  1  0
 30 31  1  0
 31 32  1  0
 31 33  1  0
 31 34  1  0
 30 35  2  0
 35 36  1  0
 22 37  1  0
 37 38  2  0
 13  4  1  0
 37 15  1  0
 35 23  1  0
M  CHG  1  21  -1
M  END
>  <UniqueID>  (16) 
16

>  <SMILES>  (16) 
Cc1cccc(-n2[n-]c(C)c(/C=N\c3ccccc3Cl)c2=O)c1

>  <Energy>  (16) 
88.78806531513503

>  <Genealogy>  (16) 
Cc1cccc(-n2[n-]c(C)c(C=Nc3ccccc3Cl)c2=O)c1 (protonated)
Cc1cccc(-n2[n-]c(C)c(/C=N\c3ccccc3Cl)c2=O)c1 (cis-trans isomerization)
Cc1cccc(-n2[n-]c(C)c(/C=N\c3ccccc3Cl)c2=O)c1 (3D coordinates assigned)
Cc1cccc(-n2[n-]c(C)c(/C=N\c3ccccc3Cl)c2=O)c1 (optimized conformer: 88.78806531513503 kcal/mol)

>  <smiles>  (16) 
Cc1cccc(-n2[nH]c(C)c(C=Nc3ccccc3Cl)c2=O)c1

>  <score_type>  (16) 
oracle

>  <origin>  (16) 
adg

>  <m_score__min__energy>  (16) 
-9.0199999999999996

>  <m_primary>  (16) 
energy

$$$$
16:0
     RDKit          3D

 39 38  0  0  0  0  0  0  0  0999 V2000
   58.2560   33.6650   46.8080 C   0  0  0  0  0  0  0  0  0  0  0  0
   59.3570   32.9360   46.0350 C   0  0  0  0  0  0  0  0  0  0  0  0
   59.5670   31.4710   46.5040 C   0  0  1  0  0  0  0  0  0  0  0  0
   59.2060   31.3260   47.9970 C   0  0  0  0  0  0  0  0  0  0  0  0
   58.7290   30.4800   45.6470 C   0  0  2  0  0  0  0  0  0  0  0  0
   57.3090   30.8990   45.6430 N   0  0  0  0  0  0  0  0  0  0  0  0
   56.7860   31.2730   44.3200 C   0  0  0  0  0  0  0  0  0  0  0  0
   55.7500   30.2570   43.7730 C   0  0  2  0  0  0  0  0  0  0  0  0
   55.2110   29.4580   44.8780 N   0  0  0  0  0  0  0  0  0  0  0  0
   56.3730   29.3310   42.7080 C   0  0  0  0  0  0  0  0  0  0  0  0
   57.5330   28.1370   43.4510 S   0  0  0  0  0  0  0  0  0  0  0  0
   58.8570   29.0650   46.1660 C   0  0  0  0  0  0  0  0  0  0  0  0
   59.9930   28.5250   46.2550 O   0  0  0  0  0  0  0  0  0  0  0  0
   57.6810   28.3280   46.5190 N   0  0  0  0  0  0  0  0  0  0  0  0
   57.6510   26.8770   46.6530 C   0  0  0  0  0  0  0  0  0  0  0  0
   56.2750   26.3610   46.3710 C   0  0  0  0  0  0  0  0  0  0  0  0
   55.4550   27.0620   45.7250 O   0  0  0  0  0  0  0  0  0  0  0  0
   55.9130   25.0860   46.7870 O   0  0  0  0  0  0  0  0  0  0  0  0
   58.4290   33.5504   47.8882 H   0  0  0  0  0  0  0  0  0  0  0  0
   58.2696   34.7332   46.5457 H   0  0  0  0  0  0  0  0  0  0  0  0
   57.2779   33.2355   46.5457 H   0  0  0  0  0  0  0  0  0  0  0  0
   59.0876   32.9263   44.9686 H   0  0  0  0  0  0  0  0  0  0  0  0
   60.2976   33.4759   46.2190 H   0  0  0  0  0  0  0  0  0  0  0  0
   60.6301   31.2223   46.3699 H   0  0  0  0  0  0  0  0  0  0  0  0
   60.0515   31.6656   48.6133 H   0  0  0  0  0  0  0  0  0  0  0  0
   58.3198   31.9379   48.2211 H   0  0  0  0  0  0  0  0  0  0  0  0
   58.9893   30.2711   48.2211 H   0  0  0  0  0  0  0  0  0  0  0  0
   59.1166   30.4976   44.6177 H   0  0  0  0  0  0  0  0  0  0  0  0
   56.6770   30.2010   46.1030 H   0  0  0  0  0  0  0  0  0  0  0  0
   56.3037   32.2585   44.3987 H   0  0  0  0  0  0  0  0  0  0  0  0
   57.6352   31.2883   43.6209 H   0  0  0  0  0  0  0  0  0  0  0  0
   54.9375   30.8223   43.2931 H   0  0  0  0  0  0  0  0  0  0  0  0
   55.9920   29.1650   45.5100 H   0  0  0  0  0  0  0  0  0  0  0  0
   54.7800   28.5880   44.4880 H   0  0  0  0  0  0  0  0  0  0  0  0
   55.5683   28.7784   42.2009 H   0  0  0  0  0  0  0  0  0  0  0  0
   56.9318   29.9547   41.9948 H   0  0  0  0  0  0  0  0  0  0  0  0
   56.7170   27.9210   44.5770 H   0  0  0  0  0  0  0  0  0  0  0  0
   58.3596   26.4314   45.9394 H   0  0  0  0  0  0  0  0  0  0  0  0
   57.9329   26.6053   47.6810 H   0  0  0  0  0  0  0  0  0  0  0  0
  1  2  1  0
  2  3  1  0
  3  4  1  0
  3  5  1  0
  5  6  1  0
  6  7  1  0
  7  8  1  0
  8  9  1  0
  8 10  1  0
 10 11  1  0
  5 12  1  0
 12 13  2  0
 12 14  1  0
 14 15  1  0
 15 16  1  0
 16 17  2  0
 16 18  1  0
  1 19  1  0
  1 20  1  0
  1 21  1  0
  2 22  1  0
  2 23  1  0
  3 24  1  1
  4 25  1  0
  4 26  1  0
  4 27  1  0
  5 28  1  6
  6 29  1  0
  7 30  1  0
  7 31  1  0
  8 32  1  6
  9 33  1  0
  9 34  1  0
 10 35  1  0
 10 36  1  0
 11 37  1  0
 15 38  1  0
 15 39  1  0
M  CHG  2  14  -1  18  -1
M  END
>  <UniqueID>  (17) 
17

>  <SMILES>  (17) 
CC[C@@H](C)[C@H](NCC(N)CS)C(=O)[N-]CC(=O)[O-]

>  <Energy>  (17) 
25.964702660002757

>  <Genealogy>  (17) 
CCC(C)C(NCC(N)CS)C(=O)[N-]CC(=O)[O-] (protonated)
CC[C@@H](C)[C@H](NCC(N)CS)C(=O)[N-]CC(=O)[O-] (chirality)
CC[C@@H](C)[C@H](NCC(N)CS)C(=O)[N-]CC(=O)[O-] (3D coordinates assigned)
CC[C@@H](C)[C@H](NCC(N)CS)C(=O)[N-]CC(=O)[O-] (optimized conformer: 25.964702660002757 kcal/mol)

>  <smiles>  (17) 
CCC(C)C(NCC(N)CS)C(=O)NCC(=O)O

>  <score_type>  (17) 
oracle

>  <origin>  (17) 
adg

>  <m_score__min__energy>  (17) 
-9.4900000000000002

>  <m_primary>  (17) 
energy

$$$$
17:0
     RDKit          3D

 43 45  0  0  0  0  0  0  0  0999 V2000
   60.3480   29.2550   45.9380 C   0  0  0  0  0  0  0  0  0  0  0  0
   59.1080   29.8780   46.5710 C   0  0  0  0  0  0  0  0  0  0  0  0
   58.4440   30.7850   45.6270 N   0  0  0  0  0  0  0  0  0  0  0  0
   58.7130   32.1990   45.6480 C   0  0  0  0  0  0  0  0  0  0  0  0
   57.9160   33.0810   44.8980 C   0  0  0  0  0  0  0  0  0  0  0  0
   58.1660   34.4560   44.9280 C   0  0  0  0  0  0  0  0  0  0  0  0
   59.2110   34.9620   45.7070 C   0  0  0  0  0  0  0  0  0  0  0  0
   60.0080   34.0920   46.4560 C   0  0  0  0  0  0  0  0  0  0  0  0
   59.7620   32.7160   46.4290 C   0  0  0  0  0  0  0  0  0  0  0  0
   57.3120   30.1330   44.4800 S   0  0  0  0  0  0  0  0  0  0  0  0
   55.9220   30.5600   44.8660 O   0  0  0  0  0  0  0  0  0  0  0  0
   57.6130   30.6410   43.0970 O   0  0  0  0  0  0  0  0  0  0  0  0
   57.4450   28.3770   44.4650 C   0  0  0  0  0  0  0  0  0  0  0  0
   57.7710   27.7230   43.2710 C   0  0  0  0  0  0  0  0  0  0  0  0
   57.8850   26.3310   43.2360 C   0  0  0  0  0  0  0  0  0  0  0  0
   57.6740   25.5770   44.3990 C   0  0  0  0  0  0  0  0  0  0  0  0
   57.7850   24.1800   44.3750 C   0  0  0  0  0  0  0  0  0  0  0  0
   57.5740   23.4390   45.5400 C   0  0  0  0  0  0  0  0  0  0  0  0
   57.2530   24.0750   46.7460 C   0  0  0  0  0  0  0  0  0  0  0  0
   57.0550   23.2800   47.8850 O   0  0  0  0  0  0  0  0  0  0  0  0
   55.8000   22.7360   48.2790 C   0  0  0  0  0  0  0  0  0  0  0  0
   57.1400   25.4790   46.7770 C   0  0  0  0  0  0  0  0  0  0  0  0
   57.3460   26.2330   45.6110 C   0  0  0  0  0  0  0  0  0  0  0  0
   57.2320   27.6320   45.6340 C   0  0  0  0  0  0  0  0  0  0  0  0
   61.0307   28.9120   46.7294 H   0  0  0  0  0  0  0  0  0  0  0  0
   60.0506   28.3993   45.3140 H   0  0  0  0  0  0  0  0  0  0  0  0
   60.8570   30.0044   45.3140 H   0  0  0  0  0  0  0  0  0  0  0  0
   58.4083   29.0789   46.8570 H   0  0  0  0  0  0  0  0  0  0  0  0
   59.4141   30.4524   47.4578 H   0  0  0  0  0  0  0  0  0  0  0  0
   57.0919   32.6875   44.2848 H   0  0  0  0  0  0  0  0  0  0  0  0
   57.5396   35.1410   44.3378 H   0  0  0  0  0  0  0  0  0  0  0  0
   59.4057   36.0444   45.7303 H   0  0  0  0  0  0  0  0  0  0  0  0
   60.8305   34.4906   47.0680 H   0  0  0  0  0  0  0  0  0  0  0  0
   60.3914   32.0352   47.0209 H   0  0  0  0  0  0  0  0  0  0  0  0
   57.9384   28.3085   42.3549 H   0  0  0  0  0  0  0  0  0  0  0  0
   58.1410   25.8252   42.2933 H   0  0  0  0  0  0  0  0  0  0  0  0
   58.0389   23.6659   43.4363 H   0  0  0  0  0  0  0  0  0  0  0  0
   57.6610   22.3429   45.5101 H   0  0  0  0  0  0  0  0  0  0  0  0
   55.7401   22.7100   49.3771 H   0  0  0  0  0  0  0  0  0  0  0  0
   54.9878   23.3628   47.8822 H   0  0  0  0  0  0  0  0  0  0  0  0
   55.7022   21.7147   47.8822 H   0  0  0  0  0  0  0  0  0  0  0  0
   56.8890   25.9870   47.7198 H   0  0  0  0  0  0  0  0  0  0  0  0
   56.9747   28.1456   46.5721 H   0  0  0  0  0  0  0  0  0  0  0  0
  1  2  1  0
  2  3  1  0
  3  4  1  0
  4  5  2  0
  5  6  1  0
  6  7  2  0
  7  8  1  0
  8  9  2  0
  3 10  1  0
 10 11  2  0
 10 12  2  0
 10 13  1  0
 13 14  2  0
 14 15  1  0
 15 16  2  0
 16 17  1  0
 17 18  2  0
 18 19  1  0
 19 20  1  0
 20 21  1  0
 19 22  2  0
 22 23  1  0
 23 24  2  0
  9  4  1  0
 24 13  1  0
 23 16  1  0
  1 25  1  0
  1 26  1  0
  1 27  1  0
  2 28  1  0
  2 29  1  0
  5 30  1  0
  6 31  1  0
  7 32  1  0
  8 33  1  0
  9 34  1  0
 14 35  1  0
 15 36  1  0
 17 37  1  0
 18 38  1  0
 21 39  1  0
 21 40  1  0
 21 41  1  0
 22 42  1  0
 24 43  1  0
M  END
>  <UniqueID>  (18) 
18

>  <SMILES>  (18) 
CCN(c1ccccc1)S(=O)(=O)c1ccc2ccc(OC)cc2c1

>  <Energy>  (18) 
49.69681993084129

>  <Genealogy>  (18) 
CCN(c1ccccc1)S(=O)(=O)c1ccc2ccc(OC)cc2c1 (3D coordinates assigned)
CCN(c1ccccc1)S(=O)(=O)c1ccc2ccc(OC)cc2c1 (optimized conformer: 49.69681993084129 kcal/mol)

>  <smiles>  (18) 
CCN(c1ccccc1)S(=O)(=O)c1ccc2ccc(OC)cc2c1

>  <score_type>  (18) 
oracle

>  <origin>  (18) 
adg

>  <m_score__min__energy>  (18) 
-8.6500000000000004

>  <m_primary>  (18) 
energy

$$$$
18:0
     RDKit          3D

 44 48  0  0  0  0  0  0  0  0999 V2000
   67.6300   32.8150   50.9510 C   0  0  0  0  0  0  0  0  0  0  0  0
   66.4120   33.3470   51.4620 O   0  0  0  0  0  0  0  0  0  0  0  0
   65.1910   33.3350   50.7710 C   0  0  0  0  0  0  0  0  0  0  0  0
   64.9470   32.4740   49.6840 C   0  0  0  0  0  0  0  0  0  0  0  0
   63.7140   32.5020   49.0250 C   0  0  0  0  0  0  0  0  0  0  0  0
   62.7120   33.3980   49.4310 C   0  0  0  0  0  0  0  0  0  0  0  0
   61.3950   33.4250   48.7580 C   0  0  0  0  0  0  0  0  0  0  0  0
   61.2840   33.9970   47.5220 N   0  0  0  0  0  0  0  0  0  0  0  0
   60.0920   34.0600   46.8570 C   0  0  0  0  0  0  0  0  0  0  0  0
   60.0140   34.6580   45.5940 C   0  0  0  0  0  0  0  0  0  0  0  0
   58.7870   34.7130   44.9240 C   0  0  0  0  0  0  0  0  0  0  0  0
   57.6360   34.1720   45.5100 C   0  0  0  0  0  0  0  0  0  0  0  0
   56.4530   34.2300   44.8510 F   0  0  0  0  0  0  0  0  0  0  0  0
   57.7040   33.5710   46.7710 C   0  0  0  0  0  0  0  0  0  0  0  0
   58.9310   33.5150   47.4510 C   0  0  0  0  0  0  0  0  0  0  0  0
   59.0610   32.9360   48.6740 N   0  0  0  0  0  0  0  0  0  0  0  0
   58.1140   32.3320   49.3720 N   0  0  0  0  0  0  0  0  0  0  0  0
   58.6930   31.8640   50.5030 C   0  0  0  0  0  0  0  0  0  0  0  0
   57.9540   31.1120   51.5470 C   0  0  0  0  0  0  0  0  0  0  0  0
   56.6700   31.5360   51.9400 C   0  0  0  0  0  0  0  0  0  0  0  0
   55.9630   30.8380   52.9230 C   0  0  0  0  0  0  0  0  0  0  0  0
   56.5260   29.7110   53.5260 C   0  0  0  0  0  0  0  0  0  0  0  0
   57.7980   29.2810   53.1460 C   0  0  0  0  0  0  0  0  0  0  0  0
   58.5110   29.9750   52.1630 C   0  0  0  0  0  0  0  0  0  0  0  0
   60.0510   32.1820   50.5070 C   0  0  0  0  0  0  0  0  0  0  0  0
   60.2330   32.8750   49.3260 C   0  0  0  0  0  0  0  0  0  0  0  0
   62.9510   34.2410   50.5280 C   0  0  0  0  0  0  0  0  0  0  0  0
   64.1840   34.2120   51.1850 C   0  0  0  0  0  0  0  0  0  0  0  0
   68.2847   32.5290   51.7874 H   0  0  0  0  0  0  0  0  0  0  0  0
   67.4136   31.9294   50.3354 H   0  0  0  0  0  0  0  0  0  0  0  0
   68.1326   33.5756   50.3354 H   0  0  0  0  0  0  0  0  0  0  0  0
   65.7298   31.7762   49.3517 H   0  0  0  0  0  0  0  0  0  0  0  0
   63.5279   31.8182   48.1837 H   0  0  0  0  0  0  0  0  0  0  0  0
   60.9154   35.0838   45.1291 H   0  0  0  0  0  0  0  0  0  0  0  0
   58.7261   35.1837   43.9317 H   0  0  0  0  0  0  0  0  0  0  0  0
   56.7994   33.1437   47.2284 H   0  0  0  0  0  0  0  0  0  0  0  0
   56.2202   32.4230   51.4699 H   0  0  0  0  0  0  0  0  0  0  0  0
   54.9604   31.1772   53.2226 H   0  0  0  0  0  0  0  0  0  0  0  0
   55.9676   29.1632   54.2993 H   0  0  0  0  0  0  0  0  0  0  0  0
   58.2413   28.3934   53.6210 H   0  0  0  0  0  0  0  0  0  0  0  0
   59.5134   29.6303   51.8692 H   0  0  0  0  0  0  0  0  0  0  0  0
   60.8023   31.9378   51.2725 H   0  0  0  0  0  0  0  0  0  0  0  0
   62.1637   34.9278   50.8721 H   0  0  0  0  0  0  0  0  0  0  0  0
   64.3639   34.8855   52.0359 H   0  0  0  0  0  0  0  0  0  0  0  0
  1  2  1  0
  2  3  1  0
  3  4  2  0
  4  5  1  0
  5  6  2  0
  6  7  1  0
  7  8  2  0
  8  9  1  0
  9 10  2  0
 10 11  1  0
 11 12  2  0
 12 13  1  0
 12 14  1  0
 14 15  2  0
 15 16  1  0
 16 17  1  0
 17 18  2  0
 18 19  1  0
 19 20  2  0
 20 21  1  0
 21 22  2  0
 22 23  1  0
 23 24  2  0
 18 25  1  0
 25 26  2  0
  6 27  1  0
 27 28  2  0
 28  3  1  0
 26  7  1  0
 15  9  1  0
 26 16  1  0
 24 19  1  0
  1 29  1  0
  1 30  1  0
  1 31  1  0
  4 32  1  0
  5 33  1  0
 10 34  1  0
 11 35  1  0
 14 36  1  0
 20 37  1  0
 21 38  1  0
 22 39  1  0
 23 40  1  0
 24 41  1  0
 25 42  1  0
 27 43  1  0
 28 44  1  0
M  END
>  <UniqueID>  (19) 
19

>  <SMILES>  (19) 
COc1ccc(-c2nc3ccc(F)cc3n3nc(-c4ccccc4)cc23)cc1

>  <Energy>  (19) 
96.56649487025054

>  <Genealogy>  (19) 
COc1ccc(-c2nc3ccc(F)cc3n3nc(-c4ccccc4)cc23)cc1 (3D coordinates assigned)
COc1ccc(-c2nc3ccc(F)cc3n3nc(-c4ccccc4)cc23)cc1 (optimized conformer: 96.56649487025054 kcal/mol)

>  <smiles>  (19) 
COc1ccc(-c2nc3ccc(F)cc3n3nc(-c4ccccc4)cc23)cc1

>  <score_type>  (19) 
oracle

>  <origin>  (19) 
adg

>  <m_score__min__energy>  (19) 
-7.4000000000000004

>  <m_primary>  (19) 
energy

$$$$
19:0
     RDKit          3D

 45 47  0  0  0  0  0  0  0  0999 V2000
   56.2330   29.7500   42.8070 C   0  0  0  0  0  0  0  0  0  0  0  0
   55.8890   30.3610   44.1670 C   0  0  0  0  0  0  0  0  0  0  0  0
   57.0120   31.0790   44.8190 N   0  0  0  0  0  0  0  0  0  0  0  0
   58.1190   30.2310   45.3130 C   0  0  0  0  0  0  0  0  0  0  0  0
   57.6250   28.8510   45.7460 C   0  0  0  0  0  0  0  0  0  0  0  0
   57.4280   32.3290   44.1370 C   0  0  0  0  0  0  0  0  0  0  0  0
   58.2210   33.3130   45.0250 C   0  0  0  0  0  0  0  0  0  0  0  0
   58.3010   32.8250   46.4030 N   0  0  0  0  0  0  0  0  0  0  0  0
   59.4420   33.0490   47.2530 C   0  0  0  0  0  0  0  0  0  0  0  0
   59.2950   33.8660   48.4000 C   0  0  0  0  0  0  0  0  0  0  0  0
   60.3820   34.1100   49.2540 C   0  0  0  0  0  0  0  0  0  0  0  0
   61.6080   33.5270   48.9440 C   0  0  0  0  0  0  0  0  0  0  0  0
   61.7710   32.7280   47.8300 C   0  0  0  0  0  0  0  0  0  0  0  0
   60.7030   32.4730   46.9690 C   0  0  0  0  0  0  0  0  0  0  0  0
   63.1800   32.2210   47.7170 C   0  0  0  0  0  0  0  0  0  0  0  0
   63.7970   32.8510   48.9310 C   0  0  0  0  0  0  0  0  0  0  0  0
   65.1180   32.7440   49.3710 C   0  0  0  0  0  0  0  0  0  0  0  0
   65.4940   33.4210   50.5450 C   0  0  0  0  0  0  0  0  0  0  0  0
   67.2910   33.2990   51.1770 Br  0  0  0  0  0  0  0  0  0  0  0  0
   64.5490   34.1900   51.2570 C   0  0  0  0  0  0  0  0  0  0  0  0
   63.2240   34.2870   50.8010 C   0  0  0  0  0  0  0  0  0  0  0  0
   62.8780   33.6060   49.6350 C   0  0  0  0  0  0  0  0  0  0  0  0
   56.7677   28.8004   42.9564 H   0  0  0  0  0  0  0  0  0  0  0  0
   55.3067   29.5646   42.2435 H   0  0  0  0  0  0  0  0  0  0  0  0
   56.8720   30.4458   42.2435 H   0  0  0  0  0  0  0  0  0  0  0  0
   55.0621   31.0724   44.0251 H   0  0  0  0  0  0  0  0  0  0  0  0
   55.6256   29.5233   44.8295 H   0  0  0  0  0  0  0  0  0  0  0  0
   58.8599   30.1083   44.5092 H   0  0  0  0  0  0  0  0  0  0  0  0
   58.5650   30.7255   46.1885 H   0  0  0  0  0  0  0  0  0  0  0  0
   57.6055   28.7966   46.8445 H   0  0  0  0  0  0  0  0  0  0  0  0
   56.6114   28.6843   45.3526 H   0  0  0  0  0  0  0  0  0  0  0  0
   58.3026   28.0789   45.3526 H   0  0  0  0  0  0  0  0  0  0  0  0
   58.0590   32.0574   43.2779 H   0  0  0  0  0  0  0  0  0  0  0  0
   56.5028   32.8480   43.8461 H   0  0  0  0  0  0  0  0  0  0  0  0
   59.2387   33.4220   44.6219 H   0  0  0  0  0  0  0  0  0  0  0  0
   57.7019   34.2828   45.0252 H   0  0  0  0  0  0  0  0  0  0  0  0
   57.4950   32.2840   46.7950 H   0  0  0  0  0  0  0  0  0  0  0  0
   58.3164   34.3153   48.6248 H   0  0  0  0  0  0  0  0  0  0  0  0
   60.2683   34.7452   50.1449 H   0  0  0  0  0  0  0  0  0  0  0  0
   60.8391   31.8345   46.0837 H   0  0  0  0  0  0  0  0  0  0  0  0
   63.2212   31.1228   47.7643 H   0  0  0  0  0  0  0  0  0  0  0  0
   63.6805   32.4673   46.7689 H   0  0  0  0  0  0  0  0  0  0  0  0
   65.8493   32.1427   48.8110 H   0  0  0  0  0  0  0  0  0  0  0  0
   64.8517   34.7164   52.1742 H   0  0  0  0  0  0  0  0  0  0  0  0
   62.4800   34.8839   51.3489 H   0  0  0  0  0  0  0  0  0  0  0  0
  1  2  1  0
  2  3  1  0
  3  4  1  0
  4  5  1  0
  3  6  1  0
  6  7  1  0
  7  8  1  0
  8  9  1  0
  9 10  2  0
 10 11  1  0
 11 12  2  0
 12 13  1  0
 13 14  2  0
 13 15  1  0
 15 16  1  0
 16 17  2  0
 17 18  1  0
 18 19  1  0
 18 20  2  0
 20 21  1  0
 21 22  2  0
 14  9  1  0
 22 16  1  0
 22 12  1  0
  1 23  1  0
  1 24  1  0
  1 25  1  0
  2 26  1  0
  2 27  1  0
  4 28  1  0
  4 29  1  0
  5 30  1  0
  5 31  1  0
  5 32  1  0
  6 33  1  0
  6 34  1  0
  7 35  1  0
  7 36  1  0
  8 37  1  0
 10 38  1  0
 11 39  1  0
 14 40  1  0
 15 41  1  0
 15 42  1  0
 17 43  1  0
 20 44  1  0
 21 45  1  0
M  END
>  <UniqueID>  (20) 
20

>  <SMILES>  (20) 
CCN(CC)CCNc1ccc2c(c1)Cc1cc(Br)ccc1-2

>  <Energy>  (20) 
72.93720221444526

>  <Genealogy>  (20) 
CCN(CC)CCNc1ccc2c(c1)Cc1cc(Br)ccc1-2 (3D coordinates assigned)
CCN(CC)CCNc1ccc2c(c1)Cc1cc(Br)ccc1-2 (nonaromatic ring conformer: 72.93720221444526 kcal/mol)

>  <smiles>  (20) 
CCN(CC)CCNc1ccc2c(c1)Cc1cc(Br)ccc1-2

>  <score_type>  (20) 
oracle

>  <origin>  (20) 
adg

>  <m_score__min__energy>  (20) 
-7.8300000000000001

>  <m_primary>  (20) 
energy

$$$$
20:0
     RDKit          3D

 34 35  0  0  0  0  0  0  0  0999 V2000
   57.7540   26.2570   44.9120 C   0  0  0  0  0  0  0  0  0  0  0  0
   56.9830   26.8360   46.0920 C   0  0  0  0  0  0  0  0  0  0  0  0
   55.9020   27.6950   45.6220 N   0  0  0  0  0  0  0  0  0  0  0  0
   56.1140   28.9520   44.9690 C   0  0  0  0  0  0  0  0  0  0  0  0
   55.1360   29.6380   44.5710 O   0  0  0  0  0  0  0  0  0  0  0  0
   57.4410   29.4360   44.7510 N   0  0  0  0  0  0  0  0  0  0  0  0
   57.8160   30.8010   44.9640 C   0  0  0  0  0  0  0  0  0  0  0  0
   58.3960   31.1510   46.1910 C   0  0  0  0  0  0  0  0  0  0  0  0
   58.7920   32.4670   46.4310 C   0  0  0  0  0  0  0  0  0  0  0  0
   58.5980   33.4490   45.4540 C   0  0  0  0  0  0  0  0  0  0  0  0
   58.0530   33.1060   44.2140 C   0  0  0  0  0  0  0  0  0  0  0  0
   57.6510   31.7830   43.9550 C   0  0  0  0  0  0  0  0  0  0  0  0
   57.1490   31.4310   42.5740 C   0  0  0  0  0  0  0  0  0  0  0  0
   57.8000   32.3210   41.5190 C   0  0  0  0  0  0  0  0  0  0  0  0
   58.9640   34.7690   45.7340 O   0  0  0  0  0  0  0  0  0  0  0  0
   59.2650   35.1840   47.0680 C   0  0  0  0  0  0  0  0  0  0  0  0
   60.0440   34.0860   47.8030 C   0  0  0  0  0  0  0  0  0  0  0  0
   59.3880   32.8250   47.6450 O   0  0  0  0  0  0  0  0  0  0  0  0
   58.5817   25.6354   45.2843 H   0  0  0  0  0  0  0  0  0  0  0  0
   57.0791   25.6406   44.3000 H   0  0  0  0  0  0  0  0  0  0  0  0
   58.1578   27.0770   44.3000 H   0  0  0  0  0  0  0  0  0  0  0  0
   56.5594   26.0133   46.6868 H   0  0  0  0  0  0  0  0  0  0  0  0
   57.6707   27.4336   46.7084 H   0  0  0  0  0  0  0  0  0  0  0  0
   58.5395   30.3853   46.9676 H   0  0  0  0  0  0  0  0  0  0  0  0
   57.9376   33.8749   43.4358 H   0  0  0  0  0  0  0  0  0  0  0  0
   57.3915   30.3799   42.3589 H   0  0  0  0  0  0  0  0  0  0  0  0
   56.0604   31.5860   42.5438 H   0  0  0  0  0  0  0  0  0  0  0  0
   58.3797   33.1135   42.0149 H   0  0  0  0  0  0  0  0  0  0  0  0
   58.4697   31.7153   40.8908 H   0  0  0  0  0  0  0  0  0  0  0  0
   57.0199   32.7757   40.8908 H   0  0  0  0  0  0  0  0  0  0  0  0
   59.8729   36.1002   47.0348 H   0  0  0  0  0  0  0  0  0  0  0  0
   58.3240   35.3759   47.6044 H   0  0  0  0  0  0  0  0  0  0  0  0
   61.0605   34.0214   47.3875 H   0  0  0  0  0  0  0  0  0  0  0  0
   60.0910   34.3345   48.8735 H   0  0  0  0  0  0  0  0  0  0  0  0
  1  2  1  0
  2  3  1  0
  3  4  1  0
  4  5  2  0
  4  6  1  0
  6  7  1  0
  7  8  2  0
  8  9  1  0
  9 10  2  0
 10 11  1  0
 11 12  2  0
 12 13  1  0
 13 14  1  0
 10 15  1  0
 15 16  1  0
 16 17  1  0
 17 18  1  0
 12  7  1  0
 18  9  1  0
  1 19  1  0
  1 20  1  0
  1 21  1  0
  2 22  1  0
  2 23  1  0
  8 24  1  0
 11 25  1  0
 13 26  1  0
 13 27  1  0
 14 28  1  0
 14 29  1  0
 14 30  1  0
 16 31  1  0
 16 32  1  0
 17 33  1  0
 17 34  1  0
M  CHG  2   3  -1   6  -1
M  END
>  <UniqueID>  (21) 
21

>  <SMILES>  (21) 
CC[N-]C(=O)[N-]c1cc2c(cc1CC)OCCO2

>  <Energy>  (21) 
33.66719708424313

>  <Genealogy>  (21) 
CC[N-]C(=O)[N-]c1cc2c(cc1CC)OCCO2 (protonated)
CC[N-]C(=O)[N-]c1cc2c(cc1CC)OCCO2 (3D coordinates assigned)
CC[N-]C(=O)[N-]c1cc2c(cc1CC)OCCO2 (nonaromatic ring conformer: 33.66719708424313 kcal/mol)

>  <smiles>  (21) 
CCNC(=O)Nc1cc2c(cc1CC)OCCO2

>  <score_type>  (21) 
oracle

>  <origin>  (21) 
adg

>  <m_score__min__energy>  (21) 
-10.029999999999999

>  <m_primary>  (21) 
energy

$$$$
21:0
     RDKit          3D

 60 62  0  0  0  0  0  0  0  0999 V2000
   57.4181   24.7281   46.8076 H   0  0  0  0  0  0  0  0  0  0  0  0
   57.8870   24.7570   45.8130 C   0  0  0  0  0  0  0  0  0  0  0  0
   58.7930   25.7190   45.5840 C   0  0  0  0  0  0  0  0  0  0  0  0
   59.8556   25.4361   45.6146 H   0  0  0  0  0  0  0  0  0  0  0  0
   58.4690   27.1290   45.2940 C   0  0  0  0  0  0  0  0  0  0  0  0
   58.9690   28.2090   45.9620 N   0  0  0  0  0  0  0  0  0  0  0  0
   59.9800   28.2300   47.0200 C   0  0  0  0  0  0  0  0  0  0  0  0
   59.4837   28.2197   48.0016 H   0  0  0  0  0  0  0  0  0  0  0  0
   60.6267   27.3451   46.9268 H   0  0  0  0  0  0  0  0  0  0  0  0
   60.5894   29.1410   46.9268 H   0  0  0  0  0  0  0  0  0  0  0  0
   58.3620   29.2690   45.3830 C   0  0  0  0  0  0  0  0  0  0  0  0
   58.4920   30.6370   45.6670 C   0  0  0  0  0  0  0  0  0  0  0  0
   59.3270   31.0610   46.7100 O   0  0  0  0  0  0  0  0  0  0  0  0
   58.9390   31.2140   48.0750 C   0  0  0  0  0  0  0  0  0  0  0  0
   59.2501   30.3236   48.6411 H   0  0  0  0  0  0  0  0  0  0  0  0
   57.8464   31.3324   48.1216 H   0  0  0  0  0  0  0  0  0  0  0  0
   59.5970   32.4560   48.6880 C   0  0  0  0  0  0  0  0  0  0  0  0
   60.3754   32.1347   49.3958 H   0  0  0  0  0  0  0  0  0  0  0  0
   58.8178   33.0408   49.1988 H   0  0  0  0  0  0  0  0  0  0  0  0
   60.2160   33.3160   47.6500 N   0  0  0  0  0  0  0  0  0  0  0  0
   59.2990   34.4150   47.2610 C   0  0  0  0  0  0  0  0  0  0  0  0
   59.4132   35.2476   47.9708 H   0  0  0  0  0  0  0  0  0  0  0  0
   58.2671   34.0343   47.2781 H   0  0  0  0  0  0  0  0  0  0  0  0
   59.6140   34.9160   45.8430 C   0  0  0  0  0  0  0  0  0  0  0  0
   60.5357   34.4320   45.4878 H   0  0  0  0  0  0  0  0  0  0  0  0
   59.7390   36.0083   45.8789 H   0  0  0  0  0  0  0  0  0  0  0  0
   58.4780   34.5910   44.8790 C   0  0  0  0  0  0  0  0  0  0  0  0
   57.5745   34.3325   45.4508 H   0  0  0  0  0  0  0  0  0  0  0  0
   58.2730   35.4665   44.2454 H   0  0  0  0  0  0  0  0  0  0  0  0
   58.7671   33.7395   44.2454 H   0  0  0  0  0  0  0  0  0  0  0  0
   61.5180   33.8490   48.1260 C   0  0  0  0  0  0  0  0  0  0  0  0
   61.5991   34.9101   47.8477 H   0  0  0  0  0  0  0  0  0  0  0  0
   61.5703   33.7406   49.2194 H   0  0  0  0  0  0  0  0  0  0  0  0
   62.6770   33.0700   47.4920 C   0  0  0  0  0  0  0  0  0  0  0  0
   63.4223   32.8455   48.2693 H   0  0  0  0  0  0  0  0  0  0  0  0
   62.2695   32.1460   47.0559 H   0  0  0  0  0  0  0  0  0  0  0  0
   63.3510   33.8640   46.3760 C   0  0  0  0  0  0  0  0  0  0  0  0
   64.0036   34.6327   46.8155 H   0  0  0  0  0  0  0  0  0  0  0  0
   63.9523   33.1845   45.7541 H   0  0  0  0  0  0  0  0  0  0  0  0
   62.5829   34.3469   45.7541 H   0  0  0  0  0  0  0  0  0  0  0  0
   57.7290   31.5350   44.8820 C   0  0  0  0  0  0  0  0  0  0  0  0
   57.7888   32.6157   45.0780 H   0  0  0  0  0  0  0  0  0  0  0  0
   56.8920   31.0570   43.8500 C   0  0  0  0  0  0  0  0  0  0  0  0
   56.3093   31.7688   43.2469 H   0  0  0  0  0  0  0  0  0  0  0  0
   56.7970   29.6810   43.5870 C   0  0  0  0  0  0  0  0  0  0  0  0
   56.1510   29.2978   42.7834 H   0  0  0  0  0  0  0  0  0  0  0  0
   57.5490   28.8200   44.3790 C   0  0  0  0  0  0  0  0  0  0  0  0
   57.6130   27.4810   44.3050 N   0  0  0  0  0  0  0  0  0  0  0  0
   57.0990   26.8510   43.6500 H   0  0  0  0  0  0  0  0  0  0  0  0
   57.4690   23.7310   44.8310 C   0  0  0  0  0  0  0  0  0  0  0  0
   58.1540   22.5060   44.7930 C   0  0  0  0  0  0  0  0  0  0  0  0
   58.9895   22.3248   45.4852 H   0  0  0  0  0  0  0  0  0  0  0  0
   57.7800   21.5150   43.8800 C   0  0  0  0  0  0  0  0  0  0  0  0
   58.3116   20.5521   43.8663 H   0  0  0  0  0  0  0  0  0  0  0  0
   56.7320   21.7460   42.9850 C   0  0  0  0  0  0  0  0  0  0  0  0
   56.4315   20.9612   42.2752 H   0  0  0  0  0  0  0  0  0  0  0  0
   56.0660   22.9740   42.9920 C   0  0  0  0  0  0  0  0  0  0  0  0
   55.2490   23.1596   42.2792 H   0  0  0  0  0  0  0  0  0  0  0  0
   56.4360   23.9670   43.9030 C   0  0  0  0  0  0  0  0  0  0  0  0
   55.9181   24.9374   43.8953 H   0  0  0  0  0  0  0  0  0  0  0  0
  1  2  1  0
  2  3  2  0
  3  4  1  0
  3  5  1  0
  5  6  1  0
  6  7  1  0
  7  8  1  0
  7  9  1  0
  7 10  1  0
  6 11  1  0
 11 12  2  0
 12 13  1  0
 13 14  1  0
 14 15  1  0
 14 16  1  0
 14 17  1  0
 17 18  1  0
 17 19  1  0
 17 20  1  0
 20 21  1  0
 21 22  1  0
 21 23  1  0
 21 24  1  0
 24 25  1  0
 24 26  1  0
 24 27  1  0
 27 28  1  0
 27 29  1  0
 27 30  1  0
 20 31  1  0
 31 32  1  0
 31 33  1  0
 31 34  1  0
 34 35  1  0
 34 36  1  0
 34 37  1  0
 37 38  1  0
 37 39  1  0
 37 40  1  0
 12 41  1  0
 41 42  1  0
 41 43  2  0
 43 44  1  0
 43 45  1  0
 45 46  1  0
 45 47  2  0
 47 48  1  0
 48 49  1  0
  2 50  1  0
 50 51  2  0
 51 52  1  0
 51 53  1  0
 53 54  1  0
 53 55  2  0
 55 56  1  0
 55 57  1  0
 57 58  1  0
 57 59  2  0
 59 60  1  0
 48  5  2  0
 59 50  1  0
 47 11  1  0
M  CHG  1  48   1
M  END
>  <UniqueID>  (22) 
22

>  <SMILES>  (22) 
CCCN(CCC)CCOc1cccc2[nH+]c(/C=C\c3ccccc3)n(C)c12

>  <Energy>  (22) 
100.11468936376262

>  <Genealogy>  (22) 
CCCN(CCC)CCOc1cccc2[nH+]c(C=Cc3ccccc3)n(C)c12 (protonated)
CCCN(CCC)CCOc1cccc2[nH+]c(/C=C\c3ccccc3)n(C)c12 (cis-trans isomerization)
CCCN(CCC)CCOc1cccc2[nH+]c(/C=C\c3ccccc3)n(C)c12 (3D coordinates assigned)
CCCN(CCC)CCOc1cccc2[nH+]c(/C=C\c3ccccc3)n(C)c12 (optimized conformer: 100.11468936376262 kcal/mol)

>  <smiles>  (22) 
CCCN(CCC)CCOc1cccc2nc(C=Cc3ccccc3)n(C)c12

>  <score_type>  (22) 
oracle

>  <origin>  (22) 
adg

>  <m_score__min__energy>  (22) 
-6.3700000000000001

>  <m_primary>  (22) 
energy

$$$$
22:0
     RDKit          3D

 32 35  0  0  0  0  0  0  0  0999 V2000
   56.6990   20.9400   43.4250 C   0  0  0  0  0  0  0  0  0  0  0  0
   55.8790   21.9240   44.0460 O   0  0  0  0  0  0  0  0  0  0  0  0
   56.2980   23.2270   44.3510 C   0  0  0  0  0  0  0  0  0  0  0  0
   56.9800   23.9530   43.3690 C   0  0  0  0  0  0  0  0  0  0  0  0
   57.4190   25.2560   43.6220 C   0  0  0  0  0  0  0  0  0  0  0  0
   57.1830   25.8600   44.8710 C   0  0  0  0  0  0  0  0  0  0  0  0
   57.6410   27.2420   45.1600 C   0  0  0  0  0  0  0  0  0  0  0  0
   56.8460   28.4010   45.1410 C   0  0  0  0  0  0  0  0  0  0  0  0
   57.6820   29.3880   45.4590 N   0  0  0  0  0  0  0  0  0  0  0  0
   57.5530   30.6970   45.6080 N   0  0  0  0  0  0  0  0  0  0  0  0
   58.7600   31.2330   45.9470 C   0  0  0  0  0  0  0  0  0  0  0  0
   58.9560   32.6690   46.1840 C   0  0  0  0  0  0  0  0  0  0  0  0
   59.0950   33.6510   45.2100 C   0  0  0  0  0  0  0  0  0  0  0  0
   59.2700   34.9350   45.7450 C   0  0  0  0  0  0  0  0  0  0  0  0
   59.2680   34.9660   47.1330 C   0  0  0  0  0  0  0  0  0  0  0  0
   59.0500   33.3970   47.6970 S   0  0  0  0  0  0  0  0  0  0  0  0
   60.0040   30.0410   46.0600 S   0  0  0  0  0  0  0  0  0  0  0  0
   58.8690   28.8780   45.6520 C   0  0  0  0  0  0  0  0  0  0  0  0
   58.9350   27.5470   45.4860 N   0  0  0  0  0  0  0  0  0  0  0  0
   56.4970   25.1270   45.8560 C   0  0  0  0  0  0  0  0  0  0  0  0
   56.0580   23.8250   45.6010 C   0  0  0  0  0  0  0  0  0  0  0  0
   57.1999   20.3390   44.1982 H   0  0  0  0  0  0  0  0  0  0  0  0
   56.0754   20.2853   42.7984 H   0  0  0  0  0  0  0  0  0  0  0  0
   57.4554   21.4353   42.7984 H   0  0  0  0  0  0  0  0  0  0  0  0
   57.1728   23.4942   42.3880 H   0  0  0  0  0  0  0  0  0  0  0  0
   57.9531   25.8136   42.8385 H   0  0  0  0  0  0  0  0  0  0  0  0
   55.7723   28.4762   44.9140 H   0  0  0  0  0  0  0  0  0  0  0  0
   59.0702   33.4421   44.1303 H   0  0  0  0  0  0  0  0  0  0  0  0
   59.3970   35.8336   45.1234 H   0  0  0  0  0  0  0  0  0  0  0  0
   59.3885   35.8637   47.7572 H   0  0  0  0  0  0  0  0  0  0  0  0
   56.3039   25.5836   46.8379 H   0  0  0  0  0  0  0  0  0  0  0  0
   55.5222   23.2652   46.3817 H   0  0  0  0  0  0  0  0  0  0  0  0
  1  2  1  0
  2  3  1  0
  3  4  2  0
  4  5  1  0
  5  6  2  0
  6  7  1  0
  7  8  2  0
  8  9  1  0
  9 10  1  0
 10 11  2  0
 11 12  1  0
 12 13  2  0
 13 14  1  0
 14 15  2  0
 15 16  1  0
 11 17  1  0
 17 18  1  0
 18 19  2  0
  6 20  1  0
 20 21  2  0
 21  3  1  0
 19  7  1  0
 18  9  1  0
 16 12  1  0
  1 22  1  0
  1 23  1  0
  1 24  1  0
  4 25  1  0
  5 26  1  0
  8 27  1  0
 13 28  1  0
 14 29  1  0
 15 30  1  0
 20 31  1  0
 21 32  1  0
M  END
>  <UniqueID>  (23) 
23

>  <SMILES>  (23) 
COc1ccc(-c2cn3nc(-c4cccs4)sc3n2)cc1

>  <Energy>  (23) 
146.57262635999038

>  <Genealogy>  (23) 
COc1ccc(-c2cn3nc(-c4cccs4)sc3n2)cc1 (3D coordinates assigned)
COc1ccc(-c2cn3nc(-c4cccs4)sc3n2)cc1 (optimized conformer: 146.57262635999038 kcal/mol)

>  <smiles>  (23) 
COc1ccc(-c2cn3nc(-c4cccs4)sc3n2)cc1

>  <score_type>  (23) 
oracle

>  <origin>  (23) 
adg

>  <m_score__min__energy>  (23) 
-6.7999999999999998

>  <m_primary>  (23) 
energy

$$$$
23:0
     RDKit          3D

 42 44  0  0  0  0  0  0  0  0999 V2000
   57.8080   30.5040   44.0570 C   0  0  0  0  0  0  0  0  0  0  0  0
   57.6640   31.7510   43.4420 C   0  0  0  0  0  0  0  0  0  0  0  0
   57.7660   32.9220   44.1990 C   0  0  0  0  0  0  0  0  0  0  0  0
   58.0030   32.8520   45.5820 C   0  0  0  0  0  0  0  0  0  0  0  0
   58.1490   34.1130   46.3930 C   0  0  0  0  0  0  0  0  0  0  0  0
   59.4480   34.8520   46.0090 C   0  0  0  0  0  0  0  0  0  0  0  0
   60.5640   34.6220   46.9500 N   0  0  0  0  0  0  0  0  0  0  0  0
   61.6840   33.8480   46.3580 C   0  0  0  0  0  0  0  0  0  0  0  0
   62.4300   32.9560   47.3710 C   0  0  0  0  0  0  0  0  0  0  0  0
   62.5010   33.5930   48.6950 N   0  0  0  0  0  0  0  0  0  0  0  0
   63.6430   33.3760   49.5500 C   0  0  0  0  0  0  0  0  0  0  0  0
   63.5700   33.6540   50.9270 C   0  0  0  0  0  0  0  0  0  0  0  0
   64.6890   33.4500   51.7340 C   0  0  0  0  0  0  0  0  0  0  0  0
   65.8730   32.9750   51.1720 C   0  0  0  0  0  0  0  0  0  0  0  0
   65.9200   32.7110   49.8020 C   0  0  0  0  0  0  0  0  0  0  0  0
   64.8200   32.9150   49.0260 N   0  0  0  0  0  0  0  0  0  0  0  0
   61.3110   34.2560   49.2460 C   0  0  0  0  0  0  0  0  0  0  0  0
   60.1330   34.1570   48.2790 C   0  0  0  0  0  0  0  0  0  0  0  0
   58.1620   31.5950   46.1900 C   0  0  0  0  0  0  0  0  0  0  0  0
   58.0590   30.4270   45.4300 C   0  0  0  0  0  0  0  0  0  0  0  0
   57.7238   29.5835   43.4607 H   0  0  0  0  0  0  0  0  0  0  0  0
   57.4702   31.8111   42.3609 H   0  0  0  0  0  0  0  0  0  0  0  0
   57.6603   33.9016   43.7100 H   0  0  0  0  0  0  0  0  0  0  0  0
   57.2878   34.7697   46.2002 H   0  0  0  0  0  0  0  0  0  0  0  0
   58.1911   33.8483   47.4598 H   0  0  0  0  0  0  0  0  0  0  0  0
   59.7596   34.5103   45.0109 H   0  0  0  0  0  0  0  0  0  0  0  0
   59.2240   35.9287   46.0337 H   0  0  0  0  0  0  0  0  0  0  0  0
   61.2787   33.2051   45.5628 H   0  0  0  0  0  0  0  0  0  0  0  0
   62.4128   34.5794   45.9787 H   0  0  0  0  0  0  0  0  0  0  0  0
   61.8989   31.9971   47.4630 H   0  0  0  0  0  0  0  0  0  0  0  0
   63.4558   32.7999   47.0059 H   0  0  0  0  0  0  0  0  0  0  0  0
   62.6342   34.0307   51.3655 H   0  0  0  0  0  0  0  0  0  0  0  0
   64.6374   33.6635   52.8119 H   0  0  0  0  0  0  0  0  0  0  0  0
   66.7602   32.8101   51.8010 H   0  0  0  0  0  0  0  0  0  0  0  0
   66.8493   32.3367   49.3477 H   0  0  0  0  0  0  0  0  0  0  0  0
   64.8900   32.6900   48.0100 H   0  0  0  0  0  0  0  0  0  0  0  0
   61.0380   33.7738   50.1962 H   0  0  0  0  0  0  0  0  0  0  0  0
   61.5445   35.3189   49.4067 H   0  0  0  0  0  0  0  0  0  0  0  0
   59.7968   33.1117   48.2130 H   0  0  0  0  0  0  0  0  0  0  0  0
   59.3022   34.7811   48.6399 H   0  0  0  0  0  0  0  0  0  0  0  0
   58.3684   31.5303   47.2685 H   0  0  0  0  0  0  0  0  0  0  0  0
   58.1756   29.4455   45.9128 H   0  0  0  0  0  0  0  0  0  0  0  0
  1  2  2  0
  2  3  1  0
  3  4  2  0
  4  5  1  0
  5  6  1  0
  6  7  1  0
  7  8  1  0
  8  9  1  0
  9 10  1  0
 10 11  1  0
 11 12  2  0
 12 13  1  0
 13 14  2  0
 14 15  1  0
 15 16  2  0
 10 17  1  0
 17 18  1  0
  4 19  1  0
 19 20  2  0
 20  1  1  0
 18  7  1  0
 16 11  1  0
  1 21  1  0
  2 22  1  0
  3 23  1  0
  5 24  1  0
  5 25  1  0
  6 26  1  0
  6 27  1  0
  8 28  1  0
  8 29  1  0
  9 30  1  0
  9 31  1  0
 12 32  1  0
 13 33  1  0
 14 34  1  0
 15 35  1  0
 16 36  1  0
 17 37  1  0
 17 38  1  0
 18 39  1  0
 18 40  1  0
 19 41  1  0
 20 42  1  0
M  CHG  1  16   1
M  END
>  <UniqueID>  (24) 
24

>  <SMILES>  (24) 
c1ccc(CCN2CCN(c3cccc[nH+]3)CC2)cc1

>  <Energy>  (24) 
53.472258977189675

>  <Genealogy>  (24) 
c1ccc(CCN2CCN(c3cccc[nH+]3)CC2)cc1 (protonated)
c1ccc(CCN2CCN(c3cccc[nH+]3)CC2)cc1 (3D coordinates assigned)
c1ccc(CCN2CCN(c3cccc[nH+]3)CC2)cc1 (nonaromatic ring conformer: 53.472258977189675 kcal/mol)

>  <smiles>  (24) 
c1ccc(CCN2CCN(c3ccccn3)CC2)cc1

>  <score_type>  (24) 
oracle

>  <origin>  (24) 
adg

>  <m_score__min__energy>  (24) 
-5.7000000000000002

>  <m_primary>  (24) 
energy

$$$$
24:0
     RDKit          3D

 42 44  0  0  0  0  0  0  0  0999 V2000
   63.3260   34.3040   50.5950 C   0  0  0  0  0  0  0  0  0  0  0  0
   62.3040   34.0420   49.5210 C   0  0  0  0  0  0  0  0  0  0  0  0
   60.9400   34.2070   49.8140 C   0  0  0  0  0  0  0  0  0  0  0  0
   59.9710   33.9760   48.8360 C   0  0  0  0  0  0  0  0  0  0  0  0
   60.3440   33.5790   47.5450 C   0  0  0  0  0  0  0  0  0  0  0  0
   59.3390   33.3320   46.5410 N   0  0  0  0  0  0  0  0  0  0  0  0
   58.8610   34.3890   45.8180 C   0  0  0  0  0  0  0  0  0  0  0  0
   57.8900   34.1990   44.8380 C   0  0  0  0  0  0  0  0  0  0  0  0
   57.3970   32.9200   44.6000 C   0  0  0  0  0  0  0  0  0  0  0  0
   57.8710   31.8310   45.3420 C   0  0  0  0  0  0  0  0  0  0  0  0
   57.3280   30.4760   45.0760 C   0  0  0  0  0  0  0  0  0  0  0  0
   56.2120   30.3590   44.4980 O   0  0  0  0  0  0  0  0  0  0  0  0
   58.0210   29.3020   45.5310 N   0  0  0  0  0  0  0  0  0  0  0  0
   57.7940   27.9830   45.0060 C   0  0  0  0  0  0  0  0  0  0  0  0
   57.3580   26.9630   45.8680 C   0  0  0  0  0  0  0  0  0  0  0  0
   57.1510   25.6670   45.3860 C   0  0  0  0  0  0  0  0  0  0  0  0
   56.7190   24.6950   46.2260 F   0  0  0  0  0  0  0  0  0  0  0  0
   57.3910   25.3750   44.0400 C   0  0  0  0  0  0  0  0  0  0  0  0
   57.1930   24.1160   43.5730 F   0  0  0  0  0  0  0  0  0  0  0  0
   57.8470   26.3770   43.1770 C   0  0  0  0  0  0  0  0  0  0  0  0
   58.0970   26.0900   41.8760 F   0  0  0  0  0  0  0  0  0  0  0  0
   58.0540   27.6740   43.6580 C   0  0  0  0  0  0  0  0  0  0  0  0
   58.8760   32.0580   46.3080 C   0  0  0  0  0  0  0  0  0  0  0  0
   59.3770   31.0840   46.9360 O   0  0  0  0  0  0  0  0  0  0  0  0
   61.7050   33.4120   47.2450 C   0  0  0  0  0  0  0  0  0  0  0  0
   62.6910   33.6470   48.2180 C   0  0  0  0  0  0  0  0  0  0  0  0
   64.1410   33.4530   47.8590 C   0  0  0  0  0  0  0  0  0  0  0  0
   62.8582   34.1841   51.5833 H   0  0  0  0  0  0  0  0  0  0  0  0
   64.1563   33.5897   50.4932 H   0  0  0  0  0  0  0  0  0  0  0  0
   63.7102   35.3297   50.4932 H   0  0  0  0  0  0  0  0  0  0  0  0
   60.6329   34.5209   50.8226 H   0  0  0  0  0  0  0  0  0  0  0  0
   58.9065   34.1066   49.0807 H   0  0  0  0  0  0  0  0  0  0  0  0
   59.2474   35.4004   46.0123 H   0  0  0  0  0  0  0  0  0  0  0  0
   57.5155   35.0541   44.2562 H   0  0  0  0  0  0  0  0  0  0  0  0
   56.6316   32.7635   43.8256 H   0  0  0  0  0  0  0  0  0  0  0  0
   58.6470   29.3990   46.3630 H   0  0  0  0  0  0  0  0  0  0  0  0
   57.1781   27.1856   46.9301 H   0  0  0  0  0  0  0  0  0  0  0  0
   58.4221   28.4569   42.9787 H   0  0  0  0  0  0  0  0  0  0  0  0
   62.0034   33.0931   46.2354 H   0  0  0  0  0  0  0  0  0  0  0  0
   64.7389   33.3730   48.7788 H   0  0  0  0  0  0  0  0  0  0  0  0
   64.2524   32.5320   47.2680 H   0  0  0  0  0  0  0  0  0  0  0  0
   64.4906   34.3124   47.2680 H   0  0  0  0  0  0  0  0  0  0  0  0
  1  2  1  0
  2  3  2  0
  3  4  1  0
  4  5  2  0
  5  6  1  0
  6  7  1  0
  7  8  2  0
  8  9  1  0
  9 10  2  0
 10 11  1  0
 11 12  2  0
 11 13  1  0
 13 14  1  0
 14 15  2  0
 15 16  1  0
 16 17  1  0
 16 18  2  0
 18 19  1  0
 18 20  1  0
 20 21  1  0
 20 22  2  0
 10 23  1  0
 23 24  2  0
  5 25  1  0
 25 26  2  0
 26 27  1  0
 26  2  1  0
 23  6  1  0
 22 14  1  0
  1 28  1  0
  1 29  1  0
  1 30  1  0
  3 31  1  0
  4 32  1  0
  7 33  1  0
  8 34  1  0
  9 35  1  0
 13 36  1  0
 15 37  1  0
 22 38  1  0
 25 39  1  0
 27 40  1  0
 27 41  1  0
 27 42  1  0
M  END
>  <UniqueID>  (25) 
25

>  <SMILES>  (25) 
Cc1ccc(-n2cccc(C(=O)Nc3cc(F)c(F)c(F)c3)c2=O)cc1C

>  <Energy>  (25) 
61.49830379842121

>  <Genealogy>  (25) 
Cc1ccc(-n2cccc(C(=O)Nc3cc(F)c(F)c(F)c3)c2=O)cc1C (3D coordinates assigned)
Cc1ccc(-n2cccc(C(=O)Nc3cc(F)c(F)c(F)c3)c2=O)cc1C (optimized conformer: 61.49830379842121 kcal/mol)

>  <smiles>  (25) 
Cc1ccc(-n2cccc(C(=O)Nc3cc(F)c(F)c(F)c3)c2=O)cc1C

>  <score_type>  (25) 
oracle

>  <origin>  (25) 
adg

>  <m_score__min__energy>  (25) 
-8.0600000000000005

>  <m_primary>  (25) 
energy

$$$$
25:0
     RDKit          3D

 29 30  0  0  0  0  0  0  0  0999 V2000
   57.3890   32.0540   41.3740 C   0  0  0  0  0  0  0  0  0  0  0  0
   57.0620   31.2230   42.6090 C   0  0  0  0  0  0  0  0  0  0  0  0
   57.3870   31.9720   43.8190 N   0  0  0  0  0  0  0  0  0  0  0  0
   58.1370   33.0890   43.8770 C   0  0  0  0  0  0  0  0  0  0  0  0
   58.2590   33.4330   45.2060 C   0  0  0  0  0  0  0  0  0  0  0  0
   58.9530   34.5150   45.7610 O   0  0  0  0  0  0  0  0  0  0  0  0
   59.0430   34.7550   47.1640 C   0  0  0  0  0  0  0  0  0  0  0  0
   60.3540   34.2510   47.7060 C   0  0  0  0  0  0  0  0  0  0  0  0
   60.5710   34.2210   49.0910 C   0  0  0  0  0  0  0  0  0  0  0  0
   61.7850   33.7430   49.5850 C   0  0  0  0  0  0  0  0  0  0  0  0
   62.7700   33.3040   48.7000 C   0  0  0  0  0  0  0  0  0  0  0  0
   64.4360   32.6440   49.3600 Br  0  0  0  0  0  0  0  0  0  0  0  0
   62.5240   33.3540   47.3250 C   0  0  0  0  0  0  0  0  0  0  0  0
   61.3350   33.8240   46.8570 N   0  0  0  0  0  0  0  0  0  0  0  0
   57.5600   32.4780   45.9100 C   0  0  0  0  0  0  0  0  0  0  0  0
   57.0420   31.5880   45.0400 N   0  0  0  0  0  0  0  0  0  0  0  0
   57.7754   33.0360   41.6846 H   0  0  0  0  0  0  0  0  0  0  0  0
   58.1496   31.5340   40.7730 H   0  0  0  0  0  0  0  0  0  0  0  0
   56.4780   32.1918   40.7730 H   0  0  0  0  0  0  0  0  0  0  0  0
   55.9894   30.9788   42.6095 H   0  0  0  0  0  0  0  0  0  0  0  0
   57.6568   30.2980   42.5879 H   0  0  0  0  0  0  0  0  0  0  0  0
   58.5718   33.6272   43.0219 H   0  0  0  0  0  0  0  0  0  0  0  0
   58.9664   35.8362   47.3512 H   0  0  0  0  0  0  0  0  0  0  0  0
   58.2232   34.2220   47.6677 H   0  0  0  0  0  0  0  0  0  0  0  0
   59.7904   34.5715   49.7823 H   0  0  0  0  0  0  0  0  0  0  0  0
   61.9651   33.7123   50.6697 H   0  0  0  0  0  0  0  0  0  0  0  0
   63.2943   33.0122   46.6180 H   0  0  0  0  0  0  0  0  0  0  0  0
   61.1830   33.8490   45.8250 H   0  0  0  0  0  0  0  0  0  0  0  0
   57.4434   32.4465   47.0033 H   0  0  0  0  0  0  0  0  0  0  0  0
  1  2  1  0
  2  3  1  0
  3  4  1  0
  4  5  2  0
  5  6  1  0
  6  7  1  0
  7  8  1  0
  8  9  2  0
  9 10  1  0
 10 11  2  0
 11 12  1  0
 11 13  1  0
 13 14  2  0
  5 15  1  0
 15 16  2  0
 16  3  1  0
 14  8  1  0
  1 17  1  0
  1 18  1  0
  1 19  1  0
  2 20  1  0
  2 21  1  0
  4 22  1  0
  7 23  1  0
  7 24  1  0
  9 25  1  0
 10 26  1  0
 13 27  1  0
 14 28  1  0
 15 29  1  0
M  CHG  1  14   1
M  END
>  <UniqueID>  (26) 
26

>  <SMILES>  (26) 
CCn1cc(OCc2ccc(Br)c[nH+]2)cn1

>  <Energy>  (26) 
53.978870700394765

>  <Genealogy>  (26) 
CCn1cc(OCc2ccc(Br)c[nH+]2)cn1 (protonated)
CCn1cc(OCc2ccc(Br)c[nH+]2)cn1 (3D coordinates assigned)
CCn1cc(OCc2ccc(Br)c[nH+]2)cn1 (optimized conformer: 53.978870700394765 kcal/mol)

>  <smiles>  (26) 
CCn1cc(OCc2ccc(Br)cn2)cn1

>  <score_type>  (26) 
oracle

>  <origin>  (26) 
adg

>  <m_score__min__energy>  (26) 
-4.1500000000000004

>  <m_primary>  (26) 
energy

$$$$
26:0
     RDKit          3D

 49 51  0  0  0  0  0  0  0  0999 V2000
   60.7380   27.8240   45.5940 C   0  0  0  0  0  0  0  0  0  0  0  0
   60.6320   26.4740   46.3160 C   0  0  0  0  0  0  0  0  0  0  0  0
   60.7480   26.6890   47.8240 C   0  0  0  0  0  0  0  0  0  0  0  0
   59.3850   25.8520   46.0570 O   0  0  0  0  0  0  0  0  0  0  0  0
   58.5540   25.8560   47.2030 C   0  0  0  0  0  0  0  0  0  0  0  0
   57.0890   25.7980   46.7690 C   0  0  0  0  0  0  0  0  0  0  0  0
   56.8710   26.4940   45.4250 C   0  0  0  0  0  0  0  0  0  0  0  0
   56.0440   27.6770   45.6160 N   0  0  0  0  0  0  0  0  0  0  0  0
   56.2580   28.9480   44.9850 C   0  0  0  0  0  0  0  0  0  0  0  0
   55.2800   29.7300   44.8620 O   0  0  0  0  0  0  0  0  0  0  0  0
   57.6040   29.3640   44.4420 C   0  0  0  0  0  0  0  0  0  0  0  0
   58.1440   30.5170   45.2050 N   0  0  0  0  0  0  0  0  0  0  0  0
   58.3020   31.7040   44.5340 C   0  0  0  0  0  0  0  0  0  0  0  0
   58.0560   31.7640   43.2950 O   0  0  0  0  0  0  0  0  0  0  0  0
   58.7320   32.8640   45.1990 C   0  0  0  0  0  0  0  0  0  0  0  0
   58.8610   34.0800   44.4940 C   0  0  0  0  0  0  0  0  0  0  0  0
   59.2610   35.2410   45.1480 C   0  0  0  0  0  0  0  0  0  0  0  0
   59.5360   35.2110   46.5090 C   0  0  0  0  0  0  0  0  0  0  0  0
   59.4220   34.0180   47.2240 C   0  0  0  0  0  0  0  0  0  0  0  0
   59.0290   32.8150   46.5820 C   0  0  0  0  0  0  0  0  0  0  0  0
   58.9400   31.5680   47.2600 C   0  0  0  0  0  0  0  0  0  0  0  0
   59.2920   31.4260   48.6270 C   0  0  0  0  0  0  0  0  0  0  0  0
   59.2310   30.1890   49.2630 C   0  0  0  0  0  0  0  0  0  0  0  0
   58.8330   29.0650   48.5600 C   0  0  0  0  0  0  0  0  0  0  0  0
   58.4810   29.1660   47.2190 C   0  0  0  0  0  0  0  0  0  0  0  0
   58.5060   30.4130   46.5380 C   0  0  0  0  0  0  0  0  0  0  0  0
   60.8015   28.6330   46.3366 H   0  0  0  0  0  0  0  0  0  0  0  0
   61.6396   27.8330   44.9639 H   0  0  0  0  0  0  0  0  0  0  0  0
   59.8488   27.9736   44.9639 H   0  0  0  0  0  0  0  0  0  0  0  0
   61.4445   25.8309   45.9468 H   0  0  0  0  0  0  0  0  0  0  0  0
   60.2897   25.8396   48.3518 H   0  0  0  0  0  0  0  0  0  0  0  0
   61.8093   26.7646   48.1030 H   0  0  0  0  0  0  0  0  0  0  0  0
   60.2285   27.6176   48.1030 H   0  0  0  0  0  0  0  0  0  0  0  0
   58.7865   24.9810   47.8278 H   0  0  0  0  0  0  0  0  0  0  0  0
   58.7297   26.7755   47.7807 H   0  0  0  0  0  0  0  0  0  0  0  0
   56.7851   24.7447   46.6788 H   0  0  0  0  0  0  0  0  0  0  0  0
   56.4852   26.3181   47.5272 H   0  0  0  0  0  0  0  0  0  0  0  0
   57.8431   26.7909   45.0046 H   0  0  0  0  0  0  0  0  0  0  0  0
   56.3663   25.8032   44.7336 H   0  0  0  0  0  0  0  0  0  0  0  0
   58.3029   28.5184   44.5227 H   0  0  0  0  0  0  0  0  0  0  0  0
   57.4843   29.6612   43.3897 H   0  0  0  0  0  0  0  0  0  0  0  0
   58.6430   34.1100   43.4162 H   0  0  0  0  0  0  0  0  0  0  0  0
   59.3594   36.1823   44.5874 H   0  0  0  0  0  0  0  0  0  0  0  0
   59.8450   36.1316   47.0256 H   0  0  0  0  0  0  0  0  0  0  0  0
   59.6402   34.0100   48.3021 H   0  0  0  0  0  0  0  0  0  0  0  0
   59.6191   32.3095   49.1948 H   0  0  0  0  0  0  0  0  0  0  0  0
   59.4996   30.1047   50.3264 H   0  0  0  0  0  0  0  0  0  0  0  0
   58.7951   28.0882   49.0644 H   0  0  0  0  0  0  0  0  0  0  0  0
   58.1765   28.2609   46.6731 H   0  0  0  0  0  0  0  0  0  0  0  0
  1  2  1  0
  2  3  1  0
  2  4  1  0
  4  5  1  0
  5  6  1  0
  6  7  1  0
  7  8  1  0
  8  9  1  0
  9 10  2  0
  9 11  1  0
 11 12  1  0
 12 13  1  0
 13 14  2  0
 13 15  1  0
 15 16  2  0
 16 17  1  0
 17 18  2  0
 18 19  1  0
 19 20  2  0
 20 21  1  0
 21 22  2  0
 22 23  1  0
 23 24  2  0
 24 25  1  0
 25 26  2  0
 26 12  1  0
 20 15  1  0
 26 21  1  0
  1 27  1  0
  1 28  1  0
  1 29  1  0
  2 30  1  0
  3 31  1  0
  3 32  1  0
  3 33  1  0
  5 34  1  0
  5 35  1  0
  6 36  1  0
  6 37  1  0
  7 38  1  0
  7 39  1  0
 11 40  1  0
 11 41  1  0
 16 42  1  0
 17 43  1  0
 18 44  1  0
 19 45  1  0
 22 46  1  0
 23 47  1  0
 24 48  1  0
 25 49  1  0
M  CHG  1   8  -1
M  END
>  <UniqueID>  (27) 
27

>  <SMILES>  (27) 
CC(C)OCCC[N-]C(=O)Cn1c(=O)c2ccccc2c2ccccc21

>  <Energy>  (27) 
65.40860811240121

>  <Genealogy>  (27) 
CC(C)OCCC[N-]C(=O)Cn1c(=O)c2ccccc2c2ccccc21 (protonated)
CC(C)OCCC[N-]C(=O)Cn1c(=O)c2ccccc2c2ccccc21 (3D coordinates assigned)
CC(C)OCCC[N-]C(=O)Cn1c(=O)c2ccccc2c2ccccc21 (optimized conformer: 65.40860811240121 kcal/mol)

>  <smiles>  (27) 
CC(C)OCCCNC(=O)Cn1c(=O)c2ccccc2c2ccccc21

>  <score_type>  (27) 
oracle

>  <origin>  (27) 
adg

>  <m_score__min__energy>  (27) 
-10.26

>  <m_primary>  (27) 
energy

$$$$
27:0
     RDKit          3D

 33 34  0  0  0  0  0  0  0  0999 V2000
   57.8260   26.8970   45.0070 C   0  0  0  0  0  0  0  0  0  0  0  0
   58.1560   27.6180   43.7060 C   0  0  0  0  0  0  0  0  0  0  0  0
   57.2420   28.6880   43.4780 O   0  0  0  0  0  0  0  0  0  0  0  0
   56.7040   29.4800   44.5010 C   0  0  0  0  0  0  0  0  0  0  0  0
   55.4940   29.3380   44.8300 O   0  0  0  0  0  0  0  0  0  0  0  0
   57.5490   30.4920   45.1960 C   0  0  0  0  0  0  0  0  0  0  0  0
   58.1800   30.1550   46.4010 C   0  0  0  0  0  0  0  0  0  0  0  0
   58.9760   31.0430   47.0750 N   0  0  0  0  0  0  0  0  0  0  0  0
   59.5970   30.5680   48.3300 C   0  0  0  0  0  0  0  0  0  0  0  0
   59.5710   29.0440   48.4020 C   0  0  0  0  0  0  0  0  0  0  0  0
   59.1430   32.3290   46.6000 C   0  0  0  0  0  0  0  0  0  0  0  0
   59.9120   33.2960   47.2960 C   0  0  0  0  0  0  0  0  0  0  0  0
   60.0770   34.5850   46.7870 C   0  0  0  0  0  0  0  0  0  0  0  0
   59.4820   34.9450   45.5810 C   0  0  0  0  0  0  0  0  0  0  0  0
   59.6480   36.1990   45.0940 F   0  0  0  0  0  0  0  0  0  0  0  0
   58.7110   34.0200   44.8800 C   0  0  0  0  0  0  0  0  0  0  0  0
   58.5280   32.7130   45.3770 C   0  0  0  0  0  0  0  0  0  0  0  0
   57.7360   31.7860   44.6790 C   0  0  0  0  0  0  0  0  0  0  0  0
   57.1920   32.1190   43.5890 O   0  0  0  0  0  0  0  0  0  0  0  0
   58.1151   27.5287   45.8598 H   0  0  0  0  0  0  0  0  0  0  0  0
   56.7456   26.6946   45.0502 H   0  0  0  0  0  0  0  0  0  0  0  0
   58.3790   25.9471   45.0502 H   0  0  0  0  0  0  0  0  0  0  0  0
   59.1774   28.0219   43.7659 H   0  0  0  0  0  0  0  0  0  0  0  0
   58.0773   26.9020   42.8746 H   0  0  0  0  0  0  0  0  0  0  0  0
   58.0318   29.1479   46.8179 H   0  0  0  0  0  0  0  0  0  0  0  0
   60.6406   30.9135   48.3697 H   0  0  0  0  0  0  0  0  0  0  0  0
   59.0284   30.9718   49.1807 H   0  0  0  0  0  0  0  0  0  0  0  0
   59.5656   28.7267   49.4552 H   0  0  0  0  0  0  0  0  0  0  0  0
   58.6663   28.6687   47.9013 H   0  0  0  0  0  0  0  0  0  0  0  0
   60.4623   28.6380   47.9013 H   0  0  0  0  0  0  0  0  0  0  0  0
   60.3856   33.0261   48.2514 H   0  0  0  0  0  0  0  0  0  0  0  0
   60.6798   35.3196   47.3411 H   0  0  0  0  0  0  0  0  0  0  0  0
   58.2405   34.3121   43.9296 H   0  0  0  0  0  0  0  0  0  0  0  0
  1  2  1  0
  2  3  1  0
  3  4  1  0
  4  5  2  0
  4  6  1  0
  6  7  2  0
  7  8  1  0
  8  9  1  0
  9 10  1  0
  8 11  1  0
 11 12  2  0
 12 13  1  0
 13 14  2  0
 14 15  1  0
 14 16  1  0
 16 17  2  0
 17 18  1  0
 18 19  2  0
 18  6  1  0
 17 11  1  0
  1 20  1  0
  1 21  1  0
  1 22  1  0
  2 23  1  0
  2 24  1  0
  7 25  1  0
  9 26  1  0
  9 27  1  0
 10 28  1  0
 10 29  1  0
 10 30  1  0
 12 31  1  0
 13 32  1  0
 16 33  1  0
M  END
>  <UniqueID>  (28) 
28

>  <SMILES>  (28) 
CCOC(=O)c1cn(CC)c2ccc(F)cc2c1=O

>  <Energy>  (28) 
39.09185405235399

>  <Genealogy>  (28) 
CCOC(=O)c1cn(CC)c2ccc(F)cc2c1=O (3D coordinates assigned)
CCOC(=O)c1cn(CC)c2ccc(F)cc2c1=O (optimized conformer: 39.09185405235399 kcal/mol)

>  <smiles>  (28) 
CCOC(=O)c1cn(CC)c2ccc(F)cc2c1=O

>  <score_type>  (28) 
oracle

>  <origin>  (28) 
adg

>  <m_score__min__energy>  (28) 
-5.96

>  <m_primary>  (28) 
energy

$$$$
28:0
     RDKit          3D

 49 50  0  0  0  0  0  0  0  0999 V2000
   63.3050   33.8360   46.3880 C   0  0  0  0  0  0  0  0  0  0  0  0
   63.3030   33.3050   47.8220 C   0  0  0  0  0  0  0  0  0  0  0  0
   62.1020   33.8200   48.6420 C   0  0  0  0  0  0  0  0  0  0  0  0
   60.7960   33.4280   48.0530 N   0  0  0  0  0  0  0  0  0  0  0  0
   60.0040   34.6270   47.6720 C   0  0  0  0  0  0  0  0  0  0  0  0
   58.8990   34.2560   46.6720 C   0  0  0  0  0  0  0  0  0  0  0  0
   59.2550   34.6080   45.2290 C   0  0  0  0  0  0  0  0  0  0  0  0
   60.0190   32.5370   48.9530 C   0  0  0  0  0  0  0  0  0  0  0  0
   59.5820   31.2890   48.2420 C   0  0  0  0  0  0  0  0  0  0  0  0
   58.8040   30.4890   48.8300 O   0  0  0  0  0  0  0  0  0  0  0  0
   59.9920   31.0300   46.8910 N   0  0  0  0  0  0  0  0  0  0  0  0
   59.5060   29.9020   46.1550 C   0  0  0  0  0  0  0  0  0  0  0  0
   60.0480   28.6400   46.4230 C   0  0  0  0  0  0  0  0  0  0  0  0
   59.5920   27.5160   45.7390 C   0  0  0  0  0  0  0  0  0  0  0  0
   58.5960   27.6400   44.7720 C   0  0  0  0  0  0  0  0  0  0  0  0
   58.0440   28.8960   44.4750 C   0  0  0  0  0  0  0  0  0  0  0  0
   58.5200   30.0490   45.1500 C   0  0  0  0  0  0  0  0  0  0  0  0
   57.9440   31.4200   44.8490 C   0  0  0  0  0  0  0  0  0  0  0  0
   57.2420   31.4830   43.4910 C   0  0  0  0  0  0  0  0  0  0  0  0
   56.2720   30.3130   43.3440 C   0  0  0  0  0  0  0  0  0  0  0  0
   57.0360   28.9880   43.3510 C   0  0  0  0  0  0  0  0  0  0  0  0
   63.3091   34.9359   46.4043 H   0  0  0  0  0  0  0  0  0  0  0  0
   64.2018   33.4737   45.8641 H   0  0  0  0  0  0  0  0  0  0  0  0
   62.4055   33.4804   45.8641 H   0  0  0  0  0  0  0  0  0  0  0  0
   63.2636   32.2061   47.7910 H   0  0  0  0  0  0  0  0  0  0  0  0
   64.2202   33.6636   48.3121 H   0  0  0  0  0  0  0  0  0  0  0  0
   62.1674   33.4070   49.6594 H   0  0  0  0  0  0  0  0  0  0  0  0
   62.1486   34.9190   48.6455 H   0  0  0  0  0  0  0  0  0  0  0  0
   59.5444   35.0571   48.5741 H   0  0  0  0  0  0  0  0  0  0  0  0
   60.6764   35.3578   47.1990 H   0  0  0  0  0  0  0  0  0  0  0  0
   58.7198   33.1725   46.7342 H   0  0  0  0  0  0  0  0  0  0  0  0
   58.0045   34.8371   46.9406 H   0  0  0  0  0  0  0  0  0  0  0  0
   60.0372   35.3814   45.2225 H   0  0  0  0  0  0  0  0  0  0  0  0
   59.6236   33.7094   44.7126 H   0  0  0  0  0  0  0  0  0  0  0  0
   58.3606   34.9867   44.7126 H   0  0  0  0  0  0  0  0  0  0  0  0
   60.6478   32.2586   49.8115 H   0  0  0  0  0  0  0  0  0  0  0  0
   59.1215   33.0784   49.2868 H   0  0  0  0  0  0  0  0  0  0  0  0
   60.7910   31.5670   46.4850 H   0  0  0  0  0  0  0  0  0  0  0  0
   60.8398   28.5351   47.1793 H   0  0  0  0  0  0  0  0  0  0  0  0
   60.0192   26.5273   45.9626 H   0  0  0  0  0  0  0  0  0  0  0  0
   58.2398   26.7470   44.2375 H   0  0  0  0  0  0  0  0  0  0  0  0
   57.2160   31.6753   45.6331 H   0  0  0  0  0  0  0  0  0  0  0  0
   58.7816   32.1326   44.8222 H   0  0  0  0  0  0  0  0  0  0  0  0
   56.6853   32.4285   43.4133 H   0  0  0  0  0  0  0  0  0  0  0  0
   57.9974   31.4253   42.6935 H   0  0  0  0  0  0  0  0  0  0  0  0
   55.5586   30.3253   44.1812 H   0  0  0  0  0  0  0  0  0  0  0  0
   55.7337   30.4114   42.3898 H   0  0  0  0  0  0  0  0  0  0  0  0
   56.3128   28.1664   43.4599 H   0  0  0  0  0  0  0  0  0  0  0  0
   57.5909   28.9218   42.4035 H   0  0  0  0  0  0  0  0  0  0  0  0
  1  2  1  0
  2  3  1  0
  3  4  1  0
  4  5  1  0
  5  6  1  0
  6  7  1  0
  4  8  1  0
  8  9  1  0
  9 10  2  0
  9 11  1  0
 11 12  1  0
 12 13  2  0
 13 14  1  0
 14 15  2  0
 15 16  1  0
 16 17  2  0
 17 18  1  0
 18 19  1  0
 19 20  1  0
 20 21  1  0
 17 12  1  0
 21 16  1  0
  1 22  1  0
  1 23  1  0
  1 24  1  0
  2 25  1  0
  2 26  1  0
  3 27  1  0
  3 28  1  0
  5 29  1  0
  5 30  1  0
  6 31  1  0
  6 32  1  0
  7 33  1  0
  7 34  1  0
  7 35  1  0
  8 36  1  0
  8 37  1  0
 11 38  1  0
 13 39  1  0
 14 40  1  0
 15 41  1  0
 18 42  1  0
 18 43  1  0
 19 44  1  0
 19 45  1  0
 20 46  1  0
 20 47  1  0
 21 48  1  0
 21 49  1  0
M  END
>  <UniqueID>  (29) 
29

>  <SMILES>  (29) 
CCCN(CCC)CC(=O)Nc1cccc2c1CCCC2

>  <Energy>  (29) 
52.4652074554389

>  <Genealogy>  (29) 
CCCN(CCC)CC(=O)Nc1cccc2c1CCCC2 (3D coordinates assigned)
CCCN(CCC)CC(=O)Nc1cccc2c1CCCC2 (nonaromatic ring conformer: 52.4652074554389 kcal/mol)

>  <smiles>  (29) 
CCCN(CCC)CC(=O)Nc1cccc2c1CCCC2

>  <score_type>  (29) 
oracle

>  <origin>  (29) 
adg

>  <m_score__min__energy>  (29) 
-6.6799999999999997

>  <m_primary>  (29) 
energy

$$$$
29:0
     RDKit          3D

 34 37  0  0  0  0  0  0  0  0999 V2000
   51.5868   28.8483   47.7156 H   0  0  0  0  0  0  0  0  0  0  0  0
   51.4520   29.6570   48.4490 C   0  0  0  0  0  0  0  0  0  0  0  0
   51.9450   29.5220   49.7090 N   0  0  0  0  0  0  0  0  0  0  0  0
   51.8050   30.4950   50.6540 C   0  0  0  0  0  0  0  0  0  0  0  0
   52.3670   30.2670   52.0070 C   0  0  0  0  0  0  0  0  0  0  0  0
   51.5380   30.0440   53.1290 C   0  0  0  0  0  0  0  0  0  0  0  0
   50.4446   30.0555   53.0092 H   0  0  0  0  0  0  0  0  0  0  0  0
   52.0980   29.8070   54.4000 C   0  0  0  0  0  0  0  0  0  0  0  0
   51.4460   29.6404   55.2701 H   0  0  0  0  0  0  0  0  0  0  0  0
   53.4910   29.7850   54.5480 C   0  0  0  0  0  0  0  0  0  0  0  0
   53.9536   29.6076   55.5301 H   0  0  0  0  0  0  0  0  0  0  0  0
   54.2520   29.9890   53.4440 N   0  0  0  0  0  0  0  0  0  0  0  0
   55.5680   30.0110   53.3810 N   0  0  0  0  0  0  0  0  0  0  0  0
   55.8340   30.2520   52.0750 C   0  0  0  0  0  0  0  0  0  0  0  0
   57.0320   30.3850   51.5870 N   0  0  0  0  0  0  0  0  0  0  0  0
   57.8360   31.5770   51.5970 C   0  0  0  0  0  0  0  0  0  0  0  0
   59.0440   31.5790   50.8860 C   0  0  0  0  0  0  0  0  0  0  0  0
   59.3444   30.6861   50.3181 H   0  0  0  0  0  0  0  0  0  0  0  0
   59.8700   32.7070   50.8930 C   0  0  0  0  0  0  0  0  0  0  0  0
   60.8080   32.7053   50.3185 H   0  0  0  0  0  0  0  0  0  0  0  0
   59.5040   33.8370   51.6300 C   0  0  0  0  0  0  0  0  0  0  0  0
   60.1497   34.7275   51.6288 H   0  0  0  0  0  0  0  0  0  0  0  0
   58.3180   33.8350   52.3680 C   0  0  0  0  0  0  0  0  0  0  0  0
   58.0356   34.7212   52.9552 H   0  0  0  0  0  0  0  0  0  0  0  0
   57.4890   32.7090   52.3620 C   0  0  0  0  0  0  0  0  0  0  0  0
   56.5632   32.7065   52.9561 H   0  0  0  0  0  0  0  0  0  0  0  0
   54.7230   30.3990   51.3100 N   0  0  0  0  0  0  0  0  0  0  0  0
   53.7500   30.2160   52.2240 C   0  0  0  0  0  0  0  0  0  0  0  0
   51.1430   31.6920   50.3130 C   0  0  0  0  0  0  0  0  0  0  0  0
   51.0210   32.7360   51.2230 O   0  0  0  0  0  0  0  0  0  0  0  0
   50.6230   31.8420   49.0250 C   0  0  0  0  0  0  0  0  0  0  0  0
   50.0930   32.7661   48.7507 H   0  0  0  0  0  0  0  0  0  0  0  0
   50.7750   30.8220   48.0870 C   0  0  0  0  0  0  0  0  0  0  0  0
   50.3655   30.9345   47.0723 H   0  0  0  0  0  0  0  0  0  0  0  0
  1  2  1  0
  2  3  2  0
  3  4  1  0
  4  5  1  0
  5  6  2  0
  6  7  1  0
  6  8  1  0
  8  9  1  0
  8 10  2  0
 10 11  1  0
 10 12  1  0
 12 13  1  0
 13 14  1  0
 14 15  2  0
 15 16  1  0
 16 17  2  0
 17 18  1  0
 17 19  1  0
 19 20  1  0
 19 21  2  0
 21 22  1  0
 21 23  1  0
 23 24  1  0
 23 25  2  0
 25 26  1  0
 14 27  1  0
 27 28  2  0
  4 29  2  0
 29 30  1  0
 29 31  1  0
 31 32  1  0
 31 33  2  0
 33 34  1  0
 33  2  1  0
 28  5  1  0
 28 12  1  0
 25 16  1  0
M  CHG  2  13  -1  30  -1
M  END
>  <UniqueID>  (30) 
30

>  <SMILES>  (30) 
[O-]c1cccnc1-c1cccn2[n-]/c(=N\c3ccccc3)nc12

>  <Energy>  (30) 
90.1156791765048

>  <Genealogy>  (30) 
[O-]c1cccnc1-c1cccn2[n-]c(=Nc3ccccc3)nc12 (protonated)
[O-]c1cccnc1-c1cccn2[n-]/c(=N\c3ccccc3)nc12 (cis-trans isomerization)
[O-]c1cccnc1-c1cccn2[n-]/c(=N\c3ccccc3)nc12 (3D coordinates assigned)
[O-]c1cccnc1-c1cccn2[n-]/c(=N\c3ccccc3)nc12 (optimized conformer: 90.1156791765048 kcal/mol)

>  <smiles>  (30) 
Oc1cccnc1-c1cccn2[nH]c(=Nc3ccccc3)nc12

>  <score_type>  (30) 
oracle

>  <origin>  (30) 
adg

>  <m_score__min__energy>  (30) 
-12.77

>  <m_primary>  (30) 
energy

$$$$
30:0
     RDKit          3D

 43 46  0  0  0  0  0  0  0  0999 V2000
   59.6620   34.3350   49.2810 C   0  0  0  0  0  0  0  0  0  0  0  0
   59.5780   33.0770   50.1000 C   0  0  0  0  0  0  0  0  0  0  0  0
   60.0580   33.0770   51.4200 C   0  0  0  0  0  0  0  0  0  0  0  0
   59.9960   31.9150   52.1940 C   0  0  0  0  0  0  0  0  0  0  0  0
   59.4610   30.7430   51.6560 C   0  0  0  0  0  0  0  0  0  0  0  0
   58.9980   30.7260   50.3390 C   0  0  0  0  0  0  0  0  0  0  0  0
   59.0690   31.8820   49.5500 C   0  0  0  0  0  0  0  0  0  0  0  0
   58.6190   31.8330   48.2270 O   0  0  0  0  0  0  0  0  0  0  0  0
   59.4080   31.2730   47.1780 C   0  0  0  0  0  0  0  0  0  0  0  0
   60.7510   31.9890   47.1170 C   0  0  0  0  0  0  0  0  0  0  0  0
   61.8100   31.3760   47.8220 C   0  0  0  0  0  0  0  0  0  0  0  0
   63.0690   31.9660   47.9000 C   0  0  0  0  0  0  0  0  0  0  0  0
   63.3030   33.1890   47.2850 C   0  0  0  0  0  0  0  0  0  0  0  0
   62.2760   33.8290   46.5960 C   0  0  0  0  0  0  0  0  0  0  0  0
   60.9850   33.2690   46.5130 C   0  0  0  0  0  0  0  0  0  0  0  0
   59.9980   34.0630   45.6680 C   0  0  0  0  0  0  0  0  0  0  0  0
   58.5130   33.7850   45.8960 C   0  0  0  0  0  0  0  0  0  0  0  0
   58.1500   32.4550   45.3030 C   0  0  0  0  0  0  0  0  0  0  0  0
   57.3940   32.4020   44.1180 C   0  0  0  0  0  0  0  0  0  0  0  0
   57.1130   31.1760   43.5120 C   0  0  0  0  0  0  0  0  0  0  0  0
   57.5940   29.9950   44.0720 C   0  0  0  0  0  0  0  0  0  0  0  0
   58.3530   30.0350   45.2440 C   0  0  0  0  0  0  0  0  0  0  0  0
   58.6450   31.2630   45.8700 C   0  0  0  0  0  0  0  0  0  0  0  0
   59.7201   35.2055   49.9510 H   0  0  0  0  0  0  0  0  0  0  0  0
   60.5598   34.3001   48.6464 H   0  0  0  0  0  0  0  0  0  0  0  0
   58.7675   34.4198   48.6464 H   0  0  0  0  0  0  0  0  0  0  0  0
   60.4850   33.9965   51.8468 H   0  0  0  0  0  0  0  0  0  0  0  0
   60.3693   31.9238   53.2287 H   0  0  0  0  0  0  0  0  0  0  0  0
   59.4042   29.8323   52.2703 H   0  0  0  0  0  0  0  0  0  0  0  0
   58.5757   29.8013   49.9189 H   0  0  0  0  0  0  0  0  0  0  0  0
   59.6244   30.2149   47.3866 H   0  0  0  0  0  0  0  0  0  0  0  0
   61.6365   30.4110   48.3206 H   0  0  0  0  0  0  0  0  0  0  0  0
   63.8787   31.4630   48.4491 H   0  0  0  0  0  0  0  0  0  0  0  0
   64.2992   33.6519   47.3421 H   0  0  0  0  0  0  0  0  0  0  0  0
   62.4766   34.7930   46.1056 H   0  0  0  0  0  0  0  0  0  0  0  0
   60.1711   35.1304   45.8698 H   0  0  0  0  0  0  0  0  0  0  0  0
   60.1923   33.7512   44.6312 H   0  0  0  0  0  0  0  0  0  0  0  0
   58.3050   33.7727   46.9761 H   0  0  0  0  0  0  0  0  0  0  0  0
   57.9167   34.5736   45.4137 H   0  0  0  0  0  0  0  0  0  0  0  0
   57.0216   33.3330   43.6656 H   0  0  0  0  0  0  0  0  0  0  0  0
   56.5114   31.1428   42.5917 H   0  0  0  0  0  0  0  0  0  0  0  0
   57.3761   29.0300   43.5910 H   0  0  0  0  0  0  0  0  0  0  0  0
   58.7266   29.0980   45.6827 H   0  0  0  0  0  0  0  0  0  0  0  0
  1  2  1  0
  2  3  2  0
  3  4  1  0
  4  5  2  0
  5  6  1  0
  6  7  2  0
  7  8  1  0
  8  9  1  0
  9 10  1  0
 10 11  2  0
 11 12  1  0
 12 13  2  0
 13 14  1  0
 14 15  2  0
 15 16  1  0
 16 17  1  0
 17 18  1  0
 18 19  2  0
 19 20  1  0
 20 21  2  0
 21 22  1  0
 22 23  2  0
  7  2  1  0
 23  9  1  0
 15 10  1  0
 23 18  1  0
  1 24  1  0
  1 25  1  0
  1 26  1  0
  3 27  1  0
  4 28  1  0
  5 29  1  0
  6 30  1  0
  9 31  1  0
 11 32  1  0
 12 33  1  0
 13 34  1  0
 14 35  1  0
 16 36  1  0
 16 37  1  0
 17 38  1  0
 17 39  1  0
 19 40  1  0
 20 41  1  0
 21 42  1  0
 22 43  1  0
M  END
>  <UniqueID>  (31) 
31

>  <SMILES>  (31) 
Cc1ccccc1OC1c2ccccc2CCc2ccccc21

>  <Energy>  (31) 
64.57344082227539

>  <Genealogy>  (31) 
Cc1ccccc1OC1c2ccccc2CCc2ccccc21 (3D coordinates assigned)
Cc1ccccc1OC1c2ccccc2CCc2ccccc21 (nonaromatic ring conformer: 64.57344082227539 kcal/mol)

>  <smiles>  (31) 
Cc1ccccc1OC1c2ccccc2CCc2ccccc21

>  <score_type>  (31) 
oracle

>  <origin>  (31) 
adg

>  <m_score__min__energy>  (31) 
-6.3600000000000003

>  <m_primary>  (31) 
energy

$$$$
31:0
     RDKit          3D

 46 47  0  0  0  0  0  0  0  0999 V2000
   62.5980   32.5190   47.1090 C   0  0  0  0  0  0  0  0  0  0  0  0
   62.0220   33.8210   47.6820 C   0  0  0  0  0  0  0  0  0  0  0  0
   62.7280   34.2040   48.9960 C   0  0  0  0  0  0  0  0  0  0  0  0
   60.5390   33.7370   47.7990 N   0  0  0  0  0  0  0  0  0  0  0  0
   59.9810   34.5350   48.9120 C   0  0  0  0  0  0  0  0  0  0  0  0
   59.8600   34.0630   46.5250 C   0  0  0  0  0  0  0  0  0  0  0  0
   59.1090   32.8630   46.0100 C   0  0  0  0  0  0  0  0  0  0  0  0
   58.9740   31.7230   46.8130 C   0  0  0  0  0  0  0  0  0  0  0  0
   58.2560   30.6140   46.3570 C   0  0  0  0  0  0  0  0  0  0  0  0
   57.6610   30.6170   45.0760 C   0  0  0  0  0  0  0  0  0  0  0  0
   56.8230   29.4520   44.5370 C   0  0  2  0  0  0  0  0  0  0  0  0
   56.7360   29.4290   42.9890 C   0  0  0  0  0  0  0  0  0  0  0  0
   55.5130   29.6200   45.0390 O   0  0  0  0  0  0  0  0  0  0  0  0
   57.4450   28.1450   45.0410 C   0  0  0  0  0  0  0  0  0  0  0  0
   58.8230   27.9010   44.8470 C   0  0  0  0  0  0  0  0  0  0  0  0
   59.4140   26.7270   45.3200 C   0  0  0  0  0  0  0  0  0  0  0  0
   58.6490   25.7830   46.0050 C   0  0  0  0  0  0  0  0  0  0  0  0
   57.2910   26.0150   46.2260 C   0  0  0  0  0  0  0  0  0  0  0  0
   56.6920   27.1880   45.7560 C   0  0  0  0  0  0  0  0  0  0  0  0
   57.7890   31.7780   44.2860 C   0  0  0  0  0  0  0  0  0  0  0  0
   58.5060   32.8840   44.7450 C   0  0  0  0  0  0  0  0  0  0  0  0
   62.8923   31.8538   47.9342 H   0  0  0  0  0  0  0  0  0  0  0  0
   61.8359   32.0216   46.4911 H   0  0  0  0  0  0  0  0  0  0  0  0
   63.4786   32.7483   46.4911 H   0  0  0  0  0  0  0  0  0  0  0  0
   62.2248   34.6443   46.9813 H   0  0  0  0  0  0  0  0  0  0  0  0
   62.1183   33.8732   49.8497 H   0  0  0  0  0  0  0  0  0  0  0  0
   63.7133   33.7167   49.0384 H   0  0  0  0  0  0  0  0  0  0  0  0
   62.8567   35.2956   49.0384 H   0  0  0  0  0  0  0  0  0  0  0  0
   60.2899   34.0932   49.8708 H   0  0  0  0  0  0  0  0  0  0  0  0
   60.3550   35.5674   48.8465 H   0  0  0  0  0  0  0  0  0  0  0  0
   58.8830   34.5380   48.8465 H   0  0  0  0  0  0  0  0  0  0  0  0
   59.1531   34.8892   46.6917 H   0  0  0  0  0  0  0  0  0  0  0  0
   60.6160   34.3575   45.7822 H   0  0  0  0  0  0  0  0  0  0  0  0
   59.4369   31.7005   47.8106 H   0  0  0  0  0  0  0  0  0  0  0  0
   58.1532   29.7294   47.0026 H   0  0  0  0  0  0  0  0  0  0  0  0
   55.7145   29.1590   42.6831 H   0  0  0  0  0  0  0  0  0  0  0  0
   56.9864   30.4242   42.5929 H   0  0  0  0  0  0  0  0  0  0  0  0
   57.4454   28.6875   42.5929 H   0  0  0  0  0  0  0  0  0  0  0  0
   55.5600   29.7030   46.0290 H   0  0  0  0  0  0  0  0  0  0  0  0
   59.4375   28.6440   44.3175 H   0  0  0  0  0  0  0  0  0  0  0  0
   60.4860   26.5464   45.1518 H   0  0  0  0  0  0  0  0  0  0  0  0
   59.1159   24.8565   46.3706 H   0  0  0  0  0  0  0  0  0  0  0  0
   56.6897   25.2729   46.7716 H   0  0  0  0  0  0  0  0  0  0  0  0
   55.6233   27.3670   45.9452 H   0  0  0  0  0  0  0  0  0  0  0  0
   57.3167   31.8125   43.2932 H   0  0  0  0  0  0  0  0  0  0  0  0
   58.5984   33.7775   44.1101 H   0  0  0  0  0  0  0  0  0  0  0  0
  1  2  1  0
  2  3  1  0
  2  4  1  0
  4  5  1  0
  4  6  1  0
  6  7  1  0
  7  8  2  0
  8  9  1  0
  9 10  2  0
 10 11  1  0
 11 12  1  0
 11 13  1  1
 11 14  1  0
 14 15  2  0
 15 16  1  0
 16 17  2  0
 17 18  1  0
 18 19  2  0
 10 20  1  0
 20 21  2  0
 21  7  1  0
 19 14  1  0
  1 22  1  0
  1 23  1  0
  1 24  1  0
  2 25  1  0
  3 26  1  0
  3 27  1  0
  3 28  1  0
  5 29  1  0
  5 30  1  0
  5 31  1  0
  6 32  1  0
  6 33  1  0
  8 34  1  0
  9 35  1  0
 12 36  1  0
 12 37  1  0
 12 38  1  0
 13 39  1  0
 15 40  1  0
 16 41  1  0
 17 42  1  0
 18 43  1  0
 19 44  1  0
 20 45  1  0
 21 46  1  0
M  END
>  <UniqueID>  (32) 
32

>  <SMILES>  (32) 
CC(C)N(C)Cc1ccc([C@](C)(O)c2ccccc2)cc1

>  <Energy>  (32) 
54.58598955353481

>  <Genealogy>  (32) 
CC(C)N(C)Cc1ccc([C@](C)(O)c2ccccc2)cc1 (chirality)
CC(C)N(C)Cc1ccc([C@](C)(O)c2ccccc2)cc1 (3D coordinates assigned)
CC(C)N(C)Cc1ccc([C@](C)(O)c2ccccc2)cc1 (optimized conformer: 54.58598955353481 kcal/mol)

>  <smiles>  (32) 
CC(C)N(C)Cc1ccc(C(C)(O)c2ccccc2)cc1

>  <score_type>  (32) 
oracle

>  <origin>  (32) 
adg

>  <m_score__min__energy>  (32) 
-8.1699999999999999

>  <m_primary>  (32) 
energy

$$$$
32:0
     RDKit          3D

 76 79  0  0  0  0  0  0  0  0999 V2000
   67.2910   27.1970   50.4680 C   0  0  0  0  0  0  0  0  0  0  0  0
   67.8360   28.5770   50.8120 C   0  0  0  0  0  0  0  0  0  0  0  0
   66.7290   29.4490   51.2580 N   0  0  0  0  0  0  0  0  0  0  0  0
   65.7880   28.7550   52.1670 C   0  0  0  0  0  0  0  0  0  0  0  0
   64.3320   29.0130   51.7850 C   0  0  0  0  0  0  0  0  0  0  0  0
   67.1530   30.8110   51.6730 C   0  0  0  0  0  0  0  0  0  0  0  0
   67.5030   31.7960   50.5320 C   0  0  0  0  0  0  0  0  0  0  0  0
   67.3540   33.2800   50.9020 C   0  0  0  0  0  0  0  0  0  0  0  0
   66.1030   33.8110   50.4650 O   0  0  0  0  0  0  0  0  0  0  0  0
   64.9130   33.0810   50.3150 C   0  0  0  0  0  0  0  0  0  0  0  0
   64.1250   32.6720   51.4070 C   0  0  0  0  0  0  0  0  0  0  0  0
   62.9440   31.9540   51.1960 C   0  0  0  0  0  0  0  0  0  0  0  0
   62.5290   31.6280   49.8920 C   0  0  0  0  0  0  0  0  0  0  0  0
   61.2730   30.8700   49.6700 C   0  0  0  0  0  0  0  0  0  0  0  0
   60.4290   30.5500   50.7460 C   0  0  0  0  0  0  0  0  0  0  0  0
   59.2800   29.8540   50.5370 N   0  0  0  0  0  0  0  0  0  0  0  0
   58.9090   29.4460   49.2950 C   0  0  0  0  0  0  0  0  0  0  0  0
   59.7120   29.7340   48.1810 C   0  0  0  0  0  0  0  0  0  0  0  0
   59.3200   29.2700   46.8260 C   0  0  0  0  0  0  0  0  0  0  0  0
   60.0210   28.2230   46.2010 C   0  0  0  0  0  0  0  0  0  0  0  0
   59.6700   27.8060   44.9160 C   0  0  0  0  0  0  0  0  0  0  0  0
   58.6190   28.4260   44.2370 C   0  0  0  0  0  0  0  0  0  0  0  0
   57.9020   29.4680   44.8460 C   0  0  0  0  0  0  0  0  0  0  0  0
   56.7910   30.1700   44.0990 C   0  0  0  0  0  0  0  0  0  0  0  0
   56.5910   31.5500   44.5680 N   0  0  0  0  0  0  0  0  0  0  0  0
   57.6070   32.4650   44.0320 C   0  0  0  0  0  0  0  0  0  0  0  0
   57.5810   33.7850   44.8060 C   0  0  0  0  0  0  0  0  0  0  0  0
   58.5300   33.7380   45.9730 C   0  0  0  0  0  0  0  0  0  0  0  0
   58.1050   33.2470   47.2170 C   0  0  0  0  0  0  0  0  0  0  0  0
   58.9960   33.2420   48.2950 C   0  0  0  0  0  0  0  0  0  0  0  0
   60.2590   33.7210   48.1390 N   0  0  0  0  0  0  0  0  0  0  0  0
   60.6910   34.2150   46.9490 C   0  0  0  0  0  0  0  0  0  0  0  0
   59.8350   34.2380   45.8460 C   0  0  0  0  0  0  0  0  0  0  0  0
   58.2560   29.8850   46.1400 C   0  0  0  0  0  0  0  0  0  0  0  0
   60.9000   30.4550   48.3820 C   0  0  0  0  0  0  0  0  0  0  0  0
   63.3220   32.0350   48.8050 C   0  0  0  0  0  0  0  0  0  0  0  0
   64.5010   32.7540   49.0190 C   0  0  0  0  0  0  0  0  0  0  0  0
   67.0738   26.6469   51.3955 H   0  0  0  0  0  0  0  0  0  0  0  0
   66.3675   27.3036   49.8800 H   0  0  0  0  0  0  0  0  0  0  0  0
   68.0382   26.6438   49.8800 H   0  0  0  0  0  0  0  0  0  0  0  0
   68.5789   28.4869   51.6182 H   0  0  0  0  0  0  0  0  0  0  0  0
   68.3108   29.0151   49.9217 H   0  0  0  0  0  0  0  0  0  0  0  0
   65.9814   27.6731   52.1206 H   0  0  0  0  0  0  0  0  0  0  0  0
   65.9475   29.1432   53.1838 H   0  0  0  0  0  0  0  0  0  0  0  0
   63.7270   29.1202   52.6974 H   0  0  0  0  0  0  0  0  0  0  0  0
   64.2669   29.9367   51.1912 H   0  0  0  0  0  0  0  0  0  0  0  0
   63.9534   28.1679   51.1912 H   0  0  0  0  0  0  0  0  0  0  0  0
   66.3337   31.2535   52.2586 H   0  0  0  0  0  0  0  0  0  0  0  0
   68.0874   30.6692   52.2359 H   0  0  0  0  0  0  0  0  0  0  0  0
   68.5471   31.6195   50.2342 H   0  0  0  0  0  0  0  0  0  0  0  0
   66.7853   31.6026   49.7211 H   0  0  0  0  0  0  0  0  0  0  0  0
   67.4227   33.3833   51.9950 H   0  0  0  0  0  0  0  0  0  0  0  0
   68.1575   33.8401   50.4014 H   0  0  0  0  0  0  0  0  0  0  0  0
   64.4399   32.9185   52.4317 H   0  0  0  0  0  0  0  0  0  0  0  0
   62.3344   31.6415   52.0566 H   0  0  0  0  0  0  0  0  0  0  0  0
   60.6995   30.8646   51.7647 H   0  0  0  0  0  0  0  0  0  0  0  0
   58.6690   29.6250   51.3530 H   0  0  0  0  0  0  0  0  0  0  0  0
   57.9719   28.8856   49.1619 H   0  0  0  0  0  0  0  0  0  0  0  0
   60.8510   27.7297   46.7281 H   0  0  0  0  0  0  0  0  0  0  0  0
   60.2236   26.9855   44.4362 H   0  0  0  0  0  0  0  0  0  0  0  0
   58.3521   28.0969   43.2219 H   0  0  0  0  0  0  0  0  0  0  0  0
   57.0432   30.1928   43.0285 H   0  0  0  0  0  0  0  0  0  0  0  0
   55.8592   29.6139   44.2792 H   0  0  0  0  0  0  0  0  0  0  0  0
   56.6400   31.5640   45.6150 H   0  0  0  0  0  0  0  0  0  0  0  0
   58.6009   32.0042   44.1305 H   0  0  0  0  0  0  0  0  0  0  0  0
   57.3919   32.6632   42.9716 H   0  0  0  0  0  0  0  0  0  0  0  0
   57.8767   34.6036   44.1333 H   0  0  0  0  0  0  0  0  0  0  0  0
   56.5622   33.9513   45.1860 H   0  0  0  0  0  0  0  0  0  0  0  0
   57.0796   32.8692   47.3432 H   0  0  0  0  0  0  0  0  0  0  0  0
   58.6744   32.8498   49.2711 H   0  0  0  0  0  0  0  0  0  0  0  0
   61.7179   34.5978   46.8544 H   0  0  0  0  0  0  0  0  0  0  0  0
   60.1811   34.6451   44.8845 H   0  0  0  0  0  0  0  0  0  0  0  0
   57.6961   30.7001   46.6218 H   0  0  0  0  0  0  0  0  0  0  0  0
   61.5435   30.6966   47.5232 H   0  0  0  0  0  0  0  0  0  0  0  0
   63.0125   31.7859   47.7793 H   0  0  0  0  0  0  0  0  0  0  0  0
   65.1116   33.0662   48.1589 H   0  0  0  0  0  0  0  0  0  0  0  0
  1  2  1  0
  2  3  1  0
  3  4  1  0
  4  5  1  0
  3  6  1  0
  6  7  1  0
  7  8  1  0
  8  9  1  0
  9 10  1  0
 10 11  2  0
 11 12  1  0
 12 13  2  0
 13 14  1  0
 14 15  2  0
 15 16  1  0
 16 17  2  0
 17 18  1  0
 18 19  1  0
 19 20  2  0
 20 21  1  0
 21 22  2  0
 22 23  1  0
 23 24  1  0
 24 25  1  0
 25 26  1  0
 26 27  1  0
 27 28  1  0
 28 29  2  0
 29 30  1  0
 30 31  2  0
 31 32  1  0
 32 33  2  0
 23 34  2  0
 18 35  2  0
 13 36  1  0
 36 37  2  0
 37 10  1  0
 35 14  1  0
 34 19  1  0
 33 28  1  0
  1 38  1  0
  1 39  1  0
  1 40  1  0
  2 41  1  0
  2 42  1  0
  4 43  1  0
  4 44  1  0
  5 45  1  0
  5 46  1  0
  5 47  1  0
  6 48  1  0
  6 49  1  0
  7 50  1  0
  7 51  1  0
  8 52  1  0
  8 53  1  0
 11 54  1  0
 12 55  1  0
 15 56  1  0
 16 57  1  0
 17 58  1  0
 20 59  1  0
 21 60  1  0
 22 61  1  0
 24 62  1  0
 24 63  1  0
 25 64  1  0
 26 65  1  0
 26 66  1  0
 27 67  1  0
 27 68  1  0
 29 69  1  0
 30 70  1  0
 32 71  1  0
 33 72  1  0
 34 73  1  0
 35 74  1  0
 36 75  1  0
 37 76  1  0
M  CHG  1  16   1
M  END
>  <UniqueID>  (33) 
33

>  <SMILES>  (33) 
CCN(CC)CCCOc1ccc(-c2c[nH+]cc(-c3cccc(CNCCc4ccncc4)c3)c2)cc1

>  <Energy>  (33) 
89.11183523638263

>  <Genealogy>  (33) 
CCN(CC)CCCOc1ccc(-c2c[nH+]cc(-c3cccc(CNCCc4ccncc4)c3)c2)cc1 (protonated)
CCN(CC)CCCOc1ccc(-c2c[nH+]cc(-c3cccc(CNCCc4ccncc4)c3)c2)cc1 (3D coordinates assigned)
CCN(CC)CCCOc1ccc(-c2c[nH+]cc(-c3cccc(CNCCc4ccncc4)c3)c2)cc1 (optimized conformer: 89.11183523638263 kcal/mol)

>  <smiles>  (33) 
CCN(CC)CCCOc1ccc(-c2cncc(-c3cccc(CNCCc4ccncc4)c3)c2)cc1

>  <score_type>  (33) 
oracle

>  <origin>  (33) 
adg

>  <m_score__min__energy>  (33) 
-7.8300000000000001

>  <m_primary>  (33) 
energy

$$$$
33:0
     RDKit          3D

 46 48  0  0  0  0  0  0  0  0999 V2000
   63.7540   33.3550   46.9290 C   0  0  0  0  0  0  0  0  0  0  0  0
   62.6810   32.7160   47.7010 N   0  0  0  0  0  0  0  0  0  0  0  0
   63.0370   31.8020   48.7930 C   0  0  0  0  0  0  0  0  0  0  0  0
   61.2900   32.9980   47.4000 C   0  0  0  0  0  0  0  0  0  0  0  0
   60.2650   32.1460   47.8590 C   0  0  0  0  0  0  0  0  0  0  0  0
   58.9280   32.4060   47.5490 C   0  0  0  0  0  0  0  0  0  0  0  0
   58.5820   33.5260   46.7820 C   0  0  0  0  0  0  0  0  0  0  0  0
   57.1380   33.7840   46.4300 C   0  0  0  0  0  0  0  0  0  0  0  0
   56.6910   32.9590   45.2910 N   0  0  0  0  0  0  0  0  0  0  0  0
   57.7230   32.7990   44.2400 C   0  0  0  0  0  0  0  0  0  0  0  0
   57.4630   31.6000   43.3080 C   0  0  0  0  0  0  0  0  0  0  0  0
   57.1050   30.3530   44.0680 C   0  0  0  0  0  0  0  0  0  0  0  0
   55.8960   29.6640   44.0090 C   0  0  0  0  0  0  0  0  0  0  0  0
   55.9190   28.5980   44.8420 N   0  0  0  0  0  0  0  0  0  0  0  0
   57.1310   28.6040   45.4210 C   0  0  0  0  0  0  0  0  0  0  0  0
   57.6220   27.6970   46.3600 C   0  0  0  0  0  0  0  0  0  0  0  0
   58.9310   27.8890   46.8370 C   0  0  0  0  0  0  0  0  0  0  0  0
   59.7140   28.9670   46.3690 C   0  0  0  0  0  0  0  0  0  0  0  0
   60.9760   29.1370   46.8340 F   0  0  0  0  0  0  0  0  0  0  0  0
   59.1920   29.8650   45.4190 C   0  0  0  0  0  0  0  0  0  0  0  0
   57.8880   29.6560   44.9710 C   0  0  0  0  0  0  0  0  0  0  0  0
   59.5910   34.3870   46.3330 C   0  0  0  0  0  0  0  0  0  0  0  0
   60.9300   34.1260   46.6350 C   0  0  0  0  0  0  0  0  0  0  0  0
   64.4905   33.7936   47.6184 H   0  0  0  0  0  0  0  0  0  0  0  0
   64.2473   32.6034   46.2951 H   0  0  0  0  0  0  0  0  0  0  0  0
   63.3282   34.1467   46.2951 H   0  0  0  0  0  0  0  0  0  0  0  0
   62.8459   32.2926   49.7588 H   0  0  0  0  0  0  0  0  0  0  0  0
   62.4290   30.8882   48.7193 H   0  0  0  0  0  0  0  0  0  0  0  0
   64.1028   31.5402   48.7193 H   0  0  0  0  0  0  0  0  0  0  0  0
   60.5209   31.2665   48.4681 H   0  0  0  0  0  0  0  0  0  0  0  0
   58.1415   31.7267   47.9096 H   0  0  0  0  0  0  0  0  0  0  0  0
   56.5123   33.5514   47.3043 H   0  0  0  0  0  0  0  0  0  0  0  0
   57.0420   34.8413   46.1422 H   0  0  0  0  0  0  0  0  0  0  0  0
   55.8730   33.4510   44.8610 H   0  0  0  0  0  0  0  0  0  0  0  0
   56.3360   32.0390   45.6350 H   0  0  0  0  0  0  0  0  0  0  0  0
   57.7469   33.7152   43.6318 H   0  0  0  0  0  0  0  0  0  0  0  0
   58.6805   32.6143   44.7490 H   0  0  0  0  0  0  0  0  0  0  0  0
   56.6336   31.8518   42.6308 H   0  0  0  0  0  0  0  0  0  0  0  0
   58.3901   31.3998   42.7509 H   0  0  0  0  0  0  0  0  0  0  0  0
   55.0429   29.9466   43.3747 H   0  0  0  0  0  0  0  0  0  0  0  0
   55.1470   27.9120   44.9980 H   0  0  0  0  0  0  0  0  0  0  0  0
   57.0053   26.8586   46.7160 H   0  0  0  0  0  0  0  0  0  0  0  0
   59.3482   27.1940   47.5805 H   0  0  0  0  0  0  0  0  0  0  0  0
   59.7937   30.7051   45.0419 H   0  0  0  0  0  0  0  0  0  0  0  0
   59.3277   35.2745   45.7388 H   0  0  0  0  0  0  0  0  0  0  0  0
   61.7123   34.8086   46.2716 H   0  0  0  0  0  0  0  0  0  0  0  0
  1  2  1  0
  2  3  1  0
  2  4  1  0
  4  5  2  0
  5  6  1  0
  6  7  2  0
  7  8  1  0
  8  9  1  0
  9 10  1  0
 10 11  1  0
 11 12  1  0
 12 13  2  0
 13 14  1  0
 14 15  1  0
 15 16  2  0
 16 17  1  0
 17 18  2  0
 18 19  1  0
 18 20  1  0
 20 21  2  0
  7 22  1  0
 22 23  2  0
 23  4  1  0
 21 12  1  0
 21 15  1  0
  1 24  1  0
  1 25  1  0
  1 26  1  0
  3 27  1  0
  3 28  1  0
  3 29  1  0
  5 30  1  0
  6 31  1  0
  8 32  1  0
  8 33  1  0
  9 34  1  0
  9 35  1  0
 10 36  1  0
 10 37  1  0
 11 38  1  0
 11 39  1  0
 13 40  1  0
 14 41  1  0
 16 42  1  0
 17 43  1  0
 20 44  1  0
 22 45  1  0
 23 46  1  0
M  CHG  1   9   1
M  END
>  <UniqueID>  (34) 
34

>  <SMILES>  (34) 
CN(C)c1ccc(C[NH2+]CCc2c[nH]c3ccc(F)cc23)cc1

>  <Energy>  (34) 
79.64756767921831

>  <Genealogy>  (34) 
CN(C)c1ccc(C[NH2+]CCc2c[nH]c3ccc(F)cc23)cc1 (protonated)
CN(C)c1ccc(C[NH2+]CCc2c[nH]c3ccc(F)cc23)cc1 (3D coordinates assigned)
CN(C)c1ccc(C[NH2+]CCc2c[nH]c3ccc(F)cc23)cc1 (optimized conformer: 79.64756767921831 kcal/mol)

>  <smiles>  (34) 
CN(C)c1ccc(CNCCc2c[nH]c3ccc(F)cc23)cc1

>  <score_type>  (34) 
oracle

>  <origin>  (34) 
adg

>  <m_score__min__energy>  (34) 
-6.25

>  <m_primary>  (34) 
energy

$$$$
34:0
     RDKit          3D

 41 43  0  0  0  0  0  0  0  0999 V2000
   57.3370   28.5870   45.9591 H   0  0  0  0  0  0  0  0  0  0  0  0
   57.3480   29.4630   45.2940 C   0  0  0  0  0  0  0  0  0  0  0  0
   57.7940   30.6620   45.7570 N   0  0  0  0  0  0  0  0  0  0  0  0
   57.7970   31.7770   44.9740 C   0  0  0  0  0  0  0  0  0  0  0  0
   58.3590   32.9980   45.4750 N   0  0  0  0  0  0  0  0  0  0  0  0
   58.6370   33.9480   44.5280 C   0  0  0  0  0  0  0  0  0  0  0  0
   58.3584   33.7622   43.4802 H   0  0  0  0  0  0  0  0  0  0  0  0
   59.2650   35.1440   44.8650 C   0  0  0  0  0  0  0  0  0  0  0  0
   59.4770   35.8970   44.0917 H   0  0  0  0  0  0  0  0  0  0  0  0
   59.6210   35.3770   46.1860 C   0  0  0  0  0  0  0  0  0  0  0  0
   60.1292   36.3118   46.4652 H   0  0  0  0  0  0  0  0  0  0  0  0
   59.3320   34.4230   47.1540 C   0  0  0  0  0  0  0  0  0  0  0  0
   59.6149   34.6051   48.2013 H   0  0  0  0  0  0  0  0  0  0  0  0
   58.6820   33.2290   46.8060 C   0  0  0  0  0  0  0  0  0  0  0  0
   58.3910   32.4240   47.7980 N   0  0  0  0  0  0  0  0  0  0  0  0
   59.0580   32.1180   49.0660 C   0  0  0  0  0  0  0  0  0  0  0  0
   58.8446   31.0714   49.3290 H   0  0  0  0  0  0  0  0  0  0  0  0
   58.6691   32.8217   49.8167 H   0  0  0  0  0  0  0  0  0  0  0  0
   60.5630   32.3040   49.0130 C   0  0  0  0  0  0  0  0  0  0  0  0
   61.2160   33.1250   49.9540 C   0  0  0  0  0  0  0  0  0  0  0  0
   60.6222   33.6638   50.7071 H   0  0  0  0  0  0  0  0  0  0  0  0
   62.6050   33.2650   49.9450 C   0  0  0  0  0  0  0  0  0  0  0  0
   63.3740   34.2630   51.1690 Cl  0  0  0  0  0  0  0  0  0  0  0  0
   63.3760   32.6100   48.9770 C   0  0  0  0  0  0  0  0  0  0  0  0
   64.7720   32.7590   49.0130 O   0  0  0  0  0  0  0  0  0  0  0  0
   65.6160   32.2180   50.0240 C   0  0  0  0  0  0  0  0  0  0  0  0
   65.2134   32.4761   51.0146 H   0  0  0  0  0  0  0  0  0  0  0  0
   65.6587   31.1238   49.9192 H   0  0  0  0  0  0  0  0  0  0  0  0
   66.6280   32.6361   49.9192 H   0  0  0  0  0  0  0  0  0  0  0  0
   62.7310   31.8340   47.9990 C   0  0  0  0  0  0  0  0  0  0  0  0
   63.3297   31.3294   47.2264 H   0  0  0  0  0  0  0  0  0  0  0  0
   61.3350   31.6930   47.9930 C   0  0  0  0  0  0  0  0  0  0  0  0
   60.7280   30.9260   46.9420 N   0  0  0  0  0  0  0  0  0  0  0  0
   61.2500   30.2020   46.4030 H   0  0  0  0  0  0  0  0  0  0  0  0
   59.7080   31.0210   46.7420 H   0  0  0  0  0  0  0  0  0  0  0  0
   57.3990   31.6810   43.6310 C   0  0  0  0  0  0  0  0  0  0  0  0
   57.4493   32.5609   42.9728 H   0  0  0  0  0  0  0  0  0  0  0  0
   56.9390   30.4590   43.1390 C   0  0  0  0  0  0  0  0  0  0  0  0
   56.6048   30.3759   42.0943 H   0  0  0  0  0  0  0  0  0  0  0  0
   56.9040   29.3430   43.9750 C   0  0  0  0  0  0  0  0  0  0  0  0
   56.5308   28.3787   43.5996 H   0  0  0  0  0  0  0  0  0  0  0  0
  1  2  1  0
  2  3  2  0
  3  4  1  0
  4  5  1  0
  5  6  1  0
  6  7  1  0
  6  8  2  0
  8  9  1  0
  8 10  1  0
 10 11  1  0
 10 12  2  0
 12 13  1  0
 12 14  1  0
 14 15  2  0
 15 16  1  0
 16 17  1  0
 16 18  1  0
 16 19  1  0
 19 20  2  0
 20 21  1  0
 20 22  1  0
 22 23  1  0
 22 24  2  0
 24 25  1  0
 25 26  1  0
 26 27  1  0
 26 28  1  0
 26 29  1  0
 24 30  1  0
 30 31  1  0
 30 32  2  0
 32 33  1  0
 33 34  1  0
 33 35  1  0
  4 36  2  0
 36 37  1  0
 36 38  1  0
 38 39  1  0
 38 40  2  0
 40 41  1  0
 40  2  1  0
 14  5  1  0
 32 19  1  0
M  END
>  <UniqueID>  (35) 
35

>  <SMILES>  (35) 
COc1cc(N)c(C/N=c2/ccccn2-c2ccccn2)cc1Cl

>  <Energy>  (35) 
63.483526484164095

>  <Genealogy>  (35) 
COc1cc(N)c(C/N=c2/ccccn2-c2ccccn2)cc1Cl (cis-trans isomerization)
COc1cc(N)c(C/N=c2/ccccn2-c2ccccn2)cc1Cl (3D coordinates assigned)
COc1cc(N)c(C/N=c2/ccccn2-c2ccccn2)cc1Cl (optimized conformer: 63.483526484164095 kcal/mol)

>  <smiles>  (35) 
COc1cc(N)c(CN=c2ccccn2-c2ccccn2)cc1Cl

>  <score_type>  (35) 
oracle

>  <origin>  (35) 
adg

>  <m_score__min__energy>  (35) 
-7.0899999999999999

>  <m_primary>  (35) 
energy

$$$$
35:0
     RDKit          3D

 41 43  0  0  0  0  0  0  0  0999 V2000
   55.5270   28.9970   44.9160 O   0  0  0  0  0  0  0  0  0  0  0  0
   56.5530   29.7230   45.0000 C   0  0  0  0  0  0  0  0  0  0  0  0
   56.4560   31.0930   44.5920 N   0  0  0  0  0  0  0  0  0  0  0  0
   57.5500   31.8920   44.0460 C   0  0  0  0  0  0  0  0  0  0  0  0
   58.1920   32.7260   45.1240 C   0  0  0  0  0  0  0  0  0  0  0  0
   57.5200   33.8320   45.6640 C   0  0  0  0  0  0  0  0  0  0  0  0
   58.1270   34.5790   46.6730 C   0  0  0  0  0  0  0  0  0  0  0  0
   59.3540   34.2300   47.1360 N   0  0  0  0  0  0  0  0  0  0  0  0
   60.0370   33.1560   46.6480 C   0  0  0  0  0  0  0  0  0  0  0  0
   61.3350   32.8370   47.1840 N   0  0  0  0  0  0  0  0  0  0  0  0
   61.5490   31.7570   48.1340 C   0  0  0  0  0  0  0  0  0  0  0  0
   63.0570   31.6600   48.3150 C   0  0  0  0  0  0  0  0  0  0  0  0
   63.6280   32.9710   47.7830 C   0  0  0  0  0  0  0  0  0  0  0  0
   62.5620   33.5480   46.8610 C   0  0  0  0  0  0  0  0  0  0  0  0
   59.4530   32.3770   45.6320 C   0  0  0  0  0  0  0  0  0  0  0  0
   57.7800   29.1850   45.5240 N   0  0  0  0  0  0  0  0  0  0  0  0
   58.0050   27.7840   45.7590 C   0  0  0  0  0  0  0  0  0  0  0  0
   58.6670   27.3300   46.9150 C   0  0  0  0  0  0  0  0  0  0  0  0
   58.8510   25.9610   47.1300 C   0  0  0  0  0  0  0  0  0  0  0  0
   58.3670   25.0350   46.2040 C   0  0  0  0  0  0  0  0  0  0  0  0
   57.6880   25.4740   45.0630 C   0  0  0  0  0  0  0  0  0  0  0  0
   57.0120   24.2070   43.8050 Br  0  0  0  0  0  0  0  0  0  0  0  0
   57.5020   26.8440   44.8470 C   0  0  0  0  0  0  0  0  0  0  0  0
   58.3052   31.2206   43.6115 H   0  0  0  0  0  0  0  0  0  0  0  0
   57.1457   32.5633   43.2741 H   0  0  0  0  0  0  0  0  0  0  0  0
   56.5215   34.1083   45.2944 H   0  0  0  0  0  0  0  0  0  0  0  0
   57.6099   35.4535   47.0948 H   0  0  0  0  0  0  0  0  0  0  0  0
   61.0617   31.9876   49.0929 H   0  0  0  0  0  0  0  0  0  0  0  0
   61.1216   30.8094   47.7742 H   0  0  0  0  0  0  0  0  0  0  0  0
   63.3074   31.5376   49.3791 H   0  0  0  0  0  0  0  0  0  0  0  0
   63.4726   30.7927   47.7811 H   0  0  0  0  0  0  0  0  0  0  0  0
   63.8319   33.6639   48.6126 H   0  0  0  0  0  0  0  0  0  0  0  0
   64.5777   32.8112   47.2515 H   0  0  0  0  0  0  0  0  0  0  0  0
   62.4399   34.6259   47.0433 H   0  0  0  0  0  0  0  0  0  0  0  0
   62.8336   33.4284   45.8018 H   0  0  0  0  0  0  0  0  0  0  0  0
   59.9829   31.4976   45.2373 H   0  0  0  0  0  0  0  0  0  0  0  0
   58.5200   29.8460   45.8450 H   0  0  0  0  0  0  0  0  0  0  0  0
   59.0412   28.0554   47.6524 H   0  0  0  0  0  0  0  0  0  0  0  0
   59.3781   25.6127   48.0305 H   0  0  0  0  0  0  0  0  0  0  0  0
   58.5200   23.9587   46.3721 H   0  0  0  0  0  0  0  0  0  0  0  0
   56.9571   27.1867   43.9550 H   0  0  0  0  0  0  0  0  0  0  0  0
  1  2  2  0
  2  3  1  0
  3  4  1  0
  4  5  1  0
  5  6  2  0
  6  7  1  0
  7  8  2  0
  8  9  1  0
  9 10  1  0
 10 11  1  0
 11 12  1  0
 12 13  1  0
 13 14  1  0
  9 15  2  0
  2 16  1  0
 16 17  1  0
 17 18  2  0
 18 19  1  0
 19 20  2  0
 20 21  1  0
 21 22  1  0
 21 23  2  0
 15  5  1  0
 23 17  1  0
 14 10  1  0
  4 24  1  0
  4 25  1  0
  6 26  1  0
  7 27  1  0
 11 28  1  0
 11 29  1  0
 12 30  1  0
 12 31  1  0
 13 32  1  0
 13 33  1  0
 14 34  1  0
 14 35  1  0
 15 36  1  0
 16 37  1  0
 18 38  1  0
 19 39  1  0
 20 40  1  0
 23 41  1  0
M  CHG  1   3  -1
M  END
>  <UniqueID>  (36) 
36

>  <SMILES>  (36) 
O=C([N-]Cc1ccnc(N2CCCC2)c1)Nc1cccc(Br)c1

>  <Energy>  (36) 
44.14182181039895

>  <Genealogy>  (36) 
O=C([N-]Cc1ccnc(N2CCCC2)c1)Nc1cccc(Br)c1 (protonated)
O=C([N-]Cc1ccnc(N2CCCC2)c1)Nc1cccc(Br)c1 (3D coordinates assigned)
O=C([N-]Cc1ccnc(N2CCCC2)c1)Nc1cccc(Br)c1 (nonaromatic ring conformer: 44.14182181039895 kcal/mol)

>  <smiles>  (36) 
O=C(NCc1ccnc(N2CCCC2)c1)Nc1cccc(Br)c1

>  <score_type>  (36) 
oracle

>  <origin>  (36) 
adg

>  <m_score__min__energy>  (36) 
-9.7400000000000002

>  <m_primary>  (36) 
energy

$$$$
36:0
     RDKit          3D

 50 52  0  0  0  0  0  0  0  0999 V2000
   56.1540   29.8020   42.4590 O   0  0  0  0  0  0  0  0  0  0  0  0
   56.1260   29.7710   43.7070 N   0  0  0  0  0  0  0  0  0  0  0  0
   54.9780   29.3450   44.3330 O   0  0  0  0  0  0  0  0  0  0  0  0
   57.2740   30.1720   44.4790 C   0  0  0  0  0  0  0  0  0  0  0  0
   58.2000   29.2170   44.9150 C   0  0  0  0  0  0  0  0  0  0  0  0
   59.3070   29.5990   45.6700 C   0  0  0  0  0  0  0  0  0  0  0  0
   59.5340   30.9480   45.9970 C   0  0  0  0  0  0  0  0  0  0  0  0
   60.6650   31.2740   46.8390 N   0  0  0  0  0  0  0  0  0  0  0  0
   60.8440   30.2420   47.8710 C   0  0  0  0  0  0  0  0  0  0  0  0
   61.8190   30.7210   48.9590 C   0  0  0  0  0  0  0  0  0  0  0  0
   62.2130   32.1310   48.7450 N   0  0  0  0  0  0  0  0  0  0  0  0
   62.6690   32.7670   50.0050 C   0  0  0  0  0  0  0  0  0  0  0  0
   64.2040   32.7630   50.1210 C   0  0  0  0  0  0  0  0  0  0  0  0
   64.8660   33.4420   49.0630 O   0  0  0  0  0  0  0  0  0  0  0  0
   64.1150   33.4870   47.8570 C   0  0  0  0  0  0  0  0  0  0  0  0
   63.2120   32.2600   47.6540 C   0  0  0  0  0  0  0  0  0  0  0  0
   58.6100   31.9290   45.5440 C   0  0  0  0  0  0  0  0  0  0  0  0
   58.8290   33.6640   45.8640 S   0  0  0  0  0  0  0  0  0  0  0  0
   59.5920   34.2860   44.7300 O   0  0  0  0  0  0  0  0  0  0  0  0
   57.4980   34.3500   45.9930 O   0  0  0  0  0  0  0  0  0  0  0  0
   59.7290   33.9300   47.3240 N   0  0  0  0  0  0  0  0  0  0  0  0
   59.3330   33.5010   48.6360 C   0  0  0  0  0  0  0  0  0  0  0  0
   59.8310   34.1960   49.7470 C   0  0  0  0  0  0  0  0  0  0  0  0
   59.4820   33.8040   51.0430 C   0  0  0  0  0  0  0  0  0  0  0  0
   58.6360   32.7070   51.2380 C   0  0  0  0  0  0  0  0  0  0  0  0
   58.1620   32.1690   53.0080 Br  0  0  0  0  0  0  0  0  0  0  0  0
   58.1380   32.0060   50.1360 C   0  0  0  0  0  0  0  0  0  0  0  0
   58.4830   32.3980   48.8380 C   0  0  0  0  0  0  0  0  0  0  0  0
   57.4840   31.5210   44.8060 C   0  0  0  0  0  0  0  0  0  0  0  0
   58.0526   28.1572   44.6597 H   0  0  0  0  0  0  0  0  0  0  0  0
   60.0157   28.8323   46.0163 H   0  0  0  0  0  0  0  0  0  0  0  0
   60.5550   32.2090   47.2840 H   0  0  0  0  0  0  0  0  0  0  0  0
   61.5280   31.3230   46.2480 H   0  0  0  0  0  0  0  0  0  0  0  0
   59.8701   30.0201   48.3318 H   0  0  0  0  0  0  0  0  0  0  0  0
   61.2587   29.3393   47.3986 H   0  0  0  0  0  0  0  0  0  0  0  0
   61.3325   30.6301   49.9414 H   0  0  0  0  0  0  0  0  0  0  0  0
   62.7237   30.0970   48.9135 H   0  0  0  0  0  0  0  0  0  0  0  0
   62.3123   33.8073   50.0288 H   0  0  0  0  0  0  0  0  0  0  0  0
   62.2596   32.1909   50.8479 H   0  0  0  0  0  0  0  0  0  0  0  0
   64.4803   33.2475   51.0691 H   0  0  0  0  0  0  0  0  0  0  0  0
   64.5237   31.7116   50.0731 H   0  0  0  0  0  0  0  0  0  0  0  0
   63.4822   34.3866   47.8737 H   0  0  0  0  0  0  0  0  0  0  0  0
   64.8357   33.5008   47.0261 H   0  0  0  0  0  0  0  0  0  0  0  0
   62.6826   32.3609   46.6951 H   0  0  0  0  0  0  0  0  0  0  0  0
   63.8460   31.3611   47.6595 H   0  0  0  0  0  0  0  0  0  0  0  0
   60.5009   35.0557   49.5981 H   0  0  0  0  0  0  0  0  0  0  0  0
   59.8726   34.3582   51.9092 H   0  0  0  0  0  0  0  0  0  0  0  0
   57.4728   31.1435   50.2898 H   0  0  0  0  0  0  0  0  0  0  0  0
   58.0891   31.8429   47.9739 H   0  0  0  0  0  0  0  0  0  0  0  0
   56.7529   32.2747   44.4783 H   0  0  0  0  0  0  0  0  0  0  0  0
  1  2  2  0
  2  3  1  0
  2  4  1  0
  4  5  2  0
  5  6  1  0
  6  7  2  0
  7  8  1  0
  8  9  1  0
  9 10  1  0
 10 11  1  0
 11 12  1  0
 12 13  1  0
 13 14  1  0
 14 15  1  0
 15 16  1  0
  7 17  1  0
 17 18  1  0
 18 19  2  0
 18 20  2  0
 18 21  1  0
 21 22  1  0
 22 23  2  0
 23 24  1  0
 24 25  2  0
 25 26  1  0
 25 27  1  0
 27 28  2  0
 17 29  2  0
 29  4  1  0
 16 11  1  0
 28 22  1  0
  5 30  1  0
  6 31  1  0
  8 32  1  0
  8 33  1  0
  9 34  1  0
  9 35  1  0
 10 36  1  0
 10 37  1  0
 12 38  1  0
 12 39  1  0
 13 40  1  0
 13 41  1  0
 15 42  1  0
 15 43  1  0
 16 44  1  0
 16 45  1  0
 23 46  1  0
 24 47  1  0
 27 48  1  0
 28 49  1  0
 29 50  1  0
M  CHG  4   2   1   3  -1   8   1  21  -1
M  END
>  <UniqueID>  (37) 
37

>  <SMILES>  (37) 
O=[N+]([O-])c1ccc([NH2+]CCN2CCOCC2)c(S(=O)(=O)[N-]c2ccc(Br)cc2)c1

>  <Energy>  (37) 
72.58658336040345

>  <Genealogy>  (37) 
O=[N+]([O-])c1ccc([NH2+]CCN2CCOCC2)c(S(=O)(=O)[N-]c2ccc(Br)cc2)c1 (protonated)
O=[N+]([O-])c1ccc([NH2+]CCN2CCOCC2)c(S(=O)(=O)[N-]c2ccc(Br)cc2)c1 (3D coordinates assigned)
O=[N+]([O-])c1ccc([NH2+]CCN2CCOCC2)c(S(=O)(=O)[N-]c2ccc(Br)cc2)c1 (nonaromatic ring conformer: 72.58658336040345 kcal/mol)

>  <smiles>  (37) 
O=[N+]([O-])c1ccc(NCCN2CCOCC2)c(S(=O)(=O)Nc2ccc(Br)cc2)c1

>  <score_type>  (37) 
oracle

>  <origin>  (37) 
adg

>  <m_score__min__energy>  (37) 
-7.4400000000000004

>  <m_primary>  (37) 
energy

$$$$
37:0
     RDKit          3D

 44 46  0  0  0  0  0  0  0  0999 V2000
   55.9090   30.0010   43.4070 C   0  0  0  0  0  0  0  0  0  0  0  0
   56.1360   29.9880   44.8120 O   0  0  0  0  0  0  0  0  0  0  0  0
   57.1630   29.2690   45.4470 C   0  0  0  0  0  0  0  0  0  0  0  0
   57.2260   27.8610   45.3940 C   0  0  0  0  0  0  0  0  0  0  0  0
   58.2630   27.1760   46.0300 C   0  0  0  0  0  0  0  0  0  0  0  0
   59.2440   27.8780   46.7320 C   0  0  0  0  0  0  0  0  0  0  0  0
   60.5540   27.0130   47.5140 Cl  0  0  0  0  0  0  0  0  0  0  0  0
   59.1930   29.2740   46.7940 C   0  0  0  0  0  0  0  0  0  0  0  0
   58.1570   29.9770   46.1560 C   0  0  0  0  0  0  0  0  0  0  0  0
   58.1310   31.4830   46.2170 C   0  0  0  0  0  0  0  0  0  0  0  0
   58.1260   32.2120   44.5390 S   0  0  0  0  0  0  0  0  0  0  0  0
   57.7020   33.9090   45.0620 C   0  0  0  0  0  0  0  0  0  0  0  0
   58.9600   34.6210   45.4700 C   0  0  0  0  0  0  0  0  0  0  0  0
   59.2820   35.6660   44.8410 O   0  0  0  0  0  0  0  0  0  0  0  0
   59.7740   34.1770   46.5780 N   0  0  0  0  0  0  0  0  0  0  0  0
   59.3890   34.5950   47.9370 C   0  0  0  0  0  0  0  0  0  0  0  0
   59.9130   33.6200   48.9890 C   0  0  0  0  0  0  0  0  0  0  0  0
   61.3920   33.4480   48.8270 C   0  0  0  0  0  0  0  0  0  0  0  0
   62.2260   33.3050   49.9470 C   0  0  0  0  0  0  0  0  0  0  0  0
   63.6030   33.1330   49.7800 C   0  0  0  0  0  0  0  0  0  0  0  0
   64.1510   33.0910   48.4970 C   0  0  0  0  0  0  0  0  0  0  0  0
   63.3250   33.2130   47.3770 C   0  0  0  0  0  0  0  0  0  0  0  0
   61.9420   33.3990   47.5350 C   0  0  0  0  0  0  0  0  0  0  0  0
   61.0480   33.4770   46.3210 C   0  0  0  0  0  0  0  0  0  0  0  0
   54.8284   30.0629   43.2107 H   0  0  0  0  0  0  0  0  0  0  0  0
   56.4129   30.8718   42.9622 H   0  0  0  0  0  0  0  0  0  0  0  0
   56.3102   29.0784   42.9622 H   0  0  0  0  0  0  0  0  0  0  0  0
   56.4535   27.2993   44.8483 H   0  0  0  0  0  0  0  0  0  0  0  0
   58.3071   26.0781   45.9776 H   0  0  0  0  0  0  0  0  0  0  0  0
   59.9687   29.8253   47.3457 H   0  0  0  0  0  0  0  0  0  0  0  0
   57.2248   31.8050   46.7510 H   0  0  0  0  0  0  0  0  0  0  0  0
   59.0336   31.8263   46.7437 H   0  0  0  0  0  0  0  0  0  0  0  0
   57.2285   34.4454   44.2265 H   0  0  0  0  0  0  0  0  0  0  0  0
   57.0020   33.8738   45.9098 H   0  0  0  0  0  0  0  0  0  0  0  0
   59.8052   35.5937   48.1357 H   0  0  0  0  0  0  0  0  0  0  0  0
   58.2907   34.6111   47.9963 H   0  0  0  0  0  0  0  0  0  0  0  0
   59.6988   34.0156   49.9928 H   0  0  0  0  0  0  0  0  0  0  0  0
   59.4173   32.6463   48.8617 H   0  0  0  0  0  0  0  0  0  0  0  0
   61.7948   33.3284   50.9587 H   0  0  0  0  0  0  0  0  0  0  0  0
   64.2550   33.0307   50.6600 H   0  0  0  0  0  0  0  0  0  0  0  0
   65.2357   32.9616   48.3675 H   0  0  0  0  0  0  0  0  0  0  0  0
   63.7594   33.1632   46.3677 H   0  0  0  0  0  0  0  0  0  0  0  0
   61.5861   34.0124   45.5249 H   0  0  0  0  0  0  0  0  0  0  0  0
   60.8002   32.4450   46.0321 H   0  0  0  0  0  0  0  0  0  0  0  0
  1  2  1  0
  2  3  1  0
  3  4  2  0
  4  5  1  0
  5  6  2  0
  6  7  1  0
  6  8  1  0
  8  9  2  0
  9 10  1  0
 10 11  1  0
 11 12  1  0
 12 13  1  0
 13 14  2  0
 13 15  1  0
 15 16  1  0
 16 17  1  0
 17 18  1  0
 18 19  2  0
 19 20  1  0
 20 21  2  0
 21 22  1  0
 22 23  2  0
 23 24  1  0
  9  3  1  0
 24 15  1  0
 23 18  1  0
  1 25  1  0
  1 26  1  0
  1 27  1  0
  4 28  1  0
  5 29  1  0
  8 30  1  0
 10 31  1  0
 10 32  1  0
 12 33  1  0
 12 34  1  0
 16 35  1  0
 16 36  1  0
 17 37  1  0
 17 38  1  0
 19 39  1  0
 20 40  1  0
 21 41  1  0
 22 42  1  0
 24 43  1  0
 24 44  1  0
M  END
>  <UniqueID>  (38) 
38

>  <SMILES>  (38) 
COc1ccc(Cl)cc1CSCC(=O)N1CCc2ccccc2C1

>  <Energy>  (38) 
44.29914708207012

>  <Genealogy>  (38) 
COc1ccc(Cl)cc1CSCC(=O)N1CCc2ccccc2C1 (3D coordinates assigned)
COc1ccc(Cl)cc1CSCC(=O)N1CCc2ccccc2C1 (nonaromatic ring conformer: 44.29914708207012 kcal/mol)

>  <smiles>  (38) 
COc1ccc(Cl)cc1CSCC(=O)N1CCc2ccccc2C1

>  <score_type>  (38) 
oracle

>  <origin>  (38) 
adg

>  <m_score__min__energy>  (38) 
-8.2200000000000006

>  <m_primary>  (38) 
energy

$$$$
38:0
     RDKit          3D

 40 41  0  0  0  0  0  0  0  0999 V2000
   63.6350   33.0490   47.2120 C   0  0  0  0  0  0  0  0  0  0  0  0
   62.5500   32.0870   47.5600 C   0  0  0  0  0  0  0  0  0  0  0  0
   61.9030   32.0080   48.7780 C   0  0  0  0  0  0  0  0  0  0  0  0
   61.0030   30.9710   48.6570 C   0  0  0  0  0  0  0  0  0  0  0  0
   61.1650   30.4830   47.3730 C   0  0  0  0  0  0  0  0  0  0  0  0
   60.4220   29.3680   46.7780 C   0  0  0  0  0  0  0  0  0  0  0  0
   59.3070   28.8220   47.3040 N   0  0  0  0  0  0  0  0  0  0  0  0
   58.9890   27.8640   46.4460 N   0  0  0  0  0  0  0  0  0  0  0  0
   57.8760   26.9420   46.6230 C   0  0  0  0  0  0  0  0  0  0  0  0
   56.6490   27.5030   45.9820 C   0  0  0  0  0  0  0  0  0  0  0  0
   55.6590   26.7530   45.7610 O   0  0  0  0  0  0  0  0  0  0  0  0
   56.6300   28.8740   45.5700 N   0  0  0  0  0  0  0  0  0  0  0  0
   55.7170   29.4000   44.5610 C   0  0  0  0  0  0  0  0  0  0  0  0
   56.1930   30.7660   44.0680 C   0  0  0  0  0  0  0  0  0  0  0  0
   58.0230   30.8510   44.1180 S   0  0  0  0  0  0  0  0  0  0  0  0
   58.2670   32.3160   45.2060 C   0  0  0  0  0  0  0  0  0  0  0  0
   58.1390   31.9540   46.6880 C   0  0  0  0  0  0  0  0  0  0  0  0
   57.3690   33.4960   44.8220 C   0  0  0  0  0  0  0  0  0  0  0  0
   59.8600   27.7970   45.4510 N   0  0  0  0  0  0  0  0  0  0  0  0
   60.7650   28.7410   45.6380 N   0  0  0  0  0  0  0  0  0  0  0  0
   62.0940   31.1650   46.7430 O   0  0  0  0  0  0  0  0  0  0  0  0
   64.0829   33.4461   48.1349 H   0  0  0  0  0  0  0  0  0  0  0  0
   64.4071   32.5332   46.6222 H   0  0  0  0  0  0  0  0  0  0  0  0
   63.2154   33.8773   46.6222 H   0  0  0  0  0  0  0  0  0  0  0  0
   62.0712   32.6414   49.6614 H   0  0  0  0  0  0  0  0  0  0  0  0
   60.3017   30.6072   49.4224 H   0  0  0  0  0  0  0  0  0  0  0  0
   58.1232   25.9769   46.1566 H   0  0  0  0  0  0  0  0  0  0  0  0
   57.6911   26.7971   47.6976 H   0  0  0  0  0  0  0  0  0  0  0  0
   55.6760   28.7027   43.7113 H   0  0  0  0  0  0  0  0  0  0  0  0
   54.7184   29.5117   45.0086 H   0  0  0  0  0  0  0  0  0  0  0  0
   55.8498   30.9195   43.0343 H   0  0  0  0  0  0  0  0  0  0  0  0
   55.7783   31.5487   44.7202 H   0  0  0  0  0  0  0  0  0  0  0  0
   59.3012   32.6535   45.0431 H   0  0  0  0  0  0  0  0  0  0  0  0
   58.4430   32.8138   47.3031 H   0  0  0  0  0  0  0  0  0  0  0  0
   57.0942   31.6934   46.9129 H   0  0  0  0  0  0  0  0  0  0  0  0
   58.7878   31.0946   46.9129 H   0  0  0  0  0  0  0  0  0  0  0  0
   56.9966   33.9854   45.7341 H   0  0  0  0  0  0  0  0  0  0  0  0
   57.9475   34.2189   44.2281 H   0  0  0  0  0  0  0  0  0  0  0  0
   56.5180   33.1311   44.2281 H   0  0  0  0  0  0  0  0  0  0  0  0
   61.5800   28.9340   45.0130 H   0  0  0  0  0  0  0  0  0  0  0  0
  1  2  1  0
  2  3  2  0
  3  4  1  0
  4  5  2  0
  5  6  1  0
  6  7  2  0
  7  8  1  0
  8  9  1  0
  9 10  1  0
 10 11  2  0
 10 12  1  0
 12 13  1  0
 13 14  1  0
 14 15  1  0
 15 16  1  0
 16 17  1  0
 16 18  1  0
  8 19  1  0
 19 20  2  0
  5 21  1  0
 21  2  1  0
 20  6  1  0
  1 22  1  0
  1 23  1  0
  1 24  1  0
  3 25  1  0
  4 26  1  0
  9 27  1  0
  9 28  1  0
 13 29  1  0
 13 30  1  0
 14 31  1  0
 14 32  1  0
 16 33  1  0
 17 34  1  0
 17 35  1  0
 17 36  1  0
 18 37  1  0
 18 38  1  0
 18 39  1  0
 20 40  1  0
M  CHG  2  12  -1  20   1
M  END
>  <UniqueID>  (39) 
39

>  <SMILES>  (39) 
Cc1ccc(-c2nn(CC(=O)[N-]CCSC(C)C)n[nH+]2)o1

>  <Energy>  (39) 
92.13095275350364

>  <Genealogy>  (39) 
Cc1ccc(-c2nn(CC(=O)[N-]CCSC(C)C)n[nH+]2)o1 (protonated)
Cc1ccc(-c2nn(CC(=O)[N-]CCSC(C)C)n[nH+]2)o1 (3D coordinates assigned)
Cc1ccc(-c2nn(CC(=O)[N-]CCSC(C)C)n[nH+]2)o1 (optimized conformer: 92.13095275350364 kcal/mol)

>  <smiles>  (39) 
Cc1ccc(-c2nnn(CC(=O)NCCSC(C)C)n2)o1

>  <score_type>  (39) 
oracle

>  <origin>  (39) 
adg

>  <m_score__min__energy>  (39) 
-7.5999999999999996

>  <m_primary>  (39) 
energy

$$$$
39:0
     RDKit          3D

 51 55  0  0  0  0  0  0  0  0999 V2000
   65.2423   33.6832   48.0735 H   0  0  0  0  0  0  0  0  0  0  0  0
   64.1730   33.4250   48.0720 C   0  0  0  0  0  0  0  0  0  0  0  0
   63.6460   32.6300   49.0890 C   0  0  0  0  0  0  0  0  0  0  0  0
   64.2991   32.2728   49.8989 H   0  0  0  0  0  0  0  0  0  0  0  0
   62.2920   32.2850   49.0840 C   0  0  0  0  0  0  0  0  0  0  0  0
   61.8849   31.6613   49.8935 H   0  0  0  0  0  0  0  0  0  0  0  0
   61.4410   32.7310   48.0470 C   0  0  0  0  0  0  0  0  0  0  0  0
   61.9850   33.5610   47.0440 C   0  0  0  0  0  0  0  0  0  0  0  0
   63.3430   33.8930   47.0520 C   0  0  0  0  0  0  0  0  0  0  0  0
   63.7583   34.5244   46.2527 H   0  0  0  0  0  0  0  0  0  0  0  0
   61.1660   34.0730   46.0370 O   0  0  0  0  0  0  0  0  0  0  0  0
   59.7850   33.8740   46.0390 C   0  0  0  0  0  0  0  0  0  0  0  0
   59.0020   34.5110   45.0690 C   0  0  0  0  0  0  0  0  0  0  0  0
   59.4811   35.1335   44.2989 H   0  0  0  0  0  0  0  0  0  0  0  0
   57.6160   34.3580   45.0770 C   0  0  0  0  0  0  0  0  0  0  0  0
   57.0036   34.8554   44.3104 H   0  0  0  0  0  0  0  0  0  0  0  0
   57.0060   33.5750   46.0560 C   0  0  0  0  0  0  0  0  0  0  0  0
   55.9114   33.4662   46.0670 H   0  0  0  0  0  0  0  0  0  0  0  0
   57.7790   32.9280   47.0230 C   0  0  0  0  0  0  0  0  0  0  0  0
   57.2882   32.3164   47.7944 H   0  0  0  0  0  0  0  0  0  0  0  0
   59.1870   33.0530   47.0180 C   0  0  0  0  0  0  0  0  0  0  0  0
   60.0350   32.3680   47.9790 N   0  0  0  0  0  0  0  0  0  0  0  0
   59.4950   31.2680   48.8000 C   0  0  0  0  0  0  0  0  0  0  0  0
   58.4372   31.1099   48.5429 H   0  0  0  0  0  0  0  0  0  0  0  0
   59.5909   31.5367   49.8623 H   0  0  0  0  0  0  0  0  0  0  0  0
   60.2770   29.9710   48.5430 C   0  0  0  0  0  0  0  0  0  0  0  0
   59.6175   29.1194   48.7665 H   0  0  0  0  0  0  0  0  0  0  0  0
   61.1649   30.0009   49.1917 H   0  0  0  0  0  0  0  0  0  0  0  0
   60.7850   29.8230   47.1010 C   0  0  0  0  0  0  0  0  0  0  0  0
   61.8440   29.5260   47.1216 H   0  0  0  0  0  0  0  0  0  0  0  0
   60.6648   30.7879   46.5868 H   0  0  0  0  0  0  0  0  0  0  0  0
   60.0190   28.8110   46.3760 N   0  0  0  0  0  0  0  0  0  0  0  0
   58.7580   28.6450   46.0550 C   0  0  0  0  0  0  0  0  0  0  0  0
   58.1550   27.5070   46.6100 C   0  0  0  0  0  0  0  0  0  0  0  0
   58.6924   26.9292   47.3764 H   0  0  0  0  0  0  0  0  0  0  0  0
   56.8850   27.0960   46.2060 C   0  0  0  0  0  0  0  0  0  0  0  0
   56.2850   25.8400   46.7530 C   0  0  0  0  0  0  0  0  0  0  0  0
   56.3014   25.8743   47.8523 H   0  0  0  0  0  0  0  0  0  0  0  0
   55.2457   25.7481   46.4045 H   0  0  0  0  0  0  0  0  0  0  0  0
   56.8666   24.9738   46.4045 H   0  0  0  0  0  0  0  0  0  0  0  0
   56.2230   27.8000   45.2590 N   0  0  0  0  0  0  0  0  0  0  0  0
   56.7220   28.9430   44.7250 C   0  0  0  0  0  0  0  0  0  0  0  0
   55.9490   29.6340   43.7840 C   0  0  0  0  0  0  0  0  0  0  0  0
   54.9939   29.2089   43.4419 H   0  0  0  0  0  0  0  0  0  0  0  0
   56.3830   30.8550   43.2800 C   0  0  0  0  0  0  0  0  0  0  0  0
   55.7861   31.3810   42.5204 H   0  0  0  0  0  0  0  0  0  0  0  0
   57.5730   31.4100   43.7380 C   0  0  0  0  0  0  0  0  0  0  0  0
   57.8975   32.3925   43.3646 H   0  0  0  0  0  0  0  0  0  0  0  0
   58.3600   30.7260   44.6710 C   0  0  0  0  0  0  0  0  0  0  0  0
   59.2826   31.1936   45.0455 H   0  0  0  0  0  0  0  0  0  0  0  0
   57.9910   29.4450   45.1410 C   0  0  0  0  0  0  0  0  0  0  0  0
  1  2  1  0
  2  3  2  0
  3  4  1  0
  3  5  1  0
  5  6  1  0
  5  7  2  0
  7  8  1  0
  8  9  2  0
  9 10  1  0
  8 11  1  0
 11 12  1  0
 12 13  2  0
 13 14  1  0
 13 15  1  0
 15 16  1  0
 15 17  2  0
 17 18  1  0
 17 19  1  0
 19 20  1  0
 19 21  2  0
 21 22  1  0
 22 23  1  0
 23 24  1  0
 23 25  1  0
 23 26  1  0
 26 27  1  0
 26 28  1  0
 26 29  1  0
 29 30  1  0
 29 31  1  0
 29 32  1  0
 32 33  2  0
 33 34  1  0
 34 35  1  0
 34 36  2  0
 36 37  1  0
 37 38  1  0
 37 39  1  0
 37 40  1  0
 36 41  1  0
 41 42  1  0
 42 43  2  0
 43 44  1  0
 43 45  1  0
 45 46  1  0
 45 47  2  0
 47 48  1  0
 47 49  1  0
 49 50  1  0
 49 51  2  0
  9  2  1  0
 21 12  1  0
 51 33  1  0
 22  7  1  0
 51 42  1  0
M  CHG  1  41  -1
M  END
>  <UniqueID>  (40) 
40

>  <SMILES>  (40) 
Cc1c/c(=N/CCCN2c3ccccc3Oc3ccccc32)c2ccccc2[n-]1

>  <Energy>  (40) 
84.60951543628009

>  <Genealogy>  (40) 
Cc1cc(=NCCCN2c3ccccc3Oc3ccccc32)c2ccccc2[n-]1 (protonated)
Cc1c/c(=N/CCCN2c3ccccc3Oc3ccccc32)c2ccccc2[n-]1 (cis-trans isomerization)
Cc1c/c(=N/CCCN2c3ccccc3Oc3ccccc32)c2ccccc2[n-]1 (3D coordinates assigned)
Cc1c/c(=N/CCCN2c3ccccc3Oc3ccccc32)c2ccccc2[n-]1 (nonaromatic ring conformer: 84.60951543628009 kcal/mol)

>  <smiles>  (40) 
Cc1cc(=NCCCN2c3ccccc3Oc3ccccc32)c2ccccc2[nH]1

>  <score_type>  (40) 
oracle

>  <origin>  (40) 
adg

>  <m_score__min__energy>  (40) 
-11.140000000000001

>  <m_primary>  (40) 
energy

$$$$
40:0
     RDKit          3D

 54 57  0  0  0  0  0  0  0  0999 V2000
   57.0360   33.8640   44.8870 C   0  0  0  0  0  0  0  0  0  0  0  0
   57.3000   32.4300   45.1970 C   0  0  0  0  0  0  0  0  0  0  0  0
   58.2710   31.9560   46.0610 C   0  0  0  0  0  0  0  0  0  0  0  0
   58.1560   30.5840   45.9710 C   0  0  0  0  0  0  0  0  0  0  0  0
   58.9490   29.5820   46.7620 C   0  0  0  0  0  0  0  0  0  0  0  0
   59.3970   30.1720   48.0380 N   0  0  0  0  0  0  0  0  0  0  0  0
   58.9230   29.3630   49.1800 C   0  0  0  0  0  0  0  0  0  0  0  0
   59.1790   30.0920   50.5180 C   0  0  0  0  0  0  0  0  0  0  0  0
   60.2490   31.1860   50.3910 C   0  0  0  0  0  0  0  0  0  0  0  0
   61.3910   30.7040   49.4800 C   0  0  2  0  0  0  0  0  0  0  0  0
   62.5920   31.6390   49.4310 C   0  0  0  0  0  0  0  0  0  0  0  0
   63.7160   31.2190   50.0740 N   0  0  0  0  0  0  0  0  0  0  0  0
   64.8640   31.9440   50.0780 C   0  0  0  0  0  0  0  0  0  0  0  0
   66.0600   31.4380   50.8200 C   0  0  0  0  0  0  0  0  0  0  0  0
   64.9150   33.1330   49.4260 N   0  0  0  0  0  0  0  0  0  0  0  0
   63.8310   33.6050   48.7600 C   0  0  0  0  0  0  0  0  0  0  0  0
   62.6350   32.8760   48.7350 C   0  0  0  0  0  0  0  0  0  0  0  0
   61.4930   33.4650   48.0110 C   0  0  0  0  0  0  0  0  0  0  0  0
   60.4180   34.0100   48.7290 C   0  0  0  0  0  0  0  0  0  0  0  0
   59.3800   34.6390   48.0410 C   0  0  0  0  0  0  0  0  0  0  0  0
   59.4330   34.7590   46.6870 N   0  0  0  0  0  0  0  0  0  0  0  0
   60.4850   34.2780   45.9710 C   0  0  0  0  0  0  0  0  0  0  0  0
   61.5380   33.6300   46.6190 C   0  0  0  0  0  0  0  0  0  0  0  0
   60.8760   30.3070   48.0730 C   0  0  0  0  0  0  0  0  0  0  0  0
   57.1680   30.2850   45.1020 N   0  0  0  0  0  0  0  0  0  0  0  0
   56.6980   28.9520   44.7400 C   0  0  0  0  0  0  0  0  0  0  0  0
   56.6500   31.4030   44.6170 N   0  0  0  0  0  0  0  0  0  0  0  0
   56.9320   34.4288   45.8252 H   0  0  0  0  0  0  0  0  0  0  0  0
   57.8739   34.2733   44.3035 H   0  0  0  0  0  0  0  0  0  0  0  0
   56.1073   33.9481   44.3035 H   0  0  0  0  0  0  0  0  0  0  0  0
   58.9722   32.5381   46.6770 H   0  0  0  0  0  0  0  0  0  0  0  0
   58.3194   28.7043   46.9699 H   0  0  0  0  0  0  0  0  0  0  0  0
   59.8318   29.2842   46.1773 H   0  0  0  0  0  0  0  0  0  0  0  0
   57.8436   29.1821   49.0695 H   0  0  0  0  0  0  0  0  0  0  0  0
   59.4740   28.4110   49.1882 H   0  0  0  0  0  0  0  0  0  0  0  0
   58.2391   30.5540   50.8544 H   0  0  0  0  0  0  0  0  0  0  0  0
   59.5431   29.3481   51.2419 H   0  0  0  0  0  0  0  0  0  0  0  0
   59.7956   32.0902   49.9588 H   0  0  0  0  0  0  0  0  0  0  0  0
   60.6543   31.4113   51.3885 H   0  0  0  0  0  0  0  0  0  0  0  0
   61.7802   29.7905   49.9533 H   0  0  0  0  0  0  0  0  0  0  0  0
   65.8794   31.5144   51.9024 H   0  0  0  0  0  0  0  0  0  0  0  0
   66.2402   30.3866   50.5517 H   0  0  0  0  0  0  0  0  0  0  0  0
   66.9401   32.0409   50.5517 H   0  0  0  0  0  0  0  0  0  0  0  0
   65.7940   33.6990   49.4320 H   0  0  0  0  0  0  0  0  0  0  0  0
   63.8920   34.5695   48.2346 H   0  0  0  0  0  0  0  0  0  0  0  0
   60.3937   33.9419   49.8266 H   0  0  0  0  0  0  0  0  0  0  0  0
   58.5173   35.0386   48.5943 H   0  0  0  0  0  0  0  0  0  0  0  0
   60.5059   34.4001   44.8780 H   0  0  0  0  0  0  0  0  0  0  0  0
   62.3955   33.2521   46.0429 H   0  0  0  0  0  0  0  0  0  0  0  0
   61.1788   31.0813   47.3527 H   0  0  0  0  0  0  0  0  0  0  0  0
   61.3119   29.3305   47.8153 H   0  0  0  0  0  0  0  0  0  0  0  0
   56.4943   28.3743   45.6537 H   0  0  0  0  0  0  0  0  0  0  0  0
   55.7756   29.0370   44.1467 H   0  0  0  0  0  0  0  0  0  0  0  0
   57.4697   28.4397   44.1467 H   0  0  0  0  0  0  0  0  0  0  0  0
  1  2  1  0
  2  3  1  0
  3  4  2  0
  4  5  1  0
  5  6  1  0
  6  7  1  0
  7  8  1  0
  8  9  1  0
  9 10  1  0
 10 11  1  0
 11 12  2  0
 12 13  1  0
 13 14  1  0
 13 15  2  0
 15 16  1  0
 16 17  2  0
 17 18  1  0
 18 19  2  0
 19 20  1  0
 20 21  2  0
 21 22  1  0
 22 23  2  0
 10 24  1  0
  4 25  1  0
 25 26  1  0
 25 27  1  0
 27  2  2  0
 24  6  1  0
 17 11  1  0
 23 18  1  0
  1 28  1  0
  1 29  1  0
  1 30  1  0
  3 31  1  0
  5 32  1  0
  5 33  1  0
  7 34  1  0
  7 35  1  0
  8 36  1  0
  8 37  1  0
  9 38  1  0
  9 39  1  0
 10 40  1  1
 14 41  1  0
 14 42  1  0
 14 43  1  0
 15 44  1  0
 16 45  1  0
 19 46  1  0
 20 47  1  0
 22 48  1  0
 23 49  1  0
 24 50  1  0
 24 51  1  0
 26 52  1  0
 26 53  1  0
 26 54  1  0
M  CHG  1  15   1
M  END
>  <UniqueID>  (41) 
41

>  <SMILES>  (41) 
Cc1cc(CN2CCC[C@H](c3nc(C)[nH+]cc3-c3ccncc3)C2)n(C)n1

>  <Energy>  (41) 
98.19869657159103

>  <Genealogy>  (41) 
Cc1cc(CN2CCCC(c3nc(C)[nH+]cc3-c3ccncc3)C2)n(C)n1 (protonated)
Cc1cc(CN2CCC[C@H](c3nc(C)[nH+]cc3-c3ccncc3)C2)n(C)n1 (chirality)
Cc1cc(CN2CCC[C@H](c3nc(C)[nH+]cc3-c3ccncc3)C2)n(C)n1 (3D coordinates assigned)
Cc1cc(CN2CCC[C@H](c3nc(C)[nH+]cc3-c3ccncc3)C2)n(C)n1 (nonaromatic ring conformer: 98.19869657159103 kcal/mol)

>  <smiles>  (41) 
Cc1cc(CN2CCCC(c3nc(C)ncc3-c3ccncc3)C2)n(C)n1

>  <score_type>  (41) 
oracle

>  <origin>  (41) 
adg

>  <m_score__min__energy>  (41) 
-7.0800000000000001

>  <m_primary>  (41) 
energy

$$$$
41:0
     RDKit          3D

 53 55  0  0  0  0  0  0  0  0999 V2000
   60.3170   27.0430   47.4320 C   0  0  0  0  0  0  0  0  0  0  0  0
   59.5370   28.3310   47.7130 C   0  0  0  0  0  0  0  0  0  0  0  0
   60.3260   29.2670   48.6320 C   0  0  0  0  0  0  0  0  0  0  0  0
   59.1990   29.0090   46.4590 N   0  0  0  0  0  0  0  0  0  0  0  0
   59.9020   29.0050   45.3090 C   0  0  0  0  0  0  0  0  0  0  0  0
   59.2840   29.7570   44.3820 N   0  0  0  0  0  0  0  0  0  0  0  0
   58.1870   30.2030   45.0210 C   0  0  0  0  0  0  0  0  0  0  0  0
   56.9990   31.2720   44.3000 S   0  0  0  0  0  0  0  0  0  0  0  0
   55.6250   30.8230   44.7130 O   0  0  0  0  0  0  0  0  0  0  0  0
   57.1120   31.1710   42.8050 O   0  0  0  0  0  0  0  0  0  0  0  0
   57.3000   32.9150   44.8230 N   0  0  0  0  0  0  0  0  0  0  0  0
   58.5570   33.4640   44.2610 C   0  0  0  0  0  0  0  0  0  0  0  0
   59.6410   33.7890   45.3090 C   0  0  0  0  0  0  0  0  0  0  0  0
   59.7580   32.6650   46.3640 C   0  0  0  0  0  0  0  0  0  0  0  0
   60.7940   32.9230   47.4150 N   0  0  0  0  0  0  0  0  0  0  0  0
   62.1240   33.1300   46.7750 C   0  0  0  0  0  0  0  0  0  0  0  0
   63.1460   33.8420   47.6860 C   0  0  0  0  0  0  0  0  0  0  0  0
   62.8430   33.6570   49.1140 N   0  0  0  0  0  0  0  0  0  0  0  0
   63.0360   32.2600   49.5450 C   0  0  0  0  0  0  0  0  0  0  0  0
   61.5000   34.1710   49.4580 C   0  0  0  0  0  0  0  0  0  0  0  0
   60.4780   34.0630   48.3040 C   0  0  0  0  0  0  0  0  0  0  0  0
   58.3710   32.4440   47.0410 C   0  0  0  0  0  0  0  0  0  0  0  0
   57.1820   33.0590   46.2820 C   0  0  0  0  0  0  0  0  0  0  0  0
   58.1210   29.7580   46.2910 N   0  0  0  0  0  0  0  0  0  0  0  0
   60.6023   26.5719   48.3842 H   0  0  0  0  0  0  0  0  0  0  0  0
   59.6862   26.3508   46.8550 H   0  0  0  0  0  0  0  0  0  0  0  0
   61.2227   27.2813   46.8550 H   0  0  0  0  0  0  0  0  0  0  0  0
   58.6047   28.0570   48.2285 H   0  0  0  0  0  0  0  0  0  0  0  0
   60.1137   29.0151   49.6815 H   0  0  0  0  0  0  0  0  0  0  0  0
   61.4024   29.1504   48.4374 H   0  0  0  0  0  0  0  0  0  0  0  0
   60.0289   30.3081   48.4374 H   0  0  0  0  0  0  0  0  0  0  0  0
   60.8465   28.4637   45.1516 H   0  0  0  0  0  0  0  0  0  0  0  0
   59.5900   29.9530   43.4030 H   0  0  0  0  0  0  0  0  0  0  0  0
   58.9699   32.7254   43.5581 H   0  0  0  0  0  0  0  0  0  0  0  0
   58.2930   34.4173   43.7797 H   0  0  0  0  0  0  0  0  0  0  0  0
   60.6090   33.9041   44.7993 H   0  0  0  0  0  0  0  0  0  0  0  0
   59.3586   34.7195   45.8232 H   0  0  0  0  0  0  0  0  0  0  0  0
   60.0838   31.7635   45.8245 H   0  0  0  0  0  0  0  0  0  0  0  0
   62.5323   32.1473   46.4966 H   0  0  0  0  0  0  0  0  0  0  0  0
   61.9634   33.7799   45.9022 H   0  0  0  0  0  0  0  0  0  0  0  0
   64.1471   33.4348   47.4809 H   0  0  0  0  0  0  0  0  0  0  0  0
   63.0989   34.9192   47.4681 H   0  0  0  0  0  0  0  0  0  0  0  0
   63.0425   32.2129   50.6440 H   0  0  0  0  0  0  0  0  0  0  0  0
   62.2150   31.6396   49.1563 H   0  0  0  0  0  0  0  0  0  0  0  0
   63.9944   31.8854   49.1563 H   0  0  0  0  0  0  0  0  0  0  0  0
   61.1177   33.5970   50.3150 H   0  0  0  0  0  0  0  0  0  0  0  0
   61.6146   35.2409   49.6862 H   0  0  0  0  0  0  0  0  0  0  0  0
   59.4727   33.9203   48.7271 H   0  0  0  0  0  0  0  0  0  0  0  0
   60.5215   34.9891   47.7121 H   0  0  0  0  0  0  0  0  0  0  0  0
   58.1999   31.3608   47.1268 H   0  0  0  0  0  0  0  0  0  0  0  0
   58.4153   32.9526   48.0154 H   0  0  0  0  0  0  0  0  0  0  0  0
   56.2589   32.5591   46.6108 H   0  0  0  0  0  0  0  0  0  0  0  0
   57.1665   34.1354   46.5079 H   0  0  0  0  0  0  0  0  0  0  0  0
  1  2  1  0
  2  3  1  0
  2  4  1  0
  4  5  1  0
  5  6  2  0
  6  7  1  0
  7  8  1  0
  8  9  2  0
  8 10  2  0
  8 11  1  0
 11 12  1  0
 12 13  1  0
 13 14  1  0
 14 15  1  0
 15 16  1  0
 16 17  1  0
 17 18  1  0
 18 19  1  0
 18 20  1  0
 20 21  1  0
 14 22  1  0
 22 23  1  0
  7 24  2  0
 24  4  1  0
 23 11  1  0
 21 15  1  0
  1 25  1  0
  1 26  1  0
  1 27  1  0
  2 28  1  0
  3 29  1  0
  3 30  1  0
  3 31  1  0
  5 32  1  0
  6 33  1  0
 12 34  1  0
 12 35  1  0
 13 36  1  0
 13 37  1  0
 14 38  1  0
 16 39  1  0
 16 40  1  0
 17 41  1  0
 17 42  1  0
 19 43  1  0
 19 44  1  0
 19 45  1  0
 20 46  1  0
 20 47  1  0
 21 48  1  0
 21 49  1  0
 22 50  1  0
 22 51  1  0
 23 52  1  0
 23 53  1  0
M  CHG  1   6   1
M  END
>  <UniqueID>  (42) 
42

>  <SMILES>  (42) 
CC(C)n1c[nH+]c(S(=O)(=O)N2CCC(N3CCN(C)CC3)CC2)n1

>  <Energy>  (42) 
107.97857862653987

>  <Genealogy>  (42) 
CC(C)n1c[nH+]c(S(=O)(=O)N2CCC(N3CCN(C)CC3)CC2)n1 (protonated)
CC(C)n1c[nH+]c(S(=O)(=O)N2CCC(N3CCN(C)CC3)CC2)n1 (3D coordinates assigned)
CC(C)n1c[nH+]c(S(=O)(=O)N2CCC(N3CCN(C)CC3)CC2)n1 (nonaromatic ring conformer: 107.97857862653987 kcal/mol)

>  <smiles>  (42) 
CC(C)n1cnc(S(=O)(=O)N2CCC(N3CCN(C)CC3)CC2)n1

>  <score_type>  (42) 
oracle

>  <origin>  (42) 
adg

>  <m_score__min__energy>  (42) 
-7.25

>  <m_primary>  (42) 
energy

$$$$
42:0
     RDKit          3D

 64 66  0  0  0  0  0  0  0  0999 V2000
   60.5026   34.5934   46.4190 H   0  0  0  0  0  0  0  0  0  0  0  0
   59.8810   34.1020   47.1820 C   0  0  0  0  0  0  0  0  0  0  0  0
   58.6760   33.6080   46.8270 C   0  0  0  0  0  0  0  0  0  0  0  0
   58.2070   33.6260   45.3800 C   0  0  2  0  0  0  0  0  0  0  0  0
   57.3758   34.3445   45.3263 H   0  0  0  0  0  0  0  0  0  0  0  0
   57.6690   32.2780   44.9690 C   0  0  0  0  0  0  0  0  0  0  0  0
   56.5785   32.1374   44.9357 H   0  0  0  0  0  0  0  0  0  0  0  0
   60.3930   34.0010   48.5760 C   0  0  0  0  0  0  0  0  0  0  0  0
   61.7078   35.5910   48.9651 H   0  0  0  0  0  0  0  0  0  0  0  0
   58.1620   29.8710   45.1190 C   0  0  0  0  0  0  0  0  0  0  0  0
   56.9690   29.2910   44.8290 C   0  0  0  0  0  0  0  0  0  0  0  0
   55.9350   29.9900   43.9790 C   0  0  0  0  0  0  0  0  0  0  0  0
   55.2003   30.4867   44.6298 H   0  0  0  0  0  0  0  0  0  0  0  0
   56.4287   30.7403   43.3440 H   0  0  0  0  0  0  0  0  0  0  0  0
   55.4227   29.2522   43.3440 H   0  0  0  0  0  0  0  0  0  0  0  0
   56.6680   27.8960   45.3140 C   0  0  0  0  0  0  0  0  0  0  0  0
   55.8799   27.4524   44.6877 H   0  0  0  0  0  0  0  0  0  0  0  0
   56.3270   27.9373   46.3590 H   0  0  0  0  0  0  0  0  0  0  0  0
   57.9260   27.0440   45.2250 C   0  0  0  0  0  0  0  0  0  0  0  0
   58.3055   27.0534   44.1926 H   0  0  0  0  0  0  0  0  0  0  0  0
   57.6948   26.0085   45.5152 H   0  0  0  0  0  0  0  0  0  0  0  0
   58.9830   27.6190   46.1640 C   0  0  0  0  0  0  0  0  0  0  0  0
   59.9254   27.0758   46.0003 H   0  0  0  0  0  0  0  0  0  0  0  0
   58.6020   27.4990   47.1889 H   0  0  0  0  0  0  0  0  0  0  0  0
   59.2510   29.1540   45.9500 C   0  0  0  0  0  0  0  0  0  0  0  0
   60.6300   29.3230   45.2570 C   0  0  0  0  0  0  0  0  0  0  0  0
   61.4152   29.4192   46.0214 H   0  0  0  0  0  0  0  0  0  0  0  0
   60.8352   28.4433   44.6293 H   0  0  0  0  0  0  0  0  0  0  0  0
   60.6167   30.2262   44.6293 H   0  0  0  0  0  0  0  0  0  0  0  0
   59.3220   29.8390   47.3340 C   0  0  0  0  0  0  0  0  0  0  0  0
   59.2431   29.0779   48.1243 H   0  0  0  0  0  0  0  0  0  0  0  0
   60.2801   30.3707   47.4313 H   0  0  0  0  0  0  0  0  0  0  0  0
   58.4933   30.5558   47.4313 H   0  0  0  0  0  0  0  0  0  0  0  0
   59.2540   34.1750   44.4010 C   0  0  0  0  0  0  0  0  0  0  0  0
   60.0899   34.6133   44.9659 H   0  0  0  0  0  0  0  0  0  0  0  0
   59.6283   33.3571   43.7678 H   0  0  0  0  0  0  0  0  0  0  0  0
   58.7941   34.9480   43.7678 H   0  0  0  0  0  0  0  0  0  0  0  0
   57.7640   33.0130   47.8770 C   0  0  0  0  0  0  0  0  0  0  0  0
   57.1095   32.2678   47.4013 H   0  0  0  0  0  0  0  0  0  0  0  0
   57.1722   33.8267   48.3216 H   0  0  0  0  0  0  0  0  0  0  0  0
   58.5620   32.3340   48.9930 C   0  0  0  0  0  0  0  0  0  0  0  0
   59.1246   31.4871   48.5730 H   0  0  0  0  0  0  0  0  0  0  0  0
   57.8645   31.9776   49.7653 H   0  0  0  0  0  0  0  0  0  0  0  0
   59.5420   33.3270   49.6270 C   0  0  0  0  0  0  0  0  0  0  0  0
   60.1968   32.7875   50.3272 H   0  0  0  0  0  0  0  0  0  0  0  0
   58.9630   34.0994   50.1544 H   0  0  0  0  0  0  0  0  0  0  0  0
   61.5900   34.4980   48.9280 C   0  0  0  0  0  0  0  0  0  0  0  0
   58.4570   31.2420   44.6420 C   0  0  0  0  0  0  0  0  0  0  0  0
   59.3389   31.4143   44.0075 H   0  0  0  0  0  0  0  0  0  0  0  0
   62.7600   33.6570   49.2690 C   0  0  0  0  0  0  0  0  0  0  0  0
   63.1540   33.3530   50.5290 N   0  0  0  0  0  0  0  0  0  0  0  0
   62.5590   33.7900   51.7920 C   0  0  0  0  0  0  0  0  0  0  0  0
   63.1315   33.3695   52.6319 H   0  0  0  0  0  0  0  0  0  0  0  0
   62.5807   34.8884   51.8469 H   0  0  0  0  0  0  0  0  0  0  0  0
   61.5174   33.4407   51.8469 H   0  0  0  0  0  0  0  0  0  0  0  0
   64.2640   32.5990   50.3960 C   0  0  0  0  0  0  0  0  0  0  0  0
   64.8666   32.1893   51.2200 H   0  0  0  0  0  0  0  0  0  0  0  0
   64.5150   32.4290   49.0490 C   0  0  0  0  0  0  0  0  0  0  0  0
   65.3477   31.8542   48.6175 H   0  0  0  0  0  0  0  0  0  0  0  0
   63.5650   33.0880   48.3510 N   0  0  0  0  0  0  0  0  0  0  0  0
   63.4410   33.1500   46.8940 C   0  0  0  0  0  0  0  0  0  0  0  0
   62.4865   33.6273   46.6272 H   0  0  0  0  0  0  0  0  0  0  0  0
   64.2733   33.7380   46.4799 H   0  0  0  0  0  0  0  0  0  0  0  0
   63.4700   32.1314   46.4799 H   0  0  0  0  0  0  0  0  0  0  0  0
  1  2  1  0
  2  3  2  0
  3  4  1  0
  4  5  1  1
  4  6  1  0
  6  7  1  0
  6  8  2  0
  8  9  1  0
  8 10  1  0
 10 11  2  0
 11 12  1  0
 12 13  1  0
 12 14  1  0
 12 15  1  0
 11 16  1  0
 16 17  1  0
 16 18  1  0
 16 19  1  0
 19 20  1  0
 19 21  1  0
 19 22  1  0
 22 23  1  0
 22 24  1  0
 22 25  1  0
 25 26  1  0
 26 27  1  0
 26 28  1  0
 26 29  1  0
 25 30  1  0
 30 31  1  0
 30 32  1  0
 30 33  1  0
  4 34  1  0
 34 35  1  0
 34 36  1  0
 34 37  1  0
  3 38  1  0
 38 39  1  0
 38 40  1  0
 38 41  1  0
 41 42  1  0
 41 43  1  0
 41 44  1  0
 44 45  1  0
 44 46  1  0
 44 47  1  0
 47 48  2  0
 48 49  1  0
 48 50  1  0
 50 51  1  0
 51 52  1  0
 52 53  1  0
 52 54  1  0
 52 55  1  0
 51 56  1  0
 56 57  1  0
 56 58  2  0
 58 59  1  0
 58 60  1  0
 60 61  1  0
 61 62  1  0
 61 63  1  0
 61 64  1  0
 47  2  1  0
 60 50  2  0
 25 10  1  0
M  CHG  1  60   1
M  END
>  <UniqueID>  (43) 
43

>  <SMILES>  (43) 
CC1=C(/C=C/[C@H](C)C2=C/C(=C\c3n(C)cc[n+]3C)CCC2)C(C)(C)CCC1

>  <Energy>  (43) 
102.01481442654574

>  <Genealogy>  (43) 
CC1=C(C=C[C@H](C)C2=CC(=Cc3n(C)cc[n+]3C)CCC2)C(C)(C)CCC1 (chirality)
CC1=C(/C=C/[C@H](C)C2=C/C(=C\c3n(C)cc[n+]3C)CCC2)C(C)(C)CCC1 (cis-trans isomerization)
CC1=C(/C=C/[C@H](C)C2=C/C(=C\c3n(C)cc[n+]3C)CCC2)C(C)(C)CCC1 (3D coordinates assigned)
CC1=C(/C=C/[C@H](C)C2=C/C(=C\c3n(C)cc[n+]3C)CCC2)C(C)(C)CCC1 (nonaromatic ring conformer: 102.01481442654574 kcal/mol)

>  <smiles>  (43) 
CC1=C(C=CC(C)C2=CC(=Cc3n(C)cc[n+]3C)CCC2)C(C)(C)CCC1

>  <score_type>  (43) 
oracle

>  <origin>  (43) 
adg

>  <m_score__min__energy>  (43) 
-8.0600000000000005

>  <m_primary>  (43) 
energy

$$$$
43:0
     RDKit          3D

 43 45  0  0  0  0  0  0  0  0999 V2000
   57.2710   30.3580   43.8230 C   0  0  0  0  0  0  0  0  0  0  0  0
   57.5760   30.2890   45.2100 O   0  0  0  0  0  0  0  0  0  0  0  0
   58.0410   29.1390   45.8700 C   0  0  0  0  0  0  0  0  0  0  0  0
   57.1930   28.0520   46.1630 C   0  0  0  0  0  0  0  0  0  0  0  0
   57.6990   26.8970   46.7830 C   0  0  0  0  0  0  0  0  0  0  0  0
   56.8720   25.7630   47.0850 N   0  0  0  0  0  0  0  0  0  0  0  0
   55.7420   25.0130   46.0060 S   0  0  0  0  0  0  0  0  0  0  0  0
   56.5710   24.4710   44.5260 C   0  0  0  0  0  0  0  0  0  0  0  0
   55.1460   23.8150   46.6890 O   0  0  0  0  0  0  0  0  0  0  0  0
   54.6380   25.9750   45.6660 O   0  0  0  0  0  0  0  0  0  0  0  0
   59.0570   26.8340   47.1110 C   0  0  0  0  0  0  0  0  0  0  0  0
   59.9040   27.9070   46.8290 C   0  0  0  0  0  0  0  0  0  0  0  0
   59.4010   29.0680   46.2350 C   0  0  0  0  0  0  0  0  0  0  0  0
   60.3060   30.1420   45.9310 N   0  0  0  0  0  0  0  0  0  0  0  0
   60.7310   31.0710   46.7460 C   0  0  0  0  0  0  0  0  0  0  0  0
   61.8330   30.8600   47.6000 C   0  0  0  0  0  0  0  0  0  0  0  0
   62.2510   31.8710   48.4730 C   0  0  0  0  0  0  0  0  0  0  0  0
   63.4370   31.6410   49.3640 C   0  0  0  0  0  0  0  0  0  0  0  0
   61.6230   33.0790   48.4680 N   0  0  0  0  0  0  0  0  0  0  0  0
   60.5670   33.3340   47.6450 C   0  0  0  0  0  0  0  0  0  0  0  0
   59.9400   34.5910   47.6730 C   0  0  0  0  0  0  0  0  0  0  0  0
   58.8580   34.8590   46.8340 C   0  0  0  0  0  0  0  0  0  0  0  0
   58.3880   33.8790   45.9580 C   0  0  0  0  0  0  0  0  0  0  0  0
   57.0280   34.2260   44.9060 Cl  0  0  0  0  0  0  0  0  0  0  0  0
   58.9990   32.6230   45.9180 C   0  0  0  0  0  0  0  0  0  0  0  0
   60.0960   32.3330   46.7580 C   0  0  0  0  0  0  0  0  0  0  0  0
   56.2056   30.5990   43.6934 H   0  0  0  0  0  0  0  0  0  0  0  0
   57.8839   31.1402   43.3513 H   0  0  0  0  0  0  0  0  0  0  0  0
   57.4875   29.3882   43.3513 H   0  0  0  0  0  0  0  0  0  0  0  0
   56.1254   28.1083   45.9040 H   0  0  0  0  0  0  0  0  0  0  0  0
   57.4631   23.8878   44.7981 H   0  0  0  0  0  0  0  0  0  0  0  0
   55.8895   23.8435   43.9329 H   0  0  0  0  0  0  0  0  0  0  0  0
   56.8725   25.3470   43.9329 H   0  0  0  0  0  0  0  0  0  0  0  0
   59.4606   25.9323   47.5948 H   0  0  0  0  0  0  0  0  0  0  0  0
   60.9738   27.8385   47.0757 H   0  0  0  0  0  0  0  0  0  0  0  0
   62.3658   29.8979   47.5800 H   0  0  0  0  0  0  0  0  0  0  0  0
   63.1224   31.7020   50.4163 H   0  0  0  0  0  0  0  0  0  0  0  0
   63.8579   30.6445   49.1643 H   0  0  0  0  0  0  0  0  0  0  0  0
   64.1998   32.4079   49.1643 H   0  0  0  0  0  0  0  0  0  0  0  0
   61.9660   33.8300   49.1120 H   0  0  0  0  0  0  0  0  0  0  0  0
   60.3044   35.3685   48.3605 H   0  0  0  0  0  0  0  0  0  0  0  0
   58.3735   35.8461   46.8629 H   0  0  0  0  0  0  0  0  0  0  0  0
   58.6225   31.8545   45.2269 H   0  0  0  0  0  0  0  0  0  0  0  0
  1  2  1  0
  2  3  1  0
  3  4  2  0
  4  5  1  0
  5  6  1  0
  6  7  1  0
  7  8  1  0
  7  9  2  0
  7 10  2  0
  5 11  2  0
 11 12  1  0
 12 13  2  0
 13 14  1  0
 14 15  2  3
 15 16  1  0
 16 17  2  0
 17 18  1  0
 17 19  1  0
 19 20  1  0
 20 21  2  0
 21 22  1  0
 22 23  2  0
 23 24  1  0
 23 25  1  0
 25 26  2  0
 13  3  1  0
 26 15  1  0
 26 20  1  0
  1 27  1  0
  1 28  1  0
  1 29  1  0
  4 30  1  0
  8 31  1  0
  8 32  1  0
  8 33  1  0
 11 34  1  0
 12 35  1  0
 16 36  1  0
 18 37  1  0
 18 38  1  0
 18 39  1  0
 19 40  1  0
 21 41  1  0
 22 42  1  0
 25 43  1  0
M  CHG  1   6  -1
M  END
>  <UniqueID>  (44) 
44

>  <SMILES>  (44) 
COc1cc([N-]S(C)(=O)=O)ccc1N=c1cc(C)[nH]c2ccc(Cl)cc12

>  <Energy>  (44) 
57.37124827161817

>  <Genealogy>  (44) 
COc1cc([N-]S(C)(=O)=O)ccc1N=c1cc(C)[nH]c2ccc(Cl)cc12 (protonated)
COc1cc([N-]S(C)(=O)=O)ccc1N=c1cc(C)[nH]c2ccc(Cl)cc12 (3D coordinates assigned)
COc1cc([N-]S(C)(=O)=O)ccc1N=c1cc(C)[nH]c2ccc(Cl)cc12 (optimized conformer: 57.37124827161817 kcal/mol)

>  <smiles>  (44) 
COc1cc(NS(C)(=O)=O)ccc1N=c1cc(C)[nH]c2ccc(Cl)cc12

>  <score_type>  (44) 
oracle

>  <origin>  (44) 
adg

>  <m_score__min__energy>  (44) 
-10.08

>  <m_primary>  (44) 
energy

$$$$
44:0
     RDKit          3D

 45 47  0  0  0  0  0  0  0  0999 V2000
   55.4650   25.6630   45.6450 C   0  0  0  0  0  0  0  0  0  0  0  0
   55.6920   27.0700   45.6380 O   0  0  0  0  0  0  0  0  0  0  0  0
   56.9460   27.6740   45.8110 C   0  0  0  0  0  0  0  0  0  0  0  0
   57.9590   27.0850   46.5930 C   0  0  0  0  0  0  0  0  0  0  0  0
   59.1950   27.7180   46.7410 C   0  0  0  0  0  0  0  0  0  0  0  0
   59.4430   28.9460   46.1110 C   0  0  0  0  0  0  0  0  0  0  0  0
   60.7720   29.6300   46.2960 C   0  0  0  0  0  0  0  0  0  0  0  0
   60.6440   30.7430   47.2570 N   0  0  0  0  0  0  0  0  0  0  0  0
   61.7620   31.6940   47.1360 C   0  0  0  0  0  0  0  0  0  0  0  0
   61.4880   32.9490   47.9910 C   0  0  0  0  0  0  0  0  0  0  0  0
   60.5730   32.6960   49.1310 N   0  0  0  0  0  0  0  0  0  0  0  0
   59.1580   32.9880   48.7990 C   0  0  0  0  0  0  0  0  0  0  0  0
   59.0370   33.5370   47.4030 C   0  0  0  0  0  0  0  0  0  0  0  0
   58.5160   32.7520   46.3620 C   0  0  0  0  0  0  0  0  0  0  0  0
   58.3960   33.2860   45.0790 C   0  0  0  0  0  0  0  0  0  0  0  0
   58.7940   34.6040   44.8460 C   0  0  0  0  0  0  0  0  0  0  0  0
   59.2910   35.3560   45.8640 N   0  0  0  0  0  0  0  0  0  0  0  0
   59.4190   34.8580   47.1230 C   0  0  0  0  0  0  0  0  0  0  0  0
   60.7690   31.3420   49.6900 C   0  0  0  0  0  0  0  0  0  0  0  0
   60.5550   30.2280   48.6400 C   0  0  0  0  0  0  0  0  0  0  0  0
   58.4360   29.5370   45.3340 C   0  0  0  0  0  0  0  0  0  0  0  0
   57.1960   28.9050   45.1840 C   0  0  0  0  0  0  0  0  0  0  0  0
   55.8480   29.7450   44.1170 Br  0  0  0  0  0  0  0  0  0  0  0  0
   55.4074   25.3061   46.6839 H   0  0  0  0  0  0  0  0  0  0  0  0
   54.5195   25.4416   45.1283 H   0  0  0  0  0  0  0  0  0  0  0  0
   56.2929   25.1554   45.1283 H   0  0  0  0  0  0  0  0  0  0  0  0
   57.7754   26.1210   47.0899 H   0  0  0  0  0  0  0  0  0  0  0  0
   59.9786   27.2506   47.3554 H   0  0  0  0  0  0  0  0  0  0  0  0
   61.5045   28.9033   46.6773 H   0  0  0  0  0  0  0  0  0  0  0  0
   61.1077   30.0293   45.3275 H   0  0  0  0  0  0  0  0  0  0  0  0
   62.6880   31.2125   47.4835 H   0  0  0  0  0  0  0  0  0  0  0  0
   61.8670   31.9929   46.0826 H   0  0  0  0  0  0  0  0  0  0  0  0
   62.4458   33.3169   48.3875 H   0  0  0  0  0  0  0  0  0  0  0  0
   60.9979   33.6864   47.3383 H   0  0  0  0  0  0  0  0  0  0  0  0
   58.5716   32.0603   48.8734 H   0  0  0  0  0  0  0  0  0  0  0  0
   58.7785   33.7397   49.5067 H   0  0  0  0  0  0  0  0  0  0  0  0
   58.2025   31.7160   46.5582 H   0  0  0  0  0  0  0  0  0  0  0  0
   57.9917   32.6747   44.2587 H   0  0  0  0  0  0  0  0  0  0  0  0
   58.7053   35.0345   43.8376 H   0  0  0  0  0  0  0  0  0  0  0  0
   59.8235   35.4931   47.9249 H   0  0  0  0  0  0  0  0  0  0  0  0
   61.7951   31.2668   50.0791 H   0  0  0  0  0  0  0  0  0  0  0  0
   60.0219   31.1985   50.4845 H   0  0  0  0  0  0  0  0  0  0  0  0
   61.3249   29.4551   48.7809 H   0  0  0  0  0  0  0  0  0  0  0  0
   59.5452   29.8163   48.7839 H   0  0  0  0  0  0  0  0  0  0  0  0
   58.6216   30.5021   44.8399 H   0  0  0  0  0  0  0  0  0  0  0  0
  1  2  1  0
  2  3  1  0
  3  4  2  0
  4  5  1  0
  5  6  2  0
  6  7  1  0
  7  8  1  0
  8  9  1  0
  9 10  1  0
 10 11  1  0
 11 12  1  0
 12 13  1  0
 13 14  2  0
 14 15  1  0
 15 16  2  0
 16 17  1  0
 17 18  2  0
 11 19  1  0
 19 20  1  0
  6 21  1  0
 21 22  2  0
 22 23  1  0
 22  3  1  0
 20  8  1  0
 18 13  1  0
  1 24  1  0
  1 25  1  0
  1 26  1  0
  4 27  1  0
  5 28  1  0
  7 29  1  0
  7 30  1  0
  9 31  1  0
  9 32  1  0
 10 33  1  0
 10 34  1  0
 12 35  1  0
 12 36  1  0
 14 37  1  0
 15 38  1  0
 16 39  1  0
 18 40  1  0
 19 41  1  0
 19 42  1  0
 20 43  1  0
 20 44  1  0
 21 45  1  0
M  END
>  <UniqueID>  (45) 
45

>  <SMILES>  (45) 
COc1ccc(CN2CCN(Cc3cccnc3)CC2)cc1Br

>  <Energy>  (45) 
57.697811993020515

>  <Genealogy>  (45) 
COc1ccc(CN2CCN(Cc3cccnc3)CC2)cc1Br (3D coordinates assigned)
COc1ccc(CN2CCN(Cc3cccnc3)CC2)cc1Br (nonaromatic ring conformer: 57.697811993020515 kcal/mol)

>  <smiles>  (45) 
COc1ccc(CN2CCN(Cc3cccnc3)CC2)cc1Br

>  <score_type>  (45) 
oracle

>  <origin>  (45) 
adg

>  <m_score__min__energy>  (45) 
-7.8399999999999999

>  <m_primary>  (45) 
energy

$$$$
45:0
     RDKit          3D

 46 47  0  0  0  0  0  0  0  0999 V2000
   57.0590   30.7640   43.2470 C   0  0  0  0  0  0  0  0  0  0  0  0
   56.6370   29.3460   43.6180 C   0  0  0  0  0  0  0  0  0  0  0  0
   56.8500   29.1020   45.0090 O   0  0  0  0  0  0  0  0  0  0  0  0
   58.0320   29.3790   45.7170 C   0  0  0  0  0  0  0  0  0  0  0  0
   59.0510   28.4260   45.9050 C   0  0  0  0  0  0  0  0  0  0  0  0
   60.2070   28.7600   46.6180 C   0  0  0  0  0  0  0  0  0  0  0  0
   60.3640   30.0520   47.1540 C   0  0  0  0  0  0  0  0  0  0  0  0
   61.5040   30.4430   47.8760 O   0  0  0  0  0  0  0  0  0  0  0  0
   62.5800   31.2330   47.3670 C   0  0  0  0  0  0  0  0  0  0  0  0
   62.1300   32.6710   47.0790 C   0  0  0  0  0  0  0  0  0  0  0  0
   62.6100   33.6430   48.1650 C   0  0  0  0  0  0  0  0  0  0  0  0
   61.8910   33.3840   49.4940 C   0  0  0  0  0  0  0  0  0  0  0  0
   60.3680   33.5170   49.3810 C   0  0  0  0  0  0  0  0  0  0  0  0
   60.0000   34.5800   48.4990 O   0  0  0  0  0  0  0  0  0  0  0  0
   59.3830   34.4490   47.2420 C   0  0  0  0  0  0  0  0  0  0  0  0
   58.1210   33.8410   47.1940 C   0  0  0  0  0  0  0  0  0  0  0  0
   57.4560   33.6770   45.9750 C   0  0  0  0  0  0  0  0  0  0  0  0
   58.0450   34.1240   44.7910 C   0  0  0  0  0  0  0  0  0  0  0  0
   59.2990   34.7380   44.8240 C   0  0  0  0  0  0  0  0  0  0  0  0
   59.9680   34.9050   46.0420 C   0  0  0  0  0  0  0  0  0  0  0  0
   59.3440   30.9910   46.9740 C   0  0  0  0  0  0  0  0  0  0  0  0
   58.1890   30.6580   46.2610 C   0  0  0  0  0  0  0  0  0  0  0  0
   57.2324   31.3467   44.1638 H   0  0  0  0  0  0  0  0  0  0  0  0
   57.9853   30.7278   42.6548 H   0  0  0  0  0  0  0  0  0  0  0  0
   56.2636   31.2402   42.6548 H   0  0  0  0  0  0  0  0  0  0  0  0
   55.5692   29.2155   43.3882 H   0  0  0  0  0  0  0  0  0  0  0  0
   57.2428   28.6343   43.0379 H   0  0  0  0  0  0  0  0  0  0  0  0
   58.9375   27.4140   45.4892 H   0  0  0  0  0  0  0  0  0  0  0  0
   60.9978   28.0088   46.7607 H   0  0  0  0  0  0  0  0  0  0  0  0
   63.3914   31.2536   48.1094 H   0  0  0  0  0  0  0  0  0  0  0  0
   62.9251   30.7825   46.4247 H   0  0  0  0  0  0  0  0  0  0  0  0
   62.5433   32.9867   46.1097 H   0  0  0  0  0  0  0  0  0  0  0  0
   61.0303   32.6899   47.0629 H   0  0  0  0  0  0  0  0  0  0  0  0
   63.6925   33.5128   48.3108 H   0  0  0  0  0  0  0  0  0  0  0  0
   62.3845   34.6694   47.8399 H   0  0  0  0  0  0  0  0  0  0  0  0
   62.1308   32.3646   49.8305 H   0  0  0  0  0  0  0  0  0  0  0  0
   62.2374   34.1425   50.2114 H   0  0  0  0  0  0  0  0  0  0  0  0
   59.9542   32.5733   48.9960 H   0  0  0  0  0  0  0  0  0  0  0  0
   59.9657   33.7417   50.3798 H   0  0  0  0  0  0  0  0  0  0  0  0
   57.6495   33.4897   48.1237 H   0  0  0  0  0  0  0  0  0  0  0  0
   56.4675   33.1951   45.9490 H   0  0  0  0  0  0  0  0  0  0  0  0
   57.5217   33.9927   43.8324 H   0  0  0  0  0  0  0  0  0  0  0  0
   59.7619   35.0911   43.8907 H   0  0  0  0  0  0  0  0  0  0  0  0
   60.9533   35.3935   46.0636 H   0  0  0  0  0  0  0  0  0  0  0  0
   59.4514   32.0006   47.3972 H   0  0  0  0  0  0  0  0  0  0  0  0
   57.3962   31.4086   46.1264 H   0  0  0  0  0  0  0  0  0  0  0  0
  1  2  1  0
  2  3  1  0
  3  4  1  0
  4  5  2  0
  5  6  1  0
  6  7  2  0
  7  8  1  0
  8  9  1  0
  9 10  1  0
 10 11  1  0
 11 12  1  0
 12 13  1  0
 13 14  1  0
 14 15  1  0
 15 16  2  0
 16 17  1  0
 17 18  2  0
 18 19  1  0
 19 20  2  0
  7 21  1  0
 21 22  2  0
 22  4  1  0
 20 15  1  0
  1 23  1  0
  1 24  1  0
  1 25  1  0
  2 26  1  0
  2 27  1  0
  5 28  1  0
  6 29  1  0
  9 30  1  0
  9 31  1  0
 10 32  1  0
 10 33  1  0
 11 34  1  0
 11 35  1  0
 12 36  1  0
 12 37  1  0
 13 38  1  0
 13 39  1  0
 16 40  1  0
 17 41  1  0
 18 42  1  0
 19 43  1  0
 20 44  1  0
 21 45  1  0
 22 46  1  0
M  END
>  <UniqueID>  (46) 
46

>  <SMILES>  (46) 
CCOc1ccc(OCCCCCOc2ccccc2)cc1

>  <Energy>  (46) 
38.276599696633205

>  <Genealogy>  (46) 
CCOc1ccc(OCCCCCOc2ccccc2)cc1 (3D coordinates assigned)
CCOc1ccc(OCCCCCOc2ccccc2)cc1 (optimized conformer: 38.276599696633205 kcal/mol)

>  <smiles>  (46) 
CCOc1ccc(OCCCCCOc2ccccc2)cc1

>  <score_type>  (46) 
oracle

>  <origin>  (46) 
adg

>  <m_score__min__energy>  (46) 
-6.3799999999999999

>  <m_primary>  (46) 
energy

$$$$
46:0
     RDKit          3D

 13 13  0  0  0  0  0  0  0  0999 V2000
   51.4090   32.7150   50.0750 O   0  0  0  0  0  0  0  0  0  0  0  0
   51.3240   32.2980   51.2600 C   0  0  0  0  0  0  0  0  0  0  0  0
   50.2650   32.7170   52.0550 O   0  0  0  0  0  0  0  0  0  0  0  0
   52.3330   31.3740   51.8040 C   0  0  0  0  0  0  0  0  0  0  0  0
   52.0160   30.5990   52.8780 N   0  0  0  0  0  0  0  0  0  0  0  0
   52.9170   29.7330   53.4100 C   0  0  0  0  0  0  0  0  0  0  0  0
   54.1900   29.6280   52.8560 C   0  0  0  0  0  0  0  0  0  0  0  0
   54.5040   30.4260   51.7580 C   0  0  0  0  0  0  0  0  0  0  0  0
   53.5770   31.2830   51.2490 N   0  0  0  0  0  0  0  0  0  0  0  0
   52.6413   29.1154   54.2775 H   0  0  0  0  0  0  0  0  0  0  0  0
   54.9306   28.9312   53.2755 H   0  0  0  0  0  0  0  0  0  0  0  0
   55.5029   30.3634   51.3016 H   0  0  0  0  0  0  0  0  0  0  0  0
   53.8370   31.8700   50.4260 H   0  0  0  0  0  0  0  0  0  0  0  0
  1  2  2  0
  2  3  1  0
  2  4  1  0
  4  5  2  0
  5  6  1  0
  6  7  2  0
  7  8  1  0
  8  9  2  0
  9  4  1  0
  6 10  1  0
  7 11  1  0
  8 12  1  0
  9 13  1  0
M  CHG  2   3  -1   9   1
M  END
>  <UniqueID>  (47) 
47

>  <SMILES>  (47) 
O=C([O-])c1nccc[nH+]1

>  <Energy>  (47) 
11.593301540944136

>  <Genealogy>  (47) 
O=C([O-])c1nccc[nH+]1 (protonated)
O=C([O-])c1nccc[nH+]1 (3D coordinates assigned)
O=C([O-])c1nccc[nH+]1 (optimized conformer: 11.593301540944136 kcal/mol)

>  <smiles>  (47) 
O=C(O)c1ncccn1

>  <score_type>  (47) 
oracle

>  <origin>  (47) 
adg

>  <m_score__min__energy>  (47) 
-6.3499999999999996

>  <m_primary>  (47) 
energy

$$$$
47:0
     RDKit          3D

 37 39  0  0  0  0  0  0  0  0999 V2000
   60.6620   27.2760   49.7840 C   0  0  0  0  0  0  0  0  0  0  0  0
   60.6480   28.4440   48.9100 N   0  0  0  0  0  0  0  0  0  0  0  0
   61.1340   29.6840   49.1700 C   0  0  0  0  0  0  0  0  0  0  0  0
   61.7420   29.9830   50.2340 O   0  0  0  0  0  0  0  0  0  0  0  0
   60.8800   30.5740   48.1780 N   0  0  0  0  0  0  0  0  0  0  0  0
   61.1800   32.0020   48.1590 C   0  0  0  0  0  0  0  0  0  0  0  0
   60.1680   29.8660   47.2770 C   0  0  0  0  0  0  0  0  0  0  0  0
   59.5920   30.3010   46.0840 C   0  0  0  0  0  0  0  0  0  0  0  0
   58.8500   29.3710   45.3200 C   0  0  0  0  0  0  0  0  0  0  0  0
   58.2470   29.8080   44.0900 N   0  0  0  0  0  0  0  0  0  0  0  0
   57.1830   31.1740   43.9640 S   0  0  0  0  0  0  0  0  0  0  0  0
   57.0400   31.5610   42.5190 O   0  0  0  0  0  0  0  0  0  0  0  0
   55.8320   30.7960   44.5040 O   0  0  0  0  0  0  0  0  0  0  0  0
   57.8480   32.5410   44.8520 C   0  0  0  0  0  0  0  0  0  0  0  0
   57.5700   32.7060   46.2170 C   0  0  0  0  0  0  0  0  0  0  0  0
   58.1120   33.7880   46.9180 C   0  0  0  0  0  0  0  0  0  0  0  0
   58.9310   34.7110   46.2590 C   0  0  0  0  0  0  0  0  0  0  0  0
   59.4550   35.7590   46.9390 F   0  0  0  0  0  0  0  0  0  0  0  0
   59.2060   34.5530   44.8970 C   0  0  0  0  0  0  0  0  0  0  0  0
   58.6650   33.4730   44.1940 C   0  0  0  0  0  0  0  0  0  0  0  0
   58.7160   28.0330   45.7870 C   0  0  0  0  0  0  0  0  0  0  0  0
   59.3020   27.6310   47.0010 C   0  0  0  0  0  0  0  0  0  0  0  0
   60.0280   28.5780   47.7190 C   0  0  0  0  0  0  0  0  0  0  0  0
   60.6581   27.6037   50.8340 H   0  0  0  0  0  0  0  0  0  0  0  0
   59.7712   26.6610   49.5885 H   0  0  0  0  0  0  0  0  0  0  0  0
   61.5673   26.6826   49.5885 H   0  0  0  0  0  0  0  0  0  0  0  0
   61.2582   32.3740   49.1912 H   0  0  0  0  0  0  0  0  0  0  0  0
   62.1329   32.1695   47.6357 H   0  0  0  0  0  0  0  0  0  0  0  0
   60.3750   32.5389   47.6357 H   0  0  0  0  0  0  0  0  0  0  0  0
   59.7118   31.3409   45.7459 H   0  0  0  0  0  0  0  0  0  0  0  0
   58.5140   29.3350   43.1980 H   0  0  0  0  0  0  0  0  0  0  0  0
   56.9244   31.9829   46.7370 H   0  0  0  0  0  0  0  0  0  0  0  0
   57.8940   33.9134   47.9889 H   0  0  0  0  0  0  0  0  0  0  0  0
   59.8488   35.2795   44.3784 H   0  0  0  0  0  0  0  0  0  0  0  0
   58.8802   33.3532   43.1219 H   0  0  0  0  0  0  0  0  0  0  0  0
   58.1470   27.3042   45.1910 H   0  0  0  0  0  0  0  0  0  0  0  0
   59.1903   26.6013   47.3714 H   0  0  0  0  0  0  0  0  0  0  0  0
  1  2  1  0
  2  3  1  0
  3  4  2  0
  3  5  1  0
  5  6  1  0
  5  7  1  0
  7  8  2  0
  8  9  1  0
  9 10  1  0
 10 11  1  0
 11 12  2  0
 11 13  2  0
 11 14  1  0
 14 15  2  0
 15 16  1  0
 16 17  2  0
 17 18  1  0
 17 19  1  0
 19 20  2  0
  9 21  2  0
 21 22  1  0
 22 23  2  0
 23  2  1  0
 23  7  1  0
 20 14  1  0
  1 24  1  0
  1 25  1  0
  1 26  1  0
  6 27  1  0
  6 28  1  0
  6 29  1  0
  8 30  1  0
 10 31  1  0
 15 32  1  0
 16 33  1  0
 19 34  1  0
 20 35  1  0
 21 36  1  0
 22 37  1  0
M  END
>  <UniqueID>  (48) 
48

>  <SMILES>  (48) 
Cn1c(=O)n(C)c2cc(NS(=O)(=O)c3ccc(F)cc3)ccc21

>  <Energy>  (48) 
82.3931568835884

>  <Genealogy>  (48) 
Cn1c(=O)n(C)c2cc(NS(=O)(=O)c3ccc(F)cc3)ccc21 (3D coordinates assigned)
Cn1c(=O)n(C)c2cc(NS(=O)(=O)c3ccc(F)cc3)ccc21 (optimized conformer: 82.3931568835884 kcal/mol)

>  <smiles>  (48) 
Cn1c(=O)n(C)c2cc(NS(=O)(=O)c3ccc(F)cc3)ccc21

>  <score_type>  (48) 
oracle

>  <origin>  (48) 
adg

>  <m_score__min__energy>  (48) 
-7.5899999999999999

>  <m_primary>  (48) 
energy

$$$$
48:0
     RDKit          3D

 58 60  0  0  0  0  0  0  0  0999 V2000
   59.6240   35.0350   46.3350 C   0  0  0  0  0  0  0  0  0  0  0  0
   59.1090   34.9340   44.9040 C   0  0  0  0  0  0  0  0  0  0  0  0
   58.5170   33.5760   44.6440 C   0  0  0  0  0  0  0  0  0  0  0  0
   58.4090   33.0900   43.3320 C   0  0  0  0  0  0  0  0  0  0  0  0
   57.8240   31.8440   43.0870 C   0  0  0  0  0  0  0  0  0  0  0  0
   57.3300   31.0740   44.1490 C   0  0  0  0  0  0  0  0  0  0  0  0
   56.5710   29.5110   43.8360 S   0  0  0  0  0  0  0  0  0  0  0  0
   56.4720   29.2980   42.3510 O   0  0  0  0  0  0  0  0  0  0  0  0
   55.1770   29.5160   44.3990 O   0  0  0  0  0  0  0  0  0  0  0  0
   57.4830   28.2020   44.5520 N   0  0  0  0  0  0  0  0  0  0  0  0
   57.1820   28.0980   45.9960 C   0  0  0  0  0  0  0  0  0  0  0  0
   58.2300   27.2540   46.7280 C   0  0  0  0  0  0  0  0  0  0  0  0
   59.6410   27.8810   46.6150 C   0  0  0  0  0  0  0  0  0  0  0  0
   60.0160   28.6240   47.8840 C   0  0  0  0  0  0  0  0  0  0  0  0
   59.5770   28.2280   48.9560 O   0  0  0  0  0  0  0  0  0  0  0  0
   60.8790   29.7910   47.8380 N   0  0  0  0  0  0  0  0  0  0  0  0
   61.5010   30.0170   49.1600 C   0  0  0  0  0  0  0  0  0  0  0  0
   62.0970   31.4370   49.3270 C   0  0  0  0  0  0  0  0  0  0  0  0
   62.1810   32.1880   48.0610 N   0  0  0  0  0  0  0  0  0  0  0  0
   63.2280   33.1690   47.8900 C   0  0  0  0  0  0  0  0  0  0  0  0
   63.3860   33.9300   46.6060 C   0  0  0  0  0  0  0  0  0  0  0  0
   64.0270   33.4150   48.8360 O   0  0  0  0  0  0  0  0  0  0  0  0
   61.0860   32.1130   47.0800 C   0  0  0  0  0  0  0  0  0  0  0  0
   60.1190   30.9740   47.4020 C   0  0  0  0  0  0  0  0  0  0  0  0
   59.7730   28.8150   45.3930 C   0  0  0  0  0  0  0  0  0  0  0  0
   58.9260   28.2980   44.2220 C   0  0  0  0  0  0  0  0  0  0  0  0
   57.4370   31.5580   45.4600 C   0  0  0  0  0  0  0  0  0  0  0  0
   58.0180   32.8050   45.7050 C   0  0  0  0  0  0  0  0  0  0  0  0
   58.7924   34.8719   47.0363 H   0  0  0  0  0  0  0  0  0  0  0  0
   60.3985   34.2716   46.5007 H   0  0  0  0  0  0  0  0  0  0  0  0
   60.0528   36.0343   46.5007 H   0  0  0  0  0  0  0  0  0  0  0  0
   58.3368   35.7008   44.7437 H   0  0  0  0  0  0  0  0  0  0  0  0
   59.9517   35.0892   44.2142 H   0  0  0  0  0  0  0  0  0  0  0  0
   58.7864   33.6922   42.4924 H   0  0  0  0  0  0  0  0  0  0  0  0
   57.7511   31.4663   42.0564 H   0  0  0  0  0  0  0  0  0  0  0  0
   57.1681   29.1078   46.4320 H   0  0  0  0  0  0  0  0  0  0  0  0
   56.2034   27.6089   46.1104 H   0  0  0  0  0  0  0  0  0  0  0  0
   57.9539   27.1835   47.7905 H   0  0  0  0  0  0  0  0  0  0  0  0
   58.2565   26.2570   46.2640 H   0  0  0  0  0  0  0  0  0  0  0  0
   60.3422   27.0455   46.4725 H   0  0  0  0  0  0  0  0  0  0  0  0
   61.6460   29.6200   47.1450 H   0  0  0  0  0  0  0  0  0  0  0  0
   60.7353   29.8672   49.9354 H   0  0  0  0  0  0  0  0  0  0  0  0
   62.3331   29.3036   49.2526 H   0  0  0  0  0  0  0  0  0  0  0  0
   61.4627   32.0016   50.0262 H   0  0  0  0  0  0  0  0  0  0  0  0
   63.1239   31.3167   49.7026 H   0  0  0  0  0  0  0  0  0  0  0  0
   63.6050   34.9846   46.8294 H   0  0  0  0  0  0  0  0  0  0  0  0
   64.2138   33.4990   46.0238 H   0  0  0  0  0  0  0  0  0  0  0  0
   62.4550   33.8641   46.0238 H   0  0  0  0  0  0  0  0  0  0  0  0
   60.5331   33.0639   47.0888 H   0  0  0  0  0  0  0  0  0  0  0  0
   61.5242   31.9225   46.0892 H   0  0  0  0  0  0  0  0  0  0  0  0
   59.4375   31.2884   48.2062 H   0  0  0  0  0  0  0  0  0  0  0  0
   59.5363   30.7237   46.5032 H   0  0  0  0  0  0  0  0  0  0  0  0
   59.4298   29.8228   45.6698 H   0  0  0  0  0  0  0  0  0  0  0  0
   60.8276   28.8436   45.0816 H   0  0  0  0  0  0  0  0  0  0  0  0
   59.0466   28.9849   43.3713 H   0  0  0  0  0  0  0  0  0  0  0  0
   59.2781   27.2839   43.9821 H   0  0  0  0  0  0  0  0  0  0  0  0
   57.0621   30.9538   46.2993 H   0  0  0  0  0  0  0  0  0  0  0  0
   58.0846   33.1844   46.7354 H   0  0  0  0  0  0  0  0  0  0  0  0
  1  2  1  0
  2  3  1  0
  3  4  2  0
  4  5  1  0
  5  6  2  0
  6  7  1  0
  7  8  2  0
  7  9  2  0
  7 10  1  0
 10 11  1  0
 11 12  1  0
 12 13  1  0
 13 14  1  0
 14 15  2  0
 14 16  1  0
 16 17  1  0
 17 18  1  0
 18 19  1  0
 19 20  1  0
 20 21  1  0
 20 22  2  0
 19 23  1  0
 23 24  1  0
 13 25  1  0
 25 26  1  0
  6 27  1  0
 27 28  2  0
 28  3  1  0
 26 10  1  0
 24 16  1  0
  1 29  1  0
  1 30  1  0
  1 31  1  0
  2 32  1  0
  2 33  1  0
  4 34  1  0
  5 35  1  0
 11 36  1  0
 11 37  1  0
 12 38  1  0
 12 39  1  0
 13 40  1  0
 16 41  1  0
 17 42  1  0
 17 43  1  0
 18 44  1  0
 18 45  1  0
 21 46  1  0
 21 47  1  0
 21 48  1  0
 23 49  1  0
 23 50  1  0
 24 51  1  0
 24 52  1  0
 25 53  1  0
 25 54  1  0
 26 55  1  0
 26 56  1  0
 27 57  1  0
 28 58  1  0
M  CHG  1  16   1
M  END
>  <UniqueID>  (49) 
49

>  <SMILES>  (49) 
CCc1ccc(S(=O)(=O)N2CCC(C(=O)[NH+]3CCN(C(C)=O)CC3)CC2)cc1

>  <Energy>  (49) 
64.05582600253693

>  <Genealogy>  (49) 
CCc1ccc(S(=O)(=O)N2CCC(C(=O)[NH+]3CCN(C(C)=O)CC3)CC2)cc1 (protonated)
CCc1ccc(S(=O)(=O)N2CCC(C(=O)[NH+]3CCN(C(C)=O)CC3)CC2)cc1 (3D coordinates assigned)
CCc1ccc(S(=O)(=O)N2CCC(C(=O)[NH+]3CCN(C(C)=O)CC3)CC2)cc1 (nonaromatic ring conformer: 64.05582600253693 kcal/mol)

>  <smiles>  (49) 
CCc1ccc(S(=O)(=O)N2CCC(C(=O)N3CCN(C(C)=O)CC3)CC2)cc1

>  <score_type>  (49) 
oracle

>  <origin>  (49) 
adg

>  <m_score__min__energy>  (49) 
-8.0600000000000005

>  <m_primary>  (49) 
energy

$$$$
