0:0
     RDKit          3D

 30 30  0  0  0  0  0  0  0  0999 V2000
   56.6680   24.8750   44.5160 C   0  0  0  0  0  0  0  0  0  0  0  0
   55.7410   25.7110   45.7860 S   0  0  0  0  0  0  0  0  0  0  0  0
   54.2860   25.3710   45.6290 O   0  0  0  0  0  0  0  0  0  0  0  0
   56.2100   25.2480   47.1380 O   0  0  0  0  0  0  0  0  0  0  0  0
   55.9380   27.4330   45.6270 N   0  0  0  0  0  0  0  0  0  0  0  0
   57.3250   27.8360   45.8640 C   0  0  0  0  0  0  0  0  0  0  0  0
   57.7340   28.9250   44.8690 C   0  0  0  0  0  0  0  0  0  0  0  0
   56.9150   30.1390   45.0760 N   0  0  0  0  0  0  0  0  0  0  0  0
   55.9440   30.3580   43.9830 C   0  0  0  0  0  0  0  0  0  0  0  0
   56.6340   30.7370   42.6580 C   0  0  0  0  0  0  0  0  0  0  0  0
   57.8670   31.6340   42.8630 C   0  0  0  0  0  0  0  0  0  0  0  0
   57.8250   32.3540   44.2120 C   0  0  0  0  0  0  0  0  0  0  0  0
   57.7300   31.3480   45.3790 C   0  0  0  0  0  0  0  0  0  0  0  0
   57.4081   24.2075   44.9815 H   0  0  0  0  0  0  0  0  0  0  0  0
   55.9827   24.2836   43.8910 H   0  0  0  0  0  0  0  0  0  0  0  0
   57.1857   25.6175   43.8910 H   0  0  0  0  0  0  0  0  0  0  0  0
   57.4209   28.2248   46.8885 H   0  0  0  0  0  0  0  0  0  0  0  0
   57.9810   26.9630   45.7319 H   0  0  0  0  0  0  0  0  0  0  0  0
   58.7954   29.1729   45.0175 H   0  0  0  0  0  0  0  0  0  0  0  0
   57.5748   28.5545   43.8456 H   0  0  0  0  0  0  0  0  0  0  0  0
   55.3679   29.4334   43.8305 H   0  0  0  0  0  0  0  0  0  0  0  0
   55.2906   31.1936   44.2744 H   0  0  0  0  0  0  0  0  0  0  0  0
   56.9513   29.8141   42.1505 H   0  0  0  0  0  0  0  0  0  0  0  0
   55.9080   31.3043   42.0571 H   0  0  0  0  0  0  0  0  0  0  0  0
   58.7724   31.0108   42.8196 H   0  0  0  0  0  0  0  0  0  0  0  0
   57.8735   32.3947   42.0684 H   0  0  0  0  0  0  0  0  0  0  0  0
   58.7406   32.9526   44.3279 H   0  0  0  0  0  0  0  0  0  0  0  0
   56.9344   32.9991   44.2349 H   0  0  0  0  0  0  0  0  0  0  0  0
   58.7483   31.0220   45.6376 H   0  0  0  0  0  0  0  0  0  0  0  0
   57.2272   31.8696   46.2067 H   0  0  0  0  0  0  0  0  0  0  0  0
  1  2  1  0
  2  3  2  0
  2  4  2  0
  2  5  1  0
  5  6  1  0
  6  7  1  0
  7  8  1  0
  8  9  1  0
  9 10  1  0
 10 11  1  0
 11 12  1  0
 12 13  1  0
 13  8  1  0
  1 14  1  0
  1 15  1  0
  1 16  1  0
  6 17  1  0
  6 18  1  0
  7 19  1  0
  7 20  1  0
  9 21  1  0
  9 22  1  0
 10 23  1  0
 10 24  1  0
 11 25  1  0
 11 26  1  0
 12 27  1  0
 12 28  1  0
 13 29  1  0
 13 30  1  0
M  CHG  1   5  -1
M  END
>  <UniqueID>  (1) 
1

>  <SMILES>  (1) 
CS(=O)(=O)[N-]CCN1CCCCC1

>  <Energy>  (1) 
28.469012905204572

>  <Genealogy>  (1) 
CS(=O)(=O)[N-]CCN1CCCCC1 (protonated)
CS(=O)(=O)[N-]CCN1CCCCC1 (3D coordinates assigned)
CS(=O)(=O)[N-]CCN1CCCCC1 (nonaromatic ring conformer: 28.469012905204572 kcal/mol)

>  <smiles>  (1) 
CS(=O)(=O)NCCN1CCCCC1

>  <score_type>  (1) 
oracle

>  <origin>  (1) 
adg

>  <m_score__min__energy>  (1) 
-8.1400000000000006

>  <m_primary>  (1) 
energy

$$$$
1:0
     RDKit          3D

 43 46  0  0  0  0  0  0  0  0999 V2000
   59.3650   35.3460   45.2680 C   0  0  0  0  0  0  0  0  0  0  0  0
   58.3810   34.4490   44.8510 C   0  0  0  0  0  0  0  0  0  0  0  0
   58.0990   33.3230   45.6350 C   0  0  0  0  0  0  0  0  0  0  0  0
   57.0190   32.3530   45.2310 C   0  0  0  0  0  0  0  0  0  0  0  0
   57.5190   31.1970   44.4550 N   0  0  0  0  0  0  0  0  0  0  0  0
   58.0670   30.0920   45.2710 C   0  0  0  0  0  0  0  0  0  0  0  0
   57.0140   29.0050   45.6060 C   0  0  0  0  0  0  0  0  0  0  0  0
   55.8220   29.1150   44.8520 O   0  0  0  0  0  0  0  0  0  0  0  0
   56.1360   29.3440   43.4970 C   0  0  0  0  0  0  0  0  0  0  0  0
   56.6500   30.7760   43.3290 C   0  0  0  0  0  0  0  0  0  0  0  0
   58.7760   33.1320   46.8010 N   0  0  0  0  0  0  0  0  0  0  0  0
   59.7380   33.9950   47.2350 C   0  0  0  0  0  0  0  0  0  0  0  0
   60.3960   33.7680   48.5420 C   0  0  0  0  0  0  0  0  0  0  0  0
   59.6120   33.8190   49.7030 C   0  0  0  0  0  0  0  0  0  0  0  0
   60.1790   33.5420   50.9450 C   0  0  0  0  0  0  0  0  0  0  0  0
   61.4950   33.2200   51.0440 N   0  0  0  0  0  0  0  0  0  0  0  0
   62.3030   33.1730   49.9460 C   0  0  0  0  0  0  0  0  0  0  0  0
   63.6630   32.8530   50.0880 C   0  0  0  0  0  0  0  0  0  0  0  0
   64.5010   32.8290   48.9720 C   0  0  0  0  0  0  0  0  0  0  0  0
   63.9950   33.1350   47.7080 C   0  0  0  0  0  0  0  0  0  0  0  0
   62.6440   33.4540   47.5510 C   0  0  0  0  0  0  0  0  0  0  0  0
   61.7740   33.4580   48.6600 C   0  0  0  0  0  0  0  0  0  0  0  0
   60.0450   35.1270   46.4660 C   0  0  0  0  0  0  0  0  0  0  0  0
   59.6044   36.2255   44.6523 H   0  0  0  0  0  0  0  0  0  0  0  0
   57.8313   34.6246   43.9145 H   0  0  0  0  0  0  0  0  0  0  0  0
   56.5325   31.9754   46.1424 H   0  0  0  0  0  0  0  0  0  0  0  0
   56.3218   32.9005   44.5797 H   0  0  0  0  0  0  0  0  0  0  0  0
   58.8915   29.6216   44.7152 H   0  0  0  0  0  0  0  0  0  0  0  0
   58.4072   30.5244   46.2235 H   0  0  0  0  0  0  0  0  0  0  0  0
   57.4591   28.0184   45.4097 H   0  0  0  0  0  0  0  0  0  0  0  0
   56.7390   29.1393   46.6626 H   0  0  0  0  0  0  0  0  0  0  0  0
   56.9132   28.6351   43.1755 H   0  0  0  0  0  0  0  0  0  0  0  0
   55.2349   29.2026   42.8821 H   0  0  0  0  0  0  0  0  0  0  0  0
   57.2270   30.8376   42.3945 H   0  0  0  0  0  0  0  0  0  0  0  0
   55.7782   31.4465   43.3073 H   0  0  0  0  0  0  0  0  0  0  0  0
   58.5454   34.0786   49.6331 H   0  0  0  0  0  0  0  0  0  0  0  0
   59.5571   33.5843   51.8513 H   0  0  0  0  0  0  0  0  0  0  0  0
   61.8840   33.0130   51.9920 H   0  0  0  0  0  0  0  0  0  0  0  0
   64.0697   32.6202   51.0832 H   0  0  0  0  0  0  0  0  0  0  0  0
   65.5632   32.5682   49.0892 H   0  0  0  0  0  0  0  0  0  0  0  0
   64.6616   33.1250   46.8331 H   0  0  0  0  0  0  0  0  0  0  0  0
   62.2556   33.7044   46.5528 H   0  0  0  0  0  0  0  0  0  0  0  0
   60.8151   35.8357   46.8046 H   0  0  0  0  0  0  0  0  0  0  0  0
  1  2  2  0
  2  3  1  0
  3  4  1  0
  4  5  1  0
  5  6  1  0
  6  7  1  0
  7  8  1  0
  8  9  1  0
  9 10  1  0
  3 11  2  0
 11 12  1  0
 12 13  1  0
 13 14  2  0
 14 15  1  0
 15 16  2  0
 16 17  1  0
 17 18  2  0
 18 19  1  0
 19 20  2  0
 20 21  1  0
 21 22  2  0
 12 23  2  0
 23  1  1  0
 10  5  1  0
 22 13  1  0
 22 17  1  0
  1 24  1  0
  2 25  1  0
  4 26  1  0
  4 27  1  0
  6 28  1  0
  6 29  1  0
  7 30  1  0
  7 31  1  0
  9 32  1  0
  9 33  1  0
 10 34  1  0
 10 35  1  0
 14 36  1  0
 15 37  1  0
 16 38  1  0
 18 39  1  0
 19 40  1  0
 20 41  1  0
 21 42  1  0
 23 43  1  0
M  CHG  1  16   1
M  END
>  <UniqueID>  (2) 
2

>  <SMILES>  (2) 
c1cc(CN2CCOCC2)nc(-c2cc[nH+]c3ccccc23)c1

>  <Energy>  (2) 
71.25608782242148

>  <Genealogy>  (2) 
c1cc(CN2CCOCC2)nc(-c2cc[nH+]c3ccccc23)c1 (protonated)
c1cc(CN2CCOCC2)nc(-c2cc[nH+]c3ccccc23)c1 (3D coordinates assigned)
c1cc(CN2CCOCC2)nc(-c2cc[nH+]c3ccccc23)c1 (nonaromatic ring conformer: 71.25608782242148 kcal/mol)

>  <smiles>  (2) 
c1cc(CN2CCOCC2)nc(-c2ccnc3ccccc23)c1

>  <score_type>  (2) 
oracle

>  <origin>  (2) 
adg

>  <m_score__min__energy>  (2) 
-7.3700000000000001

>  <m_primary>  (2) 
energy

$$$$
2:0
     RDKit          3D

 43 47  0  0  0  0  0  0  0  0999 V2000
   59.2710   34.9450   48.6740 O   0  0  0  0  0  0  0  0  0  0  0  0
   59.6850   34.2240   47.7290 C   0  0  0  0  0  0  0  0  0  0  0  0
   60.8450   33.3470   47.9260 C   0  0  0  0  0  0  0  0  0  0  0  0
   61.8990   33.4160   47.0040 C   0  0  0  0  0  0  0  0  0  0  0  0
   62.9990   32.5690   47.1270 C   0  0  0  0  0  0  0  0  0  0  0  0
   63.0580   31.6470   48.1710 C   0  0  0  0  0  0  0  0  0  0  0  0
   62.0120   31.5540   49.0960 C   0  0  0  0  0  0  0  0  0  0  0  0
   62.2050   30.3050   50.5390 Br  0  0  0  0  0  0  0  0  0  0  0  0
   60.8830   32.3960   48.9760 C   0  0  0  0  0  0  0  0  0  0  0  0
   59.7760   32.2690   49.8880 N   0  0  0  0  0  0  0  0  0  0  0  0
   58.7570   31.4420   49.6980 N   0  0  0  0  0  0  0  0  0  0  0  0
   57.9260   31.6290   50.7370 C   0  0  0  0  0  0  0  0  0  0  0  0
   58.4800   32.5940   51.5510 C   0  0  0  0  0  0  0  0  0  0  0  0
   59.6410   32.9820   50.9960 N   0  0  0  0  0  0  0  0  0  0  0  0
   59.0200   34.2540   46.4700 N   0  0  0  0  0  0  0  0  0  0  0  0
   59.2290   34.8500   45.1370 C   0  0  0  0  0  0  0  0  0  0  0  0
   58.0180   34.2450   44.4990 C   0  0  0  0  0  0  0  0  0  0  0  0
   57.8230   33.6460   45.8610 C   0  0  1  0  0  0  0  0  0  0  0  0
   57.9250   32.1470   45.8920 C   0  0  0  0  0  0  0  0  0  0  0  0
   58.8890   31.4650   46.5430 N   0  0  0  0  0  0  0  0  0  0  0  0
   58.5040   30.1900   46.3260 C   0  0  0  0  0  0  0  0  0  0  0  0
   59.2330   29.0260   46.8560 C   0  0  0  0  0  0  0  0  0  0  0  0
   59.6960   28.0100   46.0060 C   0  0  0  0  0  0  0  0  0  0  0  0
   60.3720   26.9150   46.5510 C   0  0  0  0  0  0  0  0  0  0  0  0
   60.5870   26.8480   47.9290 C   0  0  0  0  0  0  0  0  0  0  0  0
   60.1160   27.8780   48.7440 C   0  0  0  0  0  0  0  0  0  0  0  0
   59.4520   28.9310   48.1970 N   0  0  0  0  0  0  0  0  0  0  0  0
   57.3750   30.1090   45.5950 N   0  0  0  0  0  0  0  0  0  0  0  0
   57.0500   31.3400   45.3450 O   0  0  0  0  0  0  0  0  0  0  0  0
   61.8575   34.1425   46.1791 H   0  0  0  0  0  0  0  0  0  0  0  0
   63.8218   32.6281   46.3993 H   0  0  0  0  0  0  0  0  0  0  0  0
   63.9332   30.9878   48.2684 H   0  0  0  0  0  0  0  0  0  0  0  0
   56.9737   31.1056   50.9077 H   0  0  0  0  0  0  0  0  0  0  0  0
   58.0489   32.9778   52.4874 H   0  0  0  0  0  0  0  0  0  0  0  0
   59.1953   35.9494   45.1537 H   0  0  0  0  0  0  0  0  0  0  0  0
   60.1976   34.6614   44.6509 H   0  0  0  0  0  0  0  0  0  0  0  0
   57.2439   34.9574   44.1778 H   0  0  0  0  0  0  0  0  0  0  0  0
   58.0399   33.6611   43.5670 H   0  0  0  0  0  0  0  0  0  0  0  0
   56.8408   33.8268   46.3220 H   0  0  0  0  0  0  0  0  0  0  0  0
   59.5284   28.0749   44.9208 H   0  0  0  0  0  0  0  0  0  0  0  0
   60.7336   26.1083   45.8964 H   0  0  0  0  0  0  0  0  0  0  0  0
   61.1219   25.9925   48.3673 H   0  0  0  0  0  0  0  0  0  0  0  0
   60.2821   27.8381   49.8307 H   0  0  0  0  0  0  0  0  0  0  0  0
  1  2  2  0
  2  3  1  0
  3  4  2  0
  4  5  1  0
  5  6  2  0
  6  7  1  0
  7  8  1  0
  7  9  2  0
  9 10  1  0
 10 11  1  0
 11 12  2  0
 12 13  1  0
 13 14  2  0
  2 15  1  0
 15 16  1  0
 16 17  1  0
 17 18  1  0
 18 19  1  0
 19 20  2  0
 20 21  1  0
 21 22  1  0
 22 23  2  0
 23 24  1  0
 24 25  2  0
 25 26  1  0
 26 27  2  0
 21 28  2  0
 28 29  1  0
  9  3  1  0
 14 10  1  0
 18 15  1  0
 29 19  1  0
 27 22  1  0
  4 30  1  0
  5 31  1  0
  6 32  1  0
 12 33  1  0
 13 34  1  0
 16 35  1  0
 16 36  1  0
 17 37  1  0
 17 38  1  0
 18 39  1  1
 23 40  1  0
 24 41  1  0
 25 42  1  0
 26 43  1  0
M  END
>  <UniqueID>  (3) 
3

>  <SMILES>  (3) 
O=C(c1cccc(Br)c1-n1nccn1)N1CC[C@H]1c1nc(-c2ccccn2)no1

>  <Energy>  (3) 
170.12760290590927

>  <Genealogy>  (3) 
O=C(c1cccc(Br)c1-n1nccn1)N1CC[C@H]1c1nc(-c2ccccn2)no1 (chirality)
O=C(c1cccc(Br)c1-n1nccn1)N1CC[C@H]1c1nc(-c2ccccn2)no1 (3D coordinates assigned)
O=C(c1cccc(Br)c1-n1nccn1)N1CC[C@H]1c1nc(-c2ccccn2)no1 (nonaromatic ring conformer: 170.12760290590927 kcal/mol)

>  <smiles>  (3) 
O=C(c1cccc(Br)c1-n1nccn1)N1CCC1c1nc(-c2ccccn2)no1

>  <score_type>  (3) 
oracle

>  <origin>  (3) 
adg

>  <m_score__min__energy>  (3) 
-9.2300000000000004

>  <m_primary>  (3) 
energy

$$$$
3:0
     RDKit          3D

 26 28  0  0  0  0  0  0  0  0999 V2000
   55.8930   29.4660   43.8270 C   0  0  0  0  0  0  0  0  0  0  0  0
   56.3270   29.9680   42.6050 C   0  0  0  0  0  0  0  0  0  0  0  0
   57.0990   31.0620   42.9250 C   0  0  0  0  0  0  0  0  0  0  0  0
   57.7760   31.9630   42.1170 C   0  0  0  0  0  0  0  0  0  0  0  0
   58.4580   32.9840   42.7150 N   0  0  0  0  0  0  0  0  0  0  0  0
   58.4830   33.1480   44.0800 C   0  0  0  0  0  0  0  0  0  0  0  0
   57.8160   32.2120   44.9210 C   0  0  0  0  0  0  0  0  0  0  0  0
   57.1130   31.1820   44.2850 C   0  0  0  0  0  0  0  0  0  0  0  0
   56.3730   30.2110   44.8500 N   0  0  0  0  0  0  0  0  0  0  0  0
   57.7690   32.3740   46.4230 C   0  0  0  0  0  0  0  0  0  0  0  0
   58.8520   33.3230   46.9470 C   0  0  0  0  0  0  0  0  0  0  0  0
   58.9020   34.5990   46.1080 C   0  0  0  0  0  0  0  0  0  0  0  0
   59.3000   34.2730   44.6660 C   0  0  0  0  0  0  0  0  0  0  0  0
   55.2474   28.5834   43.9461 H   0  0  0  0  0  0  0  0  0  0  0  0
   56.1025   29.5765   41.6018 H   0  0  0  0  0  0  0  0  0  0  0  0
   57.7640   31.8580   41.0221 H   0  0  0  0  0  0  0  0  0  0  0  0
   58.9730   33.6580   42.1050 H   0  0  0  0  0  0  0  0  0  0  0  0
   56.1920   30.0540   45.8660 H   0  0  0  0  0  0  0  0  0  0  0  0
   56.7837   32.7745   46.7036 H   0  0  0  0  0  0  0  0  0  0  0  0
   57.9472   31.3852   46.8707 H   0  0  0  0  0  0  0  0  0  0  0  0
   58.6277   33.5858   47.9913 H   0  0  0  0  0  0  0  0  0  0  0  0
   59.8271   32.8180   46.8822 H   0  0  0  0  0  0  0  0  0  0  0  0
   57.9101   35.0746   46.1118 H   0  0  0  0  0  0  0  0  0  0  0  0
   59.6493   35.2812   46.5394 H   0  0  0  0  0  0  0  0  0  0  0  0
   59.1559   35.1720   44.0487 H   0  0  0  0  0  0  0  0  0  0  0  0
   60.3521   33.9519   44.6747 H   0  0  0  0  0  0  0  0  0  0  0  0
  1  2  2  0
  2  3  1  0
  3  4  2  0
  4  5  1  0
  5  6  2  0
  6  7  1  0
  7  8  2  0
  8  9  1  0
  7 10  1  0
 10 11  1  0
 11 12  1  0
 12 13  1  0
  9  1  1  0
  8  3  1  0
 13  6  1  0
  1 14  1  0
  2 15  1  0
  4 16  1  0
  5 17  1  0
  9 18  1  0
 10 19  1  0
 10 20  1  0
 11 21  1  0
 11 22  1  0
 12 23  1  0
 12 24  1  0
 13 25  1  0
 13 26  1  0
M  CHG  1   5   1
M  END
>  <UniqueID>  (4) 
4

>  <SMILES>  (4) 
c1cc2c[nH+]c3c(c2[nH]1)CCCC3

>  <Energy>  (4) 
59.66543677249304

>  <Genealogy>  (4) 
c1cc2c[nH+]c3c(c2[nH]1)CCCC3 (protonated)
c1cc2c[nH+]c3c(c2[nH]1)CCCC3 (3D coordinates assigned)
c1cc2c[nH+]c3c(c2[nH]1)CCCC3 (nonaromatic ring conformer: 59.66543677249304 kcal/mol)

>  <smiles>  (4) 
c1cc2cnc3c(c2[nH]1)CCCC3

>  <score_type>  (4) 
oracle

>  <origin>  (4) 
adg

>  <m_score__min__energy>  (4) 
-4.4199999999999999

>  <m_primary>  (4) 
energy

$$$$
4:0
     RDKit          3D

 46 49  0  0  0  0  0  0  0  0999 V2000
   55.2210   26.5850   47.3000 H   0  0  0  0  0  0  0  0  0  0  0  0
   54.9620   26.3120   46.3600 O   0  0  0  0  0  0  0  0  0  0  0  0
   55.5540   25.2200   45.7240 C   0  0  0  0  0  0  0  0  0  0  0  0
   54.8270   24.5040   44.7650 C   0  0  0  0  0  0  0  0  0  0  0  0
   53.8040   24.8176   44.5099 H   0  0  0  0  0  0  0  0  0  0  0  0
   55.3880   23.3990   44.1320 C   0  0  0  0  0  0  0  0  0  0  0  0
   54.7980   22.8313   43.3974 H   0  0  0  0  0  0  0  0  0  0  0  0
   56.6990   23.0060   44.4250 C   0  0  0  0  0  0  0  0  0  0  0  0
   57.2620   21.9070   43.7570 C   0  0  0  0  0  0  0  0  0  0  0  0
   56.6600   21.3400   43.0316 H   0  0  0  0  0  0  0  0  0  0  0  0
   58.5810   21.5310   44.0090 C   0  0  0  0  0  0  0  0  0  0  0  0
   59.0127   20.6623   43.4903 H   0  0  0  0  0  0  0  0  0  0  0  0
   59.3530   22.2530   44.9160 C   0  0  0  0  0  0  0  0  0  0  0  0
   60.3973   21.9608   45.1003 H   0  0  0  0  0  0  0  0  0  0  0  0
   58.8070   23.3470   45.5930 C   0  0  0  0  0  0  0  0  0  0  0  0
   59.4303   23.9169   46.2978 H   0  0  0  0  0  0  0  0  0  0  0  0
   57.4630   23.7290   45.3820 C   0  0  0  0  0  0  0  0  0  0  0  0
   56.8660   24.8300   46.0610 C   0  0  0  0  0  0  0  0  0  0  0  0
   57.5580   25.5840   47.1300 C   0  0  0  0  0  0  0  0  0  0  0  0
   58.1313   25.0426   47.8969 H   0  0  0  0  0  0  0  0  0  0  0  0
   57.4930   26.8820   47.1690 N   0  0  0  0  0  0  0  0  0  0  0  0
   58.6050   27.7930   47.1350 C   0  0  0  0  0  0  0  0  0  0  0  0
   58.8090   28.6300   48.2380 C   0  0  0  0  0  0  0  0  0  0  0  0
   58.1178   28.5820   49.0924 H   0  0  0  0  0  0  0  0  0  0  0  0
   59.8810   29.5260   48.2660 C   0  0  0  0  0  0  0  0  0  0  0  0
   60.0214   30.1854   49.1352 H   0  0  0  0  0  0  0  0  0  0  0  0
   60.7820   29.5880   47.1860 C   0  0  0  0  0  0  0  0  0  0  0  0
   61.8790   30.4600   47.1620 O   0  0  0  0  0  0  0  0  0  0  0  0
   61.8030   32.1380   47.4930 S   0  0  0  0  0  0  0  0  0  0  0  0
   61.7380   32.3450   48.9790 O   0  0  0  0  0  0  0  0  0  0  0  0
   63.0420   32.8000   46.9560 O   0  0  0  0  0  0  0  0  0  0  0  0
   60.3680   32.8370   46.7510 C   0  0  0  0  0  0  0  0  0  0  0  0
   59.1390   32.1630   46.8120 C   0  0  0  0  0  0  0  0  0  0  0  0
   59.0713   31.1893   47.3193 H   0  0  0  0  0  0  0  0  0  0  0  0
   58.0000   32.7270   46.2290 C   0  0  0  0  0  0  0  0  0  0  0  0
   57.0372   32.1975   46.2806 H   0  0  0  0  0  0  0  0  0  0  0  0
   58.0830   33.9640   45.5800 C   0  0  0  0  0  0  0  0  0  0  0  0
   56.6540   34.6710   44.8500 Cl  0  0  0  0  0  0  0  0  0  0  0  0
   59.3090   34.6360   45.5140 C   0  0  0  0  0  0  0  0  0  0  0  0
   59.3758   35.6082   45.0037 H   0  0  0  0  0  0  0  0  0  0  0  0
   60.4490   34.0730   46.0960 C   0  0  0  0  0  0  0  0  0  0  0  0
   61.4119   34.6018   46.0395 H   0  0  0  0  0  0  0  0  0  0  0  0
   60.5860   28.7430   46.0890 C   0  0  0  0  0  0  0  0  0  0  0  0
   61.2840   28.7832   45.2397 H   0  0  0  0  0  0  0  0  0  0  0  0
   59.5130   27.8480   46.0600 C   0  0  0  0  0  0  0  0  0  0  0  0
   59.3771   27.1837   45.1938 H   0  0  0  0  0  0  0  0  0  0  0  0
  1  2  1  0
  2  3  1  0
  3  4  2  0
  4  5  1  0
  4  6  1  0
  6  7  1  0
  6  8  2  0
  8  9  1  0
  9 10  1  0
  9 11  2  0
 11 12  1  0
 11 13  1  0
 13 14  1  0
 13 15  2  0
 15 16  1  0
 15 17  1  0
 17 18  2  0
 18 19  1  0
 19 20  1  0
 19 21  2  0
 21 22  1  0
 22 23  2  0
 23 24  1  0
 23 25  1  0
 25 26  1  0
 25 27  2  0
 27 28  1  0
 28 29  1  0
 29 30  2  0
 29 31  2  0
 29 32  1  0
 32 33  2  0
 33 34  1  0
 33 35  1  0
 35 36  1  0
 35 37  2  0
 37 38  1  0
 37 39  1  0
 39 40  1  0
 39 41  2  0
 41 42  1  0
 27 43  1  0
 43 44  1  0
 43 45  2  0
 45 46  1  0
 18  3  1  0
 45 22  1  0
 17  8  1  0
 41 32  1  0
M  END
>  <UniqueID>  (5) 
5

>  <SMILES>  (5) 
O=S(=O)(Oc1ccc(/N=C/c2c(O)ccc3ccccc23)cc1)c1ccc(Cl)cc1

>  <Energy>  (5) 
63.713843884943635

>  <Genealogy>  (5) 
O=S(=O)(Oc1ccc(/N=C/c2c(O)ccc3ccccc23)cc1)c1ccc(Cl)cc1 (cis-trans isomerization)
O=S(=O)(Oc1ccc(/N=C/c2c(O)ccc3ccccc23)cc1)c1ccc(Cl)cc1 (3D coordinates assigned)
O=S(=O)(Oc1ccc(/N=C/c2c(O)ccc3ccccc23)cc1)c1ccc(Cl)cc1 (optimized conformer: 63.713843884943635 kcal/mol)

>  <smiles>  (5) 
O=S(=O)(Oc1ccc(N=Cc2c(O)ccc3ccccc23)cc1)c1ccc(Cl)cc1

>  <score_type>  (5) 
oracle

>  <origin>  (5) 
adg

>  <m_score__min__energy>  (5) 
-10.52

>  <m_primary>  (5) 
energy

$$$$
5:0
     RDKit          3D

 31 33  0  0  0  0  0  0  0  0999 V2000
   66.8250   32.7360   50.3090 C   0  0  0  0  0  0  0  0  0  0  0  0
   65.7320   33.3430   51.0710 N   0  0  0  0  0  0  0  0  0  0  0  0
   64.5540   33.4580   50.2460 C   0  0  0  0  0  0  0  0  0  0  0  0
   63.4160   34.1290   50.7220 C   0  0  0  0  0  0  0  0  0  0  0  0
   62.2650   34.2180   49.9350 C   0  0  0  0  0  0  0  0  0  0  0  0
   62.2250   33.6310   48.6560 C   0  0  0  0  0  0  0  0  0  0  0  0
   61.0120   33.7130   47.8050 C   0  0  0  0  0  0  0  0  0  0  0  0
   59.7090   33.3870   48.1750 C   0  0  0  0  0  0  0  0  0  0  0  0
   58.9320   33.6100   47.1070 N   0  0  0  0  0  0  0  0  0  0  0  0
   57.5940   33.4470   46.9540 C   0  0  0  0  0  0  0  0  0  0  0  0
   57.0290   33.7610   45.7090 C   0  0  0  0  0  0  0  0  0  0  0  0
   57.8580   34.2300   44.6700 C   0  0  0  0  0  0  0  0  0  0  0  0
   59.2390   34.3810   44.8770 C   0  0  0  0  0  0  0  0  0  0  0  0
   59.7430   34.0540   46.1350 C   0  0  0  0  0  0  0  0  0  0  0  0
   61.0330   34.1360   46.5140 N   0  0  0  0  0  0  0  0  0  0  0  0
   63.3620   32.9490   48.1900 C   0  0  0  0  0  0  0  0  0  0  0  0
   64.5130   32.8610   48.9770 C   0  0  0  0  0  0  0  0  0  0  0  0
   67.5706   32.3219   51.0037 H   0  0  0  0  0  0  0  0  0  0  0  0
   66.4267   31.9298   49.6754 H   0  0  0  0  0  0  0  0  0  0  0  0
   67.2988   33.5002   49.6754 H   0  0  0  0  0  0  0  0  0  0  0  0
   65.5270   32.7510   51.9100 H   0  0  0  0  0  0  0  0  0  0  0  0
   66.0300   34.2880   51.4080 H   0  0  0  0  0  0  0  0  0  0  0  0
   63.4308   34.5878   51.7216 H   0  0  0  0  0  0  0  0  0  0  0  0
   61.3825   34.7513   50.3180 H   0  0  0  0  0  0  0  0  0  0  0  0
   59.3807   33.0168   49.1575 H   0  0  0  0  0  0  0  0  0  0  0  0
   56.9702   33.0793   47.7821 H   0  0  0  0  0  0  0  0  0  0  0  0
   55.9478   33.6422   45.5449 H   0  0  0  0  0  0  0  0  0  0  0  0
   57.4211   34.4791   43.6917 H   0  0  0  0  0  0  0  0  0  0  0  0
   59.8990   34.7442   44.0754 H   0  0  0  0  0  0  0  0  0  0  0  0
   63.3455   32.4796   47.1953 H   0  0  0  0  0  0  0  0  0  0  0  0
   65.3931   32.3200   48.5991 H   0  0  0  0  0  0  0  0  0  0  0  0
  1  2  1  0
  2  3  1  0
  3  4  2  0
  4  5  1  0
  5  6  2  0
  6  7  1  0
  7  8  2  0
  8  9  1  0
  9 10  1  0
 10 11  2  0
 11 12  1  0
 12 13  2  0
 13 14  1  0
 14 15  2  0
  6 16  1  0
 16 17  2  0
 17  3  1  0
 15  7  1  0
 14  9  1  0
  1 18  1  0
  1 19  1  0
  1 20  1  0
  2 21  1  0
  2 22  1  0
  4 23  1  0
  5 24  1  0
  8 25  1  0
 10 26  1  0
 11 27  1  0
 12 28  1  0
 13 29  1  0
 16 30  1  0
 17 31  1  0
M  CHG  1   2   1
M  END
>  <UniqueID>  (6) 
6

>  <SMILES>  (6) 
C[NH2+]c1ccc(-c2cn3ccccc3n2)cc1

>  <Energy>  (6) 
69.20207450384025

>  <Genealogy>  (6) 
C[NH2+]c1ccc(-c2cn3ccccc3n2)cc1 (protonated)
C[NH2+]c1ccc(-c2cn3ccccc3n2)cc1 (3D coordinates assigned)
C[NH2+]c1ccc(-c2cn3ccccc3n2)cc1 (optimized conformer: 69.20207450384025 kcal/mol)

>  <smiles>  (6) 
CNc1ccc(-c2cn3ccccc3n2)cc1

>  <score_type>  (6) 
oracle

>  <origin>  (6) 
adg

>  <m_score__min__energy>  (6) 
-4.5800000000000001

>  <m_primary>  (6) 
energy

$$$$
6:0
     RDKit          3D

 57 61  0  0  0  0  0  0  0  0999 V2000
   63.7965   34.9725   47.6747 H   0  0  0  0  0  0  0  0  0  0  0  0
   63.3630   33.9820   47.8770 C   0  0  0  0  0  0  0  0  0  0  0  0
   62.9750   33.6560   49.1400 N   0  0  0  0  0  0  0  0  0  0  0  0
   62.4430   32.4350   49.4330 C   0  0  0  0  0  0  0  0  0  0  0  0
   61.9760   32.1440   50.8320 C   0  0  0  0  0  0  0  0  0  0  0  0
   62.3670   32.9201   51.5063 H   0  0  0  0  0  0  0  0  0  0  0  0
   62.3481   31.1486   51.1161 H   0  0  0  0  0  0  0  0  0  0  0  0
   60.4400   32.1260   50.9310 C   0  0  0  0  0  0  0  0  0  0  0  0
   60.0186   32.5145   49.9921 H   0  0  0  0  0  0  0  0  0  0  0  0
   60.1464   32.7519   51.7866 H   0  0  0  0  0  0  0  0  0  0  0  0
   59.9220   30.7730   51.1590 N   0  0  0  0  0  0  0  0  0  0  0  0
   60.0860   29.6830   50.4550 C   0  0  0  0  0  0  0  0  0  0  0  0
   60.6520   28.6140   51.0810 N   0  0  0  0  0  0  0  0  0  0  0  0
   60.8130   27.4090   50.4760 C   0  0  0  0  0  0  0  0  0  0  0  0
   61.2844   26.5780   51.0212 H   0  0  0  0  0  0  0  0  0  0  0  0
   60.3810   27.2260   49.1650 C   0  0  0  0  0  0  0  0  0  0  0  0
   60.4825   26.2427   48.6825 H   0  0  0  0  0  0  0  0  0  0  0  0
   59.8160   28.3000   48.4620 C   0  0  0  0  0  0  0  0  0  0  0  0
   59.3270   28.0850   47.0800 C   0  0  0  0  0  0  0  0  0  0  0  0
   59.9980   27.5200   46.0040 C   0  0  0  0  0  0  0  0  0  0  0  0
   61.0024   27.0732   46.0439 H   0  0  0  0  0  0  0  0  0  0  0  0
   59.2250   27.6050   44.9020 N   0  0  0  0  0  0  0  0  0  0  0  0
   58.0870   28.1860   45.2550 N   0  0  0  0  0  0  0  0  0  0  0  0
   57.0590   28.6000   44.3060 C   0  0  0  0  0  0  0  0  0  0  0  0
   57.1335   27.9878   43.3951 H   0  0  0  0  0  0  0  0  0  0  0  0
   56.0662   28.4645   44.7599 H   0  0  0  0  0  0  0  0  0  0  0  0
   57.2540   30.0490   43.9530 C   0  0  0  0  0  0  0  0  0  0  0  0
   57.0330   30.5020   42.6430 C   0  0  0  0  0  0  0  0  0  0  0  0
   56.6694   29.8030   41.8754 H   0  0  0  0  0  0  0  0  0  0  0  0
   57.2730   31.8360   42.3110 C   0  0  0  0  0  0  0  0  0  0  0  0
   57.0790   32.1893   41.2875 H   0  0  0  0  0  0  0  0  0  0  0  0
   57.7590   32.7250   43.2740 C   0  0  0  0  0  0  0  0  0  0  0  0
   57.9477   33.7744   43.0035 H   0  0  0  0  0  0  0  0  0  0  0  0
   58.0080   32.2860   44.5860 C   0  0  0  0  0  0  0  0  0  0  0  0
   58.5830   33.2090   45.5970 C   0  0  0  0  0  0  0  0  0  0  0  0
   58.5440   32.8800   46.9670 C   0  0  0  0  0  0  0  0  0  0  0  0
   58.0698   31.9418   47.2909 H   0  0  0  0  0  0  0  0  0  0  0  0
   59.1050   33.7400   47.9170 C   0  0  0  0  0  0  0  0  0  0  0  0
   59.0720   33.4755   48.9842 H   0  0  0  0  0  0  0  0  0  0  0  0
   59.7070   34.9340   47.5130 C   0  0  0  0  0  0  0  0  0  0  0  0
   60.1489   35.6078   48.2618 H   0  0  0  0  0  0  0  0  0  0  0  0
   59.7480   35.2730   46.1570 C   0  0  0  0  0  0  0  0  0  0  0  0
   60.2195   36.2152   45.8409 H   0  0  0  0  0  0  0  0  0  0  0  0
   59.1910   34.4170   45.2020 C   0  0  0  0  0  0  0  0  0  0  0  0
   59.2277   34.6882   44.1366 H   0  0  0  0  0  0  0  0  0  0  0  0
   57.7360   30.9460   44.9190 C   0  0  0  0  0  0  0  0  0  0  0  0
   57.9032   30.5974   45.9488 H   0  0  0  0  0  0  0  0  0  0  0  0
   58.1120   28.4940   46.5660 C   0  0  0  0  0  0  0  0  0  0  0  0
   57.3052   28.9857   47.1293 H   0  0  0  0  0  0  0  0  0  0  0  0
   59.6790   29.5490   49.1030 C   0  0  0  0  0  0  0  0  0  0  0  0
   59.1470   30.5910   48.4150 F   0  0  0  0  0  0  0  0  0  0  0  0
   62.2690   31.4880   48.4080 C   0  0  0  0  0  0  0  0  0  0  0  0
   61.8254   30.5060   48.6293 H   0  0  0  0  0  0  0  0  0  0  0  0
   62.6640   31.8050   47.1080 C   0  0  0  0  0  0  0  0  0  0  0  0
   62.5444   31.0684   46.2998 H   0  0  0  0  0  0  0  0  0  0  0  0
   63.2120   33.0610   46.8360 C   0  0  0  0  0  0  0  0  0  0  0  0
   63.5215   33.3226   45.8134 H   0  0  0  0  0  0  0  0  0  0  0  0
  1  2  1  0
  2  3  2  0
  3  4  1  0
  4  5  1  0
  5  6  1  0
  5  7  1  0
  5  8  1  0
  8  9  1  0
  8 10  1  0
  8 11  1  0
 11 12  2  0
 12 13  1  0
 13 14  1  0
 14 15  1  0
 14 16  2  0
 16 17  1  0
 16 18  1  0
 18 19  1  0
 19 20  1  0
 20 21  1  0
 20 22  2  0
 22 23  1  0
 23 24  1  0
 24 25  1  0
 24 26  1  0
 24 27  1  0
 27 28  2  0
 28 29  1  0
 28 30  1  0
 30 31  1  0
 30 32  2  0
 32 33  1  0
 32 34  1  0
 34 35  1  0
 35 36  2  0
 36 37  1  0
 36 38  1  0
 38 39  1  0
 38 40  2  0
 40 41  1  0
 40 42  1  0
 42 43  1  0
 42 44  2  0
 44 45  1  0
 34 46  2  0
 46 47  1  0
 23 48  1  0
 48 49  1  0
 18 50  2  0
 50 51  1  0
  4 52  2  0
 52 53  1  0
 52 54  1  0
 54 55  1  0
 54 56  2  0
 56 57  1  0
 56  2  1  0
 50 12  1  0
 48 19  2  0
 46 27  1  0
 44 35  1  0
M  CHG  1  13  -1
M  END
>  <UniqueID>  (7) 
7

>  <SMILES>  (7) 
Fc1c(-c2cnn(Cc3cccc(-c4ccccc4)c3)c2)cc[n-]/c1=N/CCc1ccccn1

>  <Energy>  (7) 
105.40225705544107

>  <Genealogy>  (7) 
Fc1c(-c2cnn(Cc3cccc(-c4ccccc4)c3)c2)cc[n-]c1=NCCc1ccccn1 (protonated)
Fc1c(-c2cnn(Cc3cccc(-c4ccccc4)c3)c2)cc[n-]/c1=N/CCc1ccccn1 (cis-trans isomerization)
Fc1c(-c2cnn(Cc3cccc(-c4ccccc4)c3)c2)cc[n-]/c1=N/CCc1ccccn1 (3D coordinates assigned)
Fc1c(-c2cnn(Cc3cccc(-c4ccccc4)c3)c2)cc[n-]/c1=N/CCc1ccccn1 (optimized conformer: 105.40225705544107 kcal/mol)

>  <smiles>  (7) 
Fc1c(-c2cnn(Cc3cccc(-c4ccccc4)c3)c2)cc[nH]c1=NCCc1ccccn1

>  <score_type>  (7) 
oracle

>  <origin>  (7) 
adg

>  <m_score__min__energy>  (7) 
-11.619999999999999

>  <m_primary>  (7) 
energy

$$$$
7:0
     RDKit          3D

 46 48  0  0  0  0  0  0  0  0999 V2000
   57.9480   28.0890   44.2950 C   0  0  0  0  0  0  0  0  0  0  0  0
   56.7210   29.3350   43.9730 S   0  0  0  0  0  0  0  0  0  0  0  0
   56.2970   29.2630   42.5330 O   0  0  0  0  0  0  0  0  0  0  0  0
   55.5180   29.0930   44.8420 O   0  0  0  0  0  0  0  0  0  0  0  0
   57.3960   30.9230   44.3190 C   0  0  0  0  0  0  0  0  0  0  0  0
   57.7530   31.2660   45.6300 C   0  0  0  0  0  0  0  0  0  0  0  0
   58.3070   32.5200   45.9030 C   0  0  0  0  0  0  0  0  0  0  0  0
   58.5060   33.4470   44.8680 C   0  0  0  0  0  0  0  0  0  0  0  0
   59.1420   34.7780   45.1570 C   0  0  0  0  0  0  0  0  0  0  0  0
   60.0170   34.6720   46.3690 C   0  0  0  0  0  0  0  0  0  0  0  0
   59.6440   35.2020   47.4500 O   0  0  0  0  0  0  0  0  0  0  0  0
   61.2670   33.9700   46.2890 N   0  0  0  0  0  0  0  0  0  0  0  0
   62.0330   33.5580   47.4340 C   0  0  0  0  0  0  0  0  0  0  0  0
   63.4290   33.4010   47.3660 C   0  0  0  0  0  0  0  0  0  0  0  0
   64.1540   33.0400   48.5040 C   0  0  0  0  0  0  0  0  0  0  0  0
   63.4970   32.8360   49.7190 C   0  0  0  0  0  0  0  0  0  0  0  0
   62.1090   32.9900   49.8080 C   0  0  0  0  0  0  0  0  0  0  0  0
   61.4890   32.8000   51.0510 O   0  0  0  0  0  0  0  0  0  0  0  0
   60.1130   32.6200   51.2550 C   0  0  0  0  0  0  0  0  0  0  0  0
   59.4360   33.5050   52.1020 C   0  0  0  0  0  0  0  0  0  0  0  0
   58.0660   33.3480   52.3410 C   0  0  0  0  0  0  0  0  0  0  0  0
   57.3680   32.2960   51.7440 C   0  0  0  0  0  0  0  0  0  0  0  0
   58.0380   31.3960   50.9120 C   0  0  0  0  0  0  0  0  0  0  0  0
   59.4080   31.5490   50.6720 C   0  0  0  0  0  0  0  0  0  0  0  0
   61.3840   33.3750   48.6650 C   0  0  0  0  0  0  0  0  0  0  0  0
   58.1650   33.0930   43.5540 C   0  0  0  0  0  0  0  0  0  0  0  0
   57.6110   31.8390   43.2810 C   0  0  0  0  0  0  0  0  0  0  0  0
   58.0692   27.9659   45.3813 H   0  0  0  0  0  0  0  0  0  0  0  0
   57.6270   27.1350   43.8514 H   0  0  0  0  0  0  0  0  0  0  0  0
   58.9069   28.3953   43.8514 H   0  0  0  0  0  0  0  0  0  0  0  0
   57.5968   30.5461   46.4469 H   0  0  0  0  0  0  0  0  0  0  0  0
   58.5883   32.7816   46.9338 H   0  0  0  0  0  0  0  0  0  0  0  0
   59.7500   35.0869   44.2939 H   0  0  0  0  0  0  0  0  0  0  0  0
   58.3545   35.5233   45.3425 H   0  0  0  0  0  0  0  0  0  0  0  0
   61.6740   33.8040   45.3410 H   0  0  0  0  0  0  0  0  0  0  0  0
   63.9523   33.5633   46.4122 H   0  0  0  0  0  0  0  0  0  0  0  0
   65.2453   32.9161   48.4428 H   0  0  0  0  0  0  0  0  0  0  0  0
   64.0739   32.5525   50.6116 H   0  0  0  0  0  0  0  0  0  0  0  0
   59.9840   34.3288   52.5827 H   0  0  0  0  0  0  0  0  0  0  0  0
   57.5386   34.0538   52.9996 H   0  0  0  0  0  0  0  0  0  0  0  0
   56.2903   32.1761   51.9290 H   0  0  0  0  0  0  0  0  0  0  0  0
   57.4879   30.5659   50.4448 H   0  0  0  0  0  0  0  0  0  0  0  0
   59.9356   30.8313   50.0266 H   0  0  0  0  0  0  0  0  0  0  0  0
   60.2979   33.5341   48.7370 H   0  0  0  0  0  0  0  0  0  0  0  0
   58.3345   33.8063   42.7339 H   0  0  0  0  0  0  0  0  0  0  0  0
   57.3431   31.5707   42.2484 H   0  0  0  0  0  0  0  0  0  0  0  0
  1  2  1  0
  2  3  2  0
  2  4  2  0
  2  5  1  0
  5  6  2  0
  6  7  1  0
  7  8  2  0
  8  9  1  0
  9 10  1  0
 10 11  2  0
 10 12  1  0
 12 13  1  0
 13 14  2  0
 14 15  1  0
 15 16  2  0
 16 17  1  0
 17 18  1  0
 18 19  1  0
 19 20  2  0
 20 21  1  0
 21 22  2  0
 22 23  1  0
 23 24  2  0
 17 25  2  0
  8 26  1  0
 26 27  2  0
 27  5  1  0
 25 13  1  0
 24 19  1  0
  1 28  1  0
  1 29  1  0
  1 30  1  0
  6 31  1  0
  7 32  1  0
  9 33  1  0
  9 34  1  0
 12 35  1  0
 14 36  1  0
 15 37  1  0
 16 38  1  0
 20 39  1  0
 21 40  1  0
 22 41  1  0
 23 42  1  0
 24 43  1  0
 25 44  1  0
 26 45  1  0
 27 46  1  0
M  END
>  <UniqueID>  (8) 
8

>  <SMILES>  (8) 
CS(=O)(=O)c1ccc(CC(=O)Nc2cccc(Oc3ccccc3)c2)cc1

>  <Energy>  (8) 
53.21323822893597

>  <Genealogy>  (8) 
CS(=O)(=O)c1ccc(CC(=O)Nc2cccc(Oc3ccccc3)c2)cc1 (3D coordinates assigned)
CS(=O)(=O)c1ccc(CC(=O)Nc2cccc(Oc3ccccc3)c2)cc1 (optimized conformer: 53.21323822893597 kcal/mol)

>  <smiles>  (8) 
CS(=O)(=O)c1ccc(CC(=O)Nc2cccc(Oc3ccccc3)c2)cc1

>  <score_type>  (8) 
oracle

>  <origin>  (8) 
adg

>  <m_score__min__energy>  (8) 
-9.0399999999999991

>  <m_primary>  (8) 
energy

$$$$
8:0
     RDKit          3D

 49 51  0  0  0  0  0  0  0  0999 V2000
   59.3500   28.1060   45.3060 C   0  0  0  0  0  0  0  0  0  0  0  0
   58.7980   29.0880   44.5870 C   0  0  0  0  0  0  0  0  0  0  0  0
   57.3150   29.3270   44.5980 C   0  0  0  0  0  0  0  0  0  0  0  0
   57.0220   30.6890   44.9160 O   0  0  0  0  0  0  0  0  0  0  0  0
   57.8150   31.5300   45.7180 C   0  0  0  0  0  0  0  0  0  0  0  0
   58.2680   31.1470   46.9910 C   0  0  0  0  0  0  0  0  0  0  0  0
   59.0650   32.0030   47.7680 C   0  0  0  0  0  0  0  0  0  0  0  0
   59.4070   33.2830   47.2640 C   0  0  0  0  0  0  0  0  0  0  0  0
   58.9510   33.6550   45.9850 C   0  0  0  0  0  0  0  0  0  0  0  0
   58.1570   32.7880   45.2130 C   0  0  0  0  0  0  0  0  0  0  0  0
   57.6910   33.1420   43.9360 O   0  0  0  0  0  0  0  0  0  0  0  0
   57.9210   32.3850   42.7520 C   0  0  0  0  0  0  0  0  0  0  0  0
   60.2680   34.2720   48.0460 C   0  0  2  0  0  0  0  0  0  0  0  0
   61.7530   33.9020   48.1180 C   0  0  0  0  0  0  0  0  0  0  0  0
   62.3980   33.4030   46.9700 C   0  0  0  0  0  0  0  0  0  0  0  0
   63.7350   33.0070   47.0150 C   0  0  0  0  0  0  0  0  0  0  0  0
   64.4510   33.0820   48.2090 C   0  0  0  0  0  0  0  0  0  0  0  0
   63.8340   33.5590   49.3750 C   0  0  0  0  0  0  0  0  0  0  0  0
   64.5820   33.5770   50.6850 C   0  0  0  0  0  0  0  0  0  0  0  0
   64.2100   34.6750   51.4410 F   0  0  0  0  0  0  0  0  0  0  0  0
   65.9480   33.6450   50.4730 F   0  0  0  0  0  0  0  0  0  0  0  0
   64.2930   32.4240   51.3910 F   0  0  0  0  0  0  0  0  0  0  0  0
   62.4780   33.9270   49.3320 C   0  0  0  0  0  0  0  0  0  0  0  0
   59.6150   34.6030   49.4160 C   0  0  0  0  0  0  0  0  0  0  0  0
   59.8380   33.5870   50.4540 N   0  0  0  0  0  0  0  0  0  0  0  0
   59.0330   32.3770   50.2600 C   0  0  0  0  0  0  0  0  0  0  0  0
   59.5570   31.5150   49.1110 C   0  0  0  0  0  0  0  0  0  0  0  0
   60.4388   27.9513   45.2811 H   0  0  0  0  0  0  0  0  0  0  0  0
   58.7156   27.4524   45.9227 H   0  0  0  0  0  0  0  0  0  0  0  0
   59.4431   29.7348   43.9743 H   0  0  0  0  0  0  0  0  0  0  0  0
   56.9047   29.0925   43.6047 H   0  0  0  0  0  0  0  0  0  0  0  0
   56.8598   28.6809   45.3631 H   0  0  0  0  0  0  0  0  0  0  0  0
   57.9934   30.1581   47.3867 H   0  0  0  0  0  0  0  0  0  0  0  0
   59.2208   34.6423   45.5819 H   0  0  0  0  0  0  0  0  0  0  0  0
   58.2309   31.3650   43.0233 H   0  0  0  0  0  0  0  0  0  0  0  0
   56.9955   32.3415   42.1590 H   0  0  0  0  0  0  0  0  0  0  0  0
   58.7142   32.8637   42.1590 H   0  0  0  0  0  0  0  0  0  0  0  0
   60.2889   35.2083   47.4689 H   0  0  0  0  0  0  0  0  0  0  0  0
   61.8402   33.3244   46.0252 H   0  0  0  0  0  0  0  0  0  0  0  0
   64.2265   32.6339   46.1044 H   0  0  0  0  0  0  0  0  0  0  0  0
   65.5042   32.7658   48.2368 H   0  0  0  0  0  0  0  0  0  0  0  0
   61.9726   34.2395   50.2577 H   0  0  0  0  0  0  0  0  0  0  0  0
   60.0294   35.5572   49.7734 H   0  0  0  0  0  0  0  0  0  0  0  0
   58.5292   34.6453   49.2451 H   0  0  0  0  0  0  0  0  0  0  0  0
   60.8520   33.3460   50.5450 H   0  0  0  0  0  0  0  0  0  0  0  0
   59.0548   31.7843   51.1864 H   0  0  0  0  0  0  0  0  0  0  0  0
   58.0083   32.6887   50.0093 H   0  0  0  0  0  0  0  0  0  0  0  0
   60.6566   31.5436   49.1183 H   0  0  0  0  0  0  0  0  0  0  0  0
   59.1849   30.4903   49.2576 H   0  0  0  0  0  0  0  0  0  0  0  0
  1  2  2  0
  2  3  1  0
  3  4  1  0
  4  5  1  0
  5  6  2  0
  6  7  1  0
  7  8  2  0
  8  9  1  0
  9 10  2  0
 10 11  1  0
 11 12  1  0
  8 13  1  0
 13 14  1  0
 14 15  2  0
 15 16  1  0
 16 17  2  0
 17 18  1  0
 18 19  1  0
 19 20  1  0
 19 21  1  0
 19 22  1  0
 18 23  2  0
 13 24  1  0
 24 25  1  0
 25 26  1  0
 26 27  1  0
 10  5  1  0
 23 14  1  0
 27  7  1  0
  1 28  1  0
  1 29  1  0
  2 30  1  0
  3 31  1  0
  3 32  1  0
  6 33  1  0
  9 34  1  0
 12 35  1  0
 12 36  1  0
 12 37  1  0
 13 38  1  6
 15 39  1  0
 16 40  1  0
 17 41  1  0
 23 42  1  0
 24 43  1  0
 24 44  1  0
 25 45  1  0
 26 46  1  0
 26 47  1  0
 27 48  1  0
 27 49  1  0
M  END
>  <UniqueID>  (9) 
9

>  <SMILES>  (9) 
C=CCOc1cc2c(cc1OC)[C@H](c1cccc(C(F)(F)F)c1)CNCC2

>  <Energy>  (9) 
58.229169653560625

>  <Genealogy>  (9) 
C=CCOc1cc2c(cc1OC)[C@H](c1cccc(C(F)(F)F)c1)CNCC2 (chirality)
C=CCOc1cc2c(cc1OC)[C@H](c1cccc(C(F)(F)F)c1)CNCC2 (3D coordinates assigned)
C=CCOc1cc2c(cc1OC)[C@H](c1cccc(C(F)(F)F)c1)CNCC2 (nonaromatic ring conformer: 58.229169653560625 kcal/mol)

>  <smiles>  (9) 
C=CCOc1cc2c(cc1OC)C(c1cccc(C(F)(F)F)c1)CNCC2

>  <score_type>  (9) 
oracle

>  <origin>  (9) 
adg

>  <m_score__min__energy>  (9) 
-5.2000000000000002

>  <m_primary>  (9) 
energy

$$$$
9:0
     RDKit          3D

 50 52  0  0  0  0  0  0  0  0999 V2000
   62.9020   33.8410   46.4550 C   0  0  0  0  0  0  0  0  0  0  0  0
   63.7730   33.4650   47.4770 C   0  0  0  0  0  0  0  0  0  0  0  0
   63.2880   33.2560   48.7290 N   0  0  0  0  0  0  0  0  0  0  0  0
   61.9650   33.4100   49.0030 C   0  0  0  0  0  0  0  0  0  0  0  0
   61.0860   33.7990   47.9810 C   0  0  0  0  0  0  0  0  0  0  0  0
   59.6130   33.9970   48.2450 C   0  0  0  0  0  0  0  0  0  0  0  0
   58.7500   33.4180   47.1890 N   0  0  0  0  0  0  0  0  0  0  0  0
   58.4140   34.3900   46.1120 C   0  0  0  0  0  0  0  0  0  0  0  0
   57.5280   33.8220   44.9820 C   0  0  0  0  0  0  0  0  0  0  0  0
   58.0310   32.4800   44.3960 C   0  0  0  0  0  0  0  0  0  0  0  0
   57.4470   31.3140   45.1020 N   0  0  0  0  0  0  0  0  0  0  0  0
   57.5490   30.0790   44.2880 C   0  0  0  0  0  0  0  0  0  0  0  0
   58.8650   29.3270   44.5960 C   0  0  0  0  0  0  0  0  0  0  0  0
   58.6850   27.9950   45.2140 N   0  0  0  0  0  0  0  0  0  0  0  0
   57.4570   27.8830   46.0270 C   0  0  0  0  0  0  0  0  0  0  0  0
   57.4180   26.5340   46.7690 C   0  0  0  0  0  0  0  0  0  0  0  0
   58.2880   25.6020   46.1580 O   0  0  0  0  0  0  0  0  0  0  0  0
   59.6380   26.0120   46.3210 C   0  0  0  0  0  0  0  0  0  0  0  0
   59.8600   27.4930   45.9430 C   0  0  0  0  0  0  0  0  0  0  0  0
   58.0580   31.1180   46.4420 C   0  0  0  0  0  0  0  0  0  0  0  0
   59.2170   32.0820   46.7510 C   0  0  0  0  0  0  0  0  0  0  0  0
   61.5810   33.9990   46.7290 N   0  0  0  0  0  0  0  0  0  0  0  0
   63.2813   34.0081   45.4361 H   0  0  0  0  0  0  0  0  0  0  0  0
   64.8461   33.3384   47.2709 H   0  0  0  0  0  0  0  0  0  0  0  0
   63.9400   32.9690   49.4920 H   0  0  0  0  0  0  0  0  0  0  0  0
   61.5862   33.2306   50.0200 H   0  0  0  0  0  0  0  0  0  0  0  0
   59.3618   33.5191   49.2034 H   0  0  0  0  0  0  0  0  0  0  0  0
   59.4260   35.0808   48.2635 H   0  0  0  0  0  0  0  0  0  0  0  0
   57.8836   35.2382   46.5695 H   0  0  0  0  0  0  0  0  0  0  0  0
   59.3675   34.6765   45.6442 H   0  0  0  0  0  0  0  0  0  0  0  0
   56.5156   33.6657   45.3827 H   0  0  0  0  0  0  0  0  0  0  0  0
   57.5529   34.5546   44.1618 H   0  0  0  0  0  0  0  0  0  0  0  0
   57.7511   32.4289   43.3334 H   0  0  0  0  0  0  0  0  0  0  0  0
   59.1232   32.4418   44.5210 H   0  0  0  0  0  0  0  0  0  0  0  0
   56.6963   29.4234   44.5185 H   0  0  0  0  0  0  0  0  0  0  0  0
   57.5414   30.3560   43.2235 H   0  0  0  0  0  0  0  0  0  0  0  0
   59.4137   29.1954   43.6517 H   0  0  0  0  0  0  0  0  0  0  0  0
   59.4087   29.9396   45.3303 H   0  0  0  0  0  0  0  0  0  0  0  0
   57.4348   28.7007   46.7625 H   0  0  0  0  0  0  0  0  0  0  0  0
   56.5841   27.9460   45.3606 H   0  0  0  0  0  0  0  0  0  0  0  0
   57.7286   26.6871   47.8131 H   0  0  0  0  0  0  0  0  0  0  0  0
   56.3923   26.1385   46.7299 H   0  0  0  0  0  0  0  0  0  0  0  0
   59.9243   25.8706   47.3736 H   0  0  0  0  0  0  0  0  0  0  0  0
   60.2551   25.4004   45.6464 H   0  0  0  0  0  0  0  0  0  0  0  0
   60.0053   28.0869   46.8574 H   0  0  0  0  0  0  0  0  0  0  0  0
   60.7515   27.5785   45.3044 H   0  0  0  0  0  0  0  0  0  0  0  0
   57.2765   31.2624   47.2025 H   0  0  0  0  0  0  0  0  0  0  0  0
   58.4790   30.1018   46.4531 H   0  0  0  0  0  0  0  0  0  0  0  0
   59.8338   31.6456   47.5505 H   0  0  0  0  0  0  0  0  0  0  0  0
   59.7907   32.2192   45.8225 H   0  0  0  0  0  0  0  0  0  0  0  0
  1  2  2  0
  2  3  1  0
  3  4  2  0
  4  5  1  0
  5  6  1  0
  6  7  1  0
  7  8  1  0
  8  9  1  0
  9 10  1  0
 10 11  1  0
 11 12  1  0
 12 13  1  0
 13 14  1  0
 14 15  1  0
 15 16  1  0
 16 17  1  0
 17 18  1  0
 18 19  1  0
 11 20  1  0
 20 21  1  0
  5 22  2  0
 22  1  1  0
 21  7  1  0
 19 14  1  0
  1 23  1  0
  2 24  1  0
  3 25  1  0
  4 26  1  0
  6 27  1  0
  6 28  1  0
  8 29  1  0
  8 30  1  0
  9 31  1  0
  9 32  1  0
 10 33  1  0
 10 34  1  0
 12 35  1  0
 12 36  1  0
 13 37  1  0
 13 38  1  0
 15 39  1  0
 15 40  1  0
 16 41  1  0
 16 42  1  0
 18 43  1  0
 18 44  1  0
 19 45  1  0
 19 46  1  0
 20 47  1  0
 20 48  1  0
 21 49  1  0
 21 50  1  0
M  CHG  1   3   1
M  END
>  <UniqueID>  (10) 
10

>  <SMILES>  (10) 
c1c[nH+]cc(CN2CCCN(CCN3CCOCC3)CC2)n1

>  <Energy>  (10) 
82.78593016227636

>  <Genealogy>  (10) 
c1c[nH+]cc(CN2CCCN(CCN3CCOCC3)CC2)n1 (protonated)
c1c[nH+]cc(CN2CCCN(CCN3CCOCC3)CC2)n1 (3D coordinates assigned)
c1c[nH+]cc(CN2CCCN(CCN3CCOCC3)CC2)n1 (nonaromatic ring conformer: 82.78593016227636 kcal/mol)

>  <smiles>  (10) 
c1cnc(CN2CCCN(CCN3CCOCC3)CC2)cn1

>  <score_type>  (10) 
oracle

>  <origin>  (10) 
adg

>  <m_score__min__energy>  (10) 
-4.1799999999999997

>  <m_primary>  (10) 
energy

$$$$
10:0
     RDKit          3D

 34 36  0  0  0  0  0  0  0  0999 V2000
   58.4240   22.9430   44.9540 C   0  0  0  0  0  0  0  0  0  0  0  0
   58.7980   23.9860   46.0020 C   0  0  0  0  0  0  0  0  0  0  0  0
   58.0410   25.2670   45.7730 C   0  0  0  0  0  0  0  0  0  0  0  0
   56.7050   25.3840   46.1860 C   0  0  0  0  0  0  0  0  0  0  0  0
   56.0120   26.5840   46.0010 C   0  0  0  0  0  0  0  0  0  0  0  0
   56.6480   27.6900   45.4250 C   0  0  0  0  0  0  0  0  0  0  0  0
   55.8930   28.8960   45.2350 N   0  0  0  0  0  0  0  0  0  0  0  0
   56.2480   30.0040   44.3980 C   0  0  0  0  0  0  0  0  0  0  0  0
   55.8050   30.0880   43.2210 O   0  0  0  0  0  0  0  0  0  0  0  0
   57.1800   31.0250   44.8970 C   0  0  0  0  0  0  0  0  0  0  0  0
   57.2510   32.3470   44.4540 C   0  0  0  0  0  0  0  0  0  0  0  0
   58.2420   33.0780   45.1180 C   0  0  0  0  0  0  0  0  0  0  0  0
   58.5590   34.4210   44.9020 C   0  0  0  0  0  0  0  0  0  0  0  0
   59.5910   35.0020   45.6600 C   0  0  0  0  0  0  0  0  0  0  0  0
   60.2890   34.2410   46.6180 C   0  0  0  0  0  0  0  0  0  0  0  0
   59.9620   32.8920   46.8260 C   0  0  0  0  0  0  0  0  0  0  0  0
   58.9370   32.3390   46.0630 C   0  0  0  0  0  0  0  0  0  0  0  0
   58.3430   30.7690   46.1010 S   0  0  0  0  0  0  0  0  0  0  0  0
   57.9840   27.5710   45.0000 C   0  0  0  0  0  0  0  0  0  0  0  0
   58.6770   26.3700   45.1840 C   0  0  0  0  0  0  0  0  0  0  0  0
   58.0935   22.0214   45.4555 H   0  0  0  0  0  0  0  0  0  0  0  0
   57.6089   23.3308   44.3253 H   0  0  0  0  0  0  0  0  0  0  0  0
   59.2998   22.7245   44.3253 H   0  0  0  0  0  0  0  0  0  0  0  0
   58.5546   23.5967   47.0016 H   0  0  0  0  0  0  0  0  0  0  0  0
   59.8754   24.1938   45.9248 H   0  0  0  0  0  0  0  0  0  0  0  0
   56.2007   24.5276   46.6575 H   0  0  0  0  0  0  0  0  0  0  0  0
   54.9591   26.6596   46.3104 H   0  0  0  0  0  0  0  0  0  0  0  0
   56.6014   32.7664   43.6716 H   0  0  0  0  0  0  0  0  0  0  0  0
   58.0119   35.0128   44.1534 H   0  0  0  0  0  0  0  0  0  0  0  0
   59.8551   36.0583   45.5037 H   0  0  0  0  0  0  0  0  0  0  0  0
   61.0941   34.7061   47.2058 H   0  0  0  0  0  0  0  0  0  0  0  0
   60.5007   32.2883   47.5713 H   0  0  0  0  0  0  0  0  0  0  0  0
   58.4852   28.4253   44.5214 H   0  0  0  0  0  0  0  0  0  0  0  0
   59.7267   26.2899   44.8650 H   0  0  0  0  0  0  0  0  0  0  0  0
  1  2  1  0
  2  3  1  0
  3  4  2  0
  4  5  1  0
  5  6  2  0
  6  7  1  0
  7  8  1  0
  8  9  2  0
  8 10  1  0
 10 11  2  0
 11 12  1  0
 12 13  2  0
 13 14  1  0
 14 15  2  0
 15 16  1  0
 16 17  2  0
 17 18  1  0
  6 19  1  0
 19 20  2  0
 20  3  1  0
 18 10  1  0
 17 12  1  0
  1 21  1  0
  1 22  1  0
  1 23  1  0
  2 24  1  0
  2 25  1  0
  4 26  1  0
  5 27  1  0
 11 28  1  0
 13 29  1  0
 14 30  1  0
 15 31  1  0
 16 32  1  0
 19 33  1  0
 20 34  1  0
M  CHG  1   7  -1
M  END
>  <UniqueID>  (11) 
11

>  <SMILES>  (11) 
CCc1ccc([N-]C(=O)c2cc3ccccc3s2)cc1

>  <Energy>  (11) 
66.55087524636654

>  <Genealogy>  (11) 
CCc1ccc([N-]C(=O)c2cc3ccccc3s2)cc1 (protonated)
CCc1ccc([N-]C(=O)c2cc3ccccc3s2)cc1 (3D coordinates assigned)
CCc1ccc([N-]C(=O)c2cc3ccccc3s2)cc1 (optimized conformer: 66.55087524636654 kcal/mol)

>  <smiles>  (11) 
CCc1ccc(NC(=O)c2cc3ccccc3s2)cc1

>  <score_type>  (11) 
oracle

>  <origin>  (11) 
adg

>  <m_score__min__energy>  (11) 
-8.9000000000000004

>  <m_primary>  (11) 
energy

$$$$
11:0
     RDKit          3D

 25 26  0  0  0  0  0  0  0  0999 V2000
   57.4020   28.5920   43.5330 C   0  0  0  0  0  0  0  0  0  0  0  0
   56.8320   30.2510   43.8280 S   0  0  0  0  0  0  0  0  0  0  0  0
   55.5050   30.2090   44.5330 O   0  0  0  0  0  0  0  0  0  0  0  0
   56.6580   30.9630   42.5150 O   0  0  0  0  0  0  0  0  0  0  0  0
   58.0070   31.1060   44.8200 C   0  0  0  0  0  0  0  0  0  0  0  0
   57.9880   32.5000   44.8990 C   0  0  0  0  0  0  0  0  0  0  0  0
   58.9160   33.1660   45.6990 C   0  0  0  0  0  0  0  0  0  0  0  0
   59.8630   32.4280   46.4290 C   0  0  0  0  0  0  0  0  0  0  0  0
   60.8330   33.0980   47.2590 N   0  0  0  0  0  0  0  0  0  0  0  0
   62.1720   33.0760   47.1250 C   0  0  0  0  0  0  0  0  0  0  0  0
   62.7160   33.8500   48.1240 C   0  0  0  0  0  0  0  0  0  0  0  0
   61.7300   34.3560   48.8900 N   0  0  0  0  0  0  0  0  0  0  0  0
   60.5960   33.8800   48.3340 C   0  0  0  0  0  0  0  0  0  0  0  0
   59.8560   31.0630   46.3400 N   0  0  0  0  0  0  0  0  0  0  0  0
   58.9570   30.3990   45.5640 C   0  0  0  0  0  0  0  0  0  0  0  0
   57.5754   28.0874   44.4949 H   0  0  0  0  0  0  0  0  0  0  0  0
   56.6421   28.0395   42.9608 H   0  0  0  0  0  0  0  0  0  0  0  0
   58.3410   28.6232   42.9608 H   0  0  0  0  0  0  0  0  0  0  0  0
   57.2409   33.0729   44.3301 H   0  0  0  0  0  0  0  0  0  0  0  0
   58.9067   34.2644   45.7583 H   0  0  0  0  0  0  0  0  0  0  0  0
   62.7341   32.5332   46.3508 H   0  0  0  0  0  0  0  0  0  0  0  0
   63.7910   34.0283   48.2742 H   0  0  0  0  0  0  0  0  0  0  0  0
   59.5888   34.1046   48.7150 H   0  0  0  0  0  0  0  0  0  0  0  0
   60.5370   30.4960   46.8930 H   0  0  0  0  0  0  0  0  0  0  0  0
   58.9775   29.3000   45.5216 H   0  0  0  0  0  0  0  0  0  0  0  0
  1  2  1  0
  2  3  2  0
  2  4  2  0
  2  5  1  0
  5  6  2  0
  6  7  1  0
  7  8  2  0
  8  9  1  0
  9 10  1  0
 10 11  2  0
 11 12  1  0
 12 13  2  0
  8 14  1  0
 14 15  2  0
 15  5  1  0
 13  9  1  0
  1 16  1  0
  1 17  1  0
  1 18  1  0
  6 19  1  0
  7 20  1  0
 10 21  1  0
 11 22  1  0
 13 23  1  0
 14 24  1  0
 15 25  1  0
M  CHG  1  14   1
M  END
>  <UniqueID>  (12) 
12

>  <SMILES>  (12) 
CS(=O)(=O)c1ccc(-n2ccnc2)[nH+]c1

>  <Energy>  (12) 
54.97153564068686

>  <Genealogy>  (12) 
CS(=O)(=O)c1ccc(-n2ccnc2)[nH+]c1 (protonated)
CS(=O)(=O)c1ccc(-n2ccnc2)[nH+]c1 (3D coordinates assigned)
CS(=O)(=O)c1ccc(-n2ccnc2)[nH+]c1 (optimized conformer: 54.97153564068686 kcal/mol)

>  <smiles>  (12) 
CS(=O)(=O)c1ccc(-n2ccnc2)nc1

>  <score_type>  (12) 
oracle

>  <origin>  (12) 
adg

>  <m_score__min__energy>  (12) 
-4.0999999999999996

>  <m_primary>  (12) 
energy

$$$$
12:0
     RDKit          3D

 30 30  0  0  0  0  0  0  0  0999 V2000
   57.7430   22.4620   45.6280 C   0  0  0  0  0  0  0  0  0  0  0  0
   57.6240   23.5080   46.5860 O   0  0  0  0  0  0  0  0  0  0  0  0
   57.8890   24.8620   46.3230 C   0  0  0  0  0  0  0  0  0  0  0  0
   59.2000   25.3470   46.1550 C   0  0  0  0  0  0  0  0  0  0  0  0
   59.4240   26.7000   45.8940 C   0  0  0  0  0  0  0  0  0  0  0  0
   58.3470   27.5900   45.8000 C   0  0  0  0  0  0  0  0  0  0  0  0
   58.5820   29.0460   45.4970 C   0  0  0  0  0  0  0  0  0  0  0  0
   58.0800   29.3730   44.1650 N   0  0  0  0  0  0  0  0  0  0  0  0
   56.7130   29.7290   43.9230 C   0  0  0  0  0  0  0  0  0  0  0  0
   56.2690   30.0830   42.5410 C   0  0  0  0  0  0  0  0  0  0  0  0
   55.8730   29.7160   44.8640 O   0  0  0  0  0  0  0  0  0  0  0  0
   57.0390   27.1100   45.9620 C   0  0  0  0  0  0  0  0  0  0  0  0
   56.8040   25.7470   46.2250 C   0  0  0  0  0  0  0  0  0  0  0  0
   55.5070   25.2340   46.3930 O   0  0  0  0  0  0  0  0  0  0  0  0
   54.8350   24.4120   45.4450 C   0  0  0  0  0  0  0  0  0  0  0  0
   57.8526   21.4990   46.1483 H   0  0  0  0  0  0  0  0  0  0  0  0
   56.8418   22.4378   44.9977 H   0  0  0  0  0  0  0  0  0  0  0  0
   58.6266   22.6408   44.9977 H   0  0  0  0  0  0  0  0  0  0  0  0
   60.0526   24.6560   46.2298 H   0  0  0  0  0  0  0  0  0  0  0  0
   60.4518   27.0689   45.7615 H   0  0  0  0  0  0  0  0  0  0  0  0
   58.0584   29.6613   46.2435 H   0  0  0  0  0  0  0  0  0  0  0  0
   59.6624   29.2495   45.5326 H   0  0  0  0  0  0  0  0  0  0  0  0
   58.7450   29.3400   43.3600 H   0  0  0  0  0  0  0  0  0  0  0  0
   55.4100   30.7679   42.5960 H   0  0  0  0  0  0  0  0  0  0  0  0
   57.0950   30.5731   42.0048 H   0  0  0  0  0  0  0  0  0  0  0  0
   55.9752   29.1686   42.0048 H   0  0  0  0  0  0  0  0  0  0  0  0
   56.1896   27.8044   45.8829 H   0  0  0  0  0  0  0  0  0  0  0  0
   54.2247   23.6655   45.9744 H   0  0  0  0  0  0  0  0  0  0  0  0
   54.1851   25.0361   44.8140 H   0  0  0  0  0  0  0  0  0  0  0  0
   55.5758   23.8992   44.8140 H   0  0  0  0  0  0  0  0  0  0  0  0
  1  2  1  0
  2  3  1  0
  3  4  2  0
  4  5  1  0
  5  6  2  0
  6  7  1  0
  7  8  1  0
  8  9  1  0
  9 10  1  0
  9 11  2  0
  6 12  1  0
 12 13  2  0
 13 14  1  0
 14 15  1  0
 13  3  1  0
  1 16  1  0
  1 17  1  0
  1 18  1  0
  4 19  1  0
  5 20  1  0
  7 21  1  0
  7 22  1  0
  8 23  1  0
 10 24  1  0
 10 25  1  0
 10 26  1  0
 12 27  1  0
 15 28  1  0
 15 29  1  0
 15 30  1  0
M  END
>  <UniqueID>  (13) 
13

>  <SMILES>  (13) 
COc1ccc(CNC(C)=O)cc1OC

>  <Energy>  (13) 
22.322840407460784

>  <Genealogy>  (13) 
COc1ccc(CNC(C)=O)cc1OC (3D coordinates assigned)
COc1ccc(CNC(C)=O)cc1OC (optimized conformer: 22.322840407460784 kcal/mol)

>  <smiles>  (13) 
COc1ccc(CNC(C)=O)cc1OC

>  <score_type>  (13) 
oracle

>  <origin>  (13) 
adg

>  <m_score__min__energy>  (13) 
-5.6200000000000001

>  <m_primary>  (13) 
energy

$$$$
13:0
     RDKit          3D

 56 59  0  0  0  0  0  0  0  0999 V2000
   62.9700   33.5470   46.3790 C   0  0  0  0  0  0  0  0  0  0  0  0
   62.8370   33.9980   47.7740 N   0  0  0  0  0  0  0  0  0  0  0  0
   63.5780   33.1220   48.7040 C   0  0  0  0  0  0  0  0  0  0  0  0
   62.9300   31.7300   48.8080 C   0  0  0  0  0  0  0  0  0  0  0  0
   61.4670   31.8280   48.7530 N   0  0  0  0  0  0  0  0  0  0  0  0
   60.6840   30.7070   48.2970 C   0  0  0  0  0  0  0  0  0  0  0  0
   60.0000   29.9100   49.2100 C   0  0  0  0  0  0  0  0  0  0  0  0
   59.3010   28.7840   48.7720 C   0  0  0  0  0  0  0  0  0  0  0  0
   59.3000   28.3670   47.4210 C   0  0  0  0  0  0  0  0  0  0  0  0
   59.9760   29.2030   46.4630 C   0  0  0  0  0  0  0  0  0  0  0  0
   60.6510   30.3550   46.9440 C   0  0  0  0  0  0  0  0  0  0  0  0
   60.1050   29.0550   44.9470 C   0  0  0  0  0  0  0  0  0  0  0  0
   59.2700   28.0830   44.1070 C   0  0  0  0  0  0  0  0  0  0  0  0
   58.0940   27.4570   44.8420 C   0  0  2  0  0  0  0  0  0  0  0  0
   57.2210   28.4560   45.4910 N   0  0  0  0  0  0  0  0  0  0  0  0
   56.6020   29.7350   44.4780 S   0  0  0  0  0  0  0  0  0  0  0  0
   56.6890   29.3430   43.0310 O   0  0  0  0  0  0  0  0  0  0  0  0
   55.1460   29.9300   44.8090 O   0  0  0  0  0  0  0  0  0  0  0  0
   57.4350   31.2640   44.7410 C   0  0  0  0  0  0  0  0  0  0  0  0
   57.7660   32.0780   43.6480 C   0  0  0  0  0  0  0  0  0  0  0  0
   58.4190   33.2960   43.8510 C   0  0  0  0  0  0  0  0  0  0  0  0
   58.7360   33.7090   45.1460 C   0  0  0  0  0  0  0  0  0  0  0  0
   59.3660   34.8930   45.3460 F   0  0  0  0  0  0  0  0  0  0  0  0
   58.4180   32.8990   46.2380 C   0  0  0  0  0  0  0  0  0  0  0  0
   57.7650   31.6780   46.0380 C   0  0  0  0  0  0  0  0  0  0  0  0
   58.6040   26.4090   45.8280 C   0  0  0  0  0  0  0  0  0  0  0  0
   58.7290   26.9710   47.2310 C   0  0  0  0  0  0  0  0  0  0  0  0
   60.8450   33.1150   49.0670 C   0  0  0  0  0  0  0  0  0  0  0  0
   61.4200   34.2170   48.1640 C   0  0  0  0  0  0  0  0  0  0  0  0
   63.2811   32.4920   46.3628 H   0  0  0  0  0  0  0  0  0  0  0  0
   62.0027   33.6519   45.8659 H   0  0  0  0  0  0  0  0  0  0  0  0
   63.7256   34.1600   45.8659 H   0  0  0  0  0  0  0  0  0  0  0  0
   64.6106   33.0090   48.3420 H   0  0  0  0  0  0  0  0  0  0  0  0
   63.5602   33.5854   49.7015 H   0  0  0  0  0  0  0  0  0  0  0  0
   63.2808   31.1061   47.9727 H   0  0  0  0  0  0  0  0  0  0  0  0
   63.2162   31.2802   49.7702 H   0  0  0  0  0  0  0  0  0  0  0  0
   60.0102   30.1680   50.2793 H   0  0  0  0  0  0  0  0  0  0  0  0
   58.7287   28.1983   49.5064 H   0  0  0  0  0  0  0  0  0  0  0  0
   61.1714   30.9997   46.2204 H   0  0  0  0  0  0  0  0  0  0  0  0
   59.9066   30.0542   44.5319 H   0  0  0  0  0  0  0  0  0  0  0  0
   61.1024   28.5983   44.8655 H   0  0  0  0  0  0  0  0  0  0  0  0
   58.8783   28.6308   43.2372 H   0  0  0  0  0  0  0  0  0  0  0  0
   59.9402   27.2556   43.8309 H   0  0  0  0  0  0  0  0  0  0  0  0
   57.4555   26.9603   44.0966 H   0  0  0  0  0  0  0  0  0  0  0  0
   57.5106   31.7563   42.6276 H   0  0  0  0  0  0  0  0  0  0  0  0
   58.6831   33.9291   42.9911 H   0  0  0  0  0  0  0  0  0  0  0  0
   58.6811   33.2212   47.2563 H   0  0  0  0  0  0  0  0  0  0  0  0
   57.5106   31.0429   46.8994 H   0  0  0  0  0  0  0  0  0  0  0  0
   57.9009   25.5632   45.8443 H   0  0  0  0  0  0  0  0  0  0  0  0
   59.6025   26.0860   45.4983 H   0  0  0  0  0  0  0  0  0  0  0  0
   57.7192   26.9743   47.6673 H   0  0  0  0  0  0  0  0  0  0  0  0
   59.4716   26.3164   47.7106 H   0  0  0  0  0  0  0  0  0  0  0  0
   59.7593   33.0428   48.9056 H   0  0  0  0  0  0  0  0  0  0  0  0
   61.0528   33.3671   50.1174 H   0  0  0  0  0  0  0  0  0  0  0  0
   60.8125   34.2664   47.2483 H   0  0  0  0  0  0  0  0  0  0  0  0
   61.3891   35.1521   48.7425 H   0  0  0  0  0  0  0  0  0  0  0  0
  1  2  1  0
  2  3  1  0
  3  4  1  0
  4  5  1  0
  5  6  1  0
  6  7  2  0
  7  8  1  0
  8  9  2  0
  9 10  1  0
 10 11  2  0
 10 12  1  0
 12 13  1  0
 13 14  1  0
 14 15  1  0
 15 16  1  0
 16 17  2  0
 16 18  2  0
 16 19  1  0
 19 20  2  0
 20 21  1  0
 21 22  2  0
 22 23  1  0
 22 24  1  0
 24 25  2  0
 14 26  1  0
 26 27  1  0
  5 28  1  0
 28 29  1  0
 29  2  1  0
 11  6  1  0
 25 19  1  0
 27  9  1  0
  1 30  1  0
  1 31  1  0
  1 32  1  0
  3 33  1  0
  3 34  1  0
  4 35  1  0
  4 36  1  0
  7 37  1  0
  8 38  1  0
 11 39  1  0
 12 40  1  0
 12 41  1  0
 13 42  1  0
 13 43  1  0
 14 44  1  6
 20 45  1  0
 21 46  1  0
 24 47  1  0
 25 48  1  0
 26 49  1  0
 26 50  1  0
 27 51  1  0
 27 52  1  0
 28 53  1  0
 28 54  1  0
 29 55  1  0
 29 56  1  0
M  CHG  1  15  -1
M  END
>  <UniqueID>  (14) 
14

>  <SMILES>  (14) 
CN1CCN(c2ccc3c(c2)CC[C@H]([N-]S(=O)(=O)c2ccc(F)cc2)CC3)CC1

>  <Energy>  (14) 
99.42514540837041

>  <Genealogy>  (14) 
CN1CCN(c2ccc3c(c2)CCC([N-]S(=O)(=O)c2ccc(F)cc2)CC3)CC1 (protonated)
CN1CCN(c2ccc3c(c2)CC[C@H]([N-]S(=O)(=O)c2ccc(F)cc2)CC3)CC1 (chirality)
CN1CCN(c2ccc3c(c2)CC[C@H]([N-]S(=O)(=O)c2ccc(F)cc2)CC3)CC1 (3D coordinates assigned)
CN1CCN(c2ccc3c(c2)CC[C@H]([N-]S(=O)(=O)c2ccc(F)cc2)CC3)CC1 (nonaromatic ring conformer: 99.42514540837041 kcal/mol)

>  <smiles>  (14) 
CN1CCN(c2ccc3c(c2)CCC(NS(=O)(=O)c2ccc(F)cc2)CC3)CC1

>  <score_type>  (14) 
oracle

>  <origin>  (14) 
adg

>  <m_score__min__energy>  (14) 
-9.3200000000000003

>  <m_primary>  (14) 
energy

$$$$
14:0
     RDKit          3D

 26 28  0  0  0  0  0  0  0  0999 V2000
   57.7780   26.5540   44.4000 N   0  0  0  0  0  0  0  0  0  0  0  0
   57.9380   27.7810   44.7600 C   0  0  0  0  0  0  0  0  0  0  0  0
   56.9140   28.6180   44.5280 N   0  0  0  0  0  0  0  0  0  0  0  0
   57.0010   29.9230   44.8760 C   0  0  0  0  0  0  0  0  0  0  0  0
   55.9850   30.6490   44.6210 N   0  0  0  0  0  0  0  0  0  0  0  0
   58.1600   30.3510   45.4670 C   0  0  0  0  0  0  0  0  0  0  0  0
   59.1990   29.4760   45.6960 C   0  0  0  0  0  0  0  0  0  0  0  0
   60.3890   29.8260   46.2820 C   0  0  0  0  0  0  0  0  0  0  0  0
   60.5500   31.1360   46.6630 C   0  0  0  0  0  0  0  0  0  0  0  0
   59.5070   32.0230   46.4340 C   0  0  0  0  0  0  0  0  0  0  0  0
   59.7510   33.3330   46.8500 C   0  0  0  0  0  0  0  0  0  0  0  0
   58.7440   34.2330   46.6400 C   0  0  0  0  0  0  0  0  0  0  0  0
   57.5480   33.9270   46.0620 C   0  0  0  0  0  0  0  0  0  0  0  0
   57.3430   32.5950   45.6590 C   0  0  0  0  0  0  0  0  0  0  0  0
   58.3200   31.6480   45.8440 C   0  0  0  0  0  0  0  0  0  0  0  0
   59.0700   28.1770   45.3320 N   0  0  0  0  0  0  0  0  0  0  0  0
   57.0070   26.3260   43.7410 H   0  0  0  0  0  0  0  0  0  0  0  0
   56.0380   28.2310   44.0670 H   0  0  0  0  0  0  0  0  0  0  0  0
   55.1630   30.6110   45.2440 H   0  0  0  0  0  0  0  0  0  0  0  0
   61.1856   29.0843   46.4411 H   0  0  0  0  0  0  0  0  0  0  0  0
   61.4828   31.4739   47.1380 H   0  0  0  0  0  0  0  0  0  0  0  0
   60.7013   33.6249   47.3209 H   0  0  0  0  0  0  0  0  0  0  0  0
   58.9096   35.2728   46.9584 H   0  0  0  0  0  0  0  0  0  0  0  0
   56.7722   34.6931   45.9162 H   0  0  0  0  0  0  0  0  0  0  0  0
   56.3897   32.3089   45.1906 H   0  0  0  0  0  0  0  0  0  0  0  0
   59.8410   27.5010   45.4960 H   0  0  0  0  0  0  0  0  0  0  0  0
  1  2  2  3
  2  3  1  0
  3  4  1  0
  4  5  2  3
  4  6  1  0
  6  7  2  0
  7  8  1  0
  8  9  2  0
  9 10  1  0
 10 11  2  0
 11 12  1  0
 12 13  2  0
 13 14  1  0
 14 15  2  0
  7 16  1  0
 16  2  1  0
 15  6  1  0
 15 10  1  0
  1 17  1  0
  3 18  1  0
  5 19  1  0
  8 20  1  0
  9 21  1  0
 11 22  1  0
 12 23  1  0
 13 24  1  0
 14 25  1  0
 16 26  1  0
M  END
>  <smiles>  (15) 
N=c1[nH]c(=N)c2c(ccc3ccccc32)[nH]1

>  <score_type>  (15) 
oracle

>  <origin>  (15) 
adg

>  <m_score__min__energy>  (15) 
-6.5199999999999996

>  <m_primary>  (15) 
energy

$$$$
15:0
     RDKit          3D

 43 45  0  0  0  0  0  0  0  0999 V2000
   58.2870   22.2730   44.4850 C   0  0  0  0  0  0  0  0  0  0  0  0
   59.0830   23.2990   45.2880 C   0  0  0  0  0  0  0  0  0  0  0  0
   58.1980   24.0820   46.1530 N   0  0  0  0  0  0  0  0  0  0  0  0
   58.0320   25.5120   46.0590 C   0  0  0  0  0  0  0  0  0  0  0  0
   59.1580   26.3550   45.9980 C   0  0  0  0  0  0  0  0  0  0  0  0
   59.0090   27.7310   45.8160 C   0  0  0  0  0  0  0  0  0  0  0  0
   57.7340   28.2950   45.6820 C   0  0  0  0  0  0  0  0  0  0  0  0
   57.5900   29.7500   45.4830 C   0  0  0  0  0  0  0  0  0  0  0  0
   56.5650   30.3380   44.8360 N   0  0  0  0  0  0  0  0  0  0  0  0
   56.8010   31.6390   44.8730 N   0  0  0  0  0  0  0  0  0  0  0  0
   57.9630   31.8030   45.5370 C   0  0  0  0  0  0  0  0  0  0  0  0
   58.5830   33.1250   45.8170 C   0  0  0  0  0  0  0  0  0  0  0  0
   58.7280   34.0260   44.7430 C   0  0  0  0  0  0  0  0  0  0  0  0
   59.2670   35.2960   44.9410 C   0  0  0  0  0  0  0  0  0  0  0  0
   59.6710   35.6940   46.2130 C   0  0  0  0  0  0  0  0  0  0  0  0
   59.5490   34.8170   47.2900 C   0  0  0  0  0  0  0  0  0  0  0  0
   59.0240   33.5230   47.1130 C   0  0  0  0  0  0  0  0  0  0  0  0
   58.9510   32.6250   48.3280 C   0  0  0  0  0  0  0  0  0  0  0  0
   59.6120   33.2810   49.5380 C   0  0  0  0  0  0  0  0  0  0  0  0
   58.4460   30.6440   45.9150 O   0  0  0  0  0  0  0  0  0  0  0  0
   56.6060   27.4640   45.7490 C   0  0  0  0  0  0  0  0  0  0  0  0
   56.7400   26.0780   45.9490 C   0  0  0  0  0  0  0  0  0  0  0  0
   55.5580   25.2710   46.0840 N   0  0  0  0  0  0  0  0  0  0  0  0
   54.4640   25.6790   45.6420 O   0  0  0  0  0  0  0  0  0  0  0  0
   55.5760   24.1400   46.8670 O   0  0  0  0  0  0  0  0  0  0  0  0
   57.7615   21.5957   45.1742 H   0  0  0  0  0  0  0  0  0  0  0  0
   57.5534   22.7926   43.8511 H   0  0  0  0  0  0  0  0  0  0  0  0
   58.9726   21.6915   43.8511 H   0  0  0  0  0  0  0  0  0  0  0  0
   59.8236   22.7746   45.9097 H   0  0  0  0  0  0  0  0  0  0  0  0
   59.5861   23.9818   44.5875 H   0  0  0  0  0  0  0  0  0  0  0  0
   57.6610   23.5600   46.8810 H   0  0  0  0  0  0  0  0  0  0  0  0
   60.1658   25.9248   46.0948 H   0  0  0  0  0  0  0  0  0  0  0  0
   59.8988   28.3766   45.7776 H   0  0  0  0  0  0  0  0  0  0  0  0
   58.4113   33.7226   43.7342 H   0  0  0  0  0  0  0  0  0  0  0  0
   59.3735   35.9856   44.0906 H   0  0  0  0  0  0  0  0  0  0  0  0
   60.0865   36.7006   46.3680 H   0  0  0  0  0  0  0  0  0  0  0  0
   59.8674   35.1408   48.2919 H   0  0  0  0  0  0  0  0  0  0  0  0
   57.8954   32.4220   48.5616 H   0  0  0  0  0  0  0  0  0  0  0  0
   59.4845   31.6897   48.1032 H   0  0  0  0  0  0  0  0  0  0  0  0
   59.1874   32.8596   50.4611 H   0  0  0  0  0  0  0  0  0  0  0  0
   60.6951   33.0905   49.5123 H   0  0  0  0  0  0  0  0  0  0  0  0
   59.4297   34.3655   49.5123 H   0  0  0  0  0  0  0  0  0  0  0  0
   55.6026   27.9022   45.6437 H   0  0  0  0  0  0  0  0  0  0  0  0
  1  2  1  0
  2  3  1  0
  3  4  1  0
  4  5  2  0
  5  6  1  0
  6  7  2  0
  7  8  1  0
  8  9  2  0
  9 10  1  0
 10 11  2  0
 11 12  1  0
 12 13  2  0
 13 14  1  0
 14 15  2  0
 15 16  1  0
 16 17  2  0
 17 18  1  0
 18 19  1  0
 11 20  1  0
  7 21  1  0
 21 22  2  0
 22 23  1  0
 23 24  2  0
 23 25  1  0
 22  4  1  0
 20  8  1  0
 17 12  1  0
  1 26  1  0
  1 27  1  0
  1 28  1  0
  2 29  1  0
  2 30  1  0
  3 31  1  0
  5 32  1  0
  6 33  1  0
 13 34  1  0
 14 35  1  0
 15 36  1  0
 16 37  1  0
 18 38  1  0
 18 39  1  0
 19 40  1  0
 19 41  1  0
 19 42  1  0
 21 43  1  0
M  CHG  2  23   1  25  -1
M  END
>  <UniqueID>  (16) 
15

>  <SMILES>  (16) 
CCNc1ccc(-c2nnc(-c3ccccc3CC)o2)cc1[N+](=O)[O-]

>  <Energy>  (16) 
83.84767150992685

>  <Genealogy>  (16) 
CCNc1ccc(-c2nnc(-c3ccccc3CC)o2)cc1[N+](=O)[O-] (3D coordinates assigned)
CCNc1ccc(-c2nnc(-c3ccccc3CC)o2)cc1[N+](=O)[O-] (optimized conformer: 83.84767150992685 kcal/mol)

>  <smiles>  (16) 
CCNc1ccc(-c2nnc(-c3ccccc3CC)o2)cc1[N+](=O)[O-]

>  <score_type>  (16) 
oracle

>  <origin>  (16) 
adg

>  <m_score__min__energy>  (16) 
-8.6899999999999995

>  <m_primary>  (16) 
energy

$$$$
16:0
     RDKit          3D

 57 60  0  0  0  0  0  0  0  0999 V2000
   63.7380   33.3730   46.7500 C   0  0  0  0  0  0  0  0  0  0  0  0
   63.0220   32.7850   47.8940 N   0  0  0  0  0  0  0  0  0  0  0  0
   63.4270   33.4390   49.1470 C   0  0  0  0  0  0  0  0  0  0  0  0
   61.5890   32.9050   47.7150 C   0  0  0  0  0  0  0  0  0  0  0  0
   61.0400   34.0390   47.8120 O   0  0  0  0  0  0  0  0  0  0  0  0
   60.7340   31.7210   47.4340 C   0  0  0  0  0  0  0  0  0  0  0  0
   59.6720   31.8340   46.5230 C   0  0  0  0  0  0  0  0  0  0  0  0
   58.8500   30.7360   46.2130 C   0  0  0  0  0  0  0  0  0  0  0  0
   57.6960   30.8940   45.2260 C   0  0  1  0  0  0  0  0  0  0  0  0
   58.1670   31.6850   43.9890 C   0  0  0  0  0  0  0  0  0  0  0  0
   57.1210   31.5920   42.8690 C   0  0  0  0  0  0  0  0  0  0  0  0
   56.8320   30.2050   42.4450 N   0  0  0  0  0  0  0  0  0  0  0  0
   57.3090   29.1640   43.3750 C   0  0  0  0  0  0  0  0  0  0  0  0
   57.0350   29.5330   44.8450 C   0  0  2  0  0  0  0  0  0  0  0  0
   55.6450   29.6130   45.0510 O   0  0  0  0  0  0  0  0  0  0  0  0
   59.0710   29.5110   46.8800 C   0  0  0  0  0  0  0  0  0  0  0  0
   58.2830   28.4660   46.6320 O   0  0  0  0  0  0  0  0  0  0  0  0
   58.4110   27.2810   47.2290 C   0  0  0  0  0  0  0  0  0  0  0  0
   57.4950   26.2150   46.8790 N   0  0  0  0  0  0  0  0  0  0  0  0
   56.7240   26.2590   45.6250 C   0  0  0  0  0  0  0  0  0  0  0  0
   55.5560   25.2640   45.6250 C   0  0  0  0  0  0  0  0  0  0  0  0
   55.9520   24.0030   46.1230 O   0  0  0  0  0  0  0  0  0  0  0  0
   56.2890   24.1360   47.4860 C   0  0  0  0  0  0  0  0  0  0  0  0
   57.5700   24.9590   47.6370 C   0  0  0  0  0  0  0  0  0  0  0  0
   59.4250   27.1060   48.1890 C   0  0  0  0  0  0  0  0  0  0  0  0
   60.2840   28.1660   48.4810 C   0  0  0  0  0  0  0  0  0  0  0  0
   61.1950   28.0060   49.3390 O   0  0  0  0  0  0  0  0  0  0  0  0
   60.1180   29.3940   47.8200 C   0  0  0  0  0  0  0  0  0  0  0  0
   60.9470   30.4960   48.0840 C   0  0  0  0  0  0  0  0  0  0  0  0
   64.5392   34.0309   47.1178 H   0  0  0  0  0  0  0  0  0  0  0  0
   64.1749   32.5696   46.1387 H   0  0  0  0  0  0  0  0  0  0  0  0
   63.0349   33.9578   46.1387 H   0  0  0  0  0  0  0  0  0  0  0  0
   63.3000   31.7770   47.9370 H   0  0  0  0  0  0  0  0  0  0  0  0
   63.0627   32.8507   50.0021 H   0  0  0  0  0  0  0  0  0  0  0  0
   64.5242   33.5049   49.1882 H   0  0  0  0  0  0  0  0  0  0  0  0
   62.9971   34.4507   49.1882 H   0  0  0  0  0  0  0  0  0  0  0  0
   59.4784   32.8035   46.0407 H   0  0  0  0  0  0  0  0  0  0  0  0
   56.9022   31.4701   45.7239 H   0  0  0  0  0  0  0  0  0  0  0  0
   58.3102   32.7400   44.2655 H   0  0  0  0  0  0  0  0  0  0  0  0
   59.1152   31.2582   43.6303 H   0  0  0  0  0  0  0  0  0  0  0  0
   56.1864   32.0485   43.2268 H   0  0  0  0  0  0  0  0  0  0  0  0
   57.5346   32.1176   41.9957 H   0  0  0  0  0  0  0  0  0  0  0  0
   57.2870   30.0380   41.5170 H   0  0  0  0  0  0  0  0  0  0  0  0
   56.7948   28.2193   43.1444 H   0  0  0  0  0  0  0  0  0  0  0  0
   58.3971   29.0669   43.2466 H   0  0  0  0  0  0  0  0  0  0  0  0
   57.4724   28.7517   45.4839 H   0  0  0  0  0  0  0  0  0  0  0  0
   55.4990   29.7000   46.0300 H   0  0  0  0  0  0  0  0  0  0  0  0
   56.3235   27.2748   45.4913 H   0  0  0  0  0  0  0  0  0  0  0  0
   57.4014   25.9832   44.8034 H   0  0  0  0  0  0  0  0  0  0  0  0
   54.7481   25.6607   46.2574 H   0  0  0  0  0  0  0  0  0  0  0  0
   55.2126   25.1339   44.5881 H   0  0  0  0  0  0  0  0  0  0  0  0
   55.4680   24.6417   48.0154 H   0  0  0  0  0  0  0  0  0  0  0  0
   56.4530   23.1360   47.9139 H   0  0  0  0  0  0  0  0  0  0  0  0
   57.7217   25.1922   48.7012 H   0  0  0  0  0  0  0  0  0  0  0  0
   58.4091   24.3672   47.2425 H   0  0  0  0  0  0  0  0  0  0  0  0
   59.5394   26.1413   48.7050 H   0  0  0  0  0  0  0  0  0  0  0  0
   61.7705   30.3981   48.8066 H   0  0  0  0  0  0  0  0  0  0  0  0
  1  2  1  0
  2  3  1  0
  2  4  1  0
  4  5  2  0
  4  6  1  0
  6  7  2  0
  7  8  1  0
  8  9  1  0
  9 10  1  0
 10 11  1  0
 11 12  1  0
 12 13  1  0
 13 14  1  0
 14 15  1  0
  8 16  2  0
 16 17  1  0
 17 18  1  0
 18 19  1  0
 19 20  1  0
 20 21  1  0
 21 22  1  0
 22 23  1  0
 23 24  1  0
 18 25  2  0
 25 26  1  0
 26 27  2  0
 26 28  1  0
 28 29  2  0
 29  6  1  0
 14  9  1  0
 28 16  1  0
 24 19  1  0
  1 30  1  0
  1 31  1  0
  1 32  1  0
  2 33  1  0
  3 34  1  0
  3 35  1  0
  3 36  1  0
  7 37  1  0
  9 38  1  1
 10 39  1  0
 10 40  1  0
 11 41  1  0
 11 42  1  0
 12 43  1  0
 13 44  1  0
 13 45  1  0
 14 46  1  1
 15 47  1  0
 20 48  1  0
 20 49  1  0
 21 50  1  0
 21 51  1  0
 23 52  1  0
 23 53  1  0
 24 54  1  0
 24 55  1  0
 25 56  1  0
 29 57  1  0
M  CHG  1   2   1
M  END
>  <UniqueID>  (17) 
16

>  <SMILES>  (17) 
C[NH+](C)C(=O)c1cc([C@H]2CCNC[C@@H]2O)c2oc(N3CCOCC3)cc(=O)c2c1

>  <Energy>  (17) 
80.46933570472684

>  <Genealogy>  (17) 
C[NH+](C)C(=O)c1cc(C2CCNCC2O)c2oc(N3CCOCC3)cc(=O)c2c1 (protonated)
C[NH+](C)C(=O)c1cc([C@H]2CCNC[C@@H]2O)c2oc(N3CCOCC3)cc(=O)c2c1 (chirality)
C[NH+](C)C(=O)c1cc([C@H]2CCNC[C@@H]2O)c2oc(N3CCOCC3)cc(=O)c2c1 (3D coordinates assigned)
C[NH+](C)C(=O)c1cc([C@H]2CCNC[C@@H]2O)c2oc(N3CCOCC3)cc(=O)c2c1 (nonaromatic ring conformer: 80.46933570472684 kcal/mol)

>  <smiles>  (17) 
CN(C)C(=O)c1cc(C2CCNCC2O)c2oc(N3CCOCC3)cc(=O)c2c1

>  <score_type>  (17) 
oracle

>  <origin>  (17) 
adg

>  <m_score__min__energy>  (17) 
-6.8399999999999999

>  <m_primary>  (17) 
energy

$$$$
17:0
     RDKit          3D

 33 34  0  0  0  0  0  0  0  0999 V2000
   61.6890   31.2440   47.4070 C   0  0  0  0  0  0  0  0  0  0  0  0
   60.3980   30.4320   47.4330 C   0  0  0  0  0  0  0  0  0  0  0  0
   59.3460   31.1010   46.6500 N   0  0  0  0  0  0  0  0  0  0  0  0
   59.4030   32.5580   46.4490 C   0  0  0  0  0  0  0  0  0  0  0  0
   58.2300   33.2460   47.1410 C   0  0  0  0  0  0  0  0  0  0  0  0
   58.3040   30.3230   46.0210 C   0  0  0  0  0  0  0  0  0  0  0  0
   58.2480   28.9760   46.2000 N   0  0  0  0  0  0  0  0  0  0  0  0
   57.2710   28.2310   45.6180 C   0  0  0  0  0  0  0  0  0  0  0  0
   57.2380   26.7550   45.8220 C   0  0  0  0  0  0  0  0  0  0  0  0
   58.4480   26.0300   45.8390 C   0  0  0  0  0  0  0  0  0  0  0  0
   58.4480   24.6450   46.0260 C   0  0  0  0  0  0  0  0  0  0  0  0
   57.2460   23.9610   46.1970 C   0  0  0  0  0  0  0  0  0  0  0  0
   56.0390   24.6600   46.1840 C   0  0  0  0  0  0  0  0  0  0  0  0
   56.0230   26.0470   46.0000 C   0  0  0  0  0  0  0  0  0  0  0  0
   54.7960   26.7010   46.0030 O   0  0  0  0  0  0  0  0  0  0  0  0
   56.3400   28.8530   44.8460 N   0  0  0  0  0  0  0  0  0  0  0  0
   56.3840   30.1960   44.6640 C   0  0  0  0  0  0  0  0  0  0  0  0
   55.5150   30.7620   43.9500 O   0  0  0  0  0  0  0  0  0  0  0  0
   57.3620   30.9280   45.2490 N   0  0  0  0  0  0  0  0  0  0  0  0
   62.0143   31.4486   48.4377 H   0  0  0  0  0  0  0  0  0  0  0  0
   62.4700   30.6742   46.8823 H   0  0  0  0  0  0  0  0  0  0  0  0
   61.5137   32.1948   46.8823 H   0  0  0  0  0  0  0  0  0  0  0  0
   60.5888   29.4368   47.0050 H   0  0  0  0  0  0  0  0  0  0  0  0
   60.0588   30.3408   48.4754 H   0  0  0  0  0  0  0  0  0  0  0  0
   60.3448   32.9433   46.8669 H   0  0  0  0  0  0  0  0  0  0  0  0
   59.3489   32.7678   45.3706 H   0  0  0  0  0  0  0  0  0  0  0  0
   58.3538   33.1734   48.2316 H   0  0  0  0  0  0  0  0  0  0  0  0
   58.1997   34.3050   46.8451 H   0  0  0  0  0  0  0  0  0  0  0  0
   57.2909   32.7556   46.8451 H   0  0  0  0  0  0  0  0  0  0  0  0
   59.4020   26.5606   45.7036 H   0  0  0  0  0  0  0  0  0  0  0  0
   59.3995   24.0932   46.0382 H   0  0  0  0  0  0  0  0  0  0  0  0
   57.2490   22.8706   46.3421 H   0  0  0  0  0  0  0  0  0  0  0  0
   55.0923   24.1166   46.3195 H   0  0  0  0  0  0  0  0  0  0  0  0
  1  2  1  0
  2  3  1  0
  3  4  1  0
  4  5  1  0
  3  6  1  0
  6  7  2  0
  7  8  1  0
  8  9  1  0
  9 10  2  0
 10 11  1  0
 11 12  2  0
 12 13  1  0
 13 14  2  0
 14 15  1  0
  8 16  2  0
 16 17  1  0
 17 18  2  0
 17 19  1  0
 19  6  1  0
 14  9  1  0
  1 20  1  0
  1 21  1  0
  1 22  1  0
  2 23  1  0
  2 24  1  0
  4 25  1  0
  4 26  1  0
  5 27  1  0
  5 28  1  0
  5 29  1  0
 10 30  1  0
 11 31  1  0
 12 32  1  0
 13 33  1  0
M  CHG  2  15  -1  19  -1
M  END
>  <UniqueID>  (18) 
17

>  <SMILES>  (18) 
CCN(CC)c1nc(-c2ccccc2[O-])nc(=O)[n-]1

>  <Energy>  (18) 
30.401771428543665

>  <Genealogy>  (18) 
CCN(CC)c1nc(-c2ccccc2[O-])nc(=O)[n-]1 (protonated)
CCN(CC)c1nc(-c2ccccc2[O-])nc(=O)[n-]1 (3D coordinates assigned)
CCN(CC)c1nc(-c2ccccc2[O-])nc(=O)[n-]1 (optimized conformer: 30.401771428543665 kcal/mol)

>  <smiles>  (18) 
CCN(CC)c1nc(-c2ccccc2O)nc(=O)[nH]1

>  <score_type>  (18) 
oracle

>  <origin>  (18) 
adg

>  <m_score__min__energy>  (18) 
-11.58

>  <m_primary>  (18) 
energy

$$$$
18:0
     RDKit          3D

 44 47  0  0  1  0  0  0  0  0999 V2000
   58.0960   32.3860   42.7450 C   0  0  0  0  0  0  0  0  0  0  0  0
   58.0130   32.9450   44.1100 C   0  0  0  0  0  0  0  0  0  0  0  0
   56.9380   32.5810   44.8990 C   0  0  0  0  0  0  0  0  0  0  0  0
   56.8860   33.1180   46.1650 C   0  0  0  0  0  0  0  0  0  0  0  0
   57.8700   33.9750   46.6060 C   0  0  0  0  0  0  0  0  0  0  0  0
   58.9540   34.3420   45.8130 C   0  0  0  0  0  0  0  0  0  0  0  0
   59.9160   35.2890   46.4050 C   0  0  0  0  0  0  0  0  0  0  0  0
   60.6450   34.8120   47.5290 N   0  0  0  0  0  0  0  0  0  0  0  0
   61.5900   33.7930   47.6200 C   0  0  0  0  0  0  0  0  0  0  0  0
   62.9510   33.9500   47.7480 C   0  0  0  0  0  0  0  0  0  0  0  0
   63.8400   32.9010   47.8520 C   0  0  0  0  0  0  0  0  0  0  0  0
   63.3720   31.6090   47.8290 C   0  0  0  0  0  0  0  0  0  0  0  0
   62.0440   31.4380   47.7040 N   0  0  0  0  0  0  0  0  0  0  0  0
   61.3750   30.2960   47.6600 N   0  0  0  0  0  0  0  0  0  0  0  0
   60.0710   30.5530   47.5300 C   0  0  0  0  0  0  0  0  0  0  0  0
   59.1310   29.6490   47.4550 N   0  0  0  0  0  0  0  0  0  0  0  0
   58.6380   29.1950   46.2000 C   0  0  0  0  0  0  0  0  0  0  0  0
   59.4040   28.2520   45.5350 C   0  0  0  0  0  0  0  0  0  0  0  0
   58.9880   27.7670   44.3130 C   0  0  0  0  0  0  0  0  0  0  0  0
   57.8070   28.2060   43.7260 C   0  0  0  0  0  0  0  0  0  0  0  0
   57.0740   29.1440   44.4200 C   0  0  0  0  0  0  0  0  0  0  0  0
   55.5770   29.7030   43.6790 Cl  0  0  0  0  0  0  0  0  0  0  0  0
   57.4600   29.6520   45.6440 C   0  0  0  0  0  0  0  0  0  0  0  0
   59.9450   31.8890   47.4940 N   0  0  0  0  0  0  0  0  0  0  0  0
   61.1650   32.4450   47.6020 C   0  0  0  0  0  0  0  0  0  0  0  0
   59.0020   33.8090   44.5580 C   0  0  0  0  0  0  0  0  0  0  0  0
   58.2573   31.2994   42.8029 H   0  0  0  0  0  0  0  0  0  0  0  0
   57.1578   32.5893   42.2079 H   0  0  0  0  0  0  0  0  0  0  0  0
   58.9346   32.8531   42.2079 H   0  0  0  0  0  0  0  0  0  0  0  0
   56.1607   31.8945   44.5322 H   0  0  0  0  0  0  0  0  0  0  0  0
   56.0499   32.8601   46.8317 H   0  0  0  0  0  0  0  0  0  0  0  0
   57.7966   34.3853   47.6240 H   0  0  0  0  0  0  0  0  0  0  0  0
   60.6412   35.5646   45.6251 H   0  0  0  0  0  0  0  0  0  0  0  0
   59.3144   36.1318   46.7760 H   0  0  0  0  0  0  0  0  0  0  0  0
   60.4290   35.3260   48.4560 H   0  0  0  0  0  0  0  0  0  0  0  0
   63.3539   34.9734   47.7686 H   0  0  0  0  0  0  0  0  0  0  0  0
   64.9177   33.0972   47.9528 H   0  0  0  0  0  0  0  0  0  0  0  0
   64.0552   30.7506   47.9095 H   0  0  0  0  0  0  0  0  0  0  0  0
   61.7640   29.3320   47.7150 H   0  0  0  0  0  0  0  0  0  0  0  0
   60.3424   27.8906   45.9808 H   0  0  0  0  0  0  0  0  0  0  0  0
   59.6029   27.0180   43.7925 H   0  0  0  0  0  0  0  0  0  0  0  0
   57.4725   27.8218   42.7511 H   0  0  0  0  0  0  0  0  0  0  0  0
   56.8448   30.4017   46.1631 H   0  0  0  0  0  0  0  0  0  0  0  0
   59.8375   34.0682   43.8911 H   0  0  0  0  0  0  0  0  0  0  0  0
  1  2  1  0
  2  3  2  0
  3  4  1  0
  4  5  2  0
  5  6  1  0
  6  7  1  0
  7  8  1  0
  8  9  1  0
  9 10  2  0
 10 11  1  0
 11 12  2  0
 12 13  1  0
 13 14  1  0
 14 15  1  0
 15 16  2  0
 16 17  1  0
 17 18  2  0
 18 19  1  0
 19 20  2  0
 20 21  1  0
 21 22  1  0
 21 23  2  0
 15 24  1  0
 24 25  2  0
  6 26  2  0
 26  2  1  0
 25  9  1  0
 25 13  1  0
 23 17  1  0
  1 27  1  0
  1 28  1  0
  1 29  1  0
  3 30  1  0
  4 31  1  0
  5 32  1  0
  7 33  1  0
  7 34  1  0
  8 35  1  0
 10 36  1  0
 11 37  1  0
 12 38  1  0
 14 39  1  0
 18 40  1  0
 19 41  1  0
 20 42  1  0
 23 43  1  0
 26 44  1  0
M  END
>  <smiles>  (19) 
Cc1cccc(CNc2cccn3[nH]c(=Nc4cccc(Cl)c4)nc23)c1

>  <score_type>  (19) 
oracle

>  <origin>  (19) 
adg

>  <m_score__min__energy>  (19) 
-8.7899999999999991

>  <m_primary>  (19) 
energy

$$$$
19:0
     RDKit          3D

 42 44  0  0  0  0  0  0  0  0999 V2000
   54.7600   26.2960   45.9940 N   0  0  0  0  0  0  0  0  0  0  0  0
   56.3430   25.6600   46.2700 S   0  0  0  0  0  0  0  0  0  0  0  0
   56.3350   24.8090   47.5100 O   0  0  0  0  0  0  0  0  0  0  0  0
   56.7510   24.8070   45.1020 O   0  0  0  0  0  0  0  0  0  0  0  0
   57.4810   26.9890   46.4640 C   0  0  0  0  0  0  0  0  0  0  0  0
   57.4280   28.0950   45.6080 C   0  0  0  0  0  0  0  0  0  0  0  0
   58.3090   29.1660   45.7820 C   0  0  0  0  0  0  0  0  0  0  0  0
   59.2440   29.1550   46.8330 C   0  0  0  0  0  0  0  0  0  0  0  0
   60.1640   30.2960   47.0560 C   0  0  0  0  0  0  0  0  0  0  0  0
   61.3950   30.1430   46.8370 O   0  0  0  0  0  0  0  0  0  0  0  0
   59.7050   31.5870   47.4820 N   0  0  0  0  0  0  0  0  0  0  0  0
   59.3310   32.6910   46.6430 C   0  0  0  0  0  0  0  0  0  0  0  0
   58.1990   32.5430   45.8300 C   0  0  0  0  0  0  0  0  0  0  0  0
   57.7600   33.5940   45.0240 C   0  0  0  0  0  0  0  0  0  0  0  0
   58.4580   34.8010   45.0090 C   0  0  0  0  0  0  0  0  0  0  0  0
   59.6080   34.9530   45.7860 C   0  0  0  0  0  0  0  0  0  0  0  0
   60.0660   33.9040   46.6020 C   0  0  0  0  0  0  0  0  0  0  0  0
   61.3120   34.0500   47.3110 N   0  0  0  0  0  0  0  0  0  0  0  0
   62.5990   33.8450   46.6380 C   0  0  0  0  0  0  0  0  0  0  0  0
   63.2890   32.6230   47.2530 C   0  0  0  0  0  0  0  0  0  0  0  0
   63.4010   32.7670   48.6590 O   0  0  0  0  0  0  0  0  0  0  0  0
   62.1130   32.8120   49.2500 C   0  0  0  0  0  0  0  0  0  0  0  0
   61.3370   34.0450   48.7740 C   0  0  0  0  0  0  0  0  0  0  0  0
   59.3120   28.0280   47.6710 C   0  0  0  0  0  0  0  0  0  0  0  0
   58.4300   26.9590   47.4940 C   0  0  0  0  0  0  0  0  0  0  0  0
   54.7620   26.7140   45.0360 H   0  0  0  0  0  0  0  0  0  0  0  0
   56.6889   28.1215   44.7938 H   0  0  0  0  0  0  0  0  0  0  0  0
   58.2710   30.0226   45.0930 H   0  0  0  0  0  0  0  0  0  0  0  0
   57.6513   31.5890   45.8273 H   0  0  0  0  0  0  0  0  0  0  0  0
   56.8626   33.4703   44.4000 H   0  0  0  0  0  0  0  0  0  0  0  0
   58.1024   35.6339   44.3846 H   0  0  0  0  0  0  0  0  0  0  0  0
   60.1613   35.9033   45.7594 H   0  0  0  0  0  0  0  0  0  0  0  0
   62.4316   33.6736   45.5644 H   0  0  0  0  0  0  0  0  0  0  0  0
   63.2328   34.7351   46.7647 H   0  0  0  0  0  0  0  0  0  0  0  0
   62.6980   31.7230   47.0279 H   0  0  0  0  0  0  0  0  0  0  0  0
   64.2982   32.5331   46.8246 H   0  0  0  0  0  0  0  0  0  0  0  0
   61.5562   31.9056   48.9701 H   0  0  0  0  0  0  0  0  0  0  0  0
   62.2288   32.8691   50.3424 H   0  0  0  0  0  0  0  0  0  0  0  0
   60.3082   34.0067   49.1613 H   0  0  0  0  0  0  0  0  0  0  0  0
   61.8249   34.9593   49.1428 H   0  0  0  0  0  0  0  0  0  0  0  0
   60.0651   27.9877   48.4718 H   0  0  0  0  0  0  0  0  0  0  0  0
   58.4810   26.0899   48.1664 H   0  0  0  0  0  0  0  0  0  0  0  0
  1  2  1  0
  2  3  2  0
  2  4  2  0
  2  5  1  0
  5  6  2  0
  6  7  1  0
  7  8  2  0
  8  9  1  0
  9 10  2  0
  9 11  1  0
 11 12  1  0
 12 13  2  0
 13 14  1  0
 14 15  2  0
 15 16  1  0
 16 17  2  0
 17 18  1  0
 18 19  1  0
 19 20  1  0
 20 21  1  0
 21 22  1  0
 22 23  1  0
  8 24  1  0
 24 25  2  0
 25  5  1  0
 17 12  1  0
 23 18  1  0
  1 26  1  0
  6 27  1  0
  7 28  1  0
 13 29  1  0
 14 30  1  0
 15 31  1  0
 16 32  1  0
 19 33  1  0
 19 34  1  0
 20 35  1  0
 20 36  1  0
 22 37  1  0
 22 38  1  0
 23 39  1  0
 23 40  1  0
 24 41  1  0
 25 42  1  0
M  CHG  2   1  -1  11  -1
M  END
>  <UniqueID>  (20) 
18

>  <SMILES>  (20) 
[NH-]S(=O)(=O)c1ccc(C(=O)[N-]c2ccccc2N2CCOCC2)cc1

>  <Energy>  (20) 
56.786607097598825

>  <Genealogy>  (20) 
[NH-]S(=O)(=O)c1ccc(C(=O)[N-]c2ccccc2N2CCOCC2)cc1 (protonated)
[NH-]S(=O)(=O)c1ccc(C(=O)[N-]c2ccccc2N2CCOCC2)cc1 (3D coordinates assigned)
[NH-]S(=O)(=O)c1ccc(C(=O)[N-]c2ccccc2N2CCOCC2)cc1 (nonaromatic ring conformer: 56.786607097598825 kcal/mol)

>  <smiles>  (20) 
NS(=O)(=O)c1ccc(C(=O)Nc2ccccc2N2CCOCC2)cc1

>  <score_type>  (20) 
oracle

>  <origin>  (20) 
adg

>  <m_score__min__energy>  (20) 
-12.07

>  <m_primary>  (20) 
energy

$$$$
20:0
     RDKit          3D

 50 53  0  0  0  0  0  0  0  0999 V2000
   54.7670   22.9510   47.6360 C   0  0  0  0  0  0  0  0  0  0  0  0
   54.8170   23.5960   46.2540 C   0  0  0  0  0  0  0  0  0  0  0  0
   56.0930   24.3050   46.0630 N   0  0  0  0  0  0  0  0  0  0  0  0
   57.2410   23.5700   45.9620 C   0  0  0  0  0  0  0  0  0  0  0  0
   58.4690   24.1930   45.7570 C   0  0  0  0  0  0  0  0  0  0  0  0
   58.5260   25.5770   45.6440 C   0  0  0  0  0  0  0  0  0  0  0  0
   57.3550   26.3420   45.7290 C   0  0  0  0  0  0  0  0  0  0  0  0
   57.4470   27.8180   45.5950 C   0  0  0  0  0  0  0  0  0  0  0  0
   58.4270   28.5750   46.1640 N   0  0  0  0  0  0  0  0  0  0  0  0
   58.0930   29.8140   45.7700 C   0  0  0  0  0  0  0  0  0  0  0  0
   58.7410   31.0110   46.0560 C   0  0  0  0  0  0  0  0  0  0  0  0
   58.1810   32.1990   45.5180 C   0  0  0  0  0  0  0  0  0  0  0  0
   58.7930   33.4890   45.7560 N   0  0  0  0  0  0  0  0  0  0  0  0
   58.4510   34.6210   44.8810 C   0  0  0  0  0  0  0  0  0  0  0  0
   59.6100   33.7020   46.9700 C   0  0  0  0  0  0  0  0  0  0  0  0
   58.8820   33.2100   48.2560 C   0  0  0  0  0  0  0  0  0  0  0  0
   59.5880   32.0290   48.9370 C   0  0  0  0  0  0  0  0  0  0  0  0
   61.0640   32.3430   49.2430 C   0  0  0  0  0  0  0  0  0  0  0  0
   61.7860   33.1080   48.1120 C   0  0  0  0  0  0  0  0  0  0  0  0
   61.0130   33.0850   46.7900 C   0  0  0  0  0  0  0  0  0  0  0  0
   57.0410   32.1150   44.7510 N   0  0  0  0  0  0  0  0  0  0  0  0
   56.4180   30.9300   44.4820 C   0  0  0  0  0  0  0  0  0  0  0  0
   56.9720   29.7750   45.0110 C   0  0  0  0  0  0  0  0  0  0  0  0
   56.5740   28.5370   44.9040 O   0  0  0  0  0  0  0  0  0  0  0  0
   56.1270   25.6740   45.9370 C   0  0  0  0  0  0  0  0  0  0  0  0
   55.0540   26.3370   46.0040 O   0  0  0  0  0  0  0  0  0  0  0  0
   54.8276   23.7325   48.4078 H   0  0  0  0  0  0  0  0  0  0  0  0
   53.8232   22.3972   47.7482 H   0  0  0  0  0  0  0  0  0  0  0  0
   55.6141   22.2584   47.7482 H   0  0  0  0  0  0  0  0  0  0  0  0
   54.7182   22.8148   45.4859 H   0  0  0  0  0  0  0  0  0  0  0  0
   53.9918   24.3182   46.1679 H   0  0  0  0  0  0  0  0  0  0  0  0
   57.1941   22.4740   46.0436 H   0  0  0  0  0  0  0  0  0  0  0  0
   59.3885   23.5935   45.6849 H   0  0  0  0  0  0  0  0  0  0  0  0
   59.4946   26.0741   45.4871 H   0  0  0  0  0  0  0  0  0  0  0  0
   59.6506   31.0359   46.6741 H   0  0  0  0  0  0  0  0  0  0  0  0
   58.1874   35.4937   45.4966 H   0  0  0  0  0  0  0  0  0  0  0  0
   59.3147   34.8677   44.2461 H   0  0  0  0  0  0  0  0  0  0  0  0
   57.5952   34.3481   44.2461 H   0  0  0  0  0  0  0  0  0  0  0  0
   59.7494   34.7840   47.1109 H   0  0  0  0  0  0  0  0  0  0  0  0
   58.8308   34.0453   48.9699 H   0  0  0  0  0  0  0  0  0  0  0  0
   57.8831   32.8629   47.9533 H   0  0  0  0  0  0  0  0  0  0  0  0
   59.0699   31.8005   49.8800 H   0  0  0  0  0  0  0  0  0  0  0  0
   59.5569   31.1704   48.2500 H   0  0  0  0  0  0  0  0  0  0  0  0
   61.1064   32.9538   50.1568 H   0  0  0  0  0  0  0  0  0  0  0  0
   61.5798   31.3782   49.3572 H   0  0  0  0  0  0  0  0  0  0  0  0
   61.9169   34.1547   48.4240 H   0  0  0  0  0  0  0  0  0  0  0  0
   62.7509   32.6090   47.9392 H   0  0  0  0  0  0  0  0  0  0  0  0
   61.5681   33.6631   46.0366 H   0  0  0  0  0  0  0  0  0  0  0  0
   60.9017   32.0408   46.4626 H   0  0  0  0  0  0  0  0  0  0  0  0
   55.5072   30.8934   43.8663 H   0  0  0  0  0  0  0  0  0  0  0  0
  1  2  1  0
  2  3  1  0
  3  4  1  0
  4  5  2  0
  5  6  1  0
  6  7  2  0
  7  8  1  0
  8  9  2  0
  9 10  1  0
 10 11  2  0
 11 12  1  0
 12 13  1  0
 13 14  1  0
 13 15  1  0
 15 16  1  0
 16 17  1  0
 17 18  1  0
 18 19  1  0
 19 20  1  0
 12 21  2  0
 21 22  1  0
 22 23  2  0
 23 24  1  0
  7 25  1  0
 25 26  2  0
 25  3  1  0
 24  8  1  0
 23 10  1  0
 20 15  1  0
  1 27  1  0
  1 28  1  0
  1 29  1  0
  2 30  1  0
  2 31  1  0
  4 32  1  0
  5 33  1  0
  6 34  1  0
 11 35  1  0
 14 36  1  0
 14 37  1  0
 14 38  1  0
 15 39  1  0
 16 40  1  0
 16 41  1  0
 17 42  1  0
 17 43  1  0
 18 44  1  0
 18 45  1  0
 19 46  1  0
 19 47  1  0
 20 48  1  0
 20 49  1  0
 22 50  1  0
M  END
>  <UniqueID>  (21) 
19

>  <SMILES>  (21) 
CCn1cccc(-c2nc3cc(N(C)C4CCCCC4)ncc3o2)c1=O

>  <Energy>  (21) 
98.15195787620681

>  <Genealogy>  (21) 
CCn1cccc(-c2nc3cc(N(C)C4CCCCC4)ncc3o2)c1=O (3D coordinates assigned)
CCn1cccc(-c2nc3cc(N(C)C4CCCCC4)ncc3o2)c1=O (nonaromatic ring conformer: 98.15195787620681 kcal/mol)

>  <smiles>  (21) 
CCn1cccc(-c2nc3cc(N(C)C4CCCCC4)ncc3o2)c1=O

>  <score_type>  (21) 
oracle

>  <origin>  (21) 
adg

>  <m_score__min__energy>  (21) 
-8.1300000000000008

>  <m_primary>  (21) 
energy

$$$$
21:0
     RDKit          3D

 29 31  0  0  0  0  0  0  0  0999 V2000
   56.6180   30.1850   42.6160 C   0  0  0  0  0  0  0  0  0  0  0  0
   56.2890   29.5400   44.2860 S   0  0  0  0  0  0  0  0  0  0  0  0
   57.3980   30.7020   45.0780 C   0  0  0  0  0  0  0  0  0  0  0  0
   58.6610   30.2670   45.5490 C   0  0  0  0  0  0  0  0  0  0  0  0
   59.5280   31.1810   46.1760 C   0  0  0  0  0  0  0  0  0  0  0  0
   59.0940   32.5020   46.2820 C   0  0  0  0  0  0  0  0  0  0  0  0
   57.8650   32.8730   45.8280 C   0  0  0  0  0  0  0  0  0  0  0  0
   57.0120   32.0050   45.2310 N   0  0  0  0  0  0  0  0  0  0  0  0
   57.6360   34.1640   46.1040 N   0  0  0  0  0  0  0  0  0  0  0  0
   58.7630   34.5670   46.7420 C   0  0  0  0  0  0  0  0  0  0  0  0
   59.6810   33.5700   46.8600 N   0  0  0  0  0  0  0  0  0  0  0  0
   60.9770   33.6670   47.4750 C   0  0  0  0  0  0  0  0  0  0  0  0
   62.1340   33.3890   46.7290 C   0  0  0  0  0  0  0  0  0  0  0  0
   63.3950   33.4680   47.3270 C   0  0  0  0  0  0  0  0  0  0  0  0
   63.5120   33.8160   48.6750 C   0  0  0  0  0  0  0  0  0  0  0  0
   62.3650   34.0790   49.4290 C   0  0  0  0  0  0  0  0  0  0  0  0
   61.1010   34.0010   48.8340 C   0  0  0  0  0  0  0  0  0  0  0  0
   57.1166   31.1625   42.6921 H   0  0  0  0  0  0  0  0  0  0  0  0
   57.2682   29.4830   42.0733 H   0  0  0  0  0  0  0  0  0  0  0  0
   55.6680   30.2992   42.0733 H   0  0  0  0  0  0  0  0  0  0  0  0
   58.9635   29.2167   45.4249 H   0  0  0  0  0  0  0  0  0  0  0  0
   60.5072   30.8666   46.5662 H   0  0  0  0  0  0  0  0  0  0  0  0
   56.7820   34.7270   45.8910 H   0  0  0  0  0  0  0  0  0  0  0  0
   58.9177   35.5876   47.1221 H   0  0  0  0  0  0  0  0  0  0  0  0
   62.0475   33.1078   45.6691 H   0  0  0  0  0  0  0  0  0  0  0  0
   64.2974   33.2557   46.7348 H   0  0  0  0  0  0  0  0  0  0  0  0
   64.5056   33.8829   49.1423 H   0  0  0  0  0  0  0  0  0  0  0  0
   62.4561   34.3477   50.4918 H   0  0  0  0  0  0  0  0  0  0  0  0
   60.2005   34.2021   49.4329 H   0  0  0  0  0  0  0  0  0  0  0  0
  1  2  1  0
  2  3  1  0
  3  4  2  0
  4  5  1  0
  5  6  2  0
  6  7  1  0
  7  8  2  0
  7  9  1  0
  9 10  2  0
 10 11  1  0
 11 12  1  0
 12 13  2  0
 13 14  1  0
 14 15  2  0
 15 16  1  0
 16 17  2  0
  8  3  1  0
 17 12  1  0
 11  6  1  0
  1 18  1  0
  1 19  1  0
  1 20  1  0
  4 21  1  0
  5 22  1  0
  9 23  1  0
 10 24  1  0
 13 25  1  0
 14 26  1  0
 15 27  1  0
 16 28  1  0
 17 29  1  0
M  CHG  1   9   1
M  END
>  <UniqueID>  (22) 
20

>  <SMILES>  (22) 
CSc1ccc2c(n1)[nH+]cn2-c1ccccc1

>  <Energy>  (22) 
73.72757825899616

>  <Genealogy>  (22) 
CSc1ccc2c(n1)[nH+]cn2-c1ccccc1 (protonated)
CSc1ccc2c(n1)[nH+]cn2-c1ccccc1 (3D coordinates assigned)
CSc1ccc2c(n1)[nH+]cn2-c1ccccc1 (optimized conformer: 73.72757825899616 kcal/mol)

>  <smiles>  (22) 
CSc1ccc2c(ncn2-c2ccccc2)n1

>  <score_type>  (22) 
oracle

>  <origin>  (22) 
adg

>  <m_score__min__energy>  (22) 
-5.3499999999999996

>  <m_primary>  (22) 
energy

$$$$
22:0
     RDKit          3D

 47 49  0  0  0  0  0  0  0  0999 V2000
   57.0290   21.1110   42.8180 C   0  0  0  0  0  0  0  0  0  0  0  0
   56.0500   21.8980   43.4870 O   0  0  0  0  0  0  0  0  0  0  0  0
   56.2560   22.5900   44.6920 C   0  0  0  0  0  0  0  0  0  0  0  0
   56.1810   23.9960   44.7380 C   0  0  0  0  0  0  0  0  0  0  0  0
   56.3940   24.6960   45.9340 C   0  0  0  0  0  0  0  0  0  0  0  0
   56.3030   26.1820   45.9470 C   0  0  0  0  0  0  0  0  0  0  0  0
   55.1620   26.7210   46.0080 O   0  0  0  0  0  0  0  0  0  0  0  0
   57.4900   27.0160   45.9330 N   0  0  1  0  0  0  0  0  0  0  0  0
   58.6560   26.2490   46.4120 C   0  0  0  0  0  0  0  0  0  0  0  0
   57.7090   27.5390   44.5650 C   0  0  0  0  0  0  0  0  0  0  0  0
   57.6910   29.0440   44.5350 C   0  0  0  0  0  0  0  0  0  0  0  0
   57.3710   29.7320   43.3480 C   0  0  0  0  0  0  0  0  0  0  0  0
   57.3370   31.1320   43.3640 C   0  0  0  0  0  0  0  0  0  0  0  0
   57.0550   31.7720   42.3160 O   0  0  0  0  0  0  0  0  0  0  0  0
   57.6130   31.7830   44.5290 N   0  0  0  0  0  0  0  0  0  0  0  0
   57.6250   33.1310   44.7280 C   0  0  0  0  0  0  0  0  0  0  0  0
   57.9390   33.5090   46.0320 C   0  0  0  0  0  0  0  0  0  0  0  0
   58.2090   32.1150   46.9530 S   0  0  0  0  0  0  0  0  0  0  0  0
   57.9140   31.0980   45.6530 C   0  0  0  0  0  0  0  0  0  0  0  0
   57.9550   29.7440   45.6760 N   0  0  0  0  0  0  0  0  0  0  0  0
   56.6640   23.9730   47.1040 C   0  0  0  0  0  0  0  0  0  0  0  0
   56.7440   22.5710   47.0830 C   0  0  0  0  0  0  0  0  0  0  0  0
   57.0180   21.8280   48.2430 O   0  0  0  0  0  0  0  0  0  0  0  0
   56.0370   21.1560   49.0280 C   0  0  0  0  0  0  0  0  0  0  0  0
   56.5440   21.8720   45.8810 C   0  0  0  0  0  0  0  0  0  0  0  0
   56.6440   20.4690   45.9430 O   0  0  0  0  0  0  0  0  0  0  0  0
   57.7590   19.7160   46.4070 C   0  0  0  0  0  0  0  0  0  0  0  0
   57.6612   20.6028   43.5610 H   0  0  0  0  0  0  0  0  0  0  0  0
   56.5285   20.3610   42.1880 H   0  0  0  0  0  0  0  0  0  0  0  0
   57.6540   21.7610   42.1880 H   0  0  0  0  0  0  0  0  0  0  0  0
   55.9511   24.5548   43.8188 H   0  0  0  0  0  0  0  0  0  0  0  0
   57.3610   27.8110   46.6010 H   0  0  0  0  0  0  0  0  0  0  0  0
   58.6645   26.2434   47.5120 H   0  0  0  0  0  0  0  0  0  0  0  0
   58.5928   25.2155   46.0406 H   0  0  0  0  0  0  0  0  0  0  0  0
   59.5800   26.7163   46.0406 H   0  0  0  0  0  0  0  0  0  0  0  0
   58.6853   27.1868   44.2007 H   0  0  0  0  0  0  0  0  0  0  0  0
   56.8937   27.1734   43.9234 H   0  0  0  0  0  0  0  0  0  0  0  0
   57.1513   29.1783   42.4232 H   0  0  0  0  0  0  0  0  0  0  0  0
   57.4063   33.8562   43.9303 H   0  0  0  0  0  0  0  0  0  0  0  0
   58.0011   34.5431   46.4018 H   0  0  0  0  0  0  0  0  0  0  0  0
   56.8153   24.5109   48.0515 H   0  0  0  0  0  0  0  0  0  0  0  0
   56.2559   21.3060   50.0955 H   0  0  0  0  0  0  0  0  0  0  0  0
   55.0413   21.5626   48.7973 H   0  0  0  0  0  0  0  0  0  0  0  0
   56.0564   20.0806   48.7973 H   0  0  0  0  0  0  0  0  0  0  0  0
   57.7661   19.7112   47.5070 H   0  0  0  0  0  0  0  0  0  0  0  0
   57.6837   18.6831   46.0363 H   0  0  0  0  0  0  0  0  0  0  0  0
   58.6890   20.1717   46.0363 H   0  0  0  0  0  0  0  0  0  0  0  0
  1  2  1  0
  2  3  1  0
  3  4  2  0
  4  5  1  0
  5  6  1  0
  6  7  2  0
  6  8  1  0
  8  9  1  0
  8 10  1  0
 10 11  1  0
 11 12  2  0
 12 13  1  0
 13 14  2  0
 13 15  1  0
 15 16  1  0
 16 17  2  0
 17 18  1  0
 18 19  1  0
 19 20  2  0
  5 21  2  0
 21 22  1  0
 22 23  1  0
 23 24  1  0
 22 25  2  0
 25 26  1  0
 26 27  1  0
 25  3  1  0
 20 11  1  0
 19 15  1  0
  1 28  1  0
  1 29  1  0
  1 30  1  0
  4 31  1  0
  8 32  1  1
  9 33  1  0
  9 34  1  0
  9 35  1  0
 10 36  1  0
 10 37  1  0
 12 38  1  0
 16 39  1  0
 17 40  1  0
 21 41  1  0
 24 42  1  0
 24 43  1  0
 24 44  1  0
 27 45  1  0
 27 46  1  0
 27 47  1  0
M  CHG  1   8   1
M  END
>  <UniqueID>  (23) 
21

>  <SMILES>  (23) 
COc1cc(C(=O)[N@@H+](C)Cc2cc(=O)n3ccsc3n2)cc(OC)c1OC

>  <Energy>  (23) 
89.68955360794862

>  <Genealogy>  (23) 
COc1cc(C(=O)[NH+](C)Cc2cc(=O)n3ccsc3n2)cc(OC)c1OC (protonated)
COc1cc(C(=O)[N@@H+](C)Cc2cc(=O)n3ccsc3n2)cc(OC)c1OC (chirality)
COc1cc(C(=O)[N@@H+](C)Cc2cc(=O)n3ccsc3n2)cc(OC)c1OC (3D coordinates assigned)
COc1cc(C(=O)[N@@H+](C)Cc2cc(=O)n3ccsc3n2)cc(OC)c1OC (optimized conformer: 89.68955360794862 kcal/mol)

>  <smiles>  (23) 
COc1cc(C(=O)N(C)Cc2cc(=O)n3ccsc3n2)cc(OC)c1OC

>  <score_type>  (23) 
oracle

>  <origin>  (23) 
adg

>  <m_score__min__energy>  (23) 
-5.6100000000000003

>  <m_primary>  (23) 
energy

$$$$
23:0
     RDKit          3D

 44 46  0  0  0  0  0  0  0  0999 V2000
   64.8410   32.7860   49.6180 C   0  0  0  0  0  0  0  0  0  0  0  0
   63.8240   32.9810   48.5440 C   0  0  0  0  0  0  0  0  0  0  0  0
   64.1120   33.0100   47.2250 N   0  0  0  0  0  0  0  0  0  0  0  0
   63.0590   33.2620   46.4480 N   0  0  0  0  0  0  0  0  0  0  0  0
   61.9180   33.4580   47.1470 C   0  0  0  0  0  0  0  0  0  0  0  0
   60.6540   33.7070   46.5070 N   0  0  0  0  0  0  0  0  0  0  0  0
   60.3470   34.8960   46.0090 N   0  0  0  0  0  0  0  0  0  0  0  0
   59.1050   34.8330   45.4950 C   0  0  0  0  0  0  0  0  0  0  0  0
   58.6090   33.5570   45.6610 C   0  0  0  0  0  0  0  0  0  0  0  0
   57.2630   33.0980   45.2840 C   0  0  0  0  0  0  0  0  0  0  0  0
   56.3140   33.9250   45.2830 O   0  0  0  0  0  0  0  0  0  0  0  0
   57.0040   31.7440   44.8920 N   0  0  0  0  0  0  0  0  0  0  0  0
   57.8120   30.9720   43.9500 C   0  0  0  0  0  0  0  0  0  0  0  0
   57.2430   29.5610   43.7480 C   0  0  0  0  0  0  0  0  0  0  0  0
   56.4920   29.0320   44.9790 C   0  0  0  0  0  0  0  0  0  0  0  0
   57.1060   27.8050   45.4880 N   0  0  0  0  0  0  0  0  0  0  0  0
   58.5310   27.6290   45.6990 C   0  0  0  0  0  0  0  0  0  0  0  0
   58.7040   26.1940   46.2370 C   0  0  0  0  0  0  0  0  0  0  0  0
   57.3000   25.6450   46.5350 C   0  0  0  0  0  0  0  0  0  0  0  0
   56.4060   26.6870   45.9970 C   0  0  0  0  0  0  0  0  0  0  0  0
   55.1480   26.6080   46.0120 O   0  0  0  0  0  0  0  0  0  0  0  0
   59.6080   32.8630   46.3270 C   0  0  0  0  0  0  0  0  0  0  0  0
   59.4860   31.4780   46.8940 C   0  0  0  0  0  0  0  0  0  0  0  0
   62.1920   33.3050   48.8080 S   0  0  0  0  0  0  0  0  0  0  0  0
   64.3577   32.8787   50.6018 H   0  0  0  0  0  0  0  0  0  0  0  0
   65.2884   31.7857   49.5220 H   0  0  0  0  0  0  0  0  0  0  0  0
   65.6267   33.5499   49.5220 H   0  0  0  0  0  0  0  0  0  0  0  0
   65.0670   32.8530   46.8350 H   0  0  0  0  0  0  0  0  0  0  0  0
   58.5700   35.6673   45.0179 H   0  0  0  0  0  0  0  0  0  0  0  0
   57.8280   31.4933   42.9815 H   0  0  0  0  0  0  0  0  0  0  0  0
   58.8282   30.8795   44.3609 H   0  0  0  0  0  0  0  0  0  0  0  0
   56.5473   29.5827   42.8962 H   0  0  0  0  0  0  0  0  0  0  0  0
   58.0936   28.8871   43.5682 H   0  0  0  0  0  0  0  0  0  0  0  0
   56.5132   29.7978   45.7684 H   0  0  0  0  0  0  0  0  0  0  0  0
   55.4565   28.8064   44.6843 H   0  0  0  0  0  0  0  0  0  0  0  0
   59.0761   27.7508   44.7514 H   0  0  0  0  0  0  0  0  0  0  0  0
   58.9306   28.3749   46.4018 H   0  0  0  0  0  0  0  0  0  0  0  0
   59.2011   25.5666   45.4826 H   0  0  0  0  0  0  0  0  0  0  0  0
   59.3241   26.1910   47.1455 H   0  0  0  0  0  0  0  0  0  0  0  0
   57.1364   24.6841   46.0252 H   0  0  0  0  0  0  0  0  0  0  0  0
   57.1340   25.4460   47.6040 H   0  0  0  0  0  0  0  0  0  0  0  0
   59.4906   31.5299   47.9928 H   0  0  0  0  0  0  0  0  0  0  0  0
   58.5443   31.0235   46.5523 H   0  0  0  0  0  0  0  0  0  0  0  0
   60.3337   30.8659   46.5523 H   0  0  0  0  0  0  0  0  0  0  0  0
  1  2  1  0
  2  3  2  0
  3  4  1  0
  4  5  2  0
  5  6  1  0
  6  7  1  0
  7  8  2  0
  8  9  1  0
  9 10  1  0
 10 11  2  0
 10 12  1  0
 12 13  1  0
 13 14  1  0
 14 15  1  0
 15 16  1  0
 16 17  1  0
 17 18  1  0
 18 19  1  0
 19 20  1  0
 20 21  2  0
  9 22  2  0
 22 23  1  0
  5 24  1  0
 24  2  1  0
 22  6  1  0
 20 16  1  0
  1 25  1  0
  1 26  1  0
  1 27  1  0
  3 28  1  0
  8 29  1  0
 13 30  1  0
 13 31  1  0
 14 32  1  0
 14 33  1  0
 15 34  1  0
 15 35  1  0
 17 36  1  0
 17 37  1  0
 18 38  1  0
 18 39  1  0
 19 40  1  0
 19 41  1  0
 23 42  1  0
 23 43  1  0
 23 44  1  0
M  CHG  2   3   1  12  -1
M  END
>  <UniqueID>  (24) 
22

>  <SMILES>  (24) 
Cc1[nH+]nc(-n2ncc(C(=O)[N-]CCCN3CCCC3=O)c2C)s1

>  <Energy>  (24) 
113.39432115460323

>  <Genealogy>  (24) 
Cc1[nH+]nc(-n2ncc(C(=O)[N-]CCCN3CCCC3=O)c2C)s1 (protonated)
Cc1[nH+]nc(-n2ncc(C(=O)[N-]CCCN3CCCC3=O)c2C)s1 (3D coordinates assigned)
Cc1[nH+]nc(-n2ncc(C(=O)[N-]CCCN3CCCC3=O)c2C)s1 (nonaromatic ring conformer: 113.39432115460323 kcal/mol)

>  <smiles>  (24) 
Cc1nnc(-n2ncc(C(=O)NCCCN3CCCC3=O)c2C)s1

>  <score_type>  (24) 
oracle

>  <origin>  (24) 
adg

>  <m_score__min__energy>  (24) 
-8.8900000000000006

>  <m_primary>  (24) 
energy

$$$$
24:0
     RDKit          3D

 41 44  0  0  0  0  0  0  0  0999 V2000
   63.3670   33.8420   48.3080 C   0  0  0  0  0  0  0  0  0  0  0  0
   62.0710   34.2870   48.9730 C   0  0  0  0  0  0  0  0  0  0  0  0
   60.9380   34.0480   48.0850 N   0  0  0  0  0  0  0  0  0  0  0  0
   60.6950   32.9120   47.4040 C   0  0  0  0  0  0  0  0  0  0  0  0
   59.5690   33.1140   46.6330 C   0  0  0  0  0  0  0  0  0  0  0  0
   58.9320   32.1500   45.7230 C   0  0  0  0  0  0  0  0  0  0  0  0
   58.2610   32.4640   44.5400 C   0  0  0  0  0  0  0  0  0  0  0  0
   57.7590   31.3270   43.8980 C   0  0  0  0  0  0  0  0  0  0  0  0
   57.0250   31.3020   42.7170 C   0  0  0  0  0  0  0  0  0  0  0  0
   56.5940   30.0980   42.2450 N   0  0  0  0  0  0  0  0  0  0  0  0
   56.8570   28.9490   42.8830 N   0  0  0  0  0  0  0  0  0  0  0  0
   57.5800   28.9230   44.0440 C   0  0  0  0  0  0  0  0  0  0  0  0
   57.8540   27.6740   44.7040 N   0  0  0  0  0  0  0  0  0  0  0  0
   58.1020   26.4590   43.9160 C   0  0  0  0  0  0  0  0  0  0  0  0
   57.7180   25.2090   44.7190 C   0  0  0  0  0  0  0  0  0  0  0  0
   56.4870   25.4480   45.4850 N   0  0  0  0  0  0  0  0  0  0  0  0
   56.6560   26.4930   46.5170 C   0  0  0  0  0  0  0  0  0  0  0  0
   57.7140   27.5570   46.1570 C   0  0  0  0  0  0  0  0  0  0  0  0
   58.0340   30.1420   44.5500 C   0  0  0  0  0  0  0  0  0  0  0  0
   58.8930   30.4740   45.9580 S   0  0  0  0  0  0  0  0  0  0  0  0
   59.1820   34.4170   46.8900 C   0  0  0  0  0  0  0  0  0  0  0  0
   60.0380   34.9670   47.7730 N   0  0  0  0  0  0  0  0  0  0  0  0
   64.1072   33.5878   49.0809 H   0  0  0  0  0  0  0  0  0  0  0  0
   63.1732   32.9589   47.6814 H   0  0  0  0  0  0  0  0  0  0  0  0
   63.7565   34.6579   47.6814 H   0  0  0  0  0  0  0  0  0  0  0  0
   61.9278   33.7199   49.9046 H   0  0  0  0  0  0  0  0  0  0  0  0
   62.1327   35.3631   49.1926 H   0  0  0  0  0  0  0  0  0  0  0  0
   61.2888   31.9874   47.4537 H   0  0  0  0  0  0  0  0  0  0  0  0
   58.1408   33.4880   44.1566 H   0  0  0  0  0  0  0  0  0  0  0  0
   56.7975   32.2325   42.1762 H   0  0  0  0  0  0  0  0  0  0  0  0
   56.5120   28.0560   42.4650 H   0  0  0  0  0  0  0  0  0  0  0  0
   57.5015   26.4961   42.9951 H   0  0  0  0  0  0  0  0  0  0  0  0
   59.1727   26.4078   43.6692 H   0  0  0  0  0  0  0  0  0  0  0  0
   57.5565   24.3695   44.0268 H   0  0  0  0  0  0  0  0  0  0  0  0
   58.5325   24.9716   45.4192 H   0  0  0  0  0  0  0  0  0  0  0  0
   55.7360   25.7490   44.8200 H   0  0  0  0  0  0  0  0  0  0  0  0
   55.6898   26.9989   46.6600 H   0  0  0  0  0  0  0  0  0  0  0  0
   57.0058   25.9888   47.4299 H   0  0  0  0  0  0  0  0  0  0  0  0
   57.4046   28.5285   46.5697 H   0  0  0  0  0  0  0  0  0  0  0  0
   58.6816   27.2532   46.5831 H   0  0  0  0  0  0  0  0  0  0  0  0
   58.3133   34.9236   46.4442 H   0  0  0  0  0  0  0  0  0  0  0  0
  1  2  1  0
  2  3  1  0
  3  4  1  0
  4  5  2  0
  5  6  1  0
  6  7  2  0
  7  8  1  0
  8  9  2  0
  9 10  1  0
 10 11  2  0
 11 12  1  0
 12 13  1  0
 13 14  1  0
 14 15  1  0
 15 16  1  0
 16 17  1  0
 17 18  1  0
 12 19  2  0
 19 20  1  0
  5 21  1  0
 21 22  2  0
 22  3  1  0
 20  6  1  0
 19  8  1  0
 18 13  1  0
  1 23  1  0
  1 24  1  0
  1 25  1  0
  2 26  1  0
  2 27  1  0
  4 28  1  0
  7 29  1  0
  9 30  1  0
 11 31  1  0
 14 32  1  0
 14 33  1  0
 15 34  1  0
 15 35  1  0
 16 36  1  0
 17 37  1  0
 17 38  1  0
 18 39  1  0
 18 40  1  0
 21 41  1  0
M  CHG  1  11   1
M  END
>  <UniqueID>  (25) 
23

>  <SMILES>  (25) 
CCn1cc(-c2cc3cn[nH+]c(N4CCNCC4)c3s2)cn1

>  <Energy>  (25) 
111.13924379954929

>  <Genealogy>  (25) 
CCn1cc(-c2cc3cn[nH+]c(N4CCNCC4)c3s2)cn1 (protonated)
CCn1cc(-c2cc3cn[nH+]c(N4CCNCC4)c3s2)cn1 (3D coordinates assigned)
CCn1cc(-c2cc3cn[nH+]c(N4CCNCC4)c3s2)cn1 (nonaromatic ring conformer: 111.13924379954929 kcal/mol)

>  <smiles>  (25) 
CCn1cc(-c2cc3cnnc(N4CCNCC4)c3s2)cn1

>  <score_type>  (25) 
oracle

>  <origin>  (25) 
adg

>  <m_score__min__energy>  (25) 
-6.1799999999999997

>  <m_primary>  (25) 
energy

$$$$
25:0
     RDKit          3D

 29 30  0  0  0  0  0  0  0  0999 V2000
   58.9120   29.2500   47.0110 C   0  0  0  0  0  0  0  0  0  0  0  0
   59.0900   28.3580   45.7620 C   0  0  0  0  0  0  0  0  0  0  0  0
   58.6910   29.1730   44.5080 C   0  0  0  0  0  0  0  0  0  0  0  0
   60.5910   27.9770   45.6060 C   0  0  0  0  0  0  0  0  0  0  0  0
   61.0080   26.8510   46.5500 C   0  0  0  0  0  0  0  0  0  0  0  0
   60.2280   25.5840   46.2170 C   0  0  0  0  0  0  0  0  0  0  0  0
   58.7410   25.8290   46.1670 C   0  0  0  0  0  0  0  0  0  0  0  0
   57.8850   24.7240   46.3110 C   0  0  0  0  0  0  0  0  0  0  0  0
   56.5030   24.8820   46.2460 C   0  0  0  0  0  0  0  0  0  0  0  0
   55.9510   26.1470   46.0330 C   0  0  0  0  0  0  0  0  0  0  0  0
   54.5700   26.3200   45.9840 O   0  0  0  0  0  0  0  0  0  0  0  0
   56.7910   27.2520   45.8700 C   0  0  0  0  0  0  0  0  0  0  0  0
   58.1970   27.1150   45.9040 C   0  0  0  0  0  0  0  0  0  0  0  0
   59.0338   28.6395   47.9179 H   0  0  0  0  0  0  0  0  0  0  0  0
   59.6685   30.0485   47.0021 H   0  0  0  0  0  0  0  0  0  0  0  0
   57.9069   29.6970   47.0021 H   0  0  0  0  0  0  0  0  0  0  0  0
   58.2271   30.1207   44.8189 H   0  0  0  0  0  0  0  0  0  0  0  0
   59.5879   29.3837   43.9070 H   0  0  0  0  0  0  0  0  0  0  0  0
   57.9745   28.5938   43.9070 H   0  0  0  0  0  0  0  0  0  0  0  0
   60.7671   27.6524   44.5698 H   0  0  0  0  0  0  0  0  0  0  0  0
   61.1899   28.8646   45.8581 H   0  0  0  0  0  0  0  0  0  0  0  0
   62.0848   26.6579   46.4352 H   0  0  0  0  0  0  0  0  0  0  0  0
   60.7937   27.1479   47.5873 H   0  0  0  0  0  0  0  0  0  0  0  0
   60.5591   25.2113   45.2365 H   0  0  0  0  0  0  0  0  0  0  0  0
   60.4232   24.8480   47.0109 H   0  0  0  0  0  0  0  0  0  0  0  0
   58.3111   23.7235   46.4768 H   0  0  0  0  0  0  0  0  0  0  0  0
   55.8447   24.0085   46.3627 H   0  0  0  0  0  0  0  0  0  0  0  0
   54.0570   26.7150   46.7630 H   0  0  0  0  0  0  0  0  0  0  0  0
   56.3494   28.2470   45.7123 H   0  0  0  0  0  0  0  0  0  0  0  0
  1  2  1  0
  2  3  1  0
  2  4  1  0
  4  5  1  0
  5  6  1  0
  6  7  1  0
  7  8  2  0
  8  9  1  0
  9 10  2  0
 10 11  1  0
 10 12  1  0
 12 13  2  0
 13  2  1  0
 13  7  1  0
  1 14  1  0
  1 15  1  0
  1 16  1  0
  3 17  1  0
  3 18  1  0
  3 19  1  0
  4 20  1  0
  4 21  1  0
  5 22  1  0
  5 23  1  0
  6 24  1  0
  6 25  1  0
  8 26  1  0
  9 27  1  0
 11 28  1  0
 12 29  1  0
M  END
>  <UniqueID>  (26) 
24

>  <SMILES>  (26) 
CC1(C)CCCc2ccc(O)cc21

>  <Energy>  (26) 
28.619049816219448

>  <Genealogy>  (26) 
CC1(C)CCCc2ccc(O)cc21 (3D coordinates assigned)
CC1(C)CCCc2ccc(O)cc21 (nonaromatic ring conformer: 28.619049816219448 kcal/mol)

>  <smiles>  (26) 
CC1(C)CCCc2ccc(O)cc21

>  <score_type>  (26) 
oracle

>  <origin>  (26) 
adg

>  <m_score__min__energy>  (26) 
-6.46

>  <m_primary>  (26) 
energy

$$$$
26:0
     RDKit          3D

 47 50  0  0  0  0  0  0  0  0999 V2000
   56.0880   29.3630   44.5650 C   0  0  0  0  0  0  0  0  0  0  0  0
   56.9710   30.4970   44.8740 N   0  0  0  0  0  0  0  0  0  0  0  0
   58.3240   30.0270   45.2110 C   0  0  0  0  0  0  0  0  0  0  0  0
   59.1880   31.2010   45.7170 C   0  0  0  0  0  0  0  0  0  0  0  0
   58.7170   32.5220   45.2360 N   0  0  0  0  0  0  0  0  0  0  0  0
   57.7670   33.1600   46.1760 C   0  0  0  0  0  0  0  0  0  0  0  0
   58.4140   34.3900   46.8160 C   0  0  0  0  0  0  0  0  0  0  0  0
   59.8570   34.1710   46.9960 N   0  0  0  0  0  0  0  0  0  0  0  0
   60.6310   34.0260   45.9060 N   0  0  0  0  0  0  0  0  0  0  0  0
   61.9440   33.7970   46.0020 N   0  0  0  0  0  0  0  0  0  0  0  0
   62.5090   33.6900   47.2210 C   0  0  0  0  0  0  0  0  0  0  0  0
   64.1300   33.4180   47.5570 S   0  0  0  0  0  0  0  0  0  0  0  0
   63.9050   33.4570   49.2310 C   0  0  0  0  0  0  0  0  0  0  0  0
   62.5530   33.6440   49.5350 C   0  0  0  0  0  0  0  0  0  0  0  0
   61.7700   33.8040   48.3740 C   0  0  0  0  0  0  0  0  0  0  0  0
   60.4010   34.0560   48.2550 C   0  0  0  0  0  0  0  0  0  0  0  0
   59.6780   34.1770   49.2810 O   0  0  0  0  0  0  0  0  0  0  0  0
   62.0670   33.7570   50.9580 C   0  0  0  0  0  0  0  0  0  0  0  0
   63.1010   33.2100   51.9610 C   0  0  0  0  0  0  0  0  0  0  0  0
   64.5200   33.7040   51.6350 C   0  0  0  0  0  0  0  0  0  0  0  0
   64.9720   33.2110   50.2520 C   0  0  0  0  0  0  0  0  0  0  0  0
   58.1860   32.4410   43.8610 C   0  0  0  0  0  0  0  0  0  0  0  0
   57.0130   31.4430   43.7410 C   0  0  0  0  0  0  0  0  0  0  0  0
   55.7338   28.9082   45.5019 H   0  0  0  0  0  0  0  0  0  0  0  0
   55.2261   29.7180   43.9810 H   0  0  0  0  0  0  0  0  0  0  0  0
   56.6434   28.6144   43.9810 H   0  0  0  0  0  0  0  0  0  0  0  0
   58.2566   29.2607   45.9973 H   0  0  0  0  0  0  0  0  0  0  0  0
   58.7901   29.6021   44.3098 H   0  0  0  0  0  0  0  0  0  0  0  0
   59.1675   31.2017   46.8168 H   0  0  0  0  0  0  0  0  0  0  0  0
   60.2043   31.0528   45.3230 H   0  0  0  0  0  0  0  0  0  0  0  0
   56.8631   33.4664   45.6291 H   0  0  0  0  0  0  0  0  0  0  0  0
   57.4991   32.4406   46.9639 H   0  0  0  0  0  0  0  0  0  0  0  0
   58.2577   35.2627   46.1648 H   0  0  0  0  0  0  0  0  0  0  0  0
   57.9531   34.5666   47.7991 H   0  0  0  0  0  0  0  0  0  0  0  0
   60.2120   34.0920   44.9520 H   0  0  0  0  0  0  0  0  0  0  0  0
   61.8756   34.8160   51.1858 H   0  0  0  0  0  0  0  0  0  0  0  0
   61.1483   33.1596   51.0540 H   0  0  0  0  0  0  0  0  0  0  0  0
   62.8295   33.5457   52.9727 H   0  0  0  0  0  0  0  0  0  0  0  0
   63.0953   32.1119   51.8974 H   0  0  0  0  0  0  0  0  0  0  0  0
   64.5289   34.8039   51.6451 H   0  0  0  0  0  0  0  0  0  0  0  0
   65.2117   33.3054   52.3917 H   0  0  0  0  0  0  0  0  0  0  0  0
   65.8854   33.7484   49.9572 H   0  0  0  0  0  0  0  0  0  0  0  0
   65.1680   32.1300   50.3072 H   0  0  0  0  0  0  0  0  0  0  0  0
   57.8337   33.4383   43.5590 H   0  0  0  0  0  0  0  0  0  0  0  0
   58.9971   32.0856   43.2085 H   0  0  0  0  0  0  0  0  0  0  0  0
   56.0688   32.0068   43.7144 H   0  0  0  0  0  0  0  0  0  0  0  0
   57.1562   30.8610   42.8186 H   0  0  0  0  0  0  0  0  0  0  0  0
  1  2  1  0
  2  3  1  0
  3  4  1  0
  4  5  1  0
  5  6  1  0
  6  7  1  0
  7  8  1  0
  8  9  1  0
  9 10  2  0
 10 11  1  0
 11 12  1  0
 12 13  1  0
 13 14  2  0
 14 15  1  0
 15 16  1  0
 16 17  2  0
 14 18  1  0
 18 19  1  0
 19 20  1  0
 20 21  1  0
  5 22  1  0
 22 23  1  0
 23  2  1  0
 16  8  1  0
 15 11  2  0
 21 13  1  0
  1 24  1  0
  1 25  1  0
  1 26  1  0
  3 27  1  0
  3 28  1  0
  4 29  1  0
  4 30  1  0
  6 31  1  0
  6 32  1  0
  7 33  1  0
  7 34  1  0
  9 35  1  0
 18 36  1  0
 18 37  1  0
 19 38  1  0
 19 39  1  0
 20 40  1  0
 20 41  1  0
 21 42  1  0
 21 43  1  0
 22 44  1  0
 22 45  1  0
 23 46  1  0
 23 47  1  0
M  CHG  1   9   1
M  END
>  <UniqueID>  (27) 
25

>  <SMILES>  (27) 
CN1CCN(CCn2[nH+]nc3sc4c(c3c2=O)CCCC4)CC1

>  <Energy>  (27) 
92.36323332369467

>  <Genealogy>  (27) 
CN1CCN(CCn2[nH+]nc3sc4c(c3c2=O)CCCC4)CC1 (protonated)
CN1CCN(CCn2[nH+]nc3sc4c(c3c2=O)CCCC4)CC1 (3D coordinates assigned)
CN1CCN(CCn2[nH+]nc3sc4c(c3c2=O)CCCC4)CC1 (nonaromatic ring conformer: 92.36323332369467 kcal/mol)

>  <smiles>  (27) 
CN1CCN(CCn2nnc3sc4c(c3c2=O)CCCC4)CC1

>  <score_type>  (27) 
oracle

>  <origin>  (27) 
adg

>  <m_score__min__energy>  (27) 
-7.3200000000000003

>  <m_primary>  (27) 
energy

$$$$
27:0
     RDKit          3D

 43 45  0  0  0  0  0  0  0  0999 V2000
   58.8868   27.9315   44.4147 H   0  0  0  0  0  0  0  0  0  0  0  0
   59.0370   28.7150   45.1720 C   0  0  0  0  0  0  0  0  0  0  0  0
   58.3260   29.9130   45.0870 C   0  0  0  0  0  0  0  0  0  0  0  0
   57.6089   30.0685   44.2675 H   0  0  0  0  0  0  0  0  0  0  0  0
   58.5230   30.9160   46.0410 C   0  0  0  0  0  0  0  0  0  0  0  0
   57.9458   31.8503   45.9777 H   0  0  0  0  0  0  0  0  0  0  0  0
   59.4570   30.7390   47.0850 C   0  0  0  0  0  0  0  0  0  0  0  0
   59.6820   31.7840   48.1740 C   0  0  0  0  0  0  0  0  0  0  0  0
   59.6436   31.1794   49.0921 H   0  0  0  0  0  0  0  0  0  0  0  0
   58.6160   32.7950   48.2520 N   0  0  0  0  0  0  0  0  0  0  0  0
   58.3390   33.7430   47.3990 C   0  0  0  0  0  0  0  0  0  0  0  0
   57.0860   33.7730   46.6970 N   0  0  0  0  0  0  0  0  0  0  0  0
   56.2160   33.4800   47.1920 H   0  0  0  0  0  0  0  0  0  0  0  0
   56.9740   34.1340   45.2840 C   0  0  0  0  0  0  0  0  0  0  0  0
   56.8618   35.2250   45.1989 H   0  0  0  0  0  0  0  0  0  0  0  0
   56.0973   33.6230   44.8594 H   0  0  0  0  0  0  0  0  0  0  0  0
   58.2190   33.6960   44.5070 C   0  0  0  0  0  0  0  0  0  0  0  0
   57.9514   33.6056   43.4439 H   0  0  0  0  0  0  0  0  0  0  0  0
   58.5483   32.7393   44.9386 H   0  0  0  0  0  0  0  0  0  0  0  0
   59.4000   34.6770   44.6300 C   0  0  0  0  0  0  0  0  0  0  0  0
   59.0025   35.6984   44.5362 H   0  0  0  0  0  0  0  0  0  0  0  0
   60.1058   34.3991   43.8334 H   0  0  0  0  0  0  0  0  0  0  0  0
   60.1980   34.5980   45.9460 C   0  0  0  0  0  0  0  0  0  0  0  0
   60.9948   35.3557   45.9149 H   0  0  0  0  0  0  0  0  0  0  0  0
   60.5944   33.5746   46.0204 H   0  0  0  0  0  0  0  0  0  0  0  0
   59.3480   34.8410   47.1980 C   0  0  0  0  0  0  0  0  0  0  0  0
   58.8178   35.7987   47.0901 H   0  0  0  0  0  0  0  0  0  0  0  0
   60.0164   34.8607   48.0714 H   0  0  0  0  0  0  0  0  0  0  0  0
   61.0540   32.4490   48.1660 C   0  0  0  0  0  0  0  0  0  0  0  0
   61.4830   33.3280   49.1830 C   0  0  0  0  0  0  0  0  0  0  0  0
   60.7998   33.5857   50.0057 H   0  0  0  0  0  0  0  0  0  0  0  0
   62.7700   33.8740   49.1530 C   0  0  0  0  0  0  0  0  0  0  0  0
   63.0938   34.5596   49.9499 H   0  0  0  0  0  0  0  0  0  0  0  0
   63.6450   33.5510   48.1140 C   0  0  0  0  0  0  0  0  0  0  0  0
   64.6557   33.9845   48.0908 H   0  0  0  0  0  0  0  0  0  0  0  0
   63.2360   32.6770   47.1040 C   0  0  0  0  0  0  0  0  0  0  0  0
   63.9255   32.4213   46.2860 H   0  0  0  0  0  0  0  0  0  0  0  0
   61.9510   32.1270   47.1320 C   0  0  0  0  0  0  0  0  0  0  0  0
   61.6382   31.4347   46.3364 H   0  0  0  0  0  0  0  0  0  0  0  0
   60.1390   29.5100   47.1740 C   0  0  0  0  0  0  0  0  0  0  0  0
   60.8374   29.3343   48.0055 H   0  0  0  0  0  0  0  0  0  0  0  0
   59.9380   28.5110   46.2170 C   0  0  0  0  0  0  0  0  0  0  0  0
   60.4911   27.5628   46.2882 H   0  0  0  0  0  0  0  0  0  0  0  0
  1  2  1  0
  2  3  2  0
  3  4  1  0
  3  5  1  0
  5  6  1  0
  5  7  2  0
  7  8  1  0
  8  9  1  0
  8 10  1  0
 10 11  2  0
 11 12  1  0
 12 13  1  0
 12 14  1  0
 14 15  1  0
 14 16  1  0
 14 17  1  0
 17 18  1  0
 17 19  1  0
 17 20  1  0
 20 21  1  0
 20 22  1  0
 20 23  1  0
 23 24  1  0
 23 25  1  0
 23 26  1  0
 26 27  1  0
 26 28  1  0
  8 29  1  0
 29 30  2  0
 30 31  1  0
 30 32  1  0
 32 33  1  0
 32 34  2  0
 34 35  1  0
 34 36  1  0
 36 37  1  0
 36 38  2  0
 38 39  1  0
  7 40  1  0
 40 41  1  0
 40 42  2  0
 42 43  1  0
 42  2  1  0
 26 11  1  0
 38 29  1  0
M  END
>  <UniqueID>  (28) 
26

>  <SMILES>  (28) 
c1ccc(C(/N=C2/CCCCCN2)c2ccccc2)cc1

>  <Energy>  (28) 
53.06152589780929

>  <Genealogy>  (28) 
c1ccc(C(/N=C2/CCCCCN2)c2ccccc2)cc1 (cis-trans isomerization)
c1ccc(C(/N=C2/CCCCCN2)c2ccccc2)cc1 (3D coordinates assigned)
c1ccc(C(/N=C2/CCCCCN2)c2ccccc2)cc1 (nonaromatic ring conformer: 53.06152589780929 kcal/mol)

>  <smiles>  (28) 
c1ccc(C(N=C2CCCCCN2)c2ccccc2)cc1

>  <score_type>  (28) 
oracle

>  <origin>  (28) 
adg

>  <m_score__min__energy>  (28) 
-5.6500000000000004

>  <m_primary>  (28) 
energy

$$$$
28:0
     RDKit          3D

 46 48  0  0  0  0  0  0  0  0999 V2000
   58.1440   26.8780   43.8890 C   0  0  0  0  0  0  0  0  0  0  0  0
   58.2370   27.8470   44.8000 C   0  0  0  0  0  0  0  0  0  0  0  0
   57.8940   29.2570   44.5110 C   0  0  0  0  0  0  0  0  0  0  0  0
   57.1090   29.5190   43.3770 C   0  0  0  0  0  0  0  0  0  0  0  0
   56.8450   30.8300   42.9840 C   0  0  0  0  0  0  0  0  0  0  0  0
   57.3530   31.8990   43.7200 C   0  0  0  0  0  0  0  0  0  0  0  0
   58.1000   31.6660   44.8840 C   0  0  0  0  0  0  0  0  0  0  0  0
   58.6050   32.8180   45.6590 C   0  0  0  0  0  0  0  0  0  0  0  0
   58.4500   32.8610   47.0530 C   0  0  0  0  0  0  0  0  0  0  0  0
   58.9120   33.9620   47.7790 C   0  0  0  0  0  0  0  0  0  0  0  0
   59.5300   35.0270   47.1170 C   0  0  0  0  0  0  0  0  0  0  0  0
   59.6820   34.9930   45.7280 C   0  0  0  0  0  0  0  0  0  0  0  0
   59.2170   33.8950   44.9980 C   0  0  0  0  0  0  0  0  0  0  0  0
   58.3530   30.3410   45.3010 C   0  0  0  0  0  0  0  0  0  0  0  0
   59.0740   30.1310   46.4810 O   0  0  0  0  0  0  0  0  0  0  0  0
   60.4950   30.0120   46.5030 C   0  0  0  0  0  0  0  0  0  0  0  0
   61.0410   30.5230   47.8330 C   0  0  0  0  0  0  0  0  0  0  0  0
   61.6940   31.8390   47.6440 N   0  0  0  0  0  0  0  0  0  0  0  0
   63.0730   31.6940   47.1380 C   0  0  0  0  0  0  0  0  0  0  0  0
   63.7050   33.0820   46.9050 C   0  0  0  0  0  0  0  0  0  0  0  0
   62.8970   34.1330   47.4030 O   0  0  0  0  0  0  0  0  0  0  0  0
   62.5730   33.8860   48.7560 C   0  0  0  0  0  0  0  0  0  0  0  0
   61.7010   32.6220   48.8960 C   0  0  0  0  0  0  0  0  0  0  0  0
   58.4116   25.8449   44.1556 H   0  0  0  0  0  0  0  0  0  0  0  0
   57.7997   27.1116   42.8707 H   0  0  0  0  0  0  0  0  0  0  0  0
   58.5840   27.5868   45.8109 H   0  0  0  0  0  0  0  0  0  0  0  0
   56.6985   28.6820   42.7932 H   0  0  0  0  0  0  0  0  0  0  0  0
   56.2336   31.0216   42.0899 H   0  0  0  0  0  0  0  0  0  0  0  0
   57.1672   32.9306   43.3863 H   0  0  0  0  0  0  0  0  0  0  0  0
   57.9630   32.0249   47.5762 H   0  0  0  0  0  0  0  0  0  0  0  0
   58.7894   33.9907   48.8718 H   0  0  0  0  0  0  0  0  0  0  0  0
   59.8967   35.8919   47.6893 H   0  0  0  0  0  0  0  0  0  0  0  0
   60.1684   35.8316   45.2083 H   0  0  0  0  0  0  0  0  0  0  0  0
   59.3308   33.8749   43.9041 H   0  0  0  0  0  0  0  0  0  0  0  0
   60.7741   28.9555   46.3764 H   0  0  0  0  0  0  0  0  0  0  0  0
   60.9202   30.6109   45.6841 H   0  0  0  0  0  0  0  0  0  0  0  0
   60.2133   30.6273   48.5500 H   0  0  0  0  0  0  0  0  0  0  0  0
   61.7814   29.8059   48.2173 H   0  0  0  0  0  0  0  0  0  0  0  0
   63.6738   31.1405   47.8746 H   0  0  0  0  0  0  0  0  0  0  0  0
   63.0491   31.1464   46.1843 H   0  0  0  0  0  0  0  0  0  0  0  0
   64.6806   33.1157   47.4120 H   0  0  0  0  0  0  0  0  0  0  0  0
   63.8101   33.2250   45.8194 H   0  0  0  0  0  0  0  0  0  0  0  0
   63.5020   33.7468   49.3283 H   0  0  0  0  0  0  0  0  0  0  0  0
   62.0063   34.7460   49.1422 H   0  0  0  0  0  0  0  0  0  0  0  0
   62.1016   31.9974   49.7080 H   0  0  0  0  0  0  0  0  0  0  0  0
   60.6696   32.9323   49.1195 H   0  0  0  0  0  0  0  0  0  0  0  0
  1  2  2  0
  2  3  1  0
  3  4  2  0
  4  5  1  0
  5  6  2  0
  6  7  1  0
  7  8  1  0
  8  9  2  0
  9 10  1  0
 10 11  2  0
 11 12  1  0
 12 13  2  0
  7 14  2  0
 14 15  1  0
 15 16  1  0
 16 17  1  0
 17 18  1  0
 18 19  1  0
 19 20  1  0
 20 21  1  0
 21 22  1  0
 22 23  1  0
 14  3  1  0
 23 18  1  0
 13  8  1  0
  1 24  1  0
  1 25  1  0
  2 26  1  0
  4 27  1  0
  5 28  1  0
  6 29  1  0
  9 30  1  0
 10 31  1  0
 11 32  1  0
 12 33  1  0
 13 34  1  0
 16 35  1  0
 16 36  1  0
 17 37  1  0
 17 38  1  0
 19 39  1  0
 19 40  1  0
 20 41  1  0
 20 42  1  0
 22 43  1  0
 22 44  1  0
 23 45  1  0
 23 46  1  0
M  END
>  <UniqueID>  (29) 
27

>  <SMILES>  (29) 
C=Cc1cccc(-c2ccccc2)c1OCCN1CCOCC1

>  <Energy>  (29) 
68.7635720852714

>  <Genealogy>  (29) 
C=Cc1cccc(-c2ccccc2)c1OCCN1CCOCC1 (3D coordinates assigned)
C=Cc1cccc(-c2ccccc2)c1OCCN1CCOCC1 (nonaromatic ring conformer: 68.7635720852714 kcal/mol)

>  <smiles>  (29) 
C=Cc1cccc(-c2ccccc2)c1OCCN1CCOCC1

>  <score_type>  (29) 
oracle

>  <origin>  (29) 
adg

>  <m_score__min__energy>  (29) 
-7.8300000000000001

>  <m_primary>  (29) 
energy

$$$$
29:0
     RDKit          3D

 66 70  0  0  0  0  0  0  0  0999 V2000
   62.8217   34.3713   51.5803 H   0  0  0  0  0  0  0  0  0  0  0  0
   63.1950   33.8070   50.7130 C   0  0  0  0  0  0  0  0  0  0  0  0
   64.5640   33.6030   50.5530 C   0  0  0  0  0  0  0  0  0  0  0  0
   65.2745   34.0062   51.2897 H   0  0  0  0  0  0  0  0  0  0  0  0
   65.0260   32.8840   49.4520 C   0  0  0  0  0  0  0  0  0  0  0  0
   66.1049   32.7127   49.3228 H   0  0  0  0  0  0  0  0  0  0  0  0
   64.1470   32.3930   48.5360 N   0  0  0  0  0  0  0  0  0  0  0  0
   64.5320   31.8630   47.7220 H   0  0  0  0  0  0  0  0  0  0  0  0
   62.7980   32.5800   48.6630 C   0  0  0  0  0  0  0  0  0  0  0  0
   62.2900   33.2930   49.7680 C   0  0  0  0  0  0  0  0  0  0  0  0
   60.8290   33.4600   49.9430 C   0  0  0  0  0  0  0  0  0  0  0  0
   60.3960   34.0970   50.9400 O   0  0  0  0  0  0  0  0  0  0  0  0
   59.8980   32.8710   48.9380 C   0  0  0  0  0  0  0  0  0  0  0  0
   58.6160   32.7090   49.1380 N   0  0  0  0  0  0  0  0  0  0  0  0
   57.9430   31.8480   50.1090 C   0  0  0  0  0  0  0  0  0  0  0  0
   58.3718   30.8364   50.0562 H   0  0  0  0  0  0  0  0  0  0  0  0
   56.8689   31.8134   49.8742 H   0  0  0  0  0  0  0  0  0  0  0  0
   58.1280   32.4040   51.5290 C   0  0  0  0  0  0  0  0  0  0  0  0
   57.1409   32.6707   51.9345 H   0  0  0  0  0  0  0  0  0  0  0  0
   58.7883   33.2811   51.4605 H   0  0  0  0  0  0  0  0  0  0  0  0
   58.7940   31.3910   52.4780 C   0  0  0  0  0  0  0  0  0  0  0  0
   58.0586   30.6114   52.7259 H   0  0  0  0  0  0  0  0  0  0  0  0
   59.1262   31.9504   53.3650 H   0  0  0  0  0  0  0  0  0  0  0  0
   60.0440   30.7100   51.8780 C   0  0  0  0  0  0  0  0  0  0  0  0
   60.7337   30.4626   52.6984 H   0  0  0  0  0  0  0  0  0  0  0  0
   60.4864   31.4176   51.1614 H   0  0  0  0  0  0  0  0  0  0  0  0
   59.7250   29.4190   51.1030 C   0  0  0  0  0  0  0  0  0  0  0  0
   58.6468   29.3951   50.8862 H   0  0  0  0  0  0  0  0  0  0  0  0
   60.0306   28.5687   51.7303 H   0  0  0  0  0  0  0  0  0  0  0  0
   60.4960   29.3220   49.7780 C   0  0  0  0  0  0  0  0  0  0  0  0
   61.5587   29.1486   50.0031 H   0  0  0  0  0  0  0  0  0  0  0  0
   60.3388   30.2666   49.2368 H   0  0  0  0  0  0  0  0  0  0  0  0
   59.9970   28.1880   48.8740 C   0  0  0  0  0  0  0  0  0  0  0  0
   59.1955   27.6411   49.3922 H   0  0  0  0  0  0  0  0  0  0  0  0
   60.8412   27.5179   48.6542 H   0  0  0  0  0  0  0  0  0  0  0  0
   59.4770   28.7150   47.6080 N   0  0  0  0  0  0  0  0  0  0  0  0
   58.5580   28.3080   46.7650 C   0  0  0  0  0  0  0  0  0  0  0  0
   57.9030   27.0360   46.8200 C   0  0  0  0  0  0  0  0  0  0  0  0
   58.4640   25.8820   47.4050 C   0  0  0  0  0  0  0  0  0  0  0  0
   59.4850   25.9237   47.8121 H   0  0  0  0  0  0  0  0  0  0  0  0
   57.7440   24.6860   47.4760 C   0  0  0  0  0  0  0  0  0  0  0  0
   58.1813   23.8121   47.9811 H   0  0  0  0  0  0  0  0  0  0  0  0
   56.4740   24.5970   46.9090 C   0  0  0  0  0  0  0  0  0  0  0  0
   55.8884   23.6713   47.0090 H   0  0  0  0  0  0  0  0  0  0  0  0
   55.9490   25.6850   46.2150 C   0  0  0  0  0  0  0  0  0  0  0  0
   54.9623   25.6050   45.7354 H   0  0  0  0  0  0  0  0  0  0  0  0
   56.6740   26.8810   46.1260 C   0  0  0  0  0  0  0  0  0  0  0  0
   56.2180   27.8590   45.3090 N   0  0  0  0  0  0  0  0  0  0  0  0
   56.9030   29.0110   45.0980 C   0  0  0  0  0  0  0  0  0  0  0  0
   56.4090   29.9640   44.1840 C   0  0  0  0  0  0  0  0  0  0  0  0
   55.1280   29.7150   43.4330 C   0  0  0  0  0  0  0  0  0  0  0  0
   54.3083   29.5557   44.1490 H   0  0  0  0  0  0  0  0  0  0  0  0
   54.8986   30.5854   42.8007 H   0  0  0  0  0  0  0  0  0  0  0  0
   55.2413   28.8221   42.8007 H   0  0  0  0  0  0  0  0  0  0  0  0
   57.1060   31.1640   43.9930 C   0  0  0  0  0  0  0  0  0  0  0  0
   56.7204   31.9132   43.2859 H   0  0  0  0  0  0  0  0  0  0  0  0
   58.2850   31.4150   44.6930 C   0  0  0  0  0  0  0  0  0  0  0  0
   58.8274   32.3583   44.5318 H   0  0  0  0  0  0  0  0  0  0  0  0
   58.7800   30.4750   45.5970 C   0  0  0  0  0  0  0  0  0  0  0  0
   59.7079   30.6863   46.1487 H   0  0  0  0  0  0  0  0  0  0  0  0
   58.1020   29.2550   45.8110 C   0  0  0  0  0  0  0  0  0  0  0  0
   60.4390   32.4890   47.5860 C   0  0  1  0  0  0  0  0  0  0  0  0
   59.8411   31.6428   47.2166 H   0  0  0  0  0  0  0  0  0  0  0  0
   60.3030   34.0140   46.3980 Br  0  0  0  0  0  0  0  0  0  0  0  0
   61.8720   32.0390   47.6440 C   0  0  0  0  0  0  0  0  0  0  0  0
   62.2940   31.2330   46.7720 O   0  0  0  0  0  0  0  0  0  0  0  0
  1  2  1  0
  2  3  2  0
  3  4  1  0
  3  5  1  0
  5  6  1  0
  5  7  2  0
  7  8  1  0
  7  9  1  0
  9 10  2  0
 10 11  1  0
 11 12  2  0
 11 13  1  0
 13 14  2  3
 14 15  1  0
 15 16  1  0
 15 17  1  0
 15 18  1  0
 18 19  1  0
 18 20  1  0
 18 21  1  0
 21 22  1  0
 21 23  1  0
 21 24  1  0
 24 25  1  0
 24 26  1  0
 24 27  1  0
 27 28  1  0
 27 29  1  0
 27 30  1  0
 30 31  1  0
 30 32  1  0
 30 33  1  0
 33 34  1  0
 33 35  1  0
 33 36  1  0
 36 37  2  0
 37 38  1  0
 38 39  2  0
 39 40  1  0
 39 41  1  0
 41 42  1  0
 41 43  2  0
 43 44  1  0
 43 45  1  0
 45 46  1  0
 45 47  2  0
 47 48  1  0
 48 49  1  0
 49 50  2  0
 50 51  1  0
 51 52  1  0
 51 53  1  0
 51 54  1  0
 50 55  1  0
 55 56  1  0
 55 57  2  0
 57 58  1  0
 57 59  1  0
 59 60  1  0
 59 61  2  0
 13 62  1  0
 62 63  1  6
 62 64  1  0
 62 65  1  0
 65 66  2  0
 10  2  1  0
 61 37  1  0
 65  9  1  0
 47 38  1  0
 61 49  1  0
M  CHG  2   7   1  48  -1
M  END
>  <UniqueID>  (30) 
28

>  <SMILES>  (30) 
Cc1cccc2/c(=N/CCCCCCCN=C3C(=O)c4ccc[nH+]c4C(=O)[C@@H]3Br)c3ccccc3[n-]c12

>  <Energy>  (30) 
101.75749419041861

>  <Genealogy>  (30) 
Cc1cccc2c(=NCCCCCCCN=C3C(=O)c4ccc[nH+]c4C(=O)C3Br)c3ccccc3[n-]c12 (protonated)
Cc1cccc2c(=NCCCCCCCN=C3C(=O)c4ccc[nH+]c4C(=O)[C@@H]3Br)c3ccccc3[n-]c12 (chirality)
Cc1cccc2/c(=N/CCCCCCCN=C3C(=O)c4ccc[nH+]c4C(=O)[C@@H]3Br)c3ccccc3[n-]c12 (cis-trans isomerization)
Cc1cccc2/c(=N/CCCCCCCN=C3C(=O)c4ccc[nH+]c4C(=O)[C@@H]3Br)c3ccccc3[n-]c12 (3D coordinates assigned)
Cc1cccc2/c(=N/CCCCCCCN=C3C(=O)c4ccc[nH+]c4C(=O)[C@@H]3Br)c3ccccc3[n-]c12 (nonaromatic ring conformer: 101.75749419041861 kcal/mol)

>  <smiles>  (30) 
Cc1cccc2c(=NCCCCCCCN=C3C(=O)c4cccnc4C(=O)C3Br)c3ccccc3[nH]c12

>  <score_type>  (30) 
oracle

>  <origin>  (30) 
adg

>  <m_score__min__energy>  (30) 
-9.4800000000000004

>  <m_primary>  (30) 
energy

$$$$
30:0
     RDKit          3D

 52 57  0  0  0  0  0  0  0  0999 V2000
   59.4600   34.2550   52.0110 O   0  0  0  0  0  0  0  0  0  0  0  0
   58.5530   33.4350   51.7090 C   0  0  0  0  0  0  0  0  0  0  0  0
   57.5660   33.1110   52.6950 N   0  0  0  0  0  0  0  0  0  0  0  0
   56.9950   31.8140   52.9150 C   0  0  0  0  0  0  0  0  0  0  0  0
   56.3970   31.1490   51.8370 C   0  0  0  0  0  0  0  0  0  0  0  0
   55.8120   29.8920   52.0160 C   0  0  0  0  0  0  0  0  0  0  0  0
   55.7810   29.3000   53.2840 C   0  0  0  0  0  0  0  0  0  0  0  0
   55.1910   28.0360   53.4230 O   0  0  0  0  0  0  0  0  0  0  0  0
   53.8320   27.8130   53.6780 C   0  0  0  0  0  0  0  0  0  0  0  0
   53.3920   26.5290   54.0340 C   0  0  0  0  0  0  0  0  0  0  0  0
   52.0260   26.2990   54.2860 C   0  0  0  0  0  0  0  0  0  0  0  0
   51.1180   27.3100   54.1630 N   0  0  0  0  0  0  0  0  0  0  0  0
   51.5260   28.5510   53.7940 C   0  0  0  0  0  0  0  0  0  0  0  0
   50.6770   29.6430   53.5980 C   0  0  0  0  0  0  0  0  0  0  0  0
   51.3670   30.7780   53.1650 C   0  0  0  0  0  0  0  0  0  0  0  0
   50.7980   32.1120   52.8860 C   0  0  0  0  0  0  0  0  0  0  0  0
   50.1280   32.6810   53.7880 O   0  0  0  0  0  0  0  0  0  0  0  0
   51.0010   32.8020   51.6460 N   0  0  0  0  0  0  0  0  0  0  0  0
   51.7920   32.2990   50.5300 C   0  0  0  0  0  0  0  0  0  0  0  0
   51.5340   30.8400   50.1960 C   0  0  0  0  0  0  0  0  0  0  0  0
   50.9280   31.9360   49.3340 C   0  0  0  0  0  0  0  0  0  0  0  0
   53.0200   30.4140   53.0610 S   0  0  0  0  0  0  0  0  0  0  0  0
   52.8620   28.8150   53.5510 C   0  0  0  0  0  0  0  0  0  0  0  0
   56.3680   29.9720   54.3730 C   0  0  0  0  0  0  0  0  0  0  0  0
   56.9600   31.2270   54.1940 C   0  0  0  0  0  0  0  0  0  0  0  0
   57.4510   31.8840   55.2740 F   0  0  0  0  0  0  0  0  0  0  0  0
   58.4590   32.9050   50.3730 N   0  0  0  0  0  0  0  0  0  0  0  0
   59.4110   33.1820   49.3280 C   0  0  0  0  0  0  0  0  0  0  0  0
   60.7530   33.2320   49.5710 N   0  0  0  0  0  0  0  0  0  0  0  0
   61.4780   33.6120   48.1170 S   0  0  0  0  0  0  0  0  0  0  0  0
   60.1230   33.7150   47.1640 C   0  0  0  0  0  0  0  0  0  0  0  0
   60.0030   34.0110   45.8090 C   0  0  0  0  0  0  0  0  0  0  0  0
   58.7150   34.0260   45.2560 C   0  0  0  0  0  0  0  0  0  0  0  0
   57.5920   33.7470   46.0620 C   0  0  0  0  0  0  0  0  0  0  0  0
   57.7460   33.4550   47.4300 C   0  0  0  0  0  0  0  0  0  0  0  0
   59.0370   33.4430   47.9810 C   0  0  0  0  0  0  0  0  0  0  0  0
   56.3876   31.6191   50.8426 H   0  0  0  0  0  0  0  0  0  0  0  0
   55.3736   29.3652   51.1556 H   0  0  0  0  0  0  0  0  0  0  0  0
   54.1136   25.7029   54.1161 H   0  0  0  0  0  0  0  0  0  0  0  0
   51.6879   25.2957   54.5846 H   0  0  0  0  0  0  0  0  0  0  0  0
   49.5902   29.6127   53.7653 H   0  0  0  0  0  0  0  0  0  0  0  0
   52.6961   32.9019   50.7003 H   0  0  0  0  0  0  0  0  0  0  0  0
   52.3472   30.2145   49.7991 H   0  0  0  0  0  0  0  0  0  0  0  0
   51.1369   29.9744   50.7466 H   0  0  0  0  0  0  0  0  0  0  0  0
   51.3027   32.1037   48.3135 H   0  0  0  0  0  0  0  0  0  0  0  0
   49.9109   32.1922   49.0024 H   0  0  0  0  0  0  0  0  0  0  0  0
   56.3612   29.5077   55.3702 H   0  0  0  0  0  0  0  0  0  0  0  0
   57.6200   32.3290   50.1470 H   0  0  0  0  0  0  0  0  0  0  0  0
   60.8888   34.2258   45.1932 H   0  0  0  0  0  0  0  0  0  0  0  0
   58.5797   34.2564   44.1889 H   0  0  0  0  0  0  0  0  0  0  0  0
   56.5860   33.7577   45.6172 H   0  0  0  0  0  0  0  0  0  0  0  0
   56.8686   33.2396   48.0576 H   0  0  0  0  0  0  0  0  0  0  0  0
  1  2  2  0
  2  3  1  0
  3  4  1  0
  4  5  2  0
  5  6  1  0
  6  7  2  0
  7  8  1  0
  8  9  1  0
  9 10  2  0
 10 11  1  0
 11 12  2  0
 12 13  1  0
 13 14  1  0
 14 15  2  0
 15 16  1  0
 16 17  2  0
 16 18  1  0
 18 19  1  0
 19 20  1  0
 20 21  1  0
 15 22  1  0
 22 23  1  0
  7 24  1  0
 24 25  2  0
 25 26  1  0
  2 27  1  0
 27 28  1  0
 28 29  2  0
 29 30  1  0
 30 31  1  0
 31 32  2  0
 32 33  1  0
 33 34  2  0
 34 35  1  0
 35 36  2  0
 25  4  1  0
 36 28  1  0
 23  9  1  0
 36 31  1  0
 23 13  2  0
 21 19  1  0
  5 37  1  0
  6 38  1  0
 10 39  1  0
 11 40  1  0
 14 41  1  0
 19 42  1  0
 20 43  1  0
 20 44  1  0
 21 45  1  0
 21 46  1  0
 24 47  1  0
 27 48  1  0
 32 49  1  0
 33 50  1  0
 34 51  1  0
 35 52  1  0
M  CHG  2   3  -1  18  -1
M  END
>  <UniqueID>  (31) 
29

>  <SMILES>  (31) 
O=C([N-]c1ccc(Oc2ccnc3cc(C(=O)[N-]C4CC4)sc23)cc1F)Nc1nsc2ccccc12

>  <Energy>  (31) 
410.07968114757966

>  <Genealogy>  (31) 
O=C([N-]c1ccc(Oc2ccnc3cc(C(=O)[N-]C4CC4)sc23)cc1F)Nc1nsc2ccccc12 (protonated)
O=C([N-]c1ccc(Oc2ccnc3cc(C(=O)[N-]C4CC4)sc23)cc1F)Nc1nsc2ccccc12 (3D coordinates assigned)
O=C([N-]c1ccc(Oc2ccnc3cc(C(=O)[N-]C4CC4)sc23)cc1F)Nc1nsc2ccccc12 (nonaromatic ring conformer: 410.07968114757966 kcal/mol)

>  <smiles>  (31) 
O=C(Nc1ccc(Oc2ccnc3cc(C(=O)NC4CC4)sc23)cc1F)Nc1nsc2ccccc12

>  <score_type>  (31) 
oracle

>  <origin>  (31) 
adg

>  <m_score__min__energy>  (31) 
-12.42

>  <m_primary>  (31) 
energy

$$$$
31:0
     RDKit          3D

 25 26  0  0  0  0  0  0  0  0999 V2000
   51.0380   32.8480   51.7760 O   0  0  0  0  0  0  0  0  0  0  0  0
   51.3940   32.2120   50.7490 C   0  0  0  0  0  0  0  0  0  0  0  0
   51.0370   32.6790   49.4900 O   0  0  0  0  0  0  0  0  0  0  0  0
   52.2400   30.9830   50.8810 C   0  0  0  0  0  0  0  0  0  0  0  0
   52.8240   30.8550   52.2900 C   0  0  0  0  0  0  0  0  0  0  0  0
   54.2660   30.6360   52.2340 N   0  0  0  0  0  0  0  0  0  0  0  0
   54.8440   29.4510   52.3290 N   0  0  0  0  0  0  0  0  0  0  0  0
   56.1500   29.6010   52.1830 N   0  0  0  0  0  0  0  0  0  0  0  0
   56.3320   30.9250   51.9880 C   0  0  0  0  0  0  0  0  0  0  0  0
   57.6450   31.5650   51.7670 C   0  0  0  0  0  0  0  0  0  0  0  0
   58.6650   30.8800   51.0840 C   0  0  0  0  0  0  0  0  0  0  0  0
   59.9070   31.4880   50.8750 C   0  0  0  0  0  0  0  0  0  0  0  0
   60.1420   32.7840   51.3450 C   0  0  0  0  0  0  0  0  0  0  0  0
   61.7010   33.5440   51.0820 Cl  0  0  0  0  0  0  0  0  0  0  0  0
   59.1340   33.4720   52.0250 C   0  0  0  0  0  0  0  0  0  0  0  0
   57.8910   32.8680   52.2350 C   0  0  0  0  0  0  0  0  0  0  0  0
   55.1580   31.5860   52.0120 N   0  0  0  0  0  0  0  0  0  0  0  0
   51.6217   30.0985   50.6683 H   0  0  0  0  0  0  0  0  0  0  0  0
   53.0732   31.0582   50.1667 H   0  0  0  0  0  0  0  0  0  0  0  0
   52.6209   31.7796   52.8502 H   0  0  0  0  0  0  0  0  0  0  0  0
   52.3552   29.9945   52.7898 H   0  0  0  0  0  0  0  0  0  0  0  0
   58.4854   29.8605   50.7120 H   0  0  0  0  0  0  0  0  0  0  0  0
   60.7005   30.9458   50.3399 H   0  0  0  0  0  0  0  0  0  0  0  0
   59.3188   34.4910   52.3959 H   0  0  0  0  0  0  0  0  0  0  0  0
   57.1006   33.4152   52.7695 H   0  0  0  0  0  0  0  0  0  0  0  0
  1  2  2  0
  2  3  1  0
  2  4  1  0
  4  5  1  0
  5  6  1  0
  6  7  1  0
  7  8  2  0
  8  9  1  0
  9 10  1  0
 10 11  2  0
 11 12  1  0
 12 13  2  0
 13 14  1  0
 13 15  1  0
 15 16  2  0
  9 17  2  0
 17  6  1  0
 16 10  1  0
  4 18  1  0
  4 19  1  0
  5 20  1  0
  5 21  1  0
 11 22  1  0
 12 23  1  0
 15 24  1  0
 16 25  1  0
M  CHG  1   3  -1
M  END
>  <UniqueID>  (32) 
30

>  <SMILES>  (32) 
O=C([O-])CCn1nnc(-c2ccc(Cl)cc2)n1

>  <Energy>  (32) 
59.91412171205753

>  <Genealogy>  (32) 
O=C([O-])CCn1nnc(-c2ccc(Cl)cc2)n1 (protonated)
O=C([O-])CCn1nnc(-c2ccc(Cl)cc2)n1 (3D coordinates assigned)
O=C([O-])CCn1nnc(-c2ccc(Cl)cc2)n1 (optimized conformer: 59.91412171205753 kcal/mol)

>  <smiles>  (32) 
O=C(O)CCn1nnc(-c2ccc(Cl)cc2)n1

>  <score_type>  (32) 
oracle

>  <origin>  (32) 
adg

>  <m_score__min__energy>  (32) 
-10.050000000000001

>  <m_primary>  (32) 
energy

$$$$
32:0
     RDKit          3D

 57 61  0  0  0  0  0  0  0  0999 V2000
   63.7100   33.2600   46.8430 C   0  0  0  0  0  0  0  0  0  0  0  0
   62.4190   33.1990   47.4410 O   0  0  0  0  0  0  0  0  0  0  0  0
   61.9470   32.1170   48.2010 C   0  0  0  0  0  0  0  0  0  0  0  0
   61.8450   32.2770   49.5880 C   0  0  0  0  0  0  0  0  0  0  0  0
   61.3770   31.2330   50.3880 C   0  0  0  0  0  0  0  0  0  0  0  0
   61.0080   30.0170   49.8100 C   0  0  0  0  0  0  0  0  0  0  0  0
   61.1040   29.8290   48.4190 C   0  0  0  0  0  0  0  0  0  0  0  0
   60.7200   28.5710   47.8220 N   0  0  0  0  0  0  0  0  0  0  0  0
   60.7410   28.4000   46.3640 C   0  0  0  0  0  0  0  0  0  0  0  0
   60.8960   26.9170   46.0050 C   0  0  0  0  0  0  0  0  0  0  0  0
   59.8310   26.0670   46.5980 N   0  0  0  0  0  0  0  0  0  0  0  0
   58.7260   25.8430   45.6390 C   0  0  0  0  0  0  0  0  0  0  0  0
   57.5390   26.7770   45.9210 C   0  0  0  0  0  0  0  0  0  0  0  0
   57.8680   28.1640   45.5180 N   0  0  0  0  0  0  0  0  0  0  0  0
   57.9850   28.5150   44.1880 C   0  0  0  0  0  0  0  0  0  0  0  0
   57.7680   27.4180   42.9740 S   0  0  0  0  0  0  0  0  0  0  0  0
   58.2770   29.7980   43.8410 N   0  0  0  0  0  0  0  0  0  0  0  0
   58.4450   30.7670   44.7720 C   0  0  0  0  0  0  0  0  0  0  0  0
   58.7300   32.0050   44.3790 O   0  0  0  0  0  0  0  0  0  0  0  0
   58.9030   33.0110   45.2280 C   0  0  0  0  0  0  0  0  0  0  0  0
   59.2030   34.2860   44.7380 C   0  0  0  0  0  0  0  0  0  0  0  0
   59.3870   35.3540   45.6210 C   0  0  0  0  0  0  0  0  0  0  0  0
   59.2700   35.1510   46.9990 C   0  0  0  0  0  0  0  0  0  0  0  0
   58.9710   33.8810   47.5010 C   0  0  0  0  0  0  0  0  0  0  0  0
   58.7850   32.7980   46.6200 C   0  0  0  0  0  0  0  0  0  0  0  0
   58.4840   31.5030   47.0760 C   0  0  0  0  0  0  0  0  0  0  0  0
   58.3730   31.2840   48.3150 O   0  0  0  0  0  0  0  0  0  0  0  0
   58.3100   30.4610   46.1360 C   0  0  0  0  0  0  0  0  0  0  0  0
   58.0070   29.1290   46.4890 C   0  0  0  0  0  0  0  0  0  0  0  0
   57.8560   28.8220   47.7050 O   0  0  0  0  0  0  0  0  0  0  0  0
   59.3280   26.5480   47.9140 C   0  0  0  0  0  0  0  0  0  0  0  0
   60.3410   27.4260   48.6600 C   0  0  0  0  0  0  0  0  0  0  0  0
   61.5740   30.8890   47.6210 C   0  0  0  0  0  0  0  0  0  0  0  0
   64.4774   33.2963   47.6303 H   0  0  0  0  0  0  0  0  0  0  0  0
   63.8673   32.3683   46.2184 H   0  0  0  0  0  0  0  0  0  0  0  0
   63.7825   34.1626   46.2184 H   0  0  0  0  0  0  0  0  0  0  0  0
   62.1356   33.2318   50.0506 H   0  0  0  0  0  0  0  0  0  0  0  0
   61.2988   31.3689   51.4768 H   0  0  0  0  0  0  0  0  0  0  0  0
   60.6393   29.1995   50.4470 H   0  0  0  0  0  0  0  0  0  0  0  0
   59.7995   28.7796   45.9404 H   0  0  0  0  0  0  0  0  0  0  0  0
   61.5927   28.9596   45.9500 H   0  0  0  0  0  0  0  0  0  0  0  0
   60.8588   26.8145   44.9104 H   0  0  0  0  0  0  0  0  0  0  0  0
   61.8584   26.5759   46.4141 H   0  0  0  0  0  0  0  0  0  0  0  0
   59.0939   26.0301   44.6194 H   0  0  0  0  0  0  0  0  0  0  0  0
   58.3811   24.8039   45.7458 H   0  0  0  0  0  0  0  0  0  0  0  0
   56.6630   26.4321   45.3521 H   0  0  0  0  0  0  0  0  0  0  0  0
   57.3194   26.7605   46.9987 H   0  0  0  0  0  0  0  0  0  0  0  0
   58.3720   30.0550   42.8310 H   0  0  0  0  0  0  0  0  0  0  0  0
   59.2945   34.4490   43.6540 H   0  0  0  0  0  0  0  0  0  0  0  0
   59.6240   36.3549   45.2311 H   0  0  0  0  0  0  0  0  0  0  0  0
   59.4138   35.9938   47.6911 H   0  0  0  0  0  0  0  0  0  0  0  0
   58.8808   33.7272   48.5865 H   0  0  0  0  0  0  0  0  0  0  0  0
   58.4128   27.1347   47.7460 H   0  0  0  0  0  0  0  0  0  0  0  0
   59.1398   25.6616   48.5375 H   0  0  0  0  0  0  0  0  0  0  0  0
   59.8895   27.7910   49.5943 H   0  0  0  0  0  0  0  0  0  0  0  0
   61.2376   26.8312   48.8889 H   0  0  0  0  0  0  0  0  0  0  0  0
   61.6509   30.7567   46.5317 H   0  0  0  0  0  0  0  0  0  0  0  0
  1  2  1  0
  2  3  1  0
  3  4  2  0
  4  5  1  0
  5  6  2  0
  6  7  1  0
  7  8  1  0
  8  9  1  0
  9 10  1  0
 10 11  1  0
 11 12  1  0
 12 13  1  0
 13 14  1  0
 14 15  1  0
 15 16  2  0
 15 17  1  0
 17 18  1  0
 18 19  1  0
 19 20  1  0
 20 21  2  0
 21 22  1  0
 22 23  2  0
 23 24  1  0
 24 25  2  0
 25 26  1  0
 26 27  2  0
 26 28  1  0
 28 29  1  0
 29 30  2  0
 11 31  1  0
 31 32  1  0
  7 33  2  0
 33  3  1  0
 32  8  1  0
 29 14  1  0
 28 18  2  0
 25 20  1  0
  1 34  1  0
  1 35  1  0
  1 36  1  0
  4 37  1  0
  5 38  1  0
  6 39  1  0
  9 40  1  0
  9 41  1  0
 10 42  1  0
 10 43  1  0
 12 44  1  0
 12 45  1  0
 13 46  1  0
 13 47  1  0
 17 48  1  0
 21 49  1  0
 22 50  1  0
 23 51  1  0
 24 52  1  0
 31 53  1  0
 31 54  1  0
 32 55  1  0
 32 56  1  0
 33 57  1  0
M  END
>  <UniqueID>  (33) 
31

>  <SMILES>  (33) 
COc1cccc(N2CCN(CCn3c(=S)[nH]c4oc5ccccc5c(=O)c4c3=O)CC2)c1

>  <Energy>  (33) 
88.90125701491634

>  <Genealogy>  (33) 
COc1cccc(N2CCN(CCn3c(=S)[nH]c4oc5ccccc5c(=O)c4c3=O)CC2)c1 (3D coordinates assigned)
COc1cccc(N2CCN(CCn3c(=S)[nH]c4oc5ccccc5c(=O)c4c3=O)CC2)c1 (nonaromatic ring conformer: 88.90125701491634 kcal/mol)

>  <smiles>  (33) 
COc1cccc(N2CCN(CCn3c(=S)[nH]c4oc5ccccc5c(=O)c4c3=O)CC2)c1

>  <score_type>  (33) 
oracle

>  <origin>  (33) 
adg

>  <m_score__min__energy>  (33) 
-8.2799999999999994

>  <m_primary>  (33) 
energy

$$$$
33:0
     RDKit          3D

 34 36  0  0  0  0  0  0  0  0999 V2000
   55.4910   29.2880   44.9220 O   0  0  0  0  0  0  0  0  0  0  0  0
   56.4850   30.0130   44.6510 C   0  0  0  0  0  0  0  0  0  0  0  0
   57.8280   29.3840   44.4470 C   0  0  0  0  0  0  0  0  0  0  0  0
   58.3440   28.8660   45.7180 N   0  0  0  0  0  0  0  0  0  0  0  0
   58.0200   27.7050   46.3550 C   0  0  0  0  0  0  0  0  0  0  0  0
   57.0970   26.6590   45.7980 C   0  0  0  0  0  0  0  0  0  0  0  0
   55.7830   27.0810   45.8970 F   0  0  0  0  0  0  0  0  0  0  0  0
   57.2420   25.4840   46.5130 F   0  0  0  0  0  0  0  0  0  0  0  0
   57.3910   26.4290   44.4680 F   0  0  0  0  0  0  0  0  0  0  0  0
   58.6390   27.5610   47.5570 N   0  0  0  0  0  0  0  0  0  0  0  0
   59.3630   28.6890   47.6660 C   0  0  0  0  0  0  0  0  0  0  0  0
   60.1870   29.0660   48.7230 C   0  0  0  0  0  0  0  0  0  0  0  0
   60.8470   30.3070   48.6270 C   0  0  0  0  0  0  0  0  0  0  0  0
   60.6670   31.1270   47.4910 C   0  0  0  0  0  0  0  0  0  0  0  0
   59.8280   30.7150   46.4400 C   0  0  0  0  0  0  0  0  0  0  0  0
   59.1890   29.4780   46.5670 C   0  0  0  0  0  0  0  0  0  0  0  0
   56.3650   31.4400   44.6110 N   0  0  0  0  0  0  0  0  0  0  0  0
   57.3330   32.3990   45.0580 C   0  0  0  0  0  0  0  0  0  0  0  0
   57.3910   32.8390   46.3950 C   0  0  0  0  0  0  0  0  0  0  0  0
   58.3390   33.7920   46.7800 C   0  0  0  0  0  0  0  0  0  0  0  0
   59.2250   34.3210   45.8380 C   0  0  0  0  0  0  0  0  0  0  0  0
   59.1580   33.9060   44.5060 C   0  0  0  0  0  0  0  0  0  0  0  0
   58.2110   32.9540   44.1170 C   0  0  0  0  0  0  0  0  0  0  0  0
   57.7360   28.5565   43.7281 H   0  0  0  0  0  0  0  0  0  0  0  0
   58.5241   30.1427   44.0600 H   0  0  0  0  0  0  0  0  0  0  0  0
   60.3181   28.4178   49.6020 H   0  0  0  0  0  0  0  0  0  0  0  0
   61.5068   30.6395   49.4420 H   0  0  0  0  0  0  0  0  0  0  0  0
   61.1866   32.0945   47.4279 H   0  0  0  0  0  0  0  0  0  0  0  0
   59.6798   31.3438   45.5497 H   0  0  0  0  0  0  0  0  0  0  0  0
   56.6890   32.4320   47.1377 H   0  0  0  0  0  0  0  0  0  0  0  0
   58.3874   34.1260   47.8269 H   0  0  0  0  0  0  0  0  0  0  0  0
   59.9753   35.0643   46.1454 H   0  0  0  0  0  0  0  0  0  0  0  0
   59.8505   34.3283   43.7630 H   0  0  0  0  0  0  0  0  0  0  0  0
   58.1545   32.6382   43.0648 H   0  0  0  0  0  0  0  0  0  0  0  0
  1  2  2  0
  2  3  1  0
  3  4  1  0
  4  5  1  0
  5  6  1  0
  6  7  1  0
  6  8  1  0
  6  9  1  0
  5 10  2  0
 10 11  1  0
 11 12  2  0
 12 13  1  0
 13 14  2  0
 14 15  1  0
 15 16  2  0
  2 17  1  0
 17 18  1  0
 18 19  2  0
 19 20  1  0
 20 21  2  0
 21 22  1  0
 22 23  2  0
 16  4  1  0
 23 18  1  0
 16 11  1  0
  3 24  1  0
  3 25  1  0
 12 26  1  0
 13 27  1  0
 14 28  1  0
 15 29  1  0
 19 30  1  0
 20 31  1  0
 21 32  1  0
 22 33  1  0
 23 34  1  0
M  CHG  1  17  -1
M  END
>  <UniqueID>  (34) 
32

>  <SMILES>  (34) 
O=C(Cn1c(C(F)(F)F)nc2ccccc21)[N-]c1ccccc1

>  <Energy>  (34) 
75.00214401526333

>  <Genealogy>  (34) 
O=C(Cn1c(C(F)(F)F)nc2ccccc21)[N-]c1ccccc1 (protonated)
O=C(Cn1c(C(F)(F)F)nc2ccccc21)[N-]c1ccccc1 (3D coordinates assigned)
O=C(Cn1c(C(F)(F)F)nc2ccccc21)[N-]c1ccccc1 (optimized conformer: 75.00214401526333 kcal/mol)

>  <smiles>  (34) 
O=C(Cn1c(C(F)(F)F)nc2ccccc21)Nc1ccccc1

>  <score_type>  (34) 
oracle

>  <origin>  (34) 
adg

>  <m_score__min__energy>  (34) 
-8.3499999999999996

>  <m_primary>  (34) 
energy

$$$$
34:0
     RDKit          3D

 37 38  0  0  0  0  0  0  0  0999 V2000
   60.0940   29.9810   46.5200 C   0  0  0  0  0  0  0  0  0  0  0  0
   58.8920   30.1030   47.4500 C   0  0  0  0  0  0  0  0  0  0  0  0
   57.7830   29.4130   46.9050 O   0  0  0  0  0  0  0  0  0  0  0  0
   58.1970   28.2040   46.3020 C   0  0  0  0  0  0  0  0  0  0  0  0
   57.0810   27.6690   45.3950 C   0  0  1  0  0  0  0  0  0  0  0  0
   56.4050   26.4380   46.0340 C   0  0  0  0  0  0  0  0  0  0  0  0
   55.0120   26.5680   45.9770 O   0  0  0  0  0  0  0  0  0  0  0  0
   56.1140   28.7620   45.1520 N   0  0  0  0  0  0  0  0  0  0  0  0
   56.2040   29.3130   43.7930 C   0  0  0  0  0  0  0  0  0  0  0  0
   56.9160   30.6320   43.8200 C   0  0  0  0  0  0  0  0  0  0  0  0
   57.3250   31.3030   42.6700 C   0  0  0  0  0  0  0  0  0  0  0  0
   58.1240   32.7020   43.1500 S   0  0  0  0  0  0  0  0  0  0  0  0
   57.9160   32.3940   44.7910 C   0  0  0  0  0  0  0  0  0  0  0  0
   58.3950   33.2460   45.8840 C   0  0  0  0  0  0  0  0  0  0  0  0
   59.0260   34.4680   45.7510 C   0  0  0  0  0  0  0  0  0  0  0  0
   59.2910   34.8890   47.0360 C   0  0  0  0  0  0  0  0  0  0  0  0
   58.8090   33.9020   47.8710 C   0  0  0  0  0  0  0  0  0  0  0  0
   58.2810   32.9360   47.1550 O   0  0  0  0  0  0  0  0  0  0  0  0
   57.2480   31.2380   44.9930 N   0  0  0  0  0  0  0  0  0  0  0  0
   61.0124   29.8878   47.1182 H   0  0  0  0  0  0  0  0  0  0  0  0
   59.9777   29.0900   45.8854 H   0  0  0  0  0  0  0  0  0  0  0  0
   60.1591   30.8772   45.8854 H   0  0  0  0  0  0  0  0  0  0  0  0
   59.1443   29.6701   48.4293 H   0  0  0  0  0  0  0  0  0  0  0  0
   58.6331   31.1658   47.5659 H   0  0  0  0  0  0  0  0  0  0  0  0
   59.1005   28.3857   45.7015 H   0  0  0  0  0  0  0  0  0  0  0  0
   58.4163   27.4631   47.0850 H   0  0  0  0  0  0  0  0  0  0  0  0
   57.4980   27.3376   44.4326 H   0  0  0  0  0  0  0  0  0  0  0  0
   56.7082   25.5325   45.4880 H   0  0  0  0  0  0  0  0  0  0  0  0
   56.7160   26.3633   47.0865 H   0  0  0  0  0  0  0  0  0  0  0  0
   54.8040   27.4720   46.3330 H   0  0  0  0  0  0  0  0  0  0  0  0
   55.1330   28.4360   45.3210 H   0  0  0  0  0  0  0  0  0  0  0  0
   56.7593   28.6124   43.1520 H   0  0  0  0  0  0  0  0  0  0  0  0
   55.1890   29.4589   43.3949 H   0  0  0  0  0  0  0  0  0  0  0  0
   57.1556   30.9761   41.6335 H   0  0  0  0  0  0  0  0  0  0  0  0
   59.2664   34.9944   44.8155 H   0  0  0  0  0  0  0  0  0  0  0  0
   59.7870   35.8239   47.3358 H   0  0  0  0  0  0  0  0  0  0  0  0
   58.8593   33.9213   48.9697 H   0  0  0  0  0  0  0  0  0  0  0  0
  1  2  1  0
  2  3  1  0
  3  4  1  0
  4  5  1  0
  5  6  1  0
  6  7  1  0
  5  8  1  0
  8  9  1  0
  9 10  1  0
 10 11  2  0
 11 12  1  0
 12 13  1  0
 13 14  1  0
 14 15  2  0
 15 16  1  0
 16 17  2  0
 17 18  1  0
 13 19  2  0
 19 10  1  0
 18 14  1  0
  1 20  1  0
  1 21  1  0
  1 22  1  0
  2 23  1  0
  2 24  1  0
  4 25  1  0
  4 26  1  0
  5 27  1  6
  6 28  1  0
  6 29  1  0
  7 30  1  0
  8 31  1  0
  9 32  1  0
  9 33  1  0
 11 34  1  0
 15 35  1  0
 16 36  1  0
 17 37  1  0
M  END
>  <UniqueID>  (35) 
33

>  <SMILES>  (35) 
CCOC[C@@H](CO)NCc1csc(-c2ccco2)n1

>  <Energy>  (35) 
87.69231820201186

>  <Genealogy>  (35) 
CCOC[C@@H](CO)NCc1csc(-c2ccco2)n1 (chirality)
CCOC[C@@H](CO)NCc1csc(-c2ccco2)n1 (3D coordinates assigned)
CCOC[C@@H](CO)NCc1csc(-c2ccco2)n1 (optimized conformer: 87.69231820201186 kcal/mol)

>  <smiles>  (35) 
CCOCC(CO)NCc1csc(-c2ccco2)n1

>  <score_type>  (35) 
oracle

>  <origin>  (35) 
adg

>  <m_score__min__energy>  (35) 
-7.3399999999999999

>  <m_primary>  (35) 
energy

$$$$
35:0
     RDKit          3D

 45 47  0  0  1  0  0  0  0  0999 V2000
   54.6240   26.0210   45.9050 O   0  0  0  0  0  0  0  0  0  0  0  0
   55.9190   25.9460   46.3290 N   0  0  0  0  0  0  0  0  0  0  0  0
   56.7190   26.9340   46.0810 C   0  0  0  0  0  0  0  0  0  0  0  0
   56.1590   28.0690   45.5360 O   0  0  0  0  0  0  0  0  0  0  0  0
   58.1590   26.7770   46.3950 C   0  0  0  0  0  0  0  0  0  0  0  0
   58.9330   28.0080   46.0260 C   0  0  0  0  0  0  0  0  0  0  0  0
   58.7340   29.1690   46.9350 C   0  0  0  0  0  0  0  0  0  0  0  0
   59.0430   28.7650   48.3640 C   0  0  0  0  0  0  0  0  0  0  0  0
   58.9250   29.9780   49.2330 C   0  0  0  0  0  0  0  0  0  0  0  0
   58.2110   29.9960   50.3910 N   0  0  0  0  0  0  0  0  0  0  0  0
   58.3020   31.2220   50.9430 C   0  0  0  0  0  0  0  0  0  0  0  0
   57.7730   31.7630   52.1050 C   0  0  0  0  0  0  0  0  0  0  0  0
   58.0280   33.0750   52.4460 C   0  0  0  0  0  0  0  0  0  0  0  0
   58.8150   33.8270   51.6080 C   0  0  0  0  0  0  0  0  0  0  0  0
   59.3350   33.2730   50.4530 C   0  0  0  0  0  0  0  0  0  0  0  0
   59.0970   31.9580   50.0840 C   0  0  0  0  0  0  0  0  0  0  0  0
   59.4780   31.1870   49.0300 N   0  0  0  0  0  0  0  0  0  0  0  0
   60.3140   31.6110   47.9310 C   0  0  0  0  0  0  0  0  0  0  0  0
   59.6950   32.6190   47.0430 C   0  0  0  0  0  0  0  0  0  0  0  0
   60.2120   33.9110   46.9150 C   0  0  0  0  0  0  0  0  0  0  0  0
   59.6400   34.8510   46.0840 C   0  0  0  0  0  0  0  0  0  0  0  0
   58.5280   34.5650   45.3360 C   0  0  0  0  0  0  0  0  0  0  0  0
   57.9970   33.2990   45.4420 C   0  0  0  0  0  0  0  0  0  0  0  0
   58.5710   32.3600   46.2750 C   0  0  0  0  0  0  0  0  0  0  0  0
   54.2680   26.7150   45.2800 H   0  0  0  0  0  0  0  0  0  0  0  0
   55.1500   28.1590   45.5310 H   0  0  0  0  0  0  0  0  0  0  0  0
   58.2728   26.5916   47.4733 H   0  0  0  0  0  0  0  0  0  0  0  0
   58.5520   25.9311   45.8119 H   0  0  0  0  0  0  0  0  0  0  0  0
   60.0028   27.7522   46.0276 H   0  0  0  0  0  0  0  0  0  0  0  0
   58.5617   28.3216   45.0392 H   0  0  0  0  0  0  0  0  0  0  0  0
   59.4050   29.9870   46.6341 H   0  0  0  0  0  0  0  0  0  0  0  0
   57.6880   29.5035   46.8714 H   0  0  0  0  0  0  0  0  0  0  0  0
   58.3275   27.9985   48.6965 H   0  0  0  0  0  0  0  0  0  0  0  0
   60.0600   28.3508   48.4286 H   0  0  0  0  0  0  0  0  0  0  0  0
   57.1451   31.1411   52.7599 H   0  0  0  0  0  0  0  0  0  0  0  0
   57.6111   33.5087   53.3669 H   0  0  0  0  0  0  0  0  0  0  0  0
   59.0327   34.8760   51.8574 H   0  0  0  0  0  0  0  0  0  0  0  0
   59.9618   33.8998   49.8016 H   0  0  0  0  0  0  0  0  0  0  0  0
   61.2371   32.0405   48.3473 H   0  0  0  0  0  0  0  0  0  0  0  0
   60.4951   30.7190   47.3134 H   0  0  0  0  0  0  0  0  0  0  0  0
   61.1043   34.1871   47.4961 H   0  0  0  0  0  0  0  0  0  0  0  0
   60.0868   35.8541   46.0200 H   0  0  0  0  0  0  0  0  0  0  0  0
   58.0761   35.3192   44.6750 H   0  0  0  0  0  0  0  0  0  0  0  0
   57.1049   33.0329   44.8560 H   0  0  0  0  0  0  0  0  0  0  0  0
   58.1154   31.3604   46.3318 H   0  0  0  0  0  0  0  0  0  0  0  0
  1  2  1  0
  2  3  2  0
  3  4  1  0
  3  5  1  0
  5  6  1  0
  6  7  1  0
  7  8  1  0
  8  9  1  0
  9 10  2  0
 10 11  1  0
 11 12  2  0
 12 13  1  0
 13 14  2  0
 14 15  1  0
 15 16  2  0
 16 17  1  0
 17 18  1  0
 18 19  1  0
 19 20  2  0
 20 21  1  0
 21 22  2  0
 22 23  1  0
 23 24  2  0
 17  9  1  0
 24 19  1  0
 16 11  1  0
  1 25  1  0
  4 26  1  0
  5 27  1  0
  5 28  1  0
  6 29  1  0
  6 30  1  0
  7 31  1  0
  7 32  1  0
  8 33  1  0
  8 34  1  0
 12 35  1  0
 13 36  1  0
 14 37  1  0
 15 38  1  0
 18 39  1  0
 18 40  1  0
 20 41  1  0
 21 42  1  0
 22 43  1  0
 23 44  1  0
 24 45  1  0
M  END
>  <smiles>  (36) 
ON=C(O)CCCCc1nc2ccccc2n1Cc1ccccc1

>  <score_type>  (36) 
oracle

>  <origin>  (36) 
adg

>  <m_score__min__energy>  (36) 
-9.3699999999999992

>  <m_primary>  (36) 
energy

$$$$
36:0
     RDKit          3D

 36 39  0  0  0  0  0  0  0  0999 V2000
   55.5270   27.0510   45.9380 O   0  0  0  0  0  0  0  0  0  0  0  0
   56.7020   27.3860   45.6280 C   0  0  0  0  0  0  0  0  0  0  0  0
   57.6640   26.3560   45.3660 N   0  0  0  0  0  0  0  0  0  0  0  0
   57.3840   24.9580   45.1950 C   0  0  0  0  0  0  0  0  0  0  0  0
   56.9040   24.5120   43.9540 C   0  0  0  0  0  0  0  0  0  0  0  0
   56.6200   23.1570   43.7510 C   0  0  0  0  0  0  0  0  0  0  0  0
   56.8000   22.2440   44.7930 C   0  0  0  0  0  0  0  0  0  0  0  0
   57.2280   22.6900   46.0500 C   0  0  0  0  0  0  0  0  0  0  0  0
   57.5260   24.0400   46.2520 C   0  0  0  0  0  0  0  0  0  0  0  0
   57.3480   21.7670   47.0930 O   0  0  0  0  0  0  0  0  0  0  0  0
   56.7950   20.4520   46.9850 C   0  0  0  0  0  0  0  0  0  0  0  0
   56.9850   19.9120   45.5610 C   0  0  0  0  0  0  0  0  0  0  0  0
   56.5540   20.8810   44.6020 O   0  0  0  0  0  0  0  0  0  0  0  0
   57.0350   28.8260   45.5110 C   0  0  0  0  0  0  0  0  0  0  0  0
   58.1960   29.3200   46.1180 C   0  0  0  0  0  0  0  0  0  0  0  0
   58.5240   30.6730   45.9930 C   0  0  0  0  0  0  0  0  0  0  0  0
   59.6880   31.2030   46.5690 C   0  0  0  0  0  0  0  0  0  0  0  0
   59.9840   32.5620   46.4170 C   0  0  0  0  0  0  0  0  0  0  0  0
   59.1220   33.3920   45.6920 C   0  0  0  0  0  0  0  0  0  0  0  0
   57.9600   32.8680   45.1160 C   0  0  0  0  0  0  0  0  0  0  0  0
   57.6550   31.5110   45.2620 C   0  0  0  0  0  0  0  0  0  0  0  0
   56.5490   31.0160   44.7180 O   0  0  0  0  0  0  0  0  0  0  0  0
   56.2070   29.7340   44.8170 C   0  0  0  0  0  0  0  0  0  0  0  0
   55.1260   29.3500   44.2990 O   0  0  0  0  0  0  0  0  0  0  0  0
   56.7502   25.2316   43.1364 H   0  0  0  0  0  0  0  0  0  0  0  0
   56.2556   22.8112   42.7724 H   0  0  0  0  0  0  0  0  0  0  0  0
   57.8717   24.3853   47.2375 H   0  0  0  0  0  0  0  0  0  0  0  0
   57.3025   19.7848   47.6973 H   0  0  0  0  0  0  0  0  0  0  0  0
   55.7195   20.4954   47.2117 H   0  0  0  0  0  0  0  0  0  0  0  0
   58.0492   19.6873   45.3969 H   0  0  0  0  0  0  0  0  0  0  0  0
   56.3846   18.9981   45.4414 H   0  0  0  0  0  0  0  0  0  0  0  0
   58.8483   28.6452   46.6917 H   0  0  0  0  0  0  0  0  0  0  0  0
   60.3667   30.5515   47.1390 H   0  0  0  0  0  0  0  0  0  0  0  0
   60.8964   32.9788   46.8685 H   0  0  0  0  0  0  0  0  0  0  0  0
   59.3588   34.4598   45.5746 H   0  0  0  0  0  0  0  0  0  0  0  0
   57.2850   33.5244   44.5472 H   0  0  0  0  0  0  0  0  0  0  0  0
  1  2  2  0
  2  3  1  0
  3  4  1  0
  4  5  2  0
  5  6  1  0
  6  7  2  0
  7  8  1  0
  8  9  2  0
  8 10  1  0
 10 11  1  0
 11 12  1  0
 12 13  1  0
  2 14  1  0
 14 15  2  0
 15 16  1  0
 16 17  2  0
 17 18  1  0
 18 19  2  0
 19 20  1  0
 20 21  2  0
 21 22  1  0
 22 23  1  0
 23 24  2  0
  9  4  1  0
 23 14  1  0
 13  7  1  0
 21 16  1  0
  5 25  1  0
  6 26  1  0
  9 27  1  0
 11 28  1  0
 11 29  1  0
 12 30  1  0
 12 31  1  0
 15 32  1  0
 17 33  1  0
 18 34  1  0
 19 35  1  0
 20 36  1  0
M  CHG  1   3  -1
M  END
>  <UniqueID>  (37) 
34

>  <SMILES>  (37) 
O=C([N-]c1ccc2c(c1)OCCO2)c1cc2ccccc2oc1=O

>  <Energy>  (37) 
53.68278538027946

>  <Genealogy>  (37) 
O=C([N-]c1ccc2c(c1)OCCO2)c1cc2ccccc2oc1=O (protonated)
O=C([N-]c1ccc2c(c1)OCCO2)c1cc2ccccc2oc1=O (3D coordinates assigned)
O=C([N-]c1ccc2c(c1)OCCO2)c1cc2ccccc2oc1=O (nonaromatic ring conformer: 53.68278538027946 kcal/mol)

>  <smiles>  (37) 
O=C(Nc1ccc2c(c1)OCCO2)c1cc2ccccc2oc1=O

>  <score_type>  (37) 
oracle

>  <origin>  (37) 
adg

>  <m_score__min__energy>  (37) 
-9.7200000000000006

>  <m_primary>  (37) 
energy

$$$$
37:0
     RDKit          3D

 37 40  0  0  0  0  0  0  0  0999 V2000
   56.6340   30.3900   42.6160 C   0  0  0  0  0  0  0  0  0  0  0  0
   56.3020   30.0090   44.0580 C   0  0  0  0  0  0  0  0  0  0  0  0
   57.4870   30.1690   44.9350 N   0  0  0  0  0  0  0  0  0  0  0  0
   58.2480   29.0590   45.2570 C   0  0  0  0  0  0  0  0  0  0  0  0
   57.9440   27.7110   44.7340 C   0  0  0  0  0  0  0  0  0  0  0  0
   57.5380   26.6910   45.6080 C   0  0  0  0  0  0  0  0  0  0  0  0
   57.2600   25.4130   45.1130 C   0  0  0  0  0  0  0  0  0  0  0  0
   57.3940   25.1470   43.7470 C   0  0  0  0  0  0  0  0  0  0  0  0
   57.8080   26.1570   42.8750 C   0  0  0  0  0  0  0  0  0  0  0  0
   58.0870   27.4370   43.3660 C   0  0  0  0  0  0  0  0  0  0  0  0
   59.3560   29.1700   46.1020 C   0  0  0  0  0  0  0  0  0  0  0  0
   59.7210   30.3990   46.6260 C   0  0  0  0  0  0  0  0  0  0  0  0
   60.7200   30.4720   47.3940 O   0  0  0  0  0  0  0  0  0  0  0  0
   58.9830   31.5370   46.2880 C   0  0  0  0  0  0  0  0  0  0  0  0
   59.3200   32.8090   46.7710 C   0  0  0  0  0  0  0  0  0  0  0  0
   58.6220   33.9180   46.4290 C   0  0  0  0  0  0  0  0  0  0  0  0
   57.5310   33.8640   45.5770 C   0  0  0  0  0  0  0  0  0  0  0  0
   57.1490   32.6150   45.0660 C   0  0  0  0  0  0  0  0  0  0  0  0
   57.8560   31.4190   45.4160 C   0  0  0  0  0  0  0  0  0  0  0  0
   59.1730   35.0260   47.0430 O   0  0  0  0  0  0  0  0  0  0  0  0
   60.2920   34.5890   47.8230 C   0  0  0  0  0  0  0  0  0  0  0  0
   60.3520   33.1710   47.6210 O   0  0  0  0  0  0  0  0  0  0  0  0
   57.3567   31.2193   42.6130 H   0  0  0  0  0  0  0  0  0  0  0  0
   57.0693   29.5224   42.0985 H   0  0  0  0  0  0  0  0  0  0  0  0
   55.7150   30.7025   42.0985 H   0  0  0  0  0  0  0  0  0  0  0  0
   55.4928   30.6577   44.4245 H   0  0  0  0  0  0  0  0  0  0  0  0
   55.9894   28.9546   44.0793 H   0  0  0  0  0  0  0  0  0  0  0  0
   57.4383   26.8970   46.6839 H   0  0  0  0  0  0  0  0  0  0  0  0
   56.9357   24.6165   45.7988 H   0  0  0  0  0  0  0  0  0  0  0  0
   57.1733   24.1418   43.3586 H   0  0  0  0  0  0  0  0  0  0  0  0
   57.9147   25.9455   41.8008 H   0  0  0  0  0  0  0  0  0  0  0  0
   58.4188   28.2291   42.6786 H   0  0  0  0  0  0  0  0  0  0  0  0
   59.9428   28.2740   46.3528 H   0  0  0  0  0  0  0  0  0  0  0  0
   56.9789   34.7767   45.3083 H   0  0  0  0  0  0  0  0  0  0  0  0
   56.2892   32.5524   44.3827 H   0  0  0  0  0  0  0  0  0  0  0  0
   61.2181   35.0691   47.4739 H   0  0  0  0  0  0  0  0  0  0  0  0
   60.1834   34.8514   48.8857 H   0  0  0  0  0  0  0  0  0  0  0  0
  1  2  1  0
  2  3  1  0
  3  4  1  0
  4  5  1  0
  5  6  2  0
  6  7  1  0
  7  8  2  0
  8  9  1  0
  9 10  2  0
  4 11  2  0
 11 12  1  0
 12 13  2  0
 12 14  1  0
 14 15  2  0
 15 16  1  0
 16 17  2  0
 17 18  1  0
 18 19  2  0
 16 20  1  0
 20 21  1  0
 21 22  1  0
 19  3  1  0
 10  5  1  0
 19 14  1  0
 22 15  1  0
  1 23  1  0
  1 24  1  0
  1 25  1  0
  2 26  1  0
  2 27  1  0
  6 28  1  0
  7 29  1  0
  8 30  1  0
  9 31  1  0
 10 32  1  0
 11 33  1  0
 17 34  1  0
 18 35  1  0
 21 36  1  0
 21 37  1  0
M  END
>  <UniqueID>  (38) 
35

>  <SMILES>  (38) 
CCn1c(-c2ccccc2)cc(=O)c2c3c(ccc21)OCO3

>  <Energy>  (38) 
86.69323945782168

>  <Genealogy>  (38) 
CCn1c(-c2ccccc2)cc(=O)c2c3c(ccc21)OCO3 (3D coordinates assigned)
CCn1c(-c2ccccc2)cc(=O)c2c3c(ccc21)OCO3 (nonaromatic ring conformer: 86.69323945782168 kcal/mol)

>  <smiles>  (38) 
CCn1c(-c2ccccc2)cc(=O)c2c3c(ccc21)OCO3

>  <score_type>  (38) 
oracle

>  <origin>  (38) 
adg

>  <m_score__min__energy>  (38) 
-6.71

>  <m_primary>  (38) 
energy

$$$$
38:0
     RDKit          3D

 46 49  0  0  0  0  0  0  0  0999 V2000
   58.9040   34.8620   47.1040 C   0  0  0  0  0  0  0  0  0  0  0  0
   59.7160   35.1810   46.0230 C   0  0  0  0  0  0  0  0  0  0  0  0
   59.2660   34.2180   44.7200 S   0  0  0  0  0  0  0  0  0  0  0  0
   58.0430   33.3890   45.5230 C   0  0  0  0  0  0  0  0  0  0  0  0
   57.1610   32.3420   44.9170 C   0  0  0  0  0  0  0  0  0  0  0  0
   57.3930   31.0420   45.5620 N   0  0  0  0  0  0  0  0  0  0  0  0
   58.7110   30.4710   45.2300 C   0  0  0  0  0  0  0  0  0  0  0  0
   59.0910   29.3010   46.1600 C   0  0  0  0  0  0  0  0  0  0  0  0
   58.9810   29.6890   47.6370 C   0  0  0  0  0  0  0  0  0  0  0  0
   59.1460   31.1310   47.7790 N   0  0  0  0  0  0  0  0  0  0  0  0
   59.6840   31.8870   48.7060 C   0  0  0  0  0  0  0  0  0  0  0  0
   60.9330   32.4820   48.3880 C   0  0  0  0  0  0  0  0  0  0  0  0
   61.6450   32.1280   47.2150 C   0  0  0  0  0  0  0  0  0  0  0  0
   62.8600   32.7430   46.9060 C   0  0  0  0  0  0  0  0  0  0  0  0
   63.3850   33.7210   47.7480 C   0  0  0  0  0  0  0  0  0  0  0  0
   62.6960   34.0900   48.9030 C   0  0  0  0  0  0  0  0  0  0  0  0
   61.4730   33.4780   49.2310 C   0  0  0  0  0  0  0  0  0  0  0  0
   60.8060   33.8630   50.3500 N   0  0  0  0  0  0  0  0  0  0  0  0
   59.6470   33.2680   50.7380 C   0  0  0  0  0  0  0  0  0  0  0  0
   59.0400   33.6800   51.9370 C   0  0  0  0  0  0  0  0  0  0  0  0
   57.8980   33.0430   52.4100 C   0  0  0  0  0  0  0  0  0  0  0  0
   57.3680   31.9660   51.7090 C   0  0  0  0  0  0  0  0  0  0  0  0
   57.9510   31.5460   50.5110 C   0  0  0  0  0  0  0  0  0  0  0  0
   59.0680   32.2220   49.9600 C   0  0  0  0  0  0  0  0  0  0  0  0
   57.9670   33.8610   46.8260 C   0  0  0  0  0  0  0  0  0  0  0  0
   58.9897   35.3504   48.0859 H   0  0  0  0  0  0  0  0  0  0  0  0
   60.5169   35.9350   46.0199 H   0  0  0  0  0  0  0  0  0  0  0  0
   56.1085   32.6315   45.0528 H   0  0  0  0  0  0  0  0  0  0  0  0
   57.3935   32.2556   43.8453 H   0  0  0  0  0  0  0  0  0  0  0  0
   57.3090   31.1570   46.5990 H   0  0  0  0  0  0  0  0  0  0  0  0
   58.6874   30.1056   44.1927 H   0  0  0  0  0  0  0  0  0  0  0  0
   59.4638   31.2626   45.3591 H   0  0  0  0  0  0  0  0  0  0  0  0
   58.4154   28.4557   45.9628 H   0  0  0  0  0  0  0  0  0  0  0  0
   60.1367   29.0278   45.9555 H   0  0  0  0  0  0  0  0  0  0  0  0
   57.9928   29.3944   48.0200 H   0  0  0  0  0  0  0  0  0  0  0  0
   59.7669   29.1739   48.2089 H   0  0  0  0  0  0  0  0  0  0  0  0
   61.2363   31.3608   46.5409 H   0  0  0  0  0  0  0  0  0  0  0  0
   63.4044   32.4543   45.9948 H   0  0  0  0  0  0  0  0  0  0  0  0
   64.3430   34.2022   47.5018 H   0  0  0  0  0  0  0  0  0  0  0  0
   63.1123   34.8657   49.5625 H   0  0  0  0  0  0  0  0  0  0  0  0
   61.2140   34.6200   50.9460 H   0  0  0  0  0  0  0  0  0  0  0  0
   59.4729   34.5151   52.5072 H   0  0  0  0  0  0  0  0  0  0  0  0
   57.4157   33.3902   53.3357 H   0  0  0  0  0  0  0  0  0  0  0  0
   56.4839   31.4411   52.1001 H   0  0  0  0  0  0  0  0  0  0  0  0
   57.5351   30.6739   49.9853 H   0  0  0  0  0  0  0  0  0  0  0  0
   57.2436   33.4861   47.5650 H   0  0  0  0  0  0  0  0  0  0  0  0
  1  2  2  0
  2  3  1  0
  3  4  1  0
  4  5  1  0
  5  6  1  0
  6  7  1  0
  7  8  1  0
  8  9  1  0
  9 10  1  0
 10 11  2  3
 11 12  1  0
 12 13  2  0
 13 14  1  0
 14 15  2  0
 15 16  1  0
 16 17  2  0
 17 18  1  0
 18 19  1  0
 19 20  2  0
 20 21  1  0
 21 22  2  0
 22 23  1  0
 23 24  2  0
  4 25  2  0
 25  1  1  0
 24 11  1  0
 17 12  1  0
 24 19  1  0
  1 26  1  0
  2 27  1  0
  5 28  1  0
  5 29  1  0
  6 30  1  0
  7 31  1  0
  7 32  1  0
  8 33  1  0
  8 34  1  0
  9 35  1  0
  9 36  1  0
 13 37  1  0
 14 38  1  0
 15 39  1  0
 16 40  1  0
 18 41  1  0
 20 42  1  0
 21 43  1  0
 22 44  1  0
 23 45  1  0
 25 46  1  0
M  END
>  <UniqueID>  (39) 
36

>  <SMILES>  (39) 
c1csc(CNCCCN=c2c3ccccc3[nH]c3ccccc23)c1

>  <Energy>  (39) 
96.63071403764711

>  <Genealogy>  (39) 
c1csc(CNCCCN=c2c3ccccc3[nH]c3ccccc23)c1 (3D coordinates assigned)
c1csc(CNCCCN=c2c3ccccc3[nH]c3ccccc23)c1 (optimized conformer: 96.63071403764711 kcal/mol)

>  <smiles>  (39) 
c1csc(CNCCCN=c2c3ccccc3[nH]c3ccccc23)c1

>  <score_type>  (39) 
oracle

>  <origin>  (39) 
adg

>  <m_score__min__energy>  (39) 
-7.46

>  <m_primary>  (39) 
energy

$$$$
39:0
     RDKit          3D

 43 47  0  0  0  0  0  0  0  0999 V2000
   63.5220   33.4760   46.7520 C   0  0  0  0  0  0  0  0  0  0  0  0
   62.8560   32.8670   47.9990 C   0  0  0  0  0  0  0  0  0  0  0  0
   61.3780   33.0020   48.0730 N   0  0  1  0  0  0  0  0  0  0  0  0
   60.8380   34.2100   47.3780 C   0  0  0  0  0  0  0  0  0  0  0  0
   60.0670   33.6230   46.2280 C   0  0  2  0  0  0  0  0  0  0  0  0
   59.0490   34.2270   45.2610 C   0  0  0  0  0  0  0  0  0  0  0  0
   58.4830   32.9290   44.7420 C   0  0  0  0  0  0  0  0  0  0  0  0
   57.7760   32.7160   43.5600 C   0  0  0  0  0  0  0  0  0  0  0  0
   57.3690   31.4080   43.2470 C   0  0  0  0  0  0  0  0  0  0  0  0
   57.6660   30.3390   44.1160 C   0  0  0  0  0  0  0  0  0  0  0  0
   58.3740   30.5670   45.3080 C   0  0  0  0  0  0  0  0  0  0  0  0
   58.7990   31.8640   45.5860 C   0  0  0  0  0  0  0  0  0  0  0  0
   59.3950   32.4070   46.8430 C   0  0  2  0  0  0  0  0  0  0  0  0
   58.1950   32.7600   47.8410 C   0  0  0  0  0  0  0  0  0  0  0  0
   58.3510   32.3460   49.3250 C   0  0  0  0  0  0  0  0  0  0  0  0
   59.1800   31.1170   49.4480 C   0  0  0  0  0  0  0  0  0  0  0  0
   59.0800   30.1800   50.3590 O   0  0  0  0  0  0  0  0  0  0  0  0
   60.0510   29.3110   50.1500 C   0  0  0  0  0  0  0  0  0  0  0  0
   60.8180   29.7060   49.0660 C   0  0  0  0  0  0  0  0  0  0  0  0
   60.2300   30.8690   48.6230 C   0  0  0  0  0  0  0  0  0  0  0  0
   60.6370   31.8070   47.5330 C   0  0  2  0  0  0  0  0  0  0  0  0
   64.3007   34.1880   47.0630 H   0  0  0  0  0  0  0  0  0  0  0  0
   63.9767   32.6748   46.1509 H   0  0  0  0  0  0  0  0  0  0  0  0
   62.7645   34.0004   46.1509 H   0  0  0  0  0  0  0  0  0  0  0  0
   63.0986   31.7943   48.0215 H   0  0  0  0  0  0  0  0  0  0  0  0
   63.2512   33.4328   48.8556 H   0  0  0  0  0  0  0  0  0  0  0  0
   61.1560   33.1220   49.0900 H   0  0  0  0  0  0  0  0  0  0  0  0
   60.1782   34.7866   48.0429 H   0  0  0  0  0  0  0  0  0  0  0  0
   61.6216   34.9134   47.0601 H   0  0  0  0  0  0  0  0  0  0  0  0
   60.8840   33.6433   45.4917 H   0  0  0  0  0  0  0  0  0  0  0  0
   58.2930   34.8382   45.7757 H   0  0  0  0  0  0  0  0  0  0  0  0
   59.4440   34.9244   44.5076 H   0  0  0  0  0  0  0  0  0  0  0  0
   57.5417   33.5537   42.8867 H   0  0  0  0  0  0  0  0  0  0  0  0
   56.8143   31.2170   42.3165 H   0  0  0  0  0  0  0  0  0  0  0  0
   57.3415   29.3197   43.8595 H   0  0  0  0  0  0  0  0  0  0  0  0
   58.5872   29.7422   46.0039 H   0  0  0  0  0  0  0  0  0  0  0  0
   58.0568   33.8510   47.8165 H   0  0  0  0  0  0  0  0  0  0  0  0
   57.3435   32.1682   47.4741 H   0  0  0  0  0  0  0  0  0  0  0  0
   58.8353   33.1641   49.8783 H   0  0  0  0  0  0  0  0  0  0  0  0
   57.3531   32.1402   49.7396 H   0  0  0  0  0  0  0  0  0  0  0  0
   60.2258   28.4052   50.7491 H   0  0  0  0  0  0  0  0  0  0  0  0
   61.7026   29.2011   48.6506 H   0  0  0  0  0  0  0  0  0  0  0  0
   61.2624   31.2145   46.8490 H   0  0  0  0  0  0  0  0  0  0  0  0
  1  2  1  0
  2  3  1  0
  3  4  1  0
  4  5  1  0
  5  6  1  0
  6  7  1  0
  7  8  2  0
  8  9  1  0
  9 10  2  0
 10 11  1  0
 11 12  2  0
 12 13  1  0
 13 14  1  1
 14 15  1  0
 15 16  1  0
 16 17  1  0
 17 18  1  0
 18 19  2  0
 19 20  1  0
 20 21  1  0
 21  3  1  0
 13  5  1  0
 20 16  2  0
 12  7  1  0
 21 13  1  0
  1 22  1  0
  1 23  1  0
  1 24  1  0
  2 25  1  0
  2 26  1  0
  3 27  1  1
  4 28  1  0
  4 29  1  0
  5 30  1  6
  6 31  1  0
  6 32  1  0
  8 33  1  0
  9 34  1  0
 10 35  1  0
 11 36  1  0
 14 37  1  0
 14 38  1  0
 15 39  1  0
 15 40  1  0
 18 41  1  0
 19 42  1  0
 21 43  1  6
M  CHG  1   3   1
M  END
>  <UniqueID>  (40) 
37

>  <SMILES>  (40) 
CC[N@H+]1C[C@@H]2Cc3ccccc3C23CCc2occc2C13

>  <Energy>  (40) 
142.92497213915192

>  <Genealogy>  (40) 
CC[NH+]1CC2Cc3ccccc3C23CCc2occc2C13 (protonated)
CC[N@H+]1C[C@@H]2Cc3ccccc3C23CCc2occc2C13 (chirality)
CC[N@H+]1C[C@@H]2Cc3ccccc3C23CCc2occc2C13 (3D coordinates assigned)
CC[N@H+]1C[C@@H]2Cc3ccccc3C23CCc2occc2C13 (nonaromatic ring conformer: 142.92497213915192 kcal/mol)

>  <smiles>  (40) 
CCN1CC2Cc3ccccc3C23CCc2occc2C13

>  <score_type>  (40) 
oracle

>  <origin>  (40) 
adg

>  <m_score__min__energy>  (40) 
-5.9699999999999998

>  <m_primary>  (40) 
energy

$$$$
40:0
     RDKit          3D

 43 45  0  0  0  0  0  0  0  0999 V2000
   58.1220   26.9060   42.9520 C   0  0  0  0  0  0  0  0  0  0  0  0
   57.4080   28.2550   42.9900 C   0  0  0  0  0  0  0  0  0  0  0  0
   57.4640   28.8310   44.3400 N   0  0  0  0  0  0  0  0  0  0  0  0
   56.7620   30.0620   44.6170 C   0  0  0  0  0  0  0  0  0  0  0  0
   55.5050   30.0990   44.5110 O   0  0  0  0  0  0  0  0  0  0  0  0
   57.4830   31.2910   45.0260 C   0  0  0  0  0  0  0  0  0  0  0  0
   58.1080   31.3760   46.2830 C   0  0  0  0  0  0  0  0  0  0  0  0
   58.7870   32.5380   46.6590 C   0  0  0  0  0  0  0  0  0  0  0  0
   58.8380   33.6340   45.7910 C   0  0  0  0  0  0  0  0  0  0  0  0
   59.7040   35.1260   46.2780 S   0  0  0  0  0  0  0  0  0  0  0  0
   60.9860   34.2120   47.1370 C   0  0  0  0  0  0  0  0  0  0  0  0
   62.0690   33.6830   46.4240 C   0  0  0  0  0  0  0  0  0  0  0  0
   63.0710   32.9750   47.0960 C   0  0  0  0  0  0  0  0  0  0  0  0
   62.9900   32.7910   48.4800 C   0  0  0  0  0  0  0  0  0  0  0  0
   61.9060   33.3130   49.1930 C   0  0  0  0  0  0  0  0  0  0  0  0
   60.9040   34.0230   48.5220 C   0  0  0  0  0  0  0  0  0  0  0  0
   58.2100   33.5630   44.5440 C   0  0  0  0  0  0  0  0  0  0  0  0
   57.5310   32.4010   44.1640 C   0  0  0  0  0  0  0  0  0  0  0  0
   58.4140   28.3060   45.2910 C   0  0  0  0  0  0  0  0  0  0  0  0
   59.7850   28.5890   45.1560 C   0  0  0  0  0  0  0  0  0  0  0  0
   60.7040   28.0880   46.0820 C   0  0  0  0  0  0  0  0  0  0  0  0
   60.2650   27.3030   47.1510 C   0  0  0  0  0  0  0  0  0  0  0  0
   58.9040   27.0160   47.2940 C   0  0  0  0  0  0  0  0  0  0  0  0
   57.9820   27.5150   46.3700 C   0  0  0  0  0  0  0  0  0  0  0  0
   58.3055   26.5592   43.9796 H   0  0  0  0  0  0  0  0  0  0  0  0
   57.4936   26.1733   42.4245 H   0  0  0  0  0  0  0  0  0  0  0  0
   59.0812   27.0136   42.4245 H   0  0  0  0  0  0  0  0  0  0  0  0
   57.8957   28.9423   42.2831 H   0  0  0  0  0  0  0  0  0  0  0  0
   56.3544   28.1069   42.7108 H   0  0  0  0  0  0  0  0  0  0  0  0
   58.0620   30.5220   46.9748 H   0  0  0  0  0  0  0  0  0  0  0  0
   59.2825   32.5911   47.6396 H   0  0  0  0  0  0  0  0  0  0  0  0
   62.1318   33.8243   45.3349 H   0  0  0  0  0  0  0  0  0  0  0  0
   63.9231   32.5628   46.5356 H   0  0  0  0  0  0  0  0  0  0  0  0
   63.7791   32.2355   49.0079 H   0  0  0  0  0  0  0  0  0  0  0  0
   61.8410   33.1655   50.2811 H   0  0  0  0  0  0  0  0  0  0  0  0
   60.0513   34.4330   49.0831 H   0  0  0  0  0  0  0  0  0  0  0  0
   58.2501   34.4235   43.8599 H   0  0  0  0  0  0  0  0  0  0  0  0
   57.0315   32.3550   43.1850 H   0  0  0  0  0  0  0  0  0  0  0  0
   60.1358   29.2080   44.3171 H   0  0  0  0  0  0  0  0  0  0  0  0
   61.7750   28.3122   45.9690 H   0  0  0  0  0  0  0  0  0  0  0  0
   60.9896   26.9109   47.8798 H   0  0  0  0  0  0  0  0  0  0  0  0
   58.5586   26.3966   48.1349 H   0  0  0  0  0  0  0  0  0  0  0  0
   56.9122   27.2876   46.4876 H   0  0  0  0  0  0  0  0  0  0  0  0
  1  2  1  0
  2  3  1  0
  3  4  1  0
  4  5  2  0
  4  6  1  0
  6  7  2  0
  7  8  1  0
  8  9  2  0
  9 10  1  0
 10 11  1  0
 11 12  2  0
 12 13  1  0
 13 14  2  0
 14 15  1  0
 15 16  2  0
  9 17  1  0
 17 18  2  0
  3 19  1  0
 19 20  2  0
 20 21  1  0
 21 22  2  0
 22 23  1  0
 23 24  2  0
 18  6  1  0
 24 19  1  0
 16 11  1  0
  1 25  1  0
  1 26  1  0
  1 27  1  0
  2 28  1  0
  2 29  1  0
  7 30  1  0
  8 31  1  0
 12 32  1  0
 13 33  1  0
 14 34  1  0
 15 35  1  0
 16 36  1  0
 17 37  1  0
 18 38  1  0
 20 39  1  0
 21 40  1  0
 22 41  1  0
 23 42  1  0
 24 43  1  0
M  END
>  <UniqueID>  (41) 
38

>  <SMILES>  (41) 
CCN(C(=O)c1ccc(Sc2ccccc2)cc1)c1ccccc1

>  <Energy>  (41) 
46.74794679649091

>  <Genealogy>  (41) 
CCN(C(=O)c1ccc(Sc2ccccc2)cc1)c1ccccc1 (3D coordinates assigned)
CCN(C(=O)c1ccc(Sc2ccccc2)cc1)c1ccccc1 (optimized conformer: 46.74794679649091 kcal/mol)

>  <smiles>  (41) 
CCN(C(=O)c1ccc(Sc2ccccc2)cc1)c1ccccc1

>  <score_type>  (41) 
oracle

>  <origin>  (41) 
adg

>  <m_score__min__energy>  (41) 
-8.8000000000000007

>  <m_primary>  (41) 
energy

$$$$
41:0
     RDKit          3D

 33 36  0  0  0  0  0  0  0  0999 V2000
   65.0210   32.3360   50.0460 C   0  0  0  0  0  0  0  0  0  0  0  0
   63.8580   31.8840   49.3620 O   0  0  0  0  0  0  0  0  0  0  0  0
   63.1890   32.6660   48.4170 C   0  0  0  0  0  0  0  0  0  0  0  0
   63.8050   33.0900   47.2700 N   0  0  0  0  0  0  0  0  0  0  0  0
   63.1400   33.8530   46.3420 C   0  0  0  0  0  0  0  0  0  0  0  0
   61.8360   34.2120   46.5450 N   0  0  0  0  0  0  0  0  0  0  0  0
   61.2350   33.7940   47.6850 C   0  0  0  0  0  0  0  0  0  0  0  0
   61.8680   33.0390   48.6120 C   0  0  0  0  0  0  0  0  0  0  0  0
   61.0360   32.7360   49.6260 N   0  0  0  0  0  0  0  0  0  0  0  0
   59.8780   33.3520   49.2560 C   0  0  0  0  0  0  0  0  0  0  0  0
   59.9740   34.0150   48.0760 N   0  0  0  0  0  0  0  0  0  0  0  0
   58.9080   34.6960   47.3470 C   0  0  0  0  0  0  0  0  0  0  0  0
   58.4870   33.8690   46.1650 C   0  0  0  0  0  0  0  0  0  0  0  0
   58.8770   34.2450   44.8530 C   0  0  0  0  0  0  0  0  0  0  0  0
   58.5230   33.4500   43.7480 C   0  0  0  0  0  0  0  0  0  0  0  0
   57.7940   32.2910   43.9890 C   0  0  0  0  0  0  0  0  0  0  0  0
   57.4280   31.9180   45.2420 C   0  0  0  0  0  0  0  0  0  0  0  0
   57.7570   32.6760   46.3620 C   0  0  0  0  0  0  0  0  0  0  0  0
   56.7240   30.7320   45.1810 O   0  0  0  0  0  0  0  0  0  0  0  0
   56.6420   30.3340   43.8060 C   0  0  0  0  0  0  0  0  0  0  0  0
   57.3380   31.3570   43.0790 O   0  0  0  0  0  0  0  0  0  0  0  0
   64.8560   32.2719   51.1317 H   0  0  0  0  0  0  0  0  0  0  0  0
   65.8784   31.7056   49.7676 H   0  0  0  0  0  0  0  0  0  0  0  0
   65.2277   33.3799   49.7676 H   0  0  0  0  0  0  0  0  0  0  0  0
   63.6599   34.1779   45.4287 H   0  0  0  0  0  0  0  0  0  0  0  0
   58.9562   33.3153   49.8550 H   0  0  0  0  0  0  0  0  0  0  0  0
   58.0462   34.8433   48.0145 H   0  0  0  0  0  0  0  0  0  0  0  0
   59.2762   35.6707   46.9942 H   0  0  0  0  0  0  0  0  0  0  0  0
   59.4603   35.1648   44.6993 H   0  0  0  0  0  0  0  0  0  0  0  0
   58.8135   33.7360   42.7263 H   0  0  0  0  0  0  0  0  0  0  0  0
   57.4574   32.3555   47.3707 H   0  0  0  0  0  0  0  0  0  0  0  0
   57.1256   29.3573   43.6571 H   0  0  0  0  0  0  0  0  0  0  0  0
   55.6003   30.2252   43.4696 H   0  0  0  0  0  0  0  0  0  0  0  0
  1  2  1  0
  2  3  1  0
  3  4  2  0
  4  5  1  0
  5  6  2  0
  6  7  1  0
  7  8  2  0
  8  9  1  0
  9 10  2  0
 10 11  1  0
 11 12  1  0
 12 13  1  0
 13 14  2  0
 14 15  1  0
 15 16  2  0
 16 17  1  0
 17 18  2  0
 17 19  1  0
 19 20  1  0
 20 21  1  0
  8  3  1  0
 18 13  1  0
 11  7  1  0
 21 16  1  0
  1 22  1  0
  1 23  1  0
  1 24  1  0
  5 25  1  0
 10 26  1  0
 12 27  1  0
 12 28  1  0
 14 29  1  0
 15 30  1  0
 18 31  1  0
 20 32  1  0
 20 33  1  0
M  END
>  <UniqueID>  (42) 
39

>  <SMILES>  (42) 
COc1ncnc2c1ncn2Cc1ccc2c(c1)OCO2

>  <Energy>  (42) 
101.83989237722619

>  <Genealogy>  (42) 
COc1ncnc2c1ncn2Cc1ccc2c(c1)OCO2 (3D coordinates assigned)
COc1ncnc2c1ncn2Cc1ccc2c(c1)OCO2 (nonaromatic ring conformer: 101.83989237722619 kcal/mol)

>  <smiles>  (42) 
COc1ncnc2c1ncn2Cc1ccc2c(c1)OCO2

>  <score_type>  (42) 
oracle

>  <origin>  (42) 
adg

>  <m_score__min__energy>  (42) 
-6.5899999999999999

>  <m_primary>  (42) 
energy

$$$$
42:0
     RDKit          3D

 24 25  0  0  0  0  0  0  0  0999 V2000
   55.6490   28.7970   44.8560 N   0  0  0  0  0  0  0  0  0  0  0  0
   56.3730   29.8890   44.2850 C   0  0  0  0  0  0  0  0  0  0  0  0
   56.3260   30.1200   42.9030 C   0  0  0  0  0  0  0  0  0  0  0  0
   57.0330   31.1860   42.3450 C   0  0  0  0  0  0  0  0  0  0  0  0
   57.7880   32.0320   43.1610 C   0  0  0  0  0  0  0  0  0  0  0  0
   57.8420   31.8190   44.5500 C   0  0  0  0  0  0  0  0  0  0  0  0
   58.6500   32.7090   45.4190 C   0  0  0  0  0  0  0  0  0  0  0  0
   59.5780   32.1570   46.3220 C   0  0  0  0  0  0  0  0  0  0  0  0
   60.3480   32.9860   47.1420 C   0  0  0  0  0  0  0  0  0  0  0  0
   60.1990   34.3730   47.0740 C   0  0  0  0  0  0  0  0  0  0  0  0
   59.2770   34.9330   46.1870 C   0  0  0  0  0  0  0  0  0  0  0  0
   58.5020   34.1100   45.3630 C   0  0  0  0  0  0  0  0  0  0  0  0
   57.5880   34.6810   44.5380 F   0  0  0  0  0  0  0  0  0  0  0  0
   57.1320   30.7380   45.1030 C   0  0  0  0  0  0  0  0  0  0  0  0
   54.7860   28.9640   45.4210 H   0  0  0  0  0  0  0  0  0  0  0  0
   55.9690   27.8120   44.7190 H   0  0  0  0  0  0  0  0  0  0  0  0
   55.7300   29.4590   42.2565 H   0  0  0  0  0  0  0  0  0  0  0  0
   56.9957   31.3606   41.2596 H   0  0  0  0  0  0  0  0  0  0  0  0
   58.3436   32.8698   42.7144 H   0  0  0  0  0  0  0  0  0  0  0  0
   59.6979   31.0652   46.3826 H   0  0  0  0  0  0  0  0  0  0  0  0
   61.0728   32.5454   47.8423 H   0  0  0  0  0  0  0  0  0  0  0  0
   60.8076   35.0241   47.7188 H   0  0  0  0  0  0  0  0  0  0  0  0
   59.1597   36.0255   46.1361 H   0  0  0  0  0  0  0  0  0  0  0  0
   57.1726   30.5570   46.1872 H   0  0  0  0  0  0  0  0  0  0  0  0
  1  2  1  0
  2  3  2  0
  3  4  1  0
  4  5  2  0
  5  6  1  0
  6  7  1  0
  7  8  2  0
  8  9  1  0
  9 10  2  0
 10 11  1  0
 11 12  2  0
 12 13  1  0
  6 14  2  0
 14  2  1  0
 12  7  1  0
  1 15  1  0
  1 16  1  0
  3 17  1  0
  4 18  1  0
  5 19  1  0
  8 20  1  0
  9 21  1  0
 10 22  1  0
 11 23  1  0
 14 24  1  0
M  END
>  <UniqueID>  (43) 
40

>  <SMILES>  (43) 
Nc1cccc(-c2ccccc2F)c1

>  <Energy>  (43) 
30.017464651911368

>  <Genealogy>  (43) 
Nc1cccc(-c2ccccc2F)c1 (3D coordinates assigned)
Nc1cccc(-c2ccccc2F)c1 (optimized conformer: 30.017464651911368 kcal/mol)

>  <smiles>  (43) 
Nc1cccc(-c2ccccc2F)c1

>  <score_type>  (43) 
oracle

>  <origin>  (43) 
adg

>  <m_score__min__energy>  (43) 
-6.8399999999999999

>  <m_primary>  (43) 
energy

$$$$
43:0
     RDKit          3D

 27 28  0  0  0  0  0  0  0  0999 V2000
   60.6850   28.9560   45.1760 C   0  0  0  0  0  0  0  0  0  0  0  0
   59.4460   28.2020   45.5780 C   0  0  0  0  0  0  0  0  0  0  0  0
   59.5290   27.2430   46.6020 C   0  0  0  0  0  0  0  0  0  0  0  0
   58.4010   26.5160   46.9860 C   0  0  0  0  0  0  0  0  0  0  0  0
   58.4950   25.5900   47.9720 F   0  0  0  0  0  0  0  0  0  0  0  0
   57.1770   26.7430   46.3590 C   0  0  0  0  0  0  0  0  0  0  0  0
   57.0760   27.6970   45.3470 C   0  0  0  0  0  0  0  0  0  0  0  0
   58.2030   28.4370   44.9400 C   0  0  0  0  0  0  0  0  0  0  0  0
   58.0870   29.4270   43.9000 N   0  0  0  0  0  0  0  0  0  0  0  0
   56.9610   30.7460   43.9750 S   0  0  0  0  0  0  0  0  0  0  0  0
   55.6770   30.2720   44.5960 O   0  0  0  0  0  0  0  0  0  0  0  0
   56.6830   31.2440   42.5850 O   0  0  0  0  0  0  0  0  0  0  0  0
   57.6210   32.0360   44.9630 C   0  0  0  0  0  0  0  0  0  0  0  0
   58.1610   31.8840   46.2300 C   0  0  0  0  0  0  0  0  0  0  0  0
   58.6390   33.0860   46.7650 C   0  0  0  0  0  0  0  0  0  0  0  0
   58.4750   34.1770   45.9190 C   0  0  0  0  0  0  0  0  0  0  0  0
   57.7370   33.6460   44.5030 S   0  0  0  0  0  0  0  0  0  0  0  0
   61.2235   29.2837   46.0775 H   0  0  0  0  0  0  0  0  0  0  0  0
   61.3354   28.3004   44.5784 H   0  0  0  0  0  0  0  0  0  0  0  0
   60.4016   29.8349   44.5784 H   0  0  0  0  0  0  0  0  0  0  0  0
   60.4907   27.0639   47.1050 H   0  0  0  0  0  0  0  0  0  0  0  0
   56.2894   26.1687   46.6630 H   0  0  0  0  0  0  0  0  0  0  0  0
   56.1051   27.8736   44.8611 H   0  0  0  0  0  0  0  0  0  0  0  0
   58.6120   29.3120   43.0050 H   0  0  0  0  0  0  0  0  0  0  0  0
   58.2090   30.9209   46.7593 H   0  0  0  0  0  0  0  0  0  0  0  0
   59.1007   33.1603   47.7606 H   0  0  0  0  0  0  0  0  0  0  0  0
   58.7766   35.2119   46.1381 H   0  0  0  0  0  0  0  0  0  0  0  0
  1  2  1  0
  2  3  2  0
  3  4  1  0
  4  5  1  0
  4  6  2  0
  6  7  1  0
  7  8  2  0
  8  9  1  0
  9 10  1  0
 10 11  2  0
 10 12  2  0
 10 13  1  0
 13 14  2  0
 14 15  1  0
 15 16  2  0
 16 17  1  0
  8  2  1  0
 17 13  1  0
  1 18  1  0
  1 19  1  0
  1 20  1  0
  3 21  1  0
  6 22  1  0
  7 23  1  0
  9 24  1  0
 14 25  1  0
 15 26  1  0
 16 27  1  0
M  END
>  <UniqueID>  (44) 
41

>  <SMILES>  (44) 
Cc1cc(F)ccc1NS(=O)(=O)c1cccs1

>  <Energy>  (44) 
57.202435871289225

>  <Genealogy>  (44) 
Cc1cc(F)ccc1NS(=O)(=O)c1cccs1 (3D coordinates assigned)
Cc1cc(F)ccc1NS(=O)(=O)c1cccs1 (optimized conformer: 57.202435871289225 kcal/mol)

>  <smiles>  (44) 
Cc1cc(F)ccc1NS(=O)(=O)c1cccs1

>  <score_type>  (44) 
oracle

>  <origin>  (44) 
adg

>  <m_score__min__energy>  (44) 
-6.9400000000000004

>  <m_primary>  (44) 
energy

$$$$
44:0
     RDKit          3D

 39 41  0  0  0  0  0  0  0  0999 V2000
   58.5050   29.0460   48.2950 C   0  0  0  0  0  0  0  0  0  0  0  0
   59.1390   28.8970   46.9370 C   0  0  0  0  0  0  0  0  0  0  0  0
   60.4700   29.3160   46.7550 C   0  0  0  0  0  0  0  0  0  0  0  0
   61.0950   29.1810   45.5140 C   0  0  0  0  0  0  0  0  0  0  0  0
   60.4030   28.6260   44.4400 C   0  0  0  0  0  0  0  0  0  0  0  0
   59.0830   28.2000   44.6010 C   0  0  0  0  0  0  0  0  0  0  0  0
   58.4360   28.3270   45.8440 C   0  0  0  0  0  0  0  0  0  0  0  0
   57.0150   27.8260   45.9820 C   0  0  0  0  0  0  0  0  0  0  0  0
   56.1150   28.5690   45.1020 N   0  0  0  0  0  0  0  0  0  0  0  0
   56.4950   29.8050   44.4870 C   0  0  0  0  0  0  0  0  0  0  0  0
   56.6620   30.0230   43.1390 C   0  0  0  0  0  0  0  0  0  0  0  0
   57.0080   31.3140   42.9900 N   0  0  0  0  0  0  0  0  0  0  0  0
   57.0520   31.8300   44.2120 N   0  0  0  0  0  0  0  0  0  0  0  0
   57.3440   33.2290   44.4890 C   0  0  0  0  0  0  0  0  0  0  0  0
   58.3290   33.3270   45.6200 C   0  0  0  0  0  0  0  0  0  0  0  0
   57.9780   32.8850   46.9060 C   0  0  0  0  0  0  0  0  0  0  0  0
   58.9090   32.9380   47.9480 C   0  0  0  0  0  0  0  0  0  0  0  0
   60.1990   33.4210   47.7100 C   0  0  0  0  0  0  0  0  0  0  0  0
   60.5610   33.8480   46.4300 C   0  0  0  0  0  0  0  0  0  0  0  0
   59.6320   33.7960   45.3850 C   0  0  0  0  0  0  0  0  0  0  0  0
   56.7370   30.9490   45.1490 N   0  0  0  0  0  0  0  0  0  0  0  0
   59.2610   28.8683   49.0741 H   0  0  0  0  0  0  0  0  0  0  0  0
   58.1010   30.0636   48.4014 H   0  0  0  0  0  0  0  0  0  0  0  0
   57.6900   28.3149   48.4014 H   0  0  0  0  0  0  0  0  0  0  0  0
   61.0233   29.7541   47.5987 H   0  0  0  0  0  0  0  0  0  0  0  0
   62.1355   29.5134   45.3841 H   0  0  0  0  0  0  0  0  0  0  0  0
   60.8975   28.5231   43.4628 H   0  0  0  0  0  0  0  0  0  0  0  0
   58.5441   27.7612   43.7484 H   0  0  0  0  0  0  0  0  0  0  0  0
   56.9811   26.7594   45.7151 H   0  0  0  0  0  0  0  0  0  0  0  0
   56.6896   27.9708   47.0227 H   0  0  0  0  0  0  0  0  0  0  0  0
   55.1460   28.2090   44.9530 H   0  0  0  0  0  0  0  0  0  0  0  0
   56.5364   29.2821   42.3357 H   0  0  0  0  0  0  0  0  0  0  0  0
   57.7712   33.6981   43.5905 H   0  0  0  0  0  0  0  0  0  0  0  0
   56.4147   33.7463   44.7697 H   0  0  0  0  0  0  0  0  0  0  0  0
   56.9666   32.4955   47.0943 H   0  0  0  0  0  0  0  0  0  0  0  0
   58.6261   32.5994   48.9556 H   0  0  0  0  0  0  0  0  0  0  0  0
   60.9296   33.4649   48.5311 H   0  0  0  0  0  0  0  0  0  0  0  0
   61.5773   34.2254   46.2435 H   0  0  0  0  0  0  0  0  0  0  0  0
   59.9230   34.1235   44.3760 H   0  0  0  0  0  0  0  0  0  0  0  0
  1  2  1  0
  2  3  2  0
  3  4  1  0
  4  5  2  0
  5  6  1  0
  6  7  2  0
  7  8  1  0
  8  9  1  0
  9 10  1  0
 10 11  1  0
 11 12  2  0
 12 13  1  0
 13 14  1  0
 14 15  1  0
 15 16  2  0
 16 17  1  0
 17 18  2  0
 18 19  1  0
 19 20  2  0
 13 21  1  0
  7  2  1  0
 21 10  2  0
 20 15  1  0
  1 22  1  0
  1 23  1  0
  1 24  1  0
  3 25  1  0
  4 26  1  0
  5 27  1  0
  6 28  1  0
  8 29  1  0
  8 30  1  0
  9 31  1  0
 11 32  1  0
 14 33  1  0
 14 34  1  0
 16 35  1  0
 17 36  1  0
 18 37  1  0
 19 38  1  0
 20 39  1  0
M  END
>  <UniqueID>  (45) 
42

>  <SMILES>  (45) 
Cc1ccccc1CNc1cnn(Cc2ccccc2)n1

>  <Energy>  (45) 
71.59045737875537

>  <Genealogy>  (45) 
Cc1ccccc1CNc1cnn(Cc2ccccc2)n1 (3D coordinates assigned)
Cc1ccccc1CNc1cnn(Cc2ccccc2)n1 (optimized conformer: 71.59045737875537 kcal/mol)

>  <smiles>  (45) 
Cc1ccccc1CNc1cnn(Cc2ccccc2)n1

>  <score_type>  (45) 
oracle

>  <origin>  (45) 
adg

>  <m_score__min__energy>  (45) 
-7.9100000000000001

>  <m_primary>  (45) 
energy

$$$$
45:0
     RDKit          3D

 37 39  0  0  0  0  0  0  0  0999 V2000
   57.6380   34.2040   45.4810 C   0  0  0  0  0  0  0  0  0  0  0  0
   58.1920   33.0960   46.2650 N   0  0  0  0  0  0  0  0  0  0  0  0
   58.5950   33.3370   47.6330 C   0  0  0  0  0  0  0  0  0  0  0  0
   58.0370   32.6960   48.5660 O   0  0  0  0  0  0  0  0  0  0  0  0
   59.7210   34.2730   47.9990 C   0  0  0  0  0  0  0  0  0  0  0  0
   60.7190   34.4320   46.8490 C   0  0  0  0  0  0  0  0  0  0  0  0
   62.0230   33.8840   47.2110 N   0  0  0  0  0  0  0  0  0  0  0  0
   62.8400   33.2440   46.3770 N   0  0  0  0  0  0  0  0  0  0  0  0
   63.9260   32.8260   47.0230 N   0  0  0  0  0  0  0  0  0  0  0  0
   63.7890   33.2060   48.3050 C   0  0  0  0  0  0  0  0  0  0  0  0
   64.6010   32.9730   49.4060 C   0  0  0  0  0  0  0  0  0  0  0  0
   64.1380   33.4570   50.6460 C   0  0  0  0  0  0  0  0  0  0  0  0
   62.8940   34.1370   50.7210 C   0  0  0  0  0  0  0  0  0  0  0  0
   62.1330   34.3260   49.5980 N   0  0  0  0  0  0  0  0  0  0  0  0
   62.6070   33.8580   48.4190 C   0  0  0  0  0  0  0  0  0  0  0  0
   58.2540   31.7870   45.6700 C   0  0  0  0  0  0  0  0  0  0  0  0
   59.2390   30.8690   46.0680 C   0  0  0  0  0  0  0  0  0  0  0  0
   59.2950   29.6000   45.4840 C   0  0  0  0  0  0  0  0  0  0  0  0
   58.3780   29.2420   44.4920 C   0  0  0  0  0  0  0  0  0  0  0  0
   57.4110   30.1600   44.0700 C   0  0  0  0  0  0  0  0  0  0  0  0
   56.2610   29.7170   42.8240 Cl  0  0  0  0  0  0  0  0  0  0  0  0
   57.3590   31.4330   44.6470 C   0  0  0  0  0  0  0  0  0  0  0  0
   57.2514   34.9772   46.1612 H   0  0  0  0  0  0  0  0  0  0  0  0
   58.4268   34.6348   44.8467 H   0  0  0  0  0  0  0  0  0  0  0  0
   56.8201   33.8314   44.8467 H   0  0  0  0  0  0  0  0  0  0  0  0
   59.2998   35.2590   48.2448 H   0  0  0  0  0  0  0  0  0  0  0  0
   60.2552   33.8475   48.8613 H   0  0  0  0  0  0  0  0  0  0  0  0
   60.3376   33.8999   45.9650 H   0  0  0  0  0  0  0  0  0  0  0  0
   60.8365   35.5038   46.6314 H   0  0  0  0  0  0  0  0  0  0  0  0
   64.7120   32.2850   46.5970 H   0  0  0  0  0  0  0  0  0  0  0  0
   65.5576   32.4376   49.3155 H   0  0  0  0  0  0  0  0  0  0  0  0
   64.7398   33.3081   51.5547 H   0  0  0  0  0  0  0  0  0  0  0  0
   62.5379   34.5157   51.6904 H   0  0  0  0  0  0  0  0  0  0  0  0
   59.9689   31.1491   46.8418 H   0  0  0  0  0  0  0  0  0  0  0  0
   60.0629   28.8813   45.8062 H   0  0  0  0  0  0  0  0  0  0  0  0
   58.4168   28.2385   44.0432 H   0  0  0  0  0  0  0  0  0  0  0  0
   56.6126   32.1615   44.2975 H   0  0  0  0  0  0  0  0  0  0  0  0
  1  2  1  0
  2  3  1  0
  3  4  2  0
  3  5  1  0
  5  6  1  0
  6  7  1  0
  7  8  1  0
  8  9  2  0
  9 10  1  0
 10 11  2  0
 11 12  1  0
 12 13  2  0
 13 14  1  0
 14 15  2  0
  2 16  1  0
 16 17  2  0
 17 18  1  0
 18 19  2  0
 19 20  1  0
 20 21  1  0
 20 22  2  0
 15  7  1  0
 22 16  1  0
 15 10  1  0
  1 23  1  0
  1 24  1  0
  1 25  1  0
  5 26  1  0
  5 27  1  0
  6 28  1  0
  6 29  1  0
  9 30  1  0
 11 31  1  0
 12 32  1  0
 13 33  1  0
 17 34  1  0
 18 35  1  0
 19 36  1  0
 22 37  1  0
M  CHG  1   9   1
M  END
>  <UniqueID>  (46) 
43

>  <SMILES>  (46) 
CN(C(=O)CCn1n[nH+]c2cccnc21)c1cccc(Cl)c1

>  <Energy>  (46) 
86.2383786361668

>  <Genealogy>  (46) 
CN(C(=O)CCn1n[nH+]c2cccnc21)c1cccc(Cl)c1 (protonated)
CN(C(=O)CCn1n[nH+]c2cccnc21)c1cccc(Cl)c1 (3D coordinates assigned)
CN(C(=O)CCn1n[nH+]c2cccnc21)c1cccc(Cl)c1 (optimized conformer: 86.2383786361668 kcal/mol)

>  <smiles>  (46) 
CN(C(=O)CCn1nnc2cccnc21)c1cccc(Cl)c1

>  <score_type>  (46) 
oracle

>  <origin>  (46) 
adg

>  <m_score__min__energy>  (46) 
-6.7800000000000002

>  <m_primary>  (46) 
energy

$$$$
46:0
     RDKit          3D

 37 40  0  0  1  0  0  0  0  0999 V2000
   55.0990   22.9690   42.3170 O   0  0  0  0  0  0  0  0  0  0  0  0
   55.8460   22.8970   43.3160 N   0  0  0  0  0  0  0  0  0  0  0  0
   56.2550   21.6780   43.8460 O   0  0  0  0  0  0  0  0  0  0  0  0
   56.3280   24.0650   43.9750 C   0  0  0  0  0  0  0  0  0  0  0  0
   57.3380   24.8080   43.4180 C   0  0  0  0  0  0  0  0  0  0  0  0
   57.8280   25.9580   44.0440 C   0  0  0  0  0  0  0  0  0  0  0  0
   57.2780   26.3470   45.2460 C   0  0  0  0  0  0  0  0  0  0  0  0
   57.7080   27.5050   45.9610 N   0  0  0  0  0  0  0  0  0  0  0  0
   58.2810   27.5000   47.1570 N   0  0  0  0  0  0  0  0  0  0  0  0
   58.5680   28.7450   47.5540 C   0  0  0  0  0  0  0  0  0  0  0  0
   58.1320   29.5710   46.5110 C   0  0  0  0  0  0  0  0  0  0  0  0
   58.1580   30.9490   46.3470 C   0  0  0  0  0  0  0  0  0  0  0  0
   58.6700   31.6390   47.3040 N   0  0  0  0  0  0  0  0  0  0  0  0
   60.0300   32.0000   47.2470 C   0  0  0  0  0  0  0  0  0  0  0  0
   61.0660   31.1240   47.5830 C   0  0  0  0  0  0  0  0  0  0  0  0
   62.3630   31.5800   47.4910 C   0  0  0  0  0  0  0  0  0  0  0  0
   62.6780   32.8650   47.0820 C   0  0  0  0  0  0  0  0  0  0  0  0
   61.6460   33.7440   46.7450 C   0  0  0  0  0  0  0  0  0  0  0  0
   60.3470   33.2980   46.8320 C   0  0  0  0  0  0  0  0  0  0  0  0
   59.0550   34.4260   46.4020 Cl  0  0  0  0  0  0  0  0  0  0  0  0
   57.6630   31.5040   45.2230 N   0  0  0  0  0  0  0  0  0  0  0  0
   57.1420   30.7050   44.2660 C   0  0  0  0  0  0  0  0  0  0  0  0
   57.1100   29.3470   44.4160 N   0  0  0  0  0  0  0  0  0  0  0  0
   57.5950   28.7510   45.5250 C   0  0  0  0  0  0  0  0  0  0  0  0
   56.2550   25.5820   45.7930 C   0  0  0  0  0  0  0  0  0  0  0  0
   55.7740   24.4410   45.1660 C   0  0  0  0  0  0  0  0  0  0  0  0
   57.7717   24.4919   42.4578 H   0  0  0  0  0  0  0  0  0  0  0  0
   58.6389   26.5424   43.5847 H   0  0  0  0  0  0  0  0  0  0  0  0
   59.0439   29.0532   48.4966 H   0  0  0  0  0  0  0  0  0  0  0  0
   60.8514   30.0967   47.9125 H   0  0  0  0  0  0  0  0  0  0  0  0
   63.1824   30.8947   47.7534 H   0  0  0  0  0  0  0  0  0  0  0  0
   63.7274   33.1894   47.0233 H   0  0  0  0  0  0  0  0  0  0  0  0
   61.8669   34.7705   46.4172 H   0  0  0  0  0  0  0  0  0  0  0  0
   57.6850   32.5230   45.1070 H   0  0  0  0  0  0  0  0  0  0  0  0
   56.7359   31.1562   43.3487 H   0  0  0  0  0  0  0  0  0  0  0  0
   55.8130   25.8901   46.7520 H   0  0  0  0  0  0  0  0  0  0  0  0
   54.9632   23.8514   45.6188 H   0  0  0  0  0  0  0  0  0  0  0  0
  1  2  2  0
  2  3  1  0
  2  4  1  0
  4  5  2  0
  5  6  1  0
  6  7  2  0
  7  8  1  0
  8  9  1  0
  9 10  2  0
 10 11  1  0
 11 12  1  0
 12 13  2  0
 13 14  1  0
 14 15  2  0
 15 16  1  0
 16 17  2  0
 17 18  1  0
 18 19  2  0
 19 20  1  0
 12 21  1  0
 21 22  1  0
 22 23  2  0
 23 24  1  0
  7 25  1  0
 25 26  2  0
 26  4  1  0
 24  8  1  0
 24 11  2  0
 19 14  1  0
  5 27  1  0
  6 28  1  0
 10 29  1  0
 15 30  1  0
 16 31  1  0
 17 32  1  0
 18 33  1  0
 21 34  1  0
 22 35  1  0
 25 36  1  0
 26 37  1  0
M  CHG  2   2   1   3  -1
M  END
>  <smiles>  (47) 
O=[N+]([O-])c1ccc(-n2ncc3c(=Nc4ccccc4Cl)[nH]cnc32)cc1

>  <score_type>  (47) 
oracle

>  <origin>  (47) 
adg

>  <m_score__min__energy>  (47) 
-7.9800000000000004

>  <m_primary>  (47) 
energy

$$$$
47:0
     RDKit          3D

 44 46  0  0  0  0  0  0  0  0999 V2000
   56.6400   30.5350   43.5470 C   0  0  0  0  0  0  0  0  0  0  0  0
   57.7830   30.5910   44.5250 C   0  0  0  0  0  0  0  0  0  0  0  0
   58.5070   29.4200   44.8080 C   0  0  0  0  0  0  0  0  0  0  0  0
   59.5730   29.4450   45.7090 C   0  0  0  0  0  0  0  0  0  0  0  0
   59.9370   30.6390   46.3330 C   0  0  0  0  0  0  0  0  0  0  0  0
   61.3170   30.6670   47.4760 S   0  0  0  0  0  0  0  0  0  0  0  0
   60.3810   31.5220   48.7510 C   0  0  0  0  0  0  0  0  0  0  0  0
   59.3380   30.8310   49.3840 C   0  0  0  0  0  0  0  0  0  0  0  0
   58.5560   31.4630   50.3530 C   0  0  0  0  0  0  0  0  0  0  0  0
   58.8130   32.7900   50.7010 C   0  0  0  0  0  0  0  0  0  0  0  0
   59.8540   33.4860   50.0830 C   0  0  0  0  0  0  0  0  0  0  0  0
   60.6500   32.8630   49.1070 C   0  0  0  0  0  0  0  0  0  0  0  0
   61.7310   33.5970   48.5030 N   0  0  0  0  0  0  0  0  0  0  0  0
   62.9660   33.8480   49.2560 C   0  0  0  0  0  0  0  0  0  0  0  0
   64.1490   33.0860   48.6260 C   0  0  0  0  0  0  0  0  0  0  0  0
   63.9590   32.7910   47.1890 N   0  0  0  0  0  0  0  0  0  0  0  0
   63.1630   33.8210   46.5030 C   0  0  0  0  0  0  0  0  0  0  0  0
   61.7300   33.8420   47.0550 C   0  0  0  0  0  0  0  0  0  0  0  0
   59.2170   31.8100   46.0720 C   0  0  0  0  0  0  0  0  0  0  0  0
   58.1420   31.8020   45.1660 C   0  0  0  0  0  0  0  0  0  0  0  0
   57.3940   33.0810   44.8970 C   0  0  0  0  0  0  0  0  0  0  0  0
   55.6886   30.4884   44.0972 H   0  0  0  0  0  0  0  0  0  0  0  0
   56.6541   31.4349   42.9146 H   0  0  0  0  0  0  0  0  0  0  0  0
   56.7420   29.6408   42.9146 H   0  0  0  0  0  0  0  0  0  0  0  0
   58.2313   28.4759   44.3154 H   0  0  0  0  0  0  0  0  0  0  0  0
   60.1278   28.5207   45.9278 H   0  0  0  0  0  0  0  0  0  0  0  0
   59.1344   29.7839   49.1154 H   0  0  0  0  0  0  0  0  0  0  0  0
   57.7373   30.9149   50.8422 H   0  0  0  0  0  0  0  0  0  0  0  0
   58.1950   33.2880   51.4627 H   0  0  0  0  0  0  0  0  0  0  0  0
   60.0526   34.5311   50.3627 H   0  0  0  0  0  0  0  0  0  0  0  0
   63.1834   34.9262   49.2451 H   0  0  0  0  0  0  0  0  0  0  0  0
   62.8287   33.4983   50.2899 H   0  0  0  0  0  0  0  0  0  0  0  0
   65.0571   33.6963   48.7396 H   0  0  0  0  0  0  0  0  0  0  0  0
   64.2287   32.1210   49.1479 H   0  0  0  0  0  0  0  0  0  0  0  0
   64.8960   32.7260   46.7270 H   0  0  0  0  0  0  0  0  0  0  0  0
   63.4840   31.8630   47.0830 H   0  0  0  0  0  0  0  0  0  0  0  0
   63.6279   34.8051   46.6626 H   0  0  0  0  0  0  0  0  0  0  0  0
   63.1292   33.5903   45.4280 H   0  0  0  0  0  0  0  0  0  0  0  0
   61.2798   34.8255   46.8549 H   0  0  0  0  0  0  0  0  0  0  0  0
   61.1478   33.0499   46.5614 H   0  0  0  0  0  0  0  0  0  0  0  0
   59.4946   32.7452   46.5802 H   0  0  0  0  0  0  0  0  0  0  0  0
   57.1183   33.5523   45.8519 H   0  0  0  0  0  0  0  0  0  0  0  0
   58.0339   33.7659   44.3213 H   0  0  0  0  0  0  0  0  0  0  0  0
   56.4833   32.8591   44.3213 H   0  0  0  0  0  0  0  0  0  0  0  0
  1  2  1  0
  2  3  2  0
  3  4  1  0
  4  5  2  0
  5  6  1  0
  6  7  1  0
  7  8  2  0
  8  9  1  0
  9 10  2  0
 10 11  1  0
 11 12  2  0
 12 13  1  0
 13 14  1  0
 14 15  1  0
 15 16  1  0
 16 17  1  0
 17 18  1  0
  5 19  1  0
 19 20  2  0
 20 21  1  0
 20  2  1  0
 12  7  1  0
 18 13  1  0
  1 22  1  0
  1 23  1  0
  1 24  1  0
  3 25  1  0
  4 26  1  0
  8 27  1  0
  9 28  1  0
 10 29  1  0
 11 30  1  0
 14 31  1  0
 14 32  1  0
 15 33  1  0
 15 34  1  0
 16 35  1  0
 16 36  1  0
 17 37  1  0
 17 38  1  0
 18 39  1  0
 18 40  1  0
 19 41  1  0
 21 42  1  0
 21 43  1  0
 21 44  1  0
M  CHG  1  16   1
M  END
>  <UniqueID>  (48) 
44

>  <SMILES>  (48) 
Cc1ccc(Sc2ccccc2N2CC[NH2+]CC2)cc1C

>  <Energy>  (48) 
49.814363748059705

>  <Genealogy>  (48) 
Cc1ccc(Sc2ccccc2N2CC[NH2+]CC2)cc1C (protonated)
Cc1ccc(Sc2ccccc2N2CC[NH2+]CC2)cc1C (3D coordinates assigned)
Cc1ccc(Sc2ccccc2N2CC[NH2+]CC2)cc1C (nonaromatic ring conformer: 49.814363748059705 kcal/mol)

>  <smiles>  (48) 
Cc1ccc(Sc2ccccc2N2CCNCC2)cc1C

>  <score_type>  (48) 
oracle

>  <origin>  (48) 
adg

>  <m_score__min__energy>  (48) 
-6.4699999999999998

>  <m_primary>  (48) 
energy

$$$$
48:0
     RDKit          3D

 54 56  0  0  0  0  0  0  0  0999 V2000
   56.4988   24.7493   45.5410 H   0  0  0  0  0  0  0  0  0  0  0  0
   57.0470   25.6060   45.9600 C   0  0  0  0  0  0  0  0  0  0  0  0
   56.7790   26.8630   45.5210 N   0  0  0  0  0  0  0  0  0  0  0  0
   57.4350   27.9560   46.0010 C   0  0  0  0  0  0  0  0  0  0  0  0
   57.0340   29.3160   45.4840 C   0  0  0  0  0  0  0  0  0  0  0  0
   57.6509   29.5635   44.6076 H   0  0  0  0  0  0  0  0  0  0  0  0
   57.1875   30.0538   46.2853 H   0  0  0  0  0  0  0  0  0  0  0  0
   55.6680   29.3360   45.1090 O   0  0  0  0  0  0  0  0  0  0  0  0
   55.5130   29.7210   43.7550 C   0  0  0  0  0  0  0  0  0  0  0  0
   54.8428   30.5915   43.6994 H   0  0  0  0  0  0  0  0  0  0  0  0
   55.0847   28.8800   43.1899 H   0  0  0  0  0  0  0  0  0  0  0  0
   56.8640   30.0870   43.1530 C   0  0  0  0  0  0  0  0  0  0  0  0
   57.5846   30.2822   43.9608 H   0  0  0  0  0  0  0  0  0  0  0  0
   57.2262   29.2546   42.5318 H   0  0  0  0  0  0  0  0  0  0  0  0
   56.7565   30.9884   42.5318 H   0  0  0  0  0  0  0  0  0  0  0  0
   58.4390   27.7870   46.9850 C   0  0  0  0  0  0  0  0  0  0  0  0
   59.1900   28.9270   47.5510 C   0  0  0  0  0  0  0  0  0  0  0  0
   58.8080   29.4930   48.7720 C   0  0  0  0  0  0  0  0  0  0  0  0
   57.9443   29.0925   49.3230 H   0  0  0  0  0  0  0  0  0  0  0  0
   59.5320   30.5700   49.2850 C   0  0  0  0  0  0  0  0  0  0  0  0
   59.2446   31.0161   50.2485 H   0  0  0  0  0  0  0  0  0  0  0  0
   60.5910   31.0680   48.5960 N   0  0  0  0  0  0  0  0  0  0  0  0
   60.9890   30.5560   47.4000 C   0  0  0  0  0  0  0  0  0  0  0  0
   62.0170   31.0940   46.8050 N   0  0  0  0  0  0  0  0  0  0  0  0
   63.2010   31.6810   47.4340 C   0  0  0  0  0  0  0  0  0  0  0  0
   63.4037   31.1581   48.3803 H   0  0  0  0  0  0  0  0  0  0  0  0
   64.0546   31.5748   46.7484 H   0  0  0  0  0  0  0  0  0  0  0  0
   62.9810   33.1730   47.7200 C   0  0  0  0  0  0  0  0  0  0  0  0
   62.4410   33.2767   48.6727 H   0  0  0  0  0  0  0  0  0  0  0  0
   63.9662   33.6600   47.7677 H   0  0  0  0  0  0  0  0  0  0  0  0
   62.1680   33.8530   46.6130 C   0  0  0  0  0  0  0  0  0  0  0  0
   62.3048   34.9420   46.6856 H   0  0  0  0  0  0  0  0  0  0  0  0
   62.5243   33.4796   45.6416 H   0  0  0  0  0  0  0  0  0  0  0  0
   60.7440   33.5430   46.7320 N   0  0  0  0  0  0  0  0  0  0  0  0
   60.4710   32.5980   47.0840 H   0  0  0  0  0  0  0  0  0  0  0  0
   59.7150   34.5000   46.4340 C   0  0  0  0  0  0  0  0  0  0  0  0
   60.0240   35.6490   46.0180 O   0  0  0  0  0  0  0  0  0  0  0  0
   58.2650   34.0970   46.5420 C   0  0  0  0  0  0  0  0  0  0  0  0
   57.9853   34.7180   47.4057 H   0  0  0  0  0  0  0  0  0  0  0  0
   57.5070   34.1870   45.2160 C   0  0  0  0  0  0  0  0  0  0  0  0
   56.6013   34.8098   45.2585 H   0  0  0  0  0  0  0  0  0  0  0  0
   57.9849   34.6352   44.3324 H   0  0  0  0  0  0  0  0  0  0  0  0
   57.2340   32.6910   45.2660 C   0  0  0  0  0  0  0  0  0  0  0  0
   56.1684   32.4325   45.3535 H   0  0  0  0  0  0  0  0  0  0  0  0
   57.4994   32.0497   44.4126 H   0  0  0  0  0  0  0  0  0  0  0  0
   58.0070   32.5880   46.5740 C   0  0  0  0  0  0  0  0  0  0  0  0
   57.4004   32.2544   47.4288 H   0  0  0  0  0  0  0  0  0  0  0  0
   58.8452   31.8823   46.6707 H   0  0  0  0  0  0  0  0  0  0  0  0
   60.2810   29.4630   46.8540 C   0  0  0  0  0  0  0  0  0  0  0  0
   60.5842   29.0349   45.8872 H   0  0  0  0  0  0  0  0  0  0  0  0
   58.7080   26.4940   47.4570 C   0  0  0  0  0  0  0  0  0  0  0  0
   59.4682   26.3428   48.2376 H   0  0  0  0  0  0  0  0  0  0  0  0
   58.0160   25.4000   46.9410 C   0  0  0  0  0  0  0  0  0  0  0  0
   58.2321   24.3843   47.3040 H   0  0  0  0  0  0  0  0  0  0  0  0
  1  2  1  0
  2  3  2  0
  3  4  1  0
  4  5  1  0
  5  6  1  0
  5  7  1  0
  5  8  1  0
  8  9  1  0
  9 10  1  0
  9 11  1  0
  9 12  1  0
 12 13  1  0
 12 14  1  0
 12 15  1  0
  4 16  2  0
 16 17  1  0
 17 18  1  0
 18 19  1  0
 18 20  2  0
 20 21  1  0
 20 22  1  0
 22 23  1  0
 23 24  2  0
 24 25  1  0
 25 26  1  0
 25 27  1  0
 25 28  1  0
 28 29  1  0
 28 30  1  0
 28 31  1  0
 31 32  1  0
 31 33  1  0
 31 34  1  0
 34 35  1  0
 34 36  1  0
 36 37  2  0
 36 38  1  0
 38 39  1  0
 38 40  1  0
 40 41  1  0
 40 42  1  0
 40 43  1  0
 43 44  1  0
 43 45  1  0
 43 46  1  0
 46 47  1  0
 46 48  1  0
 23 49  1  0
 49 50  1  0
 16 51  1  0
 51 52  1  0
 51 53  2  0
 53 54  1  0
 53  2  1  0
 49 17  2  0
 46 38  1  0
M  CHG  1  22  -1
M  END
>  <UniqueID>  (49) 
45

>  <SMILES>  (49) 
CCOCc1ncccc1-c1cc[n-]/c(=N/CCCNC(=O)C2CCC2)c1

>  <Energy>  (49) 
119.45941658095325

>  <Genealogy>  (49) 
CCOCc1ncccc1-c1cc[n-]c(=NCCCNC(=O)C2CCC2)c1 (protonated)
CCOCc1ncccc1-c1cc[n-]/c(=N/CCCNC(=O)C2CCC2)c1 (cis-trans isomerization)
CCOCc1ncccc1-c1cc[n-]/c(=N/CCCNC(=O)C2CCC2)c1 (3D coordinates assigned)
CCOCc1ncccc1-c1cc[n-]/c(=N/CCCNC(=O)C2CCC2)c1 (nonaromatic ring conformer: 119.45941658095325 kcal/mol)

>  <smiles>  (49) 
CCOCc1ncccc1-c1cc[nH]c(=NCCCNC(=O)C2CCC2)c1

>  <score_type>  (49) 
oracle

>  <origin>  (49) 
adg

>  <m_score__min__energy>  (49) 
-8.8100000000000005

>  <m_primary>  (49) 
energy

$$$$
