0:0
     RDKit          3D

 67 69  0  0  0  0  0  0  0  0999 V2000
   64.5950   33.0970   49.8100 C   0  0  0  0  0  0  0  0  0  0  0  0
   63.1260   32.8910   49.8680 C   0  0  0  0  0  0  0  0  0  0  0  0
   62.5430   31.8750   49.0950 N   0  0  0  0  0  0  0  0  0  0  0  0
   62.2320   30.6580   49.8050 C   0  0  0  0  0  0  0  0  0  0  0  0
   61.9720   30.9490   51.2450 C   0  0  0  0  0  0  0  0  0  0  0  0
   62.8910   31.7160   47.7430 C   0  0  0  0  0  0  0  0  0  0  0  0
   62.5020   32.8690   46.8230 C   0  0  0  0  0  0  0  0  0  0  0  0
   61.1420   32.9500   46.7050 O   0  0  0  0  0  0  0  0  0  0  0  0
   60.6610   34.0910   46.0750 C   0  0  0  0  0  0  0  0  0  0  0  0
   59.9750   34.9330   47.1280 C   0  0  0  0  0  0  0  0  0  0  0  0
   59.2710   34.2190   48.2010 C   0  0  0  0  0  0  0  0  0  0  0  0
   60.0600   33.5310   49.1790 N   0  0  0  0  0  0  0  0  0  0  0  0
   59.2470   32.7290   50.0740 C   0  0  0  0  0  0  0  0  0  0  0  0
   58.5830   31.6260   49.2570 C   0  0  0  0  0  0  0  0  0  0  0  0
   59.5490   31.2060   48.2750 N   0  0  0  0  0  0  0  0  0  0  0  0
   59.3180   30.2680   47.2390 C   0  0  0  0  0  0  0  0  0  0  0  0
   59.6770   28.9440   47.2800 C   0  0  0  0  0  0  0  0  0  0  0  0
   60.3380   28.5140   48.4220 C   0  0  0  0  0  0  0  0  0  0  0  0
   60.7300   27.1740   48.5130 C   0  0  0  0  0  0  0  0  0  0  0  0
   60.4440   26.3300   47.4630 C   0  0  0  0  0  0  0  0  0  0  0  0
   59.7760   26.7990   46.3270 C   0  0  0  0  0  0  0  0  0  0  0  0
   59.3850   28.1050   46.2210 C   0  0  0  0  0  0  0  0  0  0  0  0
   58.7430   28.5290   45.1050 N   0  0  0  0  0  0  0  0  0  0  0  0
   58.4130   27.6470   44.0040 C   0  0  0  0  0  0  0  0  0  0  0  0
   58.3800   29.8400   45.0400 C   0  0  0  0  0  0  0  0  0  0  0  0
   57.7380   30.3810   43.9530 C   0  0  0  0  0  0  0  0  0  0  0  0
   57.3670   31.7190   43.8680 C   0  0  0  0  0  0  0  0  0  0  0  0
   57.6560   32.5550   44.9240 C   0  0  0  0  0  0  0  0  0  0  0  0
   57.1730   34.4050   44.8710 Br  0  0  0  0  0  0  0  0  0  0  0  0
   58.3060   32.0520   46.0440 C   0  0  0  0  0  0  0  0  0  0  0  0
   58.6590   30.7190   46.0930 C   0  0  0  0  0  0  0  0  0  0  0  0
   64.9980   33.1535   50.8320 H   0  0  0  0  0  0  0  0  0  0  0  0
   65.0625   32.2556   49.2775 H   0  0  0  0  0  0  0  0  0  0  0  0
   64.8130   34.0345   49.2775 H   0  0  0  0  0  0  0  0  0  0  0  0
   62.8728   32.6807   50.9176 H   0  0  0  0  0  0  0  0  0  0  0  0
   62.7165   33.8152   49.4343 H   0  0  0  0  0  0  0  0  0  0  0  0
   61.3372   30.1976   49.3608 H   0  0  0  0  0  0  0  0  0  0  0  0
   63.0877   29.9710   49.7282 H   0  0  0  0  0  0  0  0  0  0  0  0
   62.5750   30.2741   51.8702 H   0  0  0  0  0  0  0  0  0  0  0  0
   62.2444   31.9921   51.4633 H   0  0  0  0  0  0  0  0  0  0  0  0
   60.9049   30.7953   51.4633 H   0  0  0  0  0  0  0  0  0  0  0  0
   63.9825   31.5914   47.6867 H   0  0  0  0  0  0  0  0  0  0  0  0
   62.3251   30.8425   47.3870 H   0  0  0  0  0  0  0  0  0  0  0  0
   62.8858   33.8112   47.2414 H   0  0  0  0  0  0  0  0  0  0  0  0
   62.9354   32.6916   45.8277 H   0  0  0  0  0  0  0  0  0  0  0  0
   61.4940   34.6532   45.6278 H   0  0  0  0  0  0  0  0  0  0  0  0
   59.9583   33.8246   45.2718 H   0  0  0  0  0  0  0  0  0  0  0  0
   60.7424   35.5652   47.5986 H   0  0  0  0  0  0  0  0  0  0  0  0
   59.1891   35.4806   46.5871 H   0  0  0  0  0  0  0  0  0  0  0  0
   58.6559   34.9570   48.7367 H   0  0  0  0  0  0  0  0  0  0  0  0
   58.7165   33.4220   47.6840 H   0  0  0  0  0  0  0  0  0  0  0  0
   60.8370   32.9680   48.7570 H   0  0  0  0  0  0  0  0  0  0  0  0
   59.8815   32.2835   50.8544 H   0  0  0  0  0  0  0  0  0  0  0  0
   58.4829   33.3559   50.5567 H   0  0  0  0  0  0  0  0  0  0  0  0
   58.3115   30.7820   49.9081 H   0  0  0  0  0  0  0  0  0  0  0  0
   57.6604   31.9862   48.7784 H   0  0  0  0  0  0  0  0  0  0  0  0
   60.5410   31.6060   48.2860 H   0  0  0  0  0  0  0  0  0  0  0  0
   60.5503   29.2154   49.2424 H   0  0  0  0  0  0  0  0  0  0  0  0
   61.2558   26.8023   49.4048 H   0  0  0  0  0  0  0  0  0  0  0  0
   60.7448   25.2734   47.5184 H   0  0  0  0  0  0  0  0  0  0  0  0
   59.5610   26.1033   45.5025 H   0  0  0  0  0  0  0  0  0  0  0  0
   58.0533   26.6856   44.3995 H   0  0  0  0  0  0  0  0  0  0  0  0
   57.6264   28.1076   43.3883 H   0  0  0  0  0  0  0  0  0  0  0  0
   59.3088   27.4781   43.3883 H   0  0  0  0  0  0  0  0  0  0  0  0
   57.5048   29.7211   43.1044 H   0  0  0  0  0  0  0  0  0  0  0  0
   56.8526   32.1022   42.9744 H   0  0  0  0  0  0  0  0  0  0  0  0
   58.5388   32.7151   46.8902 H   0  0  0  0  0  0  0  0  0  0  0  0
  1  2  1  0
  2  3  1  0
  3  4  1  0
  4  5  1  0
  3  6  1  0
  6  7  1  0
  7  8  1  0
  8  9  1  0
  9 10  1  0
 10 11  1  0
 11 12  1  0
 12 13  1  0
 13 14  1  0
 14 15  1  0
 15 16  1  0
 16 17  2  0
 17 18  1  0
 18 19  2  0
 19 20  1  0
 20 21  2  0
 21 22  1  0
 22 23  2  0
 23 24  1  0
 23 25  1  0
 25 26  2  0
 26 27  1  0
 27 28  2  0
 28 29  1  0
 28 30  1  0
 30 31  2  0
 31 16  1  0
 22 17  1  0
 31 25  1  0
  1 32  1  0
  1 33  1  0
  1 34  1  0
  2 35  1  0
  2 36  1  0
  4 37  1  0
  4 38  1  0
  5 39  1  0
  5 40  1  0
  5 41  1  0
  6 42  1  0
  6 43  1  0
  7 44  1  0
  7 45  1  0
  9 46  1  0
  9 47  1  0
 10 48  1  0
 10 49  1  0
 11 50  1  0
 11 51  1  0
 12 52  1  0
 13 53  1  0
 13 54  1  0
 14 55  1  0
 14 56  1  0
 15 57  1  0
 18 58  1  0
 19 59  1  0
 20 60  1  0
 21 61  1  0
 24 62  1  0
 24 63  1  0
 24 64  1  0
 26 65  1  0
 27 66  1  0
 30 67  1  0
M  CHG  1  23   1
M  END
>  <smiles>  (1) 
CCN(CC)CCOCCCNCCNc1c2ccccc2[n+](C)c2ccc(Br)cc12

>  <score_type>  (1) 
oracle

>  <origin>  (1) 
adg

>  <m_score__min__energy>  (1) 
-6.4699999999999998

>  <m_primary>  (1) 
energy

$$$$
1:0
     RDKit          3D

 80 83  0  0  0  0  0  0  0  0999 V2000
   58.0300   27.1210   45.8030 C   0  0  0  0  0  0  0  0  0  0  0  0
   58.4300   28.4850   45.8700 N   0  0  0  0  0  0  0  0  0  0  0  0
   58.0930   29.4540   45.0080 C   0  0  0  0  0  0  0  0  0  0  0  0
   57.2890   29.1300   43.9380 C   0  0  0  0  0  0  0  0  0  0  0  0
   56.9290   30.1270   43.0330 C   0  0  0  0  0  0  0  0  0  0  0  0
   57.3460   31.4330   43.1630 C   0  0  0  0  0  0  0  0  0  0  0  0
   58.1520   31.7470   44.2370 C   0  0  0  0  0  0  0  0  0  0  0  0
   58.5110   30.7530   45.1390 C   0  0  0  0  0  0  0  0  0  0  0  0
   59.3140   31.1210   46.1920 C   0  0  0  0  0  0  0  0  0  0  0  0
   59.7550   32.4800   46.3060 N   0  0  0  0  0  0  0  0  0  0  0  0
   58.8400   33.3970   46.9440 C   0  0  0  0  0  0  0  0  0  0  0  0
   58.9440   33.4680   48.4280 C   0  0  0  0  0  0  0  0  0  0  0  0
   60.0390   34.4110   48.8930 C   0  0  0  0  0  0  0  0  0  0  0  0
   61.1940   34.2180   48.0530 N   0  0  0  0  0  0  0  0  0  0  0  0
   62.4000   33.9580   48.7910 C   0  0  0  0  0  0  0  0  0  0  0  0
   63.3480   33.1070   48.0250 C   0  0  0  0  0  0  0  0  0  0  0  0
   62.7100   32.7760   46.7450 N   0  0  0  0  0  0  0  0  0  0  0  0
   59.6700   30.1390   47.0890 C   0  0  0  0  0  0  0  0  0  0  0  0
   60.4820   30.4630   48.1630 C   0  0  0  0  0  0  0  0  0  0  0  0
   60.8730   29.5040   49.0940 C   0  0  0  0  0  0  0  0  0  0  0  0
   60.4410   28.2210   48.9340 C   0  0  0  0  0  0  0  0  0  0  0  0
   60.7770   27.1810   49.8110 O   0  0  0  0  0  0  0  0  0  0  0  0
   60.7720   27.3740   51.2140 C   0  0  0  0  0  0  0  0  0  0  0  0
   62.1210   27.8510   51.6500 C   0  0  0  0  0  0  0  0  0  0  0  0
   62.6410   27.1090   52.7810 N   0  0  0  0  0  0  0  0  0  0  0  0
   61.5650   26.7560   53.7140 C   0  0  0  0  0  0  0  0  0  0  0  0
   63.2060   25.8870   52.2830 C   0  0  0  0  0  0  0  0  0  0  0  0
   64.4390   25.4760   53.0980 C   0  0  0  0  0  0  0  0  0  0  0  0
   65.4490   26.4790   52.8930 N   0  0  0  0  0  0  0  0  0  0  0  0
   65.9290   26.3960   51.5270 C   0  0  0  0  0  0  0  0  0  0  0  0
   66.5560   26.1220   53.7910 C   0  0  0  0  0  0  0  0  0  0  0  0
   64.9870   27.8200   53.0940 C   0  0  0  0  0  0  0  0  0  0  0  0
   63.5670   27.9180   53.5410 C   0  0  0  0  0  0  0  0  0  0  0  0
   59.6240   27.9170   47.8440 C   0  0  0  0  0  0  0  0  0  0  0  0
   59.2300   28.8450   46.9210 C   0  0  0  0  0  0  0  0  0  0  0  0
   57.9132   26.7227   46.8217 H   0  0  0  0  0  0  0  0  0  0  0  0
   57.0720   27.0457   45.2678 H   0  0  0  0  0  0  0  0  0  0  0  0
   58.7957   26.5402   45.2678 H   0  0  0  0  0  0  0  0  0  0  0  0
   56.9354   28.0976   43.7993 H   0  0  0  0  0  0  0  0  0  0  0  0
   56.2863   29.8601   42.1811 H   0  0  0  0  0  0  0  0  0  0  0  0
   57.0461   32.2004   42.4342 H   0  0  0  0  0  0  0  0  0  0  0  0
   58.5085   32.7779   44.3787 H   0  0  0  0  0  0  0  0  0  0  0  0
   60.6970   32.7540   45.9360 H   0  0  0  0  0  0  0  0  0  0  0  0
   59.0303   34.4027   46.5412 H   0  0  0  0  0  0  0  0  0  0  0  0
   57.8297   33.0201   46.7268 H   0  0  0  0  0  0  0  0  0  0  0  0
   57.9827   33.8182   48.8320 H   0  0  0  0  0  0  0  0  0  0  0  0
   59.1951   32.4610   48.7925 H   0  0  0  0  0  0  0  0  0  0  0  0
   59.6915   35.4516   48.8131 H   0  0  0  0  0  0  0  0  0  0  0  0
   60.2962   34.2028   49.9421 H   0  0  0  0  0  0  0  0  0  0  0  0
   61.0590   33.6020   47.2440 H   0  0  0  0  0  0  0  0  0  0  0  0
   62.8890   34.9160   49.0215 H   0  0  0  0  0  0  0  0  0  0  0  0
   62.1267   33.4199   49.7107 H   0  0  0  0  0  0  0  0  0  0  0  0
   64.2848   33.6553   47.8468 H   0  0  0  0  0  0  0  0  0  0  0  0
   63.5869   32.1917   48.5865 H   0  0  0  0  0  0  0  0  0  0  0  0
   62.4230   33.6710   46.2730 H   0  0  0  0  0  0  0  0  0  0  0  0
   61.8950   32.1520   46.9230 H   0  0  0  0  0  0  0  0  0  0  0  0
   60.8258   31.5009   48.2834 H   0  0  0  0  0  0  0  0  0  0  0  0
   61.5181   29.7766   49.9423 H   0  0  0  0  0  0  0  0  0  0  0  0
   60.0129   28.1246   51.4794 H   0  0  0  0  0  0  0  0  0  0  0  0
   60.5356   26.4245   51.7167 H   0  0  0  0  0  0  0  0  0  0  0  0
   62.8206   27.7440   50.8079 H   0  0  0  0  0  0  0  0  0  0  0  0
   62.0159   28.9004   51.9627 H   0  0  0  0  0  0  0  0  0  0  0  0
   61.9227   26.8734   54.7476 H   0  0  0  0  0  0  0  0  0  0  0  0
   60.7028   27.4184   53.5469 H   0  0  0  0  0  0  0  0  0  0  0  0
   61.2628   25.7116   53.5469 H   0  0  0  0  0  0  0  0  0  0  0  0
   62.4509   25.0897   52.3472 H   0  0  0  0  0  0  0  0  0  0  0  0
   63.5141   26.0446   51.2389 H   0  0  0  0  0  0  0  0  0  0  0  0
   64.1804   25.4166   54.1655 H   0  0  0  0  0  0  0  0  0  0  0  0
   64.8034   24.4891   52.7767 H   0  0  0  0  0  0  0  0  0  0  0  0
   67.0129   26.2086   51.5300 H   0  0  0  0  0  0  0  0  0  0  0  0
   65.4161   25.5732   51.0075 H   0  0  0  0  0  0  0  0  0  0  0  0
   65.7221   27.3432   51.0075 H   0  0  0  0  0  0  0  0  0  0  0  0
   66.2290   26.2274   54.8360 H   0  0  0  0  0  0  0  0  0  0  0  0
   66.8582   25.0809   53.6046 H   0  0  0  0  0  0  0  0  0  0  0  0
   67.4095   26.7905   53.6046 H   0  0  0  0  0  0  0  0  0  0  0  0
   65.6222   28.2927   53.8575 H   0  0  0  0  0  0  0  0  0  0  0  0
   65.0462   28.3239   52.1180 H   0  0  0  0  0  0  0  0  0  0  0  0
   63.5157   27.6017   54.5933 H   0  0  0  0  0  0  0  0  0  0  0  0
   63.2637   28.9646   53.3905 H   0  0  0  0  0  0  0  0  0  0  0  0
   59.2802   26.8793   47.7217 H   0  0  0  0  0  0  0  0  0  0  0  0
  1  2  1  0
  2  3  2  0
  3  4  1  0
  4  5  2  0
  5  6  1  0
  6  7  2  0
  7  8  1  0
  8  9  2  0
  9 10  1  0
 10 11  1  0
 11 12  1  0
 12 13  1  0
 13 14  1  0
 14 15  1  0
 15 16  1  0
 16 17  1  0
  9 18  1  0
 18 19  2  0
 19 20  1  0
 20 21  2  0
 21 22  1  0
 22 23  1  0
 23 24  1  0
 24 25  1  0
 25 26  1  0
 25 27  1  0
 27 28  1  0
 28 29  1  0
 29 30  1  0
 29 31  1  0
 29 32  1  0
 32 33  1  0
 21 34  1  0
 34 35  2  0
 35  2  1  0
  8  3  1  0
 35 18  1  0
 33 25  1  0
  1 36  1  0
  1 37  1  0
  1 38  1  0
  4 39  1  0
  5 40  1  0
  6 41  1  0
  7 42  1  0
 10 43  1  0
 11 44  1  0
 11 45  1  0
 12 46  1  0
 12 47  1  0
 13 48  1  0
 13 49  1  0
 14 50  1  0
 15 51  1  0
 15 52  1  0
 16 53  1  0
 16 54  1  0
 17 55  1  0
 17 56  1  0
 19 57  1  0
 20 58  1  0
 23 59  1  0
 23 60  1  0
 24 61  1  0
 24 62  1  0
 26 63  1  0
 26 64  1  0
 26 65  1  0
 27 66  1  0
 27 67  1  0
 28 68  1  0
 28 69  1  0
 30 70  1  0
 30 71  1  0
 30 72  1  0
 31 73  1  0
 31 74  1  0
 31 75  1  0
 32 76  1  0
 32 77  1  0
 33 78  1  0
 33 79  1  0
 34 80  1  0
M  CHG  3   2   1  25   1  29   1
M  END
>  <smiles>  (2) 
C[n+]1c2ccccc2c(NCCCNCCN)c2ccc(OCC[N+]3(C)CC[N+](C)(C)CC3)cc21

>  <score_type>  (2) 
oracle

>  <origin>  (2) 
adg

>  <m_score__min__energy>  (2) 
-4.7000000000000002

>  <m_primary>  (2) 
energy

$$$$
2:0
     RDKit          3D

 47 49  0  0  0  0  0  0  0  0999 V2000
   57.7190   32.3340   41.4270 C   0  0  0  0  0  0  0  0  0  0  0  0
   58.1380   32.5550   42.8680 C   0  0  0  0  0  0  0  0  0  0  0  0
   57.7480   31.4700   43.6120 O   0  0  0  0  0  0  0  0  0  0  0  0
   56.9400   30.5700   42.9450 C   0  0  0  0  0  0  0  0  0  0  0  0
   55.8110   30.1720   43.9180 C   0  0  0  0  0  0  0  0  0  0  0  0
   56.4030   29.3570   44.8470 O   0  0  0  0  0  0  0  0  0  0  0  0
   57.3640   28.5410   44.3180 C   0  0  0  0  0  0  0  0  0  0  0  0
   58.0690   27.7140   45.3430 C   0  0  0  0  0  0  0  0  0  0  0  0
   57.8280   28.3130   46.7180 C   0  0  0  0  0  0  0  0  0  0  0  0
   58.9260   29.1600   47.0630 N   0  0  0  0  0  0  0  0  0  0  0  0
   60.1460   28.8940   47.5600 C   0  0  0  0  0  0  0  0  0  0  0  0
   60.8370   30.0410   47.7050 N   0  0  0  0  0  0  0  0  0  0  0  0
   60.0770   31.0740   47.3030 C   0  0  0  0  0  0  0  0  0  0  0  0
   60.3210   32.4310   47.2530 C   0  0  0  0  0  0  0  0  0  0  0  0
   61.5620   32.9880   47.6720 N   0  0  0  0  0  0  0  0  0  0  0  0
   62.7700   32.6930   47.1560 C   0  0  0  0  0  0  0  0  0  0  0  0
   63.7580   33.4090   47.7900 C   0  0  0  0  0  0  0  0  0  0  0  0
   63.1160   34.1790   48.7390 C   0  0  0  0  0  0  0  0  0  0  0  0
   61.7670   33.8980   48.6430 C   0  0  0  0  0  0  0  0  0  0  0  0
   59.3400   33.2240   46.7910 N   0  0  0  0  0  0  0  0  0  0  0  0
   58.1790   32.6650   46.4040 C   0  0  0  0  0  0  0  0  0  0  0  0
   57.1300   33.6030   45.9000 C   0  0  0  0  0  0  0  0  0  0  0  0
   57.9370   31.3450   46.4500 N   0  0  0  0  0  0  0  0  0  0  0  0
   58.8820   30.5160   46.9020 C   0  0  0  0  0  0  0  0  0  0  0  0
   56.7463   31.8209   41.4026 H   0  0  0  0  0  0  0  0  0  0  0  0
   57.6344   33.3048   40.9167 H   0  0  0  0  0  0  0  0  0  0  0  0
   58.4724   31.7160   40.9167 H   0  0  0  0  0  0  0  0  0  0  0  0
   59.2309   32.6673   42.9224 H   0  0  0  0  0  0  0  0  0  0  0  0
   57.6644   33.4673   43.2598 H   0  0  0  0  0  0  0  0  0  0  0  0
   56.5155   31.0383   42.0447 H   0  0  0  0  0  0  0  0  0  0  0  0
   57.5141   29.6872   42.6269 H   0  0  0  0  0  0  0  0  0  0  0  0
   55.3879   31.0643   44.4025 H   0  0  0  0  0  0  0  0  0  0  0  0
   54.9824   29.6675   43.3994 H   0  0  0  0  0  0  0  0  0  0  0  0
   56.8873   27.8655   43.5925 H   0  0  0  0  0  0  0  0  0  0  0  0
   58.1184   29.1893   43.8484 H   0  0  0  0  0  0  0  0  0  0  0  0
   57.6808   26.6851   45.3164 H   0  0  0  0  0  0  0  0  0  0  0  0
   59.1479   27.7002   45.1292 H   0  0  0  0  0  0  0  0  0  0  0  0
   56.8993   28.9024   46.7044 H   0  0  0  0  0  0  0  0  0  0  0  0
   57.7371   27.5066   47.4606 H   0  0  0  0  0  0  0  0  0  0  0  0
   60.5231   27.8915   47.8104 H   0  0  0  0  0  0  0  0  0  0  0  0
   62.9430   31.9771   46.3390 H   0  0  0  0  0  0  0  0  0  0  0  0
   64.8379   33.3752   47.5835 H   0  0  0  0  0  0  0  0  0  0  0  0
   63.5892   34.8831   49.4392 H   0  0  0  0  0  0  0  0  0  0  0  0
   60.9799   34.3490   49.2652 H   0  0  0  0  0  0  0  0  0  0  0  0
   56.6120   34.0662   46.7527 H   0  0  0  0  0  0  0  0  0  0  0  0
   57.6017   34.3861   45.2882 H   0  0  0  0  0  0  0  0  0  0  0  0
   56.4043   33.0470   45.2882 H   0  0  0  0  0  0  0  0  0  0  0  0
  1  2  1  0
  2  3  1  0
  3  4  1  0
  4  5  1  0
  5  6  1  0
  6  7  1  0
  7  8  1  0
  8  9  1  0
  9 10  1  0
 10 11  1  0
 11 12  2  0
 12 13  1  0
 13 14  2  0
 14 15  1  0
 15 16  1  0
 16 17  2  0
 17 18  1  0
 18 19  2  0
 14 20  1  0
 20 21  2  0
 21 22  1  0
 21 23  1  0
 23 24  2  0
 24 10  1  0
 24 13  1  0
 19 15  1  0
  1 25  1  0
  1 26  1  0
  1 27  1  0
  2 28  1  0
  2 29  1  0
  4 30  1  0
  4 31  1  0
  5 32  1  0
  5 33  1  0
  7 34  1  0
  7 35  1  0
  8 36  1  0
  8 37  1  0
  9 38  1  0
  9 39  1  0
 11 40  1  0
 16 41  1  0
 17 42  1  0
 18 43  1  0
 19 44  1  0
 22 45  1  0
 22 46  1  0
 22 47  1  0
M  END
>  <smiles>  (3) 
CCOCCOCCCn1cnc2c(-n3cccc3)nc(C)nc21

>  <score_type>  (3) 
oracle

>  <origin>  (3) 
adg

>  <m_score__min__energy>  (3) 
-6.6399999999999997

>  <m_primary>  (3) 
energy

$$$$
3:0
     RDKit          3D

 84 87  0  0  0  0  0  0  0  0999 V2000
   58.8070   32.5650   51.1030 C   0  0  0  0  0  0  0  0  0  0  0  0
   58.1450   31.2060   51.0850 C   0  0  0  0  0  0  0  0  0  0  0  0
   58.7890   30.3920   49.9650 C   0  0  0  0  0  0  0  0  0  0  0  0
   59.9860   29.7250   50.3510 N   0  0  0  0  0  0  0  0  0  0  0  0
   60.0360   29.2880   51.7000 C   0  0  0  0  0  0  0  0  0  0  0  0
   60.9880   28.1640   51.9880 C   0  0  0  0  0  0  0  0  0  0  0  0
   60.6320   28.9470   49.3710 C   0  0  0  0  0  0  0  0  0  0  0  0
   59.9970   28.8510   48.0240 C   0  0  0  0  0  0  0  0  0  0  0  0
   60.3050   29.8160   47.0370 N   0  0  0  0  0  0  0  0  0  0  0  0
   59.4200   30.7530   46.4610 C   0  0  0  0  0  0  0  0  0  0  0  0
   58.5210   30.5150   45.4620 C   0  0  0  0  0  0  0  0  0  0  0  0
   58.3620   29.2450   44.9710 C   0  0  0  0  0  0  0  0  0  0  0  0
   57.4820   28.9030   43.9830 C   0  0  0  0  0  0  0  0  0  0  0  0
   56.7040   29.9060   43.4480 C   0  0  0  0  0  0  0  0  0  0  0  0
   56.8310   31.2200   43.9200 C   0  0  0  0  0  0  0  0  0  0  0  0
   57.7250   31.5290   44.9140 C   0  0  0  0  0  0  0  0  0  0  0  0
   57.8040   32.7940   45.3490 N   0  0  0  0  0  0  0  0  0  0  0  0
   57.0420   33.8940   44.8660 C   0  0  0  0  0  0  0  0  0  0  0  0
   58.6970   33.0520   46.3510 C   0  0  0  0  0  0  0  0  0  0  0  0
   58.8120   34.3410   46.8380 C   0  0  0  0  0  0  0  0  0  0  0  0
   59.6930   34.6510   47.8530 C   0  0  0  0  0  0  0  0  0  0  0  0
   60.4970   33.7020   48.4300 C   0  0  0  0  0  0  0  0  0  0  0  0
   61.3940   33.8770   49.4280 O   0  0  0  0  0  0  0  0  0  0  0  0
   62.5710   34.5450   49.5370 C   0  0  0  0  0  0  0  0  0  0  0  0
   63.6250   33.7410   50.2150 C   0  0  0  0  0  0  0  0  0  0  0  0
   63.9110   32.4870   49.5460 N   0  0  0  0  0  0  0  0  0  0  0  0
   63.9510   32.7700   48.1200 C   0  0  0  0  0  0  0  0  0  0  0  0
   65.2190   32.0400   49.9910 C   0  0  0  0  0  0  0  0  0  0  0  0
   65.2280   31.7180   51.4470 C   0  0  0  0  0  0  0  0  0  0  0  0
   64.1760   30.8410   51.8680 N   0  0  0  0  0  0  0  0  0  0  0  0
   64.5470   29.4370   51.6290 C   0  0  0  0  0  0  0  0  0  0  0  0
   64.0330   30.9750   53.3080 C   0  0  0  0  0  0  0  0  0  0  0  0
   62.9030   31.1260   51.2780 C   0  0  0  0  0  0  0  0  0  0  0  0
   62.9670   31.4460   49.8190 C   0  0  0  0  0  0  0  0  0  0  0  0
   60.3640   32.4030   47.9200 C   0  0  0  0  0  0  0  0  0  0  0  0
   59.4890   32.0860   46.9080 C   0  0  0  0  0  0  0  0  0  0  0  0
   58.9622   32.8835   52.1444 H   0  0  0  0  0  0  0  0  0  0  0  0
   59.7777   32.5068   50.5889 H   0  0  0  0  0  0  0  0  0  0  0  0
   58.1628   33.2935   50.5889 H   0  0  0  0  0  0  0  0  0  0  0  0
   58.2980   30.7017   52.0505 H   0  0  0  0  0  0  0  0  0  0  0  0
   57.0627   31.3063   50.9157 H   0  0  0  0  0  0  0  0  0  0  0  0
   58.0653   29.6361   49.6261 H   0  0  0  0  0  0  0  0  0  0  0  0
   59.0615   31.1022   49.1704 H   0  0  0  0  0  0  0  0  0  0  0  0
   60.3294   30.1464   52.3221 H   0  0  0  0  0  0  0  0  0  0  0  0
   59.0333   28.8948   51.9239 H   0  0  0  0  0  0  0  0  0  0  0  0
   61.0920   28.0413   53.0762 H   0  0  0  0  0  0  0  0  0  0  0  0
   60.5995   27.2330   51.5494 H   0  0  0  0  0  0  0  0  0  0  0  0
   61.9702   28.3940   51.5494 H   0  0  0  0  0  0  0  0  0  0  0  0
   61.6382   29.3683   49.2293 H   0  0  0  0  0  0  0  0  0  0  0  0
   60.5962   27.9210   49.7661 H   0  0  0  0  0  0  0  0  0  0  0  0
   60.2734   27.8703   47.6095 H   0  0  0  0  0  0  0  0  0  0  0  0
   58.9302   29.0238   48.2292 H   0  0  0  0  0  0  0  0  0  0  0  0
   61.3100   29.8690   46.6660 H   0  0  0  0  0  0  0  0  0  0  0  0
   58.9850   28.4471   45.4015 H   0  0  0  0  0  0  0  0  0  0  0  0
   57.3980   27.8652   43.6281 H   0  0  0  0  0  0  0  0  0  0  0  0
   55.9827   29.6758   42.6500 H   0  0  0  0  0  0  0  0  0  0  0  0
   56.2051   32.0144   43.4874 H   0  0  0  0  0  0  0  0  0  0  0  0
   56.6451   34.4669   45.7170 H   0  0  0  0  0  0  0  0  0  0  0  0
   57.6842   34.5442   44.2538 H   0  0  0  0  0  0  0  0  0  0  0  0
   56.2076   33.5214   44.2538 H   0  0  0  0  0  0  0  0  0  0  0  0
   58.1871   35.1368   46.4064 H   0  0  0  0  0  0  0  0  0  0  0  0
   59.7523   35.6898   48.2099 H   0  0  0  0  0  0  0  0  0  0  0  0
   62.9222   34.8069   48.5280 H   0  0  0  0  0  0  0  0  0  0  0  0
   62.3901   35.4410   50.1490 H   0  0  0  0  0  0  0  0  0  0  0  0
   64.5493   34.3363   50.2502 H   0  0  0  0  0  0  0  0  0  0  0  0
   63.2506   33.4955   51.2198 H   0  0  0  0  0  0  0  0  0  0  0  0
   64.1034   33.8482   47.9643 H   0  0  0  0  0  0  0  0  0  0  0  0
   64.7792   32.2122   47.6586 H   0  0  0  0  0  0  0  0  0  0  0  0
   63.0006   32.4636   47.6586 H   0  0  0  0  0  0  0  0  0  0  0  0
   65.4990   31.1391   49.4253 H   0  0  0  0  0  0  0  0  0  0  0  0
   65.9367   32.8551   49.8165 H   0  0  0  0  0  0  0  0  0  0  0  0
   66.1897   31.2412   51.6875 H   0  0  0  0  0  0  0  0  0  0  0  0
   65.0744   32.6687   51.9786 H   0  0  0  0  0  0  0  0  0  0  0  0
   64.6825   28.9244   52.5928 H   0  0  0  0  0  0  0  0  0  0  0  0
   63.7496   28.9392   51.0578 H   0  0  0  0  0  0  0  0  0  0  0  0
   65.4863   29.3981   51.0578 H   0  0  0  0  0  0  0  0  0  0  0  0
   64.7468   30.3062   53.8112 H   0  0  0  0  0  0  0  0  0  0  0  0
   64.2361   32.0155   53.6014 H   0  0  0  0  0  0  0  0  0  0  0  0
   63.0079   30.7047   53.6014 H   0  0  0  0  0  0  0  0  0  0  0  0
   62.2554   30.2469   51.4112 H   0  0  0  0  0  0  0  0  0  0  0  0
   62.5113   32.0211   51.7833 H   0  0  0  0  0  0  0  0  0  0  0  0
   63.2647   30.5414   49.2684 H   0  0  0  0  0  0  0  0  0  0  0  0
   61.9729   31.7924   49.5001 H   0  0  0  0  0  0  0  0  0  0  0  0
   60.9863   31.6032   48.3478 H   0  0  0  0  0  0  0  0  0  0  0  0
  1  2  1  0
  2  3  1  0
  3  4  1  0
  4  5  1  0
  5  6  1  0
  4  7  1  0
  7  8  1  0
  8  9  1  0
  9 10  1  0
 10 11  2  0
 11 12  1  0
 12 13  2  0
 13 14  1  0
 14 15  2  0
 15 16  1  0
 16 17  2  0
 17 18  1  0
 17 19  1  0
 19 20  2  0
 20 21  1  0
 21 22  2  0
 22 23  1  0
 23 24  1  0
 24 25  1  0
 25 26  1  0
 26 27  1  0
 26 28  1  0
 28 29  1  0
 29 30  1  0
 30 31  1  0
 30 32  1  0
 30 33  1  0
 33 34  1  0
 22 35  1  0
 35 36  2  0
 36 10  1  0
 16 11  1  0
 36 19  1  0
 34 26  1  0
  1 37  1  0
  1 38  1  0
  1 39  1  0
  2 40  1  0
  2 41  1  0
  3 42  1  0
  3 43  1  0
  5 44  1  0
  5 45  1  0
  6 46  1  0
  6 47  1  0
  6 48  1  0
  7 49  1  0
  7 50  1  0
  8 51  1  0
  8 52  1  0
  9 53  1  0
 12 54  1  0
 13 55  1  0
 14 56  1  0
 15 57  1  0
 18 58  1  0
 18 59  1  0
 18 60  1  0
 20 61  1  0
 21 62  1  0
 24 63  1  0
 24 64  1  0
 25 65  1  0
 25 66  1  0
 27 67  1  0
 27 68  1  0
 27 69  1  0
 28 70  1  0
 28 71  1  0
 29 72  1  0
 29 73  1  0
 31 74  1  0
 31 75  1  0
 31 76  1  0
 32 77  1  0
 32 78  1  0
 32 79  1  0
 33 80  1  0
 33 81  1  0
 34 82  1  0
 34 83  1  0
 35 84  1  0
M  CHG  3  17   1  26   1  30   1
M  END
>  <smiles>  (4) 
CCCN(CC)CCNc1c2ccccc2[n+](C)c2ccc(OCC[N+]3(C)CC[N+](C)(C)CC3)cc12

>  <score_type>  (4) 
oracle

>  <origin>  (4) 
adg

>  <m_score__min__energy>  (4) 
-4.2199999999999998

>  <m_primary>  (4) 
energy

$$$$
4:0
     RDKit          3D

 51 53  0  0  0  0  0  0  0  0999 V2000
   58.5100   28.2070   46.4440 C   0  0  0  0  0  0  0  0  0  0  0  0
   58.6510   29.6820   46.3340 N   0  0  0  0  0  0  0  0  0  0  0  0
   60.0760   29.8650   46.0440 C   0  0  0  0  0  0  0  0  0  0  0  0
   57.8090   30.1350   45.2490 C   0  0  0  0  0  0  0  0  0  0  0  0
   57.2790   31.4360   45.3410 N   0  0  0  0  0  0  0  0  0  0  0  0
   57.9560   32.5270   44.7590 C   0  0  0  0  0  0  0  0  0  0  0  0
   57.6740   33.8290   45.5690 C   0  0  0  0  0  0  0  0  0  0  0  0
   57.6000   33.5020   47.0310 C   0  0  0  0  0  0  0  0  0  0  0  0
   58.5640   32.5480   47.5040 N   0  0  0  0  0  0  0  0  0  0  0  0
   59.5910   32.8040   48.4250 C   0  0  0  0  0  0  0  0  0  0  0  0
   60.8810   33.1580   48.1080 C   0  0  0  0  0  0  0  0  0  0  0  0
   61.2140   33.3340   46.7850 C   0  0  0  0  0  0  0  0  0  0  0  0
   62.4800   33.7000   46.3740 C   0  0  0  0  0  0  0  0  0  0  0  0
   63.4190   33.8860   47.3680 C   0  0  0  0  0  0  0  0  0  0  0  0
   63.1050   33.7160   48.7130 C   0  0  0  0  0  0  0  0  0  0  0  0
   61.8350   33.3500   49.1030 C   0  0  0  0  0  0  0  0  0  0  0  0
   61.5820   33.2110   50.4020 N   0  0  0  0  0  0  0  0  0  0  0  0
   62.5040   33.3840   51.4740 C   0  0  0  0  0  0  0  0  0  0  0  0
   60.3080   32.8630   50.7360 C   0  0  0  0  0  0  0  0  0  0  0  0
   59.9620   32.7050   52.0800 C   0  0  0  0  0  0  0  0  0  0  0  0
   58.6810   32.3580   52.4690 C   0  0  0  0  0  0  0  0  0  0  0  0
   57.7060   32.1570   51.5340 C   0  0  0  0  0  0  0  0  0  0  0  0
   58.0460   32.3130   50.1970 C   0  0  0  0  0  0  0  0  0  0  0  0
   59.3260   32.6600   49.7930 C   0  0  0  0  0  0  0  0  0  0  0  0
   58.4825   27.9194   47.5054 H   0  0  0  0  0  0  0  0  0  0  0  0
   57.5775   27.8903   45.9540 H   0  0  0  0  0  0  0  0  0  0  0  0
   59.3656   27.7193   45.9540 H   0  0  0  0  0  0  0  0  0  0  0  0
   60.6360   29.9369   46.9880 H   0  0  0  0  0  0  0  0  0  0  0  0
   60.4451   29.0069   45.4632 H   0  0  0  0  0  0  0  0  0  0  0  0
   60.2163   30.7885   45.4632 H   0  0  0  0  0  0  0  0  0  0  0  0
   58.4052   30.0859   44.3259 H   0  0  0  0  0  0  0  0  0  0  0  0
   56.9324   29.4711   45.2767 H   0  0  0  0  0  0  0  0  0  0  0  0
   56.2560   31.4940   45.1980 H   0  0  0  0  0  0  0  0  0  0  0  0
   59.0374   32.3258   44.7594 H   0  0  0  0  0  0  0  0  0  0  0  0
   57.5997   32.6617   43.7271 H   0  0  0  0  0  0  0  0  0  0  0  0
   58.4849   34.5517   45.3955 H   0  0  0  0  0  0  0  0  0  0  0  0
   56.7184   34.2647   45.2418 H   0  0  0  0  0  0  0  0  0  0  0  0
   57.7438   34.4359   47.5942 H   0  0  0  0  0  0  0  0  0  0  0  0
   56.6155   33.0361   47.1853 H   0  0  0  0  0  0  0  0  0  0  0  0
   58.5130   31.5490   47.1330 H   0  0  0  0  0  0  0  0  0  0  0  0
   60.4379   33.1763   46.0215 H   0  0  0  0  0  0  0  0  0  0  0  0
   62.7272   33.8361   45.3108 H   0  0  0  0  0  0  0  0  0  0  0  0
   64.4429   34.1763   47.0898 H   0  0  0  0  0  0  0  0  0  0  0  0
   63.8815   33.8760   49.4756 H   0  0  0  0  0  0  0  0  0  0  0  0
   61.9743   33.2846   52.4329 H   0  0  0  0  0  0  0  0  0  0  0  0
   63.2905   32.6178   51.4084 H   0  0  0  0  0  0  0  0  0  0  0  0
   62.9592   34.3832   51.4084 H   0  0  0  0  0  0  0  0  0  0  0  0
   60.7306   32.8611   52.8513 H   0  0  0  0  0  0  0  0  0  0  0  0
   58.4461   32.2433   53.5375 H   0  0  0  0  0  0  0  0  0  0  0  0
   56.6836   31.8803   51.8309 H   0  0  0  0  0  0  0  0  0  0  0  0
   57.2723   32.1557   49.4310 H   0  0  0  0  0  0  0  0  0  0  0  0
  1  2  1  0
  2  3  1  0
  2  4  1  0
  4  5  1  0
  5  6  1  0
  6  7  1  0
  7  8  1  0
  8  9  1  0
  9 10  1  0
 10 11  2  0
 11 12  1  0
 12 13  2  0
 13 14  1  0
 14 15  2  0
 15 16  1  0
 16 17  2  0
 17 18  1  0
 17 19  1  0
 19 20  2  0
 20 21  1  0
 21 22  2  0
 22 23  1  0
 23 24  2  0
 24 10  1  0
 16 11  1  0
 24 19  1  0
  1 25  1  0
  1 26  1  0
  1 27  1  0
  3 28  1  0
  3 29  1  0
  3 30  1  0
  4 31  1  0
  4 32  1  0
  5 33  1  0
  6 34  1  0
  6 35  1  0
  7 36  1  0
  7 37  1  0
  8 38  1  0
  8 39  1  0
  9 40  1  0
 12 41  1  0
 13 42  1  0
 14 43  1  0
 15 44  1  0
 18 45  1  0
 18 46  1  0
 18 47  1  0
 20 48  1  0
 21 49  1  0
 22 50  1  0
 23 51  1  0
M  CHG  1  17   1
M  END
>  <smiles>  (5) 
CN(C)CNCCCNc1c2ccccc2[n+](C)c2ccccc12

>  <score_type>  (5) 
oracle

>  <origin>  (5) 
adg

>  <m_score__min__energy>  (5) 
-5.0300000000000002

>  <m_primary>  (5) 
energy

$$$$
5:0
     RDKit          3D

 61 64  0  0  0  0  0  0  0  0999 V2000
   63.0860   33.7360   46.7320 C   0  0  0  0  0  0  0  0  0  0  0  0
   63.2570   32.2510   47.1380 C   0  0  0  0  0  0  0  0  0  0  0  0
   63.4470   32.2740   48.4980 O   0  0  0  0  0  0  0  0  0  0  0  0
   63.9510   33.4120   49.0510 C   0  0  0  0  0  0  0  0  0  0  0  0
   63.8230   33.5560   50.5330 C   0  0  0  0  0  0  0  0  0  0  0  0
   62.7190   32.9020   51.0200 O   0  0  0  0  0  0  0  0  0  0  0  0
   61.7170   33.7780   51.3420 C   0  0  0  0  0  0  0  0  0  0  0  0
   60.4330   33.5230   50.6070 C   0  0  0  0  0  0  0  0  0  0  0  0
   60.5360   34.0930   49.3060 O   0  0  0  0  0  0  0  0  0  0  0  0
   59.9030   33.4070   48.2760 C   0  0  0  0  0  0  0  0  0  0  0  0
   59.2400   34.1710   47.3270 C   0  0  0  0  0  0  0  0  0  0  0  0
   58.5900   33.5580   46.2770 C   0  0  0  0  0  0  0  0  0  0  0  0
   58.5800   32.1690   46.1380 C   0  0  0  0  0  0  0  0  0  0  0  0
   59.2580   31.4250   47.1120 C   0  0  0  0  0  0  0  0  0  0  0  0
   59.9100   32.0330   48.1660 C   0  0  0  0  0  0  0  0  0  0  0  0
   59.3890   29.9730   47.1840 C   0  0  0  0  0  0  0  0  0  0  0  0
   59.9950   29.4620   48.1540 O   0  0  0  0  0  0  0  0  0  0  0  0
   58.8690   29.0140   46.2140 C   0  0  0  0  0  0  0  0  0  0  0  0
   58.7780   27.7290   46.6960 C   0  0  0  0  0  0  0  0  0  0  0  0
   58.2980   26.7180   45.8730 C   0  0  0  0  0  0  0  0  0  0  0  0
   57.9000   26.9450   44.5710 C   0  0  0  0  0  0  0  0  0  0  0  0
   57.3930   25.9570   43.7070 N   0  0  0  0  0  0  0  0  0  0  0  0
   57.3910   24.5670   43.9210 C   0  0  0  0  0  0  0  0  0  0  0  0
   58.0470   23.9240   44.9450 C   0  0  0  0  0  0  0  0  0  0  0  0
   58.0300   22.5450   45.1060 C   0  0  0  0  0  0  0  0  0  0  0  0
   58.6830   21.9250   46.1200 F   0  0  0  0  0  0  0  0  0  0  0  0
   57.3350   21.7450   44.2220 C   0  0  0  0  0  0  0  0  0  0  0  0
   56.6710   22.3640   43.1930 C   0  0  0  0  0  0  0  0  0  0  0  0
   55.9680   21.6270   42.2890 F   0  0  0  0  0  0  0  0  0  0  0  0
   56.6930   23.7340   43.0380 C   0  0  0  0  0  0  0  0  0  0  0  0
   58.0090   28.2520   44.1240 C   0  0  0  0  0  0  0  0  0  0  0  0
   58.4810   29.2780   44.9160 C   0  0  0  0  0  0  0  0  0  0  0  0
   58.4980   30.5820   44.2010 C   0  0  0  0  0  0  0  0  0  0  0  0
   57.8430   31.6810   44.9650 C   0  0  0  0  0  0  0  0  0  0  0  0
   63.0144   34.3576   47.6367 H   0  0  0  0  0  0  0  0  0  0  0  0
   63.9533   34.0552   46.1355 H   0  0  0  0  0  0  0  0  0  0  0  0
   62.1688   33.8498   46.1355 H   0  0  0  0  0  0  0  0  0  0  0  0
   62.3556   31.6743   46.8832 H   0  0  0  0  0  0  0  0  0  0  0  0
   64.0961   31.7727   46.6116 H   0  0  0  0  0  0  0  0  0  0  0  0
   65.0220   33.4558   48.8038 H   0  0  0  0  0  0  0  0  0  0  0  0
   63.3463   34.2286   48.6296 H   0  0  0  0  0  0  0  0  0  0  0  0
   64.7221   33.1380   51.0093 H   0  0  0  0  0  0  0  0  0  0  0  0
   63.7122   34.6262   50.7619 H   0  0  0  0  0  0  0  0  0  0  0  0
   61.5207   33.6995   52.4215 H   0  0  0  0  0  0  0  0  0  0  0  0
   62.0609   34.7812   51.0498 H   0  0  0  0  0  0  0  0  0  0  0  0
   60.2614   32.4396   50.5249 H   0  0  0  0  0  0  0  0  0  0  0  0
   59.5910   33.9757   51.1512 H   0  0  0  0  0  0  0  0  0  0  0  0
   59.2328   35.2677   47.4123 H   0  0  0  0  0  0  0  0  0  0  0  0
   58.0679   34.1769   45.5325 H   0  0  0  0  0  0  0  0  0  0  0  0
   60.4338   31.4225   48.9162 H   0  0  0  0  0  0  0  0  0  0  0  0
   59.0838   27.5030   47.7282 H   0  0  0  0  0  0  0  0  0  0  0  0
   58.2325   25.6961   46.2749 H   0  0  0  0  0  0  0  0  0  0  0  0
   56.9650   26.2930   42.7940 H   0  0  0  0  0  0  0  0  0  0  0  0
   58.6108   24.5301   45.6694 H   0  0  0  0  0  0  0  0  0  0  0  0
   57.3141   20.6513   44.3380 H   0  0  0  0  0  0  0  0  0  0  0  0
   56.1467   24.1854   42.1967 H   0  0  0  0  0  0  0  0  0  0  0  0
   57.7057   28.4816   43.0919 H   0  0  0  0  0  0  0  0  0  0  0  0
   59.5446   30.8633   44.0124 H   0  0  0  0  0  0  0  0  0  0  0  0
   57.9301   30.4499   43.2682 H   0  0  0  0  0  0  0  0  0  0  0  0
   57.6985   32.5293   44.2798 H   0  0  0  0  0  0  0  0  0  0  0  0
   56.9057   31.2575   45.3549 H   0  0  0  0  0  0  0  0  0  0  0  0
  1  2  1  0
  2  3  1  0
  3  4  1  0
  4  5  1  0
  5  6  1  0
  6  7  1  0
  7  8  1  0
  8  9  1  0
  9 10  1  0
 10 11  2  0
 11 12  1  0
 12 13  2  0
 13 14  1  0
 14 15  2  0
 14 16  1  0
 16 17  2  0
 16 18  1  0
 18 19  2  0
 19 20  1  0
 20 21  2  0
 21 22  1  0
 22 23  1  0
 23 24  2  0
 24 25  1  0
 25 26  1  0
 25 27  2  0
 27 28  1  0
 28 29  1  0
 28 30  2  0
 21 31  1  0
 31 32  2  0
 32 33  1  0
 33 34  1  0
 15 10  1  0
 32 18  1  0
 34 13  1  0
 30 23  1  0
  1 35  1  0
  1 36  1  0
  1 37  1  0
  2 38  1  0
  2 39  1  0
  4 40  1  0
  4 41  1  0
  5 42  1  0
  5 43  1  0
  7 44  1  0
  7 45  1  0
  8 46  1  0
  8 47  1  0
 11 48  1  0
 12 49  1  0
 15 50  1  0
 19 51  1  0
 20 52  1  0
 22 53  1  0
 24 54  1  0
 27 55  1  0
 30 56  1  0
 31 57  1  0
 33 58  1  0
 33 59  1  0
 34 60  1  0
 34 61  1  0
M  END
>  <smiles>  (6) 
CCOCCOCCOc1ccc2c(c1)C(=O)c1ccc(Nc3cc(F)cc(F)c3)cc1CC2

>  <score_type>  (6) 
oracle

>  <origin>  (6) 
adg

>  <m_score__min__energy>  (6) 
-7.7800000000000002

>  <m_primary>  (6) 
energy

$$$$
6:0
     RDKit          3D

 35 37  0  0  0  0  0  0  0  0999 V2000
   58.1780   27.6500   47.4690 C   0  0  0  0  0  0  0  0  0  0  0  0
   58.2830   28.6770   46.4900 N   0  0  0  0  0  0  0  0  0  0  0  0
   59.1730   29.6660   46.4190 C   0  0  0  0  0  0  0  0  0  0  0  0
   60.5280   29.9630   47.4920 S   0  0  0  0  0  0  0  0  0  0  0  0
   60.4110   30.9130   48.9280 C   0  0  0  0  0  0  0  0  0  0  0  0
   59.0570   31.5500   49.1330 C   0  0  0  0  0  0  0  0  0  0  0  0
   58.8670   32.7950   48.6020 O   0  0  0  0  0  0  0  0  0  0  0  0
   58.6180   33.3190   47.3970 C   0  0  0  0  0  0  0  0  0  0  0  0
   57.4160   33.4000   46.7340 C   0  0  0  0  0  0  0  0  0  0  0  0
   57.2560   33.9630   45.4860 C   0  0  0  0  0  0  0  0  0  0  0  0
   58.3600   34.4780   44.8500 C   0  0  0  0  0  0  0  0  0  0  0  0
   59.5900   34.4280   45.4600 C   0  0  0  0  0  0  0  0  0  0  0  0
   59.7180   33.8630   46.7030 C   0  0  0  0  0  0  0  0  0  0  0  0
   61.3200   33.8350   47.4190 Cl  0  0  0  0  0  0  0  0  0  0  0  0
   59.1130   30.5950   45.4010 N   0  0  0  0  0  0  0  0  0  0  0  0
   58.1800   30.5770   44.4270 C   0  0  0  0  0  0  0  0  0  0  0  0
   58.0860   31.4670   43.4100 C   0  0  0  0  0  0  0  0  0  0  0  0
   57.0220   31.2270   42.5240 C   0  0  0  0  0  0  0  0  0  0  0  0
   56.1790   29.7290   43.1670 S   0  0  0  0  0  0  0  0  0  0  0  0
   57.2690   29.5640   44.4990 C   0  0  0  0  0  0  0  0  0  0  0  0
   57.3100   28.6230   45.5100 C   0  0  0  0  0  0  0  0  0  0  0  0
   56.4400   27.7280   45.5060 O   0  0  0  0  0  0  0  0  0  0  0  0
   58.2235   28.0953   48.4738 H   0  0  0  0  0  0  0  0  0  0  0  0
   57.2212   27.1217   47.3450 H   0  0  0  0  0  0  0  0  0  0  0  0
   59.0081   26.9390   47.3450 H   0  0  0  0  0  0  0  0  0  0  0  0
   60.6224   30.2640   49.7906 H   0  0  0  0  0  0  0  0  0  0  0  0
   61.1373   31.7331   48.8278 H   0  0  0  0  0  0  0  0  0  0  0  0
   58.3056   30.8816   48.6872 H   0  0  0  0  0  0  0  0  0  0  0  0
   58.9699   31.6887   50.2207 H   0  0  0  0  0  0  0  0  0  0  0  0
   56.5251   32.9892   47.2314 H   0  0  0  0  0  0  0  0  0  0  0  0
   56.2654   33.9993   45.0092 H   0  0  0  0  0  0  0  0  0  0  0  0
   58.2589   34.9303   43.8524 H   0  0  0  0  0  0  0  0  0  0  0  0
   60.4730   34.8416   44.9509 H   0  0  0  0  0  0  0  0  0  0  0  0
   58.7846   32.3078   43.2879 H   0  0  0  0  0  0  0  0  0  0  0  0
   56.7516   31.8131   41.6333 H   0  0  0  0  0  0  0  0  0  0  0  0
  1  2  1  0
  2  3  1  0
  3  4  1  0
  4  5  1  0
  5  6  1  0
  6  7  1  0
  7  8  1  0
  8  9  2  0
  9 10  1  0
 10 11  2  0
 11 12  1  0
 12 13  2  0
 13 14  1  0
  3 15  2  0
 15 16  1  0
 16 17  1  0
 17 18  2  0
 18 19  1  0
 19 20  1  0
 20 21  1  0
 21 22  2  0
 21  2  1  0
 13  8  1  0
 20 16  2  0
  1 23  1  0
  1 24  1  0
  1 25  1  0
  5 26  1  0
  5 27  1  0
  6 28  1  0
  6 29  1  0
  9 30  1  0
 10 31  1  0
 11 32  1  0
 12 33  1  0
 17 34  1  0
 18 35  1  0
M  END
>  <smiles>  (7) 
Cn1c(SCCOc2ccccc2Cl)nc2ccsc2c1=O

>  <score_type>  (7) 
oracle

>  <origin>  (7) 
adg

>  <m_score__min__energy>  (7) 
-6.7999999999999998

>  <m_primary>  (7) 
energy

$$$$
7:0
     RDKit          3D

 31 33  0  0  0  0  0  0  0  0999 V2000
   62.8360   32.5360   47.4930 C   0  0  0  0  0  0  0  0  0  0  0  0
   61.4380   32.0170   47.7040 C   0  0  0  0  0  0  0  0  0  0  0  0
   60.4960   32.9070   47.0850 N   0  0  0  0  0  0  0  0  0  0  0  0
   60.5380   34.2510   47.3310 C   0  0  0  0  0  0  0  0  0  0  0  0
   59.6440   35.1250   46.7480 C   0  0  0  0  0  0  0  0  0  0  0  0
   58.7020   34.5910   45.9040 C   0  0  0  0  0  0  0  0  0  0  0  0
   58.6320   33.2210   45.6310 C   0  0  0  0  0  0  0  0  0  0  0  0
   59.5410   32.4230   46.2380 C   0  0  0  0  0  0  0  0  0  0  0  0
   59.5130   31.0320   45.9970 N   0  0  0  0  0  0  0  0  0  0  0  0
   58.5310   30.4960   45.1210 C   0  0  0  0  0  0  0  0  0  0  0  0
   58.4900   29.1240   44.8720 C   0  0  0  0  0  0  0  0  0  0  0  0
   57.5410   28.5870   44.0230 C   0  0  0  0  0  0  0  0  0  0  0  0
   56.6220   29.4220   43.4120 C   0  0  0  0  0  0  0  0  0  0  0  0
   56.6860   30.7570   43.6740 C   0  0  0  0  0  0  0  0  0  0  0  0
   57.6240   31.3350   44.5210 C   0  0  0  0  0  0  0  0  0  0  0  0
   57.5660   32.7960   44.7030 C   0  0  0  0  0  0  0  0  0  0  0  0
   63.3126   32.7129   48.4685 H   0  0  0  0  0  0  0  0  0  0  0  0
   63.4208   31.7951   46.9282 H   0  0  0  0  0  0  0  0  0  0  0  0
   62.7957   33.4791   46.9282 H   0  0  0  0  0  0  0  0  0  0  0  0
   61.3469   31.0171   47.2547 H   0  0  0  0  0  0  0  0  0  0  0  0
   61.2294   31.9561   48.7823 H   0  0  0  0  0  0  0  0  0  0  0  0
   61.3056   34.6464   48.0125 H   0  0  0  0  0  0  0  0  0  0  0  0
   59.6842   36.2054   46.9510 H   0  0  0  0  0  0  0  0  0  0  0  0
   57.9762   35.2648   45.4253 H   0  0  0  0  0  0  0  0  0  0  0  0
   60.1740   30.3820   46.4280 H   0  0  0  0  0  0  0  0  0  0  0  0
   59.2219   28.4616   45.3573 H   0  0  0  0  0  0  0  0  0  0  0  0
   57.5163   27.5036   43.8342 H   0  0  0  0  0  0  0  0  0  0  0  0
   55.8585   29.0174   42.7313 H   0  0  0  0  0  0  0  0  0  0  0  0
   55.9525   31.4162   43.1868 H   0  0  0  0  0  0  0  0  0  0  0  0
   57.7070   33.2920   43.7314 H   0  0  0  0  0  0  0  0  0  0  0  0
   56.5865   33.0741   45.1191 H   0  0  0  0  0  0  0  0  0  0  0  0
  1  2  1  0
  2  3  1  0
  3  4  2  0
  4  5  1  0
  5  6  2  0
  6  7  1  0
  7  8  2  0
  8  9  1  0
  9 10  1  0
 10 11  2  0
 11 12  1  0
 12 13  2  0
 13 14  1  0
 14 15  2  0
 15 16  1  0
  8  3  1  0
 15 10  1  0
 16  7  1  0
  1 17  1  0
  1 18  1  0
  1 19  1  0
  2 20  1  0
  2 21  1  0
  4 22  1  0
  5 23  1  0
  6 24  1  0
  9 25  1  0
 11 26  1  0
 12 27  1  0
 13 28  1  0
 14 29  1  0
 16 30  1  0
 16 31  1  0
M  CHG  1   3   1
M  END
>  <smiles>  (8) 
CC[n+]1cccc2c1Nc1ccccc1C2

>  <score_type>  (8) 
oracle

>  <origin>  (8) 
adg

>  <m_score__min__energy>  (8) 
-5

>  <m_primary>  (8) 
energy

$$$$
8:0
     RDKit          3D

 51 53  0  0  0  0  0  0  0  0999 V2000
   57.6910   27.2020   45.6170 C   0  0  0  0  0  0  0  0  0  0  0  0
   58.6310   28.2340   46.1330 C   0  0  0  0  0  0  0  0  0  0  0  0
   59.6240   28.6900   45.3070 C   0  0  0  0  0  0  0  0  0  0  0  0
   60.5050   29.6620   45.7940 C   0  0  0  0  0  0  0  0  0  0  0  0
   60.3460   30.1280   47.0800 C   0  0  0  0  0  0  0  0  0  0  0  0
   61.0770   31.0760   47.7610 C   0  0  0  0  0  0  0  0  0  0  0  0
   62.2510   31.8650   47.4030 C   0  0  0  0  0  0  0  0  0  0  0  0
   62.0560   33.0910   46.7250 N   0  0  0  0  0  0  0  0  0  0  0  0
   63.2810   33.8460   46.7840 C   0  0  0  0  0  0  0  0  0  0  0  0
   60.8890   33.8460   47.0140 C   0  0  0  0  0  0  0  0  0  0  0  0
   60.0770   34.2150   45.7970 C   0  0  0  0  0  0  0  0  0  0  0  0
   58.6780   34.3440   46.0040 N   0  0  0  0  0  0  0  0  0  0  0  0
   57.8560   34.2190   44.8390 C   0  0  0  0  0  0  0  0  0  0  0  0
   57.8720   32.8100   44.3030 C   0  0  0  0  0  0  0  0  0  0  0  0
   57.1320   32.0580   45.2400 O   0  0  0  0  0  0  0  0  0  0  0  0
   57.7830   32.0710   46.4640 C   0  0  0  0  0  0  0  0  0  0  0  0
   58.1530   33.4100   46.9860 C   0  0  0  0  0  0  0  0  0  0  0  0
   60.4610   31.1490   49.0150 C   0  0  0  0  0  0  0  0  0  0  0  0
   60.8240   32.0090   50.1640 C   0  0  0  0  0  0  0  0  0  0  0  0
   59.4170   30.2720   49.0450 N   0  0  0  0  0  0  0  0  0  0  0  0
   58.5280   30.0610   50.1840 C   0  0  0  0  0  0  0  0  0  0  0  0
   59.3320   29.6380   47.8650 C   0  0  0  0  0  0  0  0  0  0  0  0
   58.4640   28.6880   47.4050 N   0  0  0  0  0  0  0  0  0  0  0  0
   57.2173   26.6819   46.4626 H   0  0  0  0  0  0  0  0  0  0  0  0
   56.9165   27.6855   45.0035 H   0  0  0  0  0  0  0  0  0  0  0  0
   58.2445   26.4759   45.0035 H   0  0  0  0  0  0  0  0  0  0  0  0
   59.7266   28.3007   44.2833 H   0  0  0  0  0  0  0  0  0  0  0  0
   61.3144   30.0490   45.1575 H   0  0  0  0  0  0  0  0  0  0  0  0
   62.7878   32.0911   48.3361 H   0  0  0  0  0  0  0  0  0  0  0  0
   62.7880   31.2368   46.6771 H   0  0  0  0  0  0  0  0  0  0  0  0
   63.5567   34.0159   47.8352 H   0  0  0  0  0  0  0  0  0  0  0  0
   64.0822   33.2848   46.2809 H   0  0  0  0  0  0  0  0  0  0  0  0
   63.1397   34.8140   46.2809 H   0  0  0  0  0  0  0  0  0  0  0  0
   60.2523   33.2536   47.6875 H   0  0  0  0  0  0  0  0  0  0  0  0
   61.2260   34.7893   47.4685 H   0  0  0  0  0  0  0  0  0  0  0  0
   60.4526   35.1776   45.4197 H   0  0  0  0  0  0  0  0  0  0  0  0
   60.1991   33.3799   45.0916 H   0  0  0  0  0  0  0  0  0  0  0  0
   56.8225   34.4911   45.0994 H   0  0  0  0  0  0  0  0  0  0  0  0
   58.2523   34.8894   44.0622 H   0  0  0  0  0  0  0  0  0  0  0  0
   57.3979   32.7675   43.3113 H   0  0  0  0  0  0  0  0  0  0  0  0
   58.8950   32.4255   44.1780 H   0  0  0  0  0  0  0  0  0  0  0  0
   57.1230   31.5919   47.2021 H   0  0  0  0  0  0  0  0  0  0  0  0
   58.7333   31.5412   46.3019 H   0  0  0  0  0  0  0  0  0  0  0  0
   57.2540   33.8591   47.4333 H   0  0  0  0  0  0  0  0  0  0  0  0
   58.9686   33.2382   47.7038 H   0  0  0  0  0  0  0  0  0  0  0  0
   60.6009   31.4804   51.1025 H   0  0  0  0  0  0  0  0  0  0  0  0
   61.8979   32.2435   50.1216 H   0  0  0  0  0  0  0  0  0  0  0  0
   60.2430   32.9421   50.1216 H   0  0  0  0  0  0  0  0  0  0  0  0
   59.0919   30.1948   51.1190 H   0  0  0  0  0  0  0  0  0  0  0  0
   57.7038   30.7885   50.1455 H   0  0  0  0  0  0  0  0  0  0  0  0
   58.1186   29.0407   50.1455 H   0  0  0  0  0  0  0  0  0  0  0  0
  1  2  1  0
  2  3  2  0
  3  4  1  0
  4  5  2  0
  5  6  1  0
  6  7  1  0
  7  8  1  0
  8  9  1  0
  8 10  1  0
 10 11  1  0
 11 12  1  0
 12 13  1  0
 13 14  1  0
 14 15  1  0
 15 16  1  0
 16 17  1  0
  6 18  2  0
 18 19  1  0
 18 20  1  0
 20 21  1  0
 20 22  1  0
 22 23  2  0
 23  2  1  0
 22  5  1  0
 17 12  1  0
  1 24  1  0
  1 25  1  0
  1 26  1  0
  3 27  1  0
  4 28  1  0
  7 29  1  0
  7 30  1  0
  9 31  1  0
  9 32  1  0
  9 33  1  0
 10 34  1  0
 10 35  1  0
 11 36  1  0
 11 37  1  0
 13 38  1  0
 13 39  1  0
 14 40  1  0
 14 41  1  0
 16 42  1  0
 16 43  1  0
 17 44  1  0
 17 45  1  0
 19 46  1  0
 19 47  1  0
 19 48  1  0
 21 49  1  0
 21 50  1  0
 21 51  1  0
M  END
>  <smiles>  (9) 
Cc1ccc2c(CN(C)CCN3CCOCC3)c(C)n(C)c2n1

>  <score_type>  (9) 
oracle

>  <origin>  (9) 
adg

>  <m_score__min__energy>  (9) 
-7.29

>  <m_primary>  (9) 
energy

$$$$
9:0
     RDKit          3D

 46 48  0  0  0  0  0  0  0  0999 V2000
   60.3110   29.8700   46.1160 C   0  0  0  0  0  0  0  0  0  0  0  0
   59.6500   29.7220   44.8000 C   0  0  0  0  0  0  0  0  0  0  0  0
   58.2510   29.9720   44.7280 N   0  0  0  0  0  0  0  0  0  0  0  0
   57.5430   31.0770   44.4260 C   0  0  0  0  0  0  0  0  0  0  0  0
   58.1450   32.6730   43.9420 S   0  0  0  0  0  0  0  0  0  0  0  0
   57.3730   34.0050   44.8870 C   0  0  0  0  0  0  0  0  0  0  0  0
   57.4590   33.7150   46.3630 C   0  0  0  0  0  0  0  0  0  0  0  0
   58.3720   34.4850   47.0750 O   0  0  0  0  0  0  0  0  0  0  0  0
   59.6540   34.1700   47.3710 C   0  0  0  0  0  0  0  0  0  0  0  0
   60.1880   33.8730   48.5980 C   0  0  0  0  0  0  0  0  0  0  0  0
   61.5420   33.5650   48.7750 C   0  0  0  0  0  0  0  0  0  0  0  0
   62.4170   33.5420   47.7130 C   0  0  0  0  0  0  0  0  0  0  0  0
   63.7510   33.2530   47.7930 O   0  0  0  0  0  0  0  0  0  0  0  0
   64.4640   33.0670   48.9970 C   0  0  0  0  0  0  0  0  0  0  0  0
   61.8910   33.8400   46.4690 C   0  0  0  0  0  0  0  0  0  0  0  0
   60.5610   34.1420   46.2970 C   0  0  0  0  0  0  0  0  0  0  0  0
   56.2070   30.8040   44.5220 N   0  0  0  0  0  0  0  0  0  0  0  0
   56.0920   29.5550   44.8740 N   0  0  0  0  0  0  0  0  0  0  0  0
   57.3160   29.0140   45.0100 C   0  0  0  0  0  0  0  0  0  0  0  0
   57.5970   27.6330   45.3930 C   0  0  0  0  0  0  0  0  0  0  0  0
   57.7680   26.6210   44.4630 C   0  0  0  0  0  0  0  0  0  0  0  0
   58.0370   25.3200   44.8800 C   0  0  0  0  0  0  0  0  0  0  0  0
   58.1280   25.0680   46.2380 C   0  0  0  0  0  0  0  0  0  0  0  0
   57.9580   26.0830   47.1600 C   0  0  0  0  0  0  0  0  0  0  0  0
   57.6900   27.3800   46.7580 C   0  0  0  0  0  0  0  0  0  0  0  0
   59.5749   29.7052   46.9166 H   0  0  0  0  0  0  0  0  0  0  0  0
   61.1209   29.1310   46.2047 H   0  0  0  0  0  0  0  0  0  0  0  0
   60.7284   30.8838   46.2047 H   0  0  0  0  0  0  0  0  0  0  0  0
   60.1436   30.4172   44.1050 H   0  0  0  0  0  0  0  0  0  0  0  0
   59.7533   28.6542   44.5568 H   0  0  0  0  0  0  0  0  0  0  0  0
   57.8919   34.9508   44.6719 H   0  0  0  0  0  0  0  0  0  0  0  0
   56.3145   34.0825   44.5981 H   0  0  0  0  0  0  0  0  0  0  0  0
   56.4630   33.8818   46.7991 H   0  0  0  0  0  0  0  0  0  0  0  0
   57.8128   32.6767   46.4452 H   0  0  0  0  0  0  0  0  0  0  0  0
   59.5272   33.8768   49.4774 H   0  0  0  0  0  0  0  0  0  0  0  0
   61.9146   33.3365   49.7844 H   0  0  0  0  0  0  0  0  0  0  0  0
   63.7933   33.2420   49.8511 H   0  0  0  0  0  0  0  0  0  0  0  0
   64.8505   32.0380   49.0391 H   0  0  0  0  0  0  0  0  0  0  0  0
   65.3039   33.7761   49.0391 H   0  0  0  0  0  0  0  0  0  0  0  0
   62.5557   33.8352   45.5925 H   0  0  0  0  0  0  0  0  0  0  0  0
   60.1940   34.3694   45.2852 H   0  0  0  0  0  0  0  0  0  0  0  0
   57.6909   26.8463   43.3891 H   0  0  0  0  0  0  0  0  0  0  0  0
   58.1740   24.5112   44.1472 H   0  0  0  0  0  0  0  0  0  0  0  0
   58.3384   24.0465   46.5877 H   0  0  0  0  0  0  0  0  0  0  0  0
   58.0371   25.8560   48.2334 H   0  0  0  0  0  0  0  0  0  0  0  0
   57.5547   28.1856   47.4947 H   0  0  0  0  0  0  0  0  0  0  0  0
  1  2  1  0
  2  3  1  0
  3  4  1  0
  4  5  1  0
  5  6  1  0
  6  7  1  0
  7  8  1  0
  8  9  1  0
  9 10  2  0
 10 11  1  0
 11 12  2  0
 12 13  1  0
 13 14  1  0
 12 15  1  0
 15 16  2  0
  4 17  2  0
 17 18  1  0
 18 19  2  0
 19 20  1  0
 20 21  2  0
 21 22  1  0
 22 23  2  0
 23 24  1  0
 24 25  2  0
 19  3  1  0
 25 20  1  0
 16  9  1  0
  1 26  1  0
  1 27  1  0
  1 28  1  0
  2 29  1  0
  2 30  1  0
  6 31  1  0
  6 32  1  0
  7 33  1  0
  7 34  1  0
 10 35  1  0
 11 36  1  0
 14 37  1  0
 14 38  1  0
 14 39  1  0
 15 40  1  0
 16 41  1  0
 21 42  1  0
 22 43  1  0
 23 44  1  0
 24 45  1  0
 25 46  1  0
M  END
>  <smiles>  (10) 
CCn1c(SCCOc2ccc(OC)cc2)nnc1-c1ccccc1

>  <score_type>  (10) 
oracle

>  <origin>  (10) 
adg

>  <m_score__min__energy>  (10) 
-8.6300000000000008

>  <m_primary>  (10) 
energy

$$$$
10:0
     RDKit          3D

 61 63  0  0  1  0  0  0  0  0999 V2000
   63.1180   34.5880   50.7170 C   0  0  0  0  0  0  0  0  0  0  0  0
   61.9280   33.7230   51.1520 C   0  0  0  0  0  0  0  0  0  0  0  0
   61.0500   33.6260   50.0270 N   0  0  0  0  0  0  0  0  0  0  0  0
   59.6490   33.8320   50.4000 C   0  0  0  0  0  0  0  0  0  0  0  0
   58.9250   32.4940   50.1820 C   0  0  0  0  0  0  0  0  0  0  0  0
   59.5160   31.7540   49.2080 O   0  0  0  0  0  0  0  0  0  0  0  0
   59.7590   30.4080   49.5060 C   0  0  0  0  0  0  0  0  0  0  0  0
   60.3590   29.7260   48.3650 C   0  0  0  0  0  0  0  0  0  0  0  0
   60.6520   30.4560   47.1470 N   0  0  0  0  0  0  0  0  0  0  0  0
   59.6690   30.6590   46.1670 C   0  0  0  0  0  0  0  0  0  0  0  0
   59.2020   29.4750   45.5600 C   0  0  0  0  0  0  0  0  0  0  0  0
   59.7810   28.2540   45.8630 C   0  0  0  0  0  0  0  0  0  0  0  0
   59.3890   27.0590   45.3010 C   0  0  0  0  0  0  0  0  0  0  0  0
   58.3650   27.0820   44.3880 C   0  0  0  0  0  0  0  0  0  0  0  0
   57.7760   28.2830   44.0680 C   0  0  0  0  0  0  0  0  0  0  0  0
   58.1810   29.4850   44.6430 C   0  0  0  0  0  0  0  0  0  0  0  0
   57.5800   30.6610   44.2860 N   0  0  0  0  0  0  0  0  0  0  0  0
   56.5230   30.5340   43.3130 C   0  0  0  0  0  0  0  0  0  0  0  0
   58.0110   31.7850   44.8440 C   0  0  0  0  0  0  0  0  0  0  0  0
   57.4040   32.9630   44.4510 C   0  0  0  0  0  0  0  0  0  0  0  0
   57.8280   34.1560   44.9800 C   0  0  0  0  0  0  0  0  0  0  0  0
   58.8510   34.1480   45.8890 C   0  0  0  0  0  0  0  0  0  0  0  0
   59.4970   32.9920   46.3200 C   0  0  0  0  0  0  0  0  0  0  0  0
   60.5940   33.1650   47.1810 N   0  0  0  0  0  0  0  0  0  0  0  0
   61.8090   33.8720   46.6990 C   0  0  0  0  0  0  0  0  0  0  0  0
   62.9740   33.1250   47.2400 C   0  0  0  0  0  0  0  0  0  0  0  0
   62.7380   32.2320   48.1180 N   0  0  0  0  0  0  0  0  0  0  0  0
   63.7900   31.8810   49.0370 C   0  0  0  0  0  0  0  0  0  0  0  0
   59.0610   31.8140   45.7900 C   0  0  0  0  0  0  0  0  0  0  0  0
   63.6403   34.9676   51.6076 H   0  0  0  0  0  0  0  0  0  0  0  0
   63.8116   33.9818   50.1158 H   0  0  0  0  0  0  0  0  0  0  0  0
   62.7554   35.4348   50.1158 H   0  0  0  0  0  0  0  0  0  0  0  0
   62.2761   32.7222   51.4473 H   0  0  0  0  0  0  0  0  0  0  0  0
   61.4128   34.1688   52.0156 H   0  0  0  0  0  0  0  0  0  0  0  0
   61.1620   32.7300   49.5260 H   0  0  0  0  0  0  0  0  0  0  0  0
   59.5793   34.1316   51.4561 H   0  0  0  0  0  0  0  0  0  0  0  0
   59.1939   34.6283   49.7927 H   0  0  0  0  0  0  0  0  0  0  0  0
   58.9409   31.9231   51.1221 H   0  0  0  0  0  0  0  0  0  0  0  0
   57.8930   32.7104   49.8686 H   0  0  0  0  0  0  0  0  0  0  0  0
   60.4443   30.3465   50.3643 H   0  0  0  0  0  0  0  0  0  0  0  0
   58.8020   29.9211   49.7450 H   0  0  0  0  0  0  0  0  0  0  0  0
   61.3112   29.3013   48.7157 H   0  0  0  0  0  0  0  0  0  0  0  0
   59.5718   29.0243   48.0518 H   0  0  0  0  0  0  0  0  0  0  0  0
   61.6260   30.8270   46.9180 H   0  0  0  0  0  0  0  0  0  0  0  0
   60.6018   28.2375   46.5951 H   0  0  0  0  0  0  0  0  0  0  0  0
   59.8820   26.1149   45.5758 H   0  0  0  0  0  0  0  0  0  0  0  0
   58.0189   26.1501   43.9171 H   0  0  0  0  0  0  0  0  0  0  0  0
   56.9575   28.2945   43.3332 H   0  0  0  0  0  0  0  0  0  0  0  0
   55.5596   30.4183   43.8312 H   0  0  0  0  0  0  0  0  0  0  0  0
   56.4945   31.4352   42.6829 H   0  0  0  0  0  0  0  0  0  0  0  0
   56.7087   29.6517   42.6829 H   0  0  0  0  0  0  0  0  0  0  0  0
   56.5846   32.9442   43.7174 H   0  0  0  0  0  0  0  0  0  0  0  0
   57.3541   35.1019   44.6788 H   0  0  0  0  0  0  0  0  0  0  0  0
   59.1825   35.1114   46.3036 H   0  0  0  0  0  0  0  0  0  0  0  0
   60.7250   32.8490   48.1490 H   0  0  0  0  0  0  0  0  0  0  0  0
   61.8363   33.8742   45.5993 H   0  0  0  0  0  0  0  0  0  0  0  0
   61.8184   34.9200   47.0331 H   0  0  0  0  0  0  0  0  0  0  0  0
   63.9979   33.3342   46.8968 H   0  0  0  0  0  0  0  0  0  0  0  0
   63.4301   32.0011   50.0695 H   0  0  0  0  0  0  0  0  0  0  0  0
   64.0874   30.8350   48.8717 H   0  0  0  0  0  0  0  0  0  0  0  0
   64.6559   32.5389   48.8717 H   0  0  0  0  0  0  0  0  0  0  0  0
  1  2  1  0
  2  3  1  0
  3  4  1  0
  4  5  1  0
  5  6  1  0
  6  7  1  0
  7  8  1  0
  8  9  1  0
  9 10  1  0
 10 11  2  0
 11 12  1  0
 12 13  2  0
 13 14  1  0
 14 15  2  0
 15 16  1  0
 16 17  2  0
 17 18  1  0
 17 19  1  0
 19 20  2  0
 20 21  1  0
 21 22  2  0
 22 23  1  0
 23 24  1  0
 24 25  1  0
 25 26  1  0
 26 27  2  0
 27 28  1  0
 23 29  2  0
 29 10  1  0
 16 11  1  0
 29 19  1  0
  1 30  1  0
  1 31  1  0
  1 32  1  0
  2 33  1  0
  2 34  1  0
  3 35  1  0
  4 36  1  0
  4 37  1  0
  5 38  1  0
  5 39  1  0
  7 40  1  0
  7 41  1  0
  8 42  1  0
  8 43  1  0
  9 44  1  0
 12 45  1  0
 13 46  1  0
 14 47  1  0
 15 48  1  0
 18 49  1  0
 18 50  1  0
 18 51  1  0
 20 52  1  0
 21 53  1  0
 22 54  1  0
 24 55  1  0
 25 56  1  0
 25 57  1  0
 26 58  1  0
 28 59  1  0
 28 60  1  0
 28 61  1  0
M  CHG  1  17   1
M  END
>  <smiles>  (11) 
CCNCCOCCNc1c2ccccc2[n+](C)c2cccc(NCC=NC)c12

>  <score_type>  (11) 
oracle

>  <origin>  (11) 
adg

>  <m_score__min__energy>  (11) 
-4.2699999999999996

>  <m_primary>  (11) 
energy

$$$$
11:0
     RDKit          3D

 55 57  0  0  0  0  0  0  0  0999 V2000
   62.8310   33.8310   46.3970 C   0  0  0  0  0  0  0  0  0  0  0  0
   63.7350   32.9020   47.1750 C   0  0  0  0  0  0  0  0  0  0  0  0
   63.0250   31.9970   47.9460 O   0  0  0  0  0  0  0  0  0  0  0  0
   63.4730   32.0280   49.2630 C   0  0  0  0  0  0  0  0  0  0  0  0
   62.4990   32.7340   50.1760 C   0  0  0  0  0  0  0  0  0  0  0  0
   61.3540   33.1790   49.5640 O   0  0  0  0  0  0  0  0  0  0  0  0
   60.3120   33.4440   50.4590 C   0  0  0  0  0  0  0  0  0  0  0  0
   59.1940   32.4470   50.3260 C   0  0  0  0  0  0  0  0  0  0  0  0
   59.5070   31.2180   49.5670 C   0  0  0  0  0  0  0  0  0  0  0  0
   60.1400   31.3570   48.2900 N   0  0  0  0  0  0  0  0  0  0  0  0
   59.4900   31.4360   47.0560 C   0  0  0  0  0  0  0  0  0  0  0  0
   59.1890   32.5340   46.3130 C   0  0  0  0  0  0  0  0  0  0  0  0
   59.5610   33.7690   46.7660 C   0  0  0  0  0  0  0  0  0  0  0  0
   59.3110   34.9410   46.0930 C   0  0  0  0  0  0  0  0  0  0  0  0
   58.6430   34.8390   44.8900 C   0  0  0  0  0  0  0  0  0  0  0  0
   58.2440   33.5960   44.3870 C   0  0  0  0  0  0  0  0  0  0  0  0
   58.5130   32.4430   45.0910 C   0  0  0  0  0  0  0  0  0  0  0  0
   58.1190   31.2730   44.5750 N   0  0  0  0  0  0  0  0  0  0  0  0
   57.4250   31.0790   43.3480 C   0  0  0  0  0  0  0  0  0  0  0  0
   58.4090   30.1500   45.3010 C   0  0  0  0  0  0  0  0  0  0  0  0
   58.0280   28.8980   44.8170 C   0  0  0  0  0  0  0  0  0  0  0  0
   58.2990   27.7320   45.5110 C   0  0  0  0  0  0  0  0  0  0  0  0
   57.8780   26.3940   44.9700 C   0  0  0  0  0  0  0  0  0  0  0  0
   58.9630   27.7860   46.7180 C   0  0  0  0  0  0  0  0  0  0  0  0
   59.3310   29.0310   47.1780 C   0  0  0  0  0  0  0  0  0  0  0  0
   59.0710   30.2050   46.5040 C   0  0  0  0  0  0  0  0  0  0  0  0
   62.2395   34.4388   47.0975 H   0  0  0  0  0  0  0  0  0  0  0  0
   63.4415   34.4914   45.7637 H   0  0  0  0  0  0  0  0  0  0  0  0
   62.1542   33.2387   45.7637 H   0  0  0  0  0  0  0  0  0  0  0  0
   64.3636   32.3444   46.4651 H   0  0  0  0  0  0  0  0  0  0  0  0
   64.3427   33.5172   47.8548 H   0  0  0  0  0  0  0  0  0  0  0  0
   63.6066   30.9951   49.6170 H   0  0  0  0  0  0  0  0  0  0  0  0
   64.4227   32.5826   49.2856 H   0  0  0  0  0  0  0  0  0  0  0  0
   62.2103   32.0347   50.9745 H   0  0  0  0  0  0  0  0  0  0  0  0
   63.0181   33.6292   50.5490 H   0  0  0  0  0  0  0  0  0  0  0  0
   60.7053   33.4030   51.4855 H   0  0  0  0  0  0  0  0  0  0  0  0
   59.9095   34.4416   50.2292 H   0  0  0  0  0  0  0  0  0  0  0  0
   58.8880   32.1477   51.3393 H   0  0  0  0  0  0  0  0  0  0  0  0
   58.4084   32.9583   49.7503 H   0  0  0  0  0  0  0  0  0  0  0  0
   60.1705   30.6059   50.1956 H   0  0  0  0  0  0  0  0  0  0  0  0
   58.5244   30.7792   49.3392 H   0  0  0  0  0  0  0  0  0  0  0  0
   61.1970   31.4020   48.2850 H   0  0  0  0  0  0  0  0  0  0  0  0
   60.0925   33.8283   47.7272 H   0  0  0  0  0  0  0  0  0  0  0  0
   59.6285   35.9146   46.4946 H   0  0  0  0  0  0  0  0  0  0  0  0
   58.4203   35.7509   44.3165 H   0  0  0  0  0  0  0  0  0  0  0  0
   57.7132   33.5392   43.4252 H   0  0  0  0  0  0  0  0  0  0  0  0
   56.3849   30.7883   43.5570 H   0  0  0  0  0  0  0  0  0  0  0  0
   57.4350   32.0144   42.7692 H   0  0  0  0  0  0  0  0  0  0  0  0
   57.9186   30.2844   42.7692 H   0  0  0  0  0  0  0  0  0  0  0  0
   57.4968   28.8361   43.8558 H   0  0  0  0  0  0  0  0  0  0  0  0
   57.6633   25.7117   45.8057 H   0  0  0  0  0  0  0  0  0  0  0  0
   56.9746   26.5152   44.3542 H   0  0  0  0  0  0  0  0  0  0  0  0
   58.6881   25.9761   44.3542 H   0  0  0  0  0  0  0  0  0  0  0  0
   59.1893   26.8736   47.2893 H   0  0  0  0  0  0  0  0  0  0  0  0
   59.8632   29.0920   48.1388 H   0  0  0  0  0  0  0  0  0  0  0  0
  1  2  1  0
  2  3  1  0
  3  4  1  0
  4  5  1  0
  5  6  1  0
  6  7  1  0
  7  8  1  0
  8  9  1  0
  9 10  1  0
 10 11  1  0
 11 12  2  0
 12 13  1  0
 13 14  2  0
 14 15  1  0
 15 16  2  0
 16 17  1  0
 17 18  2  0
 18 19  1  0
 18 20  1  0
 20 21  2  0
 21 22  1  0
 22 23  1  0
 22 24  2  0
 24 25  1  0
 25 26  2  0
 26 11  1  0
 17 12  1  0
 26 20  1  0
  1 27  1  0
  1 28  1  0
  1 29  1  0
  2 30  1  0
  2 31  1  0
  4 32  1  0
  4 33  1  0
  5 34  1  0
  5 35  1  0
  7 36  1  0
  7 37  1  0
  8 38  1  0
  8 39  1  0
  9 40  1  0
  9 41  1  0
 10 42  1  0
 13 43  1  0
 14 44  1  0
 15 45  1  0
 16 46  1  0
 19 47  1  0
 19 48  1  0
 19 49  1  0
 21 50  1  0
 23 51  1  0
 23 52  1  0
 23 53  1  0
 24 54  1  0
 25 55  1  0
M  CHG  1  18   1
M  END
>  <smiles>  (12) 
CCOCCOCCCNc1c2ccccc2[n+](C)c2cc(C)ccc12

>  <score_type>  (12) 
oracle

>  <origin>  (12) 
adg

>  <m_score__min__energy>  (12) 
-6.0899999999999999

>  <m_primary>  (12) 
energy

$$$$
12:0
     RDKit          3D

 38 37  0  0  1  0  0  0  0  0999 V2000
   58.1120   27.0210   42.6110 C   0  0  0  0  0  0  0  0  0  0  0  0
   58.3450   27.0960   44.1020 C   0  0  0  0  0  0  0  0  0  0  0  0
   58.2150   28.3800   44.5970 O   0  0  0  0  0  0  0  0  0  0  0  0
   59.4680   28.8210   44.8990 N   0  0  0  0  0  0  0  0  0  0  0  0
   59.5610   29.7460   45.9770 C   0  0  0  0  0  0  0  0  0  0  0  0
   58.6080   30.5700   46.2580 N   0  0  0  0  0  0  0  0  0  0  0  0
   58.9290   31.7210   47.0790 C   0  0  0  0  0  0  0  0  0  0  0  0
   57.7730   32.7000   46.8120 C   0  0  0  0  0  0  0  0  0  0  0  0
   57.1600   32.2270   45.5610 N   0  0  0  0  0  0  0  0  0  0  0  0
   57.4920   33.0610   44.4530 C   0  0  0  0  0  0  0  0  0  0  0  0
   57.8240   32.3020   43.2110 C   0  0  0  0  0  0  0  0  0  0  0  0
   57.7380   30.8840   43.3170 N   0  0  0  0  0  0  0  0  0  0  0  0
   56.6470   30.2990   42.6240 C   0  0  0  0  0  0  0  0  0  0  0  0
   55.5680   29.7490   43.5210 C   0  0  0  0  0  0  0  0  0  0  0  0
   55.8710   29.9200   44.9210 N   0  0  0  0  0  0  0  0  0  0  0  0
   57.0813   26.6892   42.4172 H   0  0  0  0  0  0  0  0  0  0  0  0
   58.2673   28.0145   42.1652 H   0  0  0  0  0  0  0  0  0  0  0  0
   58.8177   26.3046   42.1652 H   0  0  0  0  0  0  0  0  0  0  0  0
   57.6124   26.4484   44.6059 H   0  0  0  0  0  0  0  0  0  0  0  0
   59.3771   26.7679   44.2945 H   0  0  0  0  0  0  0  0  0  0  0  0
   60.3210   28.5140   44.3860 H   0  0  0  0  0  0  0  0  0  0  0  0
   60.4742   29.7590   46.5901 H   0  0  0  0  0  0  0  0  0  0  0  0
   58.9694   31.4439   48.1428 H   0  0  0  0  0  0  0  0  0  0  0  0
   59.9128   32.1512   46.8403 H   0  0  0  0  0  0  0  0  0  0  0  0
   57.0440   32.6722   47.6352 H   0  0  0  0  0  0  0  0  0  0  0  0
   58.1202   33.7410   46.7361 H   0  0  0  0  0  0  0  0  0  0  0  0
   57.4150   31.2430   45.3700 H   0  0  0  0  0  0  0  0  0  0  0  0
   56.6338   33.7157   44.2413 H   0  0  0  0  0  0  0  0  0  0  0  0
   58.3917   33.6278   44.7345 H   0  0  0  0  0  0  0  0  0  0  0  0
   57.1305   32.6254   42.4207 H   0  0  0  0  0  0  0  0  0  0  0  0
   58.8791   32.5250   42.9939 H   0  0  0  0  0  0  0  0  0  0  0  0
   58.0050   30.4540   44.1990 H   0  0  0  0  0  0  0  0  0  0  0  0
   56.1987   31.0665   41.9759 H   0  0  0  0  0  0  0  0  0  0  0  0
   57.0524   29.4470   42.0586 H   0  0  0  0  0  0  0  0  0  0  0  0
   54.6251   30.2698   43.2983 H   0  0  0  0  0  0  0  0  0  0  0  0
   55.4904   28.6692   43.3260 H   0  0  0  0  0  0  0  0  0  0  0  0
   56.9130   30.0350   45.0890 H   0  0  0  0  0  0  0  0  0  0  0  0
   55.4500   30.8490   45.2070 H   0  0  0  0  0  0  0  0  0  0  0  0
  1  2  1  0
  2  3  1  0
  3  4  1  0
  4  5  1  0
  5  6  2  0
  6  7  1  0
  7  8  1  0
  8  9  1  0
  9 10  1  0
 10 11  1  0
 11 12  1  0
 12 13  1  0
 13 14  1  0
 14 15  1  0
  1 16  1  0
  1 17  1  0
  1 18  1  0
  2 19  1  0
  2 20  1  0
  4 21  1  0
  5 22  1  0
  7 23  1  0
  7 24  1  0
  8 25  1  0
  8 26  1  0
  9 27  1  0
 10 28  1  0
 10 29  1  0
 11 30  1  0
 11 31  1  0
 12 32  1  0
 13 33  1  0
 13 34  1  0
 14 35  1  0
 14 36  1  0
 15 37  1  0
 15 38  1  0
M  END
>  <smiles>  (13) 
CCONC=NCCNCCNCCN

>  <score_type>  (13) 
oracle

>  <origin>  (13) 
adg

>  <m_score__min__energy>  (13) 
-2.4900000000000002

>  <m_primary>  (13) 
energy

$$$$
13:0
     RDKit          3D

 49 50  0  0  0  0  0  0  0  0999 V2000
   57.8780   31.9760   43.1660 C   0  0  0  0  0  0  0  0  0  0  0  0
   56.9130   30.8380   43.4350 C   0  0  0  0  0  0  0  0  0  0  0  0
   56.9940   30.5160   44.8730 N   0  0  0  0  0  0  0  0  0  0  0  0
   57.0880   29.0660   45.0220 C   0  0  0  0  0  0  0  0  0  0  0  0
   57.5740   28.5070   43.6940 C   0  0  0  0  0  0  0  0  0  0  0  0
   58.1700   31.2010   45.3610 C   0  0  0  0  0  0  0  0  0  0  0  0
   59.2520   30.2470   45.8110 C   0  0  0  0  0  0  0  0  0  0  0  0
   59.0580   29.9080   47.1160 O   0  0  0  0  0  0  0  0  0  0  0  0
   60.1620   29.5290   47.8470 C   0  0  0  0  0  0  0  0  0  0  0  0
   59.7050   29.6550   49.3120 C   0  0  0  0  0  0  0  0  0  0  0  0
   60.5900   30.2580   50.1380 O   0  0  0  0  0  0  0  0  0  0  0  0
   60.3370   31.5940   50.4550 C   0  0  0  0  0  0  0  0  0  0  0  0
   60.1580   32.3690   49.1950 C   0  0  0  0  0  0  0  0  0  0  0  0
   58.8750   32.7220   48.7840 C   0  0  0  0  0  0  0  0  0  0  0  0
   58.6300   33.4330   47.6320 C   0  0  0  0  0  0  0  0  0  0  0  0
   59.6800   33.8270   46.8240 C   0  0  0  0  0  0  0  0  0  0  0  0
   59.3160   34.8260   45.2230 Br  0  0  0  0  0  0  0  0  0  0  0  0
   60.9550   33.4910   47.2040 C   0  0  0  0  0  0  0  0  0  0  0  0
   62.0010   33.8610   46.4020 C   0  0  0  0  0  0  0  0  0  0  0  0
   63.3220   33.5380   46.7200 C   0  0  0  0  0  0  0  0  0  0  0  0
   63.5340   32.8230   47.8850 C   0  0  0  0  0  0  0  0  0  0  0  0
   62.5020   32.4310   48.7240 C   0  0  0  0  0  0  0  0  0  0  0  0
   61.1940   32.7670   48.3830 C   0  0  0  0  0  0  0  0  0  0  0  0
   58.2304   32.3916   44.1216 H   0  0  0  0  0  0  0  0  0  0  0  0
   58.7369   31.6002   42.5906 H   0  0  0  0  0  0  0  0  0  0  0  0
   57.3669   32.7619   42.5906 H   0  0  0  0  0  0  0  0  0  0  0  0
   55.8889   31.1453   43.1764 H   0  0  0  0  0  0  0  0  0  0  0  0
   57.1724   29.9590   42.8267 H   0  0  0  0  0  0  0  0  0  0  0  0
   57.8019   28.8149   45.8203 H   0  0  0  0  0  0  0  0  0  0  0  0
   56.1114   28.6375   45.2916 H   0  0  0  0  0  0  0  0  0  0  0  0
   58.2854   27.6887   43.8790 H   0  0  0  0  0  0  0  0  0  0  0  0
   56.7163   28.1247   43.1212 H   0  0  0  0  0  0  0  0  0  0  0  0
   58.0719   29.3032   43.1212 H   0  0  0  0  0  0  0  0  0  0  0  0
   58.5702   31.8327   44.5543 H   0  0  0  0  0  0  0  0  0  0  0  0
   57.8694   31.7999   46.2333 H   0  0  0  0  0  0  0  0  0  0  0  0
   59.2197   29.3397   45.1898 H   0  0  0  0  0  0  0  0  0  0  0  0
   60.2320   30.7353   45.7056 H   0  0  0  0  0  0  0  0  0  0  0  0
   60.4468   28.4922   47.6148 H   0  0  0  0  0  0  0  0  0  0  0  0
   61.0459   30.1455   47.6264 H   0  0  0  0  0  0  0  0  0  0  0  0
   58.7715   30.2366   49.3292 H   0  0  0  0  0  0  0  0  0  0  0  0
   59.5870   28.6273   49.6861 H   0  0  0  0  0  0  0  0  0  0  0  0
   59.4222   31.6616   51.0621 H   0  0  0  0  0  0  0  0  0  0  0  0
   61.1822   32.0056   51.0262 H   0  0  0  0  0  0  0  0  0  0  0  0
   58.0207   32.4193   49.4074 H   0  0  0  0  0  0  0  0  0  0  0  0
   57.5969   33.6883   47.3535 H   0  0  0  0  0  0  0  0  0  0  0  0
   61.7954   34.4281   45.4821 H   0  0  0  0  0  0  0  0  0  0  0  0
   64.1581   33.8393   46.0718 H   0  0  0  0  0  0  0  0  0  0  0  0
   64.5652   32.5539   48.1574 H   0  0  0  0  0  0  0  0  0  0  0  0
   62.7126   31.8644   49.6430 H   0  0  0  0  0  0  0  0  0  0  0  0
  1  2  1  0
  2  3  1  0
  3  4  1  0
  4  5  1  0
  3  6  1  0
  6  7  1  0
  7  8  1  0
  8  9  1  0
  9 10  1  0
 10 11  1  0
 11 12  1  0
 12 13  1  0
 13 14  2  0
 14 15  1  0
 15 16  2  0
 16 17  1  0
 16 18  1  0
 18 19  2  0
 19 20  1  0
 20 21  2  0
 21 22  1  0
 22 23  2  0
 23 13  1  0
 23 18  1  0
  1 24  1  0
  1 25  1  0
  1 26  1  0
  2 27  1  0
  2 28  1  0
  4 29  1  0
  4 30  1  0
  5 31  1  0
  5 32  1  0
  5 33  1  0
  6 34  1  0
  6 35  1  0
  7 36  1  0
  7 37  1  0
  9 38  1  0
  9 39  1  0
 10 40  1  0
 10 41  1  0
 12 42  1  0
 12 43  1  0
 14 44  1  0
 15 45  1  0
 19 46  1  0
 20 47  1  0
 21 48  1  0
 22 49  1  0
M  END
>  <smiles>  (14) 
CCN(CC)CCOCCOCc1ccc(Br)c2ccccc12

>  <score_type>  (14) 
oracle

>  <origin>  (14) 
adg

>  <m_score__min__energy>  (14) 
-6.79

>  <m_primary>  (14) 
energy

$$$$
14:0
     RDKit          3D

 18 19  0  0  0  0  0  0  0  0999 V2000
   57.1240   27.8790   45.5870 C   0  0  0  0  0  0  0  0  0  0  0  0
   57.1330   29.3140   45.2770 N   0  0  0  0  0  0  0  0  0  0  0  0
   56.2800   29.9950   44.5330 N   0  0  0  0  0  0  0  0  0  0  0  0
   56.6280   31.2940   44.4890 C   0  0  0  0  0  0  0  0  0  0  0  0
   57.7670   31.4050   45.2590 C   0  0  0  0  0  0  0  0  0  0  0  0
   58.5440   32.4980   45.5590 C   0  0  0  0  0  0  0  0  0  0  0  0
   58.1220   34.2210   44.8860 Br  0  0  0  0  0  0  0  0  0  0  0  0
   59.6690   32.3620   46.3720 C   0  0  0  0  0  0  0  0  0  0  0  0
   60.7660   33.8630   46.8060 Br  0  0  0  0  0  0  0  0  0  0  0  0
   59.9730   31.1000   46.8630 C   0  0  0  0  0  0  0  0  0  0  0  0
   61.5090   30.9440   47.9680 Br  0  0  0  0  0  0  0  0  0  0  0  0
   59.1890   30.0080   46.5570 C   0  0  0  0  0  0  0  0  0  0  0  0
   59.6360   28.2840   47.2470 Br  0  0  0  0  0  0  0  0  0  0  0  0
   58.0930   30.1580   45.7600 C   0  0  0  0  0  0  0  0  0  0  0  0
   57.1231   27.7396   46.6781 H   0  0  0  0  0  0  0  0  0  0  0  0
   56.2229   27.4167   45.1576 H   0  0  0  0  0  0  0  0  0  0  0  0
   58.0192   27.4055   45.1576 H   0  0  0  0  0  0  0  0  0  0  0  0
   56.1106   32.1013   43.9499 H   0  0  0  0  0  0  0  0  0  0  0  0
  1  2  1  0
  2  3  1  0
  3  4  2  0
  4  5  1  0
  5  6  2  0
  6  7  1  0
  6  8  1  0
  8  9  1  0
  8 10  2  0
 10 11  1  0
 10 12  1  0
 12 13  1  0
 12 14  2  0
 14  2  1  0
 14  5  1  0
  1 15  1  0
  1 16  1  0
  1 17  1  0
  4 18  1  0
M  END
>  <smiles>  (15) 
Cn1ncc2c(Br)c(Br)c(Br)c(Br)c21

>  <score_type>  (15) 
oracle

>  <origin>  (15) 
adg

>  <m_score__min__energy>  (15) 
-6.7699999999999996

>  <m_primary>  (15) 
energy

$$$$
15:0
     RDKit          3D

 35 36  0  0  0  0  0  0  0  0999 V2000
   58.1580   27.1680   43.3180 C   0  0  0  0  0  0  0  0  0  0  0  0
   58.8500   27.4690   44.6490 C   0  0  0  0  0  0  0  0  0  0  0  0
   59.2930   28.7650   44.5810 O   0  0  0  0  0  0  0  0  0  0  0  0
   59.8590   29.1720   45.7670 C   0  0  0  0  0  0  0  0  0  0  0  0
   58.9890   28.8320   46.9330 C   0  0  0  0  0  0  0  0  0  0  0  0
   58.9200   29.8230   47.8920 O   0  0  0  0  0  0  0  0  0  0  0  0
   59.3100   31.0850   47.4830 C   0  0  0  0  0  0  0  0  0  0  0  0
   58.1400   31.9620   47.1360 C   0  0  0  0  0  0  0  0  0  0  0  0
   58.0550   32.1880   45.6850 N   0  0  0  0  0  0  0  0  0  0  0  0
   58.6090   33.2200   45.0050 C   0  0  0  0  0  0  0  0  0  0  0  0
   59.6380   34.6530   45.7130 Br  0  0  0  0  0  0  0  0  0  0  0  0
   58.3200   33.0910   43.6950 N   0  0  0  0  0  0  0  0  0  0  0  0
   57.5870   31.9800   43.5560 C   0  0  0  0  0  0  0  0  0  0  0  0
   57.0090   31.3480   42.4590 C   0  0  0  0  0  0  0  0  0  0  0  0
   57.1680   31.8860   41.2850 N   0  0  0  0  0  0  0  0  0  0  0  0
   56.3040   30.2080   42.6080 N   0  0  0  0  0  0  0  0  0  0  0  0
   56.1380   29.6460   43.8410 C   0  0  0  0  0  0  0  0  0  0  0  0
   56.6950   30.2500   44.9190 N   0  0  0  0  0  0  0  0  0  0  0  0
   57.4120   31.4040   44.7910 C   0  0  0  0  0  0  0  0  0  0  0  0
   57.1649   26.7360   43.5105 H   0  0  0  0  0  0  0  0  0  0  0  0
   58.0476   28.0994   42.7433 H   0  0  0  0  0  0  0  0  0  0  0  0
   58.7641   26.4522   42.7433 H   0  0  0  0  0  0  0  0  0  0  0  0
   58.1384   27.3552   45.4800 H   0  0  0  0  0  0  0  0  0  0  0  0
   59.6851   26.7751   44.8255 H   0  0  0  0  0  0  0  0  0  0  0  0
   60.8316   28.6728   45.8889 H   0  0  0  0  0  0  0  0  0  0  0  0
   59.9815   30.2647   45.7343 H   0  0  0  0  0  0  0  0  0  0  0  0
   57.9719   28.6398   46.5608 H   0  0  0  0  0  0  0  0  0  0  0  0
   59.4370   27.9519   47.4175 H   0  0  0  0  0  0  0  0  0  0  0  0
   59.8785   31.5599   48.2962 H   0  0  0  0  0  0  0  0  0  0  0  0
   59.9228   30.9694   46.5768 H   0  0  0  0  0  0  0  0  0  0  0  0
   57.2141   31.4766   47.4781 H   0  0  0  0  0  0  0  0  0  0  0  0
   58.2750   32.9344   47.6321 H   0  0  0  0  0  0  0  0  0  0  0  0
   57.6910   32.7790   41.2260 H   0  0  0  0  0  0  0  0  0  0  0  0
   55.8940   29.7800   41.7470 H   0  0  0  0  0  0  0  0  0  0  0  0
   55.5609   28.7169   43.9579 H   0  0  0  0  0  0  0  0  0  0  0  0
  1  2  1  0
  2  3  1  0
  3  4  1  0
  4  5  1  0
  5  6  1  0
  6  7  1  0
  7  8  1  0
  8  9  1  0
  9 10  1  0
 10 11  1  0
 10 12  2  0
 12 13  1  0
 13 14  1  0
 14 15  2  3
 14 16  1  0
 16 17  1  0
 17 18  2  0
 18 19  1  0
 19  9  1  0
 19 13  2  0
  1 20  1  0
  1 21  1  0
  1 22  1  0
  2 23  1  0
  2 24  1  0
  4 25  1  0
  4 26  1  0
  5 27  1  0
  5 28  1  0
  7 29  1  0
  7 30  1  0
  8 31  1  0
  8 32  1  0
 15 33  1  0
 16 34  1  0
 17 35  1  0
M  END
>  <smiles>  (16) 
CCOCCOCCn1c(Br)nc2c(=N)[nH]cnc21

>  <score_type>  (16) 
oracle

>  <origin>  (16) 
adg

>  <m_score__min__energy>  (16) 
-5.6600000000000001

>  <m_primary>  (16) 
energy

$$$$
16:0
     RDKit          3D

124129  0  0  1  0  0  0  0  0999 V2000
   57.6960   33.8690   45.0760 C   0  0  0  0  0  0  0  0  0  0  0  0
   57.3840   32.4160   45.4260 C   0  0  0  0  0  0  0  0  0  0  0  0
   57.1490   31.5830   44.3060 N   0  0  0  0  0  0  0  0  0  0  0  0
   57.8080   31.8620   43.0940 C   0  0  0  0  0  0  0  0  0  0  0  0
   56.5380   30.3290   44.4970 C   0  0  0  0  0  0  0  0  0  0  0  0
   57.3500   29.2170   43.8930 C   0  0  0  0  0  0  0  0  0  0  0  0
   58.3850   28.7380   44.5500 O   0  0  0  0  0  0  0  0  0  0  0  0
   58.7120   27.5450   44.9820 C   0  0  0  0  0  0  0  0  0  0  0  0
   58.2760   27.0640   46.3230 C   0  0  0  0  0  0  0  0  0  0  0  0
   58.1180   28.2440   47.1200 O   0  0  0  0  0  0  0  0  0  0  0  0
   59.2530   28.9730   47.1030 N   0  0  0  0  0  0  0  0  0  0  0  0
   59.2600   29.7710   48.3580 C   0  0  0  0  0  0  0  0  0  0  0  0
   58.8890   31.1620   48.0430 C   0  0  0  0  0  0  0  0  0  0  0  0
   58.4910   32.1230   49.0060 N   0  0  0  0  0  0  0  0  0  0  0  0
   59.1970   32.3110   50.1960 C   0  0  0  0  0  0  0  0  0  0  0  0
   58.4750   31.9350   51.3590 C   0  0  0  0  0  0  0  0  0  0  0  0
   57.1630   31.4940   51.2540 C   0  0  0  0  0  0  0  0  0  0  0  0
   56.3870   31.1420   52.3290 C   0  0  0  0  0  0  0  0  0  0  0  0
   56.9340   31.2310   53.5840 C   0  0  0  0  0  0  0  0  0  0  0  0
   58.2320   31.6700   53.6980 C   0  0  0  0  0  0  0  0  0  0  0  0
   59.0130   32.0260   52.6050 C   0  0  0  0  0  0  0  0  0  0  0  0
   60.2780   32.4890   52.8080 N   0  0  0  0  0  0  0  0  0  0  0  0
   60.7170   32.5160   54.1740 C   0  0  0  0  0  0  0  0  0  0  0  0
   60.9720   32.8610   51.7280 C   0  0  0  0  0  0  0  0  0  0  0  0
   62.1960   33.4550   51.9360 C   0  0  0  0  0  0  0  0  0  0  0  0
   62.9600   34.0020   50.9120 C   0  0  0  0  0  0  0  0  0  0  0  0
   64.1630   34.6060   51.0560 O   0  0  0  0  0  0  0  0  0  0  0  0
   65.0760   34.6390   52.1030 C   0  0  0  0  0  0  0  0  0  0  0  0
   66.3520   34.0060   51.7550 C   0  0  0  0  0  0  0  0  0  0  0  0
   66.3070   32.6300   51.2870 N   0  0  2  0  0  0  0  0  0  0  0  0
   66.3550   32.7270   49.8200 C   0  0  0  0  0  0  0  0  0  0  0  0
   65.1450   31.9200   51.5910 C   0  0  0  0  0  0  0  0  0  0  0  0
   65.0280   30.9410   52.6860 C   0  0  0  0  0  0  0  0  0  0  0  0
   65.7150   29.6550   52.4430 N   0  0  2  0  0  0  0  0  0  0  0  0
   64.8410   28.6040   52.0850 C   0  0  0  0  0  0  0  0  0  0  0  0
   63.6030   29.2420   51.4370 C   0  0  0  0  0  0  0  0  0  0  0  0
   62.3970   28.6040   51.8290 N   0  0  0  0  0  0  0  0  0  0  0  0
   62.5260   27.1780   52.0370 C   0  0  0  0  0  0  0  0  0  0  0  0
   61.3660   28.8020   50.8210 C   0  0  0  0  0  0  0  0  0  0  0  0
   60.0600   28.6200   51.5930 C   0  0  0  0  0  0  0  0  0  0  0  0
   60.3910   28.8860   53.0460 C   0  0  0  0  0  0  0  0  0  0  0  0
   61.8750   29.1950   53.0340 C   0  0  0  0  0  0  0  0  0  0  0  0
   66.6370   29.3240   53.5310 C   0  0  0  0  0  0  0  0  0  0  0  0
   67.9050   30.1510   53.2520 C   0  0  0  0  0  0  0  0  0  0  0  0
   67.2140   31.0100   52.4010 N   0  0  0  0  0  0  0  0  0  0  0  0
   67.6100   32.0480   51.6520 C   0  0  0  0  0  0  0  0  0  0  0  0
   66.7340   29.9780   51.4680 C   0  0  0  0  0  0  0  0  0  0  0  0
   62.4120   33.9100   49.6520 C   0  0  0  0  0  0  0  0  0  0  0  0
   63.1570   34.4550   48.5810 O   0  0  0  0  0  0  0  0  0  0  0  0
   63.7200   33.6020   47.6040 C   0  0  0  0  0  0  0  0  0  0  0  0
   61.1680   33.3050   49.4000 C   0  0  0  0  0  0  0  0  0  0  0  0
   60.8040   33.3380   48.0660 O   0  0  0  0  0  0  0  0  0  0  0  0
   60.1500   34.4310   47.4730 C   0  0  0  0  0  0  0  0  0  0  0  0
   60.4450   32.7770   50.4250 C   0  0  0  0  0  0  0  0  0  0  0  0
   57.8208   34.4504   46.0014 H   0  0  0  0  0  0  0  0  0  0  0  0
   58.6241   33.9132   44.4872 H   0  0  0  0  0  0  0  0  0  0  0  0
   56.8678   34.2903   44.4872 H   0  0  0  0  0  0  0  0  0  0  0  0
   58.2370   32.0062   45.9867 H   0  0  0  0  0  0  0  0  0  0  0  0
   56.4523   32.4267   46.0107 H   0  0  0  0  0  0  0  0  0  0  0  0
   58.8020   32.2828   43.3056 H   0  0  0  0  0  0  0  0  0  0  0  0
   57.9186   30.9335   42.5146 H   0  0  0  0  0  0  0  0  0  0  0  0
   57.2183   32.5877   42.5146 H   0  0  0  0  0  0  0  0  0  0  0  0
   56.4298   30.1458   45.5762 H   0  0  0  0  0  0  0  0  0  0  0  0
   55.5569   30.3463   43.9998 H   0  0  0  0  0  0  0  0  0  0  0  0
   56.6625   28.3755   43.7222 H   0  0  0  0  0  0  0  0  0  0  0  0
   57.8016   29.6813   43.0039 H   0  0  0  0  0  0  0  0  0  0  0  0
   58.3141   26.8279   44.2489 H   0  0  0  0  0  0  0  0  0  0  0  0
   59.8031   27.6225   45.0980 H   0  0  0  0  0  0  0  0  0  0  0  0
   57.3220   26.5218   46.2455 H   0  0  0  0  0  0  0  0  0  0  0  0
   59.0051   26.3683   46.7639 H   0  0  0  0  0  0  0  0  0  0  0  0
   59.2500   29.6420   46.3110 H   0  0  0  0  0  0  0  0  0  0  0  0
   58.5348   29.3476   49.0685 H   0  0  0  0  0  0  0  0  0  0  0  0
   60.2630   29.7465   48.8089 H   0  0  0  0  0  0  0  0  0  0  0  0
   59.7648   31.5947   47.5374 H   0  0  0  0  0  0  0  0  0  0  0  0
   57.9412   31.0045   47.5075 H   0  0  0  0  0  0  0  0  0  0  0  0
   57.6360   32.7270   48.8380 H   0  0  0  0  0  0  0  0  0  0  0  0
   56.7196   31.4226   50.2499 H   0  0  0  0  0  0  0  0  0  0  0  0
   55.3520   30.7970   52.1883 H   0  0  0  0  0  0  0  0  0  0  0  0
   56.3497   30.9584   54.4753 H   0  0  0  0  0  0  0  0  0  0  0  0
   58.6736   31.7429   54.7028 H   0  0  0  0  0  0  0  0  0  0  0  0
   59.8438   32.4623   54.8409 H   0  0  0  0  0  0  0  0  0  0  0  0
   61.3770   31.6567   54.3641 H   0  0  0  0  0  0  0  0  0  0  0  0
   61.2667   33.4496   54.3641 H   0  0  0  0  0  0  0  0  0  0  0  0
   62.5886   33.4989   52.9626 H   0  0  0  0  0  0  0  0  0  0  0  0
   65.2649   35.6884   52.3735 H   0  0  0  0  0  0  0  0  0  0  0  0
   64.6420   34.0769   52.9430 H   0  0  0  0  0  0  0  0  0  0  0  0
   66.8152   34.6103   50.9611 H   0  0  0  0  0  0  0  0  0  0  0  0
   66.9144   33.9653   52.6995 H   0  0  0  0  0  0  0  0  0  0  0  0
   66.8257   33.6782   49.5306 H   0  0  0  0  0  0  0  0  0  0  0  0
   66.9426   31.8893   49.4162 H   0  0  0  0  0  0  0  0  0  0  0  0
   65.3326   32.6861   49.4162 H   0  0  0  0  0  0  0  0  0  0  0  0
   64.3770   32.6815   51.7918 H   0  0  0  0  0  0  0  0  0  0  0  0
   65.0767   31.2566   50.7162 H   0  0  0  0  0  0  0  0  0  0  0  0
   65.4550   31.3909   53.5945 H   0  0  0  0  0  0  0  0  0  0  0  0
   63.9572   30.7074   52.7798 H   0  0  0  0  0  0  0  0  0  0  0  0
   65.3354   27.9301   51.3699 H   0  0  0  0  0  0  0  0  0  0  0  0
   64.5580   28.0138   52.9691 H   0  0  0  0  0  0  0  0  0  0  0  0
   63.5551   30.3003   51.7332 H   0  0  0  0  0  0  0  0  0  0  0  0
   63.7012   29.1323   50.3469 H   0  0  0  0  0  0  0  0  0  0  0  0
   62.5453   26.9651   53.1160 H   0  0  0  0  0  0  0  0  0  0  0  0
   61.6709   26.6615   51.5766 H   0  0  0  0  0  0  0  0  0  0  0  0
   63.4599   26.8233   51.5766 H   0  0  0  0  0  0  0  0  0  0  0  0
   61.4286   29.8120   50.3898 H   0  0  0  0  0  0  0  0  0  0  0  0
   61.4599   28.1056   49.9747 H   0  0  0  0  0  0  0  0  0  0  0  0
   59.3032   29.3344   51.2368 H   0  0  0  0  0  0  0  0  0  0  0  0
   59.6477   27.6098   51.4530 H   0  0  0  0  0  0  0  0  0  0  0  0
   59.8163   29.7430   53.4273 H   0  0  0  0  0  0  0  0  0  0  0  0
   60.1408   28.0371   53.6993 H   0  0  0  0  0  0  0  0  0  0  0  0
   62.0383   30.2828   53.0273 H   0  0  0  0  0  0  0  0  0  0  0  0
   62.3759   28.7941   53.9275 H   0  0  0  0  0  0  0  0  0  0  0  0
   66.2021   29.6009   54.5027 H   0  0  0  0  0  0  0  0  0  0  0  0
   66.8509   28.2459   53.5746 H   0  0  0  0  0  0  0  0  0  0  0  0
   68.3133   30.6478   54.1444 H   0  0  0  0  0  0  0  0  0  0  0  0
   68.8107   29.6439   52.8878 H   0  0  0  0  0  0  0  0  0  0  0  0
   68.2228   32.7553   52.2301 H   0  0  0  0  0  0  0  0  0  0  0  0
   68.2469   31.7787   50.7966 H   0  0  0  0  0  0  0  0  0  0  0  0
   66.3485   30.3665   50.5139 H   0  0  0  0  0  0  0  0  0  0  0  0
   67.4076   29.2096   51.0608 H   0  0  0  0  0  0  0  0  0  0  0  0
   64.2608   32.7827   48.1003 H   0  0  0  0  0  0  0  0  0  0  0  0
   62.9190   33.1851   46.9758 H   0  0  0  0  0  0  0  0  0  0  0  0
   64.4182   34.1746   46.9758 H   0  0  0  0  0  0  0  0  0  0  0  0
   59.7546   35.0919   48.2584 H   0  0  0  0  0  0  0  0  0  0  0  0
   60.8624   34.9896   46.8481 H   0  0  0  0  0  0  0  0  0  0  0  0
   59.3210   34.0673   46.8481 H   0  0  0  0  0  0  0  0  0  0  0  0
  1  2  1  0
  2  3  1  0
  3  4  1  0
  3  5  1  0
  5  6  1  0
  6  7  1  0
  7  8  1  0
  8  9  1  0
  9 10  1  0
 10 11  1  0
 11 12  1  0
 12 13  1  0
 13 14  1  0
 14 15  1  0
 15 16  2  0
 16 17  1  0
 17 18  2  0
 18 19  1  0
 19 20  2  0
 20 21  1  0
 21 22  2  0
 22 23  1  0
 22 24  1  0
 24 25  2  0
 25 26  1  0
 26 27  1  0
 27 28  1  0
 28 29  1  0
 30 29  1  1
 30 31  1  0
 30 32  1  0
 32 33  1  0
 33 34  1  0
 34 35  1  6
 35 36  1  0
 36 37  1  0
 37 38  1  0
 37 39  1  0
 39 40  1  0
 40 41  1  0
 41 42  1  0
 34 43  1  0
 43 44  1  0
 45 44  1  1
 45 46  1  0
 45 47  1  0
 26 48  2  0
 48 49  1  0
 49 50  1  0
 48 51  1  0
 51 52  1  0
 52 53  1  0
 51 54  2  0
 54 15  1  0
 21 16  1  0
 54 24  1  0
 46 30  1  0
 47 34  1  0
 42 37  1  0
  1 55  1  0
  1 56  1  0
  1 57  1  0
  2 58  1  0
  2 59  1  0
  4 60  1  0
  4 61  1  0
  4 62  1  0
  5 63  1  0
  5 64  1  0
  6 65  1  0
  6 66  1  0
  8 67  1  0
  8 68  1  0
  9 69  1  0
  9 70  1  0
 11 71  1  0
 12 72  1  0
 12 73  1  0
 13 74  1  0
 13 75  1  0
 14 76  1  0
 17 77  1  0
 18 78  1  0
 19 79  1  0
 20 80  1  0
 23 81  1  0
 23 82  1  0
 23 83  1  0
 25 84  1  0
 28 85  1  0
 28 86  1  0
 29 87  1  0
 29 88  1  0
 31 89  1  0
 31 90  1  0
 31 91  1  0
 32 92  1  0
 32 93  1  0
 33 94  1  0
 33 95  1  0
 35 96  1  0
 35 97  1  0
 36 98  1  0
 36 99  1  0
 38100  1  0
 38101  1  0
 38102  1  0
 39103  1  0
 39104  1  0
 40105  1  0
 40106  1  0
 41107  1  0
 41108  1  0
 42109  1  0
 42110  1  0
 43111  1  0
 43112  1  0
 44113  1  0
 44114  1  0
 46115  1  0
 46116  1  0
 47117  1  0
 47118  1  0
 50119  1  0
 50120  1  0
 50121  1  0
 53122  1  0
 53123  1  0
 53124  1  0
M  CHG  4  22   1  30   1  34   1  37   1
M  END
>  <smiles>  (17) 
CCN(C)CCOCCONCCNc1c2ccccc2[n+](C)c2cc(OCC[N+]3(C)CC[N+]4(CC[N+]5(C)CCCC5)CCN(C3)C4)c(OC)c(OC)c12

>  <score_type>  (17) 
oracle

>  <origin>  (17) 
adg

>  <m_score__min__energy>  (17) 
-3.27

>  <m_primary>  (17) 
energy

$$$$
17:0
     RDKit          3D

 54 56  0  0  0  0  0  0  0  0999 V2000
   63.2800   33.8300   46.6160 C   0  0  0  0  0  0  0  0  0  0  0  0
   63.2260   32.4790   47.2720 C   0  0  0  0  0  0  0  0  0  0  0  0
   62.1210   32.4890   48.2610 N   0  0  0  0  0  0  0  0  0  0  0  0
   61.8300   33.8560   48.5350 C   0  0  0  0  0  0  0  0  0  0  0  0
   60.5910   34.1100   49.3360 C   0  0  0  0  0  0  0  0  0  0  0  0
   62.4530   31.6420   49.3610 C   0  0  0  0  0  0  0  0  0  0  0  0
   61.6650   30.5490   49.7110 N   0  0  0  0  0  0  0  0  0  0  0  0
   60.2980   30.6380   49.9940 C   0  0  0  0  0  0  0  0  0  0  0  0
   59.3510   30.7510   48.8380 C   0  0  0  0  0  0  0  0  0  0  0  0
   59.9310   30.8020   47.5260 N   0  0  0  0  0  0  0  0  0  0  0  0
   59.2170   30.7840   46.3070 C   0  0  0  0  0  0  0  0  0  0  0  0
   58.8580   32.0400   45.7930 C   0  0  0  0  0  0  0  0  0  0  0  0
   59.2010   33.1840   46.4840 C   0  0  0  0  0  0  0  0  0  0  0  0
   58.8830   34.4560   46.0640 C   0  0  0  0  0  0  0  0  0  0  0  0
   58.1830   34.5660   44.8840 C   0  0  0  0  0  0  0  0  0  0  0  0
   57.8410   33.4250   44.1920 C   0  0  0  0  0  0  0  0  0  0  0  0
   58.1520   32.1510   44.6020 C   0  0  0  0  0  0  0  0  0  0  0  0
   57.7820   31.0500   43.8880 N   0  0  0  0  0  0  0  0  0  0  0  0
   57.0680   31.1780   42.6400 C   0  0  0  0  0  0  0  0  0  0  0  0
   58.1300   29.8360   44.3910 C   0  0  0  0  0  0  0  0  0  0  0  0
   57.7630   28.6790   43.7380 C   0  0  0  0  0  0  0  0  0  0  0  0
   58.0710   27.4110   44.2250 C   0  0  0  0  0  0  0  0  0  0  0  0
   58.7710   27.2840   45.4090 C   0  0  0  0  0  0  0  0  0  0  0  0
   59.1830   25.7030   46.0680 Cl  0  0  0  0  0  0  0  0  0  0  0  0
   59.1260   28.4510   46.0440 C   0  0  0  0  0  0  0  0  0  0  0  0
   58.8350   29.7050   45.5790 C   0  0  0  0  0  0  0  0  0  0  0  0
   63.3113   34.6120   47.3890 H   0  0  0  0  0  0  0  0  0  0  0  0
   64.1816   33.8976   45.9894 H   0  0  0  0  0  0  0  0  0  0  0  0
   62.3867   33.9693   45.9894 H   0  0  0  0  0  0  0  0  0  0  0  0
   63.0404   31.7039   46.5139 H   0  0  0  0  0  0  0  0  0  0  0  0
   64.1814   32.2602   47.7713 H   0  0  0  0  0  0  0  0  0  0  0  0
   62.6820   34.2782   49.0880 H   0  0  0  0  0  0  0  0  0  0  0  0
   61.6549   34.3264   47.5562 H   0  0  0  0  0  0  0  0  0  0  0  0
   60.8311   34.0608   50.4083 H   0  0  0  0  0  0  0  0  0  0  0  0
   60.1961   35.1078   49.0941 H   0  0  0  0  0  0  0  0  0  0  0  0
   59.8354   33.3481   49.0941 H   0  0  0  0  0  0  0  0  0  0  0  0
   63.4570   31.2442   49.1521 H   0  0  0  0  0  0  0  0  0  0  0  0
   62.3145   32.3133   50.2213 H   0  0  0  0  0  0  0  0  0  0  0  0
   62.0420   29.6080   49.4770 H   0  0  0  0  0  0  0  0  0  0  0  0
   60.0204   29.7356   50.5585 H   0  0  0  0  0  0  0  0  0  0  0  0
   60.1886   31.5891   50.5357 H   0  0  0  0  0  0  0  0  0  0  0  0
   58.6805   29.8796   48.8713 H   0  0  0  0  0  0  0  0  0  0  0  0
   58.8529   31.7229   48.9693 H   0  0  0  0  0  0  0  0  0  0  0  0
   60.9950   30.8600   47.4200 H   0  0  0  0  0  0  0  0  0  0  0  0
   59.7607   33.0734   47.4245 H   0  0  0  0  0  0  0  0  0  0  0  0
   59.1749   35.3435   46.6447 H   0  0  0  0  0  0  0  0  0  0  0  0
   57.8993   35.5559   44.4971 H   0  0  0  0  0  0  0  0  0  0  0  0
   57.2833   33.5413   43.2510 H   0  0  0  0  0  0  0  0  0  0  0  0
   56.0041   31.3687   42.8442 H   0  0  0  0  0  0  0  0  0  0  0  0
   57.4864   32.0155   42.0624 H   0  0  0  0  0  0  0  0  0  0  0  0
   57.1694   30.2474   42.0624 H   0  0  0  0  0  0  0  0  0  0  0  0
   57.2042   28.7604   42.7940 H   0  0  0  0  0  0  0  0  0  0  0  0
   57.7582   26.5147   43.6692 H   0  0  0  0  0  0  0  0  0  0  0  0
   59.6816   28.3713   46.9900 H   0  0  0  0  0  0  0  0  0  0  0  0
  1  2  1  0
  2  3  1  0
  3  4  1  0
  4  5  1  0
  3  6  1  0
  6  7  1  0
  7  8  1  0
  8  9  1  0
  9 10  1  0
 10 11  1  0
 11 12  2  0
 12 13  1  0
 13 14  2  0
 14 15  1  0
 15 16  2  0
 16 17  1  0
 17 18  2  0
 18 19  1  0
 18 20  1  0
 20 21  2  0
 21 22  1  0
 22 23  2  0
 23 24  1  0
 23 25  1  0
 25 26  2  0
 26 11  1  0
 17 12  1  0
 26 20  1  0
  1 27  1  0
  1 28  1  0
  1 29  1  0
  2 30  1  0
  2 31  1  0
  4 32  1  0
  4 33  1  0
  5 34  1  0
  5 35  1  0
  5 36  1  0
  6 37  1  0
  6 38  1  0
  7 39  1  0
  8 40  1  0
  8 41  1  0
  9 42  1  0
  9 43  1  0
 10 44  1  0
 13 45  1  0
 14 46  1  0
 15 47  1  0
 16 48  1  0
 19 49  1  0
 19 50  1  0
 19 51  1  0
 21 52  1  0
 22 53  1  0
 25 54  1  0
M  CHG  1  18   1
M  END
>  <smiles>  (18) 
CCN(CC)CNCCNc1c2ccccc2[n+](C)c2ccc(Cl)cc12

>  <score_type>  (18) 
oracle

>  <origin>  (18) 
adg

>  <m_score__min__energy>  (18) 
-6.1600000000000001

>  <m_primary>  (18) 
energy

$$$$
18:0
     RDKit          3D

 41 43  0  0  0  0  0  0  0  0999 V2000
   58.1020   26.7490   44.1520 C   0  0  0  0  0  0  0  0  0  0  0  0
   57.4410   26.6780   45.4840 C   0  0  0  0  0  0  0  0  0  0  0  0
   57.0440   27.8480   46.0720 O   0  0  0  0  0  0  0  0  0  0  0  0
   57.5570   29.1100   45.9650 C   0  0  0  0  0  0  0  0  0  0  0  0
   58.5710   29.7020   46.7050 C   0  0  0  0  0  0  0  0  0  0  0  0
   58.7410   30.9560   46.2510 N   0  0  0  0  0  0  0  0  0  0  0  0
   59.7060   31.8660   46.7660 C   0  0  0  0  0  0  0  0  0  0  0  0
   59.4140   33.1490   47.1700 C   0  0  0  0  0  0  0  0  0  0  0  0
   60.4330   33.9670   47.6630 C   0  0  0  0  0  0  0  0  0  0  0  0
   61.7490   33.5000   47.7530 C   0  0  0  0  0  0  0  0  0  0  0  0
   61.9910   32.2070   47.3350 C   0  0  0  0  0  0  0  0  0  0  0  0
   61.0130   31.3720   46.8440 C   0  0  0  0  0  0  0  0  0  0  0  0
   63.4440   31.9120   47.5130 C   0  0  0  0  0  0  0  0  0  0  0  0
   63.8490   32.9190   48.5860 C   0  0  0  0  0  0  0  0  0  0  0  0
   63.0170   34.1340   48.2290 C   0  0  0  0  0  0  0  0  0  0  0  0
   57.8780   31.2110   45.2420 C   0  0  0  0  0  0  0  0  0  0  0  0
   57.7270   32.4800   44.4590 C   0  0  0  0  0  0  0  0  0  0  0  0
   57.1340   30.0690   45.0560 C   0  0  0  0  0  0  0  0  0  0  0  0
   56.0520   29.8480   44.0550 C   0  0  0  0  0  0  0  0  0  0  0  0
   54.9530   29.3650   44.7750 O   0  0  0  0  0  0  0  0  0  0  0  0
   59.1874   26.8656   44.2871 H   0  0  0  0  0  0  0  0  0  0  0  0
   57.8994   25.8239   43.5924 H   0  0  0  0  0  0  0  0  0  0  0  0
   57.7076   27.6099   43.5924 H   0  0  0  0  0  0  0  0  0  0  0  0
   56.5453   26.0497   45.3705 H   0  0  0  0  0  0  0  0  0  0  0  0
   58.2203   26.2867   46.1545 H   0  0  0  0  0  0  0  0  0  0  0  0
   59.1368   29.2280   47.5206 H   0  0  0  0  0  0  0  0  0  0  0  0
   58.3834   33.5281   47.1049 H   0  0  0  0  0  0  0  0  0  0  0  0
   60.1979   34.9922   47.9849 H   0  0  0  0  0  0  0  0  0  0  0  0
   61.2516   30.3474   46.5227 H   0  0  0  0  0  0  0  0  0  0  0  0
   63.6020   30.8788   47.8558 H   0  0  0  0  0  0  0  0  0  0  0  0
   64.0285   31.9969   46.5850 H   0  0  0  0  0  0  0  0  0  0  0  0
   63.6007   32.5492   49.5918 H   0  0  0  0  0  0  0  0  0  0  0  0
   64.9300   33.1208   48.6113 H   0  0  0  0  0  0  0  0  0  0  0  0
   62.8415   34.7726   49.1073 H   0  0  0  0  0  0  0  0  0  0  0  0
   63.4895   34.7991   47.4912 H   0  0  0  0  0  0  0  0  0  0  0  0
   57.6260   33.3285   45.1517 H   0  0  0  0  0  0  0  0  0  0  0  0
   58.6139   32.6276   43.8253 H   0  0  0  0  0  0  0  0  0  0  0  0
   56.8302   32.4153   43.8253 H   0  0  0  0  0  0  0  0  0  0  0  0
   55.7954   30.7933   43.5545 H   0  0  0  0  0  0  0  0  0  0  0  0
   56.3646   29.1397   43.2736 H   0  0  0  0  0  0  0  0  0  0  0  0
   55.1420   28.5130   45.2390 H   0  0  0  0  0  0  0  0  0  0  0  0
  1  2  1  0
  2  3  1  0
  3  4  1  0
  4  5  2  0
  5  6  1  0
  6  7  1  0
  7  8  2  0
  8  9  1  0
  9 10  2  0
 10 11  1  0
 11 12  2  0
 11 13  1  0
 13 14  1  0
 14 15  1  0
  6 16  1  0
 16 17  1  0
 16 18  2  0
 18 19  1  0
 19 20  1  0
 18  4  1  0
 12  7  1  0
 15 10  1  0
  1 21  1  0
  1 22  1  0
  1 23  1  0
  2 24  1  0
  2 25  1  0
  5 26  1  0
  8 27  1  0
  9 28  1  0
 12 29  1  0
 13 30  1  0
 13 31  1  0
 14 32  1  0
 14 33  1  0
 15 34  1  0
 15 35  1  0
 17 36  1  0
 17 37  1  0
 17 38  1  0
 19 39  1  0
 19 40  1  0
 20 41  1  0
M  END
>  <smiles>  (19) 
CCOc1cn(-c2ccc3c(c2)CCC3)c(C)c1CO

>  <score_type>  (19) 
oracle

>  <origin>  (19) 
adg

>  <m_score__min__energy>  (19) 
-7.8399999999999999

>  <m_primary>  (19) 
energy

$$$$
19:0
     RDKit          3D

 38 39  0  0  0  0  0  0  0  0999 V2000
   55.3390   23.7760   46.5270 C   0  0  0  0  0  0  0  0  0  0  0  0
   54.7580   24.8540   45.5760 C   0  0  0  0  0  0  0  0  0  0  0  0
   55.1460   26.0700   46.0030 O   0  0  0  0  0  0  0  0  0  0  0  0
   56.4510   26.3490   46.2530 C   0  0  0  0  0  0  0  0  0  0  0  0
   57.3660   26.0080   45.1130 C   0  0  0  0  0  0  0  0  0  0  0  0
   58.2740   26.9980   44.9180 O   0  0  0  0  0  0  0  0  0  0  0  0
   58.5260   27.8690   45.9150 C   0  0  0  0  0  0  0  0  0  0  0  0
   59.1230   29.1820   45.6160 C   0  0  0  0  0  0  0  0  0  0  0  0
   58.1110   30.1630   45.3210 N   0  0  0  0  0  0  0  0  0  0  0  0
   56.8720   30.0580   44.8330 C   0  0  0  0  0  0  0  0  0  0  0  0
   56.2740   29.0110   44.4940 O   0  0  0  0  0  0  0  0  0  0  0  0
   56.3060   31.2520   44.7390 O   0  0  0  0  0  0  0  0  0  0  0  0
   57.1200   32.1690   45.1470 C   0  0  0  0  0  0  0  0  0  0  0  0
   57.0360   33.5420   45.2570 C   0  0  0  0  0  0  0  0  0  0  0  0
   58.0960   34.3040   45.7440 C   0  0  0  0  0  0  0  0  0  0  0  0
   59.2520   33.6260   46.1190 C   0  0  0  0  0  0  0  0  0  0  0  0
   60.3740   34.4650   46.6370 C   0  0  0  0  0  0  0  0  0  0  0  0
   59.3390   32.2530   46.0090 C   0  0  0  0  0  0  0  0  0  0  0  0
   58.2820   31.5020   45.5250 C   0  0  0  0  0  0  0  0  0  0  0  0
   55.1746   24.0810   47.5710 H   0  0  0  0  0  0  0  0  0  0  0  0
   54.8367   22.8150   46.3423 H   0  0  0  0  0  0  0  0  0  0  0  0
   56.4179   23.6672   46.3423 H   0  0  0  0  0  0  0  0  0  0  0  0
   55.1314   24.6851   44.5552 H   0  0  0  0  0  0  0  0  0  0  0  0
   53.6596   24.7941   45.5732 H   0  0  0  0  0  0  0  0  0  0  0  0
   56.5428   27.4248   46.4631 H   0  0  0  0  0  0  0  0  0  0  0  0
   56.7559   25.7288   47.1088 H   0  0  0  0  0  0  0  0  0  0  0  0
   57.8956   25.0714   45.3419 H   0  0  0  0  0  0  0  0  0  0  0  0
   56.7658   25.8914   44.1986 H   0  0  0  0  0  0  0  0  0  0  0  0
   57.5662   28.0638   46.4159 H   0  0  0  0  0  0  0  0  0  0  0  0
   59.3094   27.3635   46.4987 H   0  0  0  0  0  0  0  0  0  0  0  0
   59.7042   29.5179   46.4874 H   0  0  0  0  0  0  0  0  0  0  0  0
   59.7706   29.0755   44.7332 H   0  0  0  0  0  0  0  0  0  0  0  0
   56.1081   34.0480   44.9523 H   0  0  0  0  0  0  0  0  0  0  0  0
   58.0220   35.3982   45.8287 H   0  0  0  0  0  0  0  0  0  0  0  0
   60.3614   34.4556   47.7369 H   0  0  0  0  0  0  0  0  0  0  0  0
   61.3313   34.0594   46.2778 H   0  0  0  0  0  0  0  0  0  0  0  0
   60.2556   35.4979   46.2778 H   0  0  0  0  0  0  0  0  0  0  0  0
   60.2667   31.7456   46.3120 H   0  0  0  0  0  0  0  0  0  0  0  0
  1  2  1  0
  2  3  1  0
  3  4  1  0
  4  5  1  0
  5  6  1  0
  6  7  1  0
  7  8  1  0
  8  9  1  0
  9 10  1  0
 10 11  2  0
 10 12  1  0
 12 13  1  0
 13 14  2  0
 14 15  1  0
 15 16  2  0
 16 17  1  0
 16 18  1  0
 18 19  2  0
 19  9  1  0
 19 13  1  0
  1 20  1  0
  1 21  1  0
  1 22  1  0
  2 23  1  0
  2 24  1  0
  4 25  1  0
  4 26  1  0
  5 27  1  0
  5 28  1  0
  7 29  1  0
  7 30  1  0
  8 31  1  0
  8 32  1  0
 14 33  1  0
 15 34  1  0
 17 35  1  0
 17 36  1  0
 17 37  1  0
 18 38  1  0
M  END
>  <smiles>  (20) 
CCOCCOCCn1c(=O)oc2ccc(C)cc21

>  <score_type>  (20) 
oracle

>  <origin>  (20) 
adg

>  <m_score__min__energy>  (20) 
-6.04

>  <m_primary>  (20) 
energy

$$$$
20:0
     RDKit          3D

 53 55  0  0  0  0  0  0  0  0999 V2000
   60.2980   29.5890   47.1850 C   0  0  0  0  0  0  0  0  0  0  0  0
   59.4800   29.1720   46.0030 C   0  0  0  0  0  0  0  0  0  0  0  0
   58.1310   29.3920   46.1080 O   0  0  0  0  0  0  0  0  0  0  0  0
   57.3960   29.2030   44.9690 C   0  0  0  0  0  0  0  0  0  0  0  0
   56.9140   30.5580   44.4930 C   0  0  0  0  0  0  0  0  0  0  0  0
   57.3800   31.6270   45.3200 N   0  0  0  0  0  0  0  0  0  0  0  0
   57.4280   32.9180   44.6850 C   0  0  0  0  0  0  0  0  0  0  0  0
   57.9580   33.9140   45.6930 C   0  0  0  0  0  0  0  0  0  0  0  0
   57.7320   33.4630   47.1020 C   0  0  0  0  0  0  0  0  0  0  0  0
   58.6240   32.4160   47.5130 N   0  0  0  0  0  0  0  0  0  0  0  0
   59.6530   32.6560   48.4720 C   0  0  0  0  0  0  0  0  0  0  0  0
   60.9140   33.0900   48.1260 C   0  0  0  0  0  0  0  0  0  0  0  0
   61.1540   33.2900   46.7810 C   0  0  0  0  0  0  0  0  0  0  0  0
   62.3900   33.7260   46.3580 C   0  0  0  0  0  0  0  0  0  0  0  0
   63.3420   33.9430   47.3320 C   0  0  0  0  0  0  0  0  0  0  0  0
   63.0990   33.7420   48.6810 C   0  0  0  0  0  0  0  0  0  0  0  0
   61.8650   33.3060   49.1040 C   0  0  0  0  0  0  0  0  0  0  0  0
   61.6370   33.1150   50.4150 N   0  0  0  0  0  0  0  0  0  0  0  0
   62.6110   33.3220   51.4500 C   0  0  0  0  0  0  0  0  0  0  0  0
   60.4010   32.6890   50.7710 C   0  0  0  0  0  0  0  0  0  0  0  0
   60.0340   32.4600   52.0770 C   0  0  0  0  0  0  0  0  0  0  0  0
   58.7640   32.0270   52.4390 C   0  0  0  0  0  0  0  0  0  0  0  0
   57.8100   31.8090   51.4780 C   0  0  0  0  0  0  0  0  0  0  0  0
   56.2020   31.2650   51.8800 Cl  0  0  0  0  0  0  0  0  0  0  0  0
   58.1460   32.0290   50.1600 C   0  0  0  0  0  0  0  0  0  0  0  0
   59.4080   32.4590   49.8140 C   0  0  0  0  0  0  0  0  0  0  0  0
   59.7687   29.3192   48.1108 H   0  0  0  0  0  0  0  0  0  0  0  0
   61.2711   29.0770   47.1565 H   0  0  0  0  0  0  0  0  0  0  0  0
   60.4553   30.6773   47.1565 H   0  0  0  0  0  0  0  0  0  0  0  0
   59.8458   29.7261   45.1260 H   0  0  0  0  0  0  0  0  0  0  0  0
   59.6014   28.0816   45.9231 H   0  0  0  0  0  0  0  0  0  0  0  0
   58.0217   28.7360   44.1941 H   0  0  0  0  0  0  0  0  0  0  0  0
   56.5401   28.5424   45.1716 H   0  0  0  0  0  0  0  0  0  0  0  0
   57.2773   30.7213   43.4676 H   0  0  0  0  0  0  0  0  0  0  0  0
   55.8149   30.5560   44.5375 H   0  0  0  0  0  0  0  0  0  0  0  0
   58.2760   31.3530   45.7520 H   0  0  0  0  0  0  0  0  0  0  0  0
   58.0951   32.8799   43.8112 H   0  0  0  0  0  0  0  0  0  0  0  0
   56.4248   33.2147   44.3449 H   0  0  0  0  0  0  0  0  0  0  0  0
   59.0383   34.0424   45.5306 H   0  0  0  0  0  0  0  0  0  0  0  0
   57.4177   34.8614   45.5496 H   0  0  0  0  0  0  0  0  0  0  0  0
   57.8730   34.3245   47.7712 H   0  0  0  0  0  0  0  0  0  0  0  0
   56.7099   33.0598   47.1551 H   0  0  0  0  0  0  0  0  0  0  0  0
   58.5490   31.4290   47.1200 H   0  0  0  0  0  0  0  0  0  0  0  0
   60.3572   33.1009   46.0466 H   0  0  0  0  0  0  0  0  0  0  0  0
   62.6078   33.8934   45.2928 H   0  0  0  0  0  0  0  0  0  0  0  0
   64.3389   34.2913   47.0239 H   0  0  0  0  0  0  0  0  0  0  0  0
   63.8952   33.9316   49.4159 H   0  0  0  0  0  0  0  0  0  0  0  0
   62.1286   33.2195   52.4333 H   0  0  0  0  0  0  0  0  0  0  0  0
   63.4119   32.5740   51.3547 H   0  0  0  0  0  0  0  0  0  0  0  0
   63.0385   34.3311   51.3547 H   0  0  0  0  0  0  0  0  0  0  0  0
   60.7784   32.6269   52.8694 H   0  0  0  0  0  0  0  0  0  0  0  0
   58.5233   31.8587   53.4991 H   0  0  0  0  0  0  0  0  0  0  0  0
   57.3962   31.8589   49.3733 H   0  0  0  0  0  0  0  0  0  0  0  0
  1  2  1  0
  2  3  1  0
  3  4  1  0
  4  5  1  0
  5  6  1  0
  6  7  1  0
  7  8  1  0
  8  9  1  0
  9 10  1  0
 10 11  1  0
 11 12  2  0
 12 13  1  0
 13 14  2  0
 14 15  1  0
 15 16  2  0
 16 17  1  0
 17 18  2  0
 18 19  1  0
 18 20  1  0
 20 21  2  0
 21 22  1  0
 22 23  2  0
 23 24  1  0
 23 25  1  0
 25 26  2  0
 26 11  1  0
 17 12  1  0
 26 20  1  0
  1 27  1  0
  1 28  1  0
  1 29  1  0
  2 30  1  0
  2 31  1  0
  4 32  1  0
  4 33  1  0
  5 34  1  0
  5 35  1  0
  6 36  1  0
  7 37  1  0
  7 38  1  0
  8 39  1  0
  8 40  1  0
  9 41  1  0
  9 42  1  0
 10 43  1  0
 13 44  1  0
 14 45  1  0
 15 46  1  0
 16 47  1  0
 19 48  1  0
 19 49  1  0
 19 50  1  0
 21 51  1  0
 22 52  1  0
 25 53  1  0
M  CHG  1  18   1
M  END
>  <smiles>  (21) 
CCOCCNCCCNc1c2ccccc2[n+](C)c2ccc(Cl)cc12

>  <score_type>  (21) 
oracle

>  <origin>  (21) 
adg

>  <m_score__min__energy>  (21) 
-6.25

>  <m_primary>  (21) 
energy

$$$$
22:0
     RDKit          3D

 46 48  0  0  0  0  0  0  0  0999 V2000
   61.1780   34.2350   49.3360 C   0  0  0  0  0  0  0  0  0  0  0  0
   60.4600   33.2170   48.6000 N   0  0  0  0  0  0  0  0  0  0  0  0
   59.8780   33.5290   47.4120 C   0  0  0  0  0  0  0  0  0  0  0  0
   59.9230   34.8000   46.8770 C   0  0  0  0  0  0  0  0  0  0  0  0
   59.3200   35.1190   45.6600 C   0  0  0  0  0  0  0  0  0  0  0  0
   58.6430   34.1590   44.9350 C   0  0  0  0  0  0  0  0  0  0  0  0
   58.5880   32.8830   45.4570 C   0  0  0  0  0  0  0  0  0  0  0  0
   59.1890   32.5790   46.6620 C   0  0  0  0  0  0  0  0  0  0  0  0
   59.0700   31.2770   47.0990 C   0  0  0  0  0  0  0  0  0  0  0  0
   58.3890   30.2630   46.3850 N   0  0  0  0  0  0  0  0  0  0  0  0
   59.1350   29.1800   45.7730 C   0  0  0  0  0  0  0  0  0  0  0  0
   58.4480   28.6690   44.5290 C   0  0  0  0  0  0  0  0  0  0  0  0
   57.0020   28.4290   44.8510 C   0  0  0  0  0  0  0  0  0  0  0  0
   56.2510   29.6250   45.0800 N   0  0  0  0  0  0  0  0  0  0  0  0
   55.5240   30.0870   43.9360 C   0  0  0  0  0  0  0  0  0  0  0  0
   56.3340   30.0470   42.6430 C   0  0  0  0  0  0  0  0  0  0  0  0
   57.4120   31.6660   42.4860 Br  0  0  0  0  0  0  0  0  0  0  0  0
   59.6620   30.9700   48.3040 C   0  0  0  0  0  0  0  0  0  0  0  0
   59.5470   29.6640   48.7600 C   0  0  0  0  0  0  0  0  0  0  0  0
   60.1060   29.2760   49.9580 C   0  0  0  0  0  0  0  0  0  0  0  0
   60.7810   30.2400   50.6760 C   0  0  0  0  0  0  0  0  0  0  0  0
   60.8950   31.5580   50.2120 C   0  0  0  0  0  0  0  0  0  0  0  0
   60.3340   31.9440   49.0100 C   0  0  0  0  0  0  0  0  0  0  0  0
   61.0559   34.0619   50.4154 H   0  0  0  0  0  0  0  0  0  0  0  0
   62.2459   34.1909   49.0761 H   0  0  0  0  0  0  0  0  0  0  0  0
   60.7780   35.2262   49.0761 H   0  0  0  0  0  0  0  0  0  0  0  0
   60.4531   35.5897   47.4296 H   0  0  0  0  0  0  0  0  0  0  0  0
   59.3848   36.1470   45.2739 H   0  0  0  0  0  0  0  0  0  0  0  0
   58.1643   34.4027   43.9751 H   0  0  0  0  0  0  0  0  0  0  0  0
   58.0564   32.0948   44.9037 H   0  0  0  0  0  0  0  0  0  0  0  0
   57.3560   30.3310   46.3210 H   0  0  0  0  0  0  0  0  0  0  0  0
   60.1376   29.5439   45.5039 H   0  0  0  0  0  0  0  0  0  0  0  0
   59.1996   28.3535   46.4960 H   0  0  0  0  0  0  0  0  0  0  0  0
   58.5307   29.4158   43.7256 H   0  0  0  0  0  0  0  0  0  0  0  0
   58.9206   27.7342   44.1932 H   0  0  0  0  0  0  0  0  0  0  0  0
   56.5449   27.8894   44.0085 H   0  0  0  0  0  0  0  0  0  0  0  0
   56.9757   27.8523   45.7873 H   0  0  0  0  0  0  0  0  0  0  0  0
   55.7930   29.7170   45.9900 H   0  0  0  0  0  0  0  0  0  0  0  0
   54.6344   29.4526   43.8093 H   0  0  0  0  0  0  0  0  0  0  0  0
   55.2629   31.1393   44.1218 H   0  0  0  0  0  0  0  0  0  0  0  0
   56.9952   29.1679   42.6536 H   0  0  0  0  0  0  0  0  0  0  0  0
   55.6468   29.9844   41.7864 H   0  0  0  0  0  0  0  0  0  0  0  0
   59.0002   28.9262   48.1545 H   0  0  0  0  0  0  0  0  0  0  0  0
   60.0176   28.2429   50.3253 H   0  0  0  0  0  0  0  0  0  0  0  0
   61.2417   29.9682   51.6372 H   0  0  0  0  0  0  0  0  0  0  0  0
   61.4408   32.2980   50.8158 H   0  0  0  0  0  0  0  0  0  0  0  0
  1  2  1  0
  2  3  2  0
  3  4  1  0
  4  5  2  0
  5  6  1  0
  6  7  2  0
  7  8  1  0
  8  9  2  0
  9 10  1  0
 10 11  1  0
 11 12  1  0
 12 13  1  0
 13 14  1  0
 14 15  1  0
 15 16  1  0
 16 17  1  0
  9 18  1  0
 18 19  2  0
 19 20  1  0
 20 21  2  0
 21 22  1  0
 22 23  2  0
 23  2  1  0
  8  3  1  0
 23 18  1  0
  1 24  1  0
  1 25  1  0
  1 26  1  0
  4 27  1  0
  5 28  1  0
  6 29  1  0
  7 30  1  0
 10 31  1  0
 11 32  1  0
 11 33  1  0
 12 34  1  0
 12 35  1  0
 13 36  1  0
 13 37  1  0
 14 38  1  0
 15 39  1  0
 15 40  1  0
 16 41  1  0
 16 42  1  0
 19 43  1  0
 20 44  1  0
 21 45  1  0
 22 46  1  0
M  CHG  1   2   1
M  END
>  <smiles>  (22) 
C[n+]1c2ccccc2c(NCCCNCCBr)c2ccccc21

>  <score_type>  (22) 
oracle

>  <origin>  (22) 
adg

>  <m_score__min__energy>  (22) 
-6.0999999999999996

>  <m_primary>  (22) 
energy

$$$$
23:0
     RDKit          3D

 52 54  0  0  0  0  0  0  0  0999 V2000
   58.1420   26.9790   42.6290 C   0  0  0  0  0  0  0  0  0  0  0  0
   57.8280   26.2430   43.9250 C   0  0  0  0  0  0  0  0  0  0  0  0
   57.7250   27.2030   45.0010 N   0  0  0  0  0  0  0  0  0  0  0  0
   58.8410   27.0260   45.8920 C   0  0  0  0  0  0  0  0  0  0  0  0
   59.2990   28.3340   46.4860 C   0  0  0  0  0  0  0  0  0  0  0  0
   58.1760   29.2720   46.5840 N   0  0  0  0  0  0  0  0  0  0  0  0
   58.4930   30.6080   46.8520 C   0  0  0  0  0  0  0  0  0  0  0  0
   58.8950   30.8700   48.1780 C   0  0  0  0  0  0  0  0  0  0  0  0
   58.9150   29.8220   49.0860 C   0  0  0  0  0  0  0  0  0  0  0  0
   59.2910   29.9570   50.4000 C   0  0  0  0  0  0  0  0  0  0  0  0
   59.6680   31.2060   50.8270 C   0  0  0  0  0  0  0  0  0  0  0  0
   59.6500   32.2670   49.9190 C   0  0  0  0  0  0  0  0  0  0  0  0
   59.2670   32.1040   48.6050 C   0  0  0  0  0  0  0  0  0  0  0  0
   59.2560   33.1270   47.7350 N   0  0  0  0  0  0  0  0  0  0  0  0
   59.6160   34.4600   48.1090 C   0  0  0  0  0  0  0  0  0  0  0  0
   58.8750   32.9270   46.4430 C   0  0  0  0  0  0  0  0  0  0  0  0
   58.8930   34.0040   45.5830 C   0  0  0  0  0  0  0  0  0  0  0  0
   58.5200   33.8130   44.2760 C   0  0  0  0  0  0  0  0  0  0  0  0
   58.1380   32.5590   43.8520 C   0  0  0  0  0  0  0  0  0  0  0  0
   58.1060   31.4480   44.6780 C   0  0  0  0  0  0  0  0  0  0  0  0
   57.5980   30.2510   44.1520 N   0  0  0  0  0  0  0  0  0  0  0  0
   56.5290   30.3230   43.1240 C   0  0  0  0  0  0  0  0  0  0  0  0
   55.3060   29.6920   43.7390 C   0  0  0  0  0  0  0  0  0  0  0  0
   55.7350   28.9190   44.8530 O   0  0  0  0  0  0  0  0  0  0  0  0
   58.4860   31.6600   45.9850 C   0  0  0  0  0  0  0  0  0  0  0  0
   58.5639   27.9678   42.8619 H   0  0  0  0  0  0  0  0  0  0  0  0
   58.8706   26.3979   42.0446 H   0  0  0  0  0  0  0  0  0  0  0  0
   57.2183   27.1028   42.0446 H   0  0  0  0  0  0  0  0  0  0  0  0
   56.8753   25.7031   43.8205 H   0  0  0  0  0  0  0  0  0  0  0  0
   58.6298   25.5231   44.1460 H   0  0  0  0  0  0  0  0  0  0  0  0
   56.8030   27.1370   45.4790 H   0  0  0  0  0  0  0  0  0  0  0  0
   58.5417   26.3507   46.7071 H   0  0  0  0  0  0  0  0  0  0  0  0
   59.6756   26.6035   45.3133 H   0  0  0  0  0  0  0  0  0  0  0  0
   59.7082   28.1522   47.4908 H   0  0  0  0  0  0  0  0  0  0  0  0
   60.0722   28.7697   45.8361 H   0  0  0  0  0  0  0  0  0  0  0  0
   57.1670   28.9310   46.4940 H   0  0  0  0  0  0  0  0  0  0  0  0
   58.6122   28.8250   48.7334 H   0  0  0  0  0  0  0  0  0  0  0  0
   59.2901   29.0962   51.0849 H   0  0  0  0  0  0  0  0  0  0  0  0
   59.9798   31.3688   51.8693 H   0  0  0  0  0  0  0  0  0  0  0  0
   59.9518   33.2669   50.2643 H   0  0  0  0  0  0  0  0  0  0  0  0
   59.6376   34.5399   49.2059 H   0  0  0  0  0  0  0  0  0  0  0  0
   60.6107   34.6984   47.7044 H   0  0  0  0  0  0  0  0  0  0  0  0
   58.8765   35.1667   47.7044 H   0  0  0  0  0  0  0  0  0  0  0  0
   59.2008   34.9987   45.9378 H   0  0  0  0  0  0  0  0  0  0  0  0
   58.5260   34.6570   43.5705 H   0  0  0  0  0  0  0  0  0  0  0  0
   57.8423   32.4335   42.8000 H   0  0  0  0  0  0  0  0  0  0  0  0
   57.8210   29.2750   44.3750 H   0  0  0  0  0  0  0  0  0  0  0  0
   56.3247   31.3711   42.8600 H   0  0  0  0  0  0  0  0  0  0  0  0
   56.8261   29.8023   42.2017 H   0  0  0  0  0  0  0  0  0  0  0  0
   54.6076   30.4740   44.0717 H   0  0  0  0  0  0  0  0  0  0  0  0
   54.7882   29.0573   43.0048 H   0  0  0  0  0  0  0  0  0  0  0  0
   56.2170   28.1170   44.5010 H   0  0  0  0  0  0  0  0  0  0  0  0
  1  2  1  0
  2  3  1  0
  3  4  1  0
  4  5  1  0
  5  6  1  0
  6  7  1  0
  7  8  2  0
  8  9  1  0
  9 10  2  0
 10 11  1  0
 11 12  2  0
 12 13  1  0
 13 14  2  0
 14 15  1  0
 14 16  1  0
 16 17  2  0
 17 18  1  0
 18 19  2  0
 19 20  1  0
 20 21  1  0
 21 22  1  0
 22 23  1  0
 23 24  1  0
 20 25  2  0
 25  7  1  0
 13  8  1  0
 25 16  1  0
  1 26  1  0
  1 27  1  0
  1 28  1  0
  2 29  1  0
  2 30  1  0
  3 31  1  0
  4 32  1  0
  4 33  1  0
  5 34  1  0
  5 35  1  0
  6 36  1  0
  9 37  1  0
 10 38  1  0
 11 39  1  0
 12 40  1  0
 15 41  1  0
 15 42  1  0
 15 43  1  0
 17 44  1  0
 18 45  1  0
 19 46  1  0
 21 47  1  0
 22 48  1  0
 22 49  1  0
 23 50  1  0
 23 51  1  0
 24 52  1  0
M  CHG  1  14   1
M  END
>  <smiles>  (23) 
CCNCCNc1c2ccccc2[n+](C)c2cccc(NCCO)c12

>  <score_type>  (23) 
oracle

>  <origin>  (23) 
adg

>  <m_score__min__energy>  (23) 
-5.4400000000000004

>  <m_primary>  (23) 
energy

$$$$
