0:0
     RDKit          3D

 52 55  0  0  0  0  0  0  0  0999 V2000
   57.4210   31.9620   41.8460 C   0  0  0  0  0  0  0  0  0  0  0  0
   56.9720   30.9940   42.7900 O   0  0  0  0  0  0  0  0  0  0  0  0
   57.5760   30.7500   44.0350 C   0  0  0  0  0  0  0  0  0  0  0  0
   58.0220   29.4720   44.4100 C   0  0  0  0  0  0  0  0  0  0  0  0
   58.6350   29.2450   45.6650 C   0  0  0  0  0  0  0  0  0  0  0  0
   59.0730   27.9560   46.0660 C   0  0  0  0  0  0  0  0  0  0  0  0
   58.8620   26.7150   45.2100 C   0  0  0  0  0  0  0  0  0  0  0  0
   57.4850   26.1500   45.4000 C   0  0  0  0  0  0  0  0  0  0  0  0
   56.4460   26.7250   46.1110 C   0  0  0  0  0  0  0  0  0  0  0  0
   55.3510   25.9480   46.0050 N   0  0  0  0  0  0  0  0  0  0  0  0
   55.6720   24.9070   45.2540 N   0  0  0  0  0  0  0  0  0  0  0  0
   54.7360   23.8570   44.8740 C   0  0  0  0  0  0  0  0  0  0  0  0
   56.9540   25.0000   44.8520 C   0  0  0  0  0  0  0  0  0  0  0  0
   59.7630   27.8200   47.2900 C   0  0  0  0  0  0  0  0  0  0  0  0
   60.2110   26.6850   47.6140 O   0  0  0  0  0  0  0  0  0  0  0  0
   59.9540   28.8950   48.1220 N   0  0  0  0  0  0  0  0  0  0  0  0
   60.6820   28.7210   49.3980 C   0  0  0  0  0  0  0  0  0  0  0  0
   59.4870   30.1410   47.7750 C   0  0  0  0  0  0  0  0  0  0  0  0
   59.6970   31.2900   48.6920 C   0  0  0  0  0  0  0  0  0  0  0  0
   58.7310   31.6050   49.6590 C   0  0  0  0  0  0  0  0  0  0  0  0
   58.9300   32.6890   50.5200 C   0  0  0  0  0  0  0  0  0  0  0  0
   60.0900   33.4620   50.4170 C   0  0  0  0  0  0  0  0  0  0  0  0
   61.0550   33.1540   49.4520 C   0  0  0  0  0  0  0  0  0  0  0  0
   62.6370   34.2150   49.3100 Br  0  0  0  0  0  0  0  0  0  0  0  0
   60.8590   32.0700   48.5890 C   0  0  0  0  0  0  0  0  0  0  0  0
   58.8260   30.3420   46.5370 C   0  0  0  0  0  0  0  0  0  0  0  0
   58.3590   31.6210   46.1520 C   0  0  0  0  0  0  0  0  0  0  0  0
   57.7330   31.8240   44.9130 C   0  0  0  0  0  0  0  0  0  0  0  0
   57.2570   33.0860   44.5130 O   0  0  0  0  0  0  0  0  0  0  0  0
   57.8550   34.3270   44.8670 C   0  0  0  0  0  0  0  0  0  0  0  0
   57.8257   32.8345   42.3798 H   0  0  0  0  0  0  0  0  0  0  0  0
   58.2067   31.5215   41.2147 H   0  0  0  0  0  0  0  0  0  0  0  0
   56.5772   32.2774   41.2147 H   0  0  0  0  0  0  0  0  0  0  0  0
   57.8921   28.6303   43.7138 H   0  0  0  0  0  0  0  0  0  0  0  0
   58.9968   26.9825   44.1516 H   0  0  0  0  0  0  0  0  0  0  0  0
   59.5951   25.9537   45.5151 H   0  0  0  0  0  0  0  0  0  0  0  0
   56.5052   27.6681   46.6740 H   0  0  0  0  0  0  0  0  0  0  0  0
   54.3205   23.3909   45.7796 H   0  0  0  0  0  0  0  0  0  0  0  0
   53.9200   24.2914   44.2778 H   0  0  0  0  0  0  0  0  0  0  0  0
   55.2609   23.0961   44.2778 H   0  0  0  0  0  0  0  0  0  0  0  0
   57.4833   24.2869   44.2029 H   0  0  0  0  0  0  0  0  0  0  0  0
   59.9924   28.8858   50.2390 H   0  0  0  0  0  0  0  0  0  0  0  0
   61.0887   27.7004   49.4519 H   0  0  0  0  0  0  0  0  0  0  0  0
   61.5062   29.4474   49.4519 H   0  0  0  0  0  0  0  0  0  0  0  0
   57.8165   30.9991   49.7402 H   0  0  0  0  0  0  0  0  0  0  0  0
   58.1726   32.9336   51.2793 H   0  0  0  0  0  0  0  0  0  0  0  0
   60.2444   34.3138   51.0957 H   0  0  0  0  0  0  0  0  0  0  0  0
   61.6168   31.8290   47.8289 H   0  0  0  0  0  0  0  0  0  0  0  0
   58.4892   32.4719   46.8369 H   0  0  0  0  0  0  0  0  0  0  0  0
   57.8971   34.4144   45.9627 H   0  0  0  0  0  0  0  0  0  0  0  0
   58.8743   34.3733   44.4560 H   0  0  0  0  0  0  0  0  0  0  0  0
   57.2561   35.1531   44.4560 H   0  0  0  0  0  0  0  0  0  0  0  0
  1  2  1  0
  2  3  1  0
  3  4  2  0
  4  5  1  0
  5  6  2  0
  6  7  1  0
  7  8  1  0
  8  9  1  0
  9 10  2  0
 10 11  1  0
 11 12  1  0
 11 13  1  0
  6 14  1  0
 14 15  2  0
 14 16  1  0
 16 17  1  0
 16 18  1  0
 18 19  1  0
 19 20  2  0
 20 21  1  0
 21 22  2  0
 22 23  1  0
 23 24  1  0
 23 25  2  0
 18 26  2  0
 26 27  1  0
 27 28  2  0
 28 29  1  0
 29 30  1  0
 28  3  1  0
 26  5  1  0
 13  8  2  0
 25 19  1  0
  1 31  1  0
  1 32  1  0
  1 33  1  0
  4 34  1  0
  7 35  1  0
  7 36  1  0
  9 37  1  0
 12 38  1  0
 12 39  1  0
 12 40  1  0
 13 41  1  0
 17 42  1  0
 17 43  1  0
 17 44  1  0
 20 45  1  0
 21 46  1  0
 22 47  1  0
 25 48  1  0
 27 49  1  0
 30 50  1  0
 30 51  1  0
 30 52  1  0
M  END
>  <UniqueID>  (1) 
1

>  <SMILES>  (1) 
COc1cc2c(Cc3cnn(C)c3)c(=O)n(C)c(-c3cccc(Br)c3)c2cc1OC

>  <Energy>  (1) 
105.29875829843827

>  <Genealogy>  (1) 
COc1cc2c(Cc3cnn(C)c3)c(=O)n(C)c(-c3cccc(Br)c3)c2cc1OC (3D coordinates assigned)
COc1cc2c(Cc3cnn(C)c3)c(=O)n(C)c(-c3cccc(Br)c3)c2cc1OC (optimized conformer: 105.29875829843827 kcal/mol)

>  <smiles>  (1) 
COc1cc2c(Cc3cnn(C)c3)c(=O)n(C)c(-c3cccc(Br)c3)c2cc1OC

>  <score_type>  (1) 
oracle

>  <origin>  (1) 
adg

>  <m_score__min__energy>  (1) 
-8.1899999999999995

>  <m_primary>  (1) 
energy

$$$$
1:0
     RDKit          3D

 70 73  0  0  0  0  0  0  0  0999 V2000
   59.8820   28.5940   44.8790 C   0  0  0  0  0  0  0  0  0  0  0  0
   58.4650   28.1910   45.2740 C   0  0  0  0  0  0  0  0  0  0  0  0
   57.5900   28.1630   44.0820 N   0  0  0  0  0  0  0  0  0  0  0  0
   58.1360   27.2410   43.0710 C   0  0  0  0  0  0  0  0  0  0  0  0
   57.4060   29.5150   43.5050 C   0  0  0  0  0  0  0  0  0  0  0  0
   56.0380   30.0910   43.8900 C   0  0  0  0  0  0  0  0  0  0  0  0
   56.1840   31.1990   44.7800 O   0  0  0  0  0  0  0  0  0  0  0  0
   57.3950   31.7940   45.1700 C   0  0  0  0  0  0  0  0  0  0  0  0
   57.8950   32.9740   44.5830 C   0  0  0  0  0  0  0  0  0  0  0  0
   59.1040   33.5240   45.0220 C   0  0  0  0  0  0  0  0  0  0  0  0
   59.8360   32.8940   46.0380 C   0  0  0  0  0  0  0  0  0  0  0  0
   61.0530   33.4150   46.4910 C   0  0  0  0  0  0  0  0  0  0  0  0
   61.7950   32.7530   47.5010 C   0  0  0  0  0  0  0  0  0  0  0  0
   61.2180   31.6040   48.0950 C   0  0  0  0  0  0  0  0  0  0  0  0
   60.0370   31.1210   47.6190 N   0  0  0  0  0  0  0  0  0  0  0  0
   59.3460   31.7140   46.6170 C   0  0  0  0  0  0  0  0  0  0  0  0
   58.1340   31.1700   46.1830 C   0  0  0  0  0  0  0  0  0  0  0  0
   61.8550   30.9580   49.1700 C   0  0  0  0  0  0  0  0  0  0  0  0
   61.2330   29.8020   49.8010 N   0  0  0  0  0  0  0  0  0  0  0  0
   60.4950   30.1700   51.0350 C   0  0  0  0  0  0  0  0  0  0  0  0
   58.9800   30.3540   50.8100 C   0  0  0  0  0  0  0  0  0  0  0  0
   58.5860   31.7620   50.3280 C   0  0  0  0  0  0  0  0  0  0  0  0
   59.4810   32.8160   50.8600 N   0  0  0  0  0  0  0  0  0  0  0  0
   59.6600   33.8740   49.8550 C   0  0  0  0  0  0  0  0  0  0  0  0
   58.9340   33.4070   52.0950 C   0  0  0  0  0  0  0  0  0  0  0  0
   63.0700   31.5020   49.6600 C   0  0  0  0  0  0  0  0  0  0  0  0
   63.7500   30.9210   50.7580 C   0  0  0  0  0  0  0  0  0  0  0  0
   64.8960   31.5070   51.2850 C   0  0  0  0  0  0  0  0  0  0  0  0
   65.3870   32.6850   50.7430 C   0  0  0  0  0  0  0  0  0  0  0  0
   64.7580   33.2650   49.6440 C   0  0  0  0  0  0  0  0  0  0  0  0
   63.6180   32.6660   49.0480 C   0  0  0  0  0  0  0  0  0  0  0  0
   63.0340   33.1970   47.9130 N   0  0  0  0  0  0  0  0  0  0  0  0
   63.7560   34.2150   47.1160 C   0  0  0  0  0  0  0  0  0  0  0  0
   60.4810   28.7644   45.7858 H   0  0  0  0  0  0  0  0  0  0  0  0
   60.3392   27.7903   44.2832 H   0  0  0  0  0  0  0  0  0  0  0  0
   59.8478   29.5180   44.2832 H   0  0  0  0  0  0  0  0  0  0  0  0
   58.4862   27.1914   45.7325 H   0  0  0  0  0  0  0  0  0  0  0  0
   58.0702   28.9254   45.9914 H   0  0  0  0  0  0  0  0  0  0  0  0
   58.6345   26.3991   43.5737 H   0  0  0  0  0  0  0  0  0  0  0  0
   57.3178   26.8601   42.4422 H   0  0  0  0  0  0  0  0  0  0  0  0
   58.8634   27.7754   42.4422 H   0  0  0  0  0  0  0  0  0  0  0  0
   58.1965   30.1794   43.8842 H   0  0  0  0  0  0  0  0  0  0  0  0
   57.4608   29.4405   42.4089 H   0  0  0  0  0  0  0  0  0  0  0  0
   55.5191   30.4260   42.9798 H   0  0  0  0  0  0  0  0  0  0  0  0
   55.4564   29.3070   44.3970 H   0  0  0  0  0  0  0  0  0  0  0  0
   57.3317   33.4648   43.7757 H   0  0  0  0  0  0  0  0  0  0  0  0
   59.4810   34.4528   44.5690 H   0  0  0  0  0  0  0  0  0  0  0  0
   61.4386   34.3498   46.0580 H   0  0  0  0  0  0  0  0  0  0  0  0
   57.7571   30.2436   46.6410 H   0  0  0  0  0  0  0  0  0  0  0  0
   61.9770   29.1030   50.0300 H   0  0  0  0  0  0  0  0  0  0  0  0
   60.6110   29.2910   49.1330 H   0  0  0  0  0  0  0  0  0  0  0  0
   60.6429   29.3745   51.7802 H   0  0  0  0  0  0  0  0  0  0  0  0
   60.8929   31.1373   51.3755 H   0  0  0  0  0  0  0  0  0  0  0  0
   58.6513   29.6250   50.0547 H   0  0  0  0  0  0  0  0  0  0  0  0
   58.4924   30.2027   51.7844 H   0  0  0  0  0  0  0  0  0  0  0  0
   58.6301   31.7836   49.2291 H   0  0  0  0  0  0  0  0  0  0  0  0
   57.5705   31.9690   50.6967 H   0  0  0  0  0  0  0  0  0  0  0  0
   59.8229   34.8369   50.3613 H   0  0  0  0  0  0  0  0  0  0  0  0
   60.5311   33.6385   49.2259 H   0  0  0  0  0  0  0  0  0  0  0  0
   58.7600   33.9382   49.2259 H   0  0  0  0  0  0  0  0  0  0  0  0
   59.3881   32.9164   52.9686 H   0  0  0  0  0  0  0  0  0  0  0  0
   59.1621   34.4828   52.1189 H   0  0  0  0  0  0  0  0  0  0  0  0
   57.8438   33.2627   52.1189 H   0  0  0  0  0  0  0  0  0  0  0  0
   63.3654   29.9907   51.2015 H   0  0  0  0  0  0  0  0  0  0  0  0
   65.4137   31.0351   52.1332 H   0  0  0  0  0  0  0  0  0  0  0  0
   66.2754   33.1626   51.1820 H   0  0  0  0  0  0  0  0  0  0  0  0
   65.1523   34.2049   49.2303 H   0  0  0  0  0  0  0  0  0  0  0  0
   64.2577   34.9224   47.7927 H   0  0  0  0  0  0  0  0  0  0  0  0
   64.5059   33.7198   46.4816 H   0  0  0  0  0  0  0  0  0  0  0  0
   63.0407   34.7590   46.4816 H   0  0  0  0  0  0  0  0  0  0  0  0
  1  2  1  0
  2  3  1  0
  3  4  1  0
  3  5  1  0
  5  6  1  0
  6  7  1  0
  7  8  1  0
  8  9  2  0
  9 10  1  0
 10 11  2  0
 11 12  1  0
 12 13  2  0
 13 14  1  0
 14 15  2  0
 15 16  1  0
 16 17  2  0
 14 18  1  0
 18 19  1  0
 19 20  1  0
 20 21  1  0
 21 22  1  0
 22 23  1  0
 23 24  1  0
 23 25  1  0
 18 26  2  0
 26 27  1  0
 27 28  2  0
 28 29  1  0
 29 30  2  0
 30 31  1  0
 31 32  2  0
 32 33  1  0
 17  8  1  0
 31 26  1  0
 16 11  1  0
 32 13  1  0
  1 34  1  0
  1 35  1  0
  1 36  1  0
  2 37  1  0
  2 38  1  0
  4 39  1  0
  4 40  1  0
  4 41  1  0
  5 42  1  0
  5 43  1  0
  6 44  1  0
  6 45  1  0
  9 46  1  0
 10 47  1  0
 12 48  1  0
 17 49  1  0
 19 50  1  0
 19 51  1  0
 20 52  1  0
 20 53  1  0
 21 54  1  0
 21 55  1  0
 22 56  1  0
 22 57  1  0
 24 58  1  0
 24 59  1  0
 24 60  1  0
 25 61  1  0
 25 62  1  0
 25 63  1  0
 27 64  1  0
 28 65  1  0
 29 66  1  0
 30 67  1  0
 33 68  1  0
 33 69  1  0
 33 70  1  0
M  CHG  2  19   1  32   1
M  END
>  <UniqueID>  (2) 
2

>  <SMILES>  (2) 
CCN(C)CCOc1ccc2cc3c(nc2c1)c([NH2+]CCCN(C)C)c1ccccc1[n+]3C

>  <Energy>  (2) 
96.03021253678892

>  <Genealogy>  (2) 
CCN(C)CCOc1ccc2cc3c(nc2c1)c([NH2+]CCCN(C)C)c1ccccc1[n+]3C (protonated)
CCN(C)CCOc1ccc2cc3c(nc2c1)c([NH2+]CCCN(C)C)c1ccccc1[n+]3C (3D coordinates assigned)
CCN(C)CCOc1ccc2cc3c(nc2c1)c([NH2+]CCCN(C)C)c1ccccc1[n+]3C (optimized conformer: 96.03021253678892 kcal/mol)

>  <smiles>  (2) 
CCN(C)CCOc1ccc2cc3c(nc2c1)c(NCCCN(C)C)c1ccccc1[n+]3C

>  <score_type>  (2) 
oracle

>  <origin>  (2) 
adg

>  <m_score__min__energy>  (2) 
-5.3899999999999997

>  <m_primary>  (2) 
energy

$$$$
2:0
     RDKit          3D

 56 57  0  0  0  0  0  0  0  0999 V2000
   59.4670   32.7630   50.7200 C   0  0  0  0  0  0  0  0  0  0  0  0
   58.5450   32.2600   49.6100 C   0  0  0  0  0  0  0  0  0  0  0  0
   58.7510   30.7650   49.3080 C   0  0  0  0  0  0  0  0  0  0  0  0
   59.9330   30.4940   48.3390 C   0  0  0  0  0  0  0  0  0  0  0  0
   59.6300   30.7010   46.9000 N   0  0  1  0  0  0  0  0  0  0  0  0
   60.2140   31.9600   46.3690 C   0  0  0  0  0  0  0  0  0  0  0  0
   61.3320   32.4800   47.2520 C   0  0  0  0  0  0  0  0  0  0  0  0
   62.5280   31.7510   47.3620 C   0  0  0  0  0  0  0  0  0  0  0  0
   63.5660   32.2110   48.1750 C   0  0  0  0  0  0  0  0  0  0  0  0
   63.4210   33.4000   48.8870 C   0  0  0  0  0  0  0  0  0  0  0  0
   62.2440   34.1440   48.7770 C   0  0  0  0  0  0  0  0  0  0  0  0
   61.1910   33.6970   47.9540 C   0  0  0  0  0  0  0  0  0  0  0  0
   60.0050   34.4340   47.8090 O   0  0  0  0  0  0  0  0  0  0  0  0
   59.7110   35.2840   46.7040 C   0  0  0  0  0  0  0  0  0  0  0  0
   59.9950   29.5380   46.1080 C   0  0  0  0  0  0  0  0  0  0  0  0
   61.1680   29.2990   45.8570 O   0  0  0  0  0  0  0  0  0  0  0  0
   58.9400   28.6010   45.5850 C   0  0  0  0  0  0  0  0  0  0  0  0
   57.6230   29.0490   46.0180 N   0  0  0  0  0  0  0  0  0  0  0  0
   56.6490   29.6160   45.1340 C   0  0  0  0  0  0  0  0  0  0  0  0
   55.4660   29.1810   45.1550 O   0  0  0  0  0  0  0  0  0  0  0  0
   57.0340   30.7160   44.2080 C   0  0  0  0  0  0  0  0  0  0  0  0
   57.0090   30.4850   42.8190 C   0  0  0  0  0  0  0  0  0  0  0  0
   57.4020   31.4780   41.9220 C   0  0  0  0  0  0  0  0  0  0  0  0
   57.8250   32.7170   42.3940 C   0  0  0  0  0  0  0  0  0  0  0  0
   57.8550   32.9710   43.7660 C   0  0  0  0  0  0  0  0  0  0  0  0
   57.4630   31.9800   44.6880 C   0  0  0  0  0  0  0  0  0  0  0  0
   57.4950   32.2230   46.0720 O   0  0  0  0  0  0  0  0  0  0  0  0
   57.1230   33.4490   46.6910 C   0  0  0  0  0  0  0  0  0  0  0  0
   59.0269   32.5229   51.6991 H   0  0  0  0  0  0  0  0  0  0  0  0
   60.4490   32.2756   50.6299 H   0  0  0  0  0  0  0  0  0  0  0  0
   59.5887   33.8525   50.6299 H   0  0  0  0  0  0  0  0  0  0  0  0
   57.5012   32.4172   49.9195 H   0  0  0  0  0  0  0  0  0  0  0  0
   58.7836   32.8227   48.6954 H   0  0  0  0  0  0  0  0  0  0  0  0
   58.9480   30.2410   50.2549 H   0  0  0  0  0  0  0  0  0  0  0  0
   57.8361   30.4016   48.8172 H   0  0  0  0  0  0  0  0  0  0  0  0
   60.7591   31.1666   48.6132 H   0  0  0  0  0  0  0  0  0  0  0  0
   60.1801   29.4278   48.4490 H   0  0  0  0  0  0  0  0  0  0  0  0
   58.5900   30.8070   46.8500 H   0  0  0  0  0  0  0  0  0  0  0  0
   60.6148   31.7695   45.3625 H   0  0  0  0  0  0  0  0  0  0  0  0
   59.4192   32.7200   46.3414 H   0  0  0  0  0  0  0  0  0  0  0  0
   62.6476   30.8109   46.8035 H   0  0  0  0  0  0  0  0  0  0  0  0
   64.4993   31.6340   48.2535 H   0  0  0  0  0  0  0  0  0  0  0  0
   64.2351   33.7534   49.5370 H   0  0  0  0  0  0  0  0  0  0  0  0
   62.1383   35.0851   49.3365 H   0  0  0  0  0  0  0  0  0  0  0  0
   59.3724   36.2629   47.0743 H   0  0  0  0  0  0  0  0  0  0  0  0
   60.6156   35.4163   46.0923 H   0  0  0  0  0  0  0  0  0  0  0  0
   58.9180   34.8291   46.0923 H   0  0  0  0  0  0  0  0  0  0  0  0
   58.9774   28.5861   44.4857 H   0  0  0  0  0  0  0  0  0  0  0  0
   59.1263   27.5899   45.9761 H   0  0  0  0  0  0  0  0  0  0  0  0
   56.6753   29.5090   42.4367 H   0  0  0  0  0  0  0  0  0  0  0  0
   57.3776   31.2816   40.8399 H   0  0  0  0  0  0  0  0  0  0  0  0
   58.1363   33.4976   41.6843 H   0  0  0  0  0  0  0  0  0  0  0  0
   58.1877   33.9539   44.1311 H   0  0  0  0  0  0  0  0  0  0  0  0
   57.1581   33.3332   47.7843 H   0  0  0  0  0  0  0  0  0  0  0  0
   57.8211   34.2416   46.3836 H   0  0  0  0  0  0  0  0  0  0  0  0
   56.1022   33.7200   46.3836 H   0  0  0  0  0  0  0  0  0  0  0  0
  1  2  1  0
  2  3  1  0
  3  4  1  0
  4  5  1  0
  5  6  1  0
  6  7  1  0
  7  8  2  0
  8  9  1  0
  9 10  2  0
 10 11  1  0
 11 12  2  0
 12 13  1  0
 13 14  1  0
  5 15  1  0
 15 16  2  0
 15 17  1  0
 17 18  1  0
 18 19  1  0
 19 20  2  0
 19 21  1  0
 21 22  2  0
 22 23  1  0
 23 24  2  0
 24 25  1  0
 25 26  2  0
 26 27  1  0
 27 28  1  0
 12  7  1  0
 26 21  1  0
  1 29  1  0
  1 30  1  0
  1 31  1  0
  2 32  1  0
  2 33  1  0
  3 34  1  0
  3 35  1  0
  4 36  1  0
  4 37  1  0
  5 38  1  1
  6 39  1  0
  6 40  1  0
  8 41  1  0
  9 42  1  0
 10 43  1  0
 11 44  1  0
 14 45  1  0
 14 46  1  0
 14 47  1  0
 17 48  1  0
 17 49  1  0
 22 50  1  0
 23 51  1  0
 24 52  1  0
 25 53  1  0
 28 54  1  0
 28 55  1  0
 28 56  1  0
M  CHG  2   5   1  18  -1
M  END
>  <UniqueID>  (3) 
3

>  <SMILES>  (3) 
CCCC[N@@H+](Cc1ccccc1OC)C(=O)C[N-]C(=O)c1ccccc1OC

>  <Energy>  (3) 
51.700828428865265

>  <Genealogy>  (3) 
CCCC[NH+](Cc1ccccc1OC)C(=O)C[N-]C(=O)c1ccccc1OC (protonated)
CCCC[N@@H+](Cc1ccccc1OC)C(=O)C[N-]C(=O)c1ccccc1OC (chirality)
CCCC[N@@H+](Cc1ccccc1OC)C(=O)C[N-]C(=O)c1ccccc1OC (3D coordinates assigned)
CCCC[N@@H+](Cc1ccccc1OC)C(=O)C[N-]C(=O)c1ccccc1OC (optimized conformer: 51.700828428865265 kcal/mol)

>  <smiles>  (3) 
CCCCN(Cc1ccccc1OC)C(=O)CNC(=O)c1ccccc1OC

>  <score_type>  (3) 
oracle

>  <origin>  (3) 
adg

>  <m_score__min__energy>  (3) 
-6.9500000000000002

>  <m_primary>  (3) 
energy

$$$$
3:0
     RDKit          3D

 76 79  0  0  0  0  0  0  0  0999 V2000
   64.7420   32.2220   50.1160 C   0  0  0  0  0  0  0  0  0  0  0  0
   63.5110   31.6470   49.4070 C   0  0  0  0  0  0  0  0  0  0  0  0
   63.4910   31.9840   47.9580 N   0  0  0  0  0  0  0  0  0  0  0  0
   63.4820   33.4620   47.7740 C   0  0  0  0  0  0  0  0  0  0  0  0
   63.3160   33.8630   46.3020 C   0  0  0  0  0  0  0  0  0  0  0  0
   62.3020   31.3750   47.3040 C   0  0  0  0  0  0  0  0  0  0  0  0
   61.4240   30.5970   48.3020 C   0  0  0  0  0  0  0  0  0  0  0  0
   60.0450   31.0790   48.2590 N   0  0  0  0  0  0  0  0  0  0  0  0
   59.4040   31.3460   47.0040 C   0  0  0  0  0  0  0  0  0  0  0  0
   59.3950   32.6490   46.4810 C   0  0  0  0  0  0  0  0  0  0  0  0
   60.0070   33.7110   47.1830 C   0  0  0  0  0  0  0  0  0  0  0  0
   59.9700   35.0090   46.6820 C   0  0  0  0  0  0  0  0  0  0  0  0
   59.3140   35.2730   45.4850 C   0  0  0  0  0  0  0  0  0  0  0  0
   58.7030   34.2400   44.7740 C   0  0  0  0  0  0  0  0  0  0  0  0
   58.7550   32.9000   45.2380 C   0  0  0  0  0  0  0  0  0  0  0  0
   58.1900   31.8580   44.5250 N   0  0  0  0  0  0  0  0  0  0  0  0
   57.7660   32.0670   43.1220 C   0  0  0  0  0  0  0  0  0  0  0  0
   58.0460   30.6160   45.1140 C   0  0  0  0  0  0  0  0  0  0  0  0
   57.2330   29.6080   44.5400 C   0  0  0  0  0  0  0  0  0  0  0  0
   57.1480   28.3380   45.1110 C   0  0  0  0  0  0  0  0  0  0  0  0
   57.8670   28.0320   46.2750 C   0  0  0  0  0  0  0  0  0  0  0  0
   57.8530   26.7550   46.8550 O   0  0  0  0  0  0  0  0  0  0  0  0
   58.6760   25.6680   46.4340 C   0  0  0  0  0  0  0  0  0  0  0  0
   58.1360   25.0540   45.1210 C   0  0  0  0  0  0  0  0  0  0  0  0
   57.3530   23.7770   45.2450 N   0  0  0  0  0  0  0  0  0  0  0  0
   57.0050   23.5260   46.6690 C   0  0  0  0  0  0  0  0  0  0  0  0
   58.2470   22.6580   44.7790 C   0  0  0  0  0  0  0  0  0  0  0  0
   57.4700   21.4620   44.2040 C   0  0  0  0  0  0  0  0  0  0  0  0
   56.6720   21.8770   42.9590 C   0  0  0  0  0  0  0  0  0  0  0  0
   56.2580   23.3580   42.9910 C   0  0  0  0  0  0  0  0  0  0  0  0
   56.0830   23.8480   44.4390 C   0  0  0  0  0  0  0  0  0  0  0  0
   58.6240   29.0300   46.8890 C   0  0  0  0  0  0  0  0  0  0  0  0
   58.7010   30.3270   46.3400 C   0  0  0  0  0  0  0  0  0  0  0  0
   64.6018   32.1565   51.2051 H   0  0  0  0  0  0  0  0  0  0  0  0
   65.6340   31.6474   49.8259 H   0  0  0  0  0  0  0  0  0  0  0  0
   64.8738   33.2748   49.8259 H   0  0  0  0  0  0  0  0  0  0  0  0
   63.5177   30.5525   49.5165 H   0  0  0  0  0  0  0  0  0  0  0  0
   62.6164   32.0891   49.8698 H   0  0  0  0  0  0  0  0  0  0  0  0
   64.3560   31.5960   47.5100 H   0  0  0  0  0  0  0  0  0  0  0  0
   62.6479   33.8857   48.3526 H   0  0  0  0  0  0  0  0  0  0  0  0
   64.4501   33.8511   48.1224 H   0  0  0  0  0  0  0  0  0  0  0  0
   62.8959   34.8779   46.2436 H   0  0  0  0  0  0  0  0  0  0  0  0
   64.2964   33.8428   45.8037 H   0  0  0  0  0  0  0  0  0  0  0  0
   62.6367   33.1557   45.8037 H   0  0  0  0  0  0  0  0  0  0  0  0
   61.6987   32.1750   46.8501 H   0  0  0  0  0  0  0  0  0  0  0  0
   62.6609   30.6646   46.5447 H   0  0  0  0  0  0  0  0  0  0  0  0
   61.4416   29.5283   48.0421 H   0  0  0  0  0  0  0  0  0  0  0  0
   61.8210   30.7487   49.3166 H   0  0  0  0  0  0  0  0  0  0  0  0
   59.5420   31.3440   49.1360 H   0  0  0  0  0  0  0  0  0  0  0  0
   60.5184   33.5100   48.1359 H   0  0  0  0  0  0  0  0  0  0  0  0
   60.4596   35.8256   47.2329 H   0  0  0  0  0  0  0  0  0  0  0  0
   59.2766   36.3015   45.0967 H   0  0  0  0  0  0  0  0  0  0  0  0
   58.1720   34.4680   43.8380 H   0  0  0  0  0  0  0  0  0  0  0  0
   56.7795   32.5533   43.1057 H   0  0  0  0  0  0  0  0  0  0  0  0
   58.4989   32.7071   42.6090 H   0  0  0  0  0  0  0  0  0  0  0  0
   57.7047   31.0959   42.6090 H   0  0  0  0  0  0  0  0  0  0  0  0
   56.6589   29.8304   43.6285 H   0  0  0  0  0  0  0  0  0  0  0  0
   56.5122   27.5711   44.6445 H   0  0  0  0  0  0  0  0  0  0  0  0
   59.7003   26.0331   46.2681 H   0  0  0  0  0  0  0  0  0  0  0  0
   58.6701   24.8946   47.2162 H   0  0  0  0  0  0  0  0  0  0  0  0
   57.4821   25.8013   44.6478 H   0  0  0  0  0  0  0  0  0  0  0  0
   59.0296   24.7896   44.5366 H   0  0  0  0  0  0  0  0  0  0  0  0
   57.7246   24.0450   47.3193 H   0  0  0  0  0  0  0  0  0  0  0  0
   55.9911   23.9021   46.8705 H   0  0  0  0  0  0  0  0  0  0  0  0
   57.0419   22.4452   46.8705 H   0  0  0  0  0  0  0  0  0  0  0  0
   58.9170   23.0476   43.9984 H   0  0  0  0  0  0  0  0  0  0  0  0
   58.8023   22.2958   45.6568 H   0  0  0  0  0  0  0  0  0  0  0  0
   58.1809   20.6689   43.9288 H   0  0  0  0  0  0  0  0  0  0  0  0
   56.7671   21.0983   44.9680 H   0  0  0  0  0  0  0  0  0  0  0  0
   57.2932   21.7036   42.0679 H   0  0  0  0  0  0  0  0  0  0  0  0
   55.7526   21.2735   42.9350 H   0  0  0  0  0  0  0  0  0  0  0  0
   57.0358   23.9601   42.4986 H   0  0  0  0  0  0  0  0  0  0  0  0
   55.2980   23.4660   42.4650 H   0  0  0  0  0  0  0  0  0  0  0  0
   55.7412   24.8933   44.4158 H   0  0  0  0  0  0  0  0  0  0  0  0
   55.3504   23.1853   44.9229 H   0  0  0  0  0  0  0  0  0  0  0  0
   59.1698   28.8018   47.8164 H   0  0  0  0  0  0  0  0  0  0  0  0
  1  2  1  0
  2  3  1  0
  3  4  1  0
  4  5  1  0
  3  6  1  0
  6  7  1  0
  7  8  1  0
  8  9  1  0
  9 10  2  0
 10 11  1  0
 11 12  2  0
 12 13  1  0
 13 14  2  0
 14 15  1  0
 15 16  2  0
 16 17  1  0
 16 18  1  0
 18 19  2  0
 19 20  1  0
 20 21  2  0
 21 22  1  0
 22 23  1  0
 23 24  1  0
 24 25  1  0
 25 26  1  0
 25 27  1  0
 27 28  1  0
 28 29  1  0
 29 30  1  0
 30 31  1  0
 21 32  1  0
 32 33  2  0
 33  9  1  0
 15 10  1  0
 33 18  1  0
 31 25  1  0
  1 34  1  0
  1 35  1  0
  1 36  1  0
  2 37  1  0
  2 38  1  0
  3 39  1  0
  4 40  1  0
  4 41  1  0
  5 42  1  0
  5 43  1  0
  5 44  1  0
  6 45  1  0
  6 46  1  0
  7 47  1  0
  7 48  1  0
  8 49  1  0
 11 50  1  0
 12 51  1  0
 13 52  1  0
 14 53  1  0
 17 54  1  0
 17 55  1  0
 17 56  1  0
 19 57  1  0
 20 58  1  0
 23 59  1  0
 23 60  1  0
 24 61  1  0
 24 62  1  0
 26 63  1  0
 26 64  1  0
 26 65  1  0
 27 66  1  0
 27 67  1  0
 28 68  1  0
 28 69  1  0
 29 70  1  0
 29 71  1  0
 30 72  1  0
 30 73  1  0
 31 74  1  0
 31 75  1  0
 32 76  1  0
M  CHG  3   3   1  16   1  25   1
M  END
>  <UniqueID>  (4) 
4

>  <SMILES>  (4) 
CC[NH+](CC)CCNc1c2ccccc2[n+](C)c2ccc(OCC[N+]3(C)CCCCC3)cc12

>  <Energy>  (4) 
121.22368497548932

>  <Genealogy>  (4) 
CC[NH+](CC)CCNc1c2ccccc2[n+](C)c2ccc(OCC[N+]3(C)CCCCC3)cc12 (protonated)
CC[NH+](CC)CCNc1c2ccccc2[n+](C)c2ccc(OCC[N+]3(C)CCCCC3)cc12 (3D coordinates assigned)
CC[NH+](CC)CCNc1c2ccccc2[n+](C)c2ccc(OCC[N+]3(C)CCCCC3)cc12 (nonaromatic ring conformer: 121.22368497548932 kcal/mol)

>  <smiles>  (4) 
CCN(CC)CCNc1c2ccccc2[n+](C)c2ccc(OCC[N+]3(C)CCCCC3)cc12

>  <score_type>  (4) 
oracle

>  <origin>  (4) 
adg

>  <m_score__min__energy>  (4) 
-4.3399999999999999

>  <m_primary>  (4) 
energy

$$$$
4:0
     RDKit          3D

 37 38  0  0  0  0  0  0  0  0999 V2000
   57.7770   31.9770   42.4820 C   0  0  0  0  0  0  0  0  0  0  0  0
   56.8550   30.9350   43.1050 C   0  0  0  0  0  0  0  0  0  0  0  0
   56.6040   31.2370   44.4780 O   0  0  0  0  0  0  0  0  0  0  0  0
   57.4190   32.0240   45.3110 C   0  0  0  0  0  0  0  0  0  0  0  0
   57.3060   33.4280   45.3520 C   0  0  0  0  0  0  0  0  0  0  0  0
   58.1180   34.1830   46.2010 C   0  0  0  0  0  0  0  0  0  0  0  0
   59.0490   33.5500   47.0240 C   0  0  0  0  0  0  0  0  0  0  0  0
   60.1560   34.5860   48.1870 Br  0  0  0  0  0  0  0  0  0  0  0  0
   59.1720   32.1600   46.9980 C   0  0  0  0  0  0  0  0  0  0  0  0
   58.3710   31.3880   46.1380 C   0  0  0  0  0  0  0  0  0  0  0  0
   58.5560   29.8910   46.1260 C   0  0  0  0  0  0  0  0  0  0  0  0
   57.2710   29.1770   45.9940 N   0  0  0  0  0  0  0  0  0  0  0  0
   57.1660   28.1010   44.9770 C   0  0  0  0  0  0  0  0  0  0  0  0
   58.1960   28.1030   43.8490 C   0  0  0  0  0  0  0  0  0  0  0  0
   58.0870   26.7050   43.2670 C   0  0  0  0  0  0  0  0  0  0  0  0
   57.7500   25.7930   44.4470 C   0  0  0  0  0  0  0  0  0  0  0  0
   57.1920   26.6880   45.5570 C   0  0  0  0  0  0  0  0  0  0  0  0
   58.2796   32.5450   43.2787 H   0  0  0  0  0  0  0  0  0  0  0  0
   58.5310   31.4737   41.8589 H   0  0  0  0  0  0  0  0  0  0  0  0
   57.1857   32.6641   41.8589 H   0  0  0  0  0  0  0  0  0  0  0  0
   55.9009   30.9243   42.5577 H   0  0  0  0  0  0  0  0  0  0  0  0
   57.3424   29.9508   43.0436 H   0  0  0  0  0  0  0  0  0  0  0  0
   56.5710   33.9342   44.7090 H   0  0  0  0  0  0  0  0  0  0  0  0
   58.0231   35.2787   46.2206 H   0  0  0  0  0  0  0  0  0  0  0  0
   59.9014   31.6644   47.6556 H   0  0  0  0  0  0  0  0  0  0  0  0
   59.2020   29.6196   45.2780 H   0  0  0  0  0  0  0  0  0  0  0  0
   59.0118   29.5969   47.0829 H   0  0  0  0  0  0  0  0  0  0  0  0
   56.5470   29.8970   45.7600 H   0  0  0  0  0  0  0  0  0  0  0  0
   56.1827   28.3574   44.5558 H   0  0  0  0  0  0  0  0  0  0  0  0
   57.9501   28.8637   43.0934 H   0  0  0  0  0  0  0  0  0  0  0  0
   59.2114   28.3445   44.1964 H   0  0  0  0  0  0  0  0  0  0  0  0
   57.2891   26.6651   42.5109 H   0  0  0  0  0  0  0  0  0  0  0  0
   59.0183   26.3981   42.7686 H   0  0  0  0  0  0  0  0  0  0  0  0
   56.9973   25.0490   44.1470 H   0  0  0  0  0  0  0  0  0  0  0  0
   58.6422   25.2494   44.7913 H   0  0  0  0  0  0  0  0  0  0  0  0
   56.1763   26.3682   45.8329 H   0  0  0  0  0  0  0  0  0  0  0  0
   57.8065   26.6349   46.4678 H   0  0  0  0  0  0  0  0  0  0  0  0
  1  2  1  0
  2  3  1  0
  3  4  1  0
  4  5  2  0
  5  6  1  0
  6  7  2  0
  7  8  1  0
  7  9  1  0
  9 10  2  0
 10 11  1  0
 11 12  1  0
 12 13  1  0
 13 14  1  0
 14 15  1  0
 15 16  1  0
 16 17  1  0
 10  4  1  0
 17 13  1  0
  1 18  1  0
  1 19  1  0
  1 20  1  0
  2 21  1  0
  2 22  1  0
  5 23  1  0
  6 24  1  0
  9 25  1  0
 11 26  1  0
 11 27  1  0
 12 28  1  0
 13 29  1  0
 14 30  1  0
 14 31  1  0
 15 32  1  0
 15 33  1  0
 16 34  1  0
 16 35  1  0
 17 36  1  0
 17 37  1  0
M  END
>  <UniqueID>  (5) 
5

>  <SMILES>  (5) 
CCOc1ccc(Br)cc1CNC1CCCC1

>  <Energy>  (5) 
41.45640433620067

>  <Genealogy>  (5) 
CCOc1ccc(Br)cc1CNC1CCCC1 (3D coordinates assigned)
CCOc1ccc(Br)cc1CNC1CCCC1 (nonaromatic ring conformer: 41.45640433620067 kcal/mol)

>  <smiles>  (5) 
CCOc1ccc(Br)cc1CNC1CCCC1

>  <score_type>  (5) 
oracle

>  <origin>  (5) 
adg

>  <m_score__min__energy>  (5) 
-6.9500000000000002

>  <m_primary>  (5) 
energy

$$$$
5:0
     RDKit          3D

 33 34  0  0  0  0  0  0  0  0999 V2000
   57.7660   25.8490   43.5700 C   0  0  0  0  0  0  0  0  0  0  0  0
   58.0230   27.0180   42.6210 C   0  0  0  0  0  0  0  0  0  0  0  0
   57.7710   28.3030   43.2930 N   0  0  0  0  0  0  0  0  0  0  0  0
   56.6860   29.0650   42.6470 C   0  0  0  0  0  0  0  0  0  0  0  0
   55.8120   29.8540   43.6390 C   0  0  0  0  0  0  0  0  0  0  0  0
   56.3770   29.8450   44.9530 O   0  0  0  0  0  0  0  0  0  0  0  0
   57.4330   30.6450   45.4240 C   0  0  0  0  0  0  0  0  0  0  0  0
   57.5240   32.0260   45.1560 C   0  0  0  0  0  0  0  0  0  0  0  0
   58.5880   32.7780   45.6630 C   0  0  0  0  0  0  0  0  0  0  0  0
   58.6570   34.0840   45.4130 O   0  0  0  0  0  0  0  0  0  0  0  0
   59.6450   34.8490   45.8700 C   0  0  0  0  0  0  0  0  0  0  0  0
   59.6550   36.0790   45.6020 O   0  0  0  0  0  0  0  0  0  0  0  0
   60.6700   34.2940   46.6440 C   0  0  0  0  0  0  0  0  0  0  0  0
   60.6380   32.9300   46.9290 C   0  0  0  0  0  0  0  0  0  0  0  0
   59.5860   32.1510   46.4360 C   0  0  0  0  0  0  0  0  0  0  0  0
   59.5080   30.7770   46.6940 C   0  0  0  0  0  0  0  0  0  0  0  0
   58.4390   30.0300   46.1900 C   0  0  0  0  0  0  0  0  0  0  0  0
   58.3580   28.1550   46.5720 Br  0  0  0  0  0  0  0  0  0  0  0  0
   57.8427   26.1977   44.6105 H   0  0  0  0  0  0  0  0  0  0  0  0
   56.7579   25.4466   43.3915 H   0  0  0  0  0  0  0  0  0  0  0  0
   58.5123   25.0609   43.3915 H   0  0  0  0  0  0  0  0  0  0  0  0
   59.0700   26.9861   42.2851 H   0  0  0  0  0  0  0  0  0  0  0  0
   57.3419   26.9304   41.7617 H   0  0  0  0  0  0  0  0  0  0  0  0
   58.6450   28.8780   43.2320 H   0  0  0  0  0  0  0  0  0  0  0  0
   57.5640   28.1570   44.3050 H   0  0  0  0  0  0  0  0  0  0  0  0
   57.1348   29.7757   41.9374 H   0  0  0  0  0  0  0  0  0  0  0  0
   56.0307   28.3348   42.1496 H   0  0  0  0  0  0  0  0  0  0  0  0
   55.7277   30.8946   43.2927 H   0  0  0  0  0  0  0  0  0  0  0  0
   54.8220   29.3766   43.6842 H   0  0  0  0  0  0  0  0  0  0  0  0
   56.7524   32.5154   44.5436 H   0  0  0  0  0  0  0  0  0  0  0  0
   61.4885   34.9244   47.0218 H   0  0  0  0  0  0  0  0  0  0  0  0
   61.4323   32.4706   47.5357 H   0  0  0  0  0  0  0  0  0  0  0  0
   60.2881   30.2851   47.2935 H   0  0  0  0  0  0  0  0  0  0  0  0
  1  2  1  0
  2  3  1  0
  3  4  1  0
  4  5  1  0
  5  6  1  0
  6  7  1  0
  7  8  2  0
  8  9  1  0
  9 10  1  0
 10 11  1  0
 11 12  2  0
 11 13  1  0
 13 14  2  0
 14 15  1  0
 15 16  1  0
 16 17  2  0
 17 18  1  0
 17  7  1  0
 15  9  2  0
  1 19  1  0
  1 20  1  0
  1 21  1  0
  2 22  1  0
  2 23  1  0
  3 24  1  0
  3 25  1  0
  4 26  1  0
  4 27  1  0
  5 28  1  0
  5 29  1  0
  8 30  1  0
 13 31  1  0
 14 32  1  0
 16 33  1  0
M  CHG  1   3   1
M  END
>  <UniqueID>  (6) 
6

>  <SMILES>  (6) 
CC[NH2+]CCOc1cc2oc(=O)ccc2cc1Br

>  <Energy>  (6) 
35.76819894083143

>  <Genealogy>  (6) 
CC[NH2+]CCOc1cc2oc(=O)ccc2cc1Br (protonated)
CC[NH2+]CCOc1cc2oc(=O)ccc2cc1Br (3D coordinates assigned)
CC[NH2+]CCOc1cc2oc(=O)ccc2cc1Br (optimized conformer: 35.76819894083143 kcal/mol)

>  <smiles>  (6) 
CCNCCOc1cc2oc(=O)ccc2cc1Br

>  <score_type>  (6) 
oracle

>  <origin>  (6) 
adg

>  <m_score__min__energy>  (6) 
-4.7199999999999998

>  <m_primary>  (6) 
energy

$$$$
6:0
     RDKit          3D

 46 48  0  0  0  0  0  0  0  0999 V2000
   60.4160   30.1810   46.5900 C   0  0  0  0  0  0  0  0  0  0  0  0
   60.0470   29.6220   45.2210 C   0  0  0  0  0  0  0  0  0  0  0  0
   58.6040   29.3930   45.1360 N   0  0  0  0  0  0  0  0  0  0  0  0
   57.9720   28.2320   45.3710 C   0  0  0  0  0  0  0  0  0  0  0  0
   56.6190   28.4460   45.2370 C   0  0  0  0  0  0  0  0  0  0  0  0
   56.3930   29.7390   44.9280 N   0  0  0  0  0  0  0  0  0  0  0  0
   57.6250   30.2910   44.8880 C   0  0  0  0  0  0  0  0  0  0  0  0
   57.8560   31.7320   44.5430 C   0  0  0  0  0  0  0  0  0  0  0  0
   56.6680   32.5170   44.8990 N   0  0  0  0  0  0  0  0  0  0  0  0
   57.0270   33.8280   45.4620 C   0  0  0  0  0  0  0  0  0  0  0  0
   58.3290   33.7820   46.2240 C   0  0  0  0  0  0  0  0  0  0  0  0
   58.4370   33.0770   47.4280 C   0  0  0  0  0  0  0  0  0  0  0  0
   59.6110   33.0710   48.1090 N   0  0  0  0  0  0  0  0  0  0  0  0
   60.7010   33.7450   47.6490 C   0  0  0  0  0  0  0  0  0  0  0  0
   61.9400   33.7240   48.3850 N   0  0  0  0  0  0  0  0  0  0  0  0
   61.9250   33.9930   49.8320 C   0  0  0  0  0  0  0  0  0  0  0  0
   63.3350   34.2550   50.3730 C   0  0  0  0  0  0  0  0  0  0  0  0
   64.3050   33.1260   49.9950 C   0  0  0  0  0  0  0  0  0  0  0  0
   64.1340   32.6180   48.5450 C   0  0  0  0  0  0  0  0  0  0  0  0
   63.2230   33.5120   47.6960 C   0  0  0  0  0  0  0  0  0  0  0  0
   60.6090   34.4410   46.4810 N   0  0  0  0  0  0  0  0  0  0  0  0
   59.4550   34.4750   45.7680 C   0  0  0  0  0  0  0  0  0  0  0  0
   59.9916   29.5380   47.3751 H   0  0  0  0  0  0  0  0  0  0  0  0
   61.5109   30.2094   46.6915 H   0  0  0  0  0  0  0  0  0  0  0  0
   60.0118   31.1990   46.6915 H   0  0  0  0  0  0  0  0  0  0  0  0
   60.3465   30.3401   44.4434 H   0  0  0  0  0  0  0  0  0  0  0  0
   60.5696   28.6654   45.0733 H   0  0  0  0  0  0  0  0  0  0  0  0
   58.4521   27.2758   45.6263 H   0  0  0  0  0  0  0  0  0  0  0  0
   55.8406   27.6791   45.3628 H   0  0  0  0  0  0  0  0  0  0  0  0
   58.7252   32.1082   45.1025 H   0  0  0  0  0  0  0  0  0  0  0  0
   58.0466   31.8245   43.4636 H   0  0  0  0  0  0  0  0  0  0  0  0
   56.1050   31.9820   45.6020 H   0  0  0  0  0  0  0  0  0  0  0  0
   57.1226   34.5527   44.6400 H   0  0  0  0  0  0  0  0  0  0  0  0
   56.2338   34.1233   46.1646 H   0  0  0  0  0  0  0  0  0  0  0  0
   57.5698   32.5273   47.8227 H   0  0  0  0  0  0  0  0  0  0  0  0
   61.2992   34.8770   50.0241 H   0  0  0  0  0  0  0  0  0  0  0  0
   61.5205   33.1063   50.3421 H   0  0  0  0  0  0  0  0  0  0  0  0
   63.7079   35.2012   49.9539 H   0  0  0  0  0  0  0  0  0  0  0  0
   63.2782   34.3064   51.4703 H   0  0  0  0  0  0  0  0  0  0  0  0
   65.3335   33.4978   50.1135 H   0  0  0  0  0  0  0  0  0  0  0  0
   64.0855   32.2779   50.6603 H   0  0  0  0  0  0  0  0  0  0  0  0
   65.1251   32.5769   48.0697 H   0  0  0  0  0  0  0  0  0  0  0  0
   63.6608   31.6265   48.5994 H   0  0  0  0  0  0  0  0  0  0  0  0
   63.7141   34.4829   47.5341 H   0  0  0  0  0  0  0  0  0  0  0  0
   63.0363   33.0218   46.7291 H   0  0  0  0  0  0  0  0  0  0  0  0
   59.4051   35.0482   44.8305 H   0  0  0  0  0  0  0  0  0  0  0  0
  1  2  1  0
  2  3  1  0
  3  4  1  0
  4  5  2  0
  5  6  1  0
  6  7  2  0
  7  8  1  0
  8  9  1  0
  9 10  1  0
 10 11  1  0
 11 12  2  0
 12 13  1  0
 13 14  2  0
 14 15  1  0
 15 16  1  0
 16 17  1  0
 17 18  1  0
 18 19  1  0
 19 20  1  0
 14 21  1  0
 21 22  2  0
  7  3  1  0
 22 11  1  0
 20 15  1  0
  1 23  1  0
  1 24  1  0
  1 25  1  0
  2 26  1  0
  2 27  1  0
  4 28  1  0
  5 29  1  0
  8 30  1  0
  8 31  1  0
  9 32  1  0
 10 33  1  0
 10 34  1  0
 12 35  1  0
 16 36  1  0
 16 37  1  0
 17 38  1  0
 17 39  1  0
 18 40  1  0
 18 41  1  0
 19 42  1  0
 19 43  1  0
 20 44  1  0
 20 45  1  0
 22 46  1  0
M  END
>  <UniqueID>  (7) 
7

>  <SMILES>  (7) 
CCn1ccnc1CNCc1cnc(N2CCCCC2)nc1

>  <Energy>  (7) 
72.69670448768312

>  <Genealogy>  (7) 
CCn1ccnc1CNCc1cnc(N2CCCCC2)nc1 (3D coordinates assigned)
CCn1ccnc1CNCc1cnc(N2CCCCC2)nc1 (nonaromatic ring conformer: 72.69670448768312 kcal/mol)

>  <smiles>  (7) 
CCn1ccnc1CNCc1cnc(N2CCCCC2)nc1

>  <score_type>  (7) 
oracle

>  <origin>  (7) 
adg

>  <m_score__min__energy>  (7) 
-6.8499999999999996

>  <m_primary>  (7) 
energy

$$$$
7:0
     RDKit          3D

 43 46  0  0  0  0  0  0  0  0999 V2000
   57.5370   33.6300   44.5810 C   0  0  0  0  0  0  0  0  0  0  0  0
   58.0820   32.5530   45.4070 N   0  0  0  0  0  0  0  0  0  0  0  0
   58.4960   32.6390   46.6920 C   0  0  0  0  0  0  0  0  0  0  0  0
   58.5450   33.9120   47.4870 C   0  0  0  0  0  0  0  0  0  0  0  0
   59.8680   34.5310   47.3900 N   0  0  0  0  0  0  0  0  0  0  0  0
   61.0940   33.7960   47.5520 C   0  0  0  0  0  0  0  0  0  0  0  0
   62.1280   33.8460   46.5970 C   0  0  0  0  0  0  0  0  0  0  0  0
   63.3000   33.1150   46.7970 C   0  0  0  0  0  0  0  0  0  0  0  0
   63.4360   32.3380   47.9480 C   0  0  0  0  0  0  0  0  0  0  0  0
   62.4330   32.2970   48.8620 N   0  0  0  0  0  0  0  0  0  0  0  0
   61.2800   33.0000   48.6920 C   0  0  0  0  0  0  0  0  0  0  0  0
   58.9150   31.4560   47.1890 N   0  0  0  0  0  0  0  0  0  0  0  0
   58.7400   30.5850   46.1740 C   0  0  0  0  0  0  0  0  0  0  0  0
   59.0680   29.1490   46.2840 C   0  0  0  0  0  0  0  0  0  0  0  0
   58.1240   28.2700   46.8390 C   0  0  0  0  0  0  0  0  0  0  0  0
   58.4080   26.9050   46.9480 C   0  0  0  0  0  0  0  0  0  0  0  0
   57.4850   26.0610   47.4730 F   0  0  0  0  0  0  0  0  0  0  0  0
   59.6420   26.4100   46.5180 C   0  0  0  0  0  0  0  0  0  0  0  0
   60.5970   27.2800   45.9870 C   0  0  0  0  0  0  0  0  0  0  0  0
   60.3180   28.6470   45.8730 C   0  0  0  0  0  0  0  0  0  0  0  0
   61.2850   29.4790   45.4110 F   0  0  0  0  0  0  0  0  0  0  0  0
   58.1910   31.2490   45.0850 C   0  0  0  0  0  0  0  0  0  0  0  0
   57.7670   30.6500   43.7680 C   0  0  0  0  0  0  0  0  0  0  0  0
   57.1350   29.2670   43.8470 C   0  0  0  0  0  0  0  0  0  0  0  0
   56.2620   30.4840   43.6090 C   0  0  0  0  0  0  0  0  0  0  0  0
   57.1359   34.4226   45.2298 H   0  0  0  0  0  0  0  0  0  0  0  0
   58.3340   34.0442   43.9460 H   0  0  0  0  0  0  0  0  0  0  0  0
   56.7312   33.2332   43.9460 H   0  0  0  0  0  0  0  0  0  0  0  0
   57.7899   34.6105   47.0973 H   0  0  0  0  0  0  0  0  0  0  0  0
   58.3399   33.6785   48.5422 H   0  0  0  0  0  0  0  0  0  0  0  0
   59.9320   35.5590   47.2000 H   0  0  0  0  0  0  0  0  0  0  0  0
   62.0118   34.4616   45.6928 H   0  0  0  0  0  0  0  0  0  0  0  0
   64.1098   33.1511   46.0534 H   0  0  0  0  0  0  0  0  0  0  0  0
   64.3560   31.7586   48.1148 H   0  0  0  0  0  0  0  0  0  0  0  0
   60.4885   32.9436   49.4538 H   0  0  0  0  0  0  0  0  0  0  0  0
   57.1560   28.6571   47.1899 H   0  0  0  0  0  0  0  0  0  0  0  0
   59.8613   25.3350   46.5977 H   0  0  0  0  0  0  0  0  0  0  0  0
   61.5712   26.8898   45.6574 H   0  0  0  0  0  0  0  0  0  0  0  0
   58.5779   31.0980   43.1749 H   0  0  0  0  0  0  0  0  0  0  0  0
   57.2984   28.5409   43.0370 H   0  0  0  0  0  0  0  0  0  0  0  0
   57.1443   28.4492   44.5826 H   0  0  0  0  0  0  0  0  0  0  0  0
   55.7926   30.6400   42.6265 H   0  0  0  0  0  0  0  0  0  0  0  0
   55.3767   30.9133   44.1008 H   0  0  0  0  0  0  0  0  0  0  0  0
  1  2  1  0
  2  3  1  0
  3  4  1  0
  4  5  1  0
  5  6  1  0
  6  7  2  0
  7  8  1  0
  8  9  2  0
  9 10  1  0
 10 11  2  0
  3 12  2  0
 12 13  1  0
 13 14  1  0
 14 15  2  0
 15 16  1  0
 16 17  1  0
 16 18  2  0
 18 19  1  0
 19 20  2  0
 20 21  1  0
 13 22  2  0
 22 23  1  0
 23 24  1  0
 24 25  1  0
 22  2  1  0
 25 23  1  0
 11  6  1  0
 20 14  1  0
  1 26  1  0
  1 27  1  0
  1 28  1  0
  4 29  1  0
  4 30  1  0
  5 31  1  0
  7 32  1  0
  8 33  1  0
  9 34  1  0
 11 35  1  0
 15 36  1  0
 18 37  1  0
 19 38  1  0
 23 39  1  0
 24 40  1  0
 24 41  1  0
 25 42  1  0
 25 43  1  0
M  END
>  <UniqueID>  (8) 
8

>  <SMILES>  (8) 
Cn1c(CNc2cccnc2)nc(-c2cc(F)ccc2F)c1C1CC1

>  <Energy>  (8) 
343.6223588122555

>  <Genealogy>  (8) 
Cn1c(CNc2cccnc2)nc(-c2cc(F)ccc2F)c1C1CC1 (3D coordinates assigned)
Cn1c(CNc2cccnc2)nc(-c2cc(F)ccc2F)c1C1CC1 (nonaromatic ring conformer: 343.6223588122555 kcal/mol)

>  <smiles>  (8) 
Cn1c(CNc2cccnc2)nc(-c2cc(F)ccc2F)c1C1CC1

>  <score_type>  (8) 
oracle

>  <origin>  (8) 
adg

>  <m_score__min__energy>  (8) 
-7.1900000000000004

>  <m_primary>  (8) 
energy

$$$$
8:0
     RDKit          3D

 43 44  0  0  0  0  0  0  0  0999 V2000
   58.9544   25.9068   47.9940 H   0  0  0  0  0  0  0  0  0  0  0  0
   58.4310   26.6270   47.3480 C   0  0  0  0  0  0  0  0  0  0  0  0
   58.7540   28.2760   47.2390 S   0  0  0  0  0  0  0  0  0  0  0  0
   57.5460   28.5500   46.0920 C   0  0  0  0  0  0  0  0  0  0  0  0
   57.2780   29.6810   45.5050 N   0  0  0  0  0  0  0  0  0  0  0  0
   56.3280   29.8960   44.4510 C   0  0  0  0  0  0  0  0  0  0  0  0
   55.2060   29.3290   44.5240 O   0  0  0  0  0  0  0  0  0  0  0  0
   56.6190   30.8160   43.2920 C   0  0  0  0  0  0  0  0  0  0  0  0
   56.5387   30.2416   42.3574 H   0  0  0  0  0  0  0  0  0  0  0  0
   55.8884   31.6376   43.3270 H   0  0  0  0  0  0  0  0  0  0  0  0
   58.0220   31.4370   43.3690 C   0  0  0  0  0  0  0  0  0  0  0  0
   58.5197   31.0770   44.2815 H   0  0  0  0  0  0  0  0  0  0  0  0
   58.5757   31.1361   42.4674 H   0  0  0  0  0  0  0  0  0  0  0  0
   57.9730   32.9720   43.4040 C   0  0  0  0  0  0  0  0  0  0  0  0
   58.6917   33.3737   42.6746 H   0  0  0  0  0  0  0  0  0  0  0  0
   56.9537   33.3009   43.1532 H   0  0  0  0  0  0  0  0  0  0  0  0
   58.3240   33.4800   44.7760 C   0  0  0  0  0  0  0  0  0  0  0  0
   57.7580   32.8880   45.9180 C   0  0  0  0  0  0  0  0  0  0  0  0
   57.0344   32.0667   45.8086 H   0  0  0  0  0  0  0  0  0  0  0  0
   58.1120   33.3400   47.1930 C   0  0  0  0  0  0  0  0  0  0  0  0
   57.6621   32.8774   48.0838 H   0  0  0  0  0  0  0  0  0  0  0  0
   59.0360   34.3780   47.3380 C   0  0  0  0  0  0  0  0  0  0  0  0
   59.3091   34.7353   48.3418 H   0  0  0  0  0  0  0  0  0  0  0  0
   59.6130   34.9620   46.2070 C   0  0  0  0  0  0  0  0  0  0  0  0
   60.3436   35.7762   46.3223 H   0  0  0  0  0  0  0  0  0  0  0  0
   59.2640   34.5140   44.9290 C   0  0  0  0  0  0  0  0  0  0  0  0
   59.7259   34.9716   44.0418 H   0  0  0  0  0  0  0  0  0  0  0  0
   56.9110   27.4030   45.7740 N   0  0  0  0  0  0  0  0  0  0  0  0
   56.1470   27.3400   45.0620 H   0  0  0  0  0  0  0  0  0  0  0  0
   57.3830   26.3350   46.4750 C   0  0  0  0  0  0  0  0  0  0  0  0
   56.8640   24.9470   46.2590 C   0  0  0  0  0  0  0  0  0  0  0  0
   56.8553   24.4072   47.2174 H   0  0  0  0  0  0  0  0  0  0  0  0
   57.5155   24.4230   45.5442 H   0  0  0  0  0  0  0  0  0  0  0  0
   55.4760   25.0050   45.7100 C   0  0  0  0  0  0  0  0  0  0  0  0
   54.7340   25.9880   45.9860 O   0  0  0  0  0  0  0  0  0  0  0  0
   54.9970   23.9390   44.9420 O   0  0  0  0  0  0  0  0  0  0  0  0
   55.8260   23.1460   44.0960 C   0  0  0  0  0  0  0  0  0  0  0  0
   55.1922   22.4864   43.4851 H   0  0  0  0  0  0  0  0  0  0  0  0
   56.5042   22.5498   44.7242 H   0  0  0  0  0  0  0  0  0  0  0  0
   56.6610   24.0300   43.1760 C   0  0  0  0  0  0  0  0  0  0  0  0
   57.2915   24.6975   43.7818 H   0  0  0  0  0  0  0  0  0  0  0  0
   57.2999   23.3984   42.5412 H   0  0  0  0  0  0  0  0  0  0  0  0
   55.9940   24.6319   42.5412 H   0  0  0  0  0  0  0  0  0  0  0  0
  1  2  1  0
  2  3  1  0
  3  4  1  0
  4  5  2  0
  5  6  1  0
  6  7  2  0
  6  8  1  0
  8  9  1  0
  8 10  1  0
  8 11  1  0
 11 12  1  0
 11 13  1  0
 11 14  1  0
 14 15  1  0
 14 16  1  0
 14 17  1  0
 17 18  2  0
 18 19  1  0
 18 20  1  0
 20 21  1  0
 20 22  2  0
 22 23  1  0
 22 24  1  0
 24 25  1  0
 24 26  2  0
 26 27  1  0
  4 28  1  0
 28 29  1  0
 28 30  1  0
 30 31  1  0
 31 32  1  0
 31 33  1  0
 31 34  1  0
 34 35  2  0
 34 36  1  0
 36 37  1  0
 37 38  1  0
 37 39  1  0
 37 40  1  0
 40 41  1  0
 40 42  1  0
 40 43  1  0
 30  2  2  0
 26 17  1  0
M  END
>  <UniqueID>  (9) 
9

>  <SMILES>  (9) 
CCOC(=O)Cc1cs/c(=N\C(=O)CCCc2ccccc2)[nH]1

>  <Energy>  (9) 
67.60380236779412

>  <Genealogy>  (9) 
CCOC(=O)Cc1cs/c(=N\C(=O)CCCc2ccccc2)[nH]1 (cis-trans isomerization)
CCOC(=O)Cc1cs/c(=N\C(=O)CCCc2ccccc2)[nH]1 (3D coordinates assigned)
CCOC(=O)Cc1cs/c(=N\C(=O)CCCc2ccccc2)[nH]1 (optimized conformer: 67.60380236779412 kcal/mol)

>  <smiles>  (9) 
CCOC(=O)Cc1csc(=NC(=O)CCCc2ccccc2)[nH]1

>  <score_type>  (9) 
oracle

>  <origin>  (9) 
adg

>  <m_score__min__energy>  (9) 
-8.2799999999999994

>  <m_primary>  (9) 
energy

$$$$
9:0
     RDKit          3D

 56 59  0  0  0  0  0  0  0  0999 V2000
   59.4150   35.1120   46.2030 C   0  0  0  0  0  0  0  0  0  0  0  0
   58.1450   34.2990   46.4340 C   0  0  0  0  0  0  0  0  0  0  0  0
   58.1800   33.0760   45.6320 N   0  0  0  0  0  0  0  0  0  0  0  0
   57.7810   33.0180   44.3600 N   0  0  0  0  0  0  0  0  0  0  0  0
   57.6990   31.7160   43.9670 C   0  0  0  0  0  0  0  0  0  0  0  0
   57.3490   31.2500   42.5910 C   0  0  0  0  0  0  0  0  0  0  0  0
   58.0350   30.9470   45.0590 C   0  0  0  0  0  0  0  0  0  0  0  0
   58.2240   29.6720   45.5230 C   0  0  0  0  0  0  0  0  0  0  0  0
   58.0890   28.3930   44.7490 C   0  0  0  0  0  0  0  0  0  0  0  0
   57.0070   27.5590   45.2940 N   0  0  0  0  0  0  0  0  0  0  0  0
   57.4820   26.2540   45.7830 C   0  0  0  0  0  0  0  0  0  0  0  0
   56.7810   25.1350   45.0560 C   0  0  0  0  0  0  0  0  0  0  0  0
   55.5270   24.6850   45.4990 C   0  0  0  0  0  0  0  0  0  0  0  0
   54.9100   23.6160   44.8460 C   0  0  0  0  0  0  0  0  0  0  0  0
   55.5090   23.0380   43.7720 N   0  0  0  0  0  0  0  0  0  0  0  0
   56.7060   23.4730   43.3030 C   0  0  0  0  0  0  0  0  0  0  0  0
   57.3700   24.5240   43.9400 C   0  0  0  0  0  0  0  0  0  0  0  0
   58.6640   29.8590   46.8500 C   0  0  0  0  0  0  0  0  0  0  0  0
   59.0200   28.7390   47.7850 C   0  0  0  0  0  0  0  0  0  0  0  0
   58.7580   31.1950   47.1560 N   0  0  0  0  0  0  0  0  0  0  0  0
   59.4640   31.7940   48.2960 C   0  0  0  0  0  0  0  0  0  0  0  0
   60.8710   32.2030   47.9430 C   0  0  0  0  0  0  0  0  0  0  0  0
   61.3400   33.4990   48.2160 C   0  0  0  0  0  0  0  0  0  0  0  0
   62.6610   33.8480   47.9150 C   0  0  0  0  0  0  0  0  0  0  0  0
   63.5310   32.8980   47.3810 C   0  0  0  0  0  0  0  0  0  0  0  0
   63.0830   31.5990   47.1360 C   0  0  0  0  0  0  0  0  0  0  0  0
   61.7620   31.2490   47.4240 C   0  0  0  0  0  0  0  0  0  0  0  0
   58.3230   31.7950   46.0310 C   0  0  0  0  0  0  0  0  0  0  0  0
   59.8525   35.3921   47.1726 H   0  0  0  0  0  0  0  0  0  0  0  0
   60.1384   34.5086   45.6349 H   0  0  0  0  0  0  0  0  0  0  0  0
   59.1699   36.0215   45.6349 H   0  0  0  0  0  0  0  0  0  0  0  0
   58.0710   34.0340   47.4990 H   0  0  0  0  0  0  0  0  0  0  0  0
   57.2729   34.9001   46.1372 H   0  0  0  0  0  0  0  0  0  0  0  0
   57.5450   33.8490   43.7730 H   0  0  0  0  0  0  0  0  0  0  0  0
   56.6896   30.3721   42.6578 H   0  0  0  0  0  0  0  0  0  0  0  0
   56.8317   32.0568   42.0511 H   0  0  0  0  0  0  0  0  0  0  0  0
   58.2680   30.9781   42.0511 H   0  0  0  0  0  0  0  0  0  0  0  0
   57.8660   28.6302   43.6983 H   0  0  0  0  0  0  0  0  0  0  0  0
   59.0340   27.8353   44.8259 H   0  0  0  0  0  0  0  0  0  0  0  0
   56.3200   27.3890   44.5210 H   0  0  0  0  0  0  0  0  0  0  0  0
   58.5657   26.1750   45.6116 H   0  0  0  0  0  0  0  0  0  0  0  0
   57.2632   26.1740   46.8580 H   0  0  0  0  0  0  0  0  0  0  0  0
   55.0343   25.1709   46.3541 H   0  0  0  0  0  0  0  0  0  0  0  0
   53.9386   23.2416   45.2012 H   0  0  0  0  0  0  0  0  0  0  0  0
   57.1545   22.9966   42.4188 H   0  0  0  0  0  0  0  0  0  0  0  0
   58.3464   24.8692   43.5693 H   0  0  0  0  0  0  0  0  0  0  0  0
   58.9113   29.0809   48.8249 H   0  0  0  0  0  0  0  0  0  0  0  0
   58.3488   27.8858   47.6075 H   0  0  0  0  0  0  0  0  0  0  0  0
   60.0607   28.4299   47.6075 H   0  0  0  0  0  0  0  0  0  0  0  0
   58.9093   32.6838   48.6284 H   0  0  0  0  0  0  0  0  0  0  0  0
   59.5219   31.0377   49.0926 H   0  0  0  0  0  0  0  0  0  0  0  0
   60.6662   34.2418   48.6680 H   0  0  0  0  0  0  0  0  0  0  0  0
   63.0139   34.8733   48.0999 H   0  0  0  0  0  0  0  0  0  0  0  0
   64.5714   33.1726   47.1526 H   0  0  0  0  0  0  0  0  0  0  0  0
   63.7708   30.8504   46.7158 H   0  0  0  0  0  0  0  0  0  0  0  0
   61.4172   30.2202   47.2434 H   0  0  0  0  0  0  0  0  0  0  0  0
  1  2  1  0
  2  3  1  0
  3  4  1  0
  4  5  2  0
  5  6  1  0
  5  7  1  0
  7  8  1  0
  8  9  1  0
  9 10  1  0
 10 11  1  0
 11 12  1  0
 12 13  2  0
 13 14  1  0
 14 15  2  0
 15 16  1  0
 16 17  2  0
  8 18  2  0
 18 19  1  0
 18 20  1  0
 20 21  1  0
 21 22  1  0
 22 23  2  0
 23 24  1  0
 24 25  2  0
 25 26  1  0
 26 27  2  0
 20 28  1  0
 28  3  1  0
 28  7  2  0
 17 12  1  0
 27 22  1  0
  1 29  1  0
  1 30  1  0
  1 31  1  0
  2 32  1  0
  2 33  1  0
  4 34  1  0
  6 35  1  0
  6 36  1  0
  6 37  1  0
  9 38  1  0
  9 39  1  0
 10 40  1  0
 11 41  1  0
 11 42  1  0
 13 43  1  0
 14 44  1  0
 16 45  1  0
 17 46  1  0
 19 47  1  0
 19 48  1  0
 19 49  1  0
 21 50  1  0
 21 51  1  0
 23 52  1  0
 24 53  1  0
 25 54  1  0
 26 55  1  0
 27 56  1  0
M  CHG  1   4   1
M  END
>  <UniqueID>  (10) 
10

>  <SMILES>  (10) 
CCn1[nH+]c(C)c2c(CNCc3ccncc3)c(C)n(Cc3ccccc3)c21

>  <Energy>  (10) 
141.72714023544765

>  <Genealogy>  (10) 
CCn1[nH+]c(C)c2c(CNCc3ccncc3)c(C)n(Cc3ccccc3)c21 (protonated)
CCn1[nH+]c(C)c2c(CNCc3ccncc3)c(C)n(Cc3ccccc3)c21 (3D coordinates assigned)
CCn1[nH+]c(C)c2c(CNCc3ccncc3)c(C)n(Cc3ccccc3)c21 (optimized conformer: 141.72714023544765 kcal/mol)

>  <smiles>  (10) 
CCn1nc(C)c2c(CNCc3ccncc3)c(C)n(Cc3ccccc3)c21

>  <score_type>  (10) 
oracle

>  <origin>  (10) 
adg

>  <m_score__min__energy>  (10) 
-7.25

>  <m_primary>  (10) 
energy

$$$$
10:0
     RDKit          3D

 33 35  0  0  0  0  0  0  0  0999 V2000
   60.1110   27.6560   45.8960 C   0  0  0  0  0  0  0  0  0  0  0  0
   58.6980   27.9300   46.3970 C   0  0  0  0  0  0  0  0  0  0  0  0
   58.2410   29.2920   45.9770 C   0  0  0  0  0  0  0  0  0  0  0  0
   57.1190   29.6220   45.2220 C   0  0  0  0  0  0  0  0  0  0  0  0
   57.1010   30.9570   44.9840 N   0  0  0  0  0  0  0  0  0  0  0  0
   58.1810   31.4650   45.5560 N   0  0  0  0  0  0  0  0  0  0  0  0
   58.5770   32.7660   45.5680 C   0  0  0  0  0  0  0  0  0  0  0  0
   57.7380   33.8310   44.9070 C   0  0  0  0  0  0  0  0  0  0  0  0
   57.4100   33.4240   43.6270 F   0  0  0  0  0  0  0  0  0  0  0  0
   56.5710   34.0710   45.6110 F   0  0  0  0  0  0  0  0  0  0  0  0
   58.4580   35.0090   44.8370 F   0  0  0  0  0  0  0  0  0  0  0  0
   59.7770   33.0710   46.2450 C   0  0  0  0  0  0  0  0  0  0  0  0
   60.5170   32.0250   46.8530 C   0  0  0  0  0  0  0  0  0  0  0  0
   61.7880   32.2870   47.5750 C   0  0  0  0  0  0  0  0  0  0  0  0
   62.5740   33.4180   47.2810 C   0  0  0  0  0  0  0  0  0  0  0  0
   63.7690   33.6260   47.9710 C   0  0  0  0  0  0  0  0  0  0  0  0
   64.1820   32.7120   48.9370 C   0  0  0  0  0  0  0  0  0  0  0  0
   63.3900   31.5930   49.2000 C   0  0  0  0  0  0  0  0  0  0  0  0
   62.2260   31.4010   48.5200 N   0  0  0  0  0  0  0  0  0  0  0  0
   60.0440   30.7440   46.7970 N   0  0  0  0  0  0  0  0  0  0  0  0
   58.8820   30.4950   46.1490 C   0  0  0  0  0  0  0  0  0  0  0  0
   60.7856   27.5252   46.7549 H   0  0  0  0  0  0  0  0  0  0  0  0
   60.1126   26.7408   45.2857 H   0  0  0  0  0  0  0  0  0  0  0  0
   60.4546   28.5042   45.2857 H   0  0  0  0  0  0  0  0  0  0  0  0
   58.0147   27.1756   45.9799 H   0  0  0  0  0  0  0  0  0  0  0  0
   58.6973   27.8807   47.4959 H   0  0  0  0  0  0  0  0  0  0  0  0
   56.3605   28.9069   44.8710 H   0  0  0  0  0  0  0  0  0  0  0  0
   60.1349   34.1097   46.3006 H   0  0  0  0  0  0  0  0  0  0  0  0
   62.2478   34.1334   46.5118 H   0  0  0  0  0  0  0  0  0  0  0  0
   64.3842   34.5112   47.7520 H   0  0  0  0  0  0  0  0  0  0  0  0
   65.1217   32.8700   49.4866 H   0  0  0  0  0  0  0  0  0  0  0  0
   63.7075   30.8634   49.9596 H   0  0  0  0  0  0  0  0  0  0  0  0
   61.6590   30.5540   48.7500 H   0  0  0  0  0  0  0  0  0  0  0  0
  1  2  1  0
  2  3  1  0
  3  4  1  0
  4  5  2  0
  5  6  1  0
  6  7  1  0
  7  8  1  0
  8  9  1  0
  8 10  1  0
  8 11  1  0
  7 12  2  0
 12 13  1  0
 13 14  1  0
 14 15  2  0
 15 16  1  0
 16 17  2  0
 17 18  1  0
 18 19  2  0
 13 20  2  0
 20 21  1  0
 21  3  2  0
 21  6  1  0
 19 14  1  0
  1 22  1  0
  1 23  1  0
  1 24  1  0
  2 25  1  0
  2 26  1  0
  4 27  1  0
 12 28  1  0
 15 29  1  0
 16 30  1  0
 17 31  1  0
 18 32  1  0
 19 33  1  0
M  CHG  1  19   1
M  END
>  <UniqueID>  (11) 
11

>  <SMILES>  (11) 
CCc1cnn2c(C(F)(F)F)cc(-c3cccc[nH+]3)nc12

>  <Energy>  (11) 
73.16183298646712

>  <Genealogy>  (11) 
CCc1cnn2c(C(F)(F)F)cc(-c3cccc[nH+]3)nc12 (protonated)
CCc1cnn2c(C(F)(F)F)cc(-c3cccc[nH+]3)nc12 (3D coordinates assigned)
CCc1cnn2c(C(F)(F)F)cc(-c3cccc[nH+]3)nc12 (optimized conformer: 73.16183298646712 kcal/mol)

>  <smiles>  (11) 
CCc1cnn2c(C(F)(F)F)cc(-c3ccccn3)nc12

>  <score_type>  (11) 
oracle

>  <origin>  (11) 
adg

>  <m_score__min__energy>  (11) 
-4.6799999999999997

>  <m_primary>  (11) 
energy

$$$$
11:0
     RDKit          3D

 51 53  0  0  0  0  0  0  0  0999 V2000
   56.5160   23.0270   43.1150 C   0  0  0  0  0  0  0  0  0  0  0  0
   57.4880   23.2550   44.2810 C   0  0  0  0  0  0  0  0  0  0  0  0
   57.7650   24.6810   44.5630 N   0  0  0  0  0  0  0  0  0  0  0  0
   57.4470   25.5800   43.4410 C   0  0  0  0  0  0  0  0  0  0  0  0
   58.1130   26.9330   43.6880 C   0  0  0  0  0  0  0  0  0  0  0  0
   57.8700   27.3840   45.0620 N   0  0  0  0  0  0  0  0  0  0  0  0
   58.5330   28.5610   45.5490 C   0  0  0  0  0  0  0  0  0  0  0  0
   59.8150   28.4340   46.1030 C   0  0  0  0  0  0  0  0  0  0  0  0
   60.4600   29.5380   46.6590 C   0  0  0  0  0  0  0  0  0  0  0  0
   59.8280   30.7860   46.6780 C   0  0  0  0  0  0  0  0  0  0  0  0
   60.6370   32.1920   47.3670 S   0  0  0  0  0  0  0  0  0  0  0  0
   59.7550   32.8220   48.4090 O   0  0  0  0  0  0  0  0  0  0  0  0
   60.8670   33.1940   46.2690 O   0  0  0  0  0  0  0  0  0  0  0  0
   62.1670   31.6960   48.0640 N   0  0  0  0  0  0  0  0  0  0  0  0
   63.2840   31.9080   47.1230 C   0  0  0  0  0  0  0  0  0  0  0  0
   63.6480   33.4060   46.9730 C   0  0  0  0  0  0  0  0  0  0  0  0
   63.1520   34.2190   48.0220 O   0  0  0  0  0  0  0  0  0  0  0  0
   63.3330   33.5770   49.2640 C   0  0  0  0  0  0  0  0  0  0  0  0
   62.4120   32.3480   49.3750 C   0  0  0  0  0  0  0  0  0  0  0  0
   58.5520   30.9250   46.1180 C   0  0  0  0  0  0  0  0  0  0  0  0
   57.8960   29.8250   45.5400 C   0  0  0  0  0  0  0  0  0  0  0  0
   56.6060   30.0140   44.9310 N   0  0  0  0  0  0  0  0  0  0  0  0
   56.2660   31.1330   44.4940 O   0  0  0  0  0  0  0  0  0  0  0  0
   55.6680   29.0070   44.9730 O   0  0  0  0  0  0  0  0  0  0  0  0
   56.9490   26.6450   45.9330 C   0  0  0  0  0  0  0  0  0  0  0  0
   57.2320   25.1310   45.8740 C   0  0  0  0  0  0  0  0  0  0  0  0
   55.5169   22.7926   43.5110 H   0  0  0  0  0  0  0  0  0  0  0  0
   56.4622   23.9369   42.4992 H   0  0  0  0  0  0  0  0  0  0  0  0
   56.8724   22.1881   42.4992 H   0  0  0  0  0  0  0  0  0  0  0  0
   57.0563   22.8010   45.1852 H   0  0  0  0  0  0  0  0  0  0  0  0
   58.4449   22.7957   43.9923 H   0  0  0  0  0  0  0  0  0  0  0  0
   57.8252   25.1479   42.5028 H   0  0  0  0  0  0  0  0  0  0  0  0
   56.3573   25.7091   43.3636 H   0  0  0  0  0  0  0  0  0  0  0  0
   59.1967   26.8378   43.5250 H   0  0  0  0  0  0  0  0  0  0  0  0
   57.6872   27.6706   42.9918 H   0  0  0  0  0  0  0  0  0  0  0  0
   60.3161   27.4548   46.0989 H   0  0  0  0  0  0  0  0  0  0  0  0
   61.4686   29.4274   47.0839 H   0  0  0  0  0  0  0  0  0  0  0  0
   62.0890   30.6640   48.2270 H   0  0  0  0  0  0  0  0  0  0  0  0
   64.1662   31.3646   47.4925 H   0  0  0  0  0  0  0  0  0  0  0  0
   62.9688   31.5372   46.1365 H   0  0  0  0  0  0  0  0  0  0  0  0
   64.7440   33.4969   46.9514 H   0  0  0  0  0  0  0  0  0  0  0  0
   63.1799   33.7596   46.0425 H   0  0  0  0  0  0  0  0  0  0  0  0
   64.3805   33.2538   49.3552 H   0  0  0  0  0  0  0  0  0  0  0  0
   63.0826   34.2832   50.0694 H   0  0  0  0  0  0  0  0  0  0  0  0
   62.8808   31.6166   50.0497 H   0  0  0  0  0  0  0  0  0  0  0  0
   61.4416   32.6935   49.7610 H   0  0  0  0  0  0  0  0  0  0  0  0
   58.0572   31.9073   46.1308 H   0  0  0  0  0  0  0  0  0  0  0  0
   57.0738   26.9947   46.9684 H   0  0  0  0  0  0  0  0  0  0  0  0
   55.9197   26.8239   45.5886 H   0  0  0  0  0  0  0  0  0  0  0  0
   57.9679   24.8833   46.6531 H   0  0  0  0  0  0  0  0  0  0  0  0
   56.2728   24.6152   46.0288 H   0  0  0  0  0  0  0  0  0  0  0  0
  1  2  1  0
  2  3  1  0
  3  4  1  0
  4  5  1  0
  5  6  1  0
  6  7  1  0
  7  8  2  0
  8  9  1  0
  9 10  2  0
 10 11  1  0
 11 12  2  0
 11 13  2  0
 11 14  1  0
 14 15  1  0
 15 16  1  0
 16 17  1  0
 17 18  1  0
 18 19  1  0
 10 20  1  0
 20 21  2  0
 21 22  1  0
 22 23  2  0
 22 24  1  0
  6 25  1  0
 25 26  1  0
 26  3  1  0
 21  7  1  0
 19 14  1  0
  1 27  1  0
  1 28  1  0
  1 29  1  0
  2 30  1  0
  2 31  1  0
  4 32  1  0
  4 33  1  0
  5 34  1  0
  5 35  1  0
  8 36  1  0
  9 37  1  0
 14 38  1  0
 15 39  1  0
 15 40  1  0
 16 41  1  0
 16 42  1  0
 18 43  1  0
 18 44  1  0
 19 45  1  0
 19 46  1  0
 20 47  1  0
 25 48  1  0
 25 49  1  0
 26 50  1  0
 26 51  1  0
M  CHG  3  14   1  22   1  24  -1
M  END
>  <UniqueID>  (12) 
12

>  <SMILES>  (12) 
CCN1CCN(c2ccc(S(=O)(=O)[NH+]3CCOCC3)cc2[N+](=O)[O-])CC1

>  <Energy>  (12) 
76.93715779608796

>  <Genealogy>  (12) 
CCN1CCN(c2ccc(S(=O)(=O)[NH+]3CCOCC3)cc2[N+](=O)[O-])CC1 (protonated)
CCN1CCN(c2ccc(S(=O)(=O)[NH+]3CCOCC3)cc2[N+](=O)[O-])CC1 (3D coordinates assigned)
CCN1CCN(c2ccc(S(=O)(=O)[NH+]3CCOCC3)cc2[N+](=O)[O-])CC1 (nonaromatic ring conformer: 76.93715779608796 kcal/mol)

>  <smiles>  (12) 
CCN1CCN(c2ccc(S(=O)(=O)N3CCOCC3)cc2[N+](=O)[O-])CC1

>  <score_type>  (12) 
oracle

>  <origin>  (12) 
adg

>  <m_score__min__energy>  (12) 
-6.7599999999999998

>  <m_primary>  (12) 
energy

$$$$
12:0
     RDKit          3D

 51 53  0  0  0  0  0  0  0  0999 V2000
   55.4250   29.7200   43.7340 C   0  0  0  0  0  0  0  0  0  0  0  0
   56.6560   30.4660   43.2210 C   0  0  0  0  0  0  0  0  0  0  0  0
   57.7060   30.5480   44.2440 N   0  0  0  0  0  0  0  0  0  0  0  0
   58.2960   29.5510   44.9530 C   0  0  0  0  0  0  0  0  0  0  0  0
   57.9970   28.1130   44.8340 C   0  0  0  0  0  0  0  0  0  0  0  0
   58.1250   27.4520   43.6050 C   0  0  0  0  0  0  0  0  0  0  0  0
   57.8230   26.0910   43.5010 C   0  0  0  0  0  0  0  0  0  0  0  0
   57.3850   25.3730   44.6310 C   0  0  0  0  0  0  0  0  0  0  0  0
   57.0680   24.0080   44.5770 O   0  0  0  0  0  0  0  0  0  0  0  0
   56.6430   23.3250   43.4020 C   0  0  0  0  0  0  0  0  0  0  0  0
   57.2420   26.0430   45.8520 C   0  0  0  0  0  0  0  0  0  0  0  0
   57.5350   27.4060   45.9520 C   0  0  0  0  0  0  0  0  0  0  0  0
   59.2300   30.0300   45.8000 N   0  0  0  0  0  0  0  0  0  0  0  0
   59.2260   31.3440   45.6520 N   0  0  0  0  0  0  0  0  0  0  0  0
   58.3120   31.6580   44.7190 C   0  0  0  0  0  0  0  0  0  0  0  0
   57.9410   33.3500   44.2340 S   0  0  0  0  0  0  0  0  0  0  0  0
   57.9510   34.0090   45.9360 C   0  0  0  0  0  0  0  0  0  0  0  0
   59.2890   34.6760   46.2500 C   0  0  0  0  0  0  0  0  0  0  0  0
   60.3400   33.7110   46.2750 O   0  0  0  0  0  0  0  0  0  0  0  0
   61.3800   33.6730   47.2180 C   0  0  0  0  0  0  0  0  0  0  0  0
   61.1640   33.8410   48.5990 C   0  0  0  0  0  0  0  0  0  0  0  0
   62.2350   33.7760   49.4960 C   0  0  0  0  0  0  0  0  0  0  0  0
   63.5410   33.5510   49.0230 C   0  0  0  0  0  0  0  0  0  0  0  0
   64.6480   33.4770   49.8790 O   0  0  0  0  0  0  0  0  0  0  0  0
   65.3980   32.2920   50.1190 C   0  0  0  0  0  0  0  0  0  0  0  0
   63.7510   33.3910   47.6490 C   0  0  0  0  0  0  0  0  0  0  0  0
   62.6810   33.4490   46.7560 C   0  0  0  0  0  0  0  0  0  0  0  0
   55.4274   29.7214   44.8340 H   0  0  0  0  0  0  0  0  0  0  0  0
   54.5153   30.2189   43.3686 H   0  0  0  0  0  0  0  0  0  0  0  0
   55.4462   28.6827   43.3686 H   0  0  0  0  0  0  0  0  0  0  0  0
   57.0540   29.9360   42.3431 H   0  0  0  0  0  0  0  0  0  0  0  0
   56.3520   31.4900   42.9584 H   0  0  0  0  0  0  0  0  0  0  0  0
   58.4647   28.0067   42.7179 H   0  0  0  0  0  0  0  0  0  0  0  0
   57.9278   25.5789   42.5331 H   0  0  0  0  0  0  0  0  0  0  0  0
   56.0815   22.4226   43.6853 H   0  0  0  0  0  0  0  0  0  0  0  0
   55.9971   23.9869   42.8065 H   0  0  0  0  0  0  0  0  0  0  0  0
   57.5222   23.0379   42.8065 H   0  0  0  0  0  0  0  0  0  0  0  0
   56.8964   25.4925   46.7394 H   0  0  0  0  0  0  0  0  0  0  0  0
   57.4023   27.9258   46.9123 H   0  0  0  0  0  0  0  0  0  0  0  0
   59.8340   32.0040   46.1840 H   0  0  0  0  0  0  0  0  0  0  0  0
   57.1449   34.7501   46.0408 H   0  0  0  0  0  0  0  0  0  0  0  0
   57.7981   33.1762   46.6381 H   0  0  0  0  0  0  0  0  0  0  0  0
   59.5076   35.4281   45.4776 H   0  0  0  0  0  0  0  0  0  0  0  0
   59.2230   35.1528   47.2391 H   0  0  0  0  0  0  0  0  0  0  0  0
   60.1466   34.0245   48.9748 H   0  0  0  0  0  0  0  0  0  0  0  0
   62.0560   33.9011   50.5741 H   0  0  0  0  0  0  0  0  0  0  0  0
   65.4977   32.1344   51.2031 H   0  0  0  0  0  0  0  0  0  0  0  0
   64.8791   31.4324   49.6697 H   0  0  0  0  0  0  0  0  0  0  0  0
   66.3970   32.3930   49.6697 H   0  0  0  0  0  0  0  0  0  0  0  0
   64.7689   33.2179   47.2696 H   0  0  0  0  0  0  0  0  0  0  0  0
   62.8620   33.3174   45.6790 H   0  0  0  0  0  0  0  0  0  0  0  0
  1  2  1  0
  2  3  1  0
  3  4  1  0
  4  5  1  0
  5  6  2  0
  6  7  1  0
  7  8  2  0
  8  9  1  0
  9 10  1  0
  8 11  1  0
 11 12  2  0
  4 13  2  0
 13 14  1  0
 14 15  2  0
 15 16  1  0
 16 17  1  0
 17 18  1  0
 18 19  1  0
 19 20  1  0
 20 21  2  0
 21 22  1  0
 22 23  2  0
 23 24  1  0
 24 25  1  0
 23 26  1  0
 26 27  2  0
 15  3  1  0
 27 20  1  0
 12  5  1  0
  1 28  1  0
  1 29  1  0
  1 30  1  0
  2 31  1  0
  2 32  1  0
  6 33  1  0
  7 34  1  0
 10 35  1  0
 10 36  1  0
 10 37  1  0
 11 38  1  0
 12 39  1  0
 14 40  1  0
 17 41  1  0
 17 42  1  0
 18 43  1  0
 18 44  1  0
 21 45  1  0
 22 46  1  0
 25 47  1  0
 25 48  1  0
 25 49  1  0
 26 50  1  0
 27 51  1  0
M  CHG  1  14   1
M  END
>  <UniqueID>  (13) 
13

>  <SMILES>  (13) 
CCn1c(-c2ccc(OC)cc2)n[nH+]c1SCCOc1ccc(OC)cc1

>  <Energy>  (13) 
84.04125480446076

>  <Genealogy>  (13) 
CCn1c(-c2ccc(OC)cc2)n[nH+]c1SCCOc1ccc(OC)cc1 (protonated)
CCn1c(-c2ccc(OC)cc2)n[nH+]c1SCCOc1ccc(OC)cc1 (3D coordinates assigned)
CCn1c(-c2ccc(OC)cc2)n[nH+]c1SCCOc1ccc(OC)cc1 (optimized conformer: 84.04125480446076 kcal/mol)

>  <smiles>  (13) 
CCn1c(SCCOc2ccc(OC)cc2)nnc1-c1ccc(OC)cc1

>  <score_type>  (13) 
oracle

>  <origin>  (13) 
adg

>  <m_score__min__energy>  (13) 
-5.7699999999999996

>  <m_primary>  (13) 
energy

$$$$
13:0
     RDKit          3D

 72 74  0  0  0  0  0  0  0  0999 V2000
   63.3770   33.8470   46.2360 C   0  0  0  0  0  0  0  0  0  0  0  0
   62.7170   32.9930   47.3200 C   0  0  0  0  0  0  0  0  0  0  0  0
   63.7470   32.2710   48.2070 C   0  0  0  0  0  0  0  0  0  0  0  0
   63.9500   32.9460   49.5820 C   0  0  0  0  0  0  0  0  0  0  0  0
   62.9100   34.0350   49.8940 C   0  0  0  0  0  0  0  0  0  0  0  0
   62.0480   33.7000   51.1180 C   0  0  0  0  0  0  0  0  0  0  0  0
   60.6300   33.6440   50.7540 N   0  0  0  0  0  0  0  0  0  0  0  0
   60.1370   33.4780   49.4050 C   0  0  0  0  0  0  0  0  0  0  0  0
   59.8180   34.5960   48.6270 C   0  0  0  0  0  0  0  0  0  0  0  0
   59.3520   34.4500   47.3290 C   0  0  0  0  0  0  0  0  0  0  0  0
   59.1040   33.1750   46.7770 C   0  0  0  0  0  0  0  0  0  0  0  0
   59.2650   32.0350   47.6130 C   0  0  0  0  0  0  0  0  0  0  0  0
   59.9410   32.1840   48.8670 C   0  0  0  0  0  0  0  0  0  0  0  0
   60.5760   31.0050   49.5760 C   0  0  0  0  0  0  0  0  0  0  0  0
   58.7230   30.8020   47.1700 C   0  0  0  0  0  0  0  0  0  0  0  0
   58.5670   29.7030   48.0780 N   0  0  0  0  0  0  0  0  0  0  0  0
   59.5240   28.5980   48.0600 C   0  0  0  0  0  0  0  0  0  0  0  0
   58.8640   27.3140   47.5480 C   0  0  0  0  0  0  0  0  0  0  0  0
   59.1620   27.1090   46.1140 N   0  0  0  0  0  0  0  0  0  0  0  0
   58.6920   25.8030   45.5930 C   0  0  0  0  0  0  0  0  0  0  0  0
   57.1710   25.7400   45.6760 C   0  0  0  0  0  0  0  0  0  0  0  0
   60.5740   27.3910   45.7750 C   0  0  0  0  0  0  0  0  0  0  0  0
   60.7620   28.6450   44.9060 C   0  0  0  0  0  0  0  0  0  0  0  0
   58.1440   30.7100   45.8920 C   0  0  0  0  0  0  0  0  0  0  0  0
   57.5610   29.4990   45.4520 C   0  0  0  0  0  0  0  0  0  0  0  0
   56.9480   29.4150   44.2040 C   0  0  0  0  0  0  0  0  0  0  0  0
   56.8920   30.5340   43.3810 C   0  0  0  0  0  0  0  0  0  0  0  0
   57.4610   31.7370   43.7940 C   0  0  0  0  0  0  0  0  0  0  0  0
   58.1200   31.8470   45.0460 C   0  0  0  0  0  0  0  0  0  0  0  0
   58.6850   33.0330   45.4680 N   0  0  0  0  0  0  0  0  0  0  0  0
   58.8740   34.1440   44.5080 C   0  0  0  0  0  0  0  0  0  0  0  0
   63.9846   34.6332   46.7079 H   0  0  0  0  0  0  0  0  0  0  0  0
   64.0212   33.2117   45.6103 H   0  0  0  0  0  0  0  0  0  0  0  0
   62.5998   34.3102   45.6103 H   0  0  0  0  0  0  0  0  0  0  0  0
   62.0989   33.6444   47.9552 H   0  0  0  0  0  0  0  0  0  0  0  0
   62.1099   32.2251   46.8183 H   0  0  0  0  0  0  0  0  0  0  0  0
   63.4032   31.2392   48.3720 H   0  0  0  0  0  0  0  0  0  0  0  0
   64.7123   32.3074   47.6807 H   0  0  0  0  0  0  0  0  0  0  0  0
   63.8877   32.1724   50.3615 H   0  0  0  0  0  0  0  0  0  0  0  0
   64.9337   33.4377   49.5574 H   0  0  0  0  0  0  0  0  0  0  0  0
   63.4379   34.9811   50.0842 H   0  0  0  0  0  0  0  0  0  0  0  0
   62.2383   34.1101   49.0262 H   0  0  0  0  0  0  0  0  0  0  0  0
   62.3562   32.7237   51.5203 H   0  0  0  0  0  0  0  0  0  0  0  0
   62.1878   34.4862   51.8745 H   0  0  0  0  0  0  0  0  0  0  0  0
   59.9410   33.7670   51.5310 H   0  0  0  0  0  0  0  0  0  0  0  0
   59.9384   35.6041   49.0503 H   0  0  0  0  0  0  0  0  0  0  0  0
   59.1720   35.3463   46.7172 H   0  0  0  0  0  0  0  0  0  0  0  0
   60.4996   31.1469   50.6641 H   0  0  0  0  0  0  0  0  0  0  0  0
   60.0540   30.0802   49.2893 H   0  0  0  0  0  0  0  0  0  0  0  0
   61.6355   30.9320   49.2893 H   0  0  0  0  0  0  0  0  0  0  0  0
   57.8850   29.8000   48.8660 H   0  0  0  0  0  0  0  0  0  0  0  0
   60.3641   28.8594   47.3998 H   0  0  0  0  0  0  0  0  0  0  0  0
   59.8819   28.4252   49.0857 H   0  0  0  0  0  0  0  0  0  0  0  0
   59.2467   26.4575   48.1224 H   0  0  0  0  0  0  0  0  0  0  0  0
   57.7748   27.4018   47.6738 H   0  0  0  0  0  0  0  0  0  0  0  0
   59.0069   25.6916   44.5449 H   0  0  0  0  0  0  0  0  0  0  0  0
   59.1259   24.9908   46.1947 H   0  0  0  0  0  0  0  0  0  0  0  0
   56.8616   25.7272   46.7315 H   0  0  0  0  0  0  0  0  0  0  0  0
   56.7398   26.6211   45.1782 H   0  0  0  0  0  0  0  0  0  0  0  0
   56.8142   24.8263   45.1782 H   0  0  0  0  0  0  0  0  0  0  0  0
   61.1349   27.5298   46.7110 H   0  0  0  0  0  0  0  0  0  0  0  0
   60.9410   26.5356   45.1889 H   0  0  0  0  0  0  0  0  0  0  0  0
   60.8938   29.5239   45.5542 H   0  0  0  0  0  0  0  0  0  0  0  0
   61.6516   28.5211   44.2710 H   0  0  0  0  0  0  0  0  0  0  0  0
   59.8752   28.7874   44.2710 H   0  0  0  0  0  0  0  0  0  0  0  0
   57.5920   28.6129   46.1030 H   0  0  0  0  0  0  0  0  0  0  0  0
   56.5084   28.4636   43.8698 H   0  0  0  0  0  0  0  0  0  0  0  0
   56.3970   30.4695   42.4008 H   0  0  0  0  0  0  0  0  0  0  0  0
   57.3982   32.6175   43.1376 H   0  0  0  0  0  0  0  0  0  0  0  0
   59.0336   35.0822   45.0597 H   0  0  0  0  0  0  0  0  0  0  0  0
   59.7498   33.9371   43.8755 H   0  0  0  0  0  0  0  0  0  0  0  0
   57.9790   34.2383   43.8755 H   0  0  0  0  0  0  0  0  0  0  0  0
  1  2  1  0
  2  3  1  0
  3  4  1  0
  4  5  1  0
  5  6  1  0
  6  7  1  0
  7  8  1  0
  8  9  2  0
  9 10  1  0
 10 11  2  0
 11 12  1  0
 12 13  2  0
 13 14  1  0
 12 15  1  0
 15 16  1  0
 16 17  1  0
 17 18  1  0
 18 19  1  0
 19 20  1  0
 20 21  1  0
 19 22  1  0
 22 23  1  0
 15 24  2  0
 24 25  1  0
 25 26  2  0
 26 27  1  0
 27 28  2  0
 28 29  1  0
 29 30  2  0
 30 31  1  0
 13  8  1  0
 29 24  1  0
 30 11  1  0
  1 32  1  0
  1 33  1  0
  1 34  1  0
  2 35  1  0
  2 36  1  0
  3 37  1  0
  3 38  1  0
  4 39  1  0
  4 40  1  0
  5 41  1  0
  5 42  1  0
  6 43  1  0
  6 44  1  0
  7 45  1  0
  9 46  1  0
 10 47  1  0
 14 48  1  0
 14 49  1  0
 14 50  1  0
 16 51  1  0
 17 52  1  0
 17 53  1  0
 18 54  1  0
 18 55  1  0
 20 56  1  0
 20 57  1  0
 21 58  1  0
 21 59  1  0
 21 60  1  0
 22 61  1  0
 22 62  1  0
 23 63  1  0
 23 64  1  0
 23 65  1  0
 25 66  1  0
 26 67  1  0
 27 68  1  0
 28 69  1  0
 31 70  1  0
 31 71  1  0
 31 72  1  0
M  CHG  1  30   1
M  END
>  <UniqueID>  (14) 
14

>  <SMILES>  (14) 
CCCCCCNc1ccc2c(c1C)c(NCCN(CC)CC)c1ccccc1[n+]2C

>  <Energy>  (14) 
102.99095616893872

>  <Genealogy>  (14) 
CCCCCCNc1ccc2c(c1C)c(NCCN(CC)CC)c1ccccc1[n+]2C (3D coordinates assigned)
CCCCCCNc1ccc2c(c1C)c(NCCN(CC)CC)c1ccccc1[n+]2C (optimized conformer: 102.99095616893872 kcal/mol)

>  <smiles>  (14) 
CCCCCCNc1ccc2c(c1C)c(NCCN(CC)CC)c1ccccc1[n+]2C

>  <score_type>  (14) 
oracle

>  <origin>  (14) 
adg

>  <m_score__min__energy>  (14) 
-6.3099999999999996

>  <m_primary>  (14) 
energy

$$$$
14:0
     RDKit          3D

 69 73  0  0  0  0  0  0  0  0999 V2000
   59.6530   33.6160   49.9140 C   0  0  0  0  0  0  0  0  0  0  0  0
   59.7610   32.1910   50.4440 C   0  0  0  0  0  0  0  0  0  0  0  0
   58.4860   31.4620   50.2110 N   0  0  0  0  0  0  0  0  0  0  0  0
   57.3940   31.9640   51.0770 C   0  0  0  0  0  0  0  0  0  0  0  0
   56.8080   30.8540   51.9480 C   0  0  0  0  0  0  0  0  0  0  0  0
   58.6560   30.0010   50.4000 C   0  0  0  0  0  0  0  0  0  0  0  0
   58.7770   29.2710   49.0500 C   0  0  0  0  0  0  0  0  0  0  0  0
   59.6760   29.9870   48.1220 N   0  0  0  0  0  0  0  0  0  0  0  0
   59.2010   29.9090   46.7460 C   0  0  0  0  0  0  0  0  0  0  0  0
   58.9660   28.6610   46.1330 C   0  0  0  0  0  0  0  0  0  0  0  0
   59.6930   27.5110   46.5050 C   0  0  0  0  0  0  0  0  0  0  0  0
   59.4570   26.2880   45.8820 C   0  0  0  0  0  0  0  0  0  0  0  0
   58.5100   26.1940   44.8670 C   0  0  0  0  0  0  0  0  0  0  0  0
   57.7850   27.3200   44.4770 C   0  0  0  0  0  0  0  0  0  0  0  0
   57.9830   28.5700   45.1160 C   0  0  0  0  0  0  0  0  0  0  0  0
   57.2410   29.6830   44.7830 N   0  0  0  0  0  0  0  0  0  0  0  0
   55.9700   29.5340   44.0430 C   0  0  0  0  0  0  0  0  0  0  0  0
   57.7100   30.9390   45.1240 C   0  0  0  0  0  0  0  0  0  0  0  0
   57.1500   32.1110   44.5640 C   0  0  0  0  0  0  0  0  0  0  0  0
   57.6660   33.3680   44.8590 C   0  0  0  0  0  0  0  0  0  0  0  0
   58.8210   33.4960   45.6280 C   0  0  0  0  0  0  0  0  0  0  0  0
   59.4170   34.7580   45.7770 C   0  0  0  0  0  0  0  0  0  0  0  0
   60.6530   34.8850   46.4090 C   0  0  0  0  0  0  0  0  0  0  0  0
   61.3150   33.7500   46.8920 C   0  0  0  0  0  0  0  0  0  0  0  0
   62.6960   33.8700   47.4850 C   0  0  0  0  0  0  0  0  0  0  0  0
   63.4100   32.5110   47.5480 C   0  0  0  0  0  0  0  0  0  0  0  0
   63.6130   32.0800   48.9380 N   0  0  0  0  0  0  0  0  0  0  0  0
   62.8270   31.1710   49.5860 C   0  0  0  0  0  0  0  0  0  0  0  0
   61.7730   30.5120   48.9620 O   0  0  0  0  0  0  0  0  0  0  0  0
   63.1420   30.9600   50.9250 C   0  0  0  0  0  0  0  0  0  0  0  0
   64.4470   31.9540   51.3140 S   0  0  0  0  0  0  0  0  0  0  0  0
   64.5530   32.5960   49.7670 C   0  0  0  0  0  0  0  0  0  0  0  0
   65.3960   33.4640   49.4170 O   0  0  0  0  0  0  0  0  0  0  0  0
   60.7110   32.4910   46.7610 C   0  0  0  0  0  0  0  0  0  0  0  0
   59.4270   32.3460   46.1900 C   0  0  0  0  0  0  0  0  0  0  0  0
   58.7920   31.0720   46.0400 C   0  0  0  0  0  0  0  0  0  0  0  0
   59.5998   34.3184   50.7589 H   0  0  0  0  0  0  0  0  0  0  0  0
   60.5362   33.8469   49.3003 H   0  0  0  0  0  0  0  0  0  0  0  0
   58.7451   33.7111   49.3003 H   0  0  0  0  0  0  0  0  0  0  0  0
   60.5784   31.6702   49.9238 H   0  0  0  0  0  0  0  0  0  0  0  0
   59.9657   32.2228   51.5243 H   0  0  0  0  0  0  0  0  0  0  0  0
   57.7913   32.7562   51.7286 H   0  0  0  0  0  0  0  0  0  0  0  0
   56.5932   32.3508   50.4296 H   0  0  0  0  0  0  0  0  0  0  0  0
   56.9434   31.1105   53.0091 H   0  0  0  0  0  0  0  0  0  0  0  0
   55.7351   30.7455   51.7310 H   0  0  0  0  0  0  0  0  0  0  0  0
   57.3236   29.9069   51.7310 H   0  0  0  0  0  0  0  0  0  0  0  0
   59.5678   29.8198   50.9880 H   0  0  0  0  0  0  0  0  0  0  0  0
   57.7701   29.6141   50.9249 H   0  0  0  0  0  0  0  0  0  0  0  0
   59.1760   28.2610   49.2251 H   0  0  0  0  0  0  0  0  0  0  0  0
   57.7773   29.2254   48.5933 H   0  0  0  0  0  0  0  0  0  0  0  0
   59.6840   30.9790   48.4470 H   0  0  0  0  0  0  0  0  0  0  0  0
   60.6480   29.6090   48.1890 H   0  0  0  0  0  0  0  0  0  0  0  0
   60.4545   27.5809   47.2957 H   0  0  0  0  0  0  0  0  0  0  0  0
   60.0199   25.3954   46.1927 H   0  0  0  0  0  0  0  0  0  0  0  0
   58.3325   25.2286   44.3705 H   0  0  0  0  0  0  0  0  0  0  0  0
   57.0499   27.2370   43.6629 H   0  0  0  0  0  0  0  0  0  0  0  0
   55.1391   29.4366   44.7572 H   0  0  0  0  0  0  0  0  0  0  0  0
   55.8080   30.4193   43.4106 H   0  0  0  0  0  0  0  0  0  0  0  0
   56.0171   28.6352   43.4106 H   0  0  0  0  0  0  0  0  0  0  0  0
   56.2906   32.0264   43.8827 H   0  0  0  0  0  0  0  0  0  0  0  0
   57.1585   34.2684   44.4824 H   0  0  0  0  0  0  0  0  0  0  0  0
   58.9054   35.6527   45.3925 H   0  0  0  0  0  0  0  0  0  0  0  0
   61.1090   35.8789   46.5284 H   0  0  0  0  0  0  0  0  0  0  0  0
   63.2913   34.5565   46.8651 H   0  0  0  0  0  0  0  0  0  0  0  0
   62.5952   34.2512   48.5119 H   0  0  0  0  0  0  0  0  0  0  0  0
   62.7989   31.7603   47.0254 H   0  0  0  0  0  0  0  0  0  0  0  0
   64.3946   32.6128   47.0681 H   0  0  0  0  0  0  0  0  0  0  0  0
   62.6300   30.2670   51.6088 H   0  0  0  0  0  0  0  0  0  0  0  0
   61.2486   31.5972   47.1104 H   0  0  0  0  0  0  0  0  0  0  0  0
  1  2  1  0
  2  3  1  0
  3  4  1  0
  4  5  1  0
  3  6  1  0
  6  7  1  0
  7  8  1  0
  8  9  1  0
  9 10  2  0
 10 11  1  0
 11 12  2  0
 12 13  1  0
 13 14  2  0
 14 15  1  0
 15 16  2  0
 16 17  1  0
 16 18  1  0
 18 19  2  0
 19 20  1  0
 20 21  2  0
 21 22  1  0
 22 23  2  0
 23 24  1  0
 24 25  1  0
 25 26  1  0
 26 27  1  0
 27 28  1  0
 28 29  1  0
 28 30  2  0
 30 31  1  0
 31 32  1  0
 32 33  2  0
 24 34  2  0
 34 35  1  0
 35 36  2  0
 36  9  1  0
 15 10  1  0
 36 18  1  0
 35 21  1  0
 32 27  1  0
  1 37  1  0
  1 38  1  0
  1 39  1  0
  2 40  1  0
  2 41  1  0
  4 42  1  0
  4 43  1  0
  5 44  1  0
  5 45  1  0
  5 46  1  0
  6 47  1  0
  6 48  1  0
  7 49  1  0
  7 50  1  0
  8 51  1  0
  8 52  1  0
 11 53  1  0
 12 54  1  0
 13 55  1  0
 14 56  1  0
 17 57  1  0
 17 58  1  0
 17 59  1  0
 19 60  1  0
 20 61  1  0
 22 62  1  0
 23 63  1  0
 25 64  1  0
 25 65  1  0
 26 66  1  0
 26 67  1  0
 30 68  1  0
 34 69  1  0
M  CHG  3   8   1  16   1  29  -1
M  END
>  <UniqueID>  (15) 
15

>  <SMILES>  (15) 
CCN(CC)CC[NH2+]c1c2ccccc2[n+](C)c2ccc3ccc(CCn4c([O-])csc4=O)cc3c12

>  <Energy>  (15) 
144.82173409410728

>  <Genealogy>  (15) 
CCN(CC)CC[NH2+]c1c2ccccc2[n+](C)c2ccc3ccc(CCn4c([O-])csc4=O)cc3c12 (protonated)
CCN(CC)CC[NH2+]c1c2ccccc2[n+](C)c2ccc3ccc(CCn4c([O-])csc4=O)cc3c12 (3D coordinates assigned)
CCN(CC)CC[NH2+]c1c2ccccc2[n+](C)c2ccc3ccc(CCn4c([O-])csc4=O)cc3c12 (optimized conformer: 144.82173409410728 kcal/mol)

>  <smiles>  (15) 
CCN(CC)CCNc1c2ccccc2[n+](C)c2ccc3ccc(CCn4c(O)csc4=O)cc3c12

>  <score_type>  (15) 
oracle

>  <origin>  (15) 
adg

>  <m_score__min__energy>  (15) 
-10.140000000000001

>  <m_primary>  (15) 
energy

$$$$
15:0
     RDKit          3D

 48 50  0  0  0  0  0  0  0  0999 V2000
   57.0280   31.1980   42.5940 C   0  0  0  0  0  0  0  0  0  0  0  0
   56.3060   29.8530   42.6300 C   0  0  0  0  0  0  0  0  0  0  0  0
   57.1270   28.8310   43.3030 N   0  0  0  0  0  0  0  0  0  0  0  0
   56.9730   28.8780   44.7730 C   0  0  0  0  0  0  0  0  0  0  0  0
   58.2300   28.3940   45.5190 C   0  0  0  0  0  0  0  0  0  0  0  0
   59.3710   28.3920   44.6820 O   0  0  0  0  0  0  0  0  0  0  0  0
   60.3580   29.2680   45.1870 C   0  0  0  0  0  0  0  0  0  0  0  0
   59.9070   29.7930   46.5480 C   0  0  0  0  0  0  0  0  0  0  0  0
   60.1600   31.2330   46.6460 N   0  0  0  0  0  0  0  0  0  0  0  0
   59.3470   32.2410   46.2340 C   0  0  0  0  0  0  0  0  0  0  0  0
   59.9840   33.4640   46.3620 C   0  0  0  0  0  0  0  0  0  0  0  0
   61.2220   33.1970   46.9020 C   0  0  0  0  0  0  0  0  0  0  0  0
   62.2750   34.0440   47.2420 C   0  0  0  0  0  0  0  0  0  0  0  0
   63.4510   33.4600   47.7440 C   0  0  0  0  0  0  0  0  0  0  0  0
   63.5490   32.0590   47.8880 C   0  0  0  0  0  0  0  0  0  0  0  0
   62.4700   31.2270   47.5360 C   0  0  0  0  0  0  0  0  0  0  0  0
   61.3050   31.8310   47.0500 C   0  0  0  0  0  0  0  0  0  0  0  0
   59.3640   34.7860   46.0160 C   0  0  0  0  0  0  0  0  0  0  0  0
   58.1740   34.5820   45.0620 C   0  0  0  0  0  0  0  0  0  0  0  0
   57.2560   33.4370   45.5340 C   0  0  0  0  0  0  0  0  0  0  0  0
   58.0000   32.0880   45.5800 C   0  0  0  0  0  0  0  0  0  0  0  0
   57.2129   31.5425   43.6222 H   0  0  0  0  0  0  0  0  0  0  0  0
   57.9869   31.0854   42.0670 H   0  0  0  0  0  0  0  0  0  0  0  0
   56.4043   31.9350   42.0670 H   0  0  0  0  0  0  0  0  0  0  0  0
   55.3574   29.9684   43.1748 H   0  0  0  0  0  0  0  0  0  0  0  0
   56.1193   29.5276   41.5960 H   0  0  0  0  0  0  0  0  0  0  0  0
   56.8130   27.8890   42.9700 H   0  0  0  0  0  0  0  0  0  0  0  0
   58.1320   28.9470   43.0340 H   0  0  0  0  0  0  0  0  0  0  0  0
   56.7645   29.9159   45.0718 H   0  0  0  0  0  0  0  0  0  0  0  0
   56.1471   28.2030   45.0418 H   0  0  0  0  0  0  0  0  0  0  0  0
   58.4163   29.0619   46.3729 H   0  0  0  0  0  0  0  0  0  0  0  0
   58.0513   27.3620   45.8551 H   0  0  0  0  0  0  0  0  0  0  0  0
   61.3096   28.7273   45.2971 H   0  0  0  0  0  0  0  0  0  0  0  0
   60.4991   30.1091   44.4923 H   0  0  0  0  0  0  0  0  0  0  0  0
   58.8303   29.6044   46.6713 H   0  0  0  0  0  0  0  0  0  0  0  0
   60.4726   29.2755   47.3369 H   0  0  0  0  0  0  0  0  0  0  0  0
   62.1888   35.1340   47.1215 H   0  0  0  0  0  0  0  0  0  0  0  0
   64.3007   34.0989   48.0265 H   0  0  0  0  0  0  0  0  0  0  0  0
   64.4762   31.6142   48.2785 H   0  0  0  0  0  0  0  0  0  0  0  0
   62.5403   30.1342   47.6398 H   0  0  0  0  0  0  0  0  0  0  0  0
   59.0119   35.2742   46.9367 H   0  0  0  0  0  0  0  0  0  0  0  0
   60.1169   35.4166   45.5206 H   0  0  0  0  0  0  0  0  0  0  0  0
   57.5892   35.5126   45.0172 H   0  0  0  0  0  0  0  0  0  0  0  0
   58.5702   34.3179   44.0704 H   0  0  0  0  0  0  0  0  0  0  0  0
   56.8829   33.6723   46.5417 H   0  0  0  0  0  0  0  0  0  0  0  0
   56.4272   33.3458   44.8165 H   0  0  0  0  0  0  0  0  0  0  0  0
   57.4009   31.3654   46.1535 H   0  0  0  0  0  0  0  0  0  0  0  0
   58.1473   31.7320   44.5497 H   0  0  0  0  0  0  0  0  0  0  0  0
  1  2  1  0
  2  3  1  0
  3  4  1  0
  4  5  1  0
  5  6  1  0
  6  7  1  0
  7  8  1  0
  8  9  1  0
  9 10  1  0
 10 11  2  0
 11 12  1  0
 12 13  2  0
 13 14  1  0
 14 15  2  0
 15 16  1  0
 16 17  2  0
 11 18  1  0
 18 19  1  0
 19 20  1  0
 20 21  1  0
 17  9  1  0
 21 10  1  0
 17 12  1  0
  1 22  1  0
  1 23  1  0
  1 24  1  0
  2 25  1  0
  2 26  1  0
  3 27  1  0
  3 28  1  0
  4 29  1  0
  4 30  1  0
  5 31  1  0
  5 32  1  0
  7 33  1  0
  7 34  1  0
  8 35  1  0
  8 36  1  0
 13 37  1  0
 14 38  1  0
 15 39  1  0
 16 40  1  0
 18 41  1  0
 18 42  1  0
 19 43  1  0
 19 44  1  0
 20 45  1  0
 20 46  1  0
 21 47  1  0
 21 48  1  0
M  CHG  1   3   1
M  END
>  <UniqueID>  (16) 
16

>  <SMILES>  (16) 
CC[NH2+]CCOCCn1c2c(c3ccccc31)CCCC2

>  <Energy>  (16) 
77.45779858873571

>  <Genealogy>  (16) 
CC[NH2+]CCOCCn1c2c(c3ccccc31)CCCC2 (protonated)
CC[NH2+]CCOCCn1c2c(c3ccccc31)CCCC2 (3D coordinates assigned)
CC[NH2+]CCOCCn1c2c(c3ccccc31)CCCC2 (nonaromatic ring conformer: 77.45779858873571 kcal/mol)

>  <smiles>  (16) 
CCNCCOCCn1c2c(c3ccccc31)CCCC2

>  <score_type>  (16) 
oracle

>  <origin>  (16) 
adg

>  <m_score__min__energy>  (16) 
-5.6699999999999999

>  <m_primary>  (16) 
energy

$$$$
16:0
     RDKit          3D

 51 53  0  0  0  0  0  0  0  0999 V2000
   55.3030   29.7160   43.7420 C   0  0  0  0  0  0  0  0  0  0  0  0
   55.5110   28.9020   44.8910 O   0  0  0  0  0  0  0  0  0  0  0  0
   56.7330   28.3120   45.2490 C   0  0  0  0  0  0  0  0  0  0  0  0
   56.7690   27.0510   45.8820 C   0  0  0  0  0  0  0  0  0  0  0  0
   57.9870   26.4640   46.2260 C   0  0  0  0  0  0  0  0  0  0  0  0
   59.1830   27.1190   45.9460 C   0  0  0  0  0  0  0  0  0  0  0  0
   59.1670   28.3690   45.3290 C   0  0  0  0  0  0  0  0  0  0  0  0
   57.9570   28.9800   44.9730 C   0  0  0  0  0  0  0  0  0  0  0  0
   58.0500   30.2370   44.3500 O   0  0  0  0  0  0  0  0  0  0  0  0
   58.5720   31.4310   44.9250 C   0  0  0  0  0  0  0  0  0  0  0  0
   57.9380   32.6580   44.2500 C   0  0  0  0  0  0  0  0  0  0  0  0
   57.9040   33.8610   45.1120 N   0  0  0  0  0  0  0  0  0  0  0  0
   59.0320   34.8000   44.8900 C   0  0  0  0  0  0  0  0  0  0  0  0
   59.6420   35.3290   46.1890 C   0  0  0  0  0  0  0  0  0  0  0  0
   59.8250   34.2230   47.1260 N   0  0  0  0  0  0  0  0  0  0  0  0
   61.1410   33.8300   47.5550 C   0  0  0  0  0  0  0  0  0  0  0  0
   62.1100   33.4790   46.6000 C   0  0  0  0  0  0  0  0  0  0  0  0
   63.3800   33.0630   47.0010 C   0  0  0  0  0  0  0  0  0  0  0  0
   63.6980   32.9980   48.3570 C   0  0  0  0  0  0  0  0  0  0  0  0
   62.7480   33.3490   49.3170 C   0  0  0  0  0  0  0  0  0  0  0  0
   61.4630   33.7780   48.9270 C   0  0  0  0  0  0  0  0  0  0  0  0
   60.4980   34.1790   49.8640 O   0  0  0  0  0  0  0  0  0  0  0  0
   60.0600   33.3870   50.9640 C   0  0  0  0  0  0  0  0  0  0  0  0
   58.6710   33.3890   47.4730 C   0  0  0  0  0  0  0  0  0  0  0  0
   57.4870   33.6260   46.5140 C   0  0  0  0  0  0  0  0  0  0  0  0
   55.0422   30.7368   44.0582 H   0  0  0  0  0  0  0  0  0  0  0  0
   56.2232   29.7425   43.1399 H   0  0  0  0  0  0  0  0  0  0  0  0
   54.4829   29.2978   43.1399 H   0  0  0  0  0  0  0  0  0  0  0  0
   55.8285   26.5264   46.1061 H   0  0  0  0  0  0  0  0  0  0  0  0
   58.0023   25.4811   46.7197 H   0  0  0  0  0  0  0  0  0  0  0  0
   60.1417   26.6498   46.2119 H   0  0  0  0  0  0  0  0  0  0  0  0
   60.1167   28.8826   45.1188 H   0  0  0  0  0  0  0  0  0  0  0  0
   58.3433   31.4479   46.0008 H   0  0  0  0  0  0  0  0  0  0  0  0
   59.6615   31.4584   44.7757 H   0  0  0  0  0  0  0  0  0  0  0  0
   58.5178   32.8951   43.3458 H   0  0  0  0  0  0  0  0  0  0  0  0
   56.8941   32.3960   44.0229 H   0  0  0  0  0  0  0  0  0  0  0  0
   59.8162   34.2763   44.3237 H   0  0  0  0  0  0  0  0  0  0  0  0
   58.6328   35.6655   44.3408 H   0  0  0  0  0  0  0  0  0  0  0  0
   60.6160   35.7930   45.9745 H   0  0  0  0  0  0  0  0  0  0  0  0
   58.9691   36.0779   46.6321 H   0  0  0  0  0  0  0  0  0  0  0  0
   61.8657   33.5325   45.5288 H   0  0  0  0  0  0  0  0  0  0  0  0
   64.1311   32.7860   46.2466 H   0  0  0  0  0  0  0  0  0  0  0  0
   64.6998   32.6694   48.6707 H   0  0  0  0  0  0  0  0  0  0  0  0
   63.0035   33.2905   50.3853 H   0  0  0  0  0  0  0  0  0  0  0  0
   60.3348   33.8840   51.9061 H   0  0  0  0  0  0  0  0  0  0  0  0
   58.9675   33.2674   50.9177 H   0  0  0  0  0  0  0  0  0  0  0  0
   60.5394   32.3981   50.9177 H   0  0  0  0  0  0  0  0  0  0  0  0
   58.9669   32.3309   47.4194 H   0  0  0  0  0  0  0  0  0  0  0  0
   58.3477   33.6569   48.4897 H   0  0  0  0  0  0  0  0  0  0  0  0
   56.8345   32.7408   46.5401 H   0  0  0  0  0  0  0  0  0  0  0  0
   56.9690   34.5343   46.8555 H   0  0  0  0  0  0  0  0  0  0  0  0
  1  2  1  0
  2  3  1  0
  3  4  2  0
  4  5  1  0
  5  6  2  0
  6  7  1  0
  7  8  2  0
  8  9  1  0
  9 10  1  0
 10 11  1  0
 11 12  1  0
 12 13  1  0
 13 14  1  0
 14 15  1  0
 15 16  1  0
 16 17  2  0
 17 18  1  0
 18 19  2  0
 19 20  1  0
 20 21  2  0
 21 22  1  0
 22 23  1  0
 15 24  1  0
 24 25  1  0
  8  3  1  0
 25 12  1  0
 21 16  1  0
  1 26  1  0
  1 27  1  0
  1 28  1  0
  4 29  1  0
  5 30  1  0
  6 31  1  0
  7 32  1  0
 10 33  1  0
 10 34  1  0
 11 35  1  0
 11 36  1  0
 13 37  1  0
 13 38  1  0
 14 39  1  0
 14 40  1  0
 17 41  1  0
 18 42  1  0
 19 43  1  0
 20 44  1  0
 23 45  1  0
 23 46  1  0
 23 47  1  0
 24 48  1  0
 24 49  1  0
 25 50  1  0
 25 51  1  0
M  END
>  <UniqueID>  (17) 
17

>  <SMILES>  (17) 
COc1ccccc1OCCN1CCN(c2ccccc2OC)CC1

>  <Energy>  (17) 
66.62507307251914

>  <Genealogy>  (17) 
COc1ccccc1OCCN1CCN(c2ccccc2OC)CC1 (3D coordinates assigned)
COc1ccccc1OCCN1CCN(c2ccccc2OC)CC1 (nonaromatic ring conformer: 66.62507307251914 kcal/mol)

>  <smiles>  (17) 
COc1ccccc1OCCN1CCN(c2ccccc2OC)CC1

>  <score_type>  (17) 
oracle

>  <origin>  (17) 
adg

>  <m_score__min__energy>  (17) 
-8.0199999999999996

>  <m_primary>  (17) 
energy

$$$$
17:0
     RDKit          3D

 45 46  0  0  0  0  0  0  0  0999 V2000
   63.0040   33.8610   46.3510 C   0  0  0  0  0  0  0  0  0  0  0  0
   63.7600   32.8560   47.2100 C   0  0  0  0  0  0  0  0  0  0  0  0
   63.1030   31.5920   47.2020 O   0  0  0  0  0  0  0  0  0  0  0  0
   62.0290   31.2790   48.0420 C   0  0  0  0  0  0  0  0  0  0  0  0
   62.2300   30.9470   49.2420 O   0  0  0  0  0  0  0  0  0  0  0  0
   60.6190   31.2720   47.4980 C   0  0  1  0  0  0  0  0  0  0  0  0
   60.3770   30.1080   46.5070 C   0  0  0  0  0  0  0  0  0  0  0  0
   58.9130   29.7480   46.4360 C   0  0  0  0  0  0  0  0  0  0  0  0
   58.3610   29.2780   47.4690 O   0  0  0  0  0  0  0  0  0  0  0  0
   58.0880   30.0000   45.2290 C   0  0  0  0  0  0  0  0  0  0  0  0
   58.5170   30.9500   44.2840 C   0  0  0  0  0  0  0  0  0  0  0  0
   57.7510   31.2130   43.1440 C   0  0  0  0  0  0  0  0  0  0  0  0
   56.5460   30.5380   42.9400 C   0  0  0  0  0  0  0  0  0  0  0  0
   56.1040   29.5990   43.8750 C   0  0  0  0  0  0  0  0  0  0  0  0
   56.8670   29.3300   45.0150 C   0  0  0  0  0  0  0  0  0  0  0  0
   59.5980   31.3330   48.5760 N   0  0  0  0  0  0  0  0  0  0  0  0
   58.7830   32.5660   48.6570 C   0  0  0  0  0  0  0  0  0  0  0  0
   58.6350   33.2750   47.3330 C   0  0  0  0  0  0  0  0  0  0  0  0
   59.6510   34.1230   46.8600 C   0  0  0  0  0  0  0  0  0  0  0  0
   59.5120   34.7740   45.6300 C   0  0  0  0  0  0  0  0  0  0  0  0
   58.3550   34.5920   44.8680 C   0  0  0  0  0  0  0  0  0  0  0  0
   57.3300   33.7680   45.3400 C   0  0  0  0  0  0  0  0  0  0  0  0
   57.4630   33.1200   46.5700 C   0  0  0  0  0  0  0  0  0  0  0  0
   62.4704   34.5704   47.0006 H   0  0  0  0  0  0  0  0  0  0  0  0
   63.7156   34.4091   45.7160 H   0  0  0  0  0  0  0  0  0  0  0  0
   62.2801   33.3293   45.7160 H   0  0  0  0  0  0  0  0  0  0  0  0
   64.7788   32.7359   46.8131 H   0  0  0  0  0  0  0  0  0  0  0  0
   63.7949   33.2299   48.2439 H   0  0  0  0  0  0  0  0  0  0  0  0
   60.5017   32.1973   46.9149 H   0  0  0  0  0  0  0  0  0  0  0  0
   60.7211   30.4106   45.5070 H   0  0  0  0  0  0  0  0  0  0  0  0
   60.9356   29.2283   46.8593 H   0  0  0  0  0  0  0  0  0  0  0  0
   59.4621   31.4899   44.4431 H   0  0  0  0  0  0  0  0  0  0  0  0
   58.0982   31.9524   42.4073 H   0  0  0  0  0  0  0  0  0  0  0  0
   55.9445   30.7457   42.0427 H   0  0  0  0  0  0  0  0  0  0  0  0
   55.1532   29.0699   43.7138 H   0  0  0  0  0  0  0  0  0  0  0  0
   56.5123   28.5914   45.7489 H   0  0  0  0  0  0  0  0  0  0  0  0
   58.9310   30.5410   48.4140 H   0  0  0  0  0  0  0  0  0  0  0  0
   60.0490   31.1390   49.5000 H   0  0  0  0  0  0  0  0  0  0  0  0
   57.7808   32.2981   49.0229 H   0  0  0  0  0  0  0  0  0  0  0  0
   59.3039   33.2553   49.3379 H   0  0  0  0  0  0  0  0  0  0  0  0
   60.5601   34.2755   47.4602 H   0  0  0  0  0  0  0  0  0  0  0  0
   60.3145   35.4301   45.2620 H   0  0  0  0  0  0  0  0  0  0  0  0
   58.2511   35.0974   43.8965 H   0  0  0  0  0  0  0  0  0  0  0  0
   56.4172   33.6295   44.7420 H   0  0  0  0  0  0  0  0  0  0  0  0
   56.6468   32.4847   46.9445 H   0  0  0  0  0  0  0  0  0  0  0  0
  1  2  1  0
  2  3  1  0
  3  4  1  0
  4  5  2  0
  4  6  1  0
  6  7  1  0
  7  8  1  0
  8  9  2  0
  8 10  1  0
 10 11  2  0
 11 12  1  0
 12 13  2  0
 13 14  1  0
 14 15  2  0
  6 16  1  0
 16 17  1  0
 17 18  1  0
 18 19  2  0
 19 20  1  0
 20 21  2  0
 21 22  1  0
 22 23  2  0
 15 10  1  0
 23 18  1  0
  1 24  1  0
  1 25  1  0
  1 26  1  0
  2 27  1  0
  2 28  1  0
  6 29  1  6
  7 30  1  0
  7 31  1  0
 11 32  1  0
 12 33  1  0
 13 34  1  0
 14 35  1  0
 15 36  1  0
 16 37  1  0
 16 38  1  0
 17 39  1  0
 17 40  1  0
 19 41  1  0
 20 42  1  0
 21 43  1  0
 22 44  1  0
 23 45  1  0
M  CHG  1  16   1
M  END
>  <UniqueID>  (18) 
18

>  <SMILES>  (18) 
CCOC(=O)[C@@H](CC(=O)c1ccccc1)[NH2+]Cc1ccccc1

>  <Energy>  (18) 
44.739067266410665

>  <Genealogy>  (18) 
CCOC(=O)C(CC(=O)c1ccccc1)[NH2+]Cc1ccccc1 (protonated)
CCOC(=O)[C@@H](CC(=O)c1ccccc1)[NH2+]Cc1ccccc1 (chirality)
CCOC(=O)[C@@H](CC(=O)c1ccccc1)[NH2+]Cc1ccccc1 (3D coordinates assigned)
CCOC(=O)[C@@H](CC(=O)c1ccccc1)[NH2+]Cc1ccccc1 (optimized conformer: 44.739067266410665 kcal/mol)

>  <smiles>  (18) 
CCOC(=O)C(CC(=O)c1ccccc1)NCc1ccccc1

>  <score_type>  (18) 
oracle

>  <origin>  (18) 
adg

>  <m_score__min__energy>  (18) 
-5.4800000000000004

>  <m_primary>  (18) 
energy

$$$$
18:0
     RDKit          3D

 55 59  0  0  0  0  0  0  0  0999 V2000
   56.6230   30.4140   42.2440 C   0  0  0  0  0  0  0  0  0  0  0  0
   57.1110   31.1370   43.4980 C   0  0  0  0  0  0  0  0  0  0  0  0
   56.8670   30.3110   44.7040 N   0  0  0  0  0  0  0  0  0  0  0  0
   55.5180   29.7120   44.6470 C   0  0  0  0  0  0  0  0  0  0  0  0
   57.9040   29.2610   44.8310 C   0  0  0  0  0  0  0  0  0  0  0  0
   58.5440   29.2600   46.2320 C   0  0  0  0  0  0  0  0  0  0  0  0
   58.1390   30.4290   47.0420 N   0  0  0  0  0  0  0  0  0  0  0  0
   59.1930   31.4350   47.1220 C   0  0  0  0  0  0  0  0  0  0  0  0
   59.0580   32.6680   46.4210 C   0  0  0  0  0  0  0  0  0  0  0  0
   57.8830   32.9980   45.7000 C   0  0  0  0  0  0  0  0  0  0  0  0
   57.7870   34.1920   44.9890 C   0  0  0  0  0  0  0  0  0  0  0  0
   58.8500   35.0840   44.9750 C   0  0  0  0  0  0  0  0  0  0  0  0
   60.0170   34.7870   45.6730 C   0  0  0  0  0  0  0  0  0  0  0  0
   60.1450   33.5810   46.4050 C   0  0  0  0  0  0  0  0  0  0  0  0
   61.3060   33.2890   47.0840 N   0  0  0  0  0  0  0  0  0  0  0  0
   62.5700   33.9000   46.6160 C   0  0  0  0  0  0  0  0  0  0  0  0
   61.3190   32.2800   48.0250 C   0  0  0  0  0  0  0  0  0  0  0  0
   60.3470   31.2450   47.9410 C   0  0  0  0  0  0  0  0  0  0  0  0
   60.5730   30.0580   48.6760 C   0  0  0  0  0  0  0  0  0  0  0  0
   61.6160   29.9530   49.5300 N   0  0  0  0  0  0  0  0  0  0  0  0
   62.4610   30.9800   49.7670 C   0  0  0  0  0  0  0  0  0  0  0  0
   63.4530   30.8350   50.7560 C   0  0  0  0  0  0  0  0  0  0  0  0
   64.2100   31.9510   51.0840 C   0  0  0  0  0  0  0  0  0  0  0  0
   64.0060   33.1520   50.4940 C   0  0  0  0  0  0  0  0  0  0  0  0
   63.0500   33.3350   49.5020 C   0  0  0  0  0  0  0  0  0  0  0  0
   62.2980   32.2110   49.0640 C   0  0  0  0  0  0  0  0  0  0  0  0
   64.8600   34.0880   51.0480 O   0  0  0  0  0  0  0  0  0  0  0  0
   65.6570   33.4270   52.0410 C   0  0  0  0  0  0  0  0  0  0  0  0
   65.2080   32.0650   52.0330 O   0  0  0  0  0  0  0  0  0  0  0  0
   56.0296   29.5348   42.5352 H   0  0  0  0  0  0  0  0  0  0  0  0
   55.9996   31.0958   41.6469 H   0  0  0  0  0  0  0  0  0  0  0  0
   57.4885   30.0908   41.6469 H   0  0  0  0  0  0  0  0  0  0  0  0
   58.1895   31.3327   43.4059 H   0  0  0  0  0  0  0  0  0  0  0  0
   56.5600   32.0837   43.5989 H   0  0  0  0  0  0  0  0  0  0  0  0
   55.1466   29.5471   45.6692 H   0  0  0  0  0  0  0  0  0  0  0  0
   54.8369   30.3923   44.1147 H   0  0  0  0  0  0  0  0  0  0  0  0
   55.5659   28.7506   44.1147 H   0  0  0  0  0  0  0  0  0  0  0  0
   57.4418   28.2795   44.6494 H   0  0  0  0  0  0  0  0  0  0  0  0
   58.6934   29.4672   44.0932 H   0  0  0  0  0  0  0  0  0  0  0  0
   58.2387   28.3436   46.7583 H   0  0  0  0  0  0  0  0  0  0  0  0
   59.6351   29.3073   46.1004 H   0  0  0  0  0  0  0  0  0  0  0  0
   57.2310   30.8110   46.7100 H   0  0  0  0  0  0  0  0  0  0  0  0
   57.8960   30.1060   48.0050 H   0  0  0  0  0  0  0  0  0  0  0  0
   57.0330   32.2997   45.7020 H   0  0  0  0  0  0  0  0  0  0  0  0
   56.8655   34.4286   44.4368 H   0  0  0  0  0  0  0  0  0  0  0  0
   58.7703   36.0258   44.4123 H   0  0  0  0  0  0  0  0  0  0  0  0
   60.8539   35.5007   45.6559 H   0  0  0  0  0  0  0  0  0  0  0  0
   63.1785   34.1941   47.4839 H   0  0  0  0  0  0  0  0  0  0  0  0
   63.1264   33.1714   46.0081 H   0  0  0  0  0  0  0  0  0  0  0  0
   62.3447   34.7886   46.0081 H   0  0  0  0  0  0  0  0  0  0  0  0
   59.8887   29.2059   48.5508 H   0  0  0  0  0  0  0  0  0  0  0  0
   63.6224   29.8682   51.2526 H   0  0  0  0  0  0  0  0  0  0  0  0
   62.8787   34.3296   49.0646 H   0  0  0  0  0  0  0  0  0  0  0  0
   66.7242   33.4835   51.7803 H   0  0  0  0  0  0  0  0  0  0  0  0
   65.5493   33.8911   53.0325 H   0  0  0  0  0  0  0  0  0  0  0  0
  1  2  1  0
  2  3  1  0
  3  4  1  0
  3  5  1  0
  5  6  1  0
  6  7  1  0
  7  8  1  0
  8  9  2  0
  9 10  1  0
 10 11  2  0
 11 12  1  0
 12 13  2  0
 13 14  1  0
 14 15  2  0
 15 16  1  0
 15 17  1  0
 17 18  2  0
 18 19  1  0
 19 20  2  0
 20 21  1  0
 21 22  2  0
 22 23  1  0
 23 24  2  0
 24 25  1  0
 25 26  2  0
 24 27  1  0
 27 28  1  0
 28 29  1  0
 18  8  1  0
 26 21  1  0
 14  9  1  0
 26 17  1  0
 29 23  1  0
  1 30  1  0
  1 31  1  0
  1 32  1  0
  2 33  1  0
  2 34  1  0
  4 35  1  0
  4 36  1  0
  4 37  1  0
  5 38  1  0
  5 39  1  0
  6 40  1  0
  6 41  1  0
  7 42  1  0
  7 43  1  0
 10 44  1  0
 11 45  1  0
 12 46  1  0
 13 47  1  0
 16 48  1  0
 16 49  1  0
 16 50  1  0
 19 51  1  0
 22 52  1  0
 25 53  1  0
 28 54  1  0
 28 55  1  0
M  CHG  2   7   1  15   1
M  END
>  <UniqueID>  (19) 
19

>  <SMILES>  (19) 
CCN(C)CC[NH2+]c1c2ccccc2[n+](C)c2c1cnc1cc3c(cc12)OCO3

>  <Energy>  (19) 
132.0339917213134

>  <Genealogy>  (19) 
CCN(C)CC[NH2+]c1c2ccccc2[n+](C)c2c1cnc1cc3c(cc12)OCO3 (protonated)
CCN(C)CC[NH2+]c1c2ccccc2[n+](C)c2c1cnc1cc3c(cc12)OCO3 (3D coordinates assigned)
CCN(C)CC[NH2+]c1c2ccccc2[n+](C)c2c1cnc1cc3c(cc12)OCO3 (nonaromatic ring conformer: 132.0339917213134 kcal/mol)

>  <smiles>  (19) 
CCN(C)CCNc1c2ccccc2[n+](C)c2c1cnc1cc3c(cc12)OCO3

>  <score_type>  (19) 
oracle

>  <origin>  (19) 
adg

>  <m_score__min__energy>  (19) 
-4.4000000000000004

>  <m_primary>  (19) 
energy

$$$$
19:0
     RDKit          3D

 41 43  0  0  0  0  0  0  0  0999 V2000
   62.8450   33.4570   46.9510 C   0  0  0  0  0  0  0  0  0  0  0  0
   61.4970   32.8780   47.3690 C   0  0  0  0  0  0  0  0  0  0  0  0
   60.3870   33.4560   46.5350 C   0  0  0  0  0  0  0  0  0  0  0  0
   60.2580   34.7950   46.1910 C   0  0  0  0  0  0  0  0  0  0  0  0
   59.0790   34.9180   45.4670 C   0  0  0  0  0  0  0  0  0  0  0  0
   58.5420   33.6470   45.4160 C   0  0  0  0  0  0  0  0  0  0  0  0
   57.3550   33.2270   44.8250 C   0  0  0  0  0  0  0  0  0  0  0  0
   57.0220   31.9080   44.9210 N   0  0  0  0  0  0  0  0  0  0  0  0
   57.8170   31.0040   45.5710 C   0  0  0  0  0  0  0  0  0  0  0  0
   57.3920   29.5950   45.6600 C   0  0  0  0  0  0  0  0  0  0  0  0
   56.2480   29.2660   45.2460 O   0  0  0  0  0  0  0  0  0  0  0  0
   58.2540   28.5890   46.2130 N   0  0  0  0  0  0  0  0  0  0  0  0
   59.4970   28.2370   45.5130 C   0  0  0  0  0  0  0  0  0  0  0  0
   60.3950   27.3620   46.3960 C   0  0  0  0  0  0  0  0  0  0  0  0
   59.6590   26.1040   46.9310 C   0  0  0  0  0  0  0  0  0  0  0  0
   59.8650   24.9020   45.9950 C   0  0  0  0  0  0  0  0  0  0  0  0
   58.1460   26.3420   47.1830 C   0  0  0  0  0  0  0  0  0  0  0  0
   57.8180   27.8230   47.3860 C   0  0  0  0  0  0  0  0  0  0  0  0
   59.0110   31.4520   46.1750 C   0  0  0  0  0  0  0  0  0  0  0  0
   59.3270   32.7700   46.0620 N   0  0  0  0  0  0  0  0  0  0  0  0
   63.4301   33.7083   47.8479 H   0  0  0  0  0  0  0  0  0  0  0  0
   63.3929   32.7149   46.3518 H   0  0  0  0  0  0  0  0  0  0  0  0
   62.6840   34.3653   46.3518 H   0  0  0  0  0  0  0  0  0  0  0  0
   61.5167   31.7861   47.2368 H   0  0  0  0  0  0  0  0  0  0  0  0
   61.3153   33.1322   48.4237 H   0  0  0  0  0  0  0  0  0  0  0  0
   60.9574   35.6054   46.4441 H   0  0  0  0  0  0  0  0  0  0  0  0
   58.6610   35.8353   45.0268 H   0  0  0  0  0  0  0  0  0  0  0  0
   56.7038   33.9381   44.2956 H   0  0  0  0  0  0  0  0  0  0  0  0
   59.2488   27.6857   44.5941 H   0  0  0  0  0  0  0  0  0  0  0  0
   60.0382   29.1637   45.2716 H   0  0  0  0  0  0  0  0  0  0  0  0
   61.2633   27.0374   45.8038 H   0  0  0  0  0  0  0  0  0  0  0  0
   60.6998   27.9651   47.2639 H   0  0  0  0  0  0  0  0  0  0  0  0
   60.1119   25.8796   47.9080 H   0  0  0  0  0  0  0  0  0  0  0  0
   60.0208   23.9929   46.5945 H   0  0  0  0  0  0  0  0  0  0  0  0
   58.9756   24.7748   45.3604 H   0  0  0  0  0  0  0  0  0  0  0  0
   60.7460   25.0782   45.3604 H   0  0  0  0  0  0  0  0  0  0  0  0
   57.5800   25.9697   46.3164 H   0  0  0  0  0  0  0  0  0  0  0  0
   57.8693   25.8064   48.1031 H   0  0  0  0  0  0  0  0  0  0  0  0
   56.7326   27.9427   47.5187 H   0  0  0  0  0  0  0  0  0  0  0  0
   58.3413   28.1939   48.2796 H   0  0  0  0  0  0  0  0  0  0  0  0
   59.6660   30.7567   46.7204 H   0  0  0  0  0  0  0  0  0  0  0  0
  1  2  1  0
  2  3  1  0
  3  4  2  0
  4  5  1  0
  5  6  2  0
  6  7  1  0
  7  8  2  0
  8  9  1  0
  9 10  1  0
 10 11  2  0
 10 12  1  0
 12 13  1  0
 13 14  1  0
 14 15  1  0
 15 16  1  0
 15 17  1  0
 17 18  1  0
  9 19  2  0
 19 20  1  0
 20  3  1  0
 20  6  1  0
 18 12  1  0
  1 21  1  0
  1 22  1  0
  1 23  1  0
  2 24  1  0
  2 25  1  0
  4 26  1  0
  5 27  1  0
  7 28  1  0
 13 29  1  0
 13 30  1  0
 14 31  1  0
 14 32  1  0
 15 33  1  0
 16 34  1  0
 16 35  1  0
 16 36  1  0
 17 37  1  0
 17 38  1  0
 18 39  1  0
 18 40  1  0
 19 41  1  0
M  END
>  <UniqueID>  (20) 
20

>  <SMILES>  (20) 
CCc1ccc2cnc(C(=O)N3CCC(C)CC3)cn12

>  <Energy>  (20) 
75.82515371243245

>  <Genealogy>  (20) 
CCc1ccc2cnc(C(=O)N3CCC(C)CC3)cn12 (3D coordinates assigned)
CCc1ccc2cnc(C(=O)N3CCC(C)CC3)cn12 (nonaromatic ring conformer: 75.82515371243245 kcal/mol)

>  <smiles>  (20) 
CCc1ccc2cnc(C(=O)N3CCC(C)CC3)cn12

>  <score_type>  (20) 
oracle

>  <origin>  (20) 
adg

>  <m_score__min__energy>  (20) 
-7.21

>  <m_primary>  (20) 
energy

$$$$
20:0
     RDKit          3D

 34 36  0  0  0  0  0  0  0  0999 V2000
   62.5250   33.5590   47.7820 C   0  0  0  0  0  0  0  0  0  0  0  0
   61.4110   34.2130   48.5910 C   0  0  0  0  0  0  0  0  0  0  0  0
   60.1090   33.6890   48.1770 N   0  0  0  0  0  0  0  0  0  0  0  0
   59.2740   32.9200   48.9120 C   0  0  0  0  0  0  0  0  0  0  0  0
   58.1130   32.6440   48.2710 N   0  0  0  0  0  0  0  0  0  0  0  0
   58.2530   33.2710   47.0860 C   0  0  0  0  0  0  0  0  0  0  0  0
   59.4430   33.9330   47.0370 C   0  0  0  0  0  0  0  0  0  0  0  0
   59.9120   34.7100   45.8470 C   0  0  0  0  0  0  0  0  0  0  0  0
   58.7300   34.9550   44.8780 C   0  0  0  0  0  0  0  0  0  0  0  0
   57.8410   33.7700   44.7140 N   0  0  0  0  0  0  0  0  0  0  0  0
   58.5060   32.6290   44.0470 C   0  0  0  0  0  0  0  0  0  0  0  0
   57.6950   31.3770   44.1840 C   0  0  0  0  0  0  0  0  0  0  0  0
   56.7230   30.9380   43.2960 C   0  0  0  0  0  0  0  0  0  0  0  0
   56.1520   29.7150   43.6690 C   0  0  0  0  0  0  0  0  0  0  0  0
   56.6730   29.1910   44.8440 C   0  0  0  0  0  0  0  0  0  0  0  0
   57.8490   30.2480   45.4200 S   0  0  0  0  0  0  0  0  0  0  0  0
   57.2240   33.3660   46.0020 C   0  0  0  0  0  0  0  0  0  0  0  0
   63.2677   33.1230   48.4663 H   0  0  0  0  0  0  0  0  0  0  0  0
   62.1009   32.7665   47.1479 H   0  0  0  0  0  0  0  0  0  0  0  0
   63.0104   34.3155   47.1479 H   0  0  0  0  0  0  0  0  0  0  0  0
   61.5650   34.0001   49.6592 H   0  0  0  0  0  0  0  0  0  0  0  0
   61.4319   35.2989   48.4168 H   0  0  0  0  0  0  0  0  0  0  0  0
   59.5122   32.5572   49.9228 H   0  0  0  0  0  0  0  0  0  0  0  0
   60.3174   35.6770   46.1796 H   0  0  0  0  0  0  0  0  0  0  0  0
   60.6942   34.1379   45.3265 H   0  0  0  0  0  0  0  0  0  0  0  0
   58.1288   35.7904   45.2662 H   0  0  0  0  0  0  0  0  0  0  0  0
   59.1613   35.1754   43.8904 H   0  0  0  0  0  0  0  0  0  0  0  0
   58.6316   32.8606   42.9790 H   0  0  0  0  0  0  0  0  0  0  0  0
   59.4833   32.4662   44.5248 H   0  0  0  0  0  0  0  0  0  0  0  0
   56.4312   31.4934   42.3925 H   0  0  0  0  0  0  0  0  0  0  0  0
   55.3642   29.2162   43.0854 H   0  0  0  0  0  0  0  0  0  0  0  0
   56.3690   28.2460   45.3179 H   0  0  0  0  0  0  0  0  0  0  0  0
   56.4684   34.1124   46.2882 H   0  0  0  0  0  0  0  0  0  0  0  0
   56.7604   32.3769   45.8725 H   0  0  0  0  0  0  0  0  0  0  0  0
  1  2  1  0
  2  3  1  0
  3  4  1  0
  4  5  2  0
  5  6  1  0
  6  7  2  0
  7  8  1  0
  8  9  1  0
  9 10  1  0
 10 11  1  0
 11 12  1  0
 12 13  2  0
 13 14  1  0
 14 15  2  0
 15 16  1  0
 10 17  1  0
  7  3  1  0
 16 12  1  0
 17  6  1  0
  1 18  1  0
  1 19  1  0
  1 20  1  0
  2 21  1  0
  2 22  1  0
  4 23  1  0
  8 24  1  0
  8 25  1  0
  9 26  1  0
  9 27  1  0
 11 28  1  0
 11 29  1  0
 13 30  1  0
 14 31  1  0
 15 32  1  0
 17 33  1  0
 17 34  1  0
M  END
>  <UniqueID>  (21) 
21

>  <SMILES>  (21) 
CCn1cnc2c1CCN(Cc1cccs1)C2

>  <Energy>  (21) 
93.52843432447678

>  <Genealogy>  (21) 
CCn1cnc2c1CCN(Cc1cccs1)C2 (3D coordinates assigned)
CCn1cnc2c1CCN(Cc1cccs1)C2 (nonaromatic ring conformer: 93.52843432447678 kcal/mol)

>  <smiles>  (21) 
CCn1cnc2c1CCN(Cc1cccs1)C2

>  <score_type>  (21) 
oracle

>  <origin>  (21) 
adg

>  <m_score__min__energy>  (21) 
-6.1299999999999999

>  <m_primary>  (21) 
energy

$$$$
21:0
     RDKit          3D

 45 47  0  0  0  0  0  0  0  0999 V2000
   59.6770   26.7440   47.8620 C   0  0  0  0  0  0  0  0  0  0  0  0
   60.3790   28.0640   47.5680 C   0  0  0  0  0  0  0  0  0  0  0  0
   59.4100   29.0670   47.1230 N   0  0  0  0  0  0  0  0  0  0  0  0
   59.0800   30.2390   47.7280 C   0  0  0  0  0  0  0  0  0  0  0  0
   59.7360   30.7630   49.2680 S   0  0  0  0  0  0  0  0  0  0  0  0
   61.2650   30.1170   49.5340 O   0  0  0  0  0  0  0  0  0  0  0  0
   59.6950   32.5380   49.4340 C   0  0  0  0  0  0  0  0  0  0  0  0
   59.7290   33.1910   48.0730 C   0  0  0  0  0  0  0  0  0  0  0  0
   58.5530   33.8270   47.6310 C   0  0  0  0  0  0  0  0  0  0  0  0
   58.5080   34.4660   46.3920 C   0  0  0  0  0  0  0  0  0  0  0  0
   59.6330   34.4790   45.5730 C   0  0  0  0  0  0  0  0  0  0  0  0
   60.8080   33.8550   45.9900 C   0  0  0  0  0  0  0  0  0  0  0  0
   60.8800   33.2110   47.2390 C   0  0  0  0  0  0  0  0  0  0  0  0
   62.4050   32.4130   47.6720 S   0  0  0  0  0  0  0  0  0  0  0  0
   63.7650   33.2410   46.8750 C   0  0  0  0  0  0  0  0  0  0  0  0
   62.3770   30.9640   47.2740 O   0  0  0  0  0  0  0  0  0  0  0  0
   62.6150   32.4840   49.1580 O   0  0  0  0  0  0  0  0  0  0  0  0
   58.1980   30.9950   47.0210 N   0  0  0  0  0  0  0  0  0  0  0  0
   57.9920   30.2420   45.9260 C   0  0  0  0  0  0  0  0  0  0  0  0
   57.2000   30.5570   44.8710 N   0  0  0  0  0  0  0  0  0  0  0  0
   57.1180   29.6890   43.8160 C   0  0  0  0  0  0  0  0  0  0  0  0
   56.2620   30.0300   42.6400 C   0  0  0  0  0  0  0  0  0  0  0  0
   57.8710   28.4860   43.8240 C   0  0  0  0  0  0  0  0  0  0  0  0
   58.6910   28.1780   44.9240 C   0  0  0  0  0  0  0  0  0  0  0  0
   58.7180   29.0940   45.9720 C   0  0  0  0  0  0  0  0  0  0  0  0
   59.6020   26.6030   48.9504 H   0  0  0  0  0  0  0  0  0  0  0  0
   58.6681   26.7597   47.4239 H   0  0  0  0  0  0  0  0  0  0  0  0
   60.2541   25.9163   47.4239 H   0  0  0  0  0  0  0  0  0  0  0  0
   60.8774   28.4212   48.4813 H   0  0  0  0  0  0  0  0  0  0  0  0
   61.1207   27.9050   46.7713 H   0  0  0  0  0  0  0  0  0  0  0  0
   61.8330   30.5060   48.8230 H   0  0  0  0  0  0  0  0  0  0  0  0
   58.7723   32.8328   49.9553 H   0  0  0  0  0  0  0  0  0  0  0  0
   60.5732   32.8645   50.0103 H   0  0  0  0  0  0  0  0  0  0  0  0
   57.6584   33.8198   48.2710 H   0  0  0  0  0  0  0  0  0  0  0  0
   57.5823   34.9602   46.0619 H   0  0  0  0  0  0  0  0  0  0  0  0
   59.5952   34.9821   44.5955 H   0  0  0  0  0  0  0  0  0  0  0  0
   61.6907   33.8663   45.3337 H   0  0  0  0  0  0  0  0  0  0  0  0
   64.4416   33.6529   47.6383 H   0  0  0  0  0  0  0  0  0  0  0  0
   64.3139   32.5237   46.2472 H   0  0  0  0  0  0  0  0  0  0  0  0
   63.3797   34.0580   46.2472 H   0  0  0  0  0  0  0  0  0  0  0  0
   55.2935   30.4158   42.9910 H   0  0  0  0  0  0  0  0  0  0  0  0
   56.7635   30.7970   42.0316 H   0  0  0  0  0  0  0  0  0  0  0  0
   56.0987   29.1283   42.0316 H   0  0  0  0  0  0  0  0  0  0  0  0
   57.8132   27.7949   42.9702 H   0  0  0  0  0  0  0  0  0  0  0  0
   59.2856   27.2531   44.9551 H   0  0  0  0  0  0  0  0  0  0  0  0
  1  2  1  0
  2  3  1  0
  3  4  1  0
  4  5  1  0
  5  6  1  6
  5  7  1  0
  7  8  1  0
  8  9  2  0
  9 10  1  0
 10 11  2  0
 11 12  1  0
 12 13  2  0
 13 14  1  0
 14 15  1  0
 14 16  2  0
 14 17  2  0
  4 18  2  0
 18 19  1  0
 19 20  2  0
 20 21  1  0
 21 22  1  0
 21 23  2  0
 23 24  1  0
 24 25  2  0
 25  3  1  0
 13  8  1  0
 25 19  1  0
  1 26  1  0
  1 27  1  0
  1 28  1  0
  2 29  1  0
  2 30  1  0
  6 31  1  0
  7 32  1  0
  7 33  1  0
  9 34  1  0
 10 35  1  0
 11 36  1  0
 12 37  1  0
 15 38  1  0
 15 39  1  0
 15 40  1  0
 22 41  1  0
 22 42  1  0
 22 43  1  0
 23 44  1  0
 24 45  1  0
M  CHG  1   5   1
M  END
>  <UniqueID>  (22) 
22

>  <SMILES>  (22) 
CCn1c([S@@+](O)Cc2ccccc2S(C)(=O)=O)nc2nc(C)ccc21

>  <Energy>  (22) 
77.9307557989966

>  <Genealogy>  (22) 
CCn1c([S+](O)Cc2ccccc2S(C)(=O)=O)nc2nc(C)ccc21 (protonated)
CCn1c([S@@+](O)Cc2ccccc2S(C)(=O)=O)nc2nc(C)ccc21 (chirality)
CCn1c([S@@+](O)Cc2ccccc2S(C)(=O)=O)nc2nc(C)ccc21 (3D coordinates assigned)
CCn1c([S@@+](O)Cc2ccccc2S(C)(=O)=O)nc2nc(C)ccc21 (optimized conformer: 77.9307557989966 kcal/mol)

>  <smiles>  (22) 
CCn1c([S+]([O-])Cc2ccccc2S(C)(=O)=O)nc2nc(C)ccc21

>  <score_type>  (22) 
oracle

>  <origin>  (22) 
adg

>  <m_score__min__energy>  (22) 
-8.3000000000000007

>  <m_primary>  (22) 
energy

$$$$
22:0
     RDKit          3D

 52 55  0  0  0  0  0  0  0  0999 V2000
   67.9450   33.4750   50.4910 C   0  0  0  0  0  0  0  0  0  0  0  0
   66.7940   32.7840   51.2110 C   0  0  0  0  0  0  0  0  0  0  0  0
   65.6540   32.6240   50.2990 N   0  0  0  0  0  0  0  0  0  0  0  0
   64.4030   33.0760   50.9230 C   0  0  0  0  0  0  0  0  0  0  0  0
   63.9440   32.0700   51.9870 C   0  0  0  0  0  0  0  0  0  0  0  0
   64.1710   30.6530   51.5330 C   0  0  0  0  0  0  0  0  0  0  0  0
   65.3160   30.1450   51.6670 O   0  0  0  0  0  0  0  0  0  0  0  0
   63.1580   29.8990   50.8530 N   0  0  0  0  0  0  0  0  0  0  0  0
   62.2750   30.3800   49.8300 C   0  0  0  0  0  0  0  0  0  0  0  0
   62.7240   31.2450   48.8190 C   0  0  0  0  0  0  0  0  0  0  0  0
   61.8370   31.7110   47.8450 C   0  0  0  0  0  0  0  0  0  0  0  0
   60.4860   31.3330   47.8750 C   0  0  0  0  0  0  0  0  0  0  0  0
   59.5470   31.8250   46.8380 C   0  0  0  0  0  0  0  0  0  0  0  0
   59.6730   33.1330   46.3590 C   0  0  0  0  0  0  0  0  0  0  0  0
   58.7910   33.6140   45.3990 C   0  0  0  0  0  0  0  0  0  0  0  0
   57.7830   32.7840   44.9110 C   0  0  0  0  0  0  0  0  0  0  0  0
   57.6550   31.4940   45.3590 N   0  0  0  0  0  0  0  0  0  0  0  0
   56.6650   30.6800   44.8650 C   0  0  0  0  0  0  0  0  0  0  0  0
   55.8440   31.1080   44.0060 O   0  0  0  0  0  0  0  0  0  0  0  0
   56.5480   29.3580   45.3070 C   0  0  0  0  0  0  0  0  0  0  0  0
   55.5200   28.5520   44.8280 O   0  0  0  0  0  0  0  0  0  0  0  0
   57.4660   28.8750   46.2500 C   0  0  0  0  0  0  0  0  0  0  0  0
   57.4240   27.4790   46.7460 C   0  0  0  0  0  0  0  0  0  0  0  0
   56.3310   26.6450   46.4600 C   0  0  0  0  0  0  0  0  0  0  0  0
   56.3210   25.3580   46.8930 N   0  0  0  0  0  0  0  0  0  0  0  0
   57.3600   24.8510   47.6030 C   0  0  0  0  0  0  0  0  0  0  0  0
   57.3290   23.6570   47.9970 O   0  0  0  0  0  0  0  0  0  0  0  0
   58.4350   25.6310   47.8850 N   0  0  0  0  0  0  0  0  0  0  0  0
   58.4940   26.9230   47.4730 C   0  0  0  0  0  0  0  0  0  0  0  0
   59.5070   27.6150   47.7610 O   0  0  0  0  0  0  0  0  0  0  0  0
   58.4180   29.7140   46.7270 N   0  0  0  0  0  0  0  0  0  0  0  0
   58.5250   31.0040   46.3110 C   0  0  0  0  0  0  0  0  0  0  0  0
   60.0310   30.5030   48.9140 C   0  0  0  0  0  0  0  0  0  0  0  0
   60.9190   30.0370   49.8870 C   0  0  0  0  0  0  0  0  0  0  0  0
   68.6423   33.8936   51.2317 H   0  0  0  0  0  0  0  0  0  0  0  0
   68.4742   32.7451   49.8607 H   0  0  0  0  0  0  0  0  0  0  0  0
   67.5496   34.2852   49.8607 H   0  0  0  0  0  0  0  0  0  0  0  0
   67.1239   31.7939   51.5587 H   0  0  0  0  0  0  0  0  0  0  0  0
   66.4854   33.3977   52.0701 H   0  0  0  0  0  0  0  0  0  0  0  0
   65.5570   31.6010   50.0930 H   0  0  0  0  0  0  0  0  0  0  0  0
   64.5669   34.0553   51.3964 H   0  0  0  0  0  0  0  0  0  0  0  0
   63.6260   33.1568   50.1486 H   0  0  0  0  0  0  0  0  0  0  0  0
   64.5106   32.2447   52.9135 H   0  0  0  0  0  0  0  0  0  0  0  0
   62.8666   32.2119   52.1575 H   0  0  0  0  0  0  0  0  0  0  0  0
   63.7785   31.5571   48.7937 H   0  0  0  0  0  0  0  0  0  0  0  0
   62.2002   32.3785   47.0496 H   0  0  0  0  0  0  0  0  0  0  0  0
   60.4728   33.7830   46.7434 H   0  0  0  0  0  0  0  0  0  0  0  0
   58.8877   34.6443   45.0261 H   0  0  0  0  0  0  0  0  0  0  0  0
   57.0809   33.1687   44.1566 H   0  0  0  0  0  0  0  0  0  0  0  0
   55.4798   27.0357   45.8831 H   0  0  0  0  0  0  0  0  0  0  0  0
   58.9695   30.2186   48.9615 H   0  0  0  0  0  0  0  0  0  0  0  0
   60.5505   29.3971   50.7023 H   0  0  0  0  0  0  0  0  0  0  0  0
  1  2  1  0
  2  3  1  0
  3  4  1  0
  4  5  1  0
  5  6  1  0
  6  7  2  0
  6  8  1  0
  8  9  1  0
  9 10  2  0
 10 11  1  0
 11 12  2  0
 12 13  1  0
 13 14  2  0
 14 15  1  0
 15 16  2  0
 16 17  1  0
 17 18  1  0
 18 19  2  0
 18 20  1  0
 20 21  1  0
 20 22  2  0
 22 23  1  0
 23 24  2  0
 24 25  1  0
 25 26  1  0
 26 27  2  0
 26 28  1  0
 28 29  1  0
 29 30  2  0
 22 31  1  0
 31 32  2  0
 12 33  1  0
 33 34  2  0
 34  9  1  0
 32 13  1  0
 32 17  1  0
 29 23  1  0
  1 35  1  0
  1 36  1  0
  1 37  1  0
  2 38  1  0
  2 39  1  0
  3 40  1  0
  4 41  1  0
  4 42  1  0
  5 43  1  0
  5 44  1  0
 10 45  1  0
 11 46  1  0
 14 47  1  0
 15 48  1  0
 16 49  1  0
 24 50  1  0
 33 51  1  0
 34 52  1  0
M  CHG  4   8  -1  21  -1  25  -1  28  -1
M  END
>  <UniqueID>  (23) 
23

>  <SMILES>  (23) 
CCNCCC(=O)[N-]c1ccc(-c2cccn3c(=O)c([O-])c(-c4c[n-]c(=O)[n-]c4=O)nc23)cc1

>  <Energy>  (23) 
75.712694925998

>  <Genealogy>  (23) 
CCNCCC(=O)[N-]c1ccc(-c2cccn3c(=O)c([O-])c(-c4c[n-]c(=O)[n-]c4=O)nc23)cc1 (protonated)
CCNCCC(=O)[N-]c1ccc(-c2cccn3c(=O)c([O-])c(-c4c[n-]c(=O)[n-]c4=O)nc23)cc1 (3D coordinates assigned)
CCNCCC(=O)[N-]c1ccc(-c2cccn3c(=O)c([O-])c(-c4c[n-]c(=O)[n-]c4=O)nc23)cc1 (optimized conformer: 75.712694925998 kcal/mol)

>  <smiles>  (23) 
CCNCCC(=O)Nc1ccc(-c2cccn3c(=O)c(O)c(-c4c[nH]c(=O)[nH]c4=O)nc23)cc1

>  <score_type>  (23) 
oracle

>  <origin>  (23) 
adg

>  <m_score__min__energy>  (23) 
-15.050000000000001

>  <m_primary>  (23) 
energy

$$$$
23:0
     RDKit          3D

 49 52  0  0  0  0  0  0  0  0999 V2000
   58.4948   30.0479   43.6935 H   0  0  0  0  0  0  0  0  0  0  0  0
   58.5970   29.7380   44.7440 C   0  0  0  0  0  0  0  0  0  0  0  0
   58.1510   28.5220   45.0800 C   0  0  0  0  0  0  0  0  0  0  0  0
   58.9990   27.4170   45.2070 O   0  0  0  0  0  0  0  0  0  0  0  0
   58.2100   26.3240   45.5570 C   0  0  0  0  0  0  0  0  0  0  0  0
   58.6430   25.0220   45.7900 C   0  0  0  0  0  0  0  0  0  0  0  0
   59.7088   24.7609   45.7130 H   0  0  0  0  0  0  0  0  0  0  0  0
   57.6780   24.0400   46.1290 C   0  0  0  0  0  0  0  0  0  0  0  0
   58.0270   22.7050   46.3800 O   0  0  0  0  0  0  0  0  0  0  0  0
   58.1470   21.7040   45.3740 C   0  0  0  0  0  0  0  0  0  0  0  0
   58.2651   20.7190   45.8491 H   0  0  0  0  0  0  0  0  0  0  0  0
   57.2425   21.7031   44.7479 H   0  0  0  0  0  0  0  0  0  0  0  0
   59.0261   21.9169   44.7479 H   0  0  0  0  0  0  0  0  0  0  0  0
   56.3160   24.4050   46.2220 C   0  0  0  0  0  0  0  0  0  0  0  0
   55.5676   23.6434   46.4862 H   0  0  0  0  0  0  0  0  0  0  0  0
   55.9040   25.7260   45.9820 C   0  0  0  0  0  0  0  0  0  0  0  0
   54.8435   26.0103   46.0489 H   0  0  0  0  0  0  0  0  0  0  0  0
   56.8790   26.6640   45.6570 C   0  0  0  0  0  0  0  0  0  0  0  0
   56.7750   28.0760   45.3440 C   0  0  0  0  0  0  0  0  0  0  0  0
   55.7080   28.7330   45.2160 O   0  0  0  0  0  0  0  0  0  0  0  0
   59.2160   30.6920   45.6830 C   0  0  0  0  0  0  0  0  0  0  0  0
   60.3090   30.4700   46.5180 C   0  0  0  0  0  0  0  0  0  0  0  0
   60.8055   29.4987   46.6597 H   0  0  0  0  0  0  0  0  0  0  0  0
   60.6720   31.6220   47.1300 N   0  0  0  0  0  0  0  0  0  0  0  0
   61.8230   31.7930   48.0180 C   0  0  0  0  0  0  0  0  0  0  0  0
   61.7722   31.0491   48.8267 H   0  0  0  0  0  0  0  0  0  0  0  0
   61.8034   32.8081   48.4413 H   0  0  0  0  0  0  0  0  0  0  0  0
   63.1300   31.6010   47.2320 C   0  0  0  0  0  0  0  0  0  0  0  0
   62.8960   31.1334   46.2642 H   0  0  0  0  0  0  0  0  0  0  0  0
   63.7956   30.9644   47.8335 H   0  0  0  0  0  0  0  0  0  0  0  0
   63.8240   32.8770   46.9870 N   0  0  0  0  0  0  0  0  0  0  0  0
   64.8240   32.6900   46.7350 H   0  0  0  0  0  0  0  0  0  0  0  0
   63.7810   33.7770   48.1500 C   0  0  0  0  0  0  0  0  0  0  0  0
   62.7328   33.9601   48.4289 H   0  0  0  0  0  0  0  0  0  0  0  0
   64.2715   34.7259   47.8872 H   0  0  0  0  0  0  0  0  0  0  0  0
   64.5140   33.1490   49.3310 C   0  0  0  0  0  0  0  0  0  0  0  0
   64.0804   33.5205   50.2712 H   0  0  0  0  0  0  0  0  0  0  0  0
   64.4108   32.0547   49.2868 H   0  0  0  0  0  0  0  0  0  0  0  0
   65.5795   33.4189   49.2868 H   0  0  0  0  0  0  0  0  0  0  0  0
   59.8470   32.5800   46.6590 C   0  0  0  0  0  0  0  0  0  0  0  0
   59.8610   33.9490   46.9470 C   0  0  0  0  0  0  0  0  0  0  0  0
   60.5882   34.3723   47.6556 H   0  0  0  0  0  0  0  0  0  0  0  0
   58.9160   34.7670   46.3020 C   0  0  0  0  0  0  0  0  0  0  0  0
   58.8954   35.8466   46.5116 H   0  0  0  0  0  0  0  0  0  0  0  0
   57.9930   34.2130   45.3870 C   0  0  0  0  0  0  0  0  0  0  0  0
   57.2583   34.8635   44.8900 H   0  0  0  0  0  0  0  0  0  0  0  0
   58.0080   32.8350   45.1080 C   0  0  0  0  0  0  0  0  0  0  0  0
   57.2982   32.3935   44.3930 H   0  0  0  0  0  0  0  0  0  0  0  0
   58.9510   32.0450   45.7660 C   0  0  0  0  0  0  0  0  0  0  0  0
  1  2  1  0
  2  3  2  0
  3  4  1  0
  4  5  1  0
  5  6  2  0
  6  7  1  0
  6  8  1  0
  8  9  1  0
  9 10  1  0
 10 11  1  0
 10 12  1  0
 10 13  1  0
  8 14  2  0
 14 15  1  0
 14 16  1  0
 16 17  1  0
 16 18  2  0
 18 19  1  0
 19 20  2  0
  2 21  1  0
 21 22  2  0
 22 23  1  0
 22 24  1  0
 24 25  1  0
 25 26  1  0
 25 27  1  0
 25 28  1  0
 28 29  1  0
 28 30  1  0
 28 31  1  0
 31 32  1  0
 31 33  1  0
 33 34  1  0
 33 35  1  0
 33 36  1  0
 36 37  1  0
 36 38  1  0
 36 39  1  0
 24 40  1  0
 40 41  2  0
 41 42  1  0
 41 43  1  0
 43 44  1  0
 43 45  2  0
 45 46  1  0
 45 47  1  0
 47 48  1  0
 47 49  2  0
 19  3  1  0
 49 21  1  0
 18  5  1  0
 49 40  1  0
M  END
>  <UniqueID>  (24) 
24

>  <SMILES>  (24) 
CCNCCn1cc(/C=C2/Oc3cc(OC)ccc3C2=O)c2ccccc21

>  <Energy>  (24) 
118.89238239820591

>  <Genealogy>  (24) 
CCNCCn1cc(/C=C2/Oc3cc(OC)ccc3C2=O)c2ccccc21 (cis-trans isomerization)
CCNCCn1cc(/C=C2/Oc3cc(OC)ccc3C2=O)c2ccccc21 (3D coordinates assigned)
CCNCCn1cc(/C=C2/Oc3cc(OC)ccc3C2=O)c2ccccc21 (nonaromatic ring conformer: 118.89238239820591 kcal/mol)

>  <smiles>  (24) 
CCNCCn1cc(C=C2Oc3cc(OC)ccc3C2=O)c2ccccc21

>  <score_type>  (24) 
oracle

>  <origin>  (24) 
adg

>  <m_score__min__energy>  (24) 
-8.0500000000000007

>  <m_primary>  (24) 
energy

$$$$
24:0
     RDKit          3D

 55 56  0  0  0  0  0  0  0  0999 V2000
   57.9240   31.9600   50.7270 C   0  0  0  0  0  0  0  0  0  0  0  0
   58.3890   32.3280   49.3190 C   0  0  0  0  0  0  0  0  0  0  0  0
   59.8450   32.1030   49.1630 N   0  0  0  0  0  0  0  0  0  0  0  0
   60.2850   30.9980   50.0490 C   0  0  0  0  0  0  0  0  0  0  0  0
   61.7760   31.0900   50.3720 C   0  0  0  0  0  0  0  0  0  0  0  0
   60.6210   33.3510   49.4050 C   0  0  0  0  0  0  0  0  0  0  0  0
   60.3730   34.3550   48.2760 C   0  0  0  0  0  0  0  0  0  0  0  0
   60.2830   33.6560   46.9870 N   0  0  0  0  0  0  0  0  0  0  0  0
   59.6380   34.4900   45.9620 C   0  0  0  0  0  0  0  0  0  0  0  0
   58.1160   34.3040   46.0160 C   0  0  0  0  0  0  0  0  0  0  0  0
   57.6120   33.2570   45.0100 C   0  0  0  0  0  0  0  0  0  0  0  0
   58.5300   32.1090   44.9000 N   0  0  0  0  0  0  0  0  0  0  0  0
   57.8090   30.8630   45.0550 C   0  0  0  0  0  0  0  0  0  0  0  0
   56.6080   30.7090   44.3360 C   0  0  0  0  0  0  0  0  0  0  0  0
   55.8480   29.5520   44.4640 C   0  0  0  0  0  0  0  0  0  0  0  0
   54.7700   29.4290   43.8270 O   0  0  0  0  0  0  0  0  0  0  0  0
   56.2660   28.5560   45.2770 N   0  0  0  0  0  0  0  0  0  0  0  0
   57.4260   28.6300   45.9780 C   0  0  0  0  0  0  0  0  0  0  0  0
   57.7810   27.5500   46.7870 C   0  0  0  0  0  0  0  0  0  0  0  0
   58.9650   27.5730   47.5110 C   0  0  0  0  0  0  0  0  0  0  0  0
   59.8160   28.6700   47.4230 C   0  0  0  0  0  0  0  0  0  0  0  0
   59.4940   29.7780   46.6120 C   0  0  0  0  0  0  0  0  0  0  0  0
   60.3900   30.8560   46.5130 O   0  0  0  0  0  0  0  0  0  0  0  0
   61.7110   30.8810   47.0460 C   0  0  0  0  0  0  0  0  0  0  0  0
   58.2620   29.7830   45.8840 C   0  0  0  0  0  0  0  0  0  0  0  0
   58.5619   32.4648   51.4675 H   0  0  0  0  0  0  0  0  0  0  0  0
   56.8803   32.2794   50.8637 H   0  0  0  0  0  0  0  0  0  0  0  0
   57.9950   30.8708   50.8637 H   0  0  0  0  0  0  0  0  0  0  0  0
   57.8492   31.7075   48.5886 H   0  0  0  0  0  0  0  0  0  0  0  0
   58.1798   33.3945   49.1493 H   0  0  0  0  0  0  0  0  0  0  0  0
   59.7136   31.0451   50.9878 H   0  0  0  0  0  0  0  0  0  0  0  0
   60.1063   30.0474   49.5251 H   0  0  0  0  0  0  0  0  0  0  0  0
   61.9149   31.0986   51.4632 H   0  0  0  0  0  0  0  0  0  0  0  0
   62.2984   30.2224   49.9427 H   0  0  0  0  0  0  0  0  0  0  0  0
   62.1878   32.0153   49.9427 H   0  0  0  0  0  0  0  0  0  0  0  0
   60.3068   33.7946   50.3613 H   0  0  0  0  0  0  0  0  0  0  0  0
   61.6929   33.1063   49.4388 H   0  0  0  0  0  0  0  0  0  0  0  0
   59.4309   34.8901   48.4659 H   0  0  0  0  0  0  0  0  0  0  0  0
   61.2092   35.0688   48.2399 H   0  0  0  0  0  0  0  0  0  0  0  0
   59.6890   32.8040   47.1300 H   0  0  0  0  0  0  0  0  0  0  0  0
   59.8826   35.5467   46.1452 H   0  0  0  0  0  0  0  0  0  0  0  0
   60.0036   34.1893   44.9691 H   0  0  0  0  0  0  0  0  0  0  0  0
   57.8363   33.9816   47.0298 H   0  0  0  0  0  0  0  0  0  0  0  0
   57.6534   35.2670   45.7542 H   0  0  0  0  0  0  0  0  0  0  0  0
   56.6272   32.8938   45.3391 H   0  0  0  0  0  0  0  0  0  0  0  0
   57.5497   33.7376   44.0225 H   0  0  0  0  0  0  0  0  0  0  0  0
   59.0850   32.1140   44.0160 H   0  0  0  0  0  0  0  0  0  0  0  0
   59.2450   32.1900   45.6610 H   0  0  0  0  0  0  0  0  0  0  0  0
   56.2677   31.5125   43.6662 H   0  0  0  0  0  0  0  0  0  0  0  0
   57.1181   26.6745   46.8514 H   0  0  0  0  0  0  0  0  0  0  0  0
   59.2309   26.7222   48.1556 H   0  0  0  0  0  0  0  0  0  0  0  0
   60.7554   28.6733   47.9953 H   0  0  0  0  0  0  0  0  0  0  0  0
   61.6631   30.8801   48.1450 H   0  0  0  0  0  0  0  0  0  0  0  0
   62.2619   29.9931   46.7023 H   0  0  0  0  0  0  0  0  0  0  0  0
   62.2279   31.7891   46.7023 H   0  0  0  0  0  0  0  0  0  0  0  0
  1  2  1  0
  2  3  1  0
  3  4  1  0
  4  5  1  0
  3  6  1  0
  6  7  1  0
  7  8  1  0
  8  9  1  0
  9 10  1  0
 10 11  1  0
 11 12  1  0
 12 13  1  0
 13 14  2  0
 14 15  1  0
 15 16  2  0
 15 17  1  0
 17 18  1  0
 18 19  2  0
 19 20  1  0
 20 21  2  0
 21 22  1  0
 22 23  1  0
 23 24  1  0
 22 25  2  0
 25 13  1  0
 25 18  1  0
  1 26  1  0
  1 27  1  0
  1 28  1  0
  2 29  1  0
  2 30  1  0
  4 31  1  0
  4 32  1  0
  5 33  1  0
  5 34  1  0
  5 35  1  0
  6 36  1  0
  6 37  1  0
  7 38  1  0
  7 39  1  0
  8 40  1  0
  9 41  1  0
  9 42  1  0
 10 43  1  0
 10 44  1  0
 11 45  1  0
 11 46  1  0
 12 47  1  0
 12 48  1  0
 14 49  1  0
 19 50  1  0
 20 51  1  0
 21 52  1  0
 24 53  1  0
 24 54  1  0
 24 55  1  0
M  CHG  2  12   1  17  -1
M  END
>  <UniqueID>  (25) 
25

>  <SMILES>  (25) 
CCN(CC)CCNCCC[NH2+]c1cc(=O)[n-]c2cccc(OC)c12

>  <Energy>  (25) 
59.3996704182604

>  <Genealogy>  (25) 
CCN(CC)CCNCCC[NH2+]c1cc(=O)[n-]c2cccc(OC)c12 (protonated)
CCN(CC)CCNCCC[NH2+]c1cc(=O)[n-]c2cccc(OC)c12 (3D coordinates assigned)
CCN(CC)CCNCCC[NH2+]c1cc(=O)[n-]c2cccc(OC)c12 (optimized conformer: 59.3996704182604 kcal/mol)

>  <smiles>  (25) 
CCN(CC)CCNCCCNc1cc(=O)[nH]c2cccc(OC)c12

>  <score_type>  (25) 
oracle

>  <origin>  (25) 
adg

>  <m_score__min__energy>  (25) 
-5.8300000000000001

>  <m_primary>  (25) 
energy

$$$$
25:0
     RDKit          3D

 43 45  0  0  0  0  0  0  0  0999 V2000
   58.6630   31.8950   49.5350 C   0  0  0  0  0  0  0  0  0  0  0  0
   59.3800   33.2410   49.5310 C   0  0  0  0  0  0  0  0  0  0  0  0
   59.7730   33.6130   48.1690 N   0  0  0  0  0  0  0  0  0  0  0  0
   61.0180   33.8880   47.6960 C   0  0  0  0  0  0  0  0  0  0  0  0
   62.5110   33.8380   48.6950 S   0  0  0  0  0  0  0  0  0  0  0  0
   62.9680   32.1330   48.2210 C   0  0  0  0  0  0  0  0  0  0  0  0
   61.9200   31.1260   48.7030 C   0  0  0  0  0  0  0  0  0  0  0  0
   61.5870   30.1950   47.6730 O   0  0  0  0  0  0  0  0  0  0  0  0
   60.3230   30.0520   47.0760 C   0  0  0  0  0  0  0  0  0  0  0  0
   59.3870   29.0860   47.4910 C   0  0  0  0  0  0  0  0  0  0  0  0
   58.1440   28.9920   46.8590 C   0  0  0  0  0  0  0  0  0  0  0  0
   57.8130   29.8510   45.8050 C   0  0  0  0  0  0  0  0  0  0  0  0
   56.5520   29.7150   45.2050 O   0  0  0  0  0  0  0  0  0  0  0  0
   56.2930   29.9320   43.8220 C   0  0  0  0  0  0  0  0  0  0  0  0
   58.7500   30.8140   45.3860 C   0  0  0  0  0  0  0  0  0  0  0  0
   59.9930   30.9080   46.0190 C   0  0  0  0  0  0  0  0  0  0  0  0
   61.0420   34.1890   46.3720 N   0  0  0  0  0  0  0  0  0  0  0  0
   59.7450   34.1100   46.0230 C   0  0  0  0  0  0  0  0  0  0  0  0
   59.1920   34.3320   44.7630 C   0  0  0  0  0  0  0  0  0  0  0  0
   57.7980   34.1910   44.6260 C   0  0  0  0  0  0  0  0  0  0  0  0
   57.0020   33.8350   45.7390 C   0  0  0  0  0  0  0  0  0  0  0  0
   57.5920   33.6160   46.9980 C   0  0  0  0  0  0  0  0  0  0  0  0
   58.9770   33.7660   47.0970 C   0  0  0  0  0  0  0  0  0  0  0  0
   58.4919   31.5738   50.5730 H   0  0  0  0  0  0  0  0  0  0  0  0
   57.6973   31.9924   49.0174 H   0  0  0  0  0  0  0  0  0  0  0  0
   59.2827   31.1479   49.0174 H   0  0  0  0  0  0  0  0  0  0  0  0
   58.7062   34.0106   49.9356 H   0  0  0  0  0  0  0  0  0  0  0  0
   60.2847   33.1623   50.1517 H   0  0  0  0  0  0  0  0  0  0  0  0
   63.0458   32.0736   47.1254 H   0  0  0  0  0  0  0  0  0  0  0  0
   63.9312   31.8863   48.6915 H   0  0  0  0  0  0  0  0  0  0  0  0
   62.3211   30.5766   49.5674 H   0  0  0  0  0  0  0  0  0  0  0  0
   61.0098   31.6770   48.9823 H   0  0  0  0  0  0  0  0  0  0  0  0
   59.6349   28.4022   48.3162 H   0  0  0  0  0  0  0  0  0  0  0  0
   57.4188   28.2355   47.1933 H   0  0  0  0  0  0  0  0  0  0  0  0
   55.4541   30.6349   43.7120 H   0  0  0  0  0  0  0  0  0  0  0  0
   57.1892   30.3528   43.3427 H   0  0  0  0  0  0  0  0  0  0  0  0
   56.0356   28.9759   43.3427 H   0  0  0  0  0  0  0  0  0  0  0  0
   58.5036   31.4948   44.5579 H   0  0  0  0  0  0  0  0  0  0  0  0
   60.7193   31.6627   45.6828 H   0  0  0  0  0  0  0  0  0  0  0  0
   59.8230   34.6079   43.9053 H   0  0  0  0  0  0  0  0  0  0  0  0
   57.3252   34.3588   43.6471 H   0  0  0  0  0  0  0  0  0  0  0  0
   55.9137   33.7284   45.6201 H   0  0  0  0  0  0  0  0  0  0  0  0
   56.9847   33.3370   47.8717 H   0  0  0  0  0  0  0  0  0  0  0  0
  1  2  1  0
  2  3  1  0
  3  4  1  0
  4  5  1  0
  5  6  1  0
  6  7  1  0
  7  8  1  0
  8  9  1  0
  9 10  2  0
 10 11  1  0
 11 12  2  0
 12 13  1  0
 13 14  1  0
 12 15  1  0
 15 16  2  0
  4 17  2  0
 17 18  1  0
 18 19  2  0
 19 20  1  0
 20 21  2  0
 21 22  1  0
 22 23  2  0
 23  3  1  0
 16  9  1  0
 23 18  1  0
  1 24  1  0
  1 25  1  0
  1 26  1  0
  2 27  1  0
  2 28  1  0
  6 29  1  0
  6 30  1  0
  7 31  1  0
  7 32  1  0
 10 33  1  0
 11 34  1  0
 14 35  1  0
 14 36  1  0
 14 37  1  0
 15 38  1  0
 16 39  1  0
 19 40  1  0
 20 41  1  0
 21 42  1  0
 22 43  1  0
M  END
>  <UniqueID>  (26) 
26

>  <SMILES>  (26) 
CCn1c(SCCOc2ccc(OC)cc2)nc2ccccc21

>  <Energy>  (26) 
74.1178927956433

>  <Genealogy>  (26) 
CCn1c(SCCOc2ccc(OC)cc2)nc2ccccc21 (3D coordinates assigned)
CCn1c(SCCOc2ccc(OC)cc2)nc2ccccc21 (optimized conformer: 74.1178927956433 kcal/mol)

>  <smiles>  (26) 
CCn1c(SCCOc2ccc(OC)cc2)nc2ccccc21

>  <score_type>  (26) 
oracle

>  <origin>  (26) 
adg

>  <m_score__min__energy>  (26) 
-7

>  <m_primary>  (26) 
energy

$$$$
26:0
     RDKit          3D

 68 71  0  0  0  0  0  0  0  0999 V2000
   69.1988   35.4793   50.6937 H   0  0  0  0  0  0  0  0  0  0  0  0
   68.3800   34.7870   50.9390 C   0  0  0  0  0  0  0  0  0  0  0  0
   67.4450   35.1310   51.9180 C   0  0  0  0  0  0  0  0  0  0  0  0
   67.5275   36.0950   52.4414 H   0  0  0  0  0  0  0  0  0  0  0  0
   66.4040   34.2520   52.2340 C   0  0  0  0  0  0  0  0  0  0  0  0
   65.6695   34.5262   53.0056 H   0  0  0  0  0  0  0  0  0  0  0  0
   66.2940   33.0190   51.5680 C   0  0  0  0  0  0  0  0  0  0  0  0
   65.1710   32.0650   51.8960 C   0  0  0  0  0  0  0  0  0  0  0  0
   64.8024   32.2789   52.9101 H   0  0  0  0  0  0  0  0  0  0  0  0
   65.5565   31.0366   51.8340 H   0  0  0  0  0  0  0  0  0  0  0  0
   64.0500   32.2080   50.9320 N   0  0  0  0  0  0  0  0  0  0  0  0
   64.4380   31.6290   49.6090 C   0  0  0  0  0  0  0  0  0  0  0  0
   64.0706   30.5930   49.5671 H   0  0  0  0  0  0  0  0  0  0  0  0
   65.5338   31.7016   49.5467 H   0  0  0  0  0  0  0  0  0  0  0  0
   63.8830   32.3830   48.3930 C   0  0  0  0  0  0  0  0  0  0  0  0
   63.8543   31.7060   47.5265 H   0  0  0  0  0  0  0  0  0  0  0  0
   64.5333   33.2425   48.1731 H   0  0  0  0  0  0  0  0  0  0  0  0
   62.5330   32.8630   48.6770 N   0  0  0  0  0  0  0  0  0  0  0  0
   61.4260   32.5200   47.8240 C   0  0  0  0  0  0  0  0  0  0  0  0
   61.1650   31.1830   47.5100 C   0  0  0  0  0  0  0  0  0  0  0  0
   61.8279   30.3936   47.8941 H   0  0  0  0  0  0  0  0  0  0  0  0
   60.0730   30.8410   46.7150 C   0  0  0  0  0  0  0  0  0  0  0  0
   59.8590   29.5330   46.4270 F   0  0  0  0  0  0  0  0  0  0  0  0
   59.2150   31.8370   46.2070 C   0  0  0  0  0  0  0  0  0  0  0  0
   59.4710   33.2030   46.5110 C   0  0  0  0  0  0  0  0  0  0  0  0
   60.5710   33.5160   47.3330 C   0  0  0  0  0  0  0  0  0  0  0  0
   60.7635   34.5667   47.5957 H   0  0  0  0  0  0  0  0  0  0  0  0
   58.5650   34.3640   46.1180 C   0  0  0  0  0  0  0  0  0  0  0  0
   57.7891   34.4481   46.8931 H   0  0  0  0  0  0  0  0  0  0  0  0
   59.2481   35.2211   46.0243 H   0  0  0  0  0  0  0  0  0  0  0  0
   57.8450   34.3020   44.7570 C   0  0  0  0  0  0  0  0  0  0  0  0
   56.8087   33.9736   44.9252 H   0  0  0  0  0  0  0  0  0  0  0  0
   57.8954   35.3087   44.3165 H   0  0  0  0  0  0  0  0  0  0  0  0
   58.5070   33.3360   43.7600 C   0  0  0  0  0  0  0  0  0  0  0  0
   58.2962   33.6762   42.7354 H   0  0  0  0  0  0  0  0  0  0  0  0
   59.5909   33.3270   43.9475 H   0  0  0  0  0  0  0  0  0  0  0  0
   57.9690   31.9120   43.9360 C   0  0  0  0  0  0  0  0  0  0  0  0
   56.9091   31.8981   43.6420 H   0  0  0  0  0  0  0  0  0  0  0  0
   58.5771   31.2482   43.3039 H   0  0  0  0  0  0  0  0  0  0  0  0
   58.0820   31.4130   45.3610 C   0  0  0  0  0  0  0  0  0  0  0  0
   57.2800   30.4960   45.8140 N   0  0  0  0  0  0  0  0  0  0  0  0
   56.5500   29.6700   44.9880 O   0  0  0  0  0  0  0  0  0  0  0  0
   57.1850   28.6130   44.2880 C   0  0  0  0  0  0  0  0  0  0  0  0
   57.6129   27.9008   45.0089 H   0  0  0  0  0  0  0  0  0  0  0  0
   56.4475   28.0966   43.6560 H   0  0  0  0  0  0  0  0  0  0  0  0
   57.9873   29.0216   43.6560 H   0  0  0  0  0  0  0  0  0  0  0  0
   62.3040   33.6430   49.8960 C   0  0  0  0  0  0  0  0  0  0  0  0
   61.4386   33.2251   50.4312 H   0  0  0  0  0  0  0  0  0  0  0  0
   62.1171   34.6882   49.6086 H   0  0  0  0  0  0  0  0  0  0  0  0
   63.5390   33.6070   50.8290 C   0  0  1  0  0  0  0  0  0  0  0  0
   64.3693   34.2004   50.4185 H   0  0  0  0  0  0  0  0  0  0  0  0
   63.1680   34.2580   52.1940 C   0  0  0  0  0  0  0  0  0  0  0  0
   62.3823   35.0082   52.0212 H   0  0  0  0  0  0  0  0  0  0  0  0
   64.0859   34.7065   52.6019 H   0  0  0  0  0  0  0  0  0  0  0  0
   62.6750   33.2820   53.1920 N   0  0  0  0  0  0  0  0  0  0  0  0
   62.8960   33.6080   54.1600 H   0  0  0  0  0  0  0  0  0  0  0  0
   63.1450   32.3590   53.0510 H   0  0  0  0  0  0  0  0  0  0  0  0
   61.2160   33.0910   53.1130 C   0  0  0  0  0  0  0  0  0  0  0  0
   60.7733   33.9581   52.6011 H   0  0  0  0  0  0  0  0  0  0  0  0
   60.8344   32.9915   54.1399 H   0  0  0  0  0  0  0  0  0  0  0  0
   60.8350   31.8210   52.3480 C   0  0  0  0  0  0  0  0  0  0  0  0
   60.5948   31.0204   53.0631 H   0  0  0  0  0  0  0  0  0  0  0  0
   59.9579   32.0231   51.7156 H   0  0  0  0  0  0  0  0  0  0  0  0
   61.6785   31.5069   51.7156 H   0  0  0  0  0  0  0  0  0  0  0  0
   67.2390   32.6810   50.5850 C   0  0  0  0  0  0  0  0  0  0  0  0
   67.1625   31.7173   50.0602 H   0  0  0  0  0  0  0  0  0  0  0  0
   68.2760   33.5640   50.2710 C   0  0  0  0  0  0  0  0  0  0  0  0
   69.0108   33.2960   49.4975 H   0  0  0  0  0  0  0  0  0  0  0  0
  1  2  1  0
  2  3  2  0
  3  4  1  0
  3  5  1  0
  5  6  1  0
  5  7  2  0
  7  8  1  0
  8  9  1  0
  8 10  1  0
  8 11  1  0
 11 12  1  0
 12 13  1  0
 12 14  1  0
 12 15  1  0
 15 16  1  0
 15 17  1  0
 15 18  1  0
 18 19  1  0
 19 20  2  0
 20 21  1  0
 20 22  1  0
 22 23  1  0
 22 24  2  0
 24 25  1  0
 25 26  2  0
 26 27  1  0
 25 28  1  0
 28 29  1  0
 28 30  1  0
 28 31  1  0
 31 32  1  0
 31 33  1  0
 31 34  1  0
 34 35  1  0
 34 36  1  0
 34 37  1  0
 37 38  1  0
 37 39  1  0
 37 40  1  0
 40 41  2  0
 41 42  1  0
 42 43  1  0
 43 44  1  0
 43 45  1  0
 43 46  1  0
 18 47  1  0
 47 48  1  0
 47 49  1  0
 47 50  1  0
 50 51  1  6
 50 52  1  0
 52 53  1  0
 52 54  1  0
 52 55  1  0
 55 56  1  0
 55 57  1  0
 55 58  1  0
 58 59  1  0
 58 60  1  0
 58 61  1  0
 61 62  1  0
 61 63  1  0
 61 64  1  0
  7 65  1  0
 65 66  1  0
 65 67  2  0
 67 68  1  0
 67  2  1  0
 50 11  1  0
 26 19  1  0
 40 24  1  0
M  CHG  1  55   1
M  END
>  <UniqueID>  (27) 
27

>  <SMILES>  (27) 
CC[NH2+]C[C@@H]1CN(c2cc(F)c3c(c2)CCCC/C3=N\OC)CCN1Cc1ccccc1

>  <Energy>  (27) 
94.68195283216524

>  <Genealogy>  (27) 
CC[NH2+]CC1CN(c2cc(F)c3c(c2)CCCCC3=NOC)CCN1Cc1ccccc1 (protonated)
CC[NH2+]C[C@@H]1CN(c2cc(F)c3c(c2)CCCCC3=NOC)CCN1Cc1ccccc1 (chirality)
CC[NH2+]C[C@@H]1CN(c2cc(F)c3c(c2)CCCC/C3=N\OC)CCN1Cc1ccccc1 (cis-trans isomerization)
CC[NH2+]C[C@@H]1CN(c2cc(F)c3c(c2)CCCC/C3=N\OC)CCN1Cc1ccccc1 (3D coordinates assigned)
CC[NH2+]C[C@@H]1CN(c2cc(F)c3c(c2)CCCC/C3=N\OC)CCN1Cc1ccccc1 (nonaromatic ring conformer: 94.68195283216524 kcal/mol)

>  <smiles>  (27) 
CCNCC1CN(c2cc(F)c3c(c2)CCCCC3=NOC)CCN1Cc1ccccc1

>  <score_type>  (27) 
oracle

>  <origin>  (27) 
adg

>  <m_score__min__energy>  (27) 
-4.5499999999999998

>  <m_primary>  (27) 
energy

$$$$
27:0
     RDKit          3D

 53 55  0  0  0  0  0  0  0  0999 V2000
   58.9050   29.9890   47.0280 C   0  0  0  0  0  0  0  0  0  0  0  0
   58.7600   30.6960   45.6820 C   0  0  0  0  0  0  0  0  0  0  0  0
   57.3350   30.7590   45.2840 N   0  0  0  0  0  0  0  0  0  0  0  0
   56.8930   29.4840   44.6760 C   0  0  0  0  0  0  0  0  0  0  0  0
   56.2710   29.7360   43.3040 C   0  0  0  0  0  0  0  0  0  0  0  0
   57.0710   31.9120   44.3870 C   0  0  0  0  0  0  0  0  0  0  0  0
   58.1660   32.9640   44.5460 C   0  0  0  0  0  0  0  0  0  0  0  0
   57.9540   33.7200   45.7320 O   0  0  0  0  0  0  0  0  0  0  0  0
   58.9860   34.3660   46.4200 C   0  0  0  0  0  0  0  0  0  0  0  0
   59.3650   35.5120   46.0540 O   0  0  0  0  0  0  0  0  0  0  0  0
   59.6830   33.6530   47.5160 C   0  0  0  0  0  0  0  0  0  0  0  0
   58.9040   33.2190   48.6000 C   0  0  0  0  0  0  0  0  0  0  0  0
   59.4750   32.4690   49.6350 C   0  0  0  0  0  0  0  0  0  0  0  0
   58.6470   31.9830   50.7680 C   0  0  0  0  0  0  0  0  0  0  0  0
   58.1320   30.6740   50.7250 C   0  0  0  0  0  0  0  0  0  0  0  0
   57.3650   30.1730   51.7780 C   0  0  0  0  0  0  0  0  0  0  0  0
   57.1070   30.9680   52.8940 C   0  0  0  0  0  0  0  0  0  0  0  0
   57.6070   32.2690   52.9560 C   0  0  0  0  0  0  0  0  0  0  0  0
   58.3660   32.7980   51.8960 C   0  0  0  0  0  0  0  0  0  0  0  0
   58.8570   34.2180   51.9970 C   0  0  0  0  0  0  0  0  0  0  0  0
   60.7980   32.1660   49.5850 N   0  0  0  0  0  0  0  0  0  0  0  0
   61.6030   32.5860   48.5760 C   0  0  0  0  0  0  0  0  0  0  0  0
   62.9640   32.2600   48.6060 C   0  0  0  0  0  0  0  0  0  0  0  0
   63.8180   32.7180   47.6020 C   0  0  0  0  0  0  0  0  0  0  0  0
   63.3190   33.5150   46.5710 C   0  0  0  0  0  0  0  0  0  0  0  0
   61.9620   33.8450   46.5270 C   0  0  0  0  0  0  0  0  0  0  0  0
   61.0730   33.3630   47.5130 C   0  0  0  0  0  0  0  0  0  0  0  0
   58.7562   30.7146   47.8412 H   0  0  0  0  0  0  0  0  0  0  0  0
   58.1518   29.1911   47.1061 H   0  0  0  0  0  0  0  0  0  0  0  0
   59.9115   29.5520   47.1061 H   0  0  0  0  0  0  0  0  0  0  0  0
   59.1591   31.7178   45.7642 H   0  0  0  0  0  0  0  0  0  0  0  0
   59.3191   30.1325   44.9204 H   0  0  0  0  0  0  0  0  0  0  0  0
   57.7599   28.8162   44.5639 H   0  0  0  0  0  0  0  0  0  0  0  0
   56.1399   29.0192   45.3293 H   0  0  0  0  0  0  0  0  0  0  0  0
   55.2582   30.1463   43.4303 H   0  0  0  0  0  0  0  0  0  0  0  0
   56.8906   30.4540   42.7468 H   0  0  0  0  0  0  0  0  0  0  0  0
   56.2161   28.7892   42.7468 H   0  0  0  0  0  0  0  0  0  0  0  0
   57.0502   31.5637   43.3438 H   0  0  0  0  0  0  0  0  0  0  0  0
   56.1017   32.3593   44.6525 H   0  0  0  0  0  0  0  0  0  0  0  0
   59.1441   32.4641   44.6040 H   0  0  0  0  0  0  0  0  0  0  0  0
   58.1406   33.6415   43.6798 H   0  0  0  0  0  0  0  0  0  0  0  0
   57.8338   33.4708   48.6366 H   0  0  0  0  0  0  0  0  0  0  0  0
   58.3364   30.0381   49.8510 H   0  0  0  0  0  0  0  0  0  0  0  0
   56.9637   29.1501   51.7274 H   0  0  0  0  0  0  0  0  0  0  0  0
   56.5087   30.5691   53.7264 H   0  0  0  0  0  0  0  0  0  0  0  0
   57.4057   32.8877   53.8430 H   0  0  0  0  0  0  0  0  0  0  0  0
   58.9538   34.4980   53.0564 H   0  0  0  0  0  0  0  0  0  0  0  0
   59.8368   34.3031   51.5042 H   0  0  0  0  0  0  0  0  0  0  0  0
   58.1391   34.8901   51.5042 H   0  0  0  0  0  0  0  0  0  0  0  0
   63.3615   31.6408   49.4236 H   0  0  0  0  0  0  0  0  0  0  0  0
   64.8848   32.4507   47.6233 H   0  0  0  0  0  0  0  0  0  0  0  0
   63.9977   33.8855   45.7886 H   0  0  0  0  0  0  0  0  0  0  0  0
   61.5827   34.4858   45.7174 H   0  0  0  0  0  0  0  0  0  0  0  0
  1  2  1  0
  2  3  1  0
  3  4  1  0
  4  5  1  0
  3  6  1  0
  6  7  1  0
  7  8  1  0
  8  9  1  0
  9 10  2  0
  9 11  1  0
 11 12  2  0
 12 13  1  0
 13 14  1  0
 14 15  2  0
 15 16  1  0
 16 17  2  0
 17 18  1  0
 18 19  2  0
 19 20  1  0
 13 21  2  0
 21 22  1  0
 22 23  2  0
 23 24  1  0
 24 25  2  0
 25 26  1  0
 26 27  2  0
 27 11  1  0
 19 14  1  0
 27 22  1  0
  1 28  1  0
  1 29  1  0
  1 30  1  0
  2 31  1  0
  2 32  1  0
  4 33  1  0
  4 34  1  0
  5 35  1  0
  5 36  1  0
  5 37  1  0
  6 38  1  0
  6 39  1  0
  7 40  1  0
  7 41  1  0
 12 42  1  0
 15 43  1  0
 16 44  1  0
 17 45  1  0
 18 46  1  0
 20 47  1  0
 20 48  1  0
 20 49  1  0
 23 50  1  0
 24 51  1  0
 25 52  1  0
 26 53  1  0
M  END
>  <UniqueID>  (28) 
28

>  <SMILES>  (28) 
CCN(CC)CCOC(=O)c1cc(-c2ccccc2C)nc2ccccc12

>  <Energy>  (28) 
64.43847136383145

>  <Genealogy>  (28) 
CCN(CC)CCOC(=O)c1cc(-c2ccccc2C)nc2ccccc12 (3D coordinates assigned)
CCN(CC)CCOC(=O)c1cc(-c2ccccc2C)nc2ccccc12 (optimized conformer: 64.43847136383145 kcal/mol)

>  <smiles>  (28) 
CCN(CC)CCOC(=O)c1cc(-c2ccccc2C)nc2ccccc12

>  <score_type>  (28) 
oracle

>  <origin>  (28) 
adg

>  <m_score__min__energy>  (28) 
-7.9900000000000002

>  <m_primary>  (28) 
energy

$$$$
28:0
     RDKit          3D

 50 53  0  0  0  0  0  0  0  0999 V2000
   55.9860   22.1340   46.8700 C   0  0  0  0  0  0  0  0  0  0  0  0
   55.9540   20.7560   46.2160 C   0  0  0  0  0  0  0  0  0  0  0  0
   55.3890   20.8380   44.9220 O   0  0  0  0  0  0  0  0  0  0  0  0
   56.2480   20.2470   43.9680 C   0  0  0  0  0  0  0  0  0  0  0  0
   56.8660   21.3370   43.0930 C   0  0  0  0  0  0  0  0  0  0  0  0
   57.7120   22.2170   43.8920 N   0  0  0  0  0  0  0  0  0  0  0  0
   58.8060   21.8510   44.5880 C   0  0  0  0  0  0  0  0  0  0  0  0
   59.3040   22.9620   45.2360 C   0  0  0  0  0  0  0  0  0  0  0  0
   58.4370   23.9830   44.8830 C   0  0  0  0  0  0  0  0  0  0  0  0
   58.5180   25.3880   45.3120 C   0  0  0  0  0  0  0  0  0  0  0  0
   57.6810   26.3680   44.8900 N   0  0  0  0  0  0  0  0  0  0  0  0
   57.9790   27.5700   45.4500 C   0  0  0  0  0  0  0  0  0  0  0  0
   59.0490   27.5500   46.3180 C   0  0  0  0  0  0  0  0  0  0  0  0
   59.6500   25.9820   46.4180 S   0  0  0  0  0  0  0  0  0  0  0  0
   59.4670   28.7380   47.1060 C   0  0  0  0  0  0  0  0  0  0  0  0
   59.2570   30.0080   46.2680 C   0  0  0  0  0  0  0  0  0  0  0  0
   57.9500   30.0330   45.5750 N   0  0  0  0  0  0  0  0  0  0  0  0
   57.4250   31.3140   45.1840 C   0  0  0  0  0  0  0  0  0  0  0  0
   56.3760   31.3590   44.4810 O   0  0  0  0  0  0  0  0  0  0  0  0
   58.0740   32.5780   45.6170 C   0  0  0  0  0  0  0  0  0  0  0  0
   58.5540   33.5030   44.6690 C   0  0  0  0  0  0  0  0  0  0  0  0
   59.1710   34.6890   45.0830 C   0  0  0  0  0  0  0  0  0  0  0  0
   59.3250   34.9600   46.4460 C   0  0  0  0  0  0  0  0  0  0  0  0
   58.8680   34.0410   47.3960 C   0  0  0  0  0  0  0  0  0  0  0  0
   58.2500   32.8530   46.9860 C   0  0  0  0  0  0  0  0  0  0  0  0
   57.1800   28.8160   45.2300 C   0  0  0  0  0  0  0  0  0  0  0  0
   57.4730   23.5060   44.0700 N   0  0  0  0  0  0  0  0  0  0  0  0
   55.9834   22.0207   47.9641 H   0  0  0  0  0  0  0  0  0  0  0  0
   56.8968   22.6666   46.5587 H   0  0  0  0  0  0  0  0  0  0  0  0
   55.1009   22.7083   46.5587 H   0  0  0  0  0  0  0  0  0  0  0  0
   56.9801   20.3670   46.1396 H   0  0  0  0  0  0  0  0  0  0  0  0
   55.3397   20.0827   46.8318 H   0  0  0  0  0  0  0  0  0  0  0  0
   57.0469   19.6959   44.4858 H   0  0  0  0  0  0  0  0  0  0  0  0
   55.6727   19.5533   43.3372 H   0  0  0  0  0  0  0  0  0  0  0  0
   57.4741   20.8675   42.3058 H   0  0  0  0  0  0  0  0  0  0  0  0
   56.0577   21.9329   42.6440 H   0  0  0  0  0  0  0  0  0  0  0  0
   59.2304   20.8371   44.6320 H   0  0  0  0  0  0  0  0  0  0  0  0
   60.1893   23.0234   45.8860 H   0  0  0  0  0  0  0  0  0  0  0  0
   56.8890   26.2240   44.2240 H   0  0  0  0  0  0  0  0  0  0  0  0
   58.8635   28.8002   48.0236 H   0  0  0  0  0  0  0  0  0  0  0  0
   60.5304   28.6459   47.3720 H   0  0  0  0  0  0  0  0  0  0  0  0
   59.3176   30.8815   46.9339 H   0  0  0  0  0  0  0  0  0  0  0  0
   60.0398   30.0260   45.4954 H   0  0  0  0  0  0  0  0  0  0  0  0
   58.4430   33.2915   43.5953 H   0  0  0  0  0  0  0  0  0  0  0  0
   59.5352   35.4088   44.3352 H   0  0  0  0  0  0  0  0  0  0  0  0
   59.8050   35.8949   46.7707 H   0  0  0  0  0  0  0  0  0  0  0  0
   58.9943   34.2519   48.4682 H   0  0  0  0  0  0  0  0  0  0  0  0
   57.9002   32.1307   47.7383 H   0  0  0  0  0  0  0  0  0  0  0  0
   56.2779   28.7757   45.8582 H   0  0  0  0  0  0  0  0  0  0  0  0
   56.9177   28.8692   44.1631 H   0  0  0  0  0  0  0  0  0  0  0  0
  1  2  1  0
  2  3  1  0
  3  4  1  0
  4  5  1  0
  5  6  1  0
  6  7  1  0
  7  8  2  0
  8  9  1  0
  9 10  1  0
 10 11  2  0
 11 12  1  0
 12 13  2  0
 13 14  1  0
 13 15  1  0
 15 16  1  0
 16 17  1  0
 17 18  1  0
 18 19  2  0
 18 20  1  0
 20 21  2  0
 21 22  1  0
 22 23  2  0
 23 24  1  0
 24 25  2  0
 17 26  1  0
  9 27  2  0
 27  6  1  0
 14 10  1  0
 25 20  1  0
 26 12  1  0
  1 28  1  0
  1 29  1  0
  1 30  1  0
  2 31  1  0
  2 32  1  0
  4 33  1  0
  4 34  1  0
  5 35  1  0
  5 36  1  0
  7 37  1  0
  8 38  1  0
 11 39  1  0
 15 40  1  0
 15 41  1  0
 16 42  1  0
 16 43  1  0
 21 44  1  0
 22 45  1  0
 23 46  1  0
 24 47  1  0
 25 48  1  0
 26 49  1  0
 26 50  1  0
M  CHG  1  11   1
M  END
>  <UniqueID>  (29) 
29

>  <SMILES>  (29) 
CCOCCn1ccc(-c2[nH+]c3c(s2)CCN(C(=O)c2ccccc2)C3)n1

>  <Energy>  (29) 
116.74630207616885

>  <Genealogy>  (29) 
CCOCCn1ccc(-c2[nH+]c3c(s2)CCN(C(=O)c2ccccc2)C3)n1 (protonated)
CCOCCn1ccc(-c2[nH+]c3c(s2)CCN(C(=O)c2ccccc2)C3)n1 (3D coordinates assigned)
CCOCCn1ccc(-c2[nH+]c3c(s2)CCN(C(=O)c2ccccc2)C3)n1 (nonaromatic ring conformer: 116.74630207616885 kcal/mol)

>  <smiles>  (29) 
CCOCCn1ccc(-c2nc3c(s2)CCN(C(=O)c2ccccc2)C3)n1

>  <score_type>  (29) 
oracle

>  <origin>  (29) 
adg

>  <m_score__min__energy>  (29) 
-6.7199999999999998

>  <m_primary>  (29) 
energy

$$$$
29:0
     RDKit          3D

 90 93  0  0  0  0  0  0  0  0999 V2000
   65.5790   32.7020   49.8450 C   0  0  0  0  0  0  0  0  0  0  0  0
   64.0990   32.7320   50.2570 C   0  0  0  0  0  0  0  0  0  0  0  0
   63.1810   33.1610   49.1730 N   0  0  0  0  0  0  0  0  0  0  0  0
   63.7420   33.0500   47.8060 C   0  0  0  0  0  0  0  0  0  0  0  0
   63.3360   31.7420   47.1240 C   0  0  0  0  0  0  0  0  0  0  0  0
   62.5910   34.4990   49.4250 C   0  0  0  0  0  0  0  0  0  0  0  0
   61.1940   34.5710   48.8010 C   0  0  0  0  0  0  0  0  0  0  0  0
   60.8780   33.3660   48.1240 O   0  0  0  0  0  0  0  0  0  0  0  0
   59.8780   33.5740   47.1410 C   0  0  0  0  0  0  0  0  0  0  0  0
   58.5080   33.1340   47.6610 C   0  0  0  0  0  0  0  0  0  0  0  0
   58.6560   32.0050   48.4980 O   0  0  0  0  0  0  0  0  0  0  0  0
   58.2630   32.3330   49.8160 C   0  0  0  0  0  0  0  0  0  0  0  0
   59.4840   32.2810   50.7390 C   0  0  0  0  0  0  0  0  0  0  0  0
   60.6790   31.8340   50.0030 N   0  0  0  0  0  0  0  0  0  0  0  0
   61.0740   30.4960   50.4220 C   0  0  0  0  0  0  0  0  0  0  0  0
   61.7130   30.2980   51.6760 C   0  0  0  0  0  0  0  0  0  0  0  0
   62.1040   31.3900   52.4910 C   0  0  0  0  0  0  0  0  0  0  0  0
   62.6450   31.1850   53.7580 C   0  0  0  0  0  0  0  0  0  0  0  0
   62.8050   29.8970   54.2450 C   0  0  0  0  0  0  0  0  0  0  0  0
   62.4720   28.8040   53.4490 C   0  0  0  0  0  0  0  0  0  0  0  0
   61.9720   28.9770   52.1320 C   0  0  0  0  0  0  0  0  0  0  0  0
   61.7220   27.8940   51.3120 N   0  0  0  0  0  0  0  0  0  0  0  0
   62.2710   26.5640   51.6570 C   0  0  0  0  0  0  0  0  0  0  0  0
   61.0110   28.0590   50.1410 C   0  0  0  0  0  0  0  0  0  0  0  0
   60.5000   26.9410   49.4290 C   0  0  0  0  0  0  0  0  0  0  0  0
   59.8560   27.0940   48.1920 C   0  0  0  0  0  0  0  0  0  0  0  0
   59.3080   26.0090   47.4880 O   0  0  0  0  0  0  0  0  0  0  0  0
   58.2420   26.1170   46.5450 C   0  0  0  0  0  0  0  0  0  0  0  0
   58.8300   26.3440   45.1390 C   0  0  0  0  0  0  0  0  0  0  0  0
   58.3740   27.5860   44.4270 N   0  0  0  0  0  0  0  0  0  0  0  0
   58.0790   27.2600   43.0040 C   0  0  0  0  0  0  0  0  0  0  0  0
   57.1460   28.1240   45.0890 C   0  0  0  0  0  0  0  0  0  0  0  0
   56.6590   29.4620   44.4940 C   0  0  0  0  0  0  0  0  0  0  0  0
   57.8030   30.4160   44.1230 C   0  0  0  0  0  0  0  0  0  0  0  0
   59.0990   30.0310   44.8210 C   0  0  0  0  0  0  0  0  0  0  0  0
   59.5100   28.5820   44.4830 C   0  0  0  0  0  0  0  0  0  0  0  0
   59.7460   28.3650   47.6390 C   0  0  0  0  0  0  0  0  0  0  0  0
   60.1860   29.4830   48.3420 C   0  0  0  0  0  0  0  0  0  0  0  0
   60.7560   29.3600   49.6320 C   0  0  0  0  0  0  0  0  0  0  0  0
   66.2102   32.6892   50.7458 H   0  0  0  0  0  0  0  0  0  0  0  0
   65.7750   31.7997   49.2471 H   0  0  0  0  0  0  0  0  0  0  0  0
   65.8114   33.5956   49.2471 H   0  0  0  0  0  0  0  0  0  0  0  0
   63.8081   31.7206   50.5770 H   0  0  0  0  0  0  0  0  0  0  0  0
   64.0076   33.4734   51.0644 H   0  0  0  0  0  0  0  0  0  0  0  0
   63.3760   33.8937   47.2024 H   0  0  0  0  0  0  0  0  0  0  0  0
   64.8389   33.0647   47.8868 H   0  0  0  0  0  0  0  0  0  0  0  0
   63.1017   30.9870   47.8889 H   0  0  0  0  0  0  0  0  0  0  0  0
   62.4494   31.9155   46.4964 H   0  0  0  0  0  0  0  0  0  0  0  0
   64.1650   31.3830   46.4964 H   0  0  0  0  0  0  0  0  0  0  0  0
   62.5166   34.6678   50.5094 H   0  0  0  0  0  0  0  0  0  0  0  0
   63.2321   35.2713   48.9749 H   0  0  0  0  0  0  0  0  0  0  0  0
   60.4532   34.7421   49.5959 H   0  0  0  0  0  0  0  0  0  0  0  0
   61.1765   35.3966   48.0743 H   0  0  0  0  0  0  0  0  0  0  0  0
   59.8405   34.6431   46.8847 H   0  0  0  0  0  0  0  0  0  0  0  0
   60.1270   32.9766   46.2516 H   0  0  0  0  0  0  0  0  0  0  0  0
   58.0528   33.9560   48.2330 H   0  0  0  0  0  0  0  0  0  0  0  0
   57.8617   32.8739   46.8097 H   0  0  0  0  0  0  0  0  0  0  0  0
   57.8354   33.3464   49.8299 H   0  0  0  0  0  0  0  0  0  0  0  0
   57.5083   31.6125   50.1643 H   0  0  0  0  0  0  0  0  0  0  0  0
   59.6682   33.2846   51.1498 H   0  0  0  0  0  0  0  0  0  0  0  0
   59.2820   31.5658   51.5499 H   0  0  0  0  0  0  0  0  0  0  0  0
   61.4520   32.5220   50.1240 H   0  0  0  0  0  0  0  0  0  0  0  0
   60.5170   31.8540   48.9710 H   0  0  0  0  0  0  0  0  0  0  0  0
   61.9780   32.4166   52.1165 H   0  0  0  0  0  0  0  0  0  0  0  0
   62.9456   32.0461   54.3729 H   0  0  0  0  0  0  0  0  0  0  0  0
   63.1953   29.7382   55.2611 H   0  0  0  0  0  0  0  0  0  0  0  0
   62.5989   27.7870   53.8486 H   0  0  0  0  0  0  0  0  0  0  0  0
   62.3148   26.4579   52.7510 H   0  0  0  0  0  0  0  0  0  0  0  0
   61.6230   25.7800   51.2382 H   0  0  0  0  0  0  0  0  0  0  0  0
   63.2834   26.4653   51.2382 H   0  0  0  0  0  0  0  0  0  0  0  0
   60.6116   25.9337   49.8567 H   0  0  0  0  0  0  0  0  0  0  0  0
   57.6503   25.1897   46.5509 H   0  0  0  0  0  0  0  0  0  0  0  0
   57.5938   26.9636   46.8155 H   0  0  0  0  0  0  0  0  0  0  0  0
   59.9246   26.3944   45.2361 H   0  0  0  0  0  0  0  0  0  0  0  0
   58.4705   25.5030   44.5279 H   0  0  0  0  0  0  0  0  0  0  0  0
   57.3415   26.4450   42.9598 H   0  0  0  0  0  0  0  0  0  0  0  0
   57.6728   28.1497   42.5006 H   0  0  0  0  0  0  0  0  0  0  0  0
   59.0048   26.9445   42.5006 H   0  0  0  0  0  0  0  0  0  0  0  0
   56.3405   27.3825   44.9827 H   0  0  0  0  0  0  0  0  0  0  0  0
   57.4038   28.3139   46.1414 H   0  0  0  0  0  0  0  0  0  0  0  0
   56.0750   29.2482   43.5867 H   0  0  0  0  0  0  0  0  0  0  0  0
   56.0571   29.9616   45.2674 H   0  0  0  0  0  0  0  0  0  0  0  0
   57.9591   30.3807   43.0347 H   0  0  0  0  0  0  0  0  0  0  0  0
   57.5251   31.4301   44.4462 H   0  0  0  0  0  0  0  0  0  0  0  0
   59.8973   30.7147   44.4966 H   0  0  0  0  0  0  0  0  0  0  0  0
   58.9424   30.1026   45.9074 H   0  0  0  0  0  0  0  0  0  0  0  0
   60.0047   28.5892   43.5006 H   0  0  0  0  0  0  0  0  0  0  0  0
   60.1647   28.2518   45.3029 H   0  0  0  0  0  0  0  0  0  0  0  0
   59.3076   28.4881   46.6377 H   0  0  0  0  0  0  0  0  0  0  0  0
   60.0891   30.4798   47.8871 H   0  0  0  0  0  0  0  0  0  0  0  0
  1  2  1  0
  2  3  1  0
  3  4  1  0
  4  5  1  0
  3  6  1  0
  6  7  1  0
  7  8  1  0
  8  9  1  0
  9 10  1  0
 10 11  1  0
 11 12  1  0
 12 13  1  0
 13 14  1  0
 14 15  1  0
 15 16  2  0
 16 17  1  0
 17 18  2  0
 18 19  1  0
 19 20  2  0
 20 21  1  0
 21 22  2  0
 22 23  1  0
 22 24  1  0
 24 25  2  0
 25 26  1  0
 26 27  1  0
 27 28  1  0
 28 29  1  0
 29 30  1  0
 30 31  1  0
 30 32  1  0
 32 33  1  0
 33 34  1  0
 34 35  1  0
 35 36  1  0
 26 37  2  0
 37 38  1  0
 38 39  2  0
 39 15  1  0
 21 16  1  0
 39 24  1  0
 36 30  1  0
  1 40  1  0
  1 41  1  0
  1 42  1  0
  2 43  1  0
  2 44  1  0
  4 45  1  0
  4 46  1  0
  5 47  1  0
  5 48  1  0
  5 49  1  0
  6 50  1  0
  6 51  1  0
  7 52  1  0
  7 53  1  0
  9 54  1  0
  9 55  1  0
 10 56  1  0
 10 57  1  0
 12 58  1  0
 12 59  1  0
 13 60  1  0
 13 61  1  0
 14 62  1  0
 14 63  1  0
 17 64  1  0
 18 65  1  0
 19 66  1  0
 20 67  1  0
 23 68  1  0
 23 69  1  0
 23 70  1  0
 25 71  1  0
 28 72  1  0
 28 73  1  0
 29 74  1  0
 29 75  1  0
 31 76  1  0
 31 77  1  0
 31 78  1  0
 32 79  1  0
 32 80  1  0
 33 81  1  0
 33 82  1  0
 34 83  1  0
 34 84  1  0
 35 85  1  0
 35 86  1  0
 36 87  1  0
 36 88  1  0
 37 89  1  0
 38 90  1  0
M  CHG  3  14   1  22   1  30   1
M  END
>  <UniqueID>  (30) 
30

>  <SMILES>  (30) 
CCN(CC)CCOCCOCC[NH2+]c1c2ccccc2[n+](C)c2cc(OCC[N+]3(C)CCCCC3)ccc12

>  <Energy>  (30) 
139.1202674195721

>  <Genealogy>  (30) 
CCN(CC)CCOCCOCC[NH2+]c1c2ccccc2[n+](C)c2cc(OCC[N+]3(C)CCCCC3)ccc12 (protonated)
CCN(CC)CCOCCOCC[NH2+]c1c2ccccc2[n+](C)c2cc(OCC[N+]3(C)CCCCC3)ccc12 (3D coordinates assigned)
CCN(CC)CCOCCOCC[NH2+]c1c2ccccc2[n+](C)c2cc(OCC[N+]3(C)CCCCC3)ccc12 (nonaromatic ring conformer: 139.1202674195721 kcal/mol)

>  <smiles>  (30) 
CCN(CC)CCOCCOCCNc1c2ccccc2[n+](C)c2cc(OCC[N+]3(C)CCCCC3)ccc12

>  <score_type>  (30) 
oracle

>  <origin>  (30) 
adg

>  <m_score__min__energy>  (30) 
-4.3600000000000003

>  <m_primary>  (30) 
energy

$$$$
30:0
     RDKit          3D

 47 46  0  0  0  0  0  0  0  0999 V2000
   60.0110   29.2910   44.8630 C   0  0  0  0  0  0  0  0  0  0  0  0
   59.2030   28.9990   46.1220 C   0  0  0  0  0  0  0  0  0  0  0  0
   59.0480   30.2240   46.9130 N   0  0  0  0  0  0  0  0  0  0  0  0
   59.0100   29.9070   48.3470 C   0  0  0  0  0  0  0  0  0  0  0  0
   60.3630   30.2200   49.0050 C   0  0  0  0  0  0  0  0  0  0  0  0
   60.8850   31.6490   48.7270 C   0  0  0  0  0  0  0  0  0  0  0  0
   60.0950   32.4090   47.7380 N   0  0  0  0  0  0  0  0  0  0  0  0
   60.3120   33.8740   47.8030 C   0  0  0  0  0  0  0  0  0  0  0  0
   59.2850   34.6730   46.9740 C   0  0  0  0  0  0  0  0  0  0  0  0
   58.0720   33.8420   46.5180 C   0  0  0  0  0  0  0  0  0  0  0  0
   58.4810   32.6290   45.7960 N   0  0  0  0  0  0  0  0  0  0  0  0
   58.3610   32.7850   44.3400 C   0  0  0  0  0  0  0  0  0  0  0  0
   57.3080   31.8160   43.8060 C   0  0  0  0  0  0  0  0  0  0  0  0
   56.8890   30.8950   44.8720 N   0  0  0  0  0  0  0  0  0  0  0  0
   56.2770   29.6760   44.3250 C   0  0  0  0  0  0  0  0  0  0  0  0
   56.2750   29.7230   42.8000 C   0  0  0  0  0  0  0  0  0  0  0  0
   61.0110   29.6524   45.1447 H   0  0  0  0  0  0  0  0  0  0  0  0
   60.1078   28.3710   44.2678 H   0  0  0  0  0  0  0  0  0  0  0  0
   59.4973   30.0604   44.2678 H   0  0  0  0  0  0  0  0  0  0  0  0
   58.2100   28.6205   45.8381 H   0  0  0  0  0  0  0  0  0  0  0  0
   59.7313   28.2448   46.7237 H   0  0  0  0  0  0  0  0  0  0  0  0
   58.1300   30.6600   46.6560 H   0  0  0  0  0  0  0  0  0  0  0  0
   58.2254   30.5081   48.8297 H   0  0  0  0  0  0  0  0  0  0  0  0
   58.7958   28.8349   48.4681 H   0  0  0  0  0  0  0  0  0  0  0  0
   60.2547   30.0974   50.0928 H   0  0  0  0  0  0  0  0  0  0  0  0
   61.0957   29.5245   48.5698 H   0  0  0  0  0  0  0  0  0  0  0  0
   60.8778   32.2076   49.6746 H   0  0  0  0  0  0  0  0  0  0  0  0
   61.8930   31.5360   48.3013 H   0  0  0  0  0  0  0  0  0  0  0  0
   59.0790   32.1970   47.8610 H   0  0  0  0  0  0  0  0  0  0  0  0
   60.3380   32.0440   46.7880 H   0  0  0  0  0  0  0  0  0  0  0  0
   60.2389   34.1929   48.8532 H   0  0  0  0  0  0  0  0  0  0  0  0
   61.3067   34.0783   47.3800 H   0  0  0  0  0  0  0  0  0  0  0  0
   58.9207   35.5104   47.5872 H   0  0  0  0  0  0  0  0  0  0  0  0
   59.8019   35.0109   46.0637 H   0  0  0  0  0  0  0  0  0  0  0  0
   57.4879   33.5495   47.4031 H   0  0  0  0  0  0  0  0  0  0  0  0
   57.4717   34.4604   45.8344 H   0  0  0  0  0  0  0  0  0  0  0  0
   57.8420   31.8530   46.0860 H   0  0  0  0  0  0  0  0  0  0  0  0
   58.0610   33.8171   44.1059 H   0  0  0  0  0  0  0  0  0  0  0  0
   59.3305   32.5673   43.8681 H   0  0  0  0  0  0  0  0  0  0  0  0
   56.4356   32.3845   43.4515 H   0  0  0  0  0  0  0  0  0  0  0  0
   57.7372   31.2368   42.9751 H   0  0  0  0  0  0  0  0  0  0  0  0
   57.7480   30.6140   45.4030 H   0  0  0  0  0  0  0  0  0  0  0  0
   56.8513   28.7998   44.6603 H   0  0  0  0  0  0  0  0  0  0  0  0
   55.2390   29.6055   44.6822 H   0  0  0  0  0  0  0  0  0  0  0  0
   56.2305   30.7700   42.4655 H   0  0  0  0  0  0  0  0  0  0  0  0
   57.1939   29.2546   42.4175 H   0  0  0  0  0  0  0  0  0  0  0  0
   55.3992   29.1783   42.4175 H   0  0  0  0  0  0  0  0  0  0  0  0
  1  2  1  0
  2  3  1  0
  3  4  1  0
  4  5  1  0
  5  6  1  0
  6  7  1  0
  7  8  1  0
  8  9  1  0
  9 10  1  0
 10 11  1  0
 11 12  1  0
 12 13  1  0
 13 14  1  0
 14 15  1  0
 15 16  1  0
  1 17  1  0
  1 18  1  0
  1 19  1  0
  2 20  1  0
  2 21  1  0
  3 22  1  0
  4 23  1  0
  4 24  1  0
  5 25  1  0
  5 26  1  0
  6 27  1  0
  6 28  1  0
  7 29  1  0
  7 30  1  0
  8 31  1  0
  8 32  1  0
  9 33  1  0
  9 34  1  0
 10 35  1  0
 10 36  1  0
 11 37  1  0
 12 38  1  0
 12 39  1  0
 13 40  1  0
 13 41  1  0
 14 42  1  0
 15 43  1  0
 15 44  1  0
 16 45  1  0
 16 46  1  0
 16 47  1  0
M  CHG  1   7   1
M  END
>  <UniqueID>  (31) 
31

>  <SMILES>  (31) 
CCNCCC[NH2+]CCCNCCNCC

>  <Energy>  (31) 
29.03587674906936

>  <Genealogy>  (31) 
CCNCCC[NH2+]CCCNCCNCC (protonated)
CCNCCC[NH2+]CCCNCCNCC (3D coordinates assigned)
CCNCCC[NH2+]CCCNCCNCC (optimized conformer: 29.03587674906936 kcal/mol)

>  <smiles>  (31) 
CCNCCCNCCCNCCNCC

>  <score_type>  (31) 
oracle

>  <origin>  (31) 
adg

>  <m_score__min__energy>  (31) 
-1.47

>  <m_primary>  (31) 
energy

$$$$
31:0
     RDKit          3D

 48 50  0  0  0  0  0  0  0  0999 V2000
   57.7530   22.2730   44.9310 C   0  0  0  0  0  0  0  0  0  0  0  0
   57.3860   21.9350   46.3730 C   0  0  0  0  0  0  0  0  0  0  0  0
   57.3420   23.1150   47.1750 O   0  0  0  0  0  0  0  0  0  0  0  0
   56.7030   24.2990   46.7800 C   0  0  0  0  0  0  0  0  0  0  0  0
   55.4490   24.4020   46.8760 O   0  0  0  0  0  0  0  0  0  0  0  0
   57.4840   25.3970   46.2740 N   0  0  0  0  0  0  0  0  0  0  0  0
   58.9510   25.3250   46.3400 C   0  0  0  0  0  0  0  0  0  0  0  0
   59.5880   26.6960   46.0830 C   0  0  0  0  0  0  0  0  0  0  0  0
   59.1070   27.3120   44.7490 C   0  0  0  0  0  0  0  0  0  0  0  0
   59.4960   28.8120   44.6950 C   0  0  0  0  0  0  0  0  0  0  0  0
   58.9120   29.5960   45.8130 N   0  0  1  0  0  0  0  0  0  0  0  0
   59.8900   30.5820   46.3660 C   0  0  0  0  0  0  0  0  0  0  0  0
   59.2990   31.9350   46.1260 C   0  0  0  0  0  0  0  0  0  0  0  0
   59.8400   33.1850   46.4350 C   0  0  0  0  0  0  0  0  0  0  0  0
   59.1000   34.3420   46.1090 C   0  0  0  0  0  0  0  0  0  0  0  0
   59.6400   35.6970   46.4590 C   0  0  0  0  0  0  0  0  0  0  0  0
   57.8250   34.2110   45.5080 C   0  0  0  0  0  0  0  0  0  0  0  0
   57.3060   32.9400   45.2110 C   0  0  0  0  0  0  0  0  0  0  0  0
   58.0770   31.8250   45.5350 C   0  0  0  0  0  0  0  0  0  0  0  0
   57.8180   30.4220   45.3600 C   0  0  0  0  0  0  0  0  0  0  0  0
   56.7320   29.9590   44.9150 O   0  0  0  0  0  0  0  0  0  0  0  0
   57.5810   27.1040   44.5080 C   0  0  0  0  0  0  0  0  0  0  0  0
   56.8340   26.6060   45.7490 C   0  0  0  0  0  0  0  0  0  0  0  0
   58.5621   23.0182   44.9236 H   0  0  0  0  0  0  0  0  0  0  0  0
   58.0892   21.3616   44.4149 H   0  0  0  0  0  0  0  0  0  0  0  0
   56.8723   22.6829   44.4149 H   0  0  0  0  0  0  0  0  0  0  0  0
   56.3985   21.4506   46.3897 H   0  0  0  0  0  0  0  0  0  0  0  0
   58.1512   21.2590   46.7823 H   0  0  0  0  0  0  0  0  0  0  0  0
   59.2480   24.9735   47.3391 H   0  0  0  0  0  0  0  0  0  0  0  0
   59.2999   24.6288   45.5631 H   0  0  0  0  0  0  0  0  0  0  0  0
   59.3179   27.3740   46.9060 H   0  0  0  0  0  0  0  0  0  0  0  0
   60.6780   26.5607   46.0236 H   0  0  0  0  0  0  0  0  0  0  0  0
   59.6144   26.7820   43.9295 H   0  0  0  0  0  0  0  0  0  0  0  0
   60.5919   28.8933   44.7429 H   0  0  0  0  0  0  0  0  0  0  0  0
   59.0982   29.2249   43.7562 H   0  0  0  0  0  0  0  0  0  0  0  0
   58.5700   28.9750   46.5830 H   0  0  0  0  0  0  0  0  0  0  0  0
   60.0330   30.4140   47.4437 H   0  0  0  0  0  0  0  0  0  0  0  0
   60.8743   30.4833   45.8850 H   0  0  0  0  0  0  0  0  0  0  0  0
   60.8227   33.2662   46.9225 H   0  0  0  0  0  0  0  0  0  0  0  0
   59.6824   35.8034   47.5530 H   0  0  0  0  0  0  0  0  0  0  0  0
   60.6511   35.8081   46.0403 H   0  0  0  0  0  0  0  0  0  0  0  0
   58.9825   36.4731   46.0403 H   0  0  0  0  0  0  0  0  0  0  0  0
   57.2370   35.1102   45.2721 H   0  0  0  0  0  0  0  0  0  0  0  0
   56.3199   32.8279   44.7366 H   0  0  0  0  0  0  0  0  0  0  0  0
   57.1424   28.0641   44.1983 H   0  0  0  0  0  0  0  0  0  0  0  0
   57.4760   26.3310   43.7325 H   0  0  0  0  0  0  0  0  0  0  0  0
   56.8453   27.3901   46.5204 H   0  0  0  0  0  0  0  0  0  0  0  0
   55.7956   26.3682   45.4748 H   0  0  0  0  0  0  0  0  0  0  0  0
  1  2  1  0
  2  3  1  0
  3  4  1  0
  4  5  2  0
  4  6  1  0
  6  7  1  0
  7  8  1  0
  8  9  1  0
  9 10  1  0
 10 11  1  0
 11 12  1  0
 12 13  1  0
 13 14  2  0
 14 15  1  0
 15 16  1  0
 15 17  2  0
 17 18  1  0
 18 19  2  0
 19 20  1  0
 20 21  2  0
  9 22  1  0
 22 23  1  0
 23  6  1  0
 20 11  1  0
 19 13  1  0
  1 24  1  0
  1 25  1  0
  1 26  1  0
  2 27  1  0
  2 28  1  0
  7 29  1  0
  7 30  1  0
  8 31  1  0
  8 32  1  0
  9 33  1  0
 10 34  1  0
 10 35  1  0
 11 36  1  1
 12 37  1  0
 12 38  1  0
 14 39  1  0
 16 40  1  0
 16 41  1  0
 16 42  1  0
 17 43  1  0
 18 44  1  0
 22 45  1  0
 22 46  1  0
 23 47  1  0
 23 48  1  0
M  CHG  1  11   1
M  END
>  <UniqueID>  (32) 
32

>  <SMILES>  (32) 
CCOC(=O)N1CCC(C[N@H+]2Cc3cc(C)ccc3C2=O)CC1

>  <Energy>  (32) 
65.87816563066332

>  <Genealogy>  (32) 
CCOC(=O)N1CCC(C[NH+]2Cc3cc(C)ccc3C2=O)CC1 (protonated)
CCOC(=O)N1CCC(C[N@H+]2Cc3cc(C)ccc3C2=O)CC1 (chirality)
CCOC(=O)N1CCC(C[N@H+]2Cc3cc(C)ccc3C2=O)CC1 (3D coordinates assigned)
CCOC(=O)N1CCC(C[N@H+]2Cc3cc(C)ccc3C2=O)CC1 (nonaromatic ring conformer: 65.87816563066332 kcal/mol)

>  <smiles>  (32) 
CCOC(=O)N1CCC(CN2Cc3cc(C)ccc3C2=O)CC1

>  <score_type>  (32) 
oracle

>  <origin>  (32) 
adg

>  <m_score__min__energy>  (32) 
-6.21

>  <m_primary>  (32) 
energy

$$$$
32:0
     RDKit          3D

 40 42  0  0  0  0  0  0  0  0999 V2000
   62.7520   31.9860   47.3260 C   0  0  0  0  0  0  0  0  0  0  0  0
   61.6130   31.8910   48.3450 C   0  0  0  0  0  0  0  0  0  0  0  0
   60.3070   31.6500   47.6880 N   0  0  0  0  0  0  0  0  0  0  0  0
   59.7380   30.3850   47.7500 C   0  0  0  0  0  0  0  0  0  0  0  0
   60.1430   29.3200   48.7630 C   0  0  0  0  0  0  0  0  0  0  0  0
   59.8050   29.7570   50.1290 N   0  0  0  0  0  0  0  0  0  0  0  0
   58.9720   30.9710   50.1310 C   0  0  0  0  0  0  0  0  0  0  0  0
   57.8160   30.8480   51.0810 C   0  0  0  0  0  0  0  0  0  0  0  0
   57.0690   31.8950   51.5820 C   0  0  0  0  0  0  0  0  0  0  0  0
   56.1520   31.3210   52.4350 C   0  0  0  0  0  0  0  0  0  0  0  0
   56.3970   29.9620   52.4020 C   0  0  0  0  0  0  0  0  0  0  0  0
   57.3950   29.7120   51.5870 O   0  0  0  0  0  0  0  0  0  0  0  0
   58.6690   30.0530   46.9100 C   0  0  0  0  0  0  0  0  0  0  0  0
   58.1430   30.9850   46.0340 C   0  0  0  0  0  0  0  0  0  0  0  0
   57.2030   30.6420   45.2640 O   0  0  0  0  0  0  0  0  0  0  0  0
   58.6370   32.2940   46.0350 C   0  0  0  0  0  0  0  0  0  0  0  0
   58.0730   33.2620   45.1820 C   0  0  0  0  0  0  0  0  0  0  0  0
   58.5160   34.5780   45.2160 C   0  0  0  0  0  0  0  0  0  0  0  0
   59.5040   34.9550   46.1160 C   0  0  0  0  0  0  0  0  0  0  0  0
   60.0870   34.0170   46.9700 C   0  0  0  0  0  0  0  0  0  0  0  0
   60.9550   34.5070   47.8890 F   0  0  0  0  0  0  0  0  0  0  0  0
   59.7030   32.6410   46.9180 C   0  0  0  0  0  0  0  0  0  0  0  0
   63.7125   32.0661   47.8561 H   0  0  0  0  0  0  0  0  0  0  0  0
   62.7555   31.0850   46.6949 H   0  0  0  0  0  0  0  0  0  0  0  0
   62.6062   32.8751   46.6949 H   0  0  0  0  0  0  0  0  0  0  0  0
   61.8222   31.0618   49.0368 H   0  0  0  0  0  0  0  0  0  0  0  0
   61.5541   32.8487   48.8829 H   0  0  0  0  0  0  0  0  0  0  0  0
   59.6091   28.3847   48.5389 H   0  0  0  0  0  0  0  0  0  0  0  0
   61.2293   29.1595   48.6977 H   0  0  0  0  0  0  0  0  0  0  0  0
   60.6910   29.9760   50.6430 H   0  0  0  0  0  0  0  0  0  0  0  0
   59.3170   28.9880   50.6460 H   0  0  0  0  0  0  0  0  0  0  0  0
   59.5917   31.8284   50.4324 H   0  0  0  0  0  0  0  0  0  0  0  0
   58.5698   31.1133   49.1171 H   0  0  0  0  0  0  0  0  0  0  0  0
   57.1822   32.9641   51.3489 H   0  0  0  0  0  0  0  0  0  0  0  0
   55.3808   31.8399   53.0233 H   0  0  0  0  0  0  0  0  0  0  0  0
   55.8400   29.2041   52.9724 H   0  0  0  0  0  0  0  0  0  0  0  0
   58.2425   29.0397   46.9469 H   0  0  0  0  0  0  0  0  0  0  0  0
   57.2746   32.9735   44.4826 H   0  0  0  0  0  0  0  0  0  0  0  0
   58.0842   35.3216   44.5300 H   0  0  0  0  0  0  0  0  0  0  0  0
   59.8310   36.0045   46.1565 H   0  0  0  0  0  0  0  0  0  0  0  0
  1  2  1  0
  2  3  1  0
  3  4  1  0
  4  5  1  0
  5  6  1  0
  6  7  1  0
  7  8  1  0
  8  9  2  0
  9 10  1  0
 10 11  2  0
 11 12  1  0
  4 13  2  0
 13 14  1  0
 14 15  2  0
 14 16  1  0
 16 17  2  0
 17 18  1  0
 18 19  2  0
 19 20  1  0
 20 21  1  0
 20 22  2  0
 22  3  1  0
 12  8  1  0
 22 16  1  0
  1 23  1  0
  1 24  1  0
  1 25  1  0
  2 26  1  0
  2 27  1  0
  5 28  1  0
  5 29  1  0
  6 30  1  0
  6 31  1  0
  7 32  1  0
  7 33  1  0
  9 34  1  0
 10 35  1  0
 11 36  1  0
 13 37  1  0
 17 38  1  0
 18 39  1  0
 19 40  1  0
M  CHG  1   6   1
M  END
>  <UniqueID>  (33) 
33

>  <SMILES>  (33) 
CCn1c(C[NH2+]Cc2ccco2)cc(=O)c2cccc(F)c21

>  <Energy>  (33) 
85.38705073595183

>  <Genealogy>  (33) 
CCn1c(C[NH2+]Cc2ccco2)cc(=O)c2cccc(F)c21 (protonated)
CCn1c(C[NH2+]Cc2ccco2)cc(=O)c2cccc(F)c21 (3D coordinates assigned)
CCn1c(C[NH2+]Cc2ccco2)cc(=O)c2cccc(F)c21 (optimized conformer: 85.38705073595183 kcal/mol)

>  <smiles>  (33) 
CCn1c(CNCc2ccco2)cc(=O)c2cccc(F)c21

>  <score_type>  (33) 
oracle

>  <origin>  (33) 
adg

>  <m_score__min__energy>  (33) 
-5.6299999999999999

>  <m_primary>  (33) 
energy

$$$$
