0:0
     RDKit          3D

 45 48  0  0  0  0  0  0  0  0999 V2000
   62.4440   33.4840   52.9910 C   0  0  0  0  0  0  0  0  0  0  0  0
   62.4520   33.4380   51.4960 C   0  0  0  0  0  0  0  0  0  0  0  0
   61.2390   33.5370   50.7780 C   0  0  0  0  0  0  0  0  0  0  0  0
   61.2740   33.4980   49.3740 C   0  0  0  0  0  0  0  0  0  0  0  0
   60.0740   33.6130   48.5930 N   0  0  0  0  0  0  0  0  0  0  0  0
   59.1170   32.4970   48.5750 C   0  0  0  0  0  0  0  0  0  0  0  0
   57.9800   32.7440   47.5750 C   0  0  0  0  0  0  0  0  0  0  0  0
   58.5440   33.3620   46.2860 C   0  0  0  0  0  0  0  0  0  0  0  0
   57.4760   33.4710   45.2310 C   0  0  0  0  0  0  0  0  0  0  0  0
   57.3040   34.5680   44.6340 O   0  0  0  0  0  0  0  0  0  0  0  0
   56.6100   32.3560   44.9750 N   0  0  0  0  0  0  0  0  0  0  0  0
   57.0050   31.0550   44.5170 C   0  0  0  0  0  0  0  0  0  0  0  0
   56.3790   30.5250   43.3810 C   0  0  0  0  0  0  0  0  0  0  0  0
   56.7200   29.2530   42.9130 C   0  0  0  0  0  0  0  0  0  0  0  0
   57.6800   28.4920   43.5870 C   0  0  0  0  0  0  0  0  0  0  0  0
   58.1420   26.7520   42.9500 Br  0  0  0  0  0  0  0  0  0  0  0  0
   58.2920   29.0030   44.7360 C   0  0  0  0  0  0  0  0  0  0  0  0
   57.9530   30.2760   45.2050 C   0  0  0  0  0  0  0  0  0  0  0  0
   59.1930   34.7420   46.5550 C   0  0  0  0  0  0  0  0  0  0  0  0
   59.7190   34.9060   47.9950 C   0  0  0  0  0  0  0  0  0  0  0  0
   62.4890   33.3580   48.7830 N   0  0  0  0  0  0  0  0  0  0  0  0
   62.7880   33.2480   47.5050 N   0  0  0  0  0  0  0  0  0  0  0  0
   64.1310   33.0970   47.4500 C   0  0  0  0  0  0  0  0  0  0  0  0
   64.7050   33.0990   48.6840 N   0  0  0  0  0  0  0  0  0  0  0  0
   63.6260   33.2630   49.4750 C   0  0  0  0  0  0  0  0  0  0  0  0
   63.6380   33.3000   50.8290 N   0  0  0  0  0  0  0  0  0  0  0  0
   62.6196   32.4740   53.3899 H   0  0  0  0  0  0  0  0  0  0  0  0
   63.2381   34.1598   53.3413 H   0  0  0  0  0  0  0  0  0  0  0  0
   61.4684   33.8520   53.3413 H   0  0  0  0  0  0  0  0  0  0  0  0
   60.2821   33.6430   51.3101 H   0  0  0  0  0  0  0  0  0  0  0  0
   59.6478   31.5761   48.2917 H   0  0  0  0  0  0  0  0  0  0  0  0
   58.6778   32.4042   49.5792 H   0  0  0  0  0  0  0  0  0  0  0  0
   57.4891   31.7888   47.3373 H   0  0  0  0  0  0  0  0  0  0  0  0
   57.2498   33.4361   48.0197 H   0  0  0  0  0  0  0  0  0  0  0  0
   59.3310   32.6900   45.9130 H   0  0  0  0  0  0  0  0  0  0  0  0
   55.6140   31.1140   42.8540 H   0  0  0  0  0  0  0  0  0  0  0  0
   56.2324   28.8500   42.0131 H   0  0  0  0  0  0  0  0  0  0  0  0
   59.0416   28.4023   45.2719 H   0  0  0  0  0  0  0  0  0  0  0  0
   58.4293   30.6696   46.1151 H   0  0  0  0  0  0  0  0  0  0  0  0
   60.0357   34.8715   45.8600 H   0  0  0  0  0  0  0  0  0  0  0  0
   58.4102   35.5008   46.4089 H   0  0  0  0  0  0  0  0  0  0  0  0
   60.6120   35.5481   47.9776 H   0  0  0  0  0  0  0  0  0  0  0  0
   58.9211   35.3578   48.6026 H   0  0  0  0  0  0  0  0  0  0  0  0
   62.1160   33.2530   46.7070 H   0  0  0  0  0  0  0  0  0  0  0  0
   64.6960   32.9851   46.5128 H   0  0  0  0  0  0  0  0  0  0  0  0
  1  2  1  0
  2  3  1  0
  3  4  2  0
  4  5  1  0
  5  6  1  0
  6  7  1  0
  7  8  1  0
  8  9  1  0
  9 10  2  0
  9 11  1  0
 11 12  1  0
 12 13  2  0
 13 14  1  0
 14 15  2  0
 15 16  1  0
 15 17  1  0
 17 18  2  0
  8 19  1  0
 19 20  1  0
  4 21  1  0
 21 22  1  0
 22 23  2  0
 23 24  1  0
 24 25  2  0
 25 26  1  0
 26  2  2  0
 20  5  1  0
 25 21  1  0
 18 12  1  0
  1 27  1  0
  1 28  1  0
  1 29  1  0
  3 30  1  0
  6 31  1  0
  6 32  1  0
  7 33  1  0
  7 34  1  0
  8 35  1  0
 13 36  1  0
 14 37  1  0
 17 38  1  0
 18 39  1  0
 19 40  1  0
 19 41  1  0
 20 42  1  0
 20 43  1  0
 22 44  1  0
 23 45  1  0
M  CHG  2  11  -1  22   1
M  END
>  <UniqueID>  (1) 
1

>  <SMILES>  (1) 
Cc1cc(N2CCC(C(=O)[N-]c3ccc(Br)cc3)CC2)n2[nH+]cnc2n1

>  <Energy>  (1) 
97.28227630767198

>  <Genealogy>  (1) 
Cc1cc(N2CCC(C(=O)[N-]c3ccc(Br)cc3)CC2)n2[nH+]cnc2n1 (protonated)
Cc1cc(N2CCC(C(=O)[N-]c3ccc(Br)cc3)CC2)n2[nH+]cnc2n1 (3D coordinates assigned)
Cc1cc(N2CCC(C(=O)[N-]c3ccc(Br)cc3)CC2)n2[nH+]cnc2n1 (nonaromatic ring conformer: 97.28227630767198 kcal/mol)

>  <smiles>  (1) 
Cc1cc(N2CCC(C(=O)Nc3ccc(Br)cc3)CC2)n2ncnc2n1

>  <score_type>  (1) 
oracle

>  <origin>  (1) 
adg

>  <m_score__min__energy>  (1) 
-7.8399999999999999

>  <m_primary>  (1) 
energy

$$$$
1:0
     RDKit          3D

 39 41  0  0  0  0  0  0  0  0999 V2000
   57.0510   32.3740   40.8530 C   0  0  0  0  0  0  0  0  0  0  0  0
   58.2740   32.3310   41.7640 C   0  0  0  0  0  0  0  0  0  0  0  0
   57.8720   32.0970   43.1540 N   0  0  0  0  0  0  0  0  0  0  0  0
   57.1620   31.0520   43.6660 C   0  0  0  0  0  0  0  0  0  0  0  0
   56.6060   29.9140   42.8570 C   0  0  0  0  0  0  0  0  0  0  0  0
   57.3820   28.6880   43.0520 N   0  0  0  0  0  0  0  0  0  0  0  0
   57.2510   28.0950   44.6840 S   0  0  0  0  0  0  0  0  0  0  0  0
   57.3020   26.5930   44.6780 O   0  0  0  0  0  0  0  0  0  0  0  0
   55.9280   28.5230   45.2550 O   0  0  0  0  0  0  0  0  0  0  0  0
   58.5380   28.7440   45.7000 C   0  0  0  0  0  0  0  0  0  0  0  0
   59.7350   29.2060   45.1330 C   0  0  0  0  0  0  0  0  0  0  0  0
   60.7400   29.7350   45.9500 C   0  0  0  0  0  0  0  0  0  0  0  0
   60.5530   29.8050   47.3340 C   0  0  0  0  0  0  0  0  0  0  0  0
   59.3610   29.3460   47.9030 C   0  0  0  0  0  0  0  0  0  0  0  0
   58.3550   28.8170   47.0890 C   0  0  0  0  0  0  0  0  0  0  0  0
   57.0180   31.1320   45.0130 N   0  0  0  0  0  0  0  0  0  0  0  0
   57.6660   32.2570   45.3520 C   0  0  0  0  0  0  0  0  0  0  0  0
   57.8400   32.8010   46.6220 C   0  0  0  0  0  0  0  0  0  0  0  0
   58.5770   33.9950   46.7250 C   0  0  0  0  0  0  0  0  0  0  0  0
   59.1170   34.6060   45.5710 C   0  0  0  0  0  0  0  0  0  0  0  0
   58.9250   34.0280   44.3010 C   0  0  0  0  0  0  0  0  0  0  0  0
   58.1870   32.8440   44.2320 C   0  0  0  0  0  0  0  0  0  0  0  0
   56.1382   32.4061   41.4659 H   0  0  0  0  0  0  0  0  0  0  0  0
   57.0981   33.2710   40.2181 H   0  0  0  0  0  0  0  0  0  0  0  0
   57.0350   31.4759   40.2181 H   0  0  0  0  0  0  0  0  0  0  0  0
   58.9395   31.5181   41.4381 H   0  0  0  0  0  0  0  0  0  0  0  0
   58.7966   33.2970   41.7031 H   0  0  0  0  0  0  0  0  0  0  0  0
   55.5658   29.7314   43.1646 H   0  0  0  0  0  0  0  0  0  0  0  0
   56.6570   30.1894   41.7932 H   0  0  0  0  0  0  0  0  0  0  0  0
   59.8837   29.1523   44.0444 H   0  0  0  0  0  0  0  0  0  0  0  0
   61.6781   30.0962   45.5033 H   0  0  0  0  0  0  0  0  0  0  0  0
   61.3438   30.2213   47.9753 H   0  0  0  0  0  0  0  0  0  0  0  0
   59.2147   29.4012   48.9918 H   0  0  0  0  0  0  0  0  0  0  0  0
   57.4178   28.4572   47.5387 H   0  0  0  0  0  0  0  0  0  0  0  0
   56.5240   30.4650   45.6460 H   0  0  0  0  0  0  0  0  0  0  0  0
   57.4163   32.3145   47.5130 H   0  0  0  0  0  0  0  0  0  0  0  0
   58.7340   34.4563   47.7112 H   0  0  0  0  0  0  0  0  0  0  0  0
   59.6913   35.5395   45.6651 H   0  0  0  0  0  0  0  0  0  0  0  0
   59.3416   34.4927   43.3952 H   0  0  0  0  0  0  0  0  0  0  0  0
  1  2  1  0
  2  3  1  0
  3  4  1  0
  4  5  1  0
  5  6  1  0
  6  7  1  0
  7  8  2  0
  7  9  2  0
  7 10  1  0
 10 11  2  0
 11 12  1  0
 12 13  2  0
 13 14  1  0
 14 15  2  0
  4 16  2  0
 16 17  1  0
 17 18  2  0
 18 19  1  0
 19 20  2  0
 20 21  1  0
 21 22  2  0
 22  3  1  0
 15 10  1  0
 22 17  1  0
  1 23  1  0
  1 24  1  0
  1 25  1  0
  2 26  1  0
  2 27  1  0
  5 28  1  0
  5 29  1  0
 11 30  1  0
 12 31  1  0
 13 32  1  0
 14 33  1  0
 15 34  1  0
 16 35  1  0
 18 36  1  0
 19 37  1  0
 20 38  1  0
 21 39  1  0
M  CHG  2   6  -1  16   1
M  END
>  <UniqueID>  (2) 
2

>  <SMILES>  (2) 
CCn1c(C[N-]S(=O)(=O)c2ccccc2)[nH+]c2ccccc21

>  <Energy>  (2) 
74.07648341266652

>  <Genealogy>  (2) 
CCn1c(C[N-]S(=O)(=O)c2ccccc2)[nH+]c2ccccc21 (protonated)
CCn1c(C[N-]S(=O)(=O)c2ccccc2)[nH+]c2ccccc21 (3D coordinates assigned)
CCn1c(C[N-]S(=O)(=O)c2ccccc2)[nH+]c2ccccc21 (optimized conformer: 74.07648341266652 kcal/mol)

>  <smiles>  (2) 
CCn1c(CNS(=O)(=O)c2ccccc2)nc2ccccc21

>  <score_type>  (2) 
oracle

>  <origin>  (2) 
adg

>  <m_score__min__energy>  (2) 
-7.7400000000000002

>  <m_primary>  (2) 
energy

$$$$
2:0
     RDKit          3D

 21 23  0  0  0  0  0  0  0  0999 V2000
   59.3770   34.3740   46.2090 C   0  0  0  0  0  0  0  0  0  0  0  0
   59.0380   34.6010   44.8710 C   0  0  0  0  0  0  0  0  0  0  0  0
   58.4070   33.6020   44.1230 C   0  0  0  0  0  0  0  0  0  0  0  0
   58.1120   32.3660   44.7180 C   0  0  0  0  0  0  0  0  0  0  0  0
   58.4550   32.1340   46.0790 C   0  0  0  0  0  0  0  0  0  0  0  0
   59.0880   33.1470   46.8130 C   0  0  0  0  0  0  0  0  0  0  0  0
   58.1530   30.8820   46.6700 C   0  0  0  0  0  0  0  0  0  0  0  0
   57.5360   29.9020   45.9460 N   0  0  0  0  0  0  0  0  0  0  0  0
   57.2150   30.1370   44.6490 C   0  0  0  0  0  0  0  0  0  0  0  0
   56.6110   29.2730   43.8200 N   0  0  0  0  0  0  0  0  0  0  0  0
   56.4920   29.9260   42.6420 C   0  0  0  0  0  0  0  0  0  0  0  0
   57.0240   31.2100   42.7320 C   0  0  0  0  0  0  0  0  0  0  0  0
   57.4830   31.3250   44.0300 C   0  0  0  0  0  0  0  0  0  0  0  0
   59.8738   35.1656   46.7892 H   0  0  0  0  0  0  0  0  0  0  0  0
   59.2689   35.5702   44.4048 H   0  0  0  0  0  0  0  0  0  0  0  0
   58.1426   33.7847   43.0710 H   0  0  0  0  0  0  0  0  0  0  0  0
   59.3576   32.9760   47.8656 H   0  0  0  0  0  0  0  0  0  0  0  0
   58.4180   30.6977   47.7216 H   0  0  0  0  0  0  0  0  0  0  0  0
   56.2980   28.3000   44.0360 H   0  0  0  0  0  0  0  0  0  0  0  0
   56.0367   29.5008   41.7354 H   0  0  0  0  0  0  0  0  0  0  0  0
   57.0691   31.9706   41.9386 H   0  0  0  0  0  0  0  0  0  0  0  0
  1  2  2  0
  2  3  1  0
  3  4  2  0
  4  5  1  0
  5  6  2  0
  5  7  1  0
  7  8  2  0
  8  9  1  0
  9 10  1  0
 10 11  1  0
 11 12  2  0
 12 13  1  0
  6  1  1  0
 13  9  2  0
 13  4  1  0
  1 14  1  0
  2 15  1  0
  3 16  1  0
  6 17  1  0
  7 18  1  0
 10 19  1  0
 11 20  1  0
 12 21  1  0
M  END
>  <UniqueID>  (3) 
3

>  <SMILES>  (3) 
c1ccc2c(c1)cnc1[nH]ccc12

>  <Energy>  (3) 
61.529798860258886

>  <Genealogy>  (3) 
c1ccc2c(c1)cnc1[nH]ccc12 (3D coordinates assigned)
c1ccc2c(c1)cnc1[nH]ccc12 (optimized conformer: 61.529798860258886 kcal/mol)

>  <smiles>  (3) 
c1ccc2c(c1)cnc1[nH]ccc12

>  <score_type>  (3) 
oracle

>  <origin>  (3) 
adg

>  <m_score__min__energy>  (3) 
-6.0199999999999996

>  <m_primary>  (3) 
energy

$$$$
3:0
     RDKit          3D

 34 35  0  0  0  0  0  0  0  0999 V2000
   57.2230   25.6720   46.9870 C   0  0  0  0  0  0  0  0  0  0  0  0
   56.3010   25.7980   45.7800 C   0  0  0  0  0  0  0  0  0  0  0  0
   55.6510   27.1040   45.7680 N   0  0  0  0  0  0  0  0  0  0  0  0
   56.2610   28.2860   45.2400 C   0  0  0  0  0  0  0  0  0  0  0  0
   55.5600   29.2900   44.9400 O   0  0  0  0  0  0  0  0  0  0  0  0
   57.7490   28.3470   45.0830 C   0  0  0  0  0  0  0  0  0  0  0  0
   58.3370   29.2860   46.0600 N   0  0  0  0  0  0  0  0  0  0  0  0
   59.7810   29.0240   46.2680 C   0  0  0  0  0  0  0  0  0  0  0  0
   60.5310   30.2730   46.7720 C   0  0  0  0  0  0  0  0  0  0  0  0
   59.6880   31.1150   47.5320 O   0  0  0  0  0  0  0  0  0  0  0  0
   58.5950   31.6170   46.7700 C   0  0  1  0  0  0  0  0  0  0  0  0
   58.8780   33.0230   46.2920 C   0  0  0  0  0  0  0  0  0  0  0  0
   59.4210   34.0100   47.1320 C   0  0  0  0  0  0  0  0  0  0  0  0
   59.6450   35.2240   46.4980 C   0  0  0  0  0  0  0  0  0  0  0  0
   59.1800   35.0670   44.8930 S   0  0  0  0  0  0  0  0  0  0  0  0
   58.6900   33.4630   44.9820 C   0  0  0  0  0  0  0  0  0  0  0  0
   58.1250   30.6760   45.6320 C   0  0  0  0  0  0  0  0  0  0  0  0
   56.6310   25.7529   47.9106 H   0  0  0  0  0  0  0  0  0  0  0  0
   57.7301   24.6962   46.9608 H   0  0  0  0  0  0  0  0  0  0  0  0
   57.9733   26.4760   46.9608 H   0  0  0  0  0  0  0  0  0  0  0  0
   56.8913   25.6789   44.8595 H   0  0  0  0  0  0  0  0  0  0  0  0
   55.5289   25.0167   45.8389 H   0  0  0  0  0  0  0  0  0  0  0  0
   58.1711   27.3444   45.2461 H   0  0  0  0  0  0  0  0  0  0  0  0
   57.9843   28.6985   44.0676 H   0  0  0  0  0  0  0  0  0  0  0  0
   59.8921   28.2200   47.0105 H   0  0  0  0  0  0  0  0  0  0  0  0
   60.2157   28.7361   45.2994 H   0  0  0  0  0  0  0  0  0  0  0  0
   61.3757   29.9530   47.3998 H   0  0  0  0  0  0  0  0  0  0  0  0
   60.8838   30.8387   45.8971 H   0  0  0  0  0  0  0  0  0  0  0  0
   57.7328   31.6564   47.4520 H   0  0  0  0  0  0  0  0  0  0  0  0
   59.6477   33.8363   48.1943 H   0  0  0  0  0  0  0  0  0  0  0  0
   60.0557   36.1309   46.9658 H   0  0  0  0  0  0  0  0  0  0  0  0
   58.2901   32.8634   44.1510 H   0  0  0  0  0  0  0  0  0  0  0  0
   57.0568   30.8432   45.4294 H   0  0  0  0  0  0  0  0  0  0  0  0
   58.6961   30.8794   44.7142 H   0  0  0  0  0  0  0  0  0  0  0  0
  1  2  1  0
  2  3  1  0
  3  4  1  0
  4  5  2  0
  4  6  1  0
  6  7  1  0
  7  8  1  0
  8  9  1  0
  9 10  1  0
 10 11  1  0
 11 12  1  0
 12 13  1  0
 13 14  2  0
 14 15  1  0
 15 16  1  0
 11 17  1  0
 17  7  1  0
 16 12  2  0
  1 18  1  0
  1 19  1  0
  1 20  1  0
  2 21  1  0
  2 22  1  0
  6 23  1  0
  6 24  1  0
  8 25  1  0
  8 26  1  0
  9 27  1  0
  9 28  1  0
 11 29  1  1
 13 30  1  0
 14 31  1  0
 16 32  1  0
 17 33  1  0
 17 34  1  0
M  CHG  1   3  -1
M  END
>  <UniqueID>  (4) 
4

>  <SMILES>  (4) 
CC[N-]C(=O)CN1CCO[C@@H](c2ccsc2)C1

>  <Energy>  (4) 
64.7536806458206

>  <Genealogy>  (4) 
CC[N-]C(=O)CN1CCOC(c2ccsc2)C1 (protonated)
CC[N-]C(=O)CN1CCO[C@@H](c2ccsc2)C1 (chirality)
CC[N-]C(=O)CN1CCO[C@@H](c2ccsc2)C1 (3D coordinates assigned)
CC[N-]C(=O)CN1CCO[C@@H](c2ccsc2)C1 (nonaromatic ring conformer: 64.7536806458206 kcal/mol)

>  <smiles>  (4) 
CCNC(=O)CN1CCOC(c2ccsc2)C1

>  <score_type>  (4) 
oracle

>  <origin>  (4) 
adg

>  <m_score__min__energy>  (4) 
-8.4399999999999995

>  <m_primary>  (4) 
energy

$$$$
4:0
     RDKit          3D

 60 62  0  0  0  0  0  0  0  0999 V2000
   56.3110   29.7780   43.5970 C   0  0  0  0  0  0  0  0  0  0  0  0
   57.7310   29.4950   44.1140 C   0  0  0  0  0  0  0  0  0  0  0  0
   58.4030   30.6450   44.7870 N   0  0  0  0  0  0  0  0  0  0  0  0
   59.2210   30.2440   45.9620 C   0  0  0  0  0  0  0  0  0  0  0  0
   60.4180   29.3580   45.5900 C   0  0  0  0  0  0  0  0  0  0  0  0
   57.4530   31.7300   45.1660 C   0  0  0  0  0  0  0  0  0  0  0  0
   57.7540   33.0620   44.4460 C   0  0  0  0  0  0  0  0  0  0  0  0
   57.7080   34.2730   45.3910 C   0  0  0  0  0  0  0  0  0  0  0  0
   59.0940   34.8810   45.6530 C   0  0  0  0  0  0  0  0  0  0  0  0
   60.1180   33.8370   45.6150 N   0  0  0  0  0  0  0  0  0  0  0  0
   61.0920   33.6430   46.6620 C   0  0  0  0  0  0  0  0  0  0  0  0
   62.4560   33.8450   46.3920 C   0  0  0  0  0  0  0  0  0  0  0  0
   63.4110   33.7230   47.3960 C   0  0  0  0  0  0  0  0  0  0  0  0
   63.0350   33.3940   48.7000 C   0  0  0  0  0  0  0  0  0  0  0  0
   64.0460   33.2820   49.7130 N   0  0  0  0  0  0  0  0  0  0  0  0
   63.9710   34.1560   50.8820 C   0  0  0  0  0  0  0  0  0  0  0  0
   65.3530   34.2520   51.5420 C   0  0  0  0  0  0  0  0  0  0  0  0
   65.8830   32.9620   51.7900 O   0  0  0  0  0  0  0  0  0  0  0  0
   66.1230   32.3000   50.5610 C   0  0  0  0  0  0  0  0  0  0  0  0
   64.8070   32.0370   49.8200 C   0  0  0  0  0  0  0  0  0  0  0  0
   61.6750   33.1770   49.0040 C   0  0  0  0  0  0  0  0  0  0  0  0
   61.2750   32.8410   50.3130 C   0  0  0  0  0  0  0  0  0  0  0  0
   59.9330   32.6090   50.6070 C   0  0  0  0  0  0  0  0  0  0  0  0
   58.9710   32.7030   49.6030 C   0  0  0  0  0  0  0  0  0  0  0  0
   59.3420   33.0380   48.3000 C   0  0  0  0  0  0  0  0  0  0  0  0
   60.6930   33.2960   47.9800 C   0  0  0  0  0  0  0  0  0  0  0  0
   55.6303   29.9137   44.4504 H   0  0  0  0  0  0  0  0  0  0  0  0
   56.3189   30.6922   42.9854 H   0  0  0  0  0  0  0  0  0  0  0  0
   55.9678   28.9306   42.9854 H   0  0  0  0  0  0  0  0  0  0  0  0
   57.6719   28.6661   44.8348 H   0  0  0  0  0  0  0  0  0  0  0  0
   58.3384   29.2632   43.2267 H   0  0  0  0  0  0  0  0  0  0  0  0
   59.0730   31.0520   44.0910 H   0  0  0  0  0  0  0  0  0  0  0  0
   59.5981   31.1535   46.4525 H   0  0  0  0  0  0  0  0  0  0  0  0
   58.5721   29.6553   46.6271 H   0  0  0  0  0  0  0  0  0  0  0  0
   60.9059   28.9968   46.5073 H   0  0  0  0  0  0  0  0  0  0  0  0
   60.0686   28.4992   44.9981 H   0  0  0  0  0  0  0  0  0  0  0  0
   61.1373   29.9430   44.9981 H   0  0  0  0  0  0  0  0  0  0  0  0
   56.4328   31.4116   44.9056 H   0  0  0  0  0  0  0  0  0  0  0  0
   57.5607   31.9041   46.2468 H   0  0  0  0  0  0  0  0  0  0  0  0
   58.7579   33.0017   44.0005 H   0  0  0  0  0  0  0  0  0  0  0  0
   56.9767   33.2085   43.6816 H   0  0  0  0  0  0  0  0  0  0  0  0
   57.0657   35.0446   44.9414 H   0  0  0  0  0  0  0  0  0  0  0  0
   57.3137   33.9230   46.3564 H   0  0  0  0  0  0  0  0  0  0  0  0
   59.3129   35.6332   44.8808 H   0  0  0  0  0  0  0  0  0  0  0  0
   59.0977   35.3520   46.6471 H   0  0  0  0  0  0  0  0  0  0  0  0
   60.0460   33.1330   44.8480 H   0  0  0  0  0  0  0  0  0  0  0  0
   62.7735   34.1036   45.3711 H   0  0  0  0  0  0  0  0  0  0  0  0
   64.4728   33.8873   47.1604 H   0  0  0  0  0  0  0  0  0  0  0  0
   63.6442   35.1587   50.5692 H   0  0  0  0  0  0  0  0  0  0  0  0
   63.2500   33.7419   51.6022 H   0  0  0  0  0  0  0  0  0  0  0  0
   66.0343   34.7995   50.8741 H   0  0  0  0  0  0  0  0  0  0  0  0
   65.2496   34.7809   52.5009 H   0  0  0  0  0  0  0  0  0  0  0  0
   66.7714   32.9287   49.9330 H   0  0  0  0  0  0  0  0  0  0  0  0
   66.6104   31.3359   50.7684 H   0  0  0  0  0  0  0  0  0  0  0  0
   65.0247   31.6534   48.8123 H   0  0  0  0  0  0  0  0  0  0  0  0
   64.2164   31.2949   50.3771 H   0  0  0  0  0  0  0  0  0  0  0  0
   62.0292   32.7612   51.1098 H   0  0  0  0  0  0  0  0  0  0  0  0
   59.6323   32.3512   51.6332 H   0  0  0  0  0  0  0  0  0  0  0  0
   57.9137   32.5121   49.8388 H   0  0  0  0  0  0  0  0  0  0  0  0
   58.5745   33.1017   47.5145 H   0  0  0  0  0  0  0  0  0  0  0  0
  1  2  1  0
  2  3  1  0
  3  4  1  0
  4  5  1  0
  3  6  1  0
  6  7  1  0
  7  8  1  0
  8  9  1  0
  9 10  1  0
 10 11  1  0
 11 12  2  0
 12 13  1  0
 13 14  2  0
 14 15  1  0
 15 16  1  0
 16 17  1  0
 17 18  1  0
 18 19  1  0
 19 20  1  0
 14 21  1  0
 21 22  2  0
 22 23  1  0
 23 24  2  0
 24 25  1  0
 25 26  2  0
 26 11  1  0
 20 15  1  0
 26 21  1  0
  1 27  1  0
  1 28  1  0
  1 29  1  0
  2 30  1  0
  2 31  1  0
  3 32  1  0
  4 33  1  0
  4 34  1  0
  5 35  1  0
  5 36  1  0
  5 37  1  0
  6 38  1  0
  6 39  1  0
  7 40  1  0
  7 41  1  0
  8 42  1  0
  8 43  1  0
  9 44  1  0
  9 45  1  0
 10 46  1  0
 12 47  1  0
 13 48  1  0
 16 49  1  0
 16 50  1  0
 17 51  1  0
 17 52  1  0
 19 53  1  0
 19 54  1  0
 20 55  1  0
 20 56  1  0
 22 57  1  0
 23 58  1  0
 24 59  1  0
 25 60  1  0
M  CHG  1   3   1
M  END
>  <UniqueID>  (5) 
5

>  <SMILES>  (5) 
CC[NH+](CC)CCCCNc1ccc(N2CCOCC2)c2ccccc12

>  <Energy>  (5) 
75.20369546268705

>  <Genealogy>  (5) 
CC[NH+](CC)CCCCNc1ccc(N2CCOCC2)c2ccccc12 (protonated)
CC[NH+](CC)CCCCNc1ccc(N2CCOCC2)c2ccccc12 (3D coordinates assigned)
CC[NH+](CC)CCCCNc1ccc(N2CCOCC2)c2ccccc12 (nonaromatic ring conformer: 75.20369546268705 kcal/mol)

>  <smiles>  (5) 
CCN(CC)CCCCNc1ccc(N2CCOCC2)c2ccccc12

>  <score_type>  (5) 
oracle

>  <origin>  (5) 
adg

>  <m_score__min__energy>  (5) 
-5.7400000000000002

>  <m_primary>  (5) 
energy

$$$$
5:0
     RDKit          3D

 39 41  0  0  0  0  0  0  0  0999 V2000
   57.0440   32.2170   44.8600 C   0  0  0  0  0  0  0  0  0  0  0  0
   56.9790   30.8410   45.2210 O   0  0  0  0  0  0  0  0  0  0  0  0
   58.0950   30.0010   45.3570 C   0  0  0  0  0  0  0  0  0  0  0  0
   58.4550   29.0770   44.3560 C   0  0  0  0  0  0  0  0  0  0  0  0
   59.5800   28.2650   44.5140 C   0  0  0  0  0  0  0  0  0  0  0  0
   60.3620   28.3710   45.6630 C   0  0  0  0  0  0  0  0  0  0  0  0
   60.0170   29.2810   46.6640 C   0  0  0  0  0  0  0  0  0  0  0  0
   58.8710   30.0860   46.5320 C   0  0  0  0  0  0  0  0  0  0  0  0
   58.5130   31.0350   47.5540 N   0  0  0  0  0  0  0  0  0  0  0  0
   58.9930   30.9780   48.9090 C   0  0  0  0  0  0  0  0  0  0  0  0
   59.7710   30.0590   49.2800 O   0  0  0  0  0  0  0  0  0  0  0  0
   58.4880   31.9620   49.9230 C   0  0  0  0  0  0  0  0  0  0  0  0
   59.2750   33.2760   49.8670 C   0  0  0  0  0  0  0  0  0  0  0  0
   59.8380   33.5090   48.5270 N   0  0  0  0  0  0  0  0  0  0  0  0
   59.0770   33.8090   47.4410 C   0  0  0  0  0  0  0  0  0  0  0  0
   57.8190   33.8950   47.4740 O   0  0  0  0  0  0  0  0  0  0  0  0
   59.9920   34.0570   46.0450 S   0  0  0  0  0  0  0  0  0  0  0  0
   61.4320   33.7790   46.8630 C   0  0  0  0  0  0  0  0  0  0  0  0
   62.7260   33.8210   46.3510 C   0  0  0  0  0  0  0  0  0  0  0  0
   63.7950   33.5910   47.2270 C   0  0  0  0  0  0  0  0  0  0  0  0
   63.5520   33.3170   48.5860 C   0  0  0  0  0  0  0  0  0  0  0  0
   62.2380   33.2660   49.0810 C   0  0  0  0  0  0  0  0  0  0  0  0
   61.1680   33.5020   48.2010 C   0  0  0  0  0  0  0  0  0  0  0  0
   57.0731   32.8339   45.7703 H   0  0  0  0  0  0  0  0  0  0  0  0
   57.9517   32.3976   44.2654 H   0  0  0  0  0  0  0  0  0  0  0  0
   56.1574   32.4824   44.2654 H   0  0  0  0  0  0  0  0  0  0  0  0
   57.8457   28.9947   43.4439 H   0  0  0  0  0  0  0  0  0  0  0  0
   59.8494   27.5410   43.7309 H   0  0  0  0  0  0  0  0  0  0  0  0
   61.2527   27.7364   45.7813 H   0  0  0  0  0  0  0  0  0  0  0  0
   60.6458   29.3691   47.5623 H   0  0  0  0  0  0  0  0  0  0  0  0
   57.7580   31.7240   47.3410 H   0  0  0  0  0  0  0  0  0  0  0  0
   57.4271   32.1713   49.7212 H   0  0  0  0  0  0  0  0  0  0  0  0
   58.6158   31.5242   50.9240 H   0  0  0  0  0  0  0  0  0  0  0  0
   58.6014   34.1076   50.1216 H   0  0  0  0  0  0  0  0  0  0  0  0
   60.1059   33.2124   50.5850 H   0  0  0  0  0  0  0  0  0  0  0  0
   62.9046   34.0295   45.2858 H   0  0  0  0  0  0  0  0  0  0  0  0
   64.8283   33.6247   46.8512 H   0  0  0  0  0  0  0  0  0  0  0  0
   64.3982   33.1413   49.2665 H   0  0  0  0  0  0  0  0  0  0  0  0
   62.0496   33.0446   50.1419 H   0  0  0  0  0  0  0  0  0  0  0  0
  1  2  1  0
  2  3  1  0
  3  4  2  0
  4  5  1  0
  5  6  2  0
  6  7  1  0
  7  8  2  0
  8  9  1  0
  9 10  1  0
 10 11  2  0
 10 12  1  0
 12 13  1  0
 13 14  1  0
 14 15  1  0
 15 16  2  0
 15 17  1  0
 17 18  1  0
 18 19  2  0
 19 20  1  0
 20 21  2  0
 21 22  1  0
 22 23  2  0
  8  3  1  0
 23 14  1  0
 23 18  1  0
  1 24  1  0
  1 25  1  0
  1 26  1  0
  4 27  1  0
  5 28  1  0
  6 29  1  0
  7 30  1  0
  9 31  1  0
 12 32  1  0
 12 33  1  0
 13 34  1  0
 13 35  1  0
 19 36  1  0
 20 37  1  0
 21 38  1  0
 22 39  1  0
M  END
>  <UniqueID>  (6) 
6

>  <SMILES>  (6) 
COc1ccccc1NC(=O)CCn1c(=O)sc2ccccc21

>  <Energy>  (6) 
73.84177214577336

>  <Genealogy>  (6) 
COc1ccccc1NC(=O)CCn1c(=O)sc2ccccc21 (3D coordinates assigned)
COc1ccccc1NC(=O)CCn1c(=O)sc2ccccc21 (optimized conformer: 73.84177214577336 kcal/mol)

>  <smiles>  (6) 
COc1ccccc1NC(=O)CCn1c(=O)sc2ccccc21

>  <score_type>  (6) 
oracle

>  <origin>  (6) 
adg

>  <m_score__min__energy>  (6) 
-7.5

>  <m_primary>  (6) 
energy

$$$$
6:0
     RDKit          3D

 32 33  0  0  0  0  0  0  0  0999 V2000
   59.9830   34.5720   48.0890 C   0  0  0  0  0  0  0  0  0  0  0  0
   59.1890   33.8260   47.0590 C   0  0  0  0  0  0  0  0  0  0  0  0
   59.1060   32.4260   47.1070 C   0  0  0  0  0  0  0  0  0  0  0  0
   58.3970   31.7260   46.1260 C   0  0  0  0  0  0  0  0  0  0  0  0
   57.7640   32.4190   45.0820 C   0  0  0  0  0  0  0  0  0  0  0  0
   57.0360   31.6600   44.0080 C   0  0  0  0  0  0  0  0  0  0  0  0
   56.3670   30.4940   44.5980 N   0  0  0  0  0  0  0  0  0  0  0  0
   56.8610   29.2410   44.0110 C   0  0  0  0  0  0  0  0  0  0  0  0
   57.9680   28.6650   44.8550 C   0  0  0  0  0  0  0  0  0  0  0  0
   59.3080   28.8760   44.4990 C   0  0  0  0  0  0  0  0  0  0  0  0
   60.3230   28.3540   45.3020 C   0  0  0  0  0  0  0  0  0  0  0  0
   60.0130   27.6490   46.4230 N   0  0  0  0  0  0  0  0  0  0  0  0
   58.7240   27.4330   46.7940 C   0  0  0  0  0  0  0  0  0  0  0  0
   57.6760   27.9380   46.0180 C   0  0  0  0  0  0  0  0  0  0  0  0
   57.8760   33.8150   45.0150 C   0  0  0  0  0  0  0  0  0  0  0  0
   58.5840   34.5150   45.9960 C   0  0  0  0  0  0  0  0  0  0  0  0
   59.6579   34.2666   49.0945 H   0  0  0  0  0  0  0  0  0  0  0  0
   61.0518   34.3438   47.9641 H   0  0  0  0  0  0  0  0  0  0  0  0
   59.8218   35.6529   47.9641 H   0  0  0  0  0  0  0  0  0  0  0  0
   59.6014   31.8763   47.9208 H   0  0  0  0  0  0  0  0  0  0  0  0
   58.3350   30.6287   46.1724 H   0  0  0  0  0  0  0  0  0  0  0  0
   56.2860   32.3151   43.5407 H   0  0  0  0  0  0  0  0  0  0  0  0
   57.7550   31.3229   43.2468 H   0  0  0  0  0  0  0  0  0  0  0  0
   56.6000   30.4770   45.6180 H   0  0  0  0  0  0  0  0  0  0  0  0
   56.0347   28.5171   43.9541 H   0  0  0  0  0  0  0  0  0  0  0  0
   57.2520   29.4490   43.0041 H   0  0  0  0  0  0  0  0  0  0  0  0
   59.5571   29.4487   43.5935 H   0  0  0  0  0  0  0  0  0  0  0  0
   61.3763   28.5131   45.0276 H   0  0  0  0  0  0  0  0  0  0  0  0
   58.5043   26.8597   47.7067 H   0  0  0  0  0  0  0  0  0  0  0  0
   56.6315   27.7664   46.3173 H   0  0  0  0  0  0  0  0  0  0  0  0
   57.4040   34.3624   44.1858 H   0  0  0  0  0  0  0  0  0  0  0  0
   58.6675   35.6101   45.9349 H   0  0  0  0  0  0  0  0  0  0  0  0
  1  2  1  0
  2  3  2  0
  3  4  1  0
  4  5  2  0
  5  6  1  0
  6  7  1  0
  7  8  1  0
  8  9  1  0
  9 10  2  0
 10 11  1  0
 11 12  2  0
 12 13  1  0
 13 14  2  0
  5 15  1  0
 15 16  2  0
 16  2  1  0
 14  9  1  0
  1 17  1  0
  1 18  1  0
  1 19  1  0
  3 20  1  0
  4 21  1  0
  6 22  1  0
  6 23  1  0
  7 24  1  0
  8 25  1  0
  8 26  1  0
 10 27  1  0
 11 28  1  0
 13 29  1  0
 14 30  1  0
 15 31  1  0
 16 32  1  0
M  END
>  <UniqueID>  (7) 
7

>  <SMILES>  (7) 
Cc1ccc(CNCc2ccncc2)cc1

>  <Energy>  (7) 
30.374343171265625

>  <Genealogy>  (7) 
Cc1ccc(CNCc2ccncc2)cc1 (3D coordinates assigned)
Cc1ccc(CNCc2ccncc2)cc1 (optimized conformer: 30.374343171265625 kcal/mol)

>  <smiles>  (7) 
Cc1ccc(CNCc2ccncc2)cc1

>  <score_type>  (7) 
oracle

>  <origin>  (7) 
adg

>  <m_score__min__energy>  (7) 
-6.0199999999999996

>  <m_primary>  (7) 
energy

$$$$
7:0
     RDKit          3D

 56 57  0  0  0  0  0  0  0  0999 V2000
   59.9840   26.8840   47.5520 C   0  0  0  0  0  0  0  0  0  0  0  0
   59.9010   26.8030   46.0200 C   0  0  0  0  0  0  0  0  0  0  0  0
   58.5270   26.8280   45.4540 N   0  0  0  0  0  0  0  0  0  0  0  0
   57.6650   25.6450   45.6760 C   0  0  0  0  0  0  0  0  0  0  0  0
   56.3530   26.0540   46.3420 C   0  0  0  0  0  0  0  0  0  0  0  0
   58.3980   27.4420   44.1120 C   0  0  0  0  0  0  0  0  0  0  0  0
   57.3950   28.6120   44.0690 C   0  0  0  0  0  0  0  0  0  0  0  0
   58.0520   29.9170   43.9280 N   0  0  0  0  0  0  0  0  0  0  0  0
   57.9530   30.9870   44.8830 C   0  0  0  0  0  0  0  0  0  0  0  0
   57.0910   32.0310   44.6940 N   0  0  0  0  0  0  0  0  0  0  0  0
   56.9420   33.0230   45.6260 C   0  0  0  0  0  0  0  0  0  0  0  0
   57.6740   33.0040   46.7780 N   0  0  0  0  0  0  0  0  0  0  0  0
   58.5080   31.9570   46.9950 C   0  0  0  0  0  0  0  0  0  0  0  0
   58.6800   30.9660   46.0730 C   0  0  0  0  0  0  0  0  0  0  0  0
   59.6670   30.1260   46.5530 C   0  0  0  0  0  0  0  0  0  0  0  0
   60.0520   30.6760   47.7750 C   0  0  0  0  0  0  0  0  0  0  0  0
   59.3380   31.7990   48.0420 N   0  0  0  0  0  0  0  0  0  0  0  0
   59.5540   32.7500   49.1360 C   0  0  0  0  0  0  0  0  0  0  0  0
   60.9380   33.4120   49.0480 C   0  0  0  0  0  0  0  0  0  0  0  0
   61.0500   34.3170   47.8770 N   0  0  0  0  0  0  0  0  0  0  0  0
   61.7070   33.6420   46.7340 C   0  0  0  0  0  0  0  0  0  0  0  0
   63.2050   33.5000   46.9900 C   0  0  0  0  0  0  0  0  0  0  0  0
   59.7730   34.9640   47.4850 C   0  0  0  0  0  0  0  0  0  0  0  0
   59.6360   35.2130   45.9750 C   0  0  0  0  0  0  0  0  0  0  0  0
   59.2637   26.1811   47.9959 H   0  0  0  0  0  0  0  0  0  0  0  0
   61.0012   26.6217   47.8785 H   0  0  0  0  0  0  0  0  0  0  0  0
   59.7466   27.9072   47.8785 H   0  0  0  0  0  0  0  0  0  0  0  0
   60.4549   27.6577   45.6044 H   0  0  0  0  0  0  0  0  0  0  0  0
   60.3246   25.8259   45.7447 H   0  0  0  0  0  0  0  0  0  0  0  0
   57.4466   25.1700   44.7082 H   0  0  0  0  0  0  0  0  0  0  0  0
   58.1928   24.9400   46.3351 H   0  0  0  0  0  0  0  0  0  0  0  0
   56.4698   26.0176   47.4352 H   0  0  0  0  0  0  0  0  0  0  0  0
   56.0894   27.0770   46.0353 H   0  0  0  0  0  0  0  0  0  0  0  0
   55.5548   25.3621   46.0353 H   0  0  0  0  0  0  0  0  0  0  0  0
   59.3850   27.8171   43.8036 H   0  0  0  0  0  0  0  0  0  0  0  0
   58.0190   26.6637   43.4334 H   0  0  0  0  0  0  0  0  0  0  0  0
   56.7187   28.4644   43.2141 H   0  0  0  0  0  0  0  0  0  0  0  0
   56.8490   28.6166   45.0239 H   0  0  0  0  0  0  0  0  0  0  0  0
   58.4260   30.1520   42.9790 H   0  0  0  0  0  0  0  0  0  0  0  0
   56.2281   33.8401   45.4453 H   0  0  0  0  0  0  0  0  0  0  0  0
   60.0635   29.2187   46.0740 H   0  0  0  0  0  0  0  0  0  0  0  0
   60.8280   30.2572   48.4326 H   0  0  0  0  0  0  0  0  0  0  0  0
   58.7812   33.5313   49.0871 H   0  0  0  0  0  0  0  0  0  0  0  0
   59.4972   32.1987   50.0862 H   0  0  0  0  0  0  0  0  0  0  0  0
   61.1115   33.9948   49.9647 H   0  0  0  0  0  0  0  0  0  0  0  0
   61.6881   32.6155   48.9338 H   0  0  0  0  0  0  0  0  0  0  0  0
   61.2658   32.6433   46.6004 H   0  0  0  0  0  0  0  0  0  0  0  0
   61.5555   34.2463   45.8274 H   0  0  0  0  0  0  0  0  0  0  0  0
   63.3917   33.4823   48.0739 H   0  0  0  0  0  0  0  0  0  0  0  0
   63.5667   32.5635   46.5403 H   0  0  0  0  0  0  0  0  0  0  0  0
   63.7362   34.3518   46.5403 H   0  0  0  0  0  0  0  0  0  0  0  0
   58.9442   34.3155   47.8052 H   0  0  0  0  0  0  0  0  0  0  0  0
   59.7528   35.9496   47.9731 H   0  0  0  0  0  0  0  0  0  0  0  0
   59.1120   36.1654   45.8065 H   0  0  0  0  0  0  0  0  0  0  0  0
   60.6359   35.2589   45.5187 H   0  0  0  0  0  0  0  0  0  0  0  0
   59.0621   34.3930   45.5187 H   0  0  0  0  0  0  0  0  0  0  0  0
  1  2  1  0
  2  3  1  0
  3  4  1  0
  4  5  1  0
  3  6  1  0
  6  7  1  0
  7  8  1  0
  8  9  1  0
  9 10  2  0
 10 11  1  0
 11 12  2  0
 12 13  1  0
 13 14  2  0
 14 15  1  0
 15 16  2  0
 16 17  1  0
 17 18  1  0
 18 19  1  0
 19 20  1  0
 20 21  1  0
 21 22  1  0
 20 23  1  0
 23 24  1  0
 14  9  1  0
 17 13  1  0
  1 25  1  0
  1 26  1  0
  1 27  1  0
  2 28  1  0
  2 29  1  0
  4 30  1  0
  4 31  1  0
  5 32  1  0
  5 33  1  0
  5 34  1  0
  6 35  1  0
  6 36  1  0
  7 37  1  0
  7 38  1  0
  8 39  1  0
 11 40  1  0
 15 41  1  0
 16 42  1  0
 18 43  1  0
 18 44  1  0
 19 45  1  0
 19 46  1  0
 21 47  1  0
 21 48  1  0
 22 49  1  0
 22 50  1  0
 22 51  1  0
 23 52  1  0
 23 53  1  0
 24 54  1  0
 24 55  1  0
 24 56  1  0
M  END
>  <UniqueID>  (8) 
8

>  <SMILES>  (8) 
CCN(CC)CCNc1ncnc2c1ccn2CCN(CC)CC

>  <Energy>  (8) 
100.62585931911835

>  <Genealogy>  (8) 
CCN(CC)CCNc1ncnc2c1ccn2CCN(CC)CC (3D coordinates assigned)
CCN(CC)CCNc1ncnc2c1ccn2CCN(CC)CC (optimized conformer: 100.62585931911835 kcal/mol)

>  <smiles>  (8) 
CCN(CC)CCNc1ncnc2c1ccn2CCN(CC)CC

>  <score_type>  (8) 
oracle

>  <origin>  (8) 
adg

>  <m_score__min__energy>  (8) 
-5.9100000000000001

>  <m_primary>  (8) 
energy

$$$$
8:0
     RDKit          3D

 39 39  0  0  0  0  0  0  0  0999 V2000
   60.7060   28.9590   45.0920 C   0  0  0  0  0  0  0  0  0  0  0  0
   60.6620   29.8530   46.3300 C   0  0  0  0  0  0  0  0  0  0  0  0
   59.4440   29.5720   47.2270 C   0  0  0  0  0  0  0  0  0  0  0  0
   58.4040   28.5970   46.6280 C   0  0  0  0  0  0  0  0  0  0  0  0
   57.2530   29.2550   45.9890 N   0  0  0  0  0  0  0  0  0  0  0  0
   57.0030   28.7620   44.6270 C   0  0  0  0  0  0  0  0  0  0  0  0
   56.0630   29.7120   43.8800 C   0  0  0  0  0  0  0  0  0  0  0  0
   56.0190   31.0230   44.5290 N   0  0  0  0  0  0  0  0  0  0  0  0
   57.4070   31.9860   44.1130 S   0  0  0  0  0  0  0  0  0  0  0  0
   58.6720   31.3350   44.5960 O   0  0  0  0  0  0  0  0  0  0  0  0
   57.4730   32.1530   42.6200 O   0  0  0  0  0  0  0  0  0  0  0  0
   57.2470   33.5890   44.8750 C   0  0  0  0  0  0  0  0  0  0  0  0
   58.2350   33.7290   45.9990 C   0  0  0  0  0  0  0  0  0  0  0  0
   59.4190   34.4620   45.8150 C   0  0  0  0  0  0  0  0  0  0  0  0
   60.3500   34.5690   46.8540 C   0  0  0  0  0  0  0  0  0  0  0  0
   60.1090   33.9390   48.0780 C   0  0  0  0  0  0  0  0  0  0  0  0
   58.9440   33.1890   48.2600 C   0  0  0  0  0  0  0  0  0  0  0  0
   58.0110   33.0810   47.2260 C   0  0  0  0  0  0  0  0  0  0  0  0
   60.7579   27.9050   45.4025 H   0  0  0  0  0  0  0  0  0  0  0  0
   59.7988   29.1200   44.4910 H   0  0  0  0  0  0  0  0  0  0  0  0
   61.5930   29.2083   44.4910 H   0  0  0  0  0  0  0  0  0  0  0  0
   61.5768   29.6850   46.9172 H   0  0  0  0  0  0  0  0  0  0  0  0
   60.5842   30.8941   45.9834 H   0  0  0  0  0  0  0  0  0  0  0  0
   59.8079   29.1443   48.1729 H   0  0  0  0  0  0  0  0  0  0  0  0
   58.9265   30.5343   47.3541 H   0  0  0  0  0  0  0  0  0  0  0  0
   58.9087   27.9765   45.8728 H   0  0  0  0  0  0  0  0  0  0  0  0
   58.0041   28.0092   47.4674 H   0  0  0  0  0  0  0  0  0  0  0  0
   57.4030   30.2900   45.9700 H   0  0  0  0  0  0  0  0  0  0  0  0
   57.9576   28.6958   44.0845 H   0  0  0  0  0  0  0  0  0  0  0  0
   56.5331   27.7693   44.6874 H   0  0  0  0  0  0  0  0  0  0  0  0
   56.4208   29.8337   42.8470 H   0  0  0  0  0  0  0  0  0  0  0  0
   55.0505   29.2822   43.8886 H   0  0  0  0  0  0  0  0  0  0  0  0
   57.4380   34.3694   44.1237 H   0  0  0  0  0  0  0  0  0  0  0  0
   56.2284   33.6962   45.2763 H   0  0  0  0  0  0  0  0  0  0  0  0
   59.6150   34.9536   44.8507 H   0  0  0  0  0  0  0  0  0  0  0  0
   61.2727   35.1497   46.7073 H   0  0  0  0  0  0  0  0  0  0  0  0
   60.8362   34.0335   48.8979 H   0  0  0  0  0  0  0  0  0  0  0  0
   58.7613   32.6827   49.2193 H   0  0  0  0  0  0  0  0  0  0  0  0
   57.0972   32.4864   47.3726 H   0  0  0  0  0  0  0  0  0  0  0  0
  1  2  1  0
  2  3  1  0
  3  4  1  0
  4  5  1  0
  5  6  1  0
  6  7  1  0
  7  8  1  0
  8  9  1  0
  9 10  2  0
  9 11  2  0
  9 12  1  0
 12 13  1  0
 13 14  2  0
 14 15  1  0
 15 16  2  0
 16 17  1  0
 17 18  2  0
 18 13  1  0
  1 19  1  0
  1 20  1  0
  1 21  1  0
  2 22  1  0
  2 23  1  0
  3 24  1  0
  3 25  1  0
  4 26  1  0
  4 27  1  0
  5 28  1  0
  6 29  1  0
  6 30  1  0
  7 31  1  0
  7 32  1  0
 12 33  1  0
 12 34  1  0
 14 35  1  0
 15 36  1  0
 16 37  1  0
 17 38  1  0
 18 39  1  0
M  CHG  1   8  -1
M  END
>  <UniqueID>  (9) 
9

>  <SMILES>  (9) 
CCCCNCC[N-]S(=O)(=O)Cc1ccccc1

>  <Energy>  (9) 
21.81745124147756

>  <Genealogy>  (9) 
CCCCNCC[N-]S(=O)(=O)Cc1ccccc1 (protonated)
CCCCNCC[N-]S(=O)(=O)Cc1ccccc1 (3D coordinates assigned)
CCCCNCC[N-]S(=O)(=O)Cc1ccccc1 (optimized conformer: 21.81745124147756 kcal/mol)

>  <smiles>  (9) 
CCCCNCCNS(=O)(=O)Cc1ccccc1

>  <score_type>  (9) 
oracle

>  <origin>  (9) 
adg

>  <m_score__min__energy>  (9) 
-9.2599999999999998

>  <m_primary>  (9) 
energy

$$$$
9:0
     RDKit          3D

 43 44  0  0  0  0  0  0  0  0999 V2000
   59.8530   34.9710   47.3040 C   0  0  0  0  0  0  0  0  0  0  0  0
   59.5600   34.6970   45.9390 O   0  0  0  0  0  0  0  0  0  0  0  0
   58.8270   33.5860   45.4930 C   0  0  0  0  0  0  0  0  0  0  0  0
   58.5170   32.5800   46.4130 C   0  0  0  0  0  0  0  0  0  0  0  0
   57.7950   31.4520   46.0170 C   0  0  0  0  0  0  0  0  0  0  0  0
   57.3640   31.3040   44.6860 C   0  0  0  0  0  0  0  0  0  0  0  0
   56.6060   30.0890   44.2780 C   0  0  0  0  0  0  0  0  0  0  0  0
   55.5450   29.7830   44.8860 O   0  0  0  0  0  0  0  0  0  0  0  0
   57.0760   29.1850   43.1720 C   0  0  0  0  0  0  0  0  0  0  0  0
   57.3950   27.8620   43.7180 N   0  0  0  0  0  0  0  0  0  0  0  0
   58.8130   27.7810   44.0800 C   0  0  0  0  0  0  0  0  0  0  0  0
   58.9550   27.8860   45.5710 C   0  0  0  0  0  0  0  0  0  0  0  0
   58.1560   27.2930   46.5390 C   0  0  0  0  0  0  0  0  0  0  0  0
   57.0130   26.3590   46.3030 C   0  0  0  0  0  0  0  0  0  0  0  0
   58.5180   27.7570   47.7500 N   0  0  0  0  0  0  0  0  0  0  0  0
   59.5070   28.6240   47.5950 N   0  0  0  0  0  0  0  0  0  0  0  0
   60.1140   29.3780   48.6870 C   0  0  0  0  0  0  0  0  0  0  0  0
   59.8050   28.7250   46.2800 C   0  0  0  0  0  0  0  0  0  0  0  0
   60.7670   29.7140   45.6900 C   0  0  0  0  0  0  0  0  0  0  0  0
   57.6740   32.3240   43.7630 C   0  0  0  0  0  0  0  0  0  0  0  0
   58.3990   33.4500   44.1600 C   0  0  0  0  0  0  0  0  0  0  0  0
   59.2018   34.3620   47.9482 H   0  0  0  0  0  0  0  0  0  0  0  0
   60.9053   34.7254   47.5096 H   0  0  0  0  0  0  0  0  0  0  0  0
   59.6784   36.0374   47.5096 H   0  0  0  0  0  0  0  0  0  0  0  0
   58.8448   32.6778   47.4585 H   0  0  0  0  0  0  0  0  0  0  0  0
   57.5606   30.6701   46.7544 H   0  0  0  0  0  0  0  0  0  0  0  0
   56.2820   29.0874   42.4170 H   0  0  0  0  0  0  0  0  0  0  0  0
   57.9760   29.6145   42.7076 H   0  0  0  0  0  0  0  0  0  0  0  0
   57.2100   27.1500   42.9710 H   0  0  0  0  0  0  0  0  0  0  0  0
   59.2242   26.8193   43.7392 H   0  0  0  0  0  0  0  0  0  0  0  0
   59.3618   28.6048   43.6002 H   0  0  0  0  0  0  0  0  0  0  0  0
   56.6058   26.0263   47.2692 H   0  0  0  0  0  0  0  0  0  0  0  0
   56.2277   26.8772   45.7331 H   0  0  0  0  0  0  0  0  0  0  0  0
   57.3643   25.4862   45.7331 H   0  0  0  0  0  0  0  0  0  0  0  0
   58.0760   27.5110   48.6650 H   0  0  0  0  0  0  0  0  0  0  0  0
   59.7798   28.9629   49.6493 H   0  0  0  0  0  0  0  0  0  0  0  0
   61.2095   29.3065   48.6174 H   0  0  0  0  0  0  0  0  0  0  0  0
   59.8102   30.4329   48.6174 H   0  0  0  0  0  0  0  0  0  0  0  0
   61.2864   30.2480   46.4994 H   0  0  0  0  0  0  0  0  0  0  0  0
   61.5037   29.1833   45.0690 H   0  0  0  0  0  0  0  0  0  0  0  0
   60.2161   30.4358   45.0690 H   0  0  0  0  0  0  0  0  0  0  0  0
   57.3411   32.2319   42.7186 H   0  0  0  0  0  0  0  0  0  0  0  0
   58.6365   34.2345   43.4264 H   0  0  0  0  0  0  0  0  0  0  0  0
  1  2  1  0
  2  3  1  0
  3  4  2  0
  4  5  1  0
  5  6  2  0
  6  7  1  0
  7  8  2  0
  7  9  1  0
  9 10  1  0
 10 11  1  0
 11 12  1  0
 12 13  1  0
 13 14  1  0
 13 15  2  0
 15 16  1  0
 16 17  1  0
 16 18  1  0
 18 19  1  0
  6 20  1  0
 20 21  2  0
 21  3  1  0
 18 12  2  0
  1 22  1  0
  1 23  1  0
  1 24  1  0
  4 25  1  0
  5 26  1  0
  9 27  1  0
  9 28  1  0
 10 29  1  0
 11 30  1  0
 11 31  1  0
 14 32  1  0
 14 33  1  0
 14 34  1  0
 15 35  1  0
 17 36  1  0
 17 37  1  0
 17 38  1  0
 19 39  1  0
 19 40  1  0
 19 41  1  0
 20 42  1  0
 21 43  1  0
M  CHG  1  15   1
M  END
>  <UniqueID>  (10) 
10

>  <SMILES>  (10) 
COc1ccc(C(=O)CNCc2c(C)[nH+]n(C)c2C)cc1

>  <Energy>  (10) 
67.64349119142234

>  <Genealogy>  (10) 
COc1ccc(C(=O)CNCc2c(C)[nH+]n(C)c2C)cc1 (protonated)
COc1ccc(C(=O)CNCc2c(C)[nH+]n(C)c2C)cc1 (3D coordinates assigned)
COc1ccc(C(=O)CNCc2c(C)[nH+]n(C)c2C)cc1 (optimized conformer: 67.64349119142234 kcal/mol)

>  <smiles>  (10) 
COc1ccc(C(=O)CNCc2c(C)nn(C)c2C)cc1

>  <score_type>  (10) 
oracle

>  <origin>  (10) 
adg

>  <m_score__min__energy>  (10) 
-5.6699999999999999

>  <m_primary>  (10) 
energy

$$$$
10:0
     RDKit          3D

 61 65  0  0  0  0  0  0  0  0999 V2000
   57.4800   22.9960   44.2620 C   0  0  0  0  0  0  0  0  0  0  0  0
   58.0750   24.2750   44.7710 C   0  0  0  0  0  0  0  0  0  0  0  0
   59.1930   24.2460   45.6180 C   0  0  0  0  0  0  0  0  0  0  0  0
   59.7240   25.4320   46.1330 C   0  0  0  0  0  0  0  0  0  0  0  0
   59.1360   26.6660   45.8210 C   0  0  0  0  0  0  0  0  0  0  0  0
   59.6400   27.8290   46.3430 N   0  0  0  0  0  0  0  0  0  0  0  0
   59.0390   29.0060   46.0390 C   0  0  0  0  0  0  0  0  0  0  0  0
   57.9350   29.0850   45.2260 C   0  0  0  0  0  0  0  0  0  0  0  0
   57.3890   27.9360   44.6630 C   0  0  0  0  0  0  0  0  0  0  0  0
   57.9940   26.7010   44.9650 C   0  0  0  0  0  0  0  0  0  0  0  0
   57.4740   25.5040   44.4520 C   0  0  0  0  0  0  0  0  0  0  0  0
   57.4720   30.5100   45.1290 C   0  0  0  0  0  0  0  0  0  0  0  0
   58.4320   31.2080   45.9950 N   0  0  0  0  0  0  0  0  0  0  0  0
   59.3320   30.3420   46.5070 C   0  0  0  0  0  0  0  0  0  0  0  0
   60.3460   30.7630   47.3600 C   0  0  0  0  0  0  0  0  0  0  0  0
   60.3990   32.1260   47.7240 C   0  0  0  0  0  0  0  0  0  0  0  0
   59.4330   33.0200   47.1880 C   0  0  0  0  0  0  0  0  0  0  0  0
   58.4530   32.5340   46.2940 C   0  0  0  0  0  0  0  0  0  0  0  0
   57.6020   33.3120   45.7800 O   0  0  0  0  0  0  0  0  0  0  0  0
   59.5150   34.4860   47.5260 C   0  0  0  0  0  0  0  0  0  0  0  0
   60.0170   34.6690   48.8450 O   0  0  0  0  0  0  0  0  0  0  0  0
   61.0270   33.8630   49.3760 C   0  0  0  0  0  0  0  0  0  0  0  0
   61.5650   34.1940   50.4650 O   0  0  0  0  0  0  0  0  0  0  0  0
   61.5140   32.6370   48.6350 C   0  0  2  0  0  0  0  0  0  0  0  0
   62.7100   33.0980   47.7530 C   0  0  0  0  0  0  0  0  0  0  0  0
   61.7790   31.6480   49.6430 O   0  0  0  0  0  0  0  0  0  0  0  0
   60.9500   31.6500   50.7920 C   0  0  0  0  0  0  0  0  0  0  0  0
   59.5800   31.0580   50.4480 C   0  0  0  0  0  0  0  0  0  0  0  0
   58.6190   32.1320   50.1560 N   0  0  0  0  0  0  0  0  0  0  0  0
   57.6610   32.3260   51.2560 C   0  0  0  0  0  0  0  0  0  0  0  0
   58.3470   32.5550   52.6150 C   0  0  0  0  0  0  0  0  0  0  0  0
   58.9840   33.9410   52.7300 C   0  0  0  0  0  0  0  0  0  0  0  0
   58.9060   34.5920   51.4930 O   0  0  0  0  0  0  0  0  0  0  0  0
   57.1860   22.3641   45.1131 H   0  0  0  0  0  0  0  0  0  0  0  0
   56.5944   23.2217   43.6498 H   0  0  0  0  0  0  0  0  0  0  0  0
   58.2231   22.4640   43.6498 H   0  0  0  0  0  0  0  0  0  0  0  0
   59.6553   23.2825   45.8788 H   0  0  0  0  0  0  0  0  0  0  0  0
   60.6080   25.3970   46.7866 H   0  0  0  0  0  0  0  0  0  0  0  0
   60.4690   27.8160   46.9760 H   0  0  0  0  0  0  0  0  0  0  0  0
   56.5114   27.9906   44.0021 H   0  0  0  0  0  0  0  0  0  0  0  0
   56.5910   25.5275   43.7965 H   0  0  0  0  0  0  0  0  0  0  0  0
   57.5279   30.8779   44.0939 H   0  0  0  0  0  0  0  0  0  0  0  0
   56.4229   30.6546   45.4264 H   0  0  0  0  0  0  0  0  0  0  0  0
   61.0907   30.0497   47.7429 H   0  0  0  0  0  0  0  0  0  0  0  0
   60.1863   34.9847   46.8114 H   0  0  0  0  0  0  0  0  0  0  0  0
   58.5060   34.9203   47.4673 H   0  0  0  0  0  0  0  0  0  0  0  0
   63.5404   33.4181   48.3995 H   0  0  0  0  0  0  0  0  0  0  0  0
   63.0406   32.2629   47.1180 H   0  0  0  0  0  0  0  0  0  0  0  0
   62.3945   33.9390   47.1180 H   0  0  0  0  0  0  0  0  0  0  0  0
   61.4203   31.0460   51.5820 H   0  0  0  0  0  0  0  0  0  0  0  0
   60.8196   32.6845   51.1424 H   0  0  0  0  0  0  0  0  0  0  0  0
   59.6767   30.4078   49.5660 H   0  0  0  0  0  0  0  0  0  0  0  0
   59.2158   30.4756   51.3072 H   0  0  0  0  0  0  0  0  0  0  0  0
   59.1580   33.0250   50.0630 H   0  0  0  0  0  0  0  0  0  0  0  0
   57.0358   33.2015   51.0265 H   0  0  0  0  0  0  0  0  0  0  0  0
   57.0633   31.4063   51.3390 H   0  0  0  0  0  0  0  0  0  0  0  0
   57.5956   32.4461   53.4110 H   0  0  0  0  0  0  0  0  0  0  0  0
   59.1518   31.8111   52.7099 H   0  0  0  0  0  0  0  0  0  0  0  0
   58.4479   34.5296   53.4891 H   0  0  0  0  0  0  0  0  0  0  0  0
   60.0386   33.8377   53.0253 H   0  0  0  0  0  0  0  0  0  0  0  0
   59.4320   34.0420   50.8550 H   0  0  0  0  0  0  0  0  0  0  0  0
  1  2  1  0
  2  3  2  0
  3  4  1  0
  4  5  2  0
  5  6  1  0
  6  7  2  0
  7  8  1  0
  8  9  2  0
  9 10  1  0
 10 11  2  0
  8 12  1  0
 12 13  1  0
 13 14  1  0
 14 15  2  0
 15 16  1  0
 16 17  2  0
 17 18  1  0
 18 19  2  0
 17 20  1  0
 20 21  1  0
 21 22  1  0
 22 23  2  0
 22 24  1  0
 24 25  1  0
 24 26  1  1
 26 27  1  0
 27 28  1  0
 28 29  1  0
 29 30  1  0
 30 31  1  0
 31 32  1  0
 32 33  1  0
 11  2  1  0
 18 13  1  0
 10  5  1  0
 24 16  1  0
 14  7  1  0
  1 34  1  0
  1 35  1  0
  1 36  1  0
  3 37  1  0
  4 38  1  0
  6 39  1  0
  9 40  1  0
 11 41  1  0
 12 42  1  0
 12 43  1  0
 15 44  1  0
 20 45  1  0
 20 46  1  0
 25 47  1  0
 25 48  1  0
 25 49  1  0
 27 50  1  0
 27 51  1  0
 28 52  1  0
 28 53  1  0
 29 54  1  0
 30 55  1  0
 30 56  1  0
 31 57  1  0
 31 58  1  0
 32 59  1  0
 32 60  1  0
 33 61  1  0
M  CHG  1   6   1
M  END
>  <UniqueID>  (11) 
11

>  <SMILES>  (11) 
Cc1ccc2[nH+]c3c(cc2c1)Cn1c-3cc2c(c1=O)COC(=O)[C@@]2(C)OCCNCCCO

>  <Energy>  (11) 
106.48565609937747

>  <Genealogy>  (11) 
Cc1ccc2[nH+]c3c(cc2c1)Cn1c-3cc2c(c1=O)COC(=O)C2(C)OCCNCCCO (protonated)
Cc1ccc2[nH+]c3c(cc2c1)Cn1c-3cc2c(c1=O)COC(=O)[C@@]2(C)OCCNCCCO (chirality)
Cc1ccc2[nH+]c3c(cc2c1)Cn1c-3cc2c(c1=O)COC(=O)[C@@]2(C)OCCNCCCO (3D coordinates assigned)
Cc1ccc2[nH+]c3c(cc2c1)Cn1c-3cc2c(c1=O)COC(=O)[C@@]2(C)OCCNCCCO (nonaromatic ring conformer: 106.48565609937747 kcal/mol)

>  <smiles>  (11) 
Cc1ccc2nc3c(cc2c1)Cn1c-3cc2c(c1=O)COC(=O)C2(C)OCCNCCCO

>  <score_type>  (11) 
oracle

>  <origin>  (11) 
adg

>  <m_score__min__energy>  (11) 
-6.8399999999999999

>  <m_primary>  (11) 
energy

$$$$
11:0
     RDKit          3D

 41 44  0  0  0  0  0  0  0  0999 V2000
   59.2730   35.3690   44.9170 C   0  0  0  0  0  0  0  0  0  0  0  0
   58.7980   33.9710   45.1810 C   0  0  0  0  0  0  0  0  0  0  0  0
   58.8870   33.4270   46.4710 C   0  0  0  0  0  0  0  0  0  0  0  0
   58.4090   32.1380   46.7260 C   0  0  0  0  0  0  0  0  0  0  0  0
   57.8450   31.3750   45.6970 C   0  0  0  0  0  0  0  0  0  0  0  0
   57.3300   30.0720   45.9970 N   0  0  0  0  0  0  0  0  0  0  0  0
   57.2080   28.9760   45.0800 C   0  0  0  0  0  0  0  0  0  0  0  0
   56.0650   28.4870   44.8770 O   0  0  0  0  0  0  0  0  0  0  0  0
   58.4220   28.2880   44.5000 C   0  0  1  0  0  0  0  0  0  0  0  0
   59.6260   28.5700   45.3790 C   0  0  0  0  0  0  0  0  0  0  0  0
   60.0800   29.7040   45.4090 O   0  0  0  0  0  0  0  0  0  0  0  0
   60.3210   27.4900   46.1870 C   0  0  0  0  0  0  0  0  0  0  0  0
   59.4160   26.2840   46.4800 C   0  0  0  0  0  0  0  0  0  0  0  0
   58.6610   25.9260   45.2850 N   0  0  0  0  0  0  0  0  0  0  0  0
   58.1820   26.8090   44.3820 C   0  0  0  0  0  0  0  0  0  0  0  0
   57.3960   26.2250   43.4430 N   0  0  0  0  0  0  0  0  0  0  0  0
   57.3830   24.9260   43.7940 C   0  0  0  0  0  0  0  0  0  0  0  0
   56.6920   23.8780   43.1900 C   0  0  0  0  0  0  0  0  0  0  0  0
   56.7990   22.6030   43.7770 C   0  0  0  0  0  0  0  0  0  0  0  0
   57.5770   22.4120   44.9430 C   0  0  0  0  0  0  0  0  0  0  0  0
   58.2570   23.4950   45.5340 C   0  0  0  0  0  0  0  0  0  0  0  0
   58.1400   24.7420   44.9190 C   0  0  0  0  0  0  0  0  0  0  0  0
   57.7100   31.9390   44.4180 C   0  0  0  0  0  0  0  0  0  0  0  0
   58.1870   33.2270   44.1600 C   0  0  0  0  0  0  0  0  0  0  0  0
   59.4478   35.8836   45.8734 H   0  0  0  0  0  0  0  0  0  0  0  0
   60.2102   35.3354   44.3420 H   0  0  0  0  0  0  0  0  0  0  0  0
   58.5094   35.9133   44.3420 H   0  0  0  0  0  0  0  0  0  0  0  0
   59.3344   34.0166   47.2848 H   0  0  0  0  0  0  0  0  0  0  0  0
   58.4766   31.7210   47.7416 H   0  0  0  0  0  0  0  0  0  0  0  0
   58.6154   28.6793   43.4903 H   0  0  0  0  0  0  0  0  0  0  0  0
   61.1989   27.1409   45.6236 H   0  0  0  0  0  0  0  0  0  0  0  0
   60.6031   27.9324   47.1538 H   0  0  0  0  0  0  0  0  0  0  0  0
   60.0361   25.4296   46.7888 H   0  0  0  0  0  0  0  0  0  0  0  0
   58.7145   26.5459   47.2858 H   0  0  0  0  0  0  0  0  0  0  0  0
   56.8880   26.6800   42.6530 H   0  0  0  0  0  0  0  0  0  0  0  0
   56.0849   24.0408   42.2873 H   0  0  0  0  0  0  0  0  0  0  0  0
   56.2736   21.7485   43.3255 H   0  0  0  0  0  0  0  0  0  0  0  0
   57.6515   21.4104   45.3915 H   0  0  0  0  0  0  0  0  0  0  0  0
   58.8576   23.3626   46.4460 H   0  0  0  0  0  0  0  0  0  0  0  0
   57.2261   31.3638   43.6148 H   0  0  0  0  0  0  0  0  0  0  0  0
   58.0832   33.6589   43.1537 H   0  0  0  0  0  0  0  0  0  0  0  0
  1  2  1  0
  2  3  2  0
  3  4  1  0
  4  5  2  0
  5  6  1  0
  6  7  1  0
  7  8  2  0
  7  9  1  0
  9 10  1  0
 10 11  2  0
 10 12  1  0
 12 13  1  0
 13 14  1  0
 14 15  1  0
 15 16  2  0
 16 17  1  0
 17 18  2  0
 18 19  1  0
 19 20  2  0
 20 21  1  0
 21 22  2  0
  5 23  1  0
 23 24  2  0
 24  2  1  0
 15  9  1  0
 22 17  1  0
 22 14  1  0
  1 25  1  0
  1 26  1  0
  1 27  1  0
  3 28  1  0
  4 29  1  0
  9 30  1  6
 12 31  1  0
 12 32  1  0
 13 33  1  0
 13 34  1  0
 16 35  1  0
 18 36  1  0
 19 37  1  0
 20 38  1  0
 21 39  1  0
 23 40  1  0
 24 41  1  0
M  CHG  2   6  -1  16   1
M  END
>  <UniqueID>  (12) 
12

>  <SMILES>  (12) 
Cc1ccc([N-]C(=O)[C@H]2C(=O)CCn3c2[nH+]c2ccccc23)cc1

>  <Energy>  (12) 
88.77445962768107

>  <Genealogy>  (12) 
Cc1ccc([N-]C(=O)C2C(=O)CCn3c2[nH+]c2ccccc23)cc1 (protonated)
Cc1ccc([N-]C(=O)[C@H]2C(=O)CCn3c2[nH+]c2ccccc23)cc1 (chirality)
Cc1ccc([N-]C(=O)[C@H]2C(=O)CCn3c2[nH+]c2ccccc23)cc1 (3D coordinates assigned)
Cc1ccc([N-]C(=O)[C@H]2C(=O)CCn3c2[nH+]c2ccccc23)cc1 (nonaromatic ring conformer: 88.77445962768107 kcal/mol)

>  <smiles>  (12) 
Cc1ccc(NC(=O)C2C(=O)CCn3c2nc2ccccc23)cc1

>  <score_type>  (12) 
oracle

>  <origin>  (12) 
adg

>  <m_score__min__energy>  (12) 
-8.4199999999999999

>  <m_primary>  (12) 
energy

$$$$
12:0
     RDKit          3D

 37 37  0  0  0  0  0  0  0  0999 V2000
   58.7870   34.1620   44.6320 C   0  0  0  0  0  0  0  0  0  0  0  0
   58.0740   32.8300   44.4080 C   0  0  0  0  0  0  0  0  0  0  0  0
   57.8550   32.0340   45.7100 C   0  0  0  0  0  0  0  0  0  0  0  0
   57.5200   30.5980   45.4660 N   0  0  1  0  0  0  0  0  0  0  0  0
   57.2670   30.3540   44.0190 C   0  0  0  0  0  0  0  0  0  0  0  0
   55.7950   30.0080   43.7400 C   0  0  0  0  0  0  0  0  0  0  0  0
   55.2310   29.3610   44.8490 O   0  0  0  0  0  0  0  0  0  0  0  0
   58.6190   29.7180   45.9500 C   0  0  0  0  0  0  0  0  0  0  0  0
   59.3470   29.0050   44.7950 C   0  0  0  0  0  0  0  0  0  0  0  0
   58.7570   27.6390   44.5630 C   0  0  0  0  0  0  0  0  0  0  0  0
   58.5530   26.7630   45.6410 C   0  0  0  0  0  0  0  0  0  0  0  0
   57.9720   25.5090   45.4300 C   0  0  0  0  0  0  0  0  0  0  0  0
   57.5820   25.1250   44.1420 C   0  0  0  0  0  0  0  0  0  0  0  0
   56.7870   23.4120   43.8550 Br  0  0  0  0  0  0  0  0  0  0  0  0
   57.7700   25.9990   43.0660 C   0  0  0  0  0  0  0  0  0  0  0  0
   58.3500   27.2540   43.2750 C   0  0  0  0  0  0  0  0  0  0  0  0
   58.8864   34.3477   45.7117 H   0  0  0  0  0  0  0  0  0  0  0  0
   59.7859   34.1250   44.1728 H   0  0  0  0  0  0  0  0  0  0  0  0
   58.2022   34.9727   44.1728 H   0  0  0  0  0  0  0  0  0  0  0  0
   57.0936   33.0303   43.9512 H   0  0  0  0  0  0  0  0  0  0  0  0
   58.7161   32.2203   43.7553 H   0  0  0  0  0  0  0  0  0  0  0  0
   58.7759   32.0823   46.3097 H   0  0  0  0  0  0  0  0  0  0  0  0
   57.0004   32.4873   46.2336 H   0  0  0  0  0  0  0  0  0  0  0  0
   56.6460   30.3520   45.9920 H   0  0  0  0  0  0  0  0  0  0  0  0
   57.5315   31.2605   43.4548 H   0  0  0  0  0  0  0  0  0  0  0  0
   57.8817   29.4967   43.7073 H   0  0  0  0  0  0  0  0  0  0  0  0
   55.2365   30.9335   43.5365 H   0  0  0  0  0  0  0  0  0  0  0  0
   55.7426   29.3384   42.8688 H   0  0  0  0  0  0  0  0  0  0  0  0
   54.7650   28.5570   44.5000 H   0  0  0  0  0  0  0  0  0  0  0  0
   59.3465   30.3313   46.5020 H   0  0  0  0  0  0  0  0  0  0  0  0
   58.1736   28.9463   46.5951 H   0  0  0  0  0  0  0  0  0  0  0  0
   59.2447   29.6040   43.8781 H   0  0  0  0  0  0  0  0  0  0  0  0
   60.4091   28.8937   45.0588 H   0  0  0  0  0  0  0  0  0  0  0  0
   58.8515   27.0646   46.6559 H   0  0  0  0  0  0  0  0  0  0  0  0
   57.8213   24.8236   46.2771 H   0  0  0  0  0  0  0  0  0  0  0  0
   57.4611   25.6985   42.0540 H   0  0  0  0  0  0  0  0  0  0  0  0
   58.4880   27.9421   42.4279 H   0  0  0  0  0  0  0  0  0  0  0  0
  1  2  1  0
  2  3  1  0
  3  4  1  0
  4  5  1  0
  5  6  1  0
  6  7  1  0
  4  8  1  0
  8  9  1  0
  9 10  1  0
 10 11  2  0
 11 12  1  0
 12 13  2  0
 13 14  1  0
 13 15  1  0
 15 16  2  0
 16 10  1  0
  1 17  1  0
  1 18  1  0
  1 19  1  0
  2 20  1  0
  2 21  1  0
  3 22  1  0
  3 23  1  0
  4 24  1  1
  5 25  1  0
  5 26  1  0
  6 27  1  0
  6 28  1  0
  7 29  1  0
  8 30  1  0
  8 31  1  0
  9 32  1  0
  9 33  1  0
 11 34  1  0
 12 35  1  0
 15 36  1  0
 16 37  1  0
M  CHG  1   4   1
M  END
>  <UniqueID>  (13) 
13

>  <SMILES>  (13) 
CCC[N@@H+](CCO)CCc1ccc(Br)cc1

>  <Energy>  (13) 
34.218890350114826

>  <Genealogy>  (13) 
CCC[NH+](CCO)CCc1ccc(Br)cc1 (protonated)
CCC[N@@H+](CCO)CCc1ccc(Br)cc1 (chirality)
CCC[N@@H+](CCO)CCc1ccc(Br)cc1 (3D coordinates assigned)
CCC[N@@H+](CCO)CCc1ccc(Br)cc1 (optimized conformer: 34.218890350114826 kcal/mol)

>  <smiles>  (13) 
CCCN(CCO)CCc1ccc(Br)cc1

>  <score_type>  (13) 
oracle

>  <origin>  (13) 
adg

>  <m_score__min__energy>  (13) 
-4.8899999999999997

>  <m_primary>  (13) 
energy

$$$$
13:0
     RDKit          3D

 35 37  0  0  0  0  0  0  0  0999 V2000
   57.4010   31.9160   41.9170 C   0  0  0  0  0  0  0  0  0  0  0  0
   58.1110   32.6770   43.0320 C   0  0  0  0  0  0  0  0  0  0  0  0
   57.5450   32.3420   44.3480 N   0  0  0  0  0  0  0  0  0  0  0  0
   57.1970   33.4490   45.2560 C   0  0  0  0  0  0  0  0  0  0  0  0
   58.4040   34.0050   45.9640 C   0  0  0  0  0  0  0  0  0  0  0  0
   59.2600   34.9800   45.4760 C   0  0  0  0  0  0  0  0  0  0  0  0
   60.2570   35.2070   46.3650 N   0  0  0  0  0  0  0  0  0  0  0  0
   59.9760   34.3590   47.3760 C   0  0  0  0  0  0  0  0  0  0  0  0
   60.7240   34.2090   48.5410 C   0  0  0  0  0  0  0  0  0  0  0  0
   60.2820   33.2690   49.4850 C   0  0  0  0  0  0  0  0  0  0  0  0
   59.1170   32.5130   49.2450 C   0  0  0  0  0  0  0  0  0  0  0  0
   58.5160   31.2330   50.5270 Br  0  0  0  0  0  0  0  0  0  0  0  0
   58.4030   32.7090   48.0540 C   0  0  0  0  0  0  0  0  0  0  0  0
   58.8680   33.6260   47.1670 N   0  0  0  0  0  0  0  0  0  0  0  0
   57.6570   30.9910   44.8470 C   0  0  0  0  0  0  0  0  0  0  0  0
   58.8710   30.5110   45.3670 C   0  0  0  0  0  0  0  0  0  0  0  0
   58.9510   29.1950   45.8250 C   0  0  0  0  0  0  0  0  0  0  0  0
   57.8290   28.3680   45.7640 C   0  0  0  0  0  0  0  0  0  0  0  0
   57.8950   27.0870   46.2050 F   0  0  0  0  0  0  0  0  0  0  0  0
   56.6370   28.8730   45.2410 C   0  0  0  0  0  0  0  0  0  0  0  0
   56.5790   30.1570   44.8000 N   0  0  0  0  0  0  0  0  0  0  0  0
   56.7131   31.1787   42.3566 H   0  0  0  0  0  0  0  0  0  0  0  0
   56.8322   32.6229   41.2951 H   0  0  0  0  0  0  0  0  0  0  0  0
   58.1456   31.3975   41.2951 H   0  0  0  0  0  0  0  0  0  0  0  0
   59.1789   32.4133   43.0229 H   0  0  0  0  0  0  0  0  0  0  0  0
   57.9765   33.7549   42.8588 H   0  0  0  0  0  0  0  0  0  0  0  0
   56.7281   34.2534   44.6703 H   0  0  0  0  0  0  0  0  0  0  0  0
   56.5091   33.0561   46.0192 H   0  0  0  0  0  0  0  0  0  0  0  0
   59.1466   35.4935   44.5098 H   0  0  0  0  0  0  0  0  0  0  0  0
   61.6306   34.8070   48.7155 H   0  0  0  0  0  0  0  0  0  0  0  0
   60.8477   33.1216   50.4168 H   0  0  0  0  0  0  0  0  0  0  0  0
   57.4890   32.1342   47.8436 H   0  0  0  0  0  0  0  0  0  0  0  0
   59.7522   31.1679   45.4128 H   0  0  0  0  0  0  0  0  0  0  0  0
   59.8972   28.8104   46.2334 H   0  0  0  0  0  0  0  0  0  0  0  0
   55.7450   28.2316   45.1860 H   0  0  0  0  0  0  0  0  0  0  0  0
  1  2  1  0
  2  3  1  0
  3  4  1  0
  4  5  1  0
  5  6  2  0
  6  7  1  0
  7  8  2  0
  8  9  1  0
  9 10  2  0
 10 11  1  0
 11 12  1  0
 11 13  2  0
 13 14  1  0
  3 15  1  0
 15 16  2  0
 16 17  1  0
 17 18  2  0
 18 19  1  0
 18 20  1  0
 20 21  2  0
 14  5  1  0
 21 15  1  0
 14  8  1  0
  1 22  1  0
  1 23  1  0
  1 24  1  0
  2 25  1  0
  2 26  1  0
  4 27  1  0
  4 28  1  0
  6 29  1  0
  9 30  1  0
 10 31  1  0
 13 32  1  0
 16 33  1  0
 17 34  1  0
 20 35  1  0
M  END
>  <UniqueID>  (14) 
14

>  <SMILES>  (14) 
CCN(Cc1cnc2ccc(Br)cn12)c1ccc(F)cn1

>  <Energy>  (14) 
71.66617236145156

>  <Genealogy>  (14) 
CCN(Cc1cnc2ccc(Br)cn12)c1ccc(F)cn1 (3D coordinates assigned)
CCN(Cc1cnc2ccc(Br)cn12)c1ccc(F)cn1 (optimized conformer: 71.66617236145156 kcal/mol)

>  <smiles>  (14) 
CCN(Cc1cnc2ccc(Br)cn12)c1ccc(F)cn1

>  <score_type>  (14) 
oracle

>  <origin>  (14) 
adg

>  <m_score__min__energy>  (14) 
-6.8300000000000001

>  <m_primary>  (14) 
energy

$$$$
14:0
     RDKit          3D

 43 44  0  0  0  0  0  0  0  0999 V2000
   58.0890   32.7090   43.2130 C   0  0  0  0  0  0  0  0  0  0  0  0
   57.7850   33.4410   44.1210 C   0  0  0  0  0  0  0  0  0  0  0  0
   57.4210   34.3340   45.2300 C   0  0  0  0  0  0  0  0  0  0  0  0
   58.5950   34.5430   46.2010 C   0  0  0  0  0  0  0  0  0  0  0  0
   58.6970   33.4530   47.2820 C   0  0  0  0  0  0  0  0  0  0  0  0
   58.8700   32.0760   46.6880 C   0  0  0  0  0  0  0  0  0  0  0  0
   57.7630   31.4430   46.2160 N   0  0  0  0  0  0  0  0  0  0  0  0
   57.7920   30.1650   45.7530 C   0  0  0  0  0  0  0  0  0  0  0  0
   56.6130   29.5570   45.3100 O   0  0  0  0  0  0  0  0  0  0  0  0
   56.0630   29.7900   44.0190 C   0  0  0  0  0  0  0  0  0  0  0  0
   59.0120   29.4610   45.7650 C   0  0  0  0  0  0  0  0  0  0  0  0
   59.1270   28.0950   45.3060 N   0  0  0  0  0  0  0  0  0  0  0  0
   58.6200   27.6770   43.9960 C   0  0  0  0  0  0  0  0  0  0  0  0
   59.8670   27.1360   46.1310 C   0  0  0  0  0  0  0  0  0  0  0  0
   60.1160   30.0910   46.2490 N   0  0  0  0  0  0  0  0  0  0  0  0
   60.0950   31.3730   46.6980 C   0  0  0  0  0  0  0  0  0  0  0  0
   61.3530   31.9550   47.1980 C   0  0  0  0  0  0  0  0  0  0  0  0
   61.7730   33.2120   46.7370 C   0  0  0  0  0  0  0  0  0  0  0  0
   62.9520   33.7840   47.2280 C   0  0  0  0  0  0  0  0  0  0  0  0
   63.7070   33.1120   48.1940 C   0  0  0  0  0  0  0  0  0  0  0  0
   63.2810   31.8700   48.6750 C   0  0  0  0  0  0  0  0  0  0  0  0
   62.1040   31.2960   48.1860 C   0  0  0  0  0  0  0  0  0  0  0  0
   58.3664   32.0409   42.3843 H   0  0  0  0  0  0  0  0  0  0  0  0
   57.1207   35.3090   44.8187 H   0  0  0  0  0  0  0  0  0  0  0  0
   56.5940   33.8694   45.7870 H   0  0  0  0  0  0  0  0  0  0  0  0
   59.5299   34.5475   45.6215 H   0  0  0  0  0  0  0  0  0  0  0  0
   58.4214   35.4978   46.7188 H   0  0  0  0  0  0  0  0  0  0  0  0
   59.5615   33.6723   47.9259 H   0  0  0  0  0  0  0  0  0  0  0  0
   57.7589   33.4578   47.8564 H   0  0  0  0  0  0  0  0  0  0  0  0
   55.0546   30.2172   44.1217 H   0  0  0  0  0  0  0  0  0  0  0  0
   56.7049   30.4935   43.4685 H   0  0  0  0  0  0  0  0  0  0  0  0
   56.0042   28.8395   43.4685 H   0  0  0  0  0  0  0  0  0  0  0  0
   57.7779   26.9827   44.1332 H   0  0  0  0  0  0  0  0  0  0  0  0
   58.2794   28.5603   43.4358 H   0  0  0  0  0  0  0  0  0  0  0  0
   59.4221   27.1743   43.4358 H   0  0  0  0  0  0  0  0  0  0  0  0
   59.6955   27.3583   47.1946 H   0  0  0  0  0  0  0  0  0  0  0  0
   59.5194   26.1163   45.9088 H   0  0  0  0  0  0  0  0  0  0  0  0
   60.9415   27.2137   45.9088 H   0  0  0  0  0  0  0  0  0  0  0  0
   61.1736   33.7494   45.9874 H   0  0  0  0  0  0  0  0  0  0  0  0
   63.2851   34.7632   46.8536 H   0  0  0  0  0  0  0  0  0  0  0  0
   64.6362   33.5603   48.5757 H   0  0  0  0  0  0  0  0  0  0  0  0
   63.8726   31.3442   49.4389 H   0  0  0  0  0  0  0  0  0  0  0  0
   61.7645   30.3251   48.5760 H   0  0  0  0  0  0  0  0  0  0  0  0
  1  2  3  0
  2  3  1  0
  3  4  1  0
  4  5  1  0
  5  6  1  0
  6  7  2  0
  7  8  1  0
  8  9  1  0
  9 10  1  0
  8 11  2  0
 11 12  1  0
 12 13  1  0
 12 14  1  0
 11 15  1  0
 15 16  2  0
 16 17  1  0
 17 18  2  0
 18 19  1  0
 19 20  2  0
 20 21  1  0
 21 22  2  0
 16  6  1  0
 22 17  1  0
  1 23  1  0
  3 24  1  0
  3 25  1  0
  4 26  1  0
  4 27  1  0
  5 28  1  0
  5 29  1  0
 10 30  1  0
 10 31  1  0
 10 32  1  0
 13 33  1  0
 13 34  1  0
 13 35  1  0
 14 36  1  0
 14 37  1  0
 14 38  1  0
 18 39  1  0
 19 40  1  0
 20 41  1  0
 21 42  1  0
 22 43  1  0
M  END
>  <UniqueID>  (15) 
15

>  <SMILES>  (15) 
C#CCCCc1nc(OC)c(N(C)C)nc1-c1ccccc1

>  <Energy>  (15) 
44.20104563438119

>  <Genealogy>  (15) 
C#CCCCc1nc(OC)c(N(C)C)nc1-c1ccccc1 (3D coordinates assigned)
C#CCCCc1nc(OC)c(N(C)C)nc1-c1ccccc1 (optimized conformer: 44.20104563438119 kcal/mol)

>  <smiles>  (15) 
C#CCCCc1nc(OC)c(N(C)C)nc1-c1ccccc1

>  <score_type>  (15) 
oracle

>  <origin>  (15) 
adg

>  <m_score__min__energy>  (15) 
-6.6100000000000003

>  <m_primary>  (15) 
energy

$$$$
15:0
     RDKit          3D

 45 47  0  0  0  0  0  0  0  0999 V2000
   59.8090   28.6180   44.6230 C   0  0  0  0  0  0  0  0  0  0  0  0
   58.4840   28.6070   43.9720 N   0  0  0  0  0  0  0  0  0  0  0  0
   58.1440   27.2270   43.5830 C   0  0  0  0  0  0  0  0  0  0  0  0
   57.4380   29.1630   44.8720 C   0  0  0  0  0  0  0  0  0  0  0  0
   57.3010   30.7080   44.7460 C   0  0  2  0  0  0  0  0  0  0  0  0
   57.8550   31.1750   43.3810 C   0  0  0  0  0  0  0  0  0  0  0  0
   57.8220   32.7130   43.1770 C   0  0  0  0  0  0  0  0  0  0  0  0
   57.4350   33.5180   44.4300 C   0  0  0  0  0  0  0  0  0  0  0  0
   58.0360   32.9180   45.6720 C   0  0  0  0  0  0  0  0  0  0  0  0
   58.6050   33.7350   46.6580 C   0  0  0  0  0  0  0  0  0  0  0  0
   59.1340   33.1680   47.8200 C   0  0  0  0  0  0  0  0  0  0  0  0
   59.8540   34.2160   49.0850 S   0  0  0  0  0  0  0  0  0  0  0  0
   61.5300   33.8220   48.5840 C   0  0  0  0  0  0  0  0  0  0  0  0
   61.8690   33.7970   47.2260 C   0  0  0  0  0  0  0  0  0  0  0  0
   63.1750   33.4810   46.8360 C   0  0  0  0  0  0  0  0  0  0  0  0
   64.1440   33.1940   47.8030 C   0  0  0  0  0  0  0  0  0  0  0  0
   63.8080   33.2220   49.1610 C   0  0  0  0  0  0  0  0  0  0  0  0
   64.7470   32.9430   50.0970 F   0  0  0  0  0  0  0  0  0  0  0  0
   62.5030   33.5370   49.5520 C   0  0  0  0  0  0  0  0  0  0  0  0
   59.0980   31.7820   47.9990 C   0  0  0  0  0  0  0  0  0  0  0  0
   58.5210   30.9610   47.0250 C   0  0  0  0  0  0  0  0  0  0  0  0
   57.9770   31.5200   45.8500 C   0  0  0  0  0  0  0  0  0  0  0  0
   59.6808   28.6169   45.7155 H   0  0  0  0  0  0  0  0  0  0  0  0
   60.3742   27.7245   44.3193 H   0  0  0  0  0  0  0  0  0  0  0  0
   60.3593   29.5207   44.3193 H   0  0  0  0  0  0  0  0  0  0  0  0
   58.5530   29.1780   43.0980 H   0  0  0  0  0  0  0  0  0  0  0  0
   57.9939   26.6178   44.4865 H   0  0  0  0  0  0  0  0  0  0  0  0
   57.2201   27.2314   42.9861 H   0  0  0  0  0  0  0  0  0  0  0  0
   58.9642   26.8017   42.9861 H   0  0  0  0  0  0  0  0  0  0  0  0
   56.4724   28.7016   44.6175 H   0  0  0  0  0  0  0  0  0  0  0  0
   57.7345   28.9377   45.9071 H   0  0  0  0  0  0  0  0  0  0  0  0
   56.2224   30.9012   44.8429 H   0  0  0  0  0  0  0  0  0  0  0  0
   58.8987   30.8378   43.2980 H   0  0  0  0  0  0  0  0  0  0  0  0
   57.2050   30.7383   42.6085 H   0  0  0  0  0  0  0  0  0  0  0  0
   58.8227   33.0379   42.8562 H   0  0  0  0  0  0  0  0  0  0  0  0
   57.0424   32.9109   42.4266 H   0  0  0  0  0  0  0  0  0  0  0  0
   57.7980   34.5504   44.3189 H   0  0  0  0  0  0  0  0  0  0  0  0
   56.3397   33.4994   44.5302 H   0  0  0  0  0  0  0  0  0  0  0  0
   58.6352   34.8255   46.5167 H   0  0  0  0  0  0  0  0  0  0  0  0
   61.1082   34.0259   46.4652 H   0  0  0  0  0  0  0  0  0  0  0  0
   63.4398   33.4583   45.7686 H   0  0  0  0  0  0  0  0  0  0  0  0
   65.1707   32.9462   47.4957 H   0  0  0  0  0  0  0  0  0  0  0  0
   62.2398   33.5612   50.6198 H   0  0  0  0  0  0  0  0  0  0  0  0
   59.5250   31.3356   48.9092 H   0  0  0  0  0  0  0  0  0  0  0  0
   58.4912   29.8719   47.1763 H   0  0  0  0  0  0  0  0  0  0  0  0
  1  2  1  0
  2  3  1  0
  2  4  1  0
  4  5  1  0
  5  6  1  0
  6  7  1  0
  7  8  1  0
  8  9  1  0
  9 10  2  0
 10 11  1  0
 11 12  1  0
 12 13  1  0
 13 14  2  0
 14 15  1  0
 15 16  2  0
 16 17  1  0
 17 18  1  0
 17 19  2  0
 11 20  2  0
 20 21  1  0
 21 22  2  0
 22  5  1  0
 22  9  1  0
 19 13  1  0
  1 23  1  0
  1 24  1  0
  1 25  1  0
  2 26  1  0
  3 27  1  0
  3 28  1  0
  3 29  1  0
  4 30  1  0
  4 31  1  0
  5 32  1  6
  6 33  1  0
  6 34  1  0
  7 35  1  0
  7 36  1  0
  8 37  1  0
  8 38  1  0
 10 39  1  0
 14 40  1  0
 15 41  1  0
 16 42  1  0
 19 43  1  0
 20 44  1  0
 21 45  1  0
M  CHG  1   2   1
M  END
>  <UniqueID>  (16) 
16

>  <SMILES>  (16) 
C[NH+](C)C[C@@H]1CCCc2cc(Sc3cccc(F)c3)ccc21

>  <Energy>  (16) 
51.438866806735646

>  <Genealogy>  (16) 
C[NH+](C)CC1CCCc2cc(Sc3cccc(F)c3)ccc21 (protonated)
C[NH+](C)C[C@@H]1CCCc2cc(Sc3cccc(F)c3)ccc21 (chirality)
C[NH+](C)C[C@@H]1CCCc2cc(Sc3cccc(F)c3)ccc21 (3D coordinates assigned)
C[NH+](C)C[C@@H]1CCCc2cc(Sc3cccc(F)c3)ccc21 (nonaromatic ring conformer: 51.438866806735646 kcal/mol)

>  <smiles>  (16) 
CN(C)CC1CCCc2cc(Sc3cccc(F)c3)ccc21

>  <score_type>  (16) 
oracle

>  <origin>  (16) 
adg

>  <m_score__min__energy>  (16) 
-6.8499999999999996

>  <m_primary>  (16) 
energy

$$$$
16:0
     RDKit          3D

 50 52  0  0  0  0  0  0  0  0999 V2000
   55.1510   23.3560   43.2840 C   0  0  0  0  0  0  0  0  0  0  0  0
   56.5760   22.8420   43.0280 C   0  0  0  0  0  0  0  0  0  0  0  0
   57.2630   22.3550   44.2470 N   0  0  0  0  0  0  0  0  0  0  0  0
   58.4250   21.4940   43.9370 C   0  0  0  0  0  0  0  0  0  0  0  0
   59.7150   22.0890   44.4980 C   0  0  0  0  0  0  0  0  0  0  0  0
   56.3310   21.7560   45.2350 C   0  0  0  0  0  0  0  0  0  0  0  0
   57.0710   21.4200   46.5340 C   0  0  0  0  0  0  0  0  0  0  0  0
   57.3760   22.6040   47.2720 O   0  0  0  0  0  0  0  0  0  0  0  0
   57.3450   23.9200   46.7810 C   0  0  0  0  0  0  0  0  0  0  0  0
   58.5340   24.4670   46.2880 C   0  0  0  0  0  0  0  0  0  0  0  0
   58.5700   25.7750   45.8010 C   0  0  0  0  0  0  0  0  0  0  0  0
   57.4080   26.5670   45.7920 C   0  0  0  0  0  0  0  0  0  0  0  0
   57.4460   27.9600   45.2810 C   0  0  0  0  0  0  0  0  0  0  0  0
   57.8500   29.0870   45.9780 C   0  0  0  0  0  0  0  0  0  0  0  0
   57.6970   30.1220   45.0690 C   0  0  0  0  0  0  0  0  0  0  0  0
   57.9870   31.5590   45.2790 C   0  0  0  0  0  0  0  0  0  0  0  0
   58.5040   31.9910   46.5130 C   0  0  0  0  0  0  0  0  0  0  0  0
   58.7850   33.3430   46.7310 C   0  0  0  0  0  0  0  0  0  0  0  0
   58.5520   34.2780   45.7200 C   0  0  0  0  0  0  0  0  0  0  0  0
   58.0390   33.8620   44.4890 C   0  0  0  0  0  0  0  0  0  0  0  0
   57.7570   32.5110   44.2660 C   0  0  0  0  0  0  0  0  0  0  0  0
   57.2380   29.6230   43.9430 O   0  0  0  0  0  0  0  0  0  0  0  0
   57.0800   28.3380   44.0390 N   0  0  0  0  0  0  0  0  0  0  0  0
   56.2100   26.0110   46.2720 C   0  0  0  0  0  0  0  0  0  0  0  0
   56.1750   24.7010   46.7570 C   0  0  0  0  0  0  0  0  0  0  0  0
   54.9735   23.4200   44.3677 H   0  0  0  0  0  0  0  0  0  0  0  0
   55.0344   24.3529   42.8338 H   0  0  0  0  0  0  0  0  0  0  0  0
   54.4249   22.6631   42.8338 H   0  0  0  0  0  0  0  0  0  0  0  0
   56.5217   22.0139   42.3060 H   0  0  0  0  0  0  0  0  0  0  0  0
   57.1607   23.6930   42.6486 H   0  0  0  0  0  0  0  0  0  0  0  0
   58.2647   20.5005   44.3811 H   0  0  0  0  0  0  0  0  0  0  0  0
   58.5217   21.4177   42.8439 H   0  0  0  0  0  0  0  0  0  0  0  0
   59.6788   22.0723   45.5973 H   0  0  0  0  0  0  0  0  0  0  0  0
   60.5738   21.4960   44.1504 H   0  0  0  0  0  0  0  0  0  0  0  0
   59.8215   23.1272   44.1504 H   0  0  0  0  0  0  0  0  0  0  0  0
   55.5245   22.4718   45.4523 H   0  0  0  0  0  0  0  0  0  0  0  0
   55.9123   20.8301   44.8139 H   0  0  0  0  0  0  0  0  0  0  0  0
   56.4366   20.7658   47.1501 H   0  0  0  0  0  0  0  0  0  0  0  0
   58.0139   20.9144   46.2786 H   0  0  0  0  0  0  0  0  0  0  0  0
   59.4512   23.8598   46.2839 H   0  0  0  0  0  0  0  0  0  0  0  0
   59.5154   26.1896   45.4211 H   0  0  0  0  0  0  0  0  0  0  0  0
   58.2100   29.1468   47.0157 H   0  0  0  0  0  0  0  0  0  0  0  0
   58.6889   31.2594   47.3133 H   0  0  0  0  0  0  0  0  0  0  0  0
   59.1900   33.6707   47.6998 H   0  0  0  0  0  0  0  0  0  0  0  0
   58.7724   35.3417   45.8930 H   0  0  0  0  0  0  0  0  0  0  0  0
   57.8565   34.5992   43.6933 H   0  0  0  0  0  0  0  0  0  0  0  0
   57.3534   32.1895   43.2945 H   0  0  0  0  0  0  0  0  0  0  0  0
   56.7090   27.7350   43.2730 H   0  0  0  0  0  0  0  0  0  0  0  0
   55.2898   26.6136   46.2659 H   0  0  0  0  0  0  0  0  0  0  0  0
   55.2275   24.2780   47.1221 H   0  0  0  0  0  0  0  0  0  0  0  0
  1  2  1  0
  2  3  1  0
  3  4  1  0
  4  5  1  0
  3  6  1  0
  6  7  1  0
  7  8  1  0
  8  9  1  0
  9 10  2  0
 10 11  1  0
 11 12  2  0
 12 13  1  0
 13 14  1  0
 14 15  2  0
 15 16  1  0
 16 17  2  0
 17 18  1  0
 18 19  2  0
 19 20  1  0
 20 21  2  0
 15 22  1  0
 22 23  1  0
 12 24  1  0
 24 25  2  0
 25  9  1  0
 23 13  2  0
 21 16  1  0
  1 26  1  0
  1 27  1  0
  1 28  1  0
  2 29  1  0
  2 30  1  0
  4 31  1  0
  4 32  1  0
  5 33  1  0
  5 34  1  0
  5 35  1  0
  6 36  1  0
  6 37  1  0
  7 38  1  0
  7 39  1  0
 10 40  1  0
 11 41  1  0
 14 42  1  0
 17 43  1  0
 18 44  1  0
 19 45  1  0
 20 46  1  0
 21 47  1  0
 23 48  1  0
 24 49  1  0
 25 50  1  0
M  CHG  1  23   1
M  END
>  <UniqueID>  (17) 
17

>  <SMILES>  (17) 
CCN(CC)CCOc1ccc(-c2cc(-c3ccccc3)o[nH+]2)cc1

>  <Energy>  (17) 
86.2228073011536

>  <Genealogy>  (17) 
CCN(CC)CCOc1ccc(-c2cc(-c3ccccc3)o[nH+]2)cc1 (protonated)
CCN(CC)CCOc1ccc(-c2cc(-c3ccccc3)o[nH+]2)cc1 (3D coordinates assigned)
CCN(CC)CCOc1ccc(-c2cc(-c3ccccc3)o[nH+]2)cc1 (optimized conformer: 86.2228073011536 kcal/mol)

>  <smiles>  (17) 
CCN(CC)CCOc1ccc(-c2cc(-c3ccccc3)on2)cc1

>  <score_type>  (17) 
oracle

>  <origin>  (17) 
adg

>  <m_score__min__energy>  (17) 
-6.1299999999999999

>  <m_primary>  (17) 
energy

$$$$
17:0
     RDKit          3D

 22 23  0  0  0  0  0  0  0  0999 V2000
   63.4990   34.0210   50.9040 C   0  0  0  0  0  0  0  0  0  0  0  0
   64.6250   33.0930   49.8180 S   0  0  0  0  0  0  0  0  0  0  0  0
   63.5380   33.2180   48.4030 C   0  0  0  0  0  0  0  0  0  0  0  0
   63.9320   33.1000   47.1270 N   0  0  0  0  0  0  0  0  0  0  0  0
   62.8590   33.2460   46.3680 N   0  0  0  0  0  0  0  0  0  0  0  0
   61.8330   33.4540   47.2200 C   0  0  0  0  0  0  0  0  0  0  0  0
   60.4160   33.6660   46.8260 C   0  0  0  0  0  0  0  0  0  0  0  0
   60.1620   34.3520   45.6210 C   0  0  0  0  0  0  0  0  0  0  0  0
   58.8550   34.5910   45.1940 C   0  0  0  0  0  0  0  0  0  0  0  0
   57.7780   34.1490   45.9600 C   0  0  0  0  0  0  0  0  0  0  0  0
   58.0060   33.4640   47.1530 C   0  0  0  0  0  0  0  0  0  0  0  0
   59.3130   33.2150   47.5970 C   0  0  0  0  0  0  0  0  0  0  0  0
   59.4800   32.2390   49.2420 Br  0  0  0  0  0  0  0  0  0  0  0  0
   62.2480   33.4370   48.4700 O   0  0  0  0  0  0  0  0  0  0  0  0
   63.7499   33.8143   51.9549 H   0  0  0  0  0  0  0  0  0  0  0  0
   63.6043   35.0981   50.7069 H   0  0  0  0  0  0  0  0  0  0  0  0
   62.4619   33.7119   50.7069 H   0  0  0  0  0  0  0  0  0  0  0  0
   64.8980   32.9210   46.7740 H   0  0  0  0  0  0  0  0  0  0  0  0
   61.0055   34.7038   45.0089 H   0  0  0  0  0  0  0  0  0  0  0  0
   58.6747   35.1290   44.2516 H   0  0  0  0  0  0  0  0  0  0  0  0
   56.7483   34.3404   45.6236 H   0  0  0  0  0  0  0  0  0  0  0  0
   57.1519   33.1153   47.7521 H   0  0  0  0  0  0  0  0  0  0  0  0
  1  2  1  0
  2  3  1  0
  3  4  2  0
  4  5  1  0
  5  6  2  0
  6  7  1  0
  7  8  2  0
  8  9  1  0
  9 10  2  0
 10 11  1  0
 11 12  2  0
 12 13  1  0
  6 14  1  0
 14  3  1  0
 12  7  1  0
  1 15  1  0
  1 16  1  0
  1 17  1  0
  4 18  1  0
  8 19  1  0
  9 20  1  0
 10 21  1  0
 11 22  1  0
M  CHG  1   4   1
M  END
>  <UniqueID>  (18) 
18

>  <SMILES>  (18) 
CSc1[nH+]nc(-c2ccccc2Br)o1

>  <Energy>  (18) 
57.95803075161978

>  <Genealogy>  (18) 
CSc1[nH+]nc(-c2ccccc2Br)o1 (protonated)
CSc1[nH+]nc(-c2ccccc2Br)o1 (3D coordinates assigned)
CSc1[nH+]nc(-c2ccccc2Br)o1 (optimized conformer: 57.95803075161978 kcal/mol)

>  <smiles>  (18) 
CSc1nnc(-c2ccccc2Br)o1

>  <score_type>  (18) 
oracle

>  <origin>  (18) 
adg

>  <m_score__min__energy>  (18) 
-4.9100000000000001

>  <m_primary>  (18) 
energy

$$$$
18:0
     RDKit          3D

 56 60  0  0  0  0  0  0  0  0999 V2000
   60.3770   30.9310   46.5480 C   0  0  0  0  0  0  0  0  0  0  0  0
   60.1860   29.6930   47.3050 N   0  0  0  0  0  0  0  0  0  0  0  0
   60.7010   29.4160   48.5200 C   0  0  0  0  0  0  0  0  0  0  0  0
   61.4910   30.2110   49.2810 N   0  0  0  0  0  0  0  0  0  0  0  0
   61.8960   29.7400   50.5020 C   0  0  0  0  0  0  0  0  0  0  0  0
   62.7950   30.5760   51.3590 C   0  0  0  0  0  0  0  0  0  0  0  0
   63.3160   31.7630   50.5890 C   0  0  0  0  0  0  0  0  0  0  0  0
   64.5490   32.0240   50.6430 O   0  0  0  0  0  0  0  0  0  0  0  0
   62.4350   32.6320   49.8420 N   0  0  0  0  0  0  0  0  0  0  0  0
   63.0130   33.6080   48.9020 C   0  0  0  0  0  0  0  0  0  0  0  0
   62.0820   33.8320   47.7000 C   0  0  0  0  0  0  0  0  0  0  0  0
   60.6770   33.9720   48.1130 N   0  0  0  0  0  0  0  0  0  0  0  0
   59.6480   34.0800   47.1120 C   0  0  0  0  0  0  0  0  0  0  0  0
   58.3990   33.4640   47.3070 C   0  0  0  0  0  0  0  0  0  0  0  0
   57.4040   33.5630   46.3290 C   0  0  0  0  0  0  0  0  0  0  0  0
   57.6470   34.2720   45.1500 C   0  0  0  0  0  0  0  0  0  0  0  0
   58.8870   34.8810   44.9450 C   0  0  0  0  0  0  0  0  0  0  0  0
   59.8860   34.7840   45.9180 C   0  0  0  0  0  0  0  0  0  0  0  0
   60.3310   33.9140   49.5380 C   0  0  0  0  0  0  0  0  0  0  0  0
   61.0000   32.6950   50.1740 C   0  0  0  0  0  0  0  0  0  0  0  0
   61.5180   28.4870   50.9240 N   0  0  0  0  0  0  0  0  0  0  0  0
   60.7210   27.6850   50.1580 C   0  0  0  0  0  0  0  0  0  0  0  0
   60.3090   28.1790   48.9310 C   0  0  0  0  0  0  0  0  0  0  0  0
   59.5310   27.6970   47.9040 C   0  0  0  0  0  0  0  0  0  0  0  0
   58.9730   26.5680   47.8620 O   0  0  0  0  0  0  0  0  0  0  0  0
   59.4750   28.6300   46.9190 N   0  0  0  0  0  0  0  0  0  0  0  0
   58.7630   28.5010   45.6760 C   0  0  0  0  0  0  0  0  0  0  0  0
   57.7580   29.4190   45.3300 C   0  0  0  0  0  0  0  0  0  0  0  0
   57.0730   29.2910   44.1170 C   0  0  0  0  0  0  0  0  0  0  0  0
   57.3910   28.2510   43.2400 C   0  0  0  0  0  0  0  0  0  0  0  0
   58.3980   27.3400   43.5710 C   0  0  0  0  0  0  0  0  0  0  0  0
   59.0840   27.4650   44.7830 C   0  0  0  0  0  0  0  0  0  0  0  0
   60.5066   31.7713   47.2460 H   0  0  0  0  0  0  0  0  0  0  0  0
   61.2716   30.8391   45.9146 H   0  0  0  0  0  0  0  0  0  0  0  0
   59.4963   31.1130   45.9146 H   0  0  0  0  0  0  0  0  0  0  0  0
   62.2307   30.9326   52.2333 H   0  0  0  0  0  0  0  0  0  0  0  0
   63.6488   29.9610   51.6796 H   0  0  0  0  0  0  0  0  0  0  0  0
   63.1634   34.5646   49.4238 H   0  0  0  0  0  0  0  0  0  0  0  0
   63.9723   33.2150   48.5342 H   0  0  0  0  0  0  0  0  0  0  0  0
   62.3917   34.7484   47.1762 H   0  0  0  0  0  0  0  0  0  0  0  0
   62.1580   32.9540   47.0417 H   0  0  0  0  0  0  0  0  0  0  0  0
   58.2038   32.9021   48.2323 H   0  0  0  0  0  0  0  0  0  0  0  0
   56.4279   33.0815   46.4885 H   0  0  0  0  0  0  0  0  0  0  0  0
   56.8620   34.3506   44.3835 H   0  0  0  0  0  0  0  0  0  0  0  0
   59.0779   35.4382   44.0160 H   0  0  0  0  0  0  0  0  0  0  0  0
   60.8629   35.2606   45.7490 H   0  0  0  0  0  0  0  0  0  0  0  0
   60.6825   34.8283   50.0385 H   0  0  0  0  0  0  0  0  0  0  0  0
   59.2395   33.8332   49.6480 H   0  0  0  0  0  0  0  0  0  0  0  0
   60.8882   32.7553   51.2666 H   0  0  0  0  0  0  0  0  0  0  0  0
   60.5144   31.7899   49.7802 H   0  0  0  0  0  0  0  0  0  0  0  0
   60.4178   26.6852   50.5021 H   0  0  0  0  0  0  0  0  0  0  0  0
   57.5084   30.2421   46.0157 H   0  0  0  0  0  0  0  0  0  0  0  0
   56.2832   30.0099   43.8534 H   0  0  0  0  0  0  0  0  0  0  0  0
   56.8486   28.1491   42.2885 H   0  0  0  0  0  0  0  0  0  0  0  0
   58.6510   26.5243   42.8777 H   0  0  0  0  0  0  0  0  0  0  0  0
   59.8788   26.7488   45.0385 H   0  0  0  0  0  0  0  0  0  0  0  0
  1  2  1  0
  2  3  1  0
  3  4  2  0
  4  5  1  0
  5  6  1  0
  6  7  1  0
  7  8  2  0
  7  9  1  0
  9 10  1  0
 10 11  1  0
 11 12  1  0
 12 13  1  0
 13 14  2  0
 14 15  1  0
 15 16  2  0
 16 17  1  0
 17 18  2  0
 12 19  1  0
 19 20  1  0
  5 21  2  0
 21 22  1  0
 22 23  2  0
 23 24  1  0
 24 25  2  0
 24 26  1  0
 26 27  1  0
 27 28  2  0
 28 29  1  0
 29 30  2  0
 30 31  1  0
 31 32  2  0
 26  2  1  0
 32 27  1  0
 23  3  1  0
 20  9  1  0
 18 13  1  0
  1 33  1  0
  1 34  1  0
  1 35  1  0
  6 36  1  0
  6 37  1  0
 10 38  1  0
 10 39  1  0
 11 40  1  0
 11 41  1  0
 14 42  1  0
 15 43  1  0
 16 44  1  0
 17 45  1  0
 18 46  1  0
 19 47  1  0
 19 48  1  0
 20 49  1  0
 20 50  1  0
 22 51  1  0
 28 52  1  0
 29 53  1  0
 30 54  1  0
 31 55  1  0
 32 56  1  0
M  END
>  <UniqueID>  (19) 
19

>  <SMILES>  (19) 
Cn1c2nc(CC(=O)N3CCN(c4ccccc4)CC3)ncc2c(=O)n1-c1ccccc1

>  <Energy>  (19) 
118.0083491911823

>  <Genealogy>  (19) 
Cn1c2nc(CC(=O)N3CCN(c4ccccc4)CC3)ncc2c(=O)n1-c1ccccc1 (3D coordinates assigned)
Cn1c2nc(CC(=O)N3CCN(c4ccccc4)CC3)ncc2c(=O)n1-c1ccccc1 (nonaromatic ring conformer: 118.0083491911823 kcal/mol)

>  <smiles>  (19) 
Cn1c2nc(CC(=O)N3CCN(c4ccccc4)CC3)ncc2c(=O)n1-c1ccccc1

>  <score_type>  (19) 
oracle

>  <origin>  (19) 
adg

>  <m_score__min__energy>  (19) 
-8.4900000000000002

>  <m_primary>  (19) 
energy

$$$$
19:0
     RDKit          3D

 52 55  0  0  0  0  0  0  0  0999 V2000
   63.2850   32.4620   48.5080 C   0  0  0  0  0  0  0  0  0  0  0  0
   63.1540   33.9220   48.9290 C   0  0  0  0  0  0  0  0  0  0  0  0
   61.7800   34.3130   48.9830 O   0  0  0  0  0  0  0  0  0  0  0  0
   60.8310   34.0960   47.9710 C   0  0  0  0  0  0  0  0  0  0  0  0
   61.1850   33.8610   46.6270 C   0  0  0  0  0  0  0  0  0  0  0  0
   60.1950   33.6320   45.6650 C   0  0  0  0  0  0  0  0  0  0  0  0
   58.8420   33.6260   46.0290 C   0  0  0  0  0  0  0  0  0  0  0  0
   57.5910   33.3300   44.8190 S   0  0  0  0  0  0  0  0  0  0  0  0
   56.6900   34.5270   44.7160 O   0  0  0  0  0  0  0  0  0  0  0  0
   58.2480   33.0920   43.4870 O   0  0  0  0  0  0  0  0  0  0  0  0
   56.6480   31.9290   45.2480 N   0  0  0  0  0  0  0  0  0  0  0  0
   56.7160   30.9010   44.2050 C   0  0  0  0  0  0  0  0  0  0  0  0
   56.8910   29.5080   44.8210 C   0  0  0  0  0  0  0  0  0  0  0  0
   58.3140   29.2560   45.2340 C   0  0  0  0  0  0  0  0  0  0  0  0
   59.2850   28.6270   44.4360 C   0  0  0  0  0  0  0  0  0  0  0  0
   60.7910   28.6190   45.2690 S   0  0  0  0  0  0  0  0  0  0  0  0
   60.1060   29.4030   46.5810 C   0  0  0  0  0  0  0  0  0  0  0  0
   60.5960   29.8830   47.7340 N   0  0  0  0  0  0  0  0  0  0  0  0
   59.4600   30.4520   48.2510 C   0  0  0  0  0  0  0  0  0  0  0  0
   59.4330   31.1720   49.5430 C   0  0  0  0  0  0  0  0  0  0  0  0
   58.2160   31.6290   50.0800 C   0  0  0  0  0  0  0  0  0  0  0  0
   58.1910   32.3330   51.2880 C   0  0  0  0  0  0  0  0  0  0  0  0
   59.3860   32.5850   51.9870 C   0  0  0  0  0  0  0  0  0  0  0  0
   59.4150   33.2880   53.2020 O   0  0  0  0  0  0  0  0  0  0  0  0
   58.8790   34.5940   53.3890 C   0  0  0  0  0  0  0  0  0  0  0  0
   60.5940   32.1190   51.4600 C   0  0  0  0  0  0  0  0  0  0  0  0
   60.6220   31.4220   50.2470 C   0  0  0  0  0  0  0  0  0  0  0  0
   58.3660   30.3260   47.4420 N   0  0  0  0  0  0  0  0  0  0  0  0
   58.8360   29.6560   46.4130 N   0  0  0  0  0  0  0  0  0  0  0  0
   58.4860   33.8720   47.3620 C   0  0  0  0  0  0  0  0  0  0  0  0
   59.4760   34.1040   48.3250 C   0  0  0  0  0  0  0  0  0  0  0  0
   63.3421   31.8259   49.4036 H   0  0  0  0  0  0  0  0  0  0  0  0
   62.4092   32.1733   47.9084 H   0  0  0  0  0  0  0  0  0  0  0  0
   64.1983   32.3338   47.9084 H   0  0  0  0  0  0  0  0  0  0  0  0
   63.6055   34.0525   49.9235 H   0  0  0  0  0  0  0  0  0  0  0  0
   63.6708   34.5504   48.1886 H   0  0  0  0  0  0  0  0  0  0  0  0
   62.2450   33.8576   46.3329 H   0  0  0  0  0  0  0  0  0  0  0  0
   60.4805   33.4558   44.6174 H   0  0  0  0  0  0  0  0  0  0  0  0
   55.7858   30.9211   43.6182 H   0  0  0  0  0  0  0  0  0  0  0  0
   57.5817   31.1114   43.5598 H   0  0  0  0  0  0  0  0  0  0  0  0
   56.2433   29.4261   45.7063 H   0  0  0  0  0  0  0  0  0  0  0  0
   56.6177   28.7610   44.0612 H   0  0  0  0  0  0  0  0  0  0  0  0
   59.1098   28.2056   43.4352 H   0  0  0  0  0  0  0  0  0  0  0  0
   57.2755   31.4309   49.5450 H   0  0  0  0  0  0  0  0  0  0  0  0
   57.2333   32.6913   51.6935 H   0  0  0  0  0  0  0  0  0  0  0  0
   58.7927   34.8043   54.4653 H   0  0  0  0  0  0  0  0  0  0  0  0
   59.5460   35.3343   52.9231 H   0  0  0  0  0  0  0  0  0  0  0  0
   57.8842   34.6523   52.9231 H   0  0  0  0  0  0  0  0  0  0  0  0
   61.5321   32.3021   52.0044 H   0  0  0  0  0  0  0  0  0  0  0  0
   61.5815   31.0677   49.8423 H   0  0  0  0  0  0  0  0  0  0  0  0
   57.4252   33.8829   47.6529 H   0  0  0  0  0  0  0  0  0  0  0  0
   59.1867   34.2943   49.3691 H   0  0  0  0  0  0  0  0  0  0  0  0
  1  2  1  0
  2  3  1  0
  3  4  1  0
  4  5  2  0
  5  6  1  0
  6  7  2  0
  7  8  1  0
  8  9  2  0
  8 10  2  0
  8 11  1  0
 11 12  1  0
 12 13  1  0
 13 14  1  0
 14 15  2  0
 15 16  1  0
 16 17  1  0
 17 18  2  0
 18 19  1  0
 19 20  1  0
 20 21  2  0
 21 22  1  0
 22 23  2  0
 23 24  1  0
 24 25  1  0
 23 26  1  0
 26 27  2  0
 19 28  2  0
 28 29  1  0
  7 30  1  0
 30 31  2  0
 31  4  1  0
 29 14  1  0
 29 17  1  0
 27 20  1  0
  1 32  1  0
  1 33  1  0
  1 34  1  0
  2 35  1  0
  2 36  1  0
  5 37  1  0
  6 38  1  0
 12 39  1  0
 12 40  1  0
 13 41  1  0
 13 42  1  0
 15 43  1  0
 21 44  1  0
 22 45  1  0
 25 46  1  0
 25 47  1  0
 25 48  1  0
 26 49  1  0
 27 50  1  0
 30 51  1  0
 31 52  1  0
M  CHG  1  11  -1
M  END
>  <UniqueID>  (20) 
20

>  <SMILES>  (20) 
CCOc1ccc(S(=O)(=O)[N-]CCc2csc3nc(-c4ccc(OC)cc4)nn23)cc1

>  <Energy>  (20) 
134.56820328428267

>  <Genealogy>  (20) 
CCOc1ccc(S(=O)(=O)[N-]CCc2csc3nc(-c4ccc(OC)cc4)nn23)cc1 (protonated)
CCOc1ccc(S(=O)(=O)[N-]CCc2csc3nc(-c4ccc(OC)cc4)nn23)cc1 (3D coordinates assigned)
CCOc1ccc(S(=O)(=O)[N-]CCc2csc3nc(-c4ccc(OC)cc4)nn23)cc1 (optimized conformer: 134.56820328428267 kcal/mol)

>  <smiles>  (20) 
CCOc1ccc(S(=O)(=O)NCCc2csc3nc(-c4ccc(OC)cc4)nn23)cc1

>  <score_type>  (20) 
oracle

>  <origin>  (20) 
adg

>  <m_score__min__energy>  (20) 
-9.6899999999999995

>  <m_primary>  (20) 
energy

$$$$
20:0
     RDKit          3D

 45 47  0  0  0  0  0  0  0  0999 V2000
   56.2720   30.0130   43.0780 C   0  0  0  0  0  0  0  0  0  0  0  0
   56.8650   30.1080   44.4840 C   0  0  0  0  0  0  0  0  0  0  0  0
   58.2850   30.6890   44.4830 C   0  0  0  0  0  0  0  0  0  0  0  0
   59.0760   30.2280   45.6700 C   0  0  0  0  0  0  0  0  0  0  0  0
   59.1840   30.9250   46.8220 N   0  0  0  0  0  0  0  0  0  0  0  0
   59.9200   30.2690   47.7610 C   0  0  0  0  0  0  0  0  0  0  0  0
   60.1430   30.8330   49.1330 C   0  0  0  0  0  0  0  0  0  0  0  0
   59.3970   32.0960   49.3020 N   0  0  0  0  0  0  0  0  0  0  0  0
   58.3240   31.9680   50.3070 C   0  0  0  0  0  0  0  0  0  0  0  0
   60.2890   33.2450   49.5800 C   0  0  0  0  0  0  0  0  0  0  0  0
   61.3110   33.5030   48.4890 C   0  0  0  0  0  0  0  0  0  0  0  0
   62.6780   33.4470   48.6980 C   0  0  0  0  0  0  0  0  0  0  0  0
   63.2760   33.6110   47.4670 C   0  0  0  0  0  0  0  0  0  0  0  0
   62.2570   33.7630   46.5510 C   0  0  0  0  0  0  0  0  0  0  0  0
   61.0590   33.7060   47.1710 N   0  0  0  0  0  0  0  0  0  0  0  0
   59.7980   33.8550   46.4960 C   0  0  0  0  0  0  0  0  0  0  0  0
   58.6360   33.7040   47.1910 N   0  0  0  0  0  0  0  0  0  0  0  0
   57.4300   33.8160   46.5770 C   0  0  0  0  0  0  0  0  0  0  0  0
   57.3680   34.0800   45.2100 C   0  0  0  0  0  0  0  0  0  0  0  0
   58.5630   34.2170   44.5070 C   0  0  0  0  0  0  0  0  0  0  0  0
   59.7490   34.0970   45.1580 N   0  0  0  0  0  0  0  0  0  0  0  0
   60.4020   29.0240   47.3590 C   0  0  0  0  0  0  0  0  0  0  0  0
   59.8830   28.7560   45.7810 S   0  0  0  0  0  0  0  0  0  0  0  0
   55.1881   29.8394   43.1482 H   0  0  0  0  0  0  0  0  0  0  0  0
   56.4586   30.9525   42.5371 H   0  0  0  0  0  0  0  0  0  0  0  0
   56.7427   29.1788   42.5371 H   0  0  0  0  0  0  0  0  0  0  0  0
   56.2194   30.7546   45.0965 H   0  0  0  0  0  0  0  0  0  0  0  0
   56.9205   29.0886   44.8937 H   0  0  0  0  0  0  0  0  0  0  0  0
   58.8002   30.3684   43.5655 H   0  0  0  0  0  0  0  0  0  0  0  0
   58.2059   31.7852   44.5296 H   0  0  0  0  0  0  0  0  0  0  0  0
   58.7420   31.8580   46.9790 H   0  0  0  0  0  0  0  0  0  0  0  0
   59.7984   30.1062   49.8833 H   0  0  0  0  0  0  0  0  0  0  0  0
   61.2165   31.0343   49.2641 H   0  0  0  0  0  0  0  0  0  0  0  0
   58.7587   32.0199   51.3161 H   0  0  0  0  0  0  0  0  0  0  0  0
   57.6004   32.7862   50.1770 H   0  0  0  0  0  0  0  0  0  0  0  0
   57.8131   31.0025   50.1770 H   0  0  0  0  0  0  0  0  0  0  0  0
   59.6687   34.1462   49.6946 H   0  0  0  0  0  0  0  0  0  0  0  0
   60.8501   33.0019   50.4944 H   0  0  0  0  0  0  0  0  0  0  0  0
   63.1888   33.2999   49.6610 H   0  0  0  0  0  0  0  0  0  0  0  0
   64.3557   33.6190   47.2565 H   0  0  0  0  0  0  0  0  0  0  0  0
   62.3995   33.9097   45.4702 H   0  0  0  0  0  0  0  0  0  0  0  0
   56.5033   33.6985   47.1578 H   0  0  0  0  0  0  0  0  0  0  0  0
   56.3991   34.1778   44.6985 H   0  0  0  0  0  0  0  0  0  0  0  0
   58.5460   34.4220   43.4264 H   0  0  0  0  0  0  0  0  0  0  0  0
   61.0128   28.3390   47.9654 H   0  0  0  0  0  0  0  0  0  0  0  0
  1  2  1  0
  2  3  1  0
  3  4  1  0
  4  5  2  0
  5  6  1  0
  6  7  1  0
  7  8  1  0
  8  9  1  0
  8 10  1  0
 10 11  1  0
 11 12  2  0
 12 13  1  0
 13 14  2  0
 14 15  1  0
 15 16  1  0
 16 17  2  0
 17 18  1  0
 18 19  2  0
 19 20  1  0
 20 21  2  0
  6 22  2  0
 22 23  1  0
 23  4  1  0
 15 11  1  0
 21 16  1  0
  1 24  1  0
  1 25  1  0
  1 26  1  0
  2 27  1  0
  2 28  1  0
  3 29  1  0
  3 30  1  0
  5 31  1  0
  7 32  1  0
  7 33  1  0
  9 34  1  0
  9 35  1  0
  9 36  1  0
 10 37  1  0
 10 38  1  0
 12 39  1  0
 13 40  1  0
 14 41  1  0
 18 42  1  0
 19 43  1  0
 20 44  1  0
 22 45  1  0
M  CHG  1   5   1
M  END
>  <UniqueID>  (21) 
21

>  <SMILES>  (21) 
CCCc1[nH+]c(CN(C)Cc2cccn2-c2ncccn2)cs1

>  <Energy>  (21) 
101.67400642268959

>  <Genealogy>  (21) 
CCCc1[nH+]c(CN(C)Cc2cccn2-c2ncccn2)cs1 (protonated)
CCCc1[nH+]c(CN(C)Cc2cccn2-c2ncccn2)cs1 (3D coordinates assigned)
CCCc1[nH+]c(CN(C)Cc2cccn2-c2ncccn2)cs1 (optimized conformer: 101.67400642268959 kcal/mol)

>  <smiles>  (21) 
CCCc1nc(CN(C)Cc2cccn2-c2ncccn2)cs1

>  <score_type>  (21) 
oracle

>  <origin>  (21) 
adg

>  <m_score__min__energy>  (21) 
-5.25

>  <m_primary>  (21) 
energy

$$$$
21:0
     RDKit          3D

 44 46  0  0  0  0  0  0  0  0999 V2000
   56.7230   33.4190   46.6770 O   0  0  0  0  0  0  0  0  0  0  0  0
   58.1230   33.9680   45.9290 S   0  0  0  0  0  0  0  0  0  0  0  0
   58.4440   33.0850   44.4180 C   0  0  0  0  0  0  0  0  0  0  0  0
   58.2340   31.6140   44.6330 C   0  0  0  0  0  0  0  0  0  0  0  0
   57.4500   30.8720   43.7370 C   0  0  0  0  0  0  0  0  0  0  0  0
   57.2890   29.4950   43.9110 C   0  0  0  0  0  0  0  0  0  0  0  0
   57.9170   28.8370   44.9800 C   0  0  0  0  0  0  0  0  0  0  0  0
   57.7500   27.4160   45.1540 N   0  0  0  0  0  0  0  0  0  0  0  0
   58.1440   26.5010   44.0780 C   0  0  0  0  0  0  0  0  0  0  0  0
   57.3210   25.2120   44.1710 C   0  0  0  0  0  0  0  0  0  0  0  0
   57.3980   24.6590   45.4700 O   0  0  0  0  0  0  0  0  0  0  0  0
   56.7900   25.5370   46.4000 C   0  0  0  0  0  0  0  0  0  0  0  0
   57.5680   26.8530   46.4950 C   0  0  0  0  0  0  0  0  0  0  0  0
   58.7070   29.5810   45.8740 C   0  0  0  0  0  0  0  0  0  0  0  0
   58.8700   30.9570   45.6970 C   0  0  0  0  0  0  0  0  0  0  0  0
   59.4870   33.8870   47.0280 C   0  0  0  0  0  0  0  0  0  0  0  0
   59.2810   34.0130   48.4040 C   0  0  0  0  0  0  0  0  0  0  0  0
   60.3650   33.9400   49.2830 C   0  0  0  0  0  0  0  0  0  0  0  0
   61.6580   33.7490   48.7880 C   0  0  0  0  0  0  0  0  0  0  0  0
   61.8820   33.6470   47.4030 C   0  0  0  0  0  0  0  0  0  0  0  0
   63.2730   33.3930   46.8770 C   0  0  0  0  0  0  0  0  0  0  0  0
   63.5090   32.0340   46.7640 F   0  0  0  0  0  0  0  0  0  0  0  0
   63.4020   33.9790   45.6320 F   0  0  0  0  0  0  0  0  0  0  0  0
   64.2250   33.9280   47.7270 F   0  0  0  0  0  0  0  0  0  0  0  0
   60.7820   33.6940   46.5270 C   0  0  0  0  0  0  0  0  0  0  0  0
   56.1350   34.2140   46.7170 H   0  0  0  0  0  0  0  0  0  0  0  0
   57.7587   33.4409   43.6346 H   0  0  0  0  0  0  0  0  0  0  0  0
   59.4848   33.2615   44.1088 H   0  0  0  0  0  0  0  0  0  0  0  0
   56.9590   31.3773   42.8923 H   0  0  0  0  0  0  0  0  0  0  0  0
   56.6668   28.9236   43.2065 H   0  0  0  0  0  0  0  0  0  0  0  0
   57.9633   26.9811   43.1049 H   0  0  0  0  0  0  0  0  0  0  0  0
   59.2126   26.2596   44.1773 H   0  0  0  0  0  0  0  0  0  0  0  0
   56.2701   25.4376   43.9369 H   0  0  0  0  0  0  0  0  0  0  0  0
   57.7256   24.4832   43.4533 H   0  0  0  0  0  0  0  0  0  0  0  0
   55.7606   25.7493   46.0756 H   0  0  0  0  0  0  0  0  0  0  0  0
   56.7884   25.0563   47.3894 H   0  0  0  0  0  0  0  0  0  0  0  0
   57.0072   27.5654   47.1178 H   0  0  0  0  0  0  0  0  0  0  0  0
   58.5525   26.6629   46.9474 H   0  0  0  0  0  0  0  0  0  0  0  0
   59.1998   29.0764   46.7181 H   0  0  0  0  0  0  0  0  0  0  0  0
   59.4999   31.5280   46.3950 H   0  0  0  0  0  0  0  0  0  0  0  0
   58.2651   34.1697   48.7957 H   0  0  0  0  0  0  0  0  0  0  0  0
   60.2003   34.0330   50.3666 H   0  0  0  0  0  0  0  0  0  0  0  0
   62.5055   33.6780   49.4856 H   0  0  0  0  0  0  0  0  0  0  0  0
   60.9388   33.5788   45.4443 H   0  0  0  0  0  0  0  0  0  0  0  0
  2  1  1  1
  2  3  1  0
  3  4  1  0
  4  5  2  0
  5  6  1  0
  6  7  2  0
  7  8  1  0
  8  9  1  0
  9 10  1  0
 10 11  1  0
 11 12  1  0
 12 13  1  0
  7 14  1  0
 14 15  2  0
  2 16  1  0
 16 17  2  0
 17 18  1  0
 18 19  2  0
 19 20  1  0
 20 21  1  0
 21 22  1  0
 21 23  1  0
 21 24  1  0
 20 25  2  0
 15  4  1  0
 25 16  1  0
 13  8  1  0
  1 26  1  0
  3 27  1  0
  3 28  1  0
  5 29  1  0
  6 30  1  0
  9 31  1  0
  9 32  1  0
 10 33  1  0
 10 34  1  0
 12 35  1  0
 12 36  1  0
 13 37  1  0
 13 38  1  0
 14 39  1  0
 15 40  1  0
 17 41  1  0
 18 42  1  0
 19 43  1  0
 25 44  1  0
M  CHG  1   2   1
M  END
>  <UniqueID>  (22) 
22

>  <SMILES>  (22) 
O[S@+](Cc1ccc(N2CCOCC2)cc1)c1cccc(C(F)(F)F)c1

>  <Energy>  (22) 
45.68313803699347

>  <Genealogy>  (22) 
O[S+](Cc1ccc(N2CCOCC2)cc1)c1cccc(C(F)(F)F)c1 (protonated)
O[S@+](Cc1ccc(N2CCOCC2)cc1)c1cccc(C(F)(F)F)c1 (chirality)
O[S@+](Cc1ccc(N2CCOCC2)cc1)c1cccc(C(F)(F)F)c1 (3D coordinates assigned)
O[S@+](Cc1ccc(N2CCOCC2)cc1)c1cccc(C(F)(F)F)c1 (nonaromatic ring conformer: 45.68313803699347 kcal/mol)

>  <smiles>  (22) 
[O-][S+](Cc1ccc(N2CCOCC2)cc1)c1cccc(C(F)(F)F)c1

>  <score_type>  (22) 
oracle

>  <origin>  (22) 
adg

>  <m_score__min__energy>  (22) 
-6.8300000000000001

>  <m_primary>  (22) 
energy

$$$$
22:0
     RDKit          3D

 46 47  0  0  0  0  0  0  0  0999 V2000
   62.7030   32.9730   47.2130 C   0  0  0  0  0  0  0  0  0  0  0  0
   62.4330   31.5100   47.5980 C   0  0  0  0  0  0  0  0  0  0  0  0
   61.0050   31.1840   47.8540 N   0  0  1  0  0  0  0  0  0  0  0  0
   60.7670   29.7280   47.8220 C   0  0  0  0  0  0  0  0  0  0  0  0
   60.4550   31.7660   49.1060 C   0  0  0  0  0  0  0  0  0  0  0  0
   58.9170   31.9180   49.0860 C   0  0  0  0  0  0  0  0  0  0  0  0
   58.3760   31.8540   47.7270 N   0  0  0  0  0  0  0  0  0  0  0  0
   58.5460   32.9150   46.7680 C   0  0  0  0  0  0  0  0  0  0  0  0
   59.3690   34.0220   47.0520 C   0  0  0  0  0  0  0  0  0  0  0  0
   59.5400   35.0370   46.1090 C   0  0  0  0  0  0  0  0  0  0  0  0
   58.8970   34.9590   44.8740 C   0  0  0  0  0  0  0  0  0  0  0  0
   58.0740   33.8700   44.5780 C   0  0  0  0  0  0  0  0  0  0  0  0
   57.8870   32.8430   45.5250 C   0  0  0  0  0  0  0  0  0  0  0  0
   57.0440   31.7500   45.2740 O   0  0  0  0  0  0  0  0  0  0  0  0
   57.1460   30.8770   44.1540 C   0  0  0  0  0  0  0  0  0  0  0  0
   57.8020   29.6030   44.5960 C   0  0  0  0  0  0  0  0  0  0  0  0
   59.1990   29.4720   44.5420 C   0  0  0  0  0  0  0  0  0  0  0  0
   59.8150   28.3090   45.0130 C   0  0  0  0  0  0  0  0  0  0  0  0
   59.0440   27.2750   45.5520 C   0  0  0  0  0  0  0  0  0  0  0  0
   57.6530   27.4040   45.6230 C   0  0  0  0  0  0  0  0  0  0  0  0
   56.6880   26.1170   46.3210 Cl  0  0  0  0  0  0  0  0  0  0  0  0
   57.0330   28.5660   45.1520 C   0  0  0  0  0  0  0  0  0  0  0  0
   62.8146   33.5776   48.1252 H   0  0  0  0  0  0  0  0  0  0  0  0
   63.6271   33.0313   46.6191 H   0  0  0  0  0  0  0  0  0  0  0  0
   61.8606   33.3573   46.6191 H   0  0  0  0  0  0  0  0  0  0  0  0
   62.7880   30.8694   46.7773 H   0  0  0  0  0  0  0  0  0  0  0  0
   62.9639   31.3371   48.5457 H   0  0  0  0  0  0  0  0  0  0  0  0
   60.4590   31.5820   47.0530 H   0  0  0  0  0  0  0  0  0  0  0  0
   60.7042   29.3440   48.8509 H   0  0  0  0  0  0  0  0  0  0  0  0
   59.8233   29.5222   47.2956 H   0  0  0  0  0  0  0  0  0  0  0  0
   61.5961   29.2324   47.2956 H   0  0  0  0  0  0  0  0  0  0  0  0
   60.7301   31.1109   49.9457 H   0  0  0  0  0  0  0  0  0  0  0  0
   60.8806   32.7750   49.2104 H   0  0  0  0  0  0  0  0  0  0  0  0
   58.4725   31.1083   49.6834 H   0  0  0  0  0  0  0  0  0  0  0  0
   58.6681   32.9045   49.5041 H   0  0  0  0  0  0  0  0  0  0  0  0
   57.7870   31.0350   47.4560 H   0  0  0  0  0  0  0  0  0  0  0  0
   59.8806   34.0873   48.0236 H   0  0  0  0  0  0  0  0  0  0  0  0
   60.1826   35.8993   46.3403 H   0  0  0  0  0  0  0  0  0  0  0  0
   59.0384   35.7575   44.1308 H   0  0  0  0  0  0  0  0  0  0  0  0
   57.5698   33.8137   43.6020 H   0  0  0  0  0  0  0  0  0  0  0  0
   56.1417   30.6595   43.7615 H   0  0  0  0  0  0  0  0  0  0  0  0
   57.7440   31.3515   43.3620 H   0  0  0  0  0  0  0  0  0  0  0  0
   59.8105   30.2871   44.1278 H   0  0  0  0  0  0  0  0  0  0  0  0
   60.9090   28.2072   44.9594 H   0  0  0  0  0  0  0  0  0  0  0  0
   59.5311   26.3601   45.9202 H   0  0  0  0  0  0  0  0  0  0  0  0
   55.9397   28.6687   45.2169 H   0  0  0  0  0  0  0  0  0  0  0  0
  1  2  1  0
  2  3  1  0
  3  4  1  0
  3  5  1  0
  5  6  1  0
  6  7  1  0
  7  8  1  0
  8  9  2  0
  9 10  1  0
 10 11  2  0
 11 12  1  0
 12 13  2  0
 13 14  1  0
 14 15  1  0
 15 16  1  0
 16 17  2  0
 17 18  1  0
 18 19  2  0
 19 20  1  0
 20 21  1  0
 20 22  2  0
 13  8  1  0
 22 16  1  0
  1 23  1  0
  1 24  1  0
  1 25  1  0
  2 26  1  0
  2 27  1  0
  3 28  1  6
  4 29  1  0
  4 30  1  0
  4 31  1  0
  5 32  1  0
  5 33  1  0
  6 34  1  0
  6 35  1  0
  7 36  1  0
  9 37  1  0
 10 38  1  0
 11 39  1  0
 12 40  1  0
 15 41  1  0
 15 42  1  0
 17 43  1  0
 18 44  1  0
 19 45  1  0
 22 46  1  0
M  CHG  1   3   1
M  END
>  <UniqueID>  (23) 
23

>  <SMILES>  (23) 
CC[N@@H+](C)CCNc1ccccc1OCc1cccc(Cl)c1

>  <Energy>  (23) 
46.58633973050307

>  <Genealogy>  (23) 
CC[NH+](C)CCNc1ccccc1OCc1cccc(Cl)c1 (protonated)
CC[N@@H+](C)CCNc1ccccc1OCc1cccc(Cl)c1 (chirality)
CC[N@@H+](C)CCNc1ccccc1OCc1cccc(Cl)c1 (3D coordinates assigned)
CC[N@@H+](C)CCNc1ccccc1OCc1cccc(Cl)c1 (optimized conformer: 46.58633973050307 kcal/mol)

>  <smiles>  (23) 
CCN(C)CCNc1ccccc1OCc1cccc(Cl)c1

>  <score_type>  (23) 
oracle

>  <origin>  (23) 
adg

>  <m_score__min__energy>  (23) 
-5.3899999999999997

>  <m_primary>  (23) 
energy

$$$$
23:0
     RDKit          3D

 42 44  0  0  0  0  0  0  0  0999 V2000
   58.3880   34.2480   45.0530 C   0  0  0  0  0  0  0  0  0  0  0  0
   57.3290   33.3460   45.6970 C   0  0  0  0  0  0  0  0  0  0  0  0
   57.4480   31.9240   45.2490 N   0  0  0  0  0  0  0  0  0  0  0  0
   57.3920   31.8570   43.7640 C   0  0  0  0  0  0  0  0  0  0  0  0
   56.6490   30.6200   43.2390 C   0  0  0  0  0  0  0  0  0  0  0  0
   58.7020   31.3050   45.7540 C   0  0  0  0  0  0  0  0  0  0  0  0
   58.4760   29.9160   46.2820 C   0  0  0  0  0  0  0  0  0  0  0  0
   57.6550   28.9510   45.7140 C   0  0  0  0  0  0  0  0  0  0  0  0
   57.6770   27.7310   46.4080 C   0  0  0  0  0  0  0  0  0  0  0  0
   56.8980   26.5520   45.9960 C   0  0  0  0  0  0  0  0  0  0  0  0
   57.4750   25.4320   45.4840 N   0  0  0  0  0  0  0  0  0  0  0  0
   56.4200   24.6350   45.2560 C   0  0  0  0  0  0  0  0  0  0  0  0
   56.4180   23.3400   44.7270 C   0  0  0  0  0  0  0  0  0  0  0  0
   57.6880   22.6710   44.2940 C   0  0  0  0  0  0  0  0  0  0  0  0
   55.1640   22.7110   44.5610 C   0  0  0  0  0  0  0  0  0  0  0  0
   53.9740   23.3720   44.9430 C   0  0  0  0  0  0  0  0  0  0  0  0
   54.0210   24.6690   45.4830 C   0  0  0  0  0  0  0  0  0  0  0  0
   55.2710   25.2680   45.6210 C   0  0  0  0  0  0  0  0  0  0  0  0
   55.5440   26.4910   46.0960 N   0  0  0  0  0  0  0  0  0  0  0  0
   58.5160   27.7410   47.5210 C   0  0  0  0  0  0  0  0  0  0  0  0
   59.2280   29.2600   47.6340 S   0  0  0  0  0  0  0  0  0  0  0  0
   58.9730   34.7463   45.8401 H   0  0  0  0  0  0  0  0  0  0  0  0
   59.0578   33.6388   44.4284 H   0  0  0  0  0  0  0  0  0  0  0  0
   57.8931   35.0062   44.4284 H   0  0  0  0  0  0  0  0  0  0  0  0
   57.4487   33.3841   46.7898 H   0  0  0  0  0  0  0  0  0  0  0  0
   56.3395   33.7148   45.3889 H   0  0  0  0  0  0  0  0  0  0  0  0
   56.6350   31.3700   45.6140 H   0  0  0  0  0  0  0  0  0  0  0  0
   56.8783   32.7562   43.3931 H   0  0  0  0  0  0  0  0  0  0  0  0
   58.4286   31.7924   43.4016 H   0  0  0  0  0  0  0  0  0  0  0  0
   56.2890   30.0207   44.0882 H   0  0  0  0  0  0  0  0  0  0  0  0
   55.7929   30.9391   42.6263 H   0  0  0  0  0  0  0  0  0  0  0  0
   57.3328   30.0141   42.6263 H   0  0  0  0  0  0  0  0  0  0  0  0
   59.4301   31.2571   44.9308 H   0  0  0  0  0  0  0  0  0  0  0  0
   59.0752   31.9250   46.5825 H   0  0  0  0  0  0  0  0  0  0  0  0
   57.0493   29.1247   44.8124 H   0  0  0  0  0  0  0  0  0  0  0  0
   58.2636   22.3678   45.1810 H   0  0  0  0  0  0  0  0  0  0  0  0
   57.4475   21.7826   43.6917 H   0  0  0  0  0  0  0  0  0  0  0  0
   58.2847   23.3718   43.6917 H   0  0  0  0  0  0  0  0  0  0  0  0
   55.1131   21.6996   44.1314 H   0  0  0  0  0  0  0  0  0  0  0  0
   53.0045   22.8678   44.8168 H   0  0  0  0  0  0  0  0  0  0  0  0
   53.1024   25.1928   45.7861 H   0  0  0  0  0  0  0  0  0  0  0  0
   58.6837   26.8987   48.2083 H   0  0  0  0  0  0  0  0  0  0  0  0
  1  2  1  0
  2  3  1  0
  3  4  1  0
  4  5  1  0
  3  6  1  0
  6  7  1  0
  7  8  2  0
  8  9  1  0
  9 10  1  0
 10 11  2  0
 11 12  1  0
 12 13  2  0
 13 14  1  0
 13 15  1  0
 15 16  2  0
 16 17  1  0
 17 18  2  0
 18 19  1  0
  9 20  2  0
 20 21  1  0
 21  7  1  0
 19 10  1  0
 18 12  1  0
  1 22  1  0
  1 23  1  0
  1 24  1  0
  2 25  1  0
  2 26  1  0
  3 27  1  0
  4 28  1  0
  4 29  1  0
  5 30  1  0
  5 31  1  0
  5 32  1  0
  6 33  1  0
  6 34  1  0
  8 35  1  0
 14 36  1  0
 14 37  1  0
 14 38  1  0
 15 39  1  0
 16 40  1  0
 17 41  1  0
 20 42  1  0
M  CHG  2   3   1  19  -1
M  END
>  <UniqueID>  (24) 
24

>  <SMILES>  (24) 
CC[NH+](CC)Cc1cc(-c2nc3c(C)cccc3[n-]2)cs1

>  <Energy>  (24) 
104.96893389913086

>  <Genealogy>  (24) 
CC[NH+](CC)Cc1cc(-c2nc3c(C)cccc3[n-]2)cs1 (protonated)
CC[NH+](CC)Cc1cc(-c2nc3c(C)cccc3[n-]2)cs1 (3D coordinates assigned)
CC[NH+](CC)Cc1cc(-c2nc3c(C)cccc3[n-]2)cs1 (optimized conformer: 104.96893389913086 kcal/mol)

>  <smiles>  (24) 
CCN(CC)Cc1cc(-c2nc3c(C)cccc3[nH]2)cs1

>  <score_type>  (24) 
oracle

>  <origin>  (24) 
adg

>  <m_score__min__energy>  (24) 
-6.5700000000000003

>  <m_primary>  (24) 
energy

$$$$
24:0
     RDKit          3D

 56 58  0  0  0  0  0  0  0  0999 V2000
   58.2110   32.3360   49.4360 C   0  0  0  0  0  0  0  0  0  0  0  0
   58.0610   32.3000   48.0210 O   0  0  0  0  0  0  0  0  0  0  0  0
   58.4620   33.3230   47.1470 C   0  0  0  0  0  0  0  0  0  0  0  0
   59.2990   34.3740   47.5790 C   0  0  0  0  0  0  0  0  0  0  0  0
   59.7250   35.3540   46.6800 C   0  0  0  0  0  0  0  0  0  0  0  0
   59.3370   35.2930   45.3420 C   0  0  0  0  0  0  0  0  0  0  0  0
   58.5060   34.2620   44.9020 C   0  0  0  0  0  0  0  0  0  0  0  0
   58.0360   33.2940   45.7990 C   0  0  0  0  0  0  0  0  0  0  0  0
   57.1410   32.3260   45.3150 O   0  0  0  0  0  0  0  0  0  0  0  0
   57.3530   31.5660   44.1210 C   0  0  0  0  0  0  0  0  0  0  0  0
   57.1840   30.0930   44.3970 C   0  0  0  0  0  0  0  0  0  0  0  0
   56.1240   29.7120   44.8720 O   0  0  0  0  0  0  0  0  0  0  0  0
   58.2540   29.1480   44.1090 N   0  0  2  0  0  0  0  0  0  0  0  0
   57.7850   27.7450   44.1600 C   0  0  0  0  0  0  0  0  0  0  0  0
   57.6330   27.2070   45.5900 C   0  0  0  0  0  0  0  0  0  0  0  0
   58.9290   27.3930   46.3760 C   0  0  0  0  0  0  0  0  0  0  0  0
   59.3430   28.8700   46.3820 C   0  0  1  0  0  0  0  0  0  0  0  0
   60.6240   29.0280   47.0830 N   0  0  0  0  0  0  0  0  0  0  0  0
   61.0660   30.2430   47.7230 C   0  0  0  0  0  0  0  0  0  0  0  0
   60.9320   30.4520   49.1070 C   0  0  0  0  0  0  0  0  0  0  0  0
   61.3730   31.6420   49.6880 C   0  0  0  0  0  0  0  0  0  0  0  0
   61.9490   32.6540   48.9050 C   0  0  0  0  0  0  0  0  0  0  0  0
   62.4150   33.9260   49.5660 C   0  0  0  0  0  0  0  0  0  0  0  0
   62.0750   32.4630   47.5090 C   0  0  0  0  0  0  0  0  0  0  0  0
   62.6910   33.5170   46.6270 C   0  0  0  0  0  0  0  0  0  0  0  0
   61.6380   31.2560   46.9360 C   0  0  0  0  0  0  0  0  0  0  0  0
   59.4670   29.3840   44.9300 C   0  0  0  0  0  0  0  0  0  0  0  0
   57.2471   32.1047   49.9129 H   0  0  0  0  0  0  0  0  0  0  0  0
   58.9605   31.5922   49.7443 H   0  0  0  0  0  0  0  0  0  0  0  0
   58.5413   33.3389   49.7443 H   0  0  0  0  0  0  0  0  0  0  0  0
   59.6179   34.4215   48.6307 H   0  0  0  0  0  0  0  0  0  0  0  0
   60.3680   36.1758   47.0281 H   0  0  0  0  0  0  0  0  0  0  0  0
   59.6862   36.0581   44.6330 H   0  0  0  0  0  0  0  0  0  0  0  0
   58.2175   34.2089   43.8418 H   0  0  0  0  0  0  0  0  0  0  0  0
   56.6236   31.8778   43.3589 H   0  0  0  0  0  0  0  0  0  0  0  0
   58.3768   31.7459   43.7612 H   0  0  0  0  0  0  0  0  0  0  0  0
   58.5550   29.3130   43.1180 H   0  0  0  0  0  0  0  0  0  0  0  0
   56.8077   27.6851   43.6587 H   0  0  0  0  0  0  0  0  0  0  0  0
   58.5462   27.1287   43.6592 H   0  0  0  0  0  0  0  0  0  0  0  0
   56.8221   27.7510   46.0964 H   0  0  0  0  0  0  0  0  0  0  0  0
   57.3992   26.1332   45.5414 H   0  0  0  0  0  0  0  0  0  0  0  0
   58.7766   27.0550   47.4116 H   0  0  0  0  0  0  0  0  0  0  0  0
   59.7240   26.8013   45.8987 H   0  0  0  0  0  0  0  0  0  0  0  0
   58.5753   29.4579   46.9065 H   0  0  0  0  0  0  0  0  0  0  0  0
   61.2720   28.2090   47.1130 H   0  0  0  0  0  0  0  0  0  0  0  0
   60.4767   29.6727   49.7358 H   0  0  0  0  0  0  0  0  0  0  0  0
   61.2677   31.7883   50.7731 H   0  0  0  0  0  0  0  0  0  0  0  0
   62.3719   33.8084   50.6588 H   0  0  0  0  0  0  0  0  0  0  0  0
   63.4499   34.1400   49.2608 H   0  0  0  0  0  0  0  0  0  0  0  0
   61.7632   34.7579   49.2608 H   0  0  0  0  0  0  0  0  0  0  0  0
   63.1474   34.2980   47.2529 H   0  0  0  0  0  0  0  0  0  0  0  0
   63.4632   33.0582   45.9919 H   0  0  0  0  0  0  0  0  0  0  0  0
   61.9123   33.9646   45.9919 H   0  0  0  0  0  0  0  0  0  0  0  0
   61.7459   31.1022   45.8522 H   0  0  0  0  0  0  0  0  0  0  0  0
   59.6611   30.4663   44.9600 H   0  0  0  0  0  0  0  0  0  0  0  0
   60.2882   28.8236   44.4593 H   0  0  0  0  0  0  0  0  0  0  0  0
  1  2  1  0
  2  3  1  0
  3  4  2  0
  4  5  1  0
  5  6  2  0
  6  7  1  0
  7  8  2  0
  8  9  1  0
  9 10  1  0
 10 11  1  0
 11 12  2  0
 11 13  1  0
 13 14  1  0
 14 15  1  0
 15 16  1  0
 16 17  1  0
 17 18  1  0
 18 19  1  0
 19 20  2  0
 20 21  1  0
 21 22  2  0
 22 23  1  0
 22 24  1  0
 24 25  1  0
 24 26  2  0
 17 27  1  0
  8  3  1  0
 27 13  1  0
 26 19  1  0
  1 28  1  0
  1 29  1  0
  1 30  1  0
  4 31  1  0
  5 32  1  0
  6 33  1  0
  7 34  1  0
 10 35  1  0
 10 36  1  0
 13 37  1  6
 14 38  1  0
 14 39  1  0
 15 40  1  0
 15 41  1  0
 16 42  1  0
 16 43  1  0
 17 44  1  1
 18 45  1  0
 20 46  1  0
 21 47  1  0
 23 48  1  0
 23 49  1  0
 23 50  1  0
 25 51  1  0
 25 52  1  0
 25 53  1  0
 26 54  1  0
 27 55  1  0
 27 56  1  0
M  CHG  1  13   1
M  END
>  <UniqueID>  (25) 
25

>  <SMILES>  (25) 
COc1ccccc1OCC(=O)[N@@H+]1CCC[C@@H](Nc2ccc(C)c(C)c2)C1

>  <Energy>  (25) 
61.215852059154535

>  <Genealogy>  (25) 
COc1ccccc1OCC(=O)[NH+]1CCCC(Nc2ccc(C)c(C)c2)C1 (protonated)
COc1ccccc1OCC(=O)[N@@H+]1CCC[C@@H](Nc2ccc(C)c(C)c2)C1 (chirality)
COc1ccccc1OCC(=O)[N@@H+]1CCC[C@@H](Nc2ccc(C)c(C)c2)C1 (3D coordinates assigned)
COc1ccccc1OCC(=O)[N@@H+]1CCC[C@@H](Nc2ccc(C)c(C)c2)C1 (nonaromatic ring conformer: 61.215852059154535 kcal/mol)

>  <smiles>  (25) 
COc1ccccc1OCC(=O)N1CCCC(Nc2ccc(C)c(C)c2)C1

>  <score_type>  (25) 
oracle

>  <origin>  (25) 
adg

>  <m_score__min__energy>  (25) 
-6.7199999999999998

>  <m_primary>  (25) 
energy

$$$$
25:0
     RDKit          3D

 63 66  0  0  0  0  0  0  0  0999 V2000
   63.2580   32.8310   47.1280 C   0  0  0  0  0  0  0  0  0  0  0  0
   62.4260   31.5970   47.5100 C   0  0  0  0  0  0  0  0  0  0  0  0
   60.9600   31.7800   47.3710 N   0  0  0  0  0  0  0  0  0  0  0  0
   60.1810   30.7390   48.0760 C   0  0  0  0  0  0  0  0  0  0  0  0
   60.7050   29.3390   47.6950 C   0  0  0  0  0  0  0  0  0  0  0  0
   59.8530   28.6590   46.6820 N   0  0  1  0  0  0  0  0  0  0  0  0
   60.0080   29.2190   45.3100 C   0  0  0  0  0  0  0  0  0  0  0  0
   58.7000   29.5710   44.6200 C   0  0  0  0  0  0  0  0  0  0  0  0
   58.0880   30.8160   44.8600 C   0  0  0  0  0  0  0  0  0  0  0  0
   56.8860   31.1510   44.2320 C   0  0  0  0  0  0  0  0  0  0  0  0
   56.2710   30.2410   43.3690 C   0  0  0  0  0  0  0  0  0  0  0  0
   56.8510   28.9910   43.1440 C   0  0  0  0  0  0  0  0  0  0  0  0
   58.0560   28.6510   43.7660 C   0  0  0  0  0  0  0  0  0  0  0  0
   58.5730   27.4140   43.5590 F   0  0  0  0  0  0  0  0  0  0  0  0
   60.0830   27.1910   46.6840 C   0  0  0  0  0  0  0  0  0  0  0  0
   58.8360   26.4070   46.3180 C   0  0  0  0  0  0  0  0  0  0  0  0
   58.9520   25.1500   45.7040 C   0  0  0  0  0  0  0  0  0  0  0  0
   57.8060   24.4220   45.3670 C   0  0  0  0  0  0  0  0  0  0  0  0
   57.9050   23.1630   44.7570 C   0  0  0  0  0  0  0  0  0  0  0  0
   56.7480   22.4530   44.4300 C   0  0  0  0  0  0  0  0  0  0  0  0
   55.4890   22.9910   44.7060 C   0  0  0  0  0  0  0  0  0  0  0  0
   55.3690   24.2530   45.3140 C   0  0  0  0  0  0  0  0  0  0  0  0
   54.0060   24.8140   45.6180 C   0  0  0  0  0  0  0  0  0  0  0  0
   56.5340   24.9680   45.6500 C   0  0  0  0  0  0  0  0  0  0  0  0
   56.4490   26.1900   46.2450 N   0  0  0  0  0  0  0  0  0  0  0  0
   57.5480   26.9140   46.5810 C   0  0  0  0  0  0  0  0  0  0  0  0
   57.4000   28.0410   47.1240 O   0  0  0  0  0  0  0  0  0  0  0  0
   60.5050   33.1480   47.7080 C   0  0  0  0  0  0  0  0  0  0  0  0
   59.3950   33.5780   46.7980 C   0  0  0  0  0  0  0  0  0  0  0  0
   59.5470   34.2280   45.5880 C   0  0  0  0  0  0  0  0  0  0  0  0
   58.2700   34.4150   45.1070 C   0  0  0  0  0  0  0  0  0  0  0  0
   57.4200   33.8640   46.0470 C   0  0  0  0  0  0  0  0  0  0  0  0
   58.1220   33.3700   47.0420 O   0  0  0  0  0  0  0  0  0  0  0  0
   63.6007   33.3393   48.0414 H   0  0  0  0  0  0  0  0  0  0  0  0
   64.1292   32.5165   46.5346 H   0  0  0  0  0  0  0  0  0  0  0  0
   62.6398   33.5207   46.5346 H   0  0  0  0  0  0  0  0  0  0  0  0
   62.7315   30.7620   46.8624 H   0  0  0  0  0  0  0  0  0  0  0  0
   62.6191   31.4054   48.5758 H   0  0  0  0  0  0  0  0  0  0  0  0
   60.2810   30.8822   49.1620 H   0  0  0  0  0  0  0  0  0  0  0  0
   59.1234   30.8202   47.7847 H   0  0  0  0  0  0  0  0  0  0  0  0
   61.7209   29.4435   47.2864 H   0  0  0  0  0  0  0  0  0  0  0  0
   60.6922   28.7221   48.6056 H   0  0  0  0  0  0  0  0  0  0  0  0
   58.8520   28.8170   46.9500 H   0  0  0  0  0  0  0  0  0  0  0  0
   60.6166   30.1327   45.3788 H   0  0  0  0  0  0  0  0  0  0  0  0
   60.4794   28.4321   44.7029 H   0  0  0  0  0  0  0  0  0  0  0  0
   58.5608   31.5317   45.5486 H   0  0  0  0  0  0  0  0  0  0  0  0
   56.4236   32.1318   44.4172 H   0  0  0  0  0  0  0  0  0  0  0  0
   55.3298   30.5091   42.8667 H   0  0  0  0  0  0  0  0  0  0  0  0
   56.3578   28.2708   42.4746 H   0  0  0  0  0  0  0  0  0  0  0  0
   60.8734   26.9567   45.9557 H   0  0  0  0  0  0  0  0  0  0  0  0
   60.3738   26.8996   47.7041 H   0  0  0  0  0  0  0  0  0  0  0  0
   59.9477   24.7359   45.4871 H   0  0  0  0  0  0  0  0  0  0  0  0
   58.8940   22.7349   44.5362 H   0  0  0  0  0  0  0  0  0  0  0  0
   56.8285   21.4652   43.9527 H   0  0  0  0  0  0  0  0  0  0  0  0
   54.5839   22.4227   44.4456 H   0  0  0  0  0  0  0  0  0  0  0  0
   53.8676   24.8709   46.7078 H   0  0  0  0  0  0  0  0  0  0  0  0
   53.9189   25.8211   45.1842 H   0  0  0  0  0  0  0  0  0  0  0  0
   53.2352   24.1600   45.1842 H   0  0  0  0  0  0  0  0  0  0  0  0
   60.1455   33.1628   48.7475 H   0  0  0  0  0  0  0  0  0  0  0  0
   61.3503   33.8412   47.5856 H   0  0  0  0  0  0  0  0  0  0  0  0
   60.4897   34.5321   45.1096 H   0  0  0  0  0  0  0  0  0  0  0  0
   57.9842   34.9045   44.1643 H   0  0  0  0  0  0  0  0  0  0  0  0
   56.3227   33.8422   45.9735 H   0  0  0  0  0  0  0  0  0  0  0  0
  1  2  1  0
  2  3  1  0
  3  4  1  0
  4  5  1  0
  5  6  1  0
  6  7  1  0
  7  8  1  0
  8  9  2  0
  9 10  1  0
 10 11  2  0
 11 12  1  0
 12 13  2  0
 13 14  1  0
  6 15  1  0
 15 16  1  0
 16 17  2  0
 17 18  1  0
 18 19  2  0
 19 20  1  0
 20 21  2  0
 21 22  1  0
 22 23  1  0
 22 24  2  0
 24 25  1  0
 25 26  1  0
 26 27  2  0
  3 28  1  0
 28 29  1  0
 29 30  2  0
 30 31  1  0
 31 32  2  0
 32 33  1  0
 13  8  1  0
 26 16  1  0
 33 29  1  0
 24 18  1  0
  1 34  1  0
  1 35  1  0
  1 36  1  0
  2 37  1  0
  2 38  1  0
  4 39  1  0
  4 40  1  0
  5 41  1  0
  5 42  1  0
  6 43  1  1
  7 44  1  0
  7 45  1  0
  9 46  1  0
 10 47  1  0
 11 48  1  0
 12 49  1  0
 15 50  1  0
 15 51  1  0
 17 52  1  0
 19 53  1  0
 20 54  1  0
 21 55  1  0
 23 56  1  0
 23 57  1  0
 23 58  1  0
 28 59  1  0
 28 60  1  0
 30 61  1  0
 31 62  1  0
 32 63  1  0
M  CHG  2   6   1  25  -1
M  END
>  <UniqueID>  (26) 
26

>  <SMILES>  (26) 
CCN(CC[N@@H+](Cc1ccccc1F)Cc1cc2cccc(C)c2[n-]c1=O)Cc1ccco1

>  <Energy>  (26) 
104.24043207027779

>  <Genealogy>  (26) 
CCN(CC[NH+](Cc1ccccc1F)Cc1cc2cccc(C)c2[n-]c1=O)Cc1ccco1 (protonated)
CCN(CC[N@@H+](Cc1ccccc1F)Cc1cc2cccc(C)c2[n-]c1=O)Cc1ccco1 (chirality)
CCN(CC[N@@H+](Cc1ccccc1F)Cc1cc2cccc(C)c2[n-]c1=O)Cc1ccco1 (3D coordinates assigned)
CCN(CC[N@@H+](Cc1ccccc1F)Cc1cc2cccc(C)c2[n-]c1=O)Cc1ccco1 (optimized conformer: 104.24043207027779 kcal/mol)

>  <smiles>  (26) 
CCN(CCN(Cc1ccccc1F)Cc1cc2cccc(C)c2[nH]c1=O)Cc1ccco1

>  <score_type>  (26) 
oracle

>  <origin>  (26) 
adg

>  <m_score__min__energy>  (26) 
-7.9000000000000004

>  <m_primary>  (26) 
energy

$$$$
26:0
     RDKit          3D

 28 27  0  0  0  0  0  0  0  0999 V2000
   57.7780   33.8440   44.8940 C   0  0  0  0  0  0  0  0  0  0  0  0
   57.0630   32.5260   45.1820 C   0  0  0  0  0  0  0  0  0  0  0  0
   57.4320   31.4590   44.1420 C   0  0  0  0  0  0  0  0  0  0  0  0
   56.2750   30.4920   43.8600 C   0  0  0  0  0  0  0  0  0  0  0  0
   56.2190   29.4340   44.8810 N   0  0  0  0  0  0  0  0  0  0  0  0
   57.5460   29.1680   45.4540 C   0  0  0  0  0  0  0  0  0  0  0  0
   58.3010   28.1370   44.5970 C   0  0  0  0  0  0  0  0  0  0  0  0
   57.7010   27.9680   43.2630 N   0  0  0  0  0  0  0  0  0  0  0  0
   58.1370   26.7310   42.6050 C   0  0  0  0  0  0  0  0  0  0  0  0
   58.0430   34.3325   45.8433 H   0  0  0  0  0  0  0  0  0  0  0  0
   58.6925   33.6463   44.3156 H   0  0  0  0  0  0  0  0  0  0  0  0
   57.1136   34.5028   44.3156 H   0  0  0  0  0  0  0  0  0  0  0  0
   57.3544   32.1699   46.1811 H   0  0  0  0  0  0  0  0  0  0  0  0
   55.9778   32.6994   45.1350 H   0  0  0  0  0  0  0  0  0  0  0  0
   57.7091   31.9614   43.2035 H   0  0  0  0  0  0  0  0  0  0  0  0
   58.2690   30.8713   44.5471 H   0  0  0  0  0  0  0  0  0  0  0  0
   55.3276   31.0510   43.8673 H   0  0  0  0  0  0  0  0  0  0  0  0
   56.4363   30.0257   42.8769 H   0  0  0  0  0  0  0  0  0  0  0  0
   55.9040   28.5550   44.4070 H   0  0  0  0  0  0  0  0  0  0  0  0
   58.1219   30.1047   45.4859 H   0  0  0  0  0  0  0  0  0  0  0  0
   57.4227   28.7665   46.4707 H   0  0  0  0  0  0  0  0  0  0  0  0
   59.3416   28.4724   44.4763 H   0  0  0  0  0  0  0  0  0  0  0  0
   58.2471   27.1676   45.1140 H   0  0  0  0  0  0  0  0  0  0  0  0
   57.9300   28.7870   42.6520 H   0  0  0  0  0  0  0  0  0  0  0  0
   56.6610   27.9270   43.3730 H   0  0  0  0  0  0  0  0  0  0  0  0
   58.4005   25.9833   43.3676 H   0  0  0  0  0  0  0  0  0  0  0  0
   57.3216   26.3426   41.9771 H   0  0  0  0  0  0  0  0  0  0  0  0
   59.0157   26.9398   41.9771 H   0  0  0  0  0  0  0  0  0  0  0  0
  1  2  1  0
  2  3  1  0
  3  4  1  0
  4  5  1  0
  5  6  1  0
  6  7  1  0
  7  8  1  0
  8  9  1  0
  1 10  1  0
  1 11  1  0
  1 12  1  0
  2 13  1  0
  2 14  1  0
  3 15  1  0
  3 16  1  0
  4 17  1  0
  4 18  1  0
  5 19  1  0
  6 20  1  0
  6 21  1  0
  7 22  1  0
  7 23  1  0
  8 24  1  0
  8 25  1  0
  9 26  1  0
  9 27  1  0
  9 28  1  0
M  CHG  1   8   1
M  END
>  <UniqueID>  (27) 
27

>  <SMILES>  (27) 
CCCCNCC[NH2+]C

>  <Energy>  (27) 
14.421981498222548

>  <Genealogy>  (27) 
CCCCNCC[NH2+]C (protonated)
CCCCNCC[NH2+]C (3D coordinates assigned)
CCCCNCC[NH2+]C (optimized conformer: 14.421981498222548 kcal/mol)

>  <smiles>  (27) 
CCCCNCCNC

>  <score_type>  (27) 
oracle

>  <origin>  (27) 
adg

>  <m_score__min__energy>  (27) 
-2.79

>  <m_primary>  (27) 
energy

$$$$
27:0
     RDKit          3D

 54 57  0  0  0  0  0  0  0  0999 V2000
   56.6080   30.0960   42.9220 C   0  0  0  0  0  0  0  0  0  0  0  0
   55.7300   30.0380   44.1660 C   0  0  0  0  0  0  0  0  0  0  0  0
   55.9440   28.7840   44.8910 N   0  0  0  0  0  0  0  0  0  0  0  0
   57.1570   28.4320   45.5900 C   0  0  0  0  0  0  0  0  0  0  0  0
   57.5070   27.0920   45.8450 C   0  0  0  0  0  0  0  0  0  0  0  0
   58.6830   26.7900   46.5350 C   0  0  0  0  0  0  0  0  0  0  0  0
   59.5250   27.8130   46.9750 C   0  0  0  0  0  0  0  0  0  0  0  0
   59.1980   29.1580   46.7300 C   0  0  0  0  0  0  0  0  0  0  0  0
   60.0920   30.2610   47.1570 C   0  0  0  0  0  0  0  0  0  0  0  0
   61.3920   30.4980   46.7300 C   0  0  0  0  0  0  0  0  0  0  0  0
   61.7990   31.6500   47.3660 C   0  0  0  0  0  0  0  0  0  0  0  0
   60.7250   32.0480   48.1440 C   0  0  0  0  0  0  0  0  0  0  0  0
   60.6690   33.2340   48.9670 N   0  0  0  0  0  0  0  0  0  0  0  0
   59.6090   34.2260   48.7170 C   0  0  0  0  0  0  0  0  0  0  0  0
   59.0780   34.0730   47.3180 C   0  0  0  0  0  0  0  0  0  0  0  0
   57.8800   33.3680   47.0940 C   0  0  0  0  0  0  0  0  0  0  0  0
   57.4010   33.1950   45.7920 C   0  0  0  0  0  0  0  0  0  0  0  0
   58.1060   33.7330   44.7080 C   0  0  0  0  0  0  0  0  0  0  0  0
   59.2950   34.4400   44.9220 C   0  0  0  0  0  0  0  0  0  0  0  0
   59.7830   34.6050   46.2210 C   0  0  0  0  0  0  0  0  0  0  0  0
   61.4650   33.3120   50.1730 C   0  0  0  0  0  0  0  0  0  0  0  0
   60.9830   33.8330   51.2210 O   0  0  0  0  0  0  0  0  0  0  0  0
   62.8480   32.7990   50.2170 C   0  0  0  0  0  0  0  0  0  0  0  0
   63.1480   31.6510   50.9670 C   0  0  0  0  0  0  0  0  0  0  0  0
   64.4650   31.1850   51.0420 C   0  0  0  0  0  0  0  0  0  0  0  0
   65.4860   31.8530   50.3560 C   0  0  0  0  0  0  0  0  0  0  0  0
   65.1900   32.9880   49.5920 C   0  0  0  0  0  0  0  0  0  0  0  0
   63.8770   33.4610   49.5210 C   0  0  0  0  0  0  0  0  0  0  0  0
   59.7320   31.1990   48.0060 O   0  0  0  0  0  0  0  0  0  0  0  0
   58.0070   29.4570   46.0420 C   0  0  0  0  0  0  0  0  0  0  0  0
   57.6641   30.1658   43.2215 H   0  0  0  0  0  0  0  0  0  0  0  0
   56.4561   29.1859   42.3232 H   0  0  0  0  0  0  0  0  0  0  0  0
   56.3377   30.9782   42.3232 H   0  0  0  0  0  0  0  0  0  0  0  0
   55.9798   30.8831   44.8243 H   0  0  0  0  0  0  0  0  0  0  0  0
   54.6754   30.0936   43.8581 H   0  0  0  0  0  0  0  0  0  0  0  0
   55.1580   28.0940   44.8810 H   0  0  0  0  0  0  0  0  0  0  0  0
   56.8511   26.2795   45.4991 H   0  0  0  0  0  0  0  0  0  0  0  0
   58.9472   25.7407   46.7328 H   0  0  0  0  0  0  0  0  0  0  0  0
   60.4498   27.5651   47.5166 H   0  0  0  0  0  0  0  0  0  0  0  0
   61.9782   29.8889   46.0262 H   0  0  0  0  0  0  0  0  0  0  0  0
   62.7746   32.1499   47.2748 H   0  0  0  0  0  0  0  0  0  0  0  0
   58.7905   34.0729   49.4357 H   0  0  0  0  0  0  0  0  0  0  0  0
   60.0265   35.2368   48.8353 H   0  0  0  0  0  0  0  0  0  0  0  0
   57.3200   32.9526   47.9448 H   0  0  0  0  0  0  0  0  0  0  0  0
   56.4697   32.6359   45.6188 H   0  0  0  0  0  0  0  0  0  0  0  0
   57.7241   33.5995   43.6851 H   0  0  0  0  0  0  0  0  0  0  0  0
   59.8443   34.8650   44.0690 H   0  0  0  0  0  0  0  0  0  0  0  0
   60.7222   35.1530   46.3875 H   0  0  0  0  0  0  0  0  0  0  0  0
   62.3458   31.1166   51.4969 H   0  0  0  0  0  0  0  0  0  0  0  0
   64.6985   30.2924   51.6409 H   0  0  0  0  0  0  0  0  0  0  0  0
   66.5212   31.4860   50.4173 H   0  0  0  0  0  0  0  0  0  0  0  0
   65.9917   33.5080   49.0471 H   0  0  0  0  0  0  0  0  0  0  0  0
   63.6470   34.3529   48.9197 H   0  0  0  0  0  0  0  0  0  0  0  0
   57.7374   30.5070   45.8553 H   0  0  0  0  0  0  0  0  0  0  0  0
  1  2  1  0
  2  3  1  0
  3  4  1  0
  4  5  2  0
  5  6  1  0
  6  7  2  0
  7  8  1  0
  8  9  1  0
  9 10  2  0
 10 11  1  0
 11 12  2  0
 12 13  1  0
 13 14  1  0
 14 15  1  0
 15 16  2  0
 16 17  1  0
 17 18  2  0
 18 19  1  0
 19 20  2  0
 13 21  1  0
 21 22  2  0
 21 23  1  0
 23 24  2  0
 24 25  1  0
 25 26  2  0
 26 27  1  0
 27 28  2  0
 12 29  1  0
  8 30  2  0
 30  4  1  0
 29  9  1  0
 20 15  1  0
 28 23  1  0
  1 31  1  0
  1 32  1  0
  1 33  1  0
  2 34  1  0
  2 35  1  0
  3 36  1  0
  5 37  1  0
  6 38  1  0
  7 39  1  0
 10 40  1  0
 11 41  1  0
 14 42  1  0
 14 43  1  0
 16 44  1  0
 17 45  1  0
 18 46  1  0
 19 47  1  0
 20 48  1  0
 24 49  1  0
 25 50  1  0
 26 51  1  0
 27 52  1  0
 28 53  1  0
 30 54  1  0
M  END
>  <UniqueID>  (28) 
28

>  <SMILES>  (28) 
CCNc1cccc(-c2ccc(N(Cc3ccccc3)C(=O)c3ccccc3)o2)c1

>  <Energy>  (28) 
90.53109466265732

>  <Genealogy>  (28) 
CCNc1cccc(-c2ccc(N(Cc3ccccc3)C(=O)c3ccccc3)o2)c1 (3D coordinates assigned)
CCNc1cccc(-c2ccc(N(Cc3ccccc3)C(=O)c3ccccc3)o2)c1 (optimized conformer: 90.53109466265732 kcal/mol)

>  <smiles>  (28) 
CCNc1cccc(-c2ccc(N(Cc3ccccc3)C(=O)c3ccccc3)o2)c1

>  <score_type>  (28) 
oracle

>  <origin>  (28) 
adg

>  <m_score__min__energy>  (28) 
-9.5099999999999998

>  <m_primary>  (28) 
energy

$$$$
28:0
     RDKit          3D

 55 56  0  0  0  0  0  0  0  0999 V2000
   59.6360   33.8340   50.9770 C   0  0  0  0  0  0  0  0  0  0  0  0
   59.9860   33.6480   49.8380 C   0  0  0  0  0  0  0  0  0  0  0  0
   60.4130   33.4210   48.4370 C   0  0  2  0  0  0  0  0  0  0  0  0
   59.2600   33.7930   47.4650 C   0  0  0  0  0  0  0  0  0  0  0  0
   59.6370   34.9540   46.5290 C   0  0  0  0  0  0  0  0  0  0  0  0
   59.0940   34.7230   45.1200 C   0  0  0  0  0  0  0  0  0  0  0  0
   60.9320   32.0260   48.2670 N   0  0  1  0  0  0  0  0  0  0  0  0
   59.8660   30.9840   48.1330 C   0  0  0  0  0  0  0  0  0  0  0  0
   60.1630   29.8420   47.1330 C   0  0  0  0  0  0  0  0  0  0  0  0
   58.9110   29.1610   46.7650 N   0  0  0  0  0  0  0  0  0  0  0  0
   58.5140   27.9310   47.4630 C   0  0  0  0  0  0  0  0  0  0  0  0
   59.0750   26.6920   46.7550 C   0  0  0  0  0  0  0  0  0  0  0  0
   58.9810   26.7690   45.2220 C   0  0  0  0  0  0  0  0  0  0  0  0
   57.6170   27.2800   44.7350 C   0  0  0  0  0  0  0  0  0  0  0  0
   57.5100   28.7960   44.7060 C   0  0  0  0  0  0  0  0  0  0  0  0
   56.7900   29.3820   43.6480 C   0  0  0  0  0  0  0  0  0  0  0  0
   56.6480   30.7670   43.5610 C   0  0  0  0  0  0  0  0  0  0  0  0
   57.2430   31.5750   44.5250 C   0  0  0  0  0  0  0  0  0  0  0  0
   57.9570   31.0110   45.5320 N   0  0  0  0  0  0  0  0  0  0  0  0
   58.1200   29.6610   45.6600 C   0  0  0  0  0  0  0  0  0  0  0  0
   61.9970   31.9280   47.2350 C   0  0  0  0  0  0  0  0  0  0  0  0
   63.2100   32.5330   47.6920 O   0  0  0  0  0  0  0  0  0  0  0  0
   63.7190   32.3580   48.9840 C   0  0  0  0  0  0  0  0  0  0  0  0
   64.9790   33.0530   49.3720 C   0  0  0  0  0  0  0  0  0  0  0  0
   63.1580   31.5800   49.8040 O   0  0  0  0  0  0  0  0  0  0  0  0
   59.3168   34.0037   52.0159 H   0  0  0  0  0  0  0  0  0  0  0  0
   61.2540   34.0832   48.1837 H   0  0  0  0  0  0  0  0  0  0  0  0
   59.0141   32.9118   46.8542 H   0  0  0  0  0  0  0  0  0  0  0  0
   58.4000   34.1148   48.0707 H   0  0  0  0  0  0  0  0  0  0  0  0
   59.2153   35.8884   46.9278 H   0  0  0  0  0  0  0  0  0  0  0  0
   60.7339   35.0170   46.4748 H   0  0  0  0  0  0  0  0  0  0  0  0
   58.0834   34.2931   45.1824 H   0  0  0  0  0  0  0  0  0  0  0  0
   59.0522   35.6813   44.5815 H   0  0  0  0  0  0  0  0  0  0  0  0
   59.7554   34.0283   44.5815 H   0  0  0  0  0  0  0  0  0  0  0  0
   61.4200   31.7940   49.1670 H   0  0  0  0  0  0  0  0  0  0  0  0
   59.7088   30.5327   49.1237 H   0  0  0  0  0  0  0  0  0  0  0  0
   58.9844   31.5079   47.7350 H   0  0  0  0  0  0  0  0  0  0  0  0
   60.6299   30.2606   46.2293 H   0  0  0  0  0  0  0  0  0  0  0  0
   60.8452   29.1177   47.6021 H   0  0  0  0  0  0  0  0  0  0  0  0
   58.8987   27.9618   48.4931 H   0  0  0  0  0  0  0  0  0  0  0  0
   57.4159   27.8672   47.4636 H   0  0  0  0  0  0  0  0  0  0  0  0
   60.1331   26.5802   47.0342 H   0  0  0  0  0  0  0  0  0  0  0  0
   58.4673   25.8326   47.0746 H   0  0  0  0  0  0  0  0  0  0  0  0
   59.7630   27.4504   44.8556 H   0  0  0  0  0  0  0  0  0  0  0  0
   59.1122   25.7495   44.8302 H   0  0  0  0  0  0  0  0  0  0  0  0
   57.4465   26.8998   43.7170 H   0  0  0  0  0  0  0  0  0  0  0  0
   56.8630   26.9170   45.4489 H   0  0  0  0  0  0  0  0  0  0  0  0
   56.3336   28.7399   42.8803 H   0  0  0  0  0  0  0  0  0  0  0  0
   56.0715   31.2158   42.7387 H   0  0  0  0  0  0  0  0  0  0  0  0
   57.1349   32.6683   44.4710 H   0  0  0  0  0  0  0  0  0  0  0  0
   62.1856   30.8675   47.0121 H   0  0  0  0  0  0  0  0  0  0  0  0
   61.6598   32.4573   46.3316 H   0  0  0  0  0  0  0  0  0  0  0  0
   65.0526   33.0936   50.4688 H   0  0  0  0  0  0  0  0  0  0  0  0
   65.8410   32.5028   48.9668 H   0  0  0  0  0  0  0  0  0  0  0  0
   64.9734   34.0756   48.9668 H   0  0  0  0  0  0  0  0  0  0  0  0
  1  2  3  0
  2  3  1  0
  3  4  1  0
  4  5  1  0
  5  6  1  0
  3  7  1  0
  7  8  1  0
  8  9  1  0
  9 10  1  0
 10 11  1  0
 11 12  1  0
 12 13  1  0
 13 14  1  0
 14 15  1  0
 15 16  2  0
 16 17  1  0
 17 18  2  0
 18 19  1  0
 19 20  2  0
  7 21  1  0
 21 22  1  0
 22 23  1  0
 23 24  1  0
 23 25  2  0
 20 10  1  0
 20 15  1  0
  1 26  1  0
  3 27  1  6
  4 28  1  0
  4 29  1  0
  5 30  1  0
  5 31  1  0
  6 32  1  0
  6 33  1  0
  6 34  1  0
  7 35  1  1
  8 36  1  0
  8 37  1  0
  9 38  1  0
  9 39  1  0
 11 40  1  0
 11 41  1  0
 12 42  1  0
 12 43  1  0
 13 44  1  0
 13 45  1  0
 14 46  1  0
 14 47  1  0
 16 48  1  0
 17 49  1  0
 18 50  1  0
 21 51  1  0
 21 52  1  0
 24 53  1  0
 24 54  1  0
 24 55  1  0
M  CHG  1   7   1
M  END
>  <UniqueID>  (29) 
29

>  <SMILES>  (29) 
C#C[C@H](CCC)[N@@H+](CCN1CCCCc2cccnc21)COC(C)=O

>  <Energy>  (29) 
59.2981336999295

>  <Genealogy>  (29) 
C#CC(CCC)[NH+](CCN1CCCCc2cccnc21)COC(C)=O (protonated)
C#C[C@H](CCC)[N@@H+](CCN1CCCCc2cccnc21)COC(C)=O (chirality)
C#C[C@H](CCC)[N@@H+](CCN1CCCCc2cccnc21)COC(C)=O (3D coordinates assigned)
C#C[C@H](CCC)[N@@H+](CCN1CCCCc2cccnc21)COC(C)=O (nonaromatic ring conformer: 59.2981336999295 kcal/mol)

>  <smiles>  (29) 
C#CC(CCC)N(CCN1CCCCc2cccnc21)COC(C)=O

>  <score_type>  (29) 
oracle

>  <origin>  (29) 
adg

>  <m_score__min__energy>  (29) 
-4.0800000000000001

>  <m_primary>  (29) 
energy

$$$$
29:0
     RDKit          3D

 65 69  0  0  0  0  0  0  0  0999 V2000
   56.9280   24.4330   43.9600 C   0  0  0  0  0  0  0  0  0  0  0  0
   57.7270   24.1910   45.1120 O   0  0  0  0  0  0  0  0  0  0  0  0
   58.3580   25.1920   45.8650 C   0  0  0  0  0  0  0  0  0  0  0  0
   57.5610   26.1200   46.5360 C   0  0  0  0  0  0  0  0  0  0  0  0
   58.1390   27.1370   47.3010 C   0  0  0  0  0  0  0  0  0  0  0  0
   59.5440   27.2530   47.4240 C   0  0  0  0  0  0  0  0  0  0  0  0
   60.1540   28.3180   48.2240 N   0  0  0  0  0  0  0  0  0  0  0  0
   59.9840   28.2900   49.6940 C   0  0  0  0  0  0  0  0  0  0  0  0
   60.6910   29.4180   50.4630 C   0  0  0  0  0  0  0  0  0  0  0  0
   60.7900   30.6790   49.7160 N   0  0  0  0  0  0  0  0  0  0  0  0
   59.5080   31.3470   49.5540 C   0  0  0  0  0  0  0  0  0  0  0  0
   58.4980   30.6990   49.3100 O   0  0  0  0  0  0  0  0  0  0  0  0
   59.4060   32.8540   49.7460 C   0  0  1  0  0  0  0  0  0  0  0  0
   60.7700   33.5270   49.9700 C   0  0  0  0  0  0  0  0  0  0  0  0
   61.5860   33.5970   48.7050 C   0  0  0  0  0  0  0  0  0  0  0  0
   62.9780   33.7370   48.8010 C   0  0  0  0  0  0  0  0  0  0  0  0
   63.7620   33.8050   47.6500 C   0  0  0  0  0  0  0  0  0  0  0  0
   63.1640   33.7370   46.3930 C   0  0  0  0  0  0  0  0  0  0  0  0
   61.7770   33.6210   46.2820 C   0  0  0  0  0  0  0  0  0  0  0  0
   60.9610   33.5700   47.4330 C   0  0  0  0  0  0  0  0  0  0  0  0
   59.5150   33.4610   47.3400 N   0  0  0  0  0  0  0  0  0  0  0  0
   58.6830   33.5920   45.8100 S   0  0  0  0  0  0  0  0  0  0  0  0
   59.5690   34.2370   44.7820 O   0  0  0  0  0  0  0  0  0  0  0  0
   57.4590   34.4470   45.9920 O   0  0  0  0  0  0  0  0  0  0  0  0
   58.2380   31.9900   45.2270 C   0  0  0  0  0  0  0  0  0  0  0  0
   57.0760   31.8200   44.4610 C   0  0  0  0  0  0  0  0  0  0  0  0
   56.7270   30.5510   43.9870 C   0  0  0  0  0  0  0  0  0  0  0  0
   57.5340   29.4470   44.2790 C   0  0  0  0  0  0  0  0  0  0  0  0
   58.6900   29.6110   45.0500 C   0  0  0  0  0  0  0  0  0  0  0  0
   59.0400   30.8800   45.5260 C   0  0  0  0  0  0  0  0  0  0  0  0
   58.6930   33.5060   48.5570 C   0  0  0  0  0  0  0  0  0  0  0  0
   61.4900   30.4620   48.4430 C   0  0  0  0  0  0  0  0  0  0  0  0
   60.7790   29.4600   47.5260 C   0  0  0  0  0  0  0  0  0  0  0  0
   60.3380   26.3070   46.7320 C   0  0  0  0  0  0  0  0  0  0  0  0
   59.7540   25.2940   45.9650 C   0  0  0  0  0  0  0  0  0  0  0  0
   55.9184   24.7388   44.2717 H   0  0  0  0  0  0  0  0  0  0  0  0
   57.3843   25.2332   43.3588 H   0  0  0  0  0  0  0  0  0  0  0  0
   56.8636   23.5141   43.3588 H   0  0  0  0  0  0  0  0  0  0  0  0
   56.4657   26.0505   46.4621 H   0  0  0  0  0  0  0  0  0  0  0  0
   57.4901   27.8602   47.8167 H   0  0  0  0  0  0  0  0  0  0  0  0
   58.9077   28.3538   49.9121 H   0  0  0  0  0  0  0  0  0  0  0  0
   60.4503   27.3537   50.0344 H   0  0  0  0  0  0  0  0  0  0  0  0
   60.1309   29.6083   51.3904 H   0  0  0  0  0  0  0  0  0  0  0  0
   61.7200   29.0782   50.6520 H   0  0  0  0  0  0  0  0  0  0  0  0
   61.4100   31.3050   50.2860 H   0  0  0  0  0  0  0  0  0  0  0  0
   58.8148   33.0069   50.6609 H   0  0  0  0  0  0  0  0  0  0  0  0
   60.6038   34.5491   50.3411 H   0  0  0  0  0  0  0  0  0  0  0  0
   61.3290   32.9218   50.6988 H   0  0  0  0  0  0  0  0  0  0  0  0
   63.4545   33.7935   49.7908 H   0  0  0  0  0  0  0  0  0  0  0  0
   64.8535   33.9124   47.7342 H   0  0  0  0  0  0  0  0  0  0  0  0
   63.7860   33.7748   45.4865 H   0  0  0  0  0  0  0  0  0  0  0  0
   61.3143   33.5687   45.2854 H   0  0  0  0  0  0  0  0  0  0  0  0
   56.4376   32.6861   44.2323 H   0  0  0  0  0  0  0  0  0  0  0  0
   55.8164   30.4214   43.3837 H   0  0  0  0  0  0  0  0  0  0  0  0
   57.2602   28.4503   43.9028 H   0  0  0  0  0  0  0  0  0  0  0  0
   59.3239   28.7425   45.2821 H   0  0  0  0  0  0  0  0  0  0  0  0
   59.9465   31.0064   46.1361 H   0  0  0  0  0  0  0  0  0  0  0  0
   58.4771   34.5562   48.8029 H   0  0  0  0  0  0  0  0  0  0  0  0
   57.7649   32.9476   48.3651 H   0  0  0  0  0  0  0  0  0  0  0  0
   61.5653   31.4251   47.9168 H   0  0  0  0  0  0  0  0  0  0  0  0
   62.4788   30.0428   48.6810 H   0  0  0  0  0  0  0  0  0  0  0  0
   59.9922   29.9975   46.9764 H   0  0  0  0  0  0  0  0  0  0  0  0
   61.5538   29.0361   46.8702 H   0  0  0  0  0  0  0  0  0  0  0  0
   61.4342   26.3699   46.7989 H   0  0  0  0  0  0  0  0  0  0  0  0
   60.3935   24.5719   45.4362 H   0  0  0  0  0  0  0  0  0  0  0  0
  1  2  1  0
  2  3  1  0
  3  4  2  0
  4  5  1  0
  5  6  2  0
  6  7  1  0
  7  8  1  0
  8  9  1  0
  9 10  1  0
 10 11  1  0
 11 12  2  0
 11 13  1  0
 13 14  1  0
 14 15  1  0
 15 16  2  0
 16 17  1  0
 17 18  2  0
 18 19  1  0
 19 20  2  0
 20 21  1  0
 21 22  1  0
 22 23  2  0
 22 24  2  0
 22 25  1  0
 25 26  2  0
 26 27  1  0
 27 28  2  0
 28 29  1  0
 29 30  2  0
 21 31  1  0
 10 32  1  0
 32 33  1  0
  6 34  1  0
 34 35  2  0
 35  3  1  0
 33  7  1  0
 31 13  1  0
 20 15  1  0
 30 25  1  0
  1 36  1  0
  1 37  1  0
  1 38  1  0
  4 39  1  0
  5 40  1  0
  8 41  1  0
  8 42  1  0
  9 43  1  0
  9 44  1  0
 10 45  1  0
 13 46  1  1
 14 47  1  0
 14 48  1  0
 16 49  1  0
 17 50  1  0
 18 51  1  0
 19 52  1  0
 26 53  1  0
 27 54  1  0
 28 55  1  0
 29 56  1  0
 30 57  1  0
 31 58  1  0
 31 59  1  0
 32 60  1  0
 32 61  1  0
 33 62  1  0
 33 63  1  0
 34 64  1  0
 35 65  1  0
M  CHG  1  10   1
M  END
>  <UniqueID>  (30) 
30

>  <SMILES>  (30) 
COc1ccc(N2CC[NH+](C(=O)[C@H]3Cc4ccccc4N(S(=O)(=O)c4ccccc4)C3)CC2)cc1

>  <Energy>  (30) 
86.0836508044939

>  <Genealogy>  (30) 
COc1ccc(N2CC[NH+](C(=O)C3Cc4ccccc4N(S(=O)(=O)c4ccccc4)C3)CC2)cc1 (protonated)
COc1ccc(N2CC[NH+](C(=O)[C@H]3Cc4ccccc4N(S(=O)(=O)c4ccccc4)C3)CC2)cc1 (chirality)
COc1ccc(N2CC[NH+](C(=O)[C@H]3Cc4ccccc4N(S(=O)(=O)c4ccccc4)C3)CC2)cc1 (3D coordinates assigned)
COc1ccc(N2CC[NH+](C(=O)[C@H]3Cc4ccccc4N(S(=O)(=O)c4ccccc4)C3)CC2)cc1 (nonaromatic ring conformer: 86.0836508044939 kcal/mol)

>  <smiles>  (30) 
COc1ccc(N2CCN(C(=O)C3Cc4ccccc4N(S(=O)(=O)c4ccccc4)C3)CC2)cc1

>  <score_type>  (30) 
oracle

>  <origin>  (30) 
adg

>  <m_score__min__energy>  (30) 
-8.2100000000000009

>  <m_primary>  (30) 
energy

$$$$
30:0
     RDKit          3D

 35 37  0  0  0  0  0  0  0  0999 V2000
   57.0370   21.6030   43.0090 C   0  0  0  0  0  0  0  0  0  0  0  0
   56.0900   22.8060   43.0090 C   0  0  0  0  0  0  0  0  0  0  0  0
   56.8090   24.0840   43.1670 N   0  0  0  0  0  0  0  0  0  0  0  0
   57.2990   24.3140   44.5350 C   0  0  0  0  0  0  0  0  0  0  0  0
   57.5760   25.7730   44.8030 C   0  0  0  0  0  0  0  0  0  0  0  0
   58.0590   26.5990   43.7780 C   0  0  0  0  0  0  0  0  0  0  0  0
   58.2880   27.9570   44.0130 C   0  0  0  0  0  0  0  0  0  0  0  0
   58.0350   28.5160   45.2790 C   0  0  0  0  0  0  0  0  0  0  0  0
   58.2770   29.9580   45.5170 C   0  0  0  0  0  0  0  0  0  0  0  0
   57.3950   30.9270   45.1600 N   0  0  0  0  0  0  0  0  0  0  0  0
   57.8540   32.1610   45.4890 C   0  0  0  0  0  0  0  0  0  0  0  0
   57.1650   33.3510   45.2460 C   0  0  0  0  0  0  0  0  0  0  0  0
   57.7550   34.5650   45.6390 C   0  0  0  0  0  0  0  0  0  0  0  0
   59.0180   34.5770   46.2650 C   0  0  0  0  0  0  0  0  0  0  0  0
   59.7020   33.3740   46.5040 C   0  0  0  0  0  0  0  0  0  0  0  0
   59.0950   32.1860   46.1050 C   0  0  0  0  0  0  0  0  0  0  0  0
   59.6600   30.6140   46.2550 S   0  0  0  0  0  0  0  0  0  0  0  0
   57.5480   27.6840   46.3040 C   0  0  0  0  0  0  0  0  0  0  0  0
   57.3200   26.3260   46.0670 C   0  0  0  0  0  0  0  0  0  0  0  0
   57.2638   21.3149   44.0461 H   0  0  0  0  0  0  0  0  0  0  0  0
   56.5581   20.7593   42.4905 H   0  0  0  0  0  0  0  0  0  0  0  0
   57.9695   21.8704   42.4905 H   0  0  0  0  0  0  0  0  0  0  0  0
   55.5412   22.8243   42.0558 H   0  0  0  0  0  0  0  0  0  0  0  0
   55.4065   22.6964   43.8639 H   0  0  0  0  0  0  0  0  0  0  0  0
   56.2290   24.8970   42.8480 H   0  0  0  0  0  0  0  0  0  0  0  0
   56.5391   23.9609   45.2476 H   0  0  0  0  0  0  0  0  0  0  0  0
   58.2441   23.7635   44.6524 H   0  0  0  0  0  0  0  0  0  0  0  0
   58.2588   26.1752   42.7828 H   0  0  0  0  0  0  0  0  0  0  0  0
   58.6692   28.5944   43.2016 H   0  0  0  0  0  0  0  0  0  0  0  0
   56.1799   33.3388   44.7567 H   0  0  0  0  0  0  0  0  0  0  0  0
   57.2271   35.5127   45.4567 H   0  0  0  0  0  0  0  0  0  0  0  0
   59.4699   35.5331   46.5677 H   0  0  0  0  0  0  0  0  0  0  0  0
   60.6879   33.3703   46.9919 H   0  0  0  0  0  0  0  0  0  0  0  0
   57.3452   28.1059   47.2994 H   0  0  0  0  0  0  0  0  0  0  0  0
   56.9375   25.6865   46.8762 H   0  0  0  0  0  0  0  0  0  0  0  0
  1  2  1  0
  2  3  1  0
  3  4  1  0
  4  5  1  0
  5  6  2  0
  6  7  1  0
  7  8  2  0
  8  9  1  0
  9 10  2  0
 10 11  1  0
 11 12  2  0
 12 13  1  0
 13 14  2  0
 14 15  1  0
 15 16  2  0
 16 17  1  0
  8 18  1  0
 18 19  2  0
 19  5  1  0
 17  9  1  0
 16 11  1  0
  1 20  1  0
  1 21  1  0
  1 22  1  0
  2 23  1  0
  2 24  1  0
  3 25  1  0
  4 26  1  0
  4 27  1  0
  6 28  1  0
  7 29  1  0
 12 30  1  0
 13 31  1  0
 14 32  1  0
 15 33  1  0
 18 34  1  0
 19 35  1  0
M  END
>  <UniqueID>  (31) 
31

>  <SMILES>  (31) 
CCNCc1ccc(-c2nc3ccccc3s2)cc1

>  <Energy>  (31) 
72.00813216623033

>  <Genealogy>  (31) 
CCNCc1ccc(-c2nc3ccccc3s2)cc1 (3D coordinates assigned)
CCNCc1ccc(-c2nc3ccccc3s2)cc1 (optimized conformer: 72.00813216623033 kcal/mol)

>  <smiles>  (31) 
CCNCc1ccc(-c2nc3ccccc3s2)cc1

>  <score_type>  (31) 
oracle

>  <origin>  (31) 
adg

>  <m_score__min__energy>  (31) 
-6.79

>  <m_primary>  (31) 
energy

$$$$
31:0
     RDKit          3D

 43 45  0  0  0  0  0  0  0  0999 V2000
   56.3490   24.0920   44.6120 C   0  0  0  0  0  0  0  0  0  0  0  0
   55.2260   24.6130   45.4960 C   0  0  0  0  0  0  0  0  0  0  0  0
   55.7810   25.1420   46.7340 N   0  0  0  0  0  0  0  0  0  0  0  0
   57.1360   25.5920   46.8490 C   0  0  0  0  0  0  0  0  0  0  0  0
   58.0180   24.8090   47.2950 O   0  0  0  0  0  0  0  0  0  0  0  0
   57.5010   26.9710   46.4460 C   0  0  0  0  0  0  0  0  0  0  0  0
   58.3250   27.7600   47.2670 C   0  0  0  0  0  0  0  0  0  0  0  0
   58.6690   29.0610   46.8880 C   0  0  0  0  0  0  0  0  0  0  0  0
   58.2070   29.5950   45.6730 C   0  0  0  0  0  0  0  0  0  0  0  0
   58.5220   30.9400   45.2720 N   0  0  0  0  0  0  0  0  0  0  0  0
   57.6170   31.8100   44.5740 C   0  0  0  0  0  0  0  0  0  0  0  0
   56.3930   31.5250   44.4840 O   0  0  0  0  0  0  0  0  0  0  0  0
   58.1140   33.0990   43.9930 C   0  0  0  0  0  0  0  0  0  0  0  0
   58.0150   34.4580   45.2110 S   0  0  0  0  0  0  0  0  0  0  0  0
   59.2780   33.7850   46.2980 C   0  0  0  0  0  0  0  0  0  0  0  0
   60.5890   34.0170   46.0240 N   0  0  0  0  0  0  0  0  0  0  0  0
   61.5740   33.5190   46.8160 C   0  0  0  0  0  0  0  0  0  0  0  0
   62.9210   33.7590   46.5170 C   0  0  0  0  0  0  0  0  0  0  0  0
   63.9190   33.2340   47.3430 C   0  0  0  0  0  0  0  0  0  0  0  0
   63.5770   32.4680   48.4650 C   0  0  0  0  0  0  0  0  0  0  0  0
   62.2330   32.2270   48.7690 C   0  0  0  0  0  0  0  0  0  0  0  0
   61.2300   32.7510   47.9470 C   0  0  0  0  0  0  0  0  0  0  0  0
   59.9180   32.5290   48.2260 N   0  0  0  0  0  0  0  0  0  0  0  0
   58.9350   33.0300   47.4310 C   0  0  0  0  0  0  0  0  0  0  0  0
   57.7290   32.8180   47.7230 O   0  0  0  0  0  0  0  0  0  0  0  0
   57.3670   28.8170   44.8650 C   0  0  0  0  0  0  0  0  0  0  0  0
   57.0220   27.5160   45.2420 C   0  0  0  0  0  0  0  0  0  0  0  0
   57.1664   23.7128   45.2429 H   0  0  0  0  0  0  0  0  0  0  0  0
   55.9683   23.2785   43.9769 H   0  0  0  0  0  0  0  0  0  0  0  0
   56.7243   24.9080   43.9769 H   0  0  0  0  0  0  0  0  0  0  0  0
   54.6850   25.4116   44.9672 H   0  0  0  0  0  0  0  0  0  0  0  0
   54.5344   23.7900   45.7293 H   0  0  0  0  0  0  0  0  0  0  0  0
   58.7024   27.3504   48.2156 H   0  0  0  0  0  0  0  0  0  0  0  0
   59.3058   29.6710   47.5455 H   0  0  0  0  0  0  0  0  0  0  0  0
   59.4440   31.3370   45.5670 H   0  0  0  0  0  0  0  0  0  0  0  0
   59.1615   32.9718   43.6824 H   0  0  0  0  0  0  0  0  0  0  0  0
   57.4814   33.3582   43.1312 H   0  0  0  0  0  0  0  0  0  0  0  0
   63.1926   34.3584   45.6355 H   0  0  0  0  0  0  0  0  0  0  0  0
   64.9775   33.4231   47.1110 H   0  0  0  0  0  0  0  0  0  0  0  0
   64.3675   32.0549   49.1087 H   0  0  0  0  0  0  0  0  0  0  0  0
   61.9658   31.6274   49.6516 H   0  0  0  0  0  0  0  0  0  0  0  0
   56.9755   29.2340   43.9254 H   0  0  0  0  0  0  0  0  0  0  0  0
   56.3706   26.9139   44.5915 H   0  0  0  0  0  0  0  0  0  0  0  0
  1  2  1  0
  2  3  1  0
  3  4  1  0
  4  5  2  0
  4  6  1  0
  6  7  2  0
  7  8  1  0
  8  9  2  0
  9 10  1  0
 10 11  1  0
 11 12  2  0
 11 13  1  0
 13 14  1  0
 14 15  1  0
 15 16  2  0
 16 17  1  0
 17 18  2  0
 18 19  1  0
 19 20  2  0
 20 21  1  0
 21 22  2  0
 22 23  1  0
 23 24  1  0
 24 25  2  0
  9 26  1  0
 26 27  2  0
 27  6  1  0
 24 15  1  0
 22 17  1  0
  1 28  1  0
  1 29  1  0
  1 30  1  0
  2 31  1  0
  2 32  1  0
  7 33  1  0
  8 34  1  0
 10 35  1  0
 13 36  1  0
 13 37  1  0
 18 38  1  0
 19 39  1  0
 20 40  1  0
 21 41  1  0
 26 42  1  0
 27 43  1  0
M  CHG  2   3  -1  23  -1
M  END
>  <UniqueID>  (32) 
32

>  <SMILES>  (32) 
CC[N-]C(=O)c1ccc(NC(=O)CSc2nc3ccccc3[n-]c2=O)cc1

>  <Energy>  (32) 
43.06496312682908

>  <Genealogy>  (32) 
CC[N-]C(=O)c1ccc(NC(=O)CSc2nc3ccccc3[n-]c2=O)cc1 (protonated)
CC[N-]C(=O)c1ccc(NC(=O)CSc2nc3ccccc3[n-]c2=O)cc1 (3D coordinates assigned)
CC[N-]C(=O)c1ccc(NC(=O)CSc2nc3ccccc3[n-]c2=O)cc1 (optimized conformer: 43.06496312682908 kcal/mol)

>  <smiles>  (32) 
CCNC(=O)c1ccc(NC(=O)CSc2nc3ccccc3[nH]c2=O)cc1

>  <score_type>  (32) 
oracle

>  <origin>  (32) 
adg

>  <m_score__min__energy>  (32) 
-10.619999999999999

>  <m_primary>  (32) 
energy

$$$$
32:0
     RDKit          3D

 35 37  0  0  0  0  0  0  0  0999 V2000
   58.6870   27.8640   44.1380 C   0  0  0  0  0  0  0  0  0  0  0  0
   59.2880   27.8670   45.3300 C   0  0  0  0  0  0  0  0  0  0  0  0
   58.7030   28.5920   46.5090 C   0  0  0  0  0  0  0  0  0  0  0  0
   58.9530   30.0390   46.3980 N   0  0  0  0  0  0  0  0  0  0  0  0
   60.0700   30.5330   46.9490 N   0  0  0  0  0  0  0  0  0  0  0  0
   60.4040   31.8530   46.8710 C   0  0  0  0  0  0  0  0  0  0  0  0
   61.6820   32.2930   47.4760 C   0  0  0  0  0  0  0  0  0  0  0  0
   62.0500   31.8370   48.7510 C   0  0  0  0  0  0  0  0  0  0  0  0
   63.2690   32.2260   49.3140 C   0  0  0  0  0  0  0  0  0  0  0  0
   64.1340   33.0620   48.6010 C   0  0  0  0  0  0  0  0  0  0  0  0
   63.7830   33.5060   47.3240 C   0  0  0  0  0  0  0  0  0  0  0  0
   62.5640   33.1190   46.7580 C   0  0  0  0  0  0  0  0  0  0  0  0
   59.5330   32.7460   46.2120 C   0  0  0  0  0  0  0  0  0  0  0  0
   59.7790   34.1350   46.1530 C   0  0  0  0  0  0  0  0  0  0  0  0
   58.8960   34.9840   45.4830 C   0  0  0  0  0  0  0  0  0  0  0  0
   57.7550   34.4680   44.8730 C   0  0  0  0  0  0  0  0  0  0  0  0
   57.4830   33.1020   44.9390 C   0  0  0  0  0  0  0  0  0  0  0  0
   58.3610   32.2300   45.6150 C   0  0  0  0  0  0  0  0  0  0  0  0
   58.0900   30.8560   45.7160 C   0  0  0  0  0  0  0  0  0  0  0  0
   57.0500   30.3790   45.1800 O   0  0  0  0  0  0  0  0  0  0  0  0
   59.1411   27.3235   43.2944 H   0  0  0  0  0  0  0  0  0  0  0  0
   57.7376   28.4020   43.9994 H   0  0  0  0  0  0  0  0  0  0  0  0
   60.2369   27.3242   45.4524 H   0  0  0  0  0  0  0  0  0  0  0  0
   57.6181   28.4132   46.5425 H   0  0  0  0  0  0  0  0  0  0  0  0
   59.1765   28.2178   47.4286 H   0  0  0  0  0  0  0  0  0  0  0  0
   60.7270   29.8830   47.4400 H   0  0  0  0  0  0  0  0  0  0  0  0
   61.3765   31.1706   49.3098 H   0  0  0  0  0  0  0  0  0  0  0  0
   63.5479   31.8743   50.3183 H   0  0  0  0  0  0  0  0  0  0  0  0
   65.0915   33.3702   49.0461 H   0  0  0  0  0  0  0  0  0  0  0  0
   64.4660   34.1607   46.7629 H   0  0  0  0  0  0  0  0  0  0  0  0
   62.2947   33.4620   45.7481 H   0  0  0  0  0  0  0  0  0  0  0  0
   60.6736   34.5517   46.6388 H   0  0  0  0  0  0  0  0  0  0  0  0
   59.1020   36.0636   45.4367 H   0  0  0  0  0  0  0  0  0  0  0  0
   57.0672   35.1394   44.3382 H   0  0  0  0  0  0  0  0  0  0  0  0
   56.5771   32.7018   44.4603 H   0  0  0  0  0  0  0  0  0  0  0  0
  1  2  2  0
  2  3  1  0
  3  4  1  0
  4  5  1  0
  5  6  2  0
  6  7  1  0
  7  8  2  0
  8  9  1  0
  9 10  2  0
 10 11  1  0
 11 12  2  0
  6 13  1  0
 13 14  2  0
 14 15  1  0
 15 16  2  0
 16 17  1  0
 17 18  2  0
 18 19  1  0
 19 20  2  0
 19  4  1  0
 12  7  1  0
 18 13  1  0
  1 21  1  0
  1 22  1  0
  2 23  1  0
  3 24  1  0
  3 25  1  0
  5 26  1  0
  8 27  1  0
  9 28  1  0
 10 29  1  0
 11 30  1  0
 12 31  1  0
 14 32  1  0
 15 33  1  0
 16 34  1  0
 17 35  1  0
M  CHG  1   5   1
M  END
>  <UniqueID>  (33) 
33

>  <SMILES>  (33) 
C=CCn1[nH+]c(-c2ccccc2)c2ccccc2c1=O

>  <Energy>  (33) 
49.685051047709564

>  <Genealogy>  (33) 
C=CCn1[nH+]c(-c2ccccc2)c2ccccc2c1=O (protonated)
C=CCn1[nH+]c(-c2ccccc2)c2ccccc2c1=O (3D coordinates assigned)
C=CCn1[nH+]c(-c2ccccc2)c2ccccc2c1=O (optimized conformer: 49.685051047709564 kcal/mol)

>  <smiles>  (33) 
C=CCn1nc(-c2ccccc2)c2ccccc2c1=O

>  <score_type>  (33) 
oracle

>  <origin>  (33) 
adg

>  <m_score__min__energy>  (33) 
-6.1900000000000004

>  <m_primary>  (33) 
energy

$$$$
33:0
     RDKit          3D

 42 43  0  0  0  0  0  0  0  0999 V2000
   57.3750   28.9580   43.7960 C   0  0  0  0  0  0  0  0  0  0  0  0
   56.3580   30.0770   43.6480 C   0  0  0  0  0  0  0  0  0  0  0  0
   56.5140   31.0040   44.7160 O   0  0  0  0  0  0  0  0  0  0  0  0
   57.3410   32.1280   44.6260 C   0  0  0  0  0  0  0  0  0  0  0  0
   57.8280   32.4840   43.5190 O   0  0  0  0  0  0  0  0  0  0  0  0
   57.6370   32.9220   45.8580 C   0  0  0  0  0  0  0  0  0  0  0  0
   59.0000   32.6360   46.3530 N   0  0  0  0  0  0  0  0  0  0  0  0
   58.9550   31.7100   47.5000 C   0  0  0  0  0  0  0  0  0  0  0  0
   59.3240   30.3150   47.0670 C   0  0  0  0  0  0  0  0  0  0  0  0
   60.0580   30.1190   45.8860 C   0  0  0  0  0  0  0  0  0  0  0  0
   60.3920   28.8260   45.4700 C   0  0  0  0  0  0  0  0  0  0  0  0
   59.9960   27.7210   46.2310 C   0  0  0  0  0  0  0  0  0  0  0  0
   59.2660   27.9090   47.4080 C   0  0  0  0  0  0  0  0  0  0  0  0
   58.9290   29.2010   47.8260 C   0  0  0  0  0  0  0  0  0  0  0  0
   59.8090   34.1190   46.8270 S   0  0  0  0  0  0  0  0  0  0  0  0
   59.9830   35.0080   45.6260 O   0  0  0  0  0  0  0  0  0  0  0  0
   58.9620   34.8620   47.8220 O   0  0  0  0  0  0  0  0  0  0  0  0
   61.3930   33.7940   47.5320 C   0  0  0  0  0  0  0  0  0  0  0  0
   62.4770   33.4480   46.7120 C   0  0  0  0  0  0  0  0  0  0  0  0
   63.7340   33.2030   47.2750 C   0  0  0  0  0  0  0  0  0  0  0  0
   63.9140   33.3030   48.6570 C   0  0  0  0  0  0  0  0  0  0  0  0
   65.1330   33.0660   49.2020 F   0  0  0  0  0  0  0  0  0  0  0  0
   62.8360   33.6480   49.4800 C   0  0  0  0  0  0  0  0  0  0  0  0
   61.5780   33.8910   48.9200 C   0  0  0  0  0  0  0  0  0  0  0  0
   57.5525   28.7627   44.8639 H   0  0  0  0  0  0  0  0  0  0  0  0
   56.9898   28.0465   43.3156 H   0  0  0  0  0  0  0  0  0  0  0  0
   58.3191   29.2546   43.3156 H   0  0  0  0  0  0  0  0  0  0  0  0
   56.5167   30.5922   42.6892 H   0  0  0  0  0  0  0  0  0  0  0  0
   55.3424   29.6552   43.6740 H   0  0  0  0  0  0  0  0  0  0  0  0
   57.5559   33.9938   45.6242 H   0  0  0  0  0  0  0  0  0  0  0  0
   56.9134   32.6440   46.6384 H   0  0  0  0  0  0  0  0  0  0  0  0
   59.6651   32.0503   48.2680 H   0  0  0  0  0  0  0  0  0  0  0  0
   57.9332   31.6974   47.9071 H   0  0  0  0  0  0  0  0  0  0  0  0
   60.3715   30.9858   45.2857 H   0  0  0  0  0  0  0  0  0  0  0  0
   60.9665   28.6779   44.5437 H   0  0  0  0  0  0  0  0  0  0  0  0
   60.2590   26.7045   45.9032 H   0  0  0  0  0  0  0  0  0  0  0  0
   58.9559   27.0398   48.0066 H   0  0  0  0  0  0  0  0  0  0  0  0
   58.3529   29.3449   48.7520 H   0  0  0  0  0  0  0  0  0  0  0  0
   62.3384   33.3691   45.6236 H   0  0  0  0  0  0  0  0  0  0  0  0
   64.5818   32.9313   46.6289 H   0  0  0  0  0  0  0  0  0  0  0  0
   62.9783   33.7280   50.5678 H   0  0  0  0  0  0  0  0  0  0  0  0
   60.7311   34.1589   49.5689 H   0  0  0  0  0  0  0  0  0  0  0  0
  1  2  1  0
  2  3  1  0
  3  4  1  0
  4  5  2  0
  4  6  1  0
  6  7  1  0
  7  8  1  0
  8  9  1  0
  9 10  2  0
 10 11  1  0
 11 12  2  0
 12 13  1  0
 13 14  2  0
  7 15  1  0
 15 16  2  0
 15 17  2  0
 15 18  1  0
 18 19  2  0
 19 20  1  0
 20 21  2  0
 21 22  1  0
 21 23  1  0
 23 24  2  0
 14  9  1  0
 24 18  1  0
  1 25  1  0
  1 26  1  0
  1 27  1  0
  2 28  1  0
  2 29  1  0
  6 30  1  0
  6 31  1  0
  8 32  1  0
  8 33  1  0
 10 34  1  0
 11 35  1  0
 12 36  1  0
 13 37  1  0
 14 38  1  0
 19 39  1  0
 20 40  1  0
 23 41  1  0
 24 42  1  0
M  END
>  <UniqueID>  (34) 
34

>  <SMILES>  (34) 
CCOC(=O)CN(Cc1ccccc1)S(=O)(=O)c1ccc(F)cc1

>  <Energy>  (34) 
34.975483198659425

>  <Genealogy>  (34) 
CCOC(=O)CN(Cc1ccccc1)S(=O)(=O)c1ccc(F)cc1 (3D coordinates assigned)
CCOC(=O)CN(Cc1ccccc1)S(=O)(=O)c1ccc(F)cc1 (optimized conformer: 34.975483198659425 kcal/mol)

>  <smiles>  (34) 
CCOC(=O)CN(Cc1ccccc1)S(=O)(=O)c1ccc(F)cc1

>  <score_type>  (34) 
oracle

>  <origin>  (34) 
adg

>  <m_score__min__energy>  (34) 
-7.25

>  <m_primary>  (34) 
energy

$$$$
34:0
     RDKit          3D

 43 45  0  0  0  0  0  0  0  0999 V2000
   56.2710   30.1570   44.6080 O   0  0  0  0  0  0  0  0  0  0  0  0
   57.3480   30.2880   45.2520 C   0  0  0  0  0  0  0  0  0  0  0  0
   58.1860   29.1380   45.4830 N   0  0  0  0  0  0  0  0  0  0  0  0
   58.0240   27.8830   44.8010 C   0  0  0  0  0  0  0  0  0  0  0  0
   57.7020   26.7030   45.4990 C   0  0  0  0  0  0  0  0  0  0  0  0
   57.5230   25.5010   44.8090 C   0  0  0  0  0  0  0  0  0  0  0  0
   57.6500   25.4670   43.4180 C   0  0  0  0  0  0  0  0  0  0  0  0
   57.9460   26.6370   42.7140 C   0  0  0  0  0  0  0  0  0  0  0  0
   58.1250   27.8410   43.4010 C   0  0  0  0  0  0  0  0  0  0  0  0
   57.7130   31.5870   45.7650 N   0  0  0  0  0  0  0  0  0  0  0  0
   58.6890   31.7200   46.8550 C   0  0  0  0  0  0  0  0  0  0  0  0
   58.6220   33.1170   47.4920 C   0  0  0  0  0  0  0  0  0  0  0  0
   58.7040   34.2100   46.4960 N   0  0  0  0  0  0  0  0  0  0  0  0
   60.0070   34.9140   46.4480 C   0  0  0  0  0  0  0  0  0  0  0  0
   61.0980   34.2380   47.2560 C   0  0  0  0  0  0  0  0  0  0  0  0
   61.1530   34.3920   48.6530 C   0  0  0  0  0  0  0  0  0  0  0  0
   62.1560   33.7600   49.3950 C   0  0  0  0  0  0  0  0  0  0  0  0
   63.1230   32.9850   48.7500 C   0  0  0  0  0  0  0  0  0  0  0  0
   64.4910   32.1220   49.7670 Br  0  0  0  0  0  0  0  0  0  0  0  0
   63.0950   32.8520   47.3600 C   0  0  0  0  0  0  0  0  0  0  0  0
   62.0950   33.4820   46.6140 C   0  0  0  0  0  0  0  0  0  0  0  0
   58.1280   33.9190   45.1620 C   0  0  0  0  0  0  0  0  0  0  0  0
   57.0900   32.7970   45.2150 C   0  0  0  0  0  0  0  0  0  0  0  0
   58.9130   29.1820   46.2290 H   0  0  0  0  0  0  0  0  0  0  0  0
   57.5908   26.7276   46.5931 H   0  0  0  0  0  0  0  0  0  0  0  0
   57.2819   24.5809   45.3615 H   0  0  0  0  0  0  0  0  0  0  0  0
   57.5169   24.5186   42.8769 H   0  0  0  0  0  0  0  0  0  0  0  0
   58.0382   26.6106   41.6182 H   0  0  0  0  0  0  0  0  0  0  0  0
   58.3465   28.7617   42.8413 H   0  0  0  0  0  0  0  0  0  0  0  0
   58.4733   30.9639   47.6243 H   0  0  0  0  0  0  0  0  0  0  0  0
   59.6972   31.5737   46.4402 H   0  0  0  0  0  0  0  0  0  0  0  0
   57.6706   33.2091   48.0364 H   0  0  0  0  0  0  0  0  0  0  0  0
   59.4888   33.2158   48.1620 H   0  0  0  0  0  0  0  0  0  0  0  0
   60.3343   34.9667   45.3991 H   0  0  0  0  0  0  0  0  0  0  0  0
   59.8502   35.9088   46.8906 H   0  0  0  0  0  0  0  0  0  0  0  0
   60.4030   35.0129   49.1648 H   0  0  0  0  0  0  0  0  0  0  0  0
   62.1835   33.8734   50.4888 H   0  0  0  0  0  0  0  0  0  0  0  0
   63.8620   32.2498   46.8510 H   0  0  0  0  0  0  0  0  0  0  0  0
   62.0878   33.3859   45.5182 H   0  0  0  0  0  0  0  0  0  0  0  0
   57.6461   34.8300   44.7775 H   0  0  0  0  0  0  0  0  0  0  0  0
   58.9466   33.5919   44.5040 H   0  0  0  0  0  0  0  0  0  0  0  0
   56.2506   33.1027   45.8569 H   0  0  0  0  0  0  0  0  0  0  0  0
   56.7166   32.5915   44.2009 H   0  0  0  0  0  0  0  0  0  0  0  0
  1  2  2  0
  2  3  1  0
  3  4  1  0
  4  5  2  0
  5  6  1  0
  6  7  2  0
  7  8  1  0
  8  9  2  0
  2 10  1  0
 10 11  1  0
 11 12  1  0
 12 13  1  0
 13 14  1  0
 14 15  1  0
 15 16  2  0
 16 17  1  0
 17 18  2  0
 18 19  1  0
 18 20  1  0
 20 21  2  0
 13 22  1  0
 22 23  1  0
  9  4  1  0
 23 10  1  0
 21 15  1  0
  3 24  1  0
  5 25  1  0
  6 26  1  0
  7 27  1  0
  8 28  1  0
  9 29  1  0
 11 30  1  0
 11 31  1  0
 12 32  1  0
 12 33  1  0
 14 34  1  0
 14 35  1  0
 16 36  1  0
 17 37  1  0
 20 38  1  0
 21 39  1  0
 22 40  1  0
 22 41  1  0
 23 42  1  0
 23 43  1  0
M  END
>  <UniqueID>  (35) 
35

>  <SMILES>  (35) 
O=C(Nc1ccccc1)N1CCN(Cc2ccc(Br)cc2)CC1

>  <Energy>  (35) 
58.38290950569492

>  <Genealogy>  (35) 
O=C(Nc1ccccc1)N1CCN(Cc2ccc(Br)cc2)CC1 (3D coordinates assigned)
O=C(Nc1ccccc1)N1CCN(Cc2ccc(Br)cc2)CC1 (nonaromatic ring conformer: 58.38290950569492 kcal/mol)

>  <smiles>  (35) 
O=C(Nc1ccccc1)N1CCN(Cc2ccc(Br)cc2)CC1

>  <score_type>  (35) 
oracle

>  <origin>  (35) 
adg

>  <m_score__min__energy>  (35) 
-8.2899999999999991

>  <m_primary>  (35) 
energy

$$$$
35:0
     RDKit          3D

 40 43  0  0  0  0  0  0  0  0999 V2000
   62.4350   30.2410   51.2200 C   0  0  0  0  0  0  0  0  0  0  0  0
   61.4060   29.2820   50.9930 O   0  0  0  0  0  0  0  0  0  0  0  0
   60.7440   29.1020   49.7700 C   0  0  0  0  0  0  0  0  0  0  0  0
   60.6570   27.8130   49.2480 C   0  0  0  0  0  0  0  0  0  0  0  0
   60.0080   27.5750   48.0370 C   0  0  0  0  0  0  0  0  0  0  0  0
   59.4130   28.6320   47.3110 C   0  0  0  0  0  0  0  0  0  0  0  0
   59.5220   29.9420   47.8270 C   0  0  0  0  0  0  0  0  0  0  0  0
   60.1760   30.1680   49.0520 C   0  0  0  0  0  0  0  0  0  0  0  0
   58.9560   31.0760   47.0710 C   0  0  0  0  0  0  0  0  0  0  0  0
   58.9460   32.2250   47.5910 O   0  0  0  0  0  0  0  0  0  0  0  0
   58.3820   30.8510   45.7200 C   0  0  0  0  0  0  0  0  0  0  0  0
   57.9490   31.9280   44.9040 C   0  0  0  0  0  0  0  0  0  0  0  0
   58.1510   33.2950   45.2960 N   0  0  0  0  0  0  0  0  0  0  0  0
   59.5040   33.8450   45.2400 C   0  0  0  0  0  0  0  0  0  0  0  0
   57.0160   34.2170   45.2760 C   0  0  0  0  0  0  0  0  0  0  0  0
   57.3410   31.6690   43.6690 C   0  0  0  0  0  0  0  0  0  0  0  0
   57.1620   30.3640   43.2270 C   0  0  0  0  0  0  0  0  0  0  0  0
   57.5990   29.2870   44.0040 C   0  0  0  0  0  0  0  0  0  0  0  0
   57.4130   28.0140   43.5560 N   0  0  0  0  0  0  0  0  0  0  0  0
   57.8100   26.9410   44.2830 C   0  0  0  0  0  0  0  0  0  0  0  0
   58.4460   27.1150   45.5100 C   0  0  0  0  0  0  0  0  0  0  0  0
   58.6900   28.4110   46.0110 C   0  0  0  0  0  0  0  0  0  0  0  0
   58.2320   29.5210   45.2520 C   0  0  0  0  0  0  0  0  0  0  0  0
   62.5789   30.3751   52.3023 H   0  0  0  0  0  0  0  0  0  0  0  0
   63.3726   29.8871   50.7665 H   0  0  0  0  0  0  0  0  0  0  0  0
   62.1479   31.2012   50.7665 H   0  0  0  0  0  0  0  0  0  0  0  0
   61.1059   26.9728   49.7980 H   0  0  0  0  0  0  0  0  0  0  0  0
   59.9583   26.5500   47.6409 H   0  0  0  0  0  0  0  0  0  0  0  0
   60.2434   31.1904   49.4521 H   0  0  0  0  0  0  0  0  0  0  0  0
   59.8802   33.9979   46.2623 H   0  0  0  0  0  0  0  0  0  0  0  0
   60.1632   33.1435   44.7078 H   0  0  0  0  0  0  0  0  0  0  0  0
   59.4868   34.8075   44.7078 H   0  0  0  0  0  0  0  0  0  0  0  0
   56.7204   34.4571   46.3080 H   0  0  0  0  0  0  0  0  0  0  0  0
   57.3032   35.1408   44.7525 H   0  0  0  0  0  0  0  0  0  0  0  0
   56.1706   33.7466   44.7525 H   0  0  0  0  0  0  0  0  0  0  0  0
   57.0018   32.5073   43.0427 H   0  0  0  0  0  0  0  0  0  0  0  0
   56.6733   30.1770   42.2594 H   0  0  0  0  0  0  0  0  0  0  0  0
   56.9440   27.8410   42.6370 H   0  0  0  0  0  0  0  0  0  0  0  0
   57.6286   25.9255   43.9012 H   0  0  0  0  0  0  0  0  0  0  0  0
   58.7601   26.2361   46.0921 H   0  0  0  0  0  0  0  0  0  0  0  0
  1  2  1  0
  2  3  1  0
  3  4  2  0
  4  5  1  0
  5  6  2  0
  6  7  1  0
  7  8  2  0
  7  9  1  0
  9 10  2  0
  9 11  1  0
 11 12  1  0
 12 13  1  0
 13 14  1  0
 13 15  1  0
 12 16  2  0
 16 17  1  0
 17 18  2  0
 18 19  1  0
 19 20  2  0
 20 21  1  0
 21 22  2  0
 22 23  1  0
  8  3  1  0
 23 11  2  0
 22  6  1  0
 23 18  1  0
  1 24  1  0
  1 25  1  0
  1 26  1  0
  4 27  1  0
  5 28  1  0
  8 29  1  0
 14 30  1  0
 14 31  1  0
 14 32  1  0
 15 33  1  0
 15 34  1  0
 15 35  1  0
 16 36  1  0
 17 37  1  0
 19 38  1  0
 20 39  1  0
 21 40  1  0
M  CHG  1  19   1
M  END
>  <UniqueID>  (36) 
36

>  <SMILES>  (36) 
COc1ccc2c(c1)C(=O)c1c(N(C)C)ccc3[nH+]ccc-2c13

>  <Energy>  (36) 
61.97303223759165

>  <Genealogy>  (36) 
COc1ccc2c(c1)C(=O)c1c(N(C)C)ccc3[nH+]ccc-2c13 (protonated)
COc1ccc2c(c1)C(=O)c1c(N(C)C)ccc3[nH+]ccc-2c13 (3D coordinates assigned)
COc1ccc2c(c1)C(=O)c1c(N(C)C)ccc3[nH+]ccc-2c13 (nonaromatic ring conformer: 61.97303223759165 kcal/mol)

>  <smiles>  (36) 
COc1ccc2c(c1)C(=O)c1c(N(C)C)ccc3nccc-2c13

>  <score_type>  (36) 
oracle

>  <origin>  (36) 
adg

>  <m_score__min__energy>  (36) 
-5.6600000000000001

>  <m_primary>  (36) 
energy

$$$$
36:0
     RDKit          3D

 46 45  0  0  1  0  0  0  0  0999 V2000
   63.7630   33.1400   47.5380 C   0  0  0  0  0  0  0  0  0  0  0  0
   62.7170   33.8310   46.6960 C   0  0  0  0  0  0  0  0  0  0  0  0
   61.4970   33.0630   46.7790 N   0  0  0  0  0  0  0  0  0  0  0  0
   60.4130   33.7920   47.3720 C   0  0  0  0  0  0  0  0  0  0  0  0
   59.5500   34.3430   46.2630 C   0  0  0  0  0  0  0  0  0  0  0  0
   61.6920   31.7450   47.3020 C   0  0  0  0  0  0  0  0  0  0  0  0
   60.6970   31.2990   48.3280 C   0  0  0  0  0  0  0  0  0  0  0  0
   59.7230   30.4270   47.8000 O   0  0  0  0  0  0  0  0  0  0  0  0
   58.9090   30.6870   46.7080 C   0  0  0  0  0  0  0  0  0  0  0  0
   57.9700   31.4790   46.8540 O   0  0  0  0  0  0  0  0  0  0  0  0
   59.2510   29.9780   45.4500 C   0  0  1  0  0  0  0  0  0  0  0  0
   59.1330   28.4920   45.7020 C   0  0  0  0  0  0  0  0  0  0  0  0
   57.9960   28.2320   46.6660 C   0  0  0  0  0  0  0  0  0  0  0  0
   56.9490   27.5820   45.9990 O   0  0  0  0  0  0  0  0  0  0  0  0
   57.1480   26.2070   45.9750 C   0  0  0  0  0  0  0  0  0  0  0  0
   58.4730   30.3760   44.2510 C   0  0  0  0  0  0  0  0  0  0  0  0
   57.2190   29.6060   44.0400 C   0  0  0  0  0  0  0  0  0  0  0  0
   57.2090   28.3310   43.4510 O   0  0  0  0  0  0  0  0  0  0  0  0
   56.0500   30.0540   44.3850 N   0  0  0  0  0  0  0  0  0  0  0  0
   55.1340   29.2130   44.9510 O   0  0  0  0  0  0  0  0  0  0  0  0
   63.5345   33.2909   48.6034 H   0  0  0  0  0  0  0  0  0  0  0  0
   63.7631   32.0635   47.3120 H   0  0  0  0  0  0  0  0  0  0  0  0
   64.7533   33.5622   47.3120 H   0  0  0  0  0  0  0  0  0  0  0  0
   62.5440   34.8484   47.0767 H   0  0  0  0  0  0  0  0  0  0  0  0
   63.0535   33.9011   45.6511 H   0  0  0  0  0  0  0  0  0  0  0  0
   59.8174   33.1209   48.0083 H   0  0  0  0  0  0  0  0  0  0  0  0
   60.8025   34.6125   47.9925 H   0  0  0  0  0  0  0  0  0  0  0  0
   58.6981   34.8869   46.6971 H   0  0  0  0  0  0  0  0  0  0  0  0
   60.1448   35.0288   45.6418 H   0  0  0  0  0  0  0  0  0  0  0  0
   59.1782   33.5148   45.6418 H   0  0  0  0  0  0  0  0  0  0  0  0
   61.6495   31.0379   46.4604 H   0  0  0  0  0  0  0  0  0  0  0  0
   62.6636   31.7680   47.8172 H   0  0  0  0  0  0  0  0  0  0  0  0
   61.2335   30.7794   49.1356 H   0  0  0  0  0  0  0  0  0  0  0  0
   60.1756   32.1950   48.6959 H   0  0  0  0  0  0  0  0  0  0  0  0
   60.2802   30.2707   45.1951 H   0  0  0  0  0  0  0  0  0  0  0  0
   58.9341   27.9738   44.7523 H   0  0  0  0  0  0  0  0  0  0  0  0
   60.0727   28.1179   46.1344 H   0  0  0  0  0  0  0  0  0  0  0  0
   58.3537   27.5976   47.4904 H   0  0  0  0  0  0  0  0  0  0  0  0
   57.6328   29.1898   47.0669 H   0  0  0  0  0  0  0  0  0  0  0  0
   57.2031   25.8264   47.0056 H   0  0  0  0  0  0  0  0  0  0  0  0
   56.3103   25.7244   45.4502 H   0  0  0  0  0  0  0  0  0  0  0  0
   58.0881   25.9817   45.4502 H   0  0  0  0  0  0  0  0  0  0  0  0
   58.2094   31.4392   44.3511 H   0  0  0  0  0  0  0  0  0  0  0  0
   59.1145   30.1689   43.3818 H   0  0  0  0  0  0  0  0  0  0  0  0
   56.6630   27.5630   43.8530 H   0  0  0  0  0  0  0  0  0  0  0  0
   55.1730   28.2110   44.8830 H   0  0  0  0  0  0  0  0  0  0  0  0
  1  2  1  0
  2  3  1  0
  3  4  1  0
  4  5  1  0
  3  6  1  0
  6  7  1  0
  7  8  1  0
  8  9  1  0
  9 10  2  0
  9 11  1  0
 11 12  1  0
 12 13  1  0
 13 14  1  0
 14 15  1  0
 11 16  1  0
 16 17  1  0
 17 18  1  0
 17 19  2  0
 19 20  1  0
  1 21  1  0
  1 22  1  0
  1 23  1  0
  2 24  1  0
  2 25  1  0
  4 26  1  0
  4 27  1  0
  5 28  1  0
  5 29  1  0
  5 30  1  0
  6 31  1  0
  6 32  1  0
  7 33  1  0
  7 34  1  0
 11 35  1  6
 12 36  1  0
 12 37  1  0
 13 38  1  0
 13 39  1  0
 15 40  1  0
 15 41  1  0
 15 42  1  0
 16 43  1  0
 16 44  1  0
 18 45  1  0
 20 46  1  0
M  END
>  <smiles>  (37) 
CCN(CC)CCOC(=O)C(CCOC)CC(O)=NO

>  <score_type>  (37) 
oracle

>  <origin>  (37) 
adg

>  <m_score__min__energy>  (37) 
-6.9400000000000004

>  <m_primary>  (37) 
energy

$$$$
37:0
     RDKit          3D

 25 26  0  0  0  0  0  0  0  0999 V2000
   55.8710   27.4020   45.6240 O   0  0  0  0  0  0  0  0  0  0  0  0
   56.6680   28.3010   45.2480 C   0  0  0  0  0  0  0  0  0  0  0  0
   58.1220   27.9540   45.0590 C   0  0  0  0  0  0  0  0  0  0  0  0
   59.0000   28.7800   45.9500 C   0  0  0  0  0  0  0  0  0  0  0  0
   60.0410   29.6020   45.5370 C   0  0  0  0  0  0  0  0  0  0  0  0
   60.6910   30.2420   46.5970 C   0  0  0  0  0  0  0  0  0  0  0  0
   60.1620   29.9330   47.8440 C   0  0  0  0  0  0  0  0  0  0  0  0
   58.8850   28.8610   47.6260 S   0  0  0  0  0  0  0  0  0  0  0  0
   56.1730   29.6360   45.0730 N   0  0  0  0  0  0  0  0  0  0  0  0
   56.8030   30.6640   44.3020 C   0  0  0  0  0  0  0  0  0  0  0  0
   56.7830   30.6300   42.8980 C   0  0  0  0  0  0  0  0  0  0  0  0
   57.4070   31.6410   42.1630 C   0  0  0  0  0  0  0  0  0  0  0  0
   58.0410   32.6980   42.8220 C   0  0  0  0  0  0  0  0  0  0  0  0
   58.0410   32.7530   44.2190 C   0  0  0  0  0  0  0  0  0  0  0  0
   58.9050   34.2080   45.1090 Br  0  0  0  0  0  0  0  0  0  0  0  0
   57.4120   31.7420   44.9600 C   0  0  0  0  0  0  0  0  0  0  0  0
   57.4170   31.7900   46.3160 F   0  0  0  0  0  0  0  0  0  0  0  0
   58.2702   26.8902   45.2965 H   0  0  0  0  0  0  0  0  0  0  0  0
   58.3952   28.1615   44.0138 H   0  0  0  0  0  0  0  0  0  0  0  0
   60.3252   29.7359   44.4828 H   0  0  0  0  0  0  0  0  0  0  0  0
   61.5412   30.9258   46.4567 H   0  0  0  0  0  0  0  0  0  0  0  0
   60.5178   30.3230   48.8090 H   0  0  0  0  0  0  0  0  0  0  0  0
   56.2750   29.8057   42.3761 H   0  0  0  0  0  0  0  0  0  0  0  0
   57.3993   31.6051   41.0636 H   0  0  0  0  0  0  0  0  0  0  0  0
   58.5404   33.4873   42.2410 H   0  0  0  0  0  0  0  0  0  0  0  0
  1  2  2  0
  2  3  1  0
  3  4  1  0
  4  5  2  0
  5  6  1  0
  6  7  2  0
  7  8  1  0
  2  9  1  0
  9 10  1  0
 10 11  2  0
 11 12  1  0
 12 13  2  0
 13 14  1  0
 14 15  1  0
 14 16  2  0
 16 17  1  0
  8  4  1  0
 16 10  1  0
  3 18  1  0
  3 19  1  0
  5 20  1  0
  6 21  1  0
  7 22  1  0
 11 23  1  0
 12 24  1  0
 13 25  1  0
M  CHG  1   9  -1
M  END
>  <UniqueID>  (38) 
37

>  <SMILES>  (38) 
O=C(Cc1cccs1)[N-]c1cccc(Br)c1F

>  <Energy>  (38) 
53.95894066515164

>  <Genealogy>  (38) 
O=C(Cc1cccs1)[N-]c1cccc(Br)c1F (protonated)
O=C(Cc1cccs1)[N-]c1cccc(Br)c1F (3D coordinates assigned)
O=C(Cc1cccs1)[N-]c1cccc(Br)c1F (optimized conformer: 53.95894066515164 kcal/mol)

>  <smiles>  (38) 
O=C(Cc1cccs1)Nc1cccc(Br)c1F

>  <score_type>  (38) 
oracle

>  <origin>  (38) 
adg

>  <m_score__min__energy>  (38) 
-9.0199999999999996

>  <m_primary>  (38) 
energy

$$$$
38:0
     RDKit          3D

 21 22  0  0  0  0  0  0  0  0999 V2000
   57.8810   32.9040   44.1960 C   0  0  0  0  0  0  0  0  0  0  0  0
   57.5970   31.4600   44.4890 C   0  0  0  0  0  0  0  0  0  0  0  0
   56.7500   30.7220   43.6500 C   0  0  0  0  0  0  0  0  0  0  0  0
   56.4550   29.3860   43.9410 C   0  0  0  0  0  0  0  0  0  0  0  0
   56.9940   28.7680   45.0850 C   0  0  0  0  0  0  0  0  0  0  0  0
   56.6950   27.3510   45.4130 C   0  0  0  0  0  0  0  0  0  0  0  0
   57.5250   26.3260   45.1150 N   0  0  0  0  0  0  0  0  0  0  0  0
   56.8380   25.2710   45.5970 C   0  0  0  0  0  0  0  0  0  0  0  0
   57.3680   23.7290   45.5160 S   0  0  0  0  0  0  0  0  0  0  0  0
   55.6980   25.6280   46.1330 O   0  0  0  0  0  0  0  0  0  0  0  0
   55.5790   26.9140   46.0350 N   0  0  0  0  0  0  0  0  0  0  0  0
   57.8290   29.5200   45.9310 C   0  0  0  0  0  0  0  0  0  0  0  0
   58.1220   30.8550   45.6390 C   0  0  0  0  0  0  0  0  0  0  0  0
   57.9895   33.4555   45.1415 H   0  0  0  0  0  0  0  0  0  0  0  0
   58.8121   32.9842   43.6158 H   0  0  0  0  0  0  0  0  0  0  0  0
   57.0496   33.3308   43.6158 H   0  0  0  0  0  0  0  0  0  0  0  0
   56.3150   31.1963   42.7579 H   0  0  0  0  0  0  0  0  0  0  0  0
   55.7967   28.8139   43.2706 H   0  0  0  0  0  0  0  0  0  0  0  0
   54.7630   27.4630   46.3810 H   0  0  0  0  0  0  0  0  0  0  0  0
   58.2555   29.0529   46.8310 H   0  0  0  0  0  0  0  0  0  0  0  0
   58.7681   31.4339   46.3154 H   0  0  0  0  0  0  0  0  0  0  0  0
  1  2  1  0
  2  3  2  0
  3  4  1  0
  4  5  2  0
  5  6  1  0
  6  7  2  0
  7  8  1  0
  8  9  2  0
  8 10  1  0
 10 11  1  0
  5 12  1  0
 12 13  2  0
 13  2  1  0
 11  6  1  0
  1 14  1  0
  1 15  1  0
  1 16  1  0
  3 17  1  0
  4 18  1  0
 11 19  1  0
 12 20  1  0
 13 21  1  0
M  END
>  <UniqueID>  (39) 
38

>  <SMILES>  (39) 
Cc1ccc(-c2nc(=S)o[nH]2)cc1

>  <Energy>  (39) 
56.566212582110516

>  <Genealogy>  (39) 
Cc1ccc(-c2nc(=S)o[nH]2)cc1 (3D coordinates assigned)
Cc1ccc(-c2nc(=S)o[nH]2)cc1 (optimized conformer: 56.566212582110516 kcal/mol)

>  <smiles>  (39) 
Cc1ccc(-c2nc(=S)o[nH]2)cc1

>  <score_type>  (39) 
oracle

>  <origin>  (39) 
adg

>  <m_score__min__energy>  (39) 
-5.9000000000000004

>  <m_primary>  (39) 
energy

$$$$
39:0
     RDKit          3D

 42 45  0  0  0  0  0  0  0  0999 V2000
   57.6497   25.5428   43.4427 H   0  0  0  0  0  0  0  0  0  0  0  0
   58.0330   26.3210   44.1190 C   0  0  0  0  0  0  0  0  0  0  0  0
   58.1570   27.6380   43.6700 C   0  0  0  0  0  0  0  0  0  0  0  0
   57.8694   27.8961   42.6401 H   0  0  0  0  0  0  0  0  0  0  0  0
   58.6460   28.6290   44.5270 C   0  0  0  0  0  0  0  0  0  0  0  0
   58.7426   29.6643   44.1681 H   0  0  0  0  0  0  0  0  0  0  0  0
   59.0150   28.3080   45.8460 C   0  0  0  0  0  0  0  0  0  0  0  0
   59.5310   29.3540   46.7550 C   0  0  0  0  0  0  0  0  0  0  0  0
   58.8800   29.7770   47.8630 N   0  0  0  0  0  0  0  0  0  0  0  0
   59.7180   30.7110   48.3490 C   0  0  0  0  0  0  0  0  0  0  0  0
   59.4480   31.3730   49.4390 N   0  0  0  0  0  0  0  0  0  0  0  0
   58.8820   32.7130   49.5540 C   0  0  0  0  0  0  0  0  0  0  0  0
   59.4768   33.3045   50.2656 H   0  0  0  0  0  0  0  0  0  0  0  0
   57.8452   32.6482   49.9156 H   0  0  0  0  0  0  0  0  0  0  0  0
   58.9080   33.3730   48.2060 C   0  0  0  0  0  0  0  0  0  0  0  0
   59.8030   34.4250   47.9490 C   0  0  0  0  0  0  0  0  0  0  0  0
   60.5063   34.7494   48.7301 H   0  0  0  0  0  0  0  0  0  0  0  0
   59.8030   35.0610   46.7040 C   0  0  0  0  0  0  0  0  0  0  0  0
   60.5122   35.8780   46.5050 H   0  0  0  0  0  0  0  0  0  0  0  0
   58.9040   34.6610   45.7120 C   0  0  0  0  0  0  0  0  0  0  0  0
   58.9040   35.2810   44.5060 F   0  0  0  0  0  0  0  0  0  0  0  0
   57.9990   33.6260   45.9660 C   0  0  0  0  0  0  0  0  0  0  0  0
   57.2885   33.3139   45.1864 H   0  0  0  0  0  0  0  0  0  0  0  0
   57.9960   32.9870   47.2100 C   0  0  0  0  0  0  0  0  0  0  0  0
   57.2766   32.1790   47.4092 H   0  0  0  0  0  0  0  0  0  0  0  0
   60.8210   30.8450   47.5740 N   0  0  0  0  0  0  0  0  0  0  0  0
   61.9500   31.7100   47.7200 C   0  0  0  0  0  0  0  0  0  0  0  0
   62.2040   32.7010   46.7620 C   0  0  0  0  0  0  0  0  0  0  0  0
   61.5452   32.8013   45.8868 H   0  0  0  0  0  0  0  0  0  0  0  0
   63.2940   33.5620   46.9180 C   0  0  0  0  0  0  0  0  0  0  0  0
   63.4986   34.3324   46.1600 H   0  0  0  0  0  0  0  0  0  0  0  0
   64.1240   33.4450   48.0360 C   0  0  0  0  0  0  0  0  0  0  0  0
   64.9838   34.1207   48.1549 H   0  0  0  0  0  0  0  0  0  0  0  0
   63.8630   32.4700   49.0040 C   0  0  0  0  0  0  0  0  0  0  0  0
   64.5149   32.3818   49.8856 H   0  0  0  0  0  0  0  0  0  0  0  0
   62.7730   31.6070   48.8510 C   0  0  0  0  0  0  0  0  0  0  0  0
   62.5612   30.8474   49.6179 H   0  0  0  0  0  0  0  0  0  0  0  0
   60.7050   29.9930   46.5710 N   0  0  0  0  0  0  0  0  0  0  0  0
   58.8860   26.9800   46.2890 C   0  0  0  0  0  0  0  0  0  0  0  0
   59.1716   26.7158   47.3179 H   0  0  0  0  0  0  0  0  0  0  0  0
   58.3960   25.9930   45.4270 C   0  0  0  0  0  0  0  0  0  0  0  0
   58.2964   24.9561   45.7804 H   0  0  0  0  0  0  0  0  0  0  0  0
  1  2  1  0
  2  3  2  0
  3  4  1  0
  3  5  1  0
  5  6  1  0
  5  7  2  0
  7  8  1  0
  8  9  2  0
  9 10  1  0
 10 11  2  0
 11 12  1  0
 12 13  1  0
 12 14  1  0
 12 15  1  0
 15 16  2  0
 16 17  1  0
 16 18  1  0
 18 19  1  0
 18 20  2  0
 20 21  1  0
 20 22  1  0
 22 23  1  0
 22 24  2  0
 24 25  1  0
 10 26  1  0
 26 27  1  0
 27 28  2  0
 28 29  1  0
 28 30  1  0
 30 31  1  0
 30 32  2  0
 32 33  1  0
 32 34  1  0
 34 35  1  0
 34 36  2  0
 36 37  1  0
 26 38  1  0
  7 39  1  0
 39 40  1  0
 39 41  2  0
 41 42  1  0
 41  2  1  0
 38  8  1  0
 24 15  1  0
 36 27  1  0
M  CHG  1  38  -1
M  END
>  <UniqueID>  (40) 
39

>  <SMILES>  (40) 
Fc1ccc(C/N=c2/nc(-c3ccccc3)[n-]n2-c2ccccc2)cc1

>  <Energy>  (40) 
90.98318515184191

>  <Genealogy>  (40) 
Fc1ccc(CN=c2nc(-c3ccccc3)[n-]n2-c2ccccc2)cc1 (protonated)
Fc1ccc(C/N=c2/nc(-c3ccccc3)[n-]n2-c2ccccc2)cc1 (cis-trans isomerization)
Fc1ccc(C/N=c2/nc(-c3ccccc3)[n-]n2-c2ccccc2)cc1 (3D coordinates assigned)
Fc1ccc(C/N=c2/nc(-c3ccccc3)[n-]n2-c2ccccc2)cc1 (optimized conformer: 90.98318515184191 kcal/mol)

>  <smiles>  (40) 
Fc1ccc(CN=c2nc(-c3ccccc3)[nH]n2-c2ccccc2)cc1

>  <score_type>  (40) 
oracle

>  <origin>  (40) 
adg

>  <m_score__min__energy>  (40) 
-8.9199999999999999

>  <m_primary>  (40) 
energy

$$$$
40:0
     RDKit          3D

 58 59  0  0  0  0  0  0  0  0999 V2000
   57.0140   21.3000   42.6990 C   0  0  0  0  0  0  0  0  0  0  0  0
   56.4080   22.6750   43.0220 C   0  0  0  0  0  0  0  0  0  0  0  0
   56.7310   23.1640   44.3820 N   0  0  0  0  0  0  0  0  0  0  0  0
   55.5450   23.2170   45.2670 C   0  0  0  0  0  0  0  0  0  0  0  0
   55.1710   24.6610   45.5940 C   0  0  0  0  0  0  0  0  0  0  0  0
   57.8940   22.4720   44.9920 C   0  0  0  0  0  0  0  0  0  0  0  0
   58.9250   23.5100   45.4380 C   0  0  0  0  0  0  0  0  0  0  0  0
   58.3960   24.8640   45.2850 N   0  0  0  0  0  0  0  0  0  0  0  0
   59.0890   26.0240   45.7730 C   0  0  0  0  0  0  0  0  0  0  0  0
   60.1690   25.8790   46.4070 O   0  0  0  0  0  0  0  0  0  0  0  0
   58.5500   27.3930   45.5680 C   0  0  0  0  0  0  0  0  0  0  0  0
   58.6540   28.3800   46.5670 C   0  0  0  0  0  0  0  0  0  0  0  0
   58.1510   29.6660   46.3510 C   0  0  0  0  0  0  0  0  0  0  0  0
   57.5080   29.9820   45.1420 C   0  0  0  0  0  0  0  0  0  0  0  0
   57.0140   31.3020   44.8780 N   0  0  0  0  0  0  0  0  0  0  0  0
   57.6150   32.2840   44.0240 C   0  0  0  0  0  0  0  0  0  0  0  0
   57.8030   31.9970   42.8130 O   0  0  0  0  0  0  0  0  0  0  0  0
   57.9850   33.6570   44.5220 C   0  0  0  0  0  0  0  0  0  0  0  0
   58.0410   33.7310   46.0540 C   0  0  0  0  0  0  0  0  0  0  0  0
   59.5100   34.5700   46.6440 S   0  0  0  0  0  0  0  0  0  0  0  0
   59.9170   35.6210   45.6470 O   0  0  0  0  0  0  0  0  0  0  0  0
   59.1970   35.2490   47.9490 O   0  0  0  0  0  0  0  0  0  0  0  0
   60.8340   33.4360   46.8980 C   0  0  0  0  0  0  0  0  0  0  0  0
   60.5550   32.0760   47.0910 C   0  0  0  0  0  0  0  0  0  0  0  0
   61.5990   31.1650   47.2760 C   0  0  0  0  0  0  0  0  0  0  0  0
   62.9260   31.6090   47.2670 C   0  0  0  0  0  0  0  0  0  0  0  0
   63.2070   32.9640   47.0750 C   0  0  0  0  0  0  0  0  0  0  0  0
   62.1650   33.8770   46.8920 C   0  0  0  0  0  0  0  0  0  0  0  0
   57.4120   29.0080   44.1430 C   0  0  0  0  0  0  0  0  0  0  0  0
   57.9130   27.7220   44.3570 C   0  0  0  0  0  0  0  0  0  0  0  0
   57.2465   20.7725   43.6359 H   0  0  0  0  0  0  0  0  0  0  0  0
   56.2928   20.7095   42.1150 H   0  0  0  0  0  0  0  0  0  0  0  0
   57.9365   21.4339   42.1150 H   0  0  0  0  0  0  0  0  0  0  0  0
   56.7902   23.4031   42.2914 H   0  0  0  0  0  0  0  0  0  0  0  0
   55.3148   22.5640   42.9718 H   0  0  0  0  0  0  0  0  0  0  0  0
   54.6971   22.7313   44.7619 H   0  0  0  0  0  0  0  0  0  0  0  0
   55.7842   22.6955   46.2055 H   0  0  0  0  0  0  0  0  0  0  0  0
   55.1369   24.7927   46.6856 H   0  0  0  0  0  0  0  0  0  0  0  0
   55.9228   25.3404   45.1660 H   0  0  0  0  0  0  0  0  0  0  0  0
   54.1839   24.8900   45.1660 H   0  0  0  0  0  0  0  0  0  0  0  0
   57.5592   21.8894   45.8629 H   0  0  0  0  0  0  0  0  0  0  0  0
   58.3488   21.7959   44.2530 H   0  0  0  0  0  0  0  0  0  0  0  0
   59.1763   23.3380   46.4950 H   0  0  0  0  0  0  0  0  0  0  0  0
   59.8226   23.4085   44.8104 H   0  0  0  0  0  0  0  0  0  0  0  0
   57.4830   24.9630   44.7950 H   0  0  0  0  0  0  0  0  0  0  0  0
   59.1353   28.1367   47.5257 H   0  0  0  0  0  0  0  0  0  0  0  0
   58.2589   30.4342   47.1308 H   0  0  0  0  0  0  0  0  0  0  0  0
   58.9734   33.9238   44.1195 H   0  0  0  0  0  0  0  0  0  0  0  0
   57.2075   34.3568   44.1817 H   0  0  0  0  0  0  0  0  0  0  0  0
   57.1551   34.2746   46.4140 H   0  0  0  0  0  0  0  0  0  0  0  0
   58.0657   32.7008   46.4389 H   0  0  0  0  0  0  0  0  0  0  0  0
   59.5126   31.7249   47.0969 H   0  0  0  0  0  0  0  0  0  0  0  0
   61.3773   30.0985   47.4287 H   0  0  0  0  0  0  0  0  0  0  0  0
   63.7474   30.8916   47.4110 H   0  0  0  0  0  0  0  0  0  0  0  0
   64.2502   33.3128   47.0679 H   0  0  0  0  0  0  0  0  0  0  0  0
   62.3893   34.9435   46.7430 H   0  0  0  0  0  0  0  0  0  0  0  0
   56.9385   29.2566   43.1818 H   0  0  0  0  0  0  0  0  0  0  0  0
   57.8087   26.9590   43.5715 H   0  0  0  0  0  0  0  0  0  0  0  0
  1  2  1  0
  2  3  1  0
  3  4  1  0
  4  5  1  0
  3  6  1  0
  6  7  1  0
  7  8  1  0
  8  9  1  0
  9 10  2  0
  9 11  1  0
 11 12  2  0
 12 13  1  0
 13 14  2  0
 14 15  1  0
 15 16  1  0
 16 17  2  0
 16 18  1  0
 18 19  1  0
 19 20  1  0
 20 21  2  0
 20 22  2  0
 20 23  1  0
 23 24  2  0
 24 25  1  0
 25 26  2  0
 26 27  1  0
 27 28  2  0
 14 29  1  0
 29 30  2  0
 30 11  1  0
 28 23  1  0
  1 31  1  0
  1 32  1  0
  1 33  1  0
  2 34  1  0
  2 35  1  0
  4 36  1  0
  4 37  1  0
  5 38  1  0
  5 39  1  0
  5 40  1  0
  6 41  1  0
  6 42  1  0
  7 43  1  0
  7 44  1  0
  8 45  1  0
 12 46  1  0
 13 47  1  0
 18 48  1  0
 18 49  1  0
 19 50  1  0
 19 51  1  0
 24 52  1  0
 25 53  1  0
 26 54  1  0
 27 55  1  0
 28 56  1  0
 29 57  1  0
 30 58  1  0
M  CHG  1  15  -1
M  END
>  <UniqueID>  (41) 
40

>  <SMILES>  (41) 
CCN(CC)CCNC(=O)c1ccc([N-]C(=O)CCS(=O)(=O)c2ccccc2)cc1

>  <Energy>  (41) 
56.375151978235785

>  <Genealogy>  (41) 
CCN(CC)CCNC(=O)c1ccc([N-]C(=O)CCS(=O)(=O)c2ccccc2)cc1 (protonated)
CCN(CC)CCNC(=O)c1ccc([N-]C(=O)CCS(=O)(=O)c2ccccc2)cc1 (3D coordinates assigned)
CCN(CC)CCNC(=O)c1ccc([N-]C(=O)CCS(=O)(=O)c2ccccc2)cc1 (optimized conformer: 56.375151978235785 kcal/mol)

>  <smiles>  (41) 
CCN(CC)CCNC(=O)c1ccc(NC(=O)CCS(=O)(=O)c2ccccc2)cc1

>  <score_type>  (41) 
oracle

>  <origin>  (41) 
adg

>  <m_score__min__energy>  (41) 
-10.25

>  <m_primary>  (41) 
energy

$$$$
41:0
     RDKit          3D

 48 51  0  0  0  0  0  0  0  0999 V2000
   56.7870   21.4250   43.3980 C   0  0  0  0  0  0  0  0  0  0  0  0
   55.9760   22.4920   43.8780 O   0  0  0  0  0  0  0  0  0  0  0  0
   56.4580   23.7730   44.1930 C   0  0  0  0  0  0  0  0  0  0  0  0
   56.0620   24.3540   45.4030 C   0  0  0  0  0  0  0  0  0  0  0  0
   56.5160   25.6250   45.7630 C   0  0  0  0  0  0  0  0  0  0  0  0
   57.3860   26.3320   44.9200 C   0  0  0  0  0  0  0  0  0  0  0  0
   57.8420   27.6940   45.2750 C   0  0  0  0  0  0  0  0  0  0  0  0
   58.6720   27.9890   46.3480 C   0  0  0  0  0  0  0  0  0  0  0  0
   58.9570   29.3440   46.2750 C   0  0  0  0  0  0  0  0  0  0  0  0
   59.9320   30.0770   47.1530 C   0  0  0  0  0  0  0  0  0  0  0  0
   59.2400   30.6980   48.2940 N   0  0  0  0  0  0  0  0  0  0  0  0
   59.6140   32.1100   48.4850 C   0  0  0  0  0  0  0  0  0  0  0  0
   59.1070   32.9670   47.3530 C   0  0  0  0  0  0  0  0  0  0  0  0
   60.0120   33.6430   46.5160 C   0  0  0  0  0  0  0  0  0  0  0  0
   59.5450   34.3970   45.4360 C   0  0  0  0  0  0  0  0  0  0  0  0
   58.1720   34.4960   45.1920 C   0  0  0  0  0  0  0  0  0  0  0  0
   57.2650   33.8470   46.0340 C   0  0  0  0  0  0  0  0  0  0  0  0
   57.7280   33.0930   47.1160 C   0  0  0  0  0  0  0  0  0  0  0  0
   58.2680   29.8250   45.1720 C   0  0  0  0  0  0  0  0  0  0  0  0
   58.2280   31.1250   44.6590 C   0  0  0  0  0  0  0  0  0  0  0  0
   57.4530   31.3530   43.5130 C   0  0  0  0  0  0  0  0  0  0  0  0
   56.7390   30.2990   42.9200 C   0  0  0  0  0  0  0  0  0  0  0  0
   56.8140   29.0140   43.4730 C   0  0  0  0  0  0  0  0  0  0  0  0
   57.5950   28.8210   44.5720 N   0  0  0  0  0  0  0  0  0  0  0  0
   57.7700   25.7610   43.6970 C   0  0  0  0  0  0  0  0  0  0  0  0
   57.3170   24.4880   43.3370 C   0  0  0  0  0  0  0  0  0  0  0  0
   57.2075   20.8718   44.2507 H   0  0  0  0  0  0  0  0  0  0  0  0
   56.1750   20.7459   42.7862 H   0  0  0  0  0  0  0  0  0  0  0  0
   57.6051   21.8329   42.7862 H   0  0  0  0  0  0  0  0  0  0  0  0
   55.3874   23.8050   46.0764 H   0  0  0  0  0  0  0  0  0  0  0  0
   56.1895   26.0739   46.7127 H   0  0  0  0  0  0  0  0  0  0  0  0
   59.0341   27.2831   47.1100 H   0  0  0  0  0  0  0  0  0  0  0  0
   60.6833   29.3671   47.5293 H   0  0  0  0  0  0  0  0  0  0  0  0
   60.4163   30.8672   46.5606 H   0  0  0  0  0  0  0  0  0  0  0  0
   58.2150   30.6770   48.0810 H   0  0  0  0  0  0  0  0  0  0  0  0
   59.1814   32.4710   49.4297 H   0  0  0  0  0  0  0  0  0  0  0  0
   60.7116   32.1791   48.5092 H   0  0  0  0  0  0  0  0  0  0  0  0
   61.0924   33.5781   46.7121 H   0  0  0  0  0  0  0  0  0  0  0  0
   60.2586   34.9133   44.7771 H   0  0  0  0  0  0  0  0  0  0  0  0
   57.8059   35.0844   44.3378 H   0  0  0  0  0  0  0  0  0  0  0  0
   56.1845   33.9297   45.8449 H   0  0  0  0  0  0  0  0  0  0  0  0
   57.0097   32.5962   47.7847 H   0  0  0  0  0  0  0  0  0  0  0  0
   58.7864   31.9423   45.1388 H   0  0  0  0  0  0  0  0  0  0  0  0
   57.4040   32.3615   43.0766 H   0  0  0  0  0  0  0  0  0  0  0  0
   56.1242   30.4814   42.0262 H   0  0  0  0  0  0  0  0  0  0  0  0
   56.2537   28.1781   43.0288 H   0  0  0  0  0  0  0  0  0  0  0  0
   58.4314   26.3183   43.0173 H   0  0  0  0  0  0  0  0  0  0  0  0
   57.6330   24.0437   42.3816 H   0  0  0  0  0  0  0  0  0  0  0  0
  1  2  1  0
  2  3  1  0
  3  4  2  0
  4  5  1  0
  5  6  2  0
  6  7  1  0
  7  8  2  0
  8  9  1  0
  9 10  1  0
 10 11  1  0
 11 12  1  0
 12 13  1  0
 13 14  2  0
 14 15  1  0
 15 16  2  0
 16 17  1  0
 17 18  2  0
  9 19  2  0
 19 20  1  0
 20 21  2  0
 21 22  1  0
 22 23  2  0
 23 24  1  0
  6 25  1  0
 25 26  2  0
 26  3  1  0
 24  7  1  0
 18 13  1  0
 24 19  1  0
  1 27  1  0
  1 28  1  0
  1 29  1  0
  4 30  1  0
  5 31  1  0
  8 32  1  0
 10 33  1  0
 10 34  1  0
 11 35  1  0
 12 36  1  0
 12 37  1  0
 14 38  1  0
 15 39  1  0
 16 40  1  0
 17 41  1  0
 18 42  1  0
 20 43  1  0
 21 44  1  0
 22 45  1  0
 23 46  1  0
 25 47  1  0
 26 48  1  0
M  END
>  <UniqueID>  (42) 
41

>  <SMILES>  (42) 
COc1ccc(-c2cc(CNCc3ccccc3)c3ccccn23)cc1

>  <Energy>  (42) 
83.39675711311533

>  <Genealogy>  (42) 
COc1ccc(-c2cc(CNCc3ccccc3)c3ccccn23)cc1 (3D coordinates assigned)
COc1ccc(-c2cc(CNCc3ccccc3)c3ccccn23)cc1 (optimized conformer: 83.39675711311533 kcal/mol)

>  <smiles>  (42) 
COc1ccc(-c2cc(CNCc3ccccc3)c3ccccn23)cc1

>  <score_type>  (42) 
oracle

>  <origin>  (42) 
adg

>  <m_score__min__energy>  (42) 
-8.4499999999999993

>  <m_primary>  (42) 
energy

$$$$
42:0
     RDKit          3D

 39 40  0  0  0  0  0  0  0  0999 V2000
   63.7420   33.1310   46.8010 C   0  0  0  0  0  0  0  0  0  0  0  0
   63.0590   33.4290   48.1460 C   0  0  0  0  0  0  0  0  0  0  0  0
   61.5780   33.2690   48.1320 N   0  0  0  0  0  0  0  0  0  0  0  0
   60.8780   34.2160   49.0410 C   0  0  0  0  0  0  0  0  0  0  0  0
   59.9790   33.5130   50.0640 C   0  0  0  0  0  0  0  0  0  0  0  0
   61.0280   33.3490   46.7420 C   0  0  0  0  0  0  0  0  0  0  0  0
   59.4690   33.3750   46.7050 C   0  0  1  0  0  0  0  0  0  0  0  0
   58.9850   34.4370   45.6850 C   0  0  0  0  0  0  0  0  0  0  0  0
   57.5300   34.2250   45.2800 C   0  0  0  0  0  0  0  0  0  0  0  0
   57.3930   32.8780   44.5730 C   0  0  0  0  0  0  0  0  0  0  0  0
   57.9010   31.7630   45.4390 C   0  0  0  0  0  0  0  0  0  0  0  0
   57.3950   30.5130   45.2470 N   0  0  0  0  0  0  0  0  0  0  0  0
   57.7640   29.4580   46.0160 C   0  0  0  0  0  0  0  0  0  0  0  0
   58.6660   29.6400   47.0600 C   0  0  0  0  0  0  0  0  0  0  0  0
   59.2100   30.9040   47.2810 C   0  0  0  0  0  0  0  0  0  0  0  0
   58.8840   31.9840   46.4360 C   0  0  0  0  0  0  0  0  0  0  0  0
   64.7363   32.6972   46.9829 H   0  0  0  0  0  0  0  0  0  0  0  0
   63.1300   32.4181   46.2290 H   0  0  0  0  0  0  0  0  0  0  0  0
   63.8483   34.0645   46.2290 H   0  0  0  0  0  0  0  0  0  0  0  0
   63.4721   32.7440   48.9010 H   0  0  0  0  0  0  0  0  0  0  0  0
   63.2587   34.4868   48.3724 H   0  0  0  0  0  0  0  0  0  0  0  0
   61.4040   32.3060   48.5080 H   0  0  0  0  0  0  0  0  0  0  0  0
   61.6332   34.8034   49.5837 H   0  0  0  0  0  0  0  0  0  0  0  0
   60.2316   34.8518   48.4181 H   0  0  0  0  0  0  0  0  0  0  0  0
   60.3092   33.7712   51.0810 H   0  0  0  0  0  0  0  0  0  0  0  0
   58.9380   33.8391   49.9226 H   0  0  0  0  0  0  0  0  0  0  0  0
   60.0445   32.4241   49.9226 H   0  0  0  0  0  0  0  0  0  0  0  0
   61.4054   34.2670   46.2678 H   0  0  0  0  0  0  0  0  0  0  0  0
   61.3552   32.4460   46.2058 H   0  0  0  0  0  0  0  0  0  0  0  0
   59.0946   33.6678   47.6970 H   0  0  0  0  0  0  0  0  0  0  0  0
   59.0851   35.4345   46.1377 H   0  0  0  0  0  0  0  0  0  0  0  0
   59.6044   34.3440   44.7808 H   0  0  0  0  0  0  0  0  0  0  0  0
   56.8938   34.2352   46.1773 H   0  0  0  0  0  0  0  0  0  0  0  0
   57.2158   35.0310   44.6005 H   0  0  0  0  0  0  0  0  0  0  0  0
   56.3326   32.6993   44.3415 H   0  0  0  0  0  0  0  0  0  0  0  0
   57.9896   32.9044   43.6492 H   0  0  0  0  0  0  0  0  0  0  0  0
   57.3503   28.4589   45.8143 H   0  0  0  0  0  0  0  0  0  0  0  0
   58.9470   28.7942   47.7047 H   0  0  0  0  0  0  0  0  0  0  0  0
   59.9004   31.0603   48.1230 H   0  0  0  0  0  0  0  0  0  0  0  0
  1  2  1  0
  2  3  1  0
  3  4  1  0
  4  5  1  0
  3  6  1  0
  6  7  1  0
  7  8  1  0
  8  9  1  0
  9 10  1  0
 10 11  1  0
 11 12  2  0
 12 13  1  0
 13 14  2  0
 14 15  1  0
 15 16  2  0
 16  7  1  0
 16 11  1  0
  1 17  1  0
  1 18  1  0
  1 19  1  0
  2 20  1  0
  2 21  1  0
  3 22  1  0
  4 23  1  0
  4 24  1  0
  5 25  1  0
  5 26  1  0
  5 27  1  0
  6 28  1  0
  6 29  1  0
  7 30  1  1
  8 31  1  0
  8 32  1  0
  9 33  1  0
  9 34  1  0
 10 35  1  0
 10 36  1  0
 13 37  1  0
 14 38  1  0
 15 39  1  0
M  CHG  1   3   1
M  END
>  <UniqueID>  (43) 
42

>  <SMILES>  (43) 
CC[NH+](CC)C[C@H]1CCCc2ncccc21

>  <Energy>  (43) 
46.26197038334422

>  <Genealogy>  (43) 
CC[NH+](CC)CC1CCCc2ncccc21 (protonated)
CC[NH+](CC)C[C@H]1CCCc2ncccc21 (chirality)
CC[NH+](CC)C[C@H]1CCCc2ncccc21 (3D coordinates assigned)
CC[NH+](CC)C[C@H]1CCCc2ncccc21 (nonaromatic ring conformer: 46.26197038334422 kcal/mol)

>  <smiles>  (43) 
CCN(CC)CC1CCCc2ncccc21

>  <score_type>  (43) 
oracle

>  <origin>  (43) 
adg

>  <m_score__min__energy>  (43) 
-4.5199999999999996

>  <m_primary>  (43) 
energy

$$$$
43:0
     RDKit          3D

 37 39  0  0  0  0  0  0  0  0999 V2000
   55.4380   23.3950   47.0640 C   0  0  0  0  0  0  0  0  0  0  0  0
   55.5630   24.7750   46.7340 O   0  0  0  0  0  0  0  0  0  0  0  0
   56.7830   25.4650   46.6610 C   0  0  0  0  0  0  0  0  0  0  0  0
   57.6960   25.3110   47.7090 C   0  0  0  0  0  0  0  0  0  0  0  0
   58.9250   25.9680   47.6780 C   0  0  0  0  0  0  0  0  0  0  0  0
   59.2550   26.7940   46.6010 C   0  0  0  0  0  0  0  0  0  0  0  0
   58.3470   26.9770   45.5410 C   0  0  0  0  0  0  0  0  0  0  0  0
   58.6970   27.8380   44.3390 C   0  0  2  0  0  0  0  0  0  0  0  0
   59.6170   29.0140   44.7350 C   0  0  0  0  0  0  0  0  0  0  0  0
   58.8550   30.2060   45.2850 C   0  0  0  0  0  0  0  0  0  0  0  0
   59.5030   31.1550   46.2270 C   0  0  0  0  0  0  0  0  0  0  0  0
   60.6670   30.7970   46.9360 C   0  0  0  0  0  0  0  0  0  0  0  0
   61.2650   31.7020   47.8190 C   0  0  0  0  0  0  0  0  0  0  0  0
   60.7120   32.9710   48.0060 C   0  0  0  0  0  0  0  0  0  0  0  0
   61.5310   34.2030   49.2140 Br  0  0  0  0  0  0  0  0  0  0  0  0
   59.5610   33.3400   47.3050 C   0  0  0  0  0  0  0  0  0  0  0  0
   58.9600   32.4390   46.4200 C   0  0  0  0  0  0  0  0  0  0  0  0
   57.6540   30.4690   44.8540 N   0  0  0  0  0  0  0  0  0  0  0  0
   56.9590   29.6090   43.9500 C   0  0  0  0  0  0  0  0  0  0  0  0
   55.5100   30.0640   43.3490 S   0  0  0  0  0  0  0  0  0  0  0  0
   57.4880   28.3120   43.6630 N   0  0  0  0  0  0  0  0  0  0  0  0
   57.1160   26.2970   45.5740 C   0  0  0  0  0  0  0  0  0  0  0  0
   55.4275   23.2791   48.1578 H   0  0  0  0  0  0  0  0  0  0  0  0
   54.5005   23.0011   46.6445 H   0  0  0  0  0  0  0  0  0  0  0  0
   56.2895   22.8391   46.6445 H   0  0  0  0  0  0  0  0  0  0  0  0
   57.4425   24.6668   48.5639 H   0  0  0  0  0  0  0  0  0  0  0  0
   59.6379   25.8354   48.5051 H   0  0  0  0  0  0  0  0  0  0  0  0
   60.2294   27.3041   46.5811 H   0  0  0  0  0  0  0  0  0  0  0  0
   59.2552   27.2098   43.6292 H   0  0  0  0  0  0  0  0  0  0  0  0
   60.3218   28.6639   45.5036 H   0  0  0  0  0  0  0  0  0  0  0  0
   60.1346   29.3474   43.8234 H   0  0  0  0  0  0  0  0  0  0  0  0
   61.1082   29.7994   46.7941 H   0  0  0  0  0  0  0  0  0  0  0  0
   62.1736   31.4135   48.3679 H   0  0  0  0  0  0  0  0  0  0  0  0
   59.1270   34.3404   47.4494 H   0  0  0  0  0  0  0  0  0  0  0  0
   58.0550   32.7365   45.8700 H   0  0  0  0  0  0  0  0  0  0  0  0
   56.9470   27.6490   43.0620 H   0  0  0  0  0  0  0  0  0  0  0  0
   56.4060   26.4162   44.7423 H   0  0  0  0  0  0  0  0  0  0  0  0
  1  2  1  0
  2  3  1  0
  3  4  2  0
  4  5  1  0
  5  6  2  0
  6  7  1  0
  7  8  1  0
  8  9  1  0
  9 10  1  0
 10 11  1  0
 11 12  2  0
 12 13  1  0
 13 14  2  0
 14 15  1  0
 14 16  1  0
 16 17  2  0
 10 18  2  0
 18 19  1  0
 19 20  2  0
 19 21  1  0
  7 22  2  0
 22  3  1  0
 21  8  1  0
 17 11  1  0
  1 23  1  0
  1 24  1  0
  1 25  1  0
  4 26  1  0
  5 27  1  0
  6 28  1  0
  8 29  1  6
  9 30  1  0
  9 31  1  0
 12 32  1  0
 13 33  1  0
 16 34  1  0
 17 35  1  0
 21 36  1  0
 22 37  1  0
M  END
>  <UniqueID>  (44) 
43

>  <SMILES>  (44) 
COc1cccc([C@@H]2CC(c3ccc(Br)cc3)=NC(=S)N2)c1

>  <Energy>  (44) 
41.1031281036638

>  <Genealogy>  (44) 
COc1cccc([C@@H]2CC(c3ccc(Br)cc3)=NC(=S)N2)c1 (chirality)
COc1cccc([C@@H]2CC(c3ccc(Br)cc3)=NC(=S)N2)c1 (3D coordinates assigned)
COc1cccc([C@@H]2CC(c3ccc(Br)cc3)=NC(=S)N2)c1 (nonaromatic ring conformer: 41.1031281036638 kcal/mol)

>  <smiles>  (44) 
COc1cccc(C2CC(c3ccc(Br)cc3)=NC(=S)N2)c1

>  <score_type>  (44) 
oracle

>  <origin>  (44) 
adg

>  <m_score__min__energy>  (44) 
-8.0099999999999998

>  <m_primary>  (44) 
energy

$$$$
