0:0
     RDKit          3D

 63 65  0  0  0  0  0  0  0  0999 V2000
   57.2120   30.8580   43.4120 C   0  0  0  0  0  0  0  0  0  0  0  0
   55.8870   30.4100   44.0350 C   0  0  0  0  0  0  0  0  0  0  0  0
   56.0370   29.2110   44.8750 N   0  0  0  0  0  0  0  0  0  0  0  0
   57.3450   29.1480   45.5390 C   0  0  0  0  0  0  0  0  0  0  0  0
   58.1700   27.9650   45.0150 C   0  0  0  0  0  0  0  0  0  0  0  0
   59.6060   27.8750   45.5670 C   0  0  0  0  0  0  0  0  0  0  0  0
   60.2720   29.2460   45.8010 C   0  0  0  0  0  0  0  0  0  0  0  0
   60.5280   29.4920   47.2380 N   0  0  0  0  0  0  0  0  0  0  0  0
   61.4510   30.6320   47.3940 C   0  0  0  0  0  0  0  0  0  0  0  0
   59.2700   29.7430   47.9810 C   0  0  0  0  0  0  0  0  0  0  0  0
   59.5660   30.1600   49.4390 C   0  0  0  0  0  0  0  0  0  0  0  0
   58.3730   30.8360   50.1370 C   0  0  0  0  0  0  0  0  0  0  0  0
   58.2930   32.2650   49.8180 N   0  0  0  0  0  0  0  0  0  0  0  0
   59.2800   32.9220   49.0070 C   0  0  0  0  0  0  0  0  0  0  0  0
   60.5460   33.2360   49.5360 C   0  0  0  0  0  0  0  0  0  0  0  0
   60.8040   33.1090   50.9170 C   0  0  0  0  0  0  0  0  0  0  0  0
   62.0480   33.4540   51.4450 C   0  0  0  0  0  0  0  0  0  0  0  0
   63.0450   33.9500   50.6130 C   0  0  0  0  0  0  0  0  0  0  0  0
   62.8090   34.0940   49.2450 C   0  0  0  0  0  0  0  0  0  0  0  0
   61.5650   33.7150   48.6710 C   0  0  0  0  0  0  0  0  0  0  0  0
   61.3270   33.8190   47.3130 N   0  0  0  0  0  0  0  0  0  0  0  0
   62.4590   34.0130   46.3810 C   0  0  0  0  0  0  0  0  0  0  0  0
   60.0360   33.7150   46.8280 C   0  0  0  0  0  0  0  0  0  0  0  0
   59.7080   34.0660   45.4940 C   0  0  0  0  0  0  0  0  0  0  0  0
   58.4170   33.8840   45.0010 C   0  0  0  0  0  0  0  0  0  0  0  0
   57.4160   33.3700   45.8190 C   0  0  0  0  0  0  0  0  0  0  0  0
   57.6960   33.0590   47.1450 C   0  0  0  0  0  0  0  0  0  0  0  0
   58.9950   33.2400   47.6690 C   0  0  0  0  0  0  0  0  0  0  0  0
   57.9290   31.1004   44.2102 H   0  0  0  0  0  0  0  0  0  0  0  0
   57.6171   30.0469   42.7891 H   0  0  0  0  0  0  0  0  0  0  0  0
   57.0418   31.7485   42.7891 H   0  0  0  0  0  0  0  0  0  0  0  0
   55.4941   31.2288   44.6556 H   0  0  0  0  0  0  0  0  0  0  0  0
   55.1991   30.1594   43.2140 H   0  0  0  0  0  0  0  0  0  0  0  0
   55.9090   28.3620   44.2790 H   0  0  0  0  0  0  0  0  0  0  0  0
   57.8923   30.0823   45.3454 H   0  0  0  0  0  0  0  0  0  0  0  0
   57.1843   29.0129   46.6188 H   0  0  0  0  0  0  0  0  0  0  0  0
   57.6432   27.0371   45.2823 H   0  0  0  0  0  0  0  0  0  0  0  0
   58.2675   28.1159   43.9298 H   0  0  0  0  0  0  0  0  0  0  0  0
   59.5755   27.3365   46.5257 H   0  0  0  0  0  0  0  0  0  0  0  0
   60.2077   27.3528   44.8086 H   0  0  0  0  0  0  0  0  0  0  0  0
   61.2284   29.2750   45.2584 H   0  0  0  0  0  0  0  0  0  0  0  0
   59.5880   30.0263   45.4360 H   0  0  0  0  0  0  0  0  0  0  0  0
   61.6114   30.8301   48.4641 H   0  0  0  0  0  0  0  0  0  0  0  0
   62.4130   30.3928   46.9171 H   0  0  0  0  0  0  0  0  0  0  0  0
   61.0169   31.5232   46.9171 H   0  0  0  0  0  0  0  0  0  0  0  0
   58.7114   30.5487   47.4821 H   0  0  0  0  0  0  0  0  0  0  0  0
   58.6776   28.8162   47.9934 H   0  0  0  0  0  0  0  0  0  0  0  0
   59.8397   29.2605   50.0099 H   0  0  0  0  0  0  0  0  0  0  0  0
   60.3821   30.8968   49.4060 H   0  0  0  0  0  0  0  0  0  0  0  0
   57.4444   30.3456   49.8094 H   0  0  0  0  0  0  0  0  0  0  0  0
   58.5113   30.7357   51.2237 H   0  0  0  0  0  0  0  0  0  0  0  0
   57.4580   32.8070   50.1300 H   0  0  0  0  0  0  0  0  0  0  0  0
   60.0150   32.7335   51.5852 H   0  0  0  0  0  0  0  0  0  0  0  0
   62.2404   33.3334   52.5213 H   0  0  0  0  0  0  0  0  0  0  0  0
   64.0221   34.2296   51.0337 H   0  0  0  0  0  0  0  0  0  0  0  0
   63.5986   34.5076   48.6004 H   0  0  0  0  0  0  0  0  0  0  0  0
   63.3837   34.1715   46.9553 H   0  0  0  0  0  0  0  0  0  0  0  0
   62.5693   33.1207   45.7473 H   0  0  0  0  0  0  0  0  0  0  0  0
   62.2659   34.8911   45.7473 H   0  0  0  0  0  0  0  0  0  0  0  0
   60.4839   34.4882   44.8384 H   0  0  0  0  0  0  0  0  0  0  0  0
   58.1881   34.1486   43.9581 H   0  0  0  0  0  0  0  0  0  0  0  0
   56.4045   33.2099   45.4174 H   0  0  0  0  0  0  0  0  0  0  0  0
   56.8975   32.6679   47.7926 H   0  0  0  0  0  0  0  0  0  0  0  0
  1  2  1  0
  2  3  1  0
  3  4  1  0
  4  5  1  0
  5  6  1  0
  6  7  1  0
  7  8  1  0
  8  9  1  0
  8 10  1  0
 10 11  1  0
 11 12  1  0
 12 13  1  0
 13 14  1  0
 14 15  2  0
 15 16  1  0
 16 17  2  0
 17 18  1  0
 18 19  2  0
 19 20  1  0
 20 21  2  0
 21 22  1  0
 21 23  1  0
 23 24  2  0
 24 25  1  0
 25 26  2  0
 26 27  1  0
 27 28  2  0
 28 14  1  0
 20 15  1  0
 28 23  1  0
  1 29  1  0
  1 30  1  0
  1 31  1  0
  2 32  1  0
  2 33  1  0
  3 34  1  0
  4 35  1  0
  4 36  1  0
  5 37  1  0
  5 38  1  0
  6 39  1  0
  6 40  1  0
  7 41  1  0
  7 42  1  0
  9 43  1  0
  9 44  1  0
  9 45  1  0
 10 46  1  0
 10 47  1  0
 11 48  1  0
 11 49  1  0
 12 50  1  0
 12 51  1  0
 13 52  1  0
 16 53  1  0
 17 54  1  0
 18 55  1  0
 19 56  1  0
 22 57  1  0
 22 58  1  0
 22 59  1  0
 24 60  1  0
 25 61  1  0
 26 62  1  0
 27 63  1  0
M  CHG  1  21   1
M  END
>  <UniqueID>  (1) 
1

>  <SMILES>  (1) 
CCNCCCCN(C)CCCNc1c2ccccc2[n+](C)c2ccccc12

>  <Energy>  (1) 
83.05924601486247

>  <Genealogy>  (1) 
CCNCCCCN(C)CCCNc1c2ccccc2[n+](C)c2ccccc12 (3D coordinates assigned)
CCNCCCCN(C)CCCNc1c2ccccc2[n+](C)c2ccccc12 (optimized conformer: 83.05924601486247 kcal/mol)

>  <smiles>  (1) 
CCNCCCCN(C)CCCNc1c2ccccc2[n+](C)c2ccccc12

>  <score_type>  (1) 
oracle

>  <origin>  (1) 
adg

>  <m_score__min__energy>  (1) 
-6.4000000000000004

>  <m_primary>  (1) 
energy

$$$$
1:0
     RDKit          3D

 45 47  0  0  0  0  0  0  0  0999 V2000
   57.3100   32.6220   40.5070 C   0  0  0  0  0  0  0  0  0  0  0  0
   57.6880   32.2940   41.9540 C   0  0  0  0  0  0  0  0  0  0  0  0
   57.3970   30.8970   42.3110 N   0  0  0  0  0  0  0  0  0  0  0  0
   56.3700   30.7920   43.3570 C   0  0  0  0  0  0  0  0  0  0  0  0
   56.1950   29.3300   43.7930 C   0  0  0  0  0  0  0  0  0  0  0  0
   57.2750   28.4490   43.3060 N   0  0  0  0  0  0  0  0  0  0  0  0
   58.0990   27.9360   44.3960 C   0  0  0  0  0  0  0  0  0  0  0  0
   58.8310   28.8100   45.2530 C   0  0  0  0  0  0  0  0  0  0  0  0
   58.7890   30.2240   45.1140 C   0  0  0  0  0  0  0  0  0  0  0  0
   59.4610   31.0600   46.0010 C   0  0  0  0  0  0  0  0  0  0  0  0
   60.1790   30.5240   47.0560 C   0  0  0  0  0  0  0  0  0  0  0  0
   60.2660   29.1440   47.2070 C   0  0  0  0  0  0  0  0  0  0  0  0
   59.6390   28.2600   46.2910 C   0  0  0  0  0  0  0  0  0  0  0  0
   59.7950   26.8950   46.4050 N   0  0  0  0  0  0  0  0  0  0  0  0
   60.8790   26.3440   47.2520 C   0  0  0  0  0  0  0  0  0  0  0  0
   58.9710   26.0410   45.7040 C   0  0  0  0  0  0  0  0  0  0  0  0
   58.9100   24.6600   46.0220 C   0  0  0  0  0  0  0  0  0  0  0  0
   58.1410   23.7770   45.2690 C   0  0  0  0  0  0  0  0  0  0  0  0
   57.4070   24.2430   44.1870 C   0  0  0  0  0  0  0  0  0  0  0  0
   56.6310   23.3220   43.3960 C   0  0  0  0  0  0  0  0  0  0  0  0
   56.0070   22.5830   42.7610 N   0  0  0  0  0  0  0  0  0  0  0  0
   57.4050   25.6050   43.8810 C   0  0  0  0  0  0  0  0  0  0  0  0
   58.1520   26.5340   44.6510 C   0  0  0  0  0  0  0  0  0  0  0  0
   56.4792   33.3429   40.4995 H   0  0  0  0  0  0  0  0  0  0  0  0
   58.1783   33.0577   39.9910 H   0  0  0  0  0  0  0  0  0  0  0  0
   57.0010   31.7010   39.9910 H   0  0  0  0  0  0  0  0  0  0  0  0
   58.7649   32.4747   42.0866 H   0  0  0  0  0  0  0  0  0  0  0  0
   57.0851   32.9386   42.6105 H   0  0  0  0  0  0  0  0  0  0  0  0
   58.2740   30.4310   42.6420 H   0  0  0  0  0  0  0  0  0  0  0  0
   56.6745   31.3949   44.2253 H   0  0  0  0  0  0  0  0  0  0  0  0
   55.4144   31.1608   42.9561 H   0  0  0  0  0  0  0  0  0  0  0  0
   56.1802   29.2915   44.8922 H   0  0  0  0  0  0  0  0  0  0  0  0
   55.2528   28.9672   43.3564 H   0  0  0  0  0  0  0  0  0  0  0  0
   57.8730   28.9800   42.6350 H   0  0  0  0  0  0  0  0  0  0  0  0
   56.8870   27.7100   42.6880 H   0  0  0  0  0  0  0  0  0  0  0  0
   58.2132   30.6669   44.2880 H   0  0  0  0  0  0  0  0  0  0  0  0
   59.4213   32.1506   45.8631 H   0  0  0  0  0  0  0  0  0  0  0  0
   60.6805   31.1890   47.7746 H   0  0  0  0  0  0  0  0  0  0  0  0
   60.8325   28.7294   48.0539 H   0  0  0  0  0  0  0  0  0  0  0  0
   60.6188   26.4763   48.3126 H   0  0  0  0  0  0  0  0  0  0  0  0
   61.0045   25.2727   47.0361 H   0  0  0  0  0  0  0  0  0  0  0  0
   61.8184   26.8740   47.0361 H   0  0  0  0  0  0  0  0  0  0  0  0
   59.4819   24.2790   46.8810 H   0  0  0  0  0  0  0  0  0  0  0  0
   58.1150   22.7091   45.5317 H   0  0  0  0  0  0  0  0  0  0  0  0
   56.8130   25.9651   43.0266 H   0  0  0  0  0  0  0  0  0  0  0  0
  1  2  1  0
  2  3  1  0
  3  4  1  0
  4  5  1  0
  5  6  1  0
  6  7  1  0
  7  8  2  0
  8  9  1  0
  9 10  2  0
 10 11  1  0
 11 12  2  0
 12 13  1  0
 13 14  2  0
 14 15  1  0
 14 16  1  0
 16 17  2  0
 17 18  1  0
 18 19  2  0
 19 20  1  0
 20 21  3  0
 19 22  1  0
 22 23  2  0
 23  7  1  0
 13  8  1  0
 23 16  1  0
  1 24  1  0
  1 25  1  0
  1 26  1  0
  2 27  1  0
  2 28  1  0
  3 29  1  0
  4 30  1  0
  4 31  1  0
  5 32  1  0
  5 33  1  0
  6 34  1  0
  6 35  1  0
  9 36  1  0
 10 37  1  0
 11 38  1  0
 12 39  1  0
 15 40  1  0
 15 41  1  0
 15 42  1  0
 17 43  1  0
 18 44  1  0
 22 45  1  0
M  CHG  2   6   1  14   1
M  END
>  <UniqueID>  (2) 
2

>  <SMILES>  (2) 
CCNCC[NH2+]c1c2ccccc2[n+](C)c2ccc(C#N)cc12

>  <Energy>  (2) 
72.47514884626685

>  <Genealogy>  (2) 
CCNCC[NH2+]c1c2ccccc2[n+](C)c2ccc(C#N)cc12 (protonated)
CCNCC[NH2+]c1c2ccccc2[n+](C)c2ccc(C#N)cc12 (3D coordinates assigned)
CCNCC[NH2+]c1c2ccccc2[n+](C)c2ccc(C#N)cc12 (optimized conformer: 72.47514884626685 kcal/mol)

>  <smiles>  (2) 
CCNCCNc1c2ccccc2[n+](C)c2ccc(C#N)cc12

>  <score_type>  (2) 
oracle

>  <origin>  (2) 
adg

>  <m_score__min__energy>  (2) 
-4.3200000000000003

>  <m_primary>  (2) 
energy

$$$$
2:0
     RDKit          3D

 55 57  0  0  0  0  0  0  0  0999 V2000
   61.4260   30.5020   46.7430 C   0  0  0  0  0  0  0  0  0  0  0  0
   60.5390   29.6750   45.8060 C   0  0  0  0  0  0  0  0  0  0  0  0
   59.7370   28.6510   46.5380 N   0  0  0  0  0  0  0  0  0  0  0  0
   58.5480   28.2400   45.7400 C   0  0  0  0  0  0  0  0  0  0  0  0
   58.8570   27.8680   44.2800 C   0  0  0  0  0  0  0  0  0  0  0  0
   60.6000   27.5080   46.9490 C   0  0  0  0  0  0  0  0  0  0  0  0
   60.1680   26.8600   48.2800 C   0  0  0  0  0  0  0  0  0  0  0  0
   59.6190   27.8640   49.1200 O   0  0  0  0  0  0  0  0  0  0  0  0
   60.5880   28.4230   49.9940 C   0  0  0  0  0  0  0  0  0  0  0  0
   60.4520   29.9530   50.1130 C   0  0  0  0  0  0  0  0  0  0  0  0
   59.3140   30.4460   49.3360 N   0  0  0  0  0  0  0  0  0  0  0  0
   59.2620   31.7970   48.8490 C   0  0  0  0  0  0  0  0  0  0  0  0
   59.7930   32.8840   49.5800 C   0  0  0  0  0  0  0  0  0  0  0  0
   59.7510   34.1910   49.0480 C   0  0  0  0  0  0  0  0  0  0  0  0
   59.1890   34.4310   47.7790 C   0  0  0  0  0  0  0  0  0  0  0  0
   58.6730   33.3400   47.0750 C   0  0  0  0  0  0  0  0  0  0  0  0
   58.0910   33.2410   45.8220 C   0  0  0  0  0  0  0  0  0  0  0  0
   57.8550   34.3490   44.8380 C   0  0  0  0  0  0  0  0  0  0  0  0
   57.8050   31.8780   45.6720 C   0  0  0  0  0  0  0  0  0  0  0  0
   57.1690   31.2090   44.5200 C   0  0  0  0  0  0  0  0  0  0  0  0
   57.4100   31.5310   43.1890 C   0  0  0  0  0  0  0  0  0  0  0  0
   56.7150   30.7200   42.2830 C   0  0  0  0  0  0  0  0  0  0  0  0
   55.9270   29.7510   42.8920 C   0  0  0  0  0  0  0  0  0  0  0  0
   56.0990   29.9090   44.5590 S   0  0  0  0  0  0  0  0  0  0  0  0
   58.1950   31.2150   46.7470 O   0  0  0  0  0  0  0  0  0  0  0  0
   58.7090   32.0720   47.5950 C   0  0  0  0  0  0  0  0  0  0  0  0
   61.1744   30.2675   47.7878 H   0  0  0  0  0  0  0  0  0  0  0  0
   62.4826   30.2592   46.5568 H   0  0  0  0  0  0  0  0  0  0  0  0
   61.2576   31.5730   46.5568 H   0  0  0  0  0  0  0  0  0  0  0  0
   59.8507   30.3536   45.2810 H   0  0  0  0  0  0  0  0  0  0  0  0
   61.1975   29.1448   45.1022 H   0  0  0  0  0  0  0  0  0  0  0  0
   59.3600   29.0940   47.4110 H   0  0  0  0  0  0  0  0  0  0  0  0
   58.0921   27.3660   46.2281 H   0  0  0  0  0  0  0  0  0  0  0  0
   57.8780   29.1117   45.7055 H   0  0  0  0  0  0  0  0  0  0  0  0
   59.5597   27.0220   44.2580 H   0  0  0  0  0  0  0  0  0  0  0  0
   57.9253   27.5841   43.7689 H   0  0  0  0  0  0  0  0  0  0  0  0
   59.3070   28.7318   43.7689 H   0  0  0  0  0  0  0  0  0  0  0  0
   60.5627   26.7421   46.1604 H   0  0  0  0  0  0  0  0  0  0  0  0
   61.6152   27.9051   47.0964 H   0  0  0  0  0  0  0  0  0  0  0  0
   59.4112   26.0857   48.0859 H   0  0  0  0  0  0  0  0  0  0  0  0
   61.0371   26.3967   48.7698 H   0  0  0  0  0  0  0  0  0  0  0  0
   60.4633   27.9778   50.9921 H   0  0  0  0  0  0  0  0  0  0  0  0
   61.5829   28.2041   49.5789 H   0  0  0  0  0  0  0  0  0  0  0  0
   60.3065   30.2190   51.1704 H   0  0  0  0  0  0  0  0  0  0  0  0
   61.3689   30.4155   49.7189 H   0  0  0  0  0  0  0  0  0  0  0  0
   58.6250   29.7580   48.9530 H   0  0  0  0  0  0  0  0  0  0  0  0
   60.2416   32.7105   50.5693 H   0  0  0  0  0  0  0  0  0  0  0  0
   60.1610   35.0297   49.6299 H   0  0  0  0  0  0  0  0  0  0  0  0
   59.1573   35.4457   47.3554 H   0  0  0  0  0  0  0  0  0  0  0  0
   57.6557   35.2849   45.3805 H   0  0  0  0  0  0  0  0  0  0  0  0
   58.7466   34.4743   44.2061 H   0  0  0  0  0  0  0  0  0  0  0  0
   56.9897   34.1001   44.2061 H   0  0  0  0  0  0  0  0  0  0  0  0
   58.0818   32.3444   42.8776 H   0  0  0  0  0  0  0  0  0  0  0  0
   56.7863   30.8390   41.1918 H   0  0  0  0  0  0  0  0  0  0  0  0
   55.3000   29.0098   42.3748 H   0  0  0  0  0  0  0  0  0  0  0  0
  1  2  1  0
  2  3  1  0
  3  4  1  0
  4  5  1  0
  3  6  1  0
  6  7  1  0
  7  8  1  0
  8  9  1  0
  9 10  1  0
 10 11  1  0
 11 12  1  0
 12 13  2  0
 13 14  1  0
 14 15  2  0
 15 16  1  0
 16 17  1  0
 17 18  1  0
 17 19  2  0
 19 20  1  0
 20 21  2  0
 21 22  1  0
 22 23  2  0
 23 24  1  0
 19 25  1  0
 25 26  1  0
 26 12  1  0
 26 16  2  0
 24 20  1  0
  1 27  1  0
  1 28  1  0
  1 29  1  0
  2 30  1  0
  2 31  1  0
  3 32  1  0
  4 33  1  0
  4 34  1  0
  5 35  1  0
  5 36  1  0
  5 37  1  0
  6 38  1  0
  6 39  1  0
  7 40  1  0
  7 41  1  0
  9 42  1  0
  9 43  1  0
 10 44  1  0
 10 45  1  0
 11 46  1  0
 13 47  1  0
 14 48  1  0
 15 49  1  0
 18 50  1  0
 18 51  1  0
 18 52  1  0
 21 53  1  0
 22 54  1  0
 23 55  1  0
M  CHG  1   3   1
M  END
>  <UniqueID>  (3) 
3

>  <SMILES>  (3) 
CC[NH+](CC)CCOCCNc1cccc2c(C)c(-c3cccs3)oc12

>  <Energy>  (3) 
117.4535551438113

>  <Genealogy>  (3) 
CC[NH+](CC)CCOCCNc1cccc2c(C)c(-c3cccs3)oc12 (protonated)
CC[NH+](CC)CCOCCNc1cccc2c(C)c(-c3cccs3)oc12 (3D coordinates assigned)
CC[NH+](CC)CCOCCNc1cccc2c(C)c(-c3cccs3)oc12 (optimized conformer: 117.4535551438113 kcal/mol)

>  <smiles>  (3) 
CCN(CC)CCOCCNc1cccc2c(C)c(-c3cccs3)oc12

>  <score_type>  (3) 
oracle

>  <origin>  (3) 
adg

>  <m_score__min__energy>  (3) 
-6.4199999999999999

>  <m_primary>  (3) 
energy

$$$$
3:0
     RDKit          3D

 41 43  0  0  0  0  0  0  0  0999 V2000
   58.7400   32.1950   51.2530 C   0  0  0  0  0  0  0  0  0  0  0  0
   58.8880   32.7400   49.8690 C   0  0  0  0  0  0  0  0  0  0  0  0
   59.7100   33.8730   49.6350 C   0  0  0  0  0  0  0  0  0  0  0  0
   59.8300   34.3980   48.3350 C   0  0  0  0  0  0  0  0  0  0  0  0
   59.1190   33.7590   47.3200 C   0  0  0  0  0  0  0  0  0  0  0  0
   58.3370   32.6790   47.5890 C   0  0  0  0  0  0  0  0  0  0  0  0
   58.2010   32.1640   48.8350 N   0  0  0  0  0  0  0  0  0  0  0  0
   57.7160   32.2640   46.4770 N   0  0  0  0  0  0  0  0  0  0  0  0
   58.1460   33.1270   45.5210 C   0  0  0  0  0  0  0  0  0  0  0  0
   57.6100   33.1070   44.1140 C   0  0  0  0  0  0  0  0  0  0  0  0
   57.7690   31.7220   43.4750 C   0  0  0  0  0  0  0  0  0  0  0  0
   56.5320   30.8380   43.6860 C   0  0  0  0  0  0  0  0  0  0  0  0
   56.6050   30.1670   44.9440 O   0  0  0  0  0  0  0  0  0  0  0  0
   57.5540   29.1880   45.2860 C   0  0  0  0  0  0  0  0  0  0  0  0
   58.2410   29.1880   46.5180 C   0  0  0  0  0  0  0  0  0  0  0  0
   59.1740   28.1840   46.8020 C   0  0  0  0  0  0  0  0  0  0  0  0
   59.4290   27.1780   45.8690 C   0  0  0  0  0  0  0  0  0  0  0  0
   58.7490   27.1710   44.6470 C   0  0  0  0  0  0  0  0  0  0  0  0
   57.8170   28.1710   44.3580 C   0  0  0  0  0  0  0  0  0  0  0  0
   59.0200   34.0540   46.0080 N   0  0  0  0  0  0  0  0  0  0  0  0
   59.6360   35.1680   45.2860 C   0  0  0  0  0  0  0  0  0  0  0  0
   58.9553   32.9880   51.9843 H   0  0  0  0  0  0  0  0  0  0  0  0
   57.7111   31.8334   51.3966 H   0  0  0  0  0  0  0  0  0  0  0  0
   59.4446   31.3626   51.3966 H   0  0  0  0  0  0  0  0  0  0  0  0
   60.2531   34.3406   50.4695 H   0  0  0  0  0  0  0  0  0  0  0  0
   60.4589   35.2764   48.1280 H   0  0  0  0  0  0  0  0  0  0  0  0
   57.0290   31.4820   46.3800 H   0  0  0  0  0  0  0  0  0  0  0  0
   56.5425   33.3718   44.1337 H   0  0  0  0  0  0  0  0  0  0  0  0
   58.1807   33.8323   43.5155 H   0  0  0  0  0  0  0  0  0  0  0  0
   57.9340   31.8476   42.3947 H   0  0  0  0  0  0  0  0  0  0  0  0
   58.6240   31.2251   43.9567 H   0  0  0  0  0  0  0  0  0  0  0  0
   55.6297   31.4667   43.6630 H   0  0  0  0  0  0  0  0  0  0  0  0
   56.4912   30.0863   42.8840 H   0  0  0  0  0  0  0  0  0  0  0  0
   58.0431   29.9785   47.2569 H   0  0  0  0  0  0  0  0  0  0  0  0
   59.7080   28.1879   47.7637 H   0  0  0  0  0  0  0  0  0  0  0  0
   60.1641   26.3914   46.0945 H   0  0  0  0  0  0  0  0  0  0  0  0
   58.9482   26.3770   43.9122 H   0  0  0  0  0  0  0  0  0  0  0  0
   57.2856   28.1601   43.3949 H   0  0  0  0  0  0  0  0  0  0  0  0
   60.0379   35.8949   46.0072 H   0  0  0  0  0  0  0  0  0  0  0  0
   60.4525   34.7886   44.6541 H   0  0  0  0  0  0  0  0  0  0  0  0
   58.8806   35.6579   44.6541 H   0  0  0  0  0  0  0  0  0  0  0  0
  1  2  1  0
  2  3  2  0
  3  4  1  0
  4  5  2  0
  5  6  1  0
  6  7  2  0
  6  8  1  0
  8  9  2  0
  9 10  1  0
 10 11  1  0
 11 12  1  0
 12 13  1  0
 13 14  1  0
 14 15  2  0
 15 16  1  0
 16 17  2  0
 17 18  1  0
 18 19  2  0
  9 20  1  0
 20 21  1  0
  7  2  1  0
 19 14  1  0
 20  5  1  0
  1 22  1  0
  1 23  1  0
  1 24  1  0
  3 25  1  0
  4 26  1  0
  8 27  1  0
 10 28  1  0
 10 29  1  0
 11 30  1  0
 11 31  1  0
 12 32  1  0
 12 33  1  0
 15 34  1  0
 16 35  1  0
 17 36  1  0
 18 37  1  0
 19 38  1  0
 21 39  1  0
 21 40  1  0
 21 41  1  0
M  CHG  1   8   1
M  END
>  <UniqueID>  (4) 
4

>  <SMILES>  (4) 
Cc1ccc2c(n1)[nH+]c(CCCOc1ccccc1)n2C

>  <Energy>  (4) 
77.91837408451141

>  <Genealogy>  (4) 
Cc1ccc2c(n1)[nH+]c(CCCOc1ccccc1)n2C (protonated)
Cc1ccc2c(n1)[nH+]c(CCCOc1ccccc1)n2C (3D coordinates assigned)
Cc1ccc2c(n1)[nH+]c(CCCOc1ccccc1)n2C (optimized conformer: 77.91837408451141 kcal/mol)

>  <smiles>  (4) 
Cc1ccc2c(n1)nc(CCCOc1ccccc1)n2C

>  <score_type>  (4) 
oracle

>  <origin>  (4) 
adg

>  <m_score__min__energy>  (4) 
-5.3600000000000003

>  <m_primary>  (4) 
energy

$$$$
4:0
     RDKit          3D

 38 40  0  0  0  0  0  0  0  0999 V2000
   57.3430   21.5010   42.9850 C   0  0  0  0  0  0  0  0  0  0  0  0
   56.3720   22.3110   43.8390 C   0  0  0  0  0  0  0  0  0  0  0  0
   56.1710   23.6470   43.2620 N   0  0  0  0  0  0  0  0  0  0  0  0
   57.3900   24.4610   43.3530 C   0  0  0  0  0  0  0  0  0  0  0  0
   57.3820   25.2370   44.6410 C   0  0  0  0  0  0  0  0  0  0  0  0
   57.1840   24.5820   45.8640 C   0  0  0  0  0  0  0  0  0  0  0  0
   57.2200   25.3000   47.0620 C   0  0  0  0  0  0  0  0  0  0  0  0
   57.4620   26.6760   47.0480 C   0  0  0  0  0  0  0  0  0  0  0  0
   57.6710   27.3500   45.8320 C   0  0  0  0  0  0  0  0  0  0  0  0
   57.9470   28.8080   45.8220 C   0  0  0  0  0  0  0  0  0  0  0  0
   59.1540   29.2960   46.3420 C   0  0  0  0  0  0  0  0  0  0  0  0
   59.4160   30.6680   46.3220 C   0  0  0  0  0  0  0  0  0  0  0  0
   60.6160   31.1910   46.8260 C   0  0  0  0  0  0  0  0  0  0  0  0
   60.8460   32.5710   46.7870 C   0  0  0  0  0  0  0  0  0  0  0  0
   62.4790   33.2830   47.4730 Br  0  0  0  0  0  0  0  0  0  0  0  0
   59.8820   33.4290   46.2470 C   0  0  0  0  0  0  0  0  0  0  0  0
   58.6820   32.9150   45.7420 C   0  0  0  0  0  0  0  0  0  0  0  0
   57.3820   34.1130   45.0100 Br  0  0  0  0  0  0  0  0  0  0  0  0
   58.4430   31.5330   45.7770 C   0  0  0  0  0  0  0  0  0  0  0  0
   57.3050   31.0390   45.3000 O   0  0  0  0  0  0  0  0  0  0  0  0
   57.0220   29.7390   45.3040 C   0  0  0  0  0  0  0  0  0  0  0  0
   55.9090   29.3560   44.8550 O   0  0  0  0  0  0  0  0  0  0  0  0
   57.6420   26.6180   44.6310 C   0  0  0  0  0  0  0  0  0  0  0  0
   58.0220   20.9345   43.6392 H   0  0  0  0  0  0  0  0  0  0  0  0
   56.7781   20.8026   42.3501 H   0  0  0  0  0  0  0  0  0  0  0  0
   57.9288   22.1819   42.3501 H   0  0  0  0  0  0  0  0  0  0  0  0
   55.4058   21.7871   43.8843 H   0  0  0  0  0  0  0  0  0  0  0  0
   56.7922   22.4194   44.8498 H   0  0  0  0  0  0  0  0  0  0  0  0
   55.9490   23.5250   42.2450 H   0  0  0  0  0  0  0  0  0  0  0  0
   58.2719   23.8041   43.3266 H   0  0  0  0  0  0  0  0  0  0  0  0
   57.4270   25.1604   42.5048 H   0  0  0  0  0  0  0  0  0  0  0  0
   56.9994   23.4977   45.8808 H   0  0  0  0  0  0  0  0  0  0  0  0
   57.0575   24.7809   48.0181 H   0  0  0  0  0  0  0  0  0  0  0  0
   57.4892   27.2357   47.9946 H   0  0  0  0  0  0  0  0  0  0  0  0
   59.8933   28.5999   46.7649 H   0  0  0  0  0  0  0  0  0  0  0  0
   61.3749   30.5177   47.2511 H   0  0  0  0  0  0  0  0  0  0  0  0
   60.0679   34.5128   46.2191 H   0  0  0  0  0  0  0  0  0  0  0  0
   57.8245   27.1313   43.6754 H   0  0  0  0  0  0  0  0  0  0  0  0
  1  2  1  0
  2  3  1  0
  3  4  1  0
  4  5  1  0
  5  6  2  0
  6  7  1  0
  7  8  2  0
  8  9  1  0
  9 10  1  0
 10 11  2  0
 11 12  1  0
 12 13  2  0
 13 14  1  0
 14 15  1  0
 14 16  2  0
 16 17  1  0
 17 18  1  0
 17 19  2  0
 19 20  1  0
 20 21  1  0
 21 22  2  0
  9 23  2  0
 23  5  1  0
 21 10  1  0
 19 12  1  0
  1 24  1  0
  1 25  1  0
  1 26  1  0
  2 27  1  0
  2 28  1  0
  3 29  1  0
  4 30  1  0
  4 31  1  0
  6 32  1  0
  7 33  1  0
  8 34  1  0
 11 35  1  0
 13 36  1  0
 16 37  1  0
 23 38  1  0
M  END
>  <UniqueID>  (5) 
5

>  <SMILES>  (5) 
CCNCc1cccc(-c2cc3cc(Br)cc(Br)c3oc2=O)c1

>  <Energy>  (5) 
47.41110191436214

>  <Genealogy>  (5) 
CCNCc1cccc(-c2cc3cc(Br)cc(Br)c3oc2=O)c1 (3D coordinates assigned)
CCNCc1cccc(-c2cc3cc(Br)cc(Br)c3oc2=O)c1 (optimized conformer: 47.41110191436214 kcal/mol)

>  <smiles>  (5) 
CCNCc1cccc(-c2cc3cc(Br)cc(Br)c3oc2=O)c1

>  <score_type>  (5) 
oracle

>  <origin>  (5) 
adg

>  <m_score__min__energy>  (5) 
-8.7899999999999991

>  <m_primary>  (5) 
energy

$$$$
5:0
     RDKit          3D

 62 63  0  0  0  0  0  0  0  0999 V2000
   57.0410   26.7590   45.5400 C   0  0  0  0  0  0  0  0  0  0  0  0
   57.8670   26.7470   44.2560 C   0  0  0  0  0  0  0  0  0  0  0  0
   59.2390   27.4220   44.4360 C   0  0  0  0  0  0  0  0  0  0  0  0
   59.2420   28.3620   45.5840 N   0  0  0  0  0  0  0  0  0  0  0  0
   59.5960   27.8870   46.8280 C   0  0  0  0  0  0  0  0  0  0  0  0
   59.8790   26.6640   46.9770 O   0  0  0  0  0  0  0  0  0  0  0  0
   59.6410   28.7200   47.9170 N   0  0  0  0  0  0  0  0  0  0  0  0
   60.0090   28.1800   49.2400 C   0  0  0  0  0  0  0  0  0  0  0  0
   59.2720   30.0290   47.7980 C   0  0  0  0  0  0  0  0  0  0  0  0
   59.2650   30.7810   48.8140 O   0  0  0  0  0  0  0  0  0  0  0  0
   58.8950   30.5430   46.5520 C   0  0  0  0  0  0  0  0  0  0  0  0
   58.5320   31.8880   46.3980 C   0  0  0  0  0  0  0  0  0  0  0  0
   58.1680   32.3960   45.1470 C   0  0  0  0  0  0  0  0  0  0  0  0
   57.8350   33.8730   45.0320 C   0  0  0  0  0  0  0  0  0  0  0  0
   59.0870   34.7440   44.8440 C   0  0  0  0  0  0  0  0  0  0  0  0
   59.6470   35.2460   46.1430 C   0  0  0  0  0  0  0  0  0  0  0  0
   59.6690   36.4840   46.3750 O   0  0  0  0  0  0  0  0  0  0  0  0
   60.0810   34.3270   47.1060 O   0  0  0  0  0  0  0  0  0  0  0  0
   60.0620   34.5730   48.5110 C   0  0  0  0  0  0  0  0  0  0  0  0
   60.4390   33.3200   49.3140 C   0  0  0  0  0  0  0  0  0  0  0  0
   61.9500   33.2610   49.6370 C   0  0  0  0  0  0  0  0  0  0  0  0
   62.8010   32.7510   48.5330 N   0  0  0  0  0  0  0  0  0  0  0  0
   62.0590   31.9270   47.5660 C   0  0  0  0  0  0  0  0  0  0  0  0
   63.6120   33.7920   47.8670 C   0  0  0  0  0  0  0  0  0  0  0  0
   63.2920   33.8460   46.3770 C   0  0  0  0  0  0  0  0  0  0  0  0
   58.1470   31.5120   44.0450 C   0  0  0  0  0  0  0  0  0  0  0  0
   57.7110   31.9800   42.6810 C   0  0  0  0  0  0  0  0  0  0  0  0
   58.5000   30.2030   44.2170 N   0  0  0  0  0  0  0  0  0  0  0  0
   58.8840   29.6890   45.4320 C   0  0  0  0  0  0  0  0  0  0  0  0
   57.7147   26.7492   46.4095 H   0  0  0  0  0  0  0  0  0  0  0  0
   56.4196   27.6663   45.5678 H   0  0  0  0  0  0  0  0  0  0  0  0
   56.3935   25.8702   45.5678 H   0  0  0  0  0  0  0  0  0  0  0  0
   58.0244   25.7032   43.9467 H   0  0  0  0  0  0  0  0  0  0  0  0
   57.3115   27.3131   43.4938 H   0  0  0  0  0  0  0  0  0  0  0  0
   59.9984   26.6453   44.6093 H   0  0  0  0  0  0  0  0  0  0  0  0
   59.4617   27.9946   43.5235 H   0  0  0  0  0  0  0  0  0  0  0  0
   59.5768   28.8142   50.0280 H   0  0  0  0  0  0  0  0  0  0  0  0
   59.6201   27.1558   49.3391 H   0  0  0  0  0  0  0  0  0  0  0  0
   61.1045   28.1674   49.3391 H   0  0  0  0  0  0  0  0  0  0  0  0
   58.5335   32.5536   47.2738 H   0  0  0  0  0  0  0  0  0  0  0  0
   57.1704   34.0188   44.1677 H   0  0  0  0  0  0  0  0  0  0  0  0
   57.3505   34.1811   45.9702 H   0  0  0  0  0  0  0  0  0  0  0  0
   59.8582   34.1459   44.3366 H   0  0  0  0  0  0  0  0  0  0  0  0
   58.7937   35.6213   44.2488 H   0  0  0  0  0  0  0  0  0  0  0  0
   60.7802   35.3735   48.7421 H   0  0  0  0  0  0  0  0  0  0  0  0
   59.0398   34.8655   48.7933 H   0  0  0  0  0  0  0  0  0  0  0  0
   59.8754   33.3227   50.2587 H   0  0  0  0  0  0  0  0  0  0  0  0
   60.1920   32.4410   48.7006 H   0  0  0  0  0  0  0  0  0  0  0  0
   62.2868   34.2778   49.8875 H   0  0  0  0  0  0  0  0  0  0  0  0
   62.0622   32.5505   50.4692 H   0  0  0  0  0  0  0  0  0  0  0  0
   61.4180   31.2151   48.1066 H   0  0  0  0  0  0  0  0  0  0  0  0
   61.4347   32.5759   46.9342 H   0  0  0  0  0  0  0  0  0  0  0  0
   62.7696   31.3739   46.9342 H   0  0  0  0  0  0  0  0  0  0  0  0
   63.3900   34.7692   48.3206 H   0  0  0  0  0  0  0  0  0  0  0  0
   64.6772   33.5485   47.9936 H   0  0  0  0  0  0  0  0  0  0  0  0
   62.2159   34.0276   46.2394 H   0  0  0  0  0  0  0  0  0  0  0  0
   63.8641   34.6603   45.9084 H   0  0  0  0  0  0  0  0  0  0  0  0
   63.5652   32.8891   45.9084 H   0  0  0  0  0  0  0  0  0  0  0  0
   56.9648   32.7809   42.7893 H   0  0  0  0  0  0  0  0  0  0  0  0
   58.5821   32.3626   42.1289 H   0  0  0  0  0  0  0  0  0  0  0  0
   57.2678   31.1382   42.1289 H   0  0  0  0  0  0  0  0  0  0  0  0
   58.4580   29.5980   43.3720 H   0  0  0  0  0  0  0  0  0  0  0  0
  1  2  1  0
  2  3  1  0
  3  4  1  0
  4  5  1  0
  5  6  2  0
  5  7  1  0
  7  8  1  0
  7  9  1  0
  9 10  2  0
  9 11  1  0
 11 12  2  0
 12 13  1  0
 13 14  1  0
 14 15  1  0
 15 16  1  0
 16 17  2  0
 16 18  1  0
 18 19  1  0
 19 20  1  0
 20 21  1  0
 21 22  1  0
 22 23  1  0
 22 24  1  0
 24 25  1  0
 13 26  2  0
 26 27  1  0
 26 28  1  0
 28 29  2  0
 29  4  1  0
 29 11  1  0
  1 30  1  0
  1 31  1  0
  1 32  1  0
  2 33  1  0
  2 34  1  0
  3 35  1  0
  3 36  1  0
  8 37  1  0
  8 38  1  0
  8 39  1  0
 12 40  1  0
 14 41  1  0
 14 42  1  0
 15 43  1  0
 15 44  1  0
 19 45  1  0
 19 46  1  0
 20 47  1  0
 20 48  1  0
 21 49  1  0
 21 50  1  0
 23 51  1  0
 23 52  1  0
 23 53  1  0
 24 54  1  0
 24 55  1  0
 25 56  1  0
 25 57  1  0
 25 58  1  0
 27 59  1  0
 27 60  1  0
 27 61  1  0
 28 62  1  0
M  CHG  1  28   1
M  END
>  <UniqueID>  (6) 
6

>  <SMILES>  (6) 
CCCn1c(=O)n(C)c(=O)c2cc(CCC(=O)OCCCN(C)CC)c(C)[nH+]c21

>  <Energy>  (6) 
67.77424947859986

>  <Genealogy>  (6) 
CCCn1c(=O)n(C)c(=O)c2cc(CCC(=O)OCCCN(C)CC)c(C)[nH+]c21 (protonated)
CCCn1c(=O)n(C)c(=O)c2cc(CCC(=O)OCCCN(C)CC)c(C)[nH+]c21 (3D coordinates assigned)
CCCn1c(=O)n(C)c(=O)c2cc(CCC(=O)OCCCN(C)CC)c(C)[nH+]c21 (optimized conformer: 67.77424947859986 kcal/mol)

>  <smiles>  (6) 
CCCn1c(=O)n(C)c(=O)c2cc(CCC(=O)OCCCN(C)CC)c(C)nc21

>  <score_type>  (6) 
oracle

>  <origin>  (6) 
adg

>  <m_score__min__energy>  (6) 
-6.79

>  <m_primary>  (6) 
energy

$$$$
6:0
     RDKit          3D

 33 35  0  0  0  0  0  0  0  0999 V2000
   59.9100   33.8830   49.5940 C   0  0  0  0  0  0  0  0  0  0  0  0
   59.7850   33.9460   48.1420 N   0  0  0  0  0  0  0  0  0  0  0  0
   58.6310   34.0490   47.5030 N   0  0  0  0  0  0  0  0  0  0  0  0
   58.9460   34.0820   46.1930 C   0  0  0  0  0  0  0  0  0  0  0  0
   57.7360   34.2250   44.8820 S   0  0  0  0  0  0  0  0  0  0  0  0
   58.4940   32.9010   43.8870 C   0  0  0  0  0  0  0  0  0  0  0  0
   57.8560   31.5870   44.2330 C   0  0  0  0  0  0  0  0  0  0  0  0
   56.8580   31.0450   43.4070 C   0  0  0  0  0  0  0  0  0  0  0  0
   56.2410   29.8370   43.7490 C   0  0  0  0  0  0  0  0  0  0  0  0
   56.6090   29.1680   44.9200 C   0  0  0  0  0  0  0  0  0  0  0  0
   56.0090   27.9980   45.2500 F   0  0  0  0  0  0  0  0  0  0  0  0
   57.5920   29.7100   45.7540 C   0  0  0  0  0  0  0  0  0  0  0  0
   58.2110   30.9180   45.4160 C   0  0  0  0  0  0  0  0  0  0  0  0
   60.2740   34.0000   45.9850 N   0  0  0  0  0  0  0  0  0  0  0  0
   60.7800   33.9170   47.2320 C   0  0  0  0  0  0  0  0  0  0  0  0
   62.2470   33.8120   47.5820 C   0  0  0  0  0  0  0  0  0  0  0  0
   62.9440   32.5270   47.1630 C   0  0  0  0  0  0  0  0  0  0  0  0
   63.2120   33.8200   46.4080 C   0  0  0  0  0  0  0  0  0  0  0  0
   59.0196   34.3318   50.0585 H   0  0  0  0  0  0  0  0  0  0  0  0
   59.9981   32.8328   49.9092 H   0  0  0  0  0  0  0  0  0  0  0  0
   60.8066   34.4369   49.9092 H   0  0  0  0  0  0  0  0  0  0  0  0
   58.3415   33.1125   42.8183 H   0  0  0  0  0  0  0  0  0  0  0  0
   59.5719   32.8528   44.1012 H   0  0  0  0  0  0  0  0  0  0  0  0
   56.5605   31.5719   42.4884 H   0  0  0  0  0  0  0  0  0  0  0  0
   55.4648   29.4127   43.0952 H   0  0  0  0  0  0  0  0  0  0  0  0
   57.8789   29.1855   46.6774 H   0  0  0  0  0  0  0  0  0  0  0  0
   58.9781   31.3453   46.0786 H   0  0  0  0  0  0  0  0  0  0  0  0
   60.7730   34.0090   45.0670 H   0  0  0  0  0  0  0  0  0  0  0  0
   62.1567   34.3774   48.5212 H   0  0  0  0  0  0  0  0  0  0  0  0
   63.7256   32.0913   47.8027 H   0  0  0  0  0  0  0  0  0  0  0  0
   62.6108   31.5169   46.8825 H   0  0  0  0  0  0  0  0  0  0  0  0
   64.1877   34.3193   46.5015 H   0  0  0  0  0  0  0  0  0  0  0  0
   63.1530   34.1322   45.3549 H   0  0  0  0  0  0  0  0  0  0  0  0
  1  2  1  0
  2  3  1  0
  3  4  2  0
  4  5  1  0
  5  6  1  0
  6  7  1  0
  7  8  2  0
  8  9  1  0
  9 10  2  0
 10 11  1  0
 10 12  1  0
 12 13  2  0
  4 14  1  0
 14 15  2  0
 15 16  1  0
 16 17  1  0
 17 18  1  0
 15  2  1  0
 18 16  1  0
 13  7  1  0
  1 19  1  0
  1 20  1  0
  1 21  1  0
  6 22  1  0
  6 23  1  0
  8 24  1  0
  9 25  1  0
 12 26  1  0
 13 27  1  0
 14 28  1  0
 16 29  1  0
 17 30  1  0
 17 31  1  0
 18 32  1  0
 18 33  1  0
M  CHG  1  14   1
M  END
>  <UniqueID>  (7) 
7

>  <SMILES>  (7) 
Cn1nc(SCc2ccc(F)cc2)[nH+]c1C1CC1

>  <Energy>  (7) 
328.3938440531551

>  <Genealogy>  (7) 
Cn1nc(SCc2ccc(F)cc2)[nH+]c1C1CC1 (protonated)
Cn1nc(SCc2ccc(F)cc2)[nH+]c1C1CC1 (3D coordinates assigned)
Cn1nc(SCc2ccc(F)cc2)[nH+]c1C1CC1 (nonaromatic ring conformer: 328.3938440531551 kcal/mol)

>  <smiles>  (7) 
Cn1nc(SCc2ccc(F)cc2)nc1C1CC1

>  <score_type>  (7) 
oracle

>  <origin>  (7) 
adg

>  <m_score__min__energy>  (7) 
-5.6399999999999997

>  <m_primary>  (7) 
energy

$$$$
7:0
     RDKit          3D

 63 65  0  0  0  0  0  0  0  0999 V2000
   60.7421   29.2829   51.9464 H   0  0  0  0  0  0  0  0  0  0  0  0
   60.9660   29.4470   50.8820 C   0  0  0  0  0  0  0  0  0  0  0  0
   61.8320   30.3520   50.5650 N   0  0  0  0  0  0  0  0  0  0  0  0
   63.1840   30.3990   51.0760 C   0  0  0  0  0  0  0  0  0  0  0  0
   63.1606   30.3982   52.1757 H   0  0  0  0  0  0  0  0  0  0  0  0
   63.7411   29.5197   50.7205 H   0  0  0  0  0  0  0  0  0  0  0  0
   63.6787   31.3149   50.7205 H   0  0  0  0  0  0  0  0  0  0  0  0
   60.2490   28.6060   49.8560 C   0  0  0  0  0  0  0  0  0  0  0  0
   60.4529   27.5432   50.0532 H   0  0  0  0  0  0  0  0  0  0  0  0
   59.1694   28.8052   49.9254 H   0  0  0  0  0  0  0  0  0  0  0  0
   60.7050   28.9410   48.5070 N   0  0  0  0  0  0  0  0  0  0  0  0
   61.7180   28.8170   48.2910 H   0  0  0  0  0  0  0  0  0  0  0  0
   59.7880   29.0200   47.4080 C   0  0  0  0  0  0  0  0  0  0  0  0
   59.3840   27.7960   46.8610 C   0  0  0  0  0  0  0  0  0  0  0  0
   59.6911   26.8590   47.3485 H   0  0  0  0  0  0  0  0  0  0  0  0
   58.6080   27.7440   45.7220 C   0  0  0  0  0  0  0  0  0  0  0  0
   58.3132   26.7715   45.3010 H   0  0  0  0  0  0  0  0  0  0  0  0
   58.2010   28.9140   45.1100 C   0  0  0  0  0  0  0  0  0  0  0  0
   57.6083   28.8573   44.1851 H   0  0  0  0  0  0  0  0  0  0  0  0
   58.5280   30.1850   45.6440 C   0  0  0  0  0  0  0  0  0  0  0  0
   59.3610   30.2610   46.8100 C   0  0  0  0  0  0  0  0  0  0  0  0
   59.6940   31.5680   47.3140 C   0  0  0  0  0  0  0  0  0  0  0  0
   60.3230   31.7590   48.6120 N   0  0  0  0  0  0  0  0  0  0  0  0
   60.6540   30.8420   48.9810 H   0  0  0  0  0  0  0  0  0  0  0  0
   61.2140   32.2880   48.5240 H   0  0  0  0  0  0  0  0  0  0  0  0
   59.3910   32.3800   49.5790 C   0  0  0  0  0  0  0  0  0  0  0  0
   58.4955   32.7187   49.0374 H   0  0  0  0  0  0  0  0  0  0  0  0
   59.1443   31.6224   50.3374 H   0  0  0  0  0  0  0  0  0  0  0  0
   60.0130   33.5890   50.3110 C   0  0  0  0  0  0  0  0  0  0  0  0
   59.2516   34.3805   50.3727 H   0  0  0  0  0  0  0  0  0  0  0  0
   60.3376   33.2213   51.2956 H   0  0  0  0  0  0  0  0  0  0  0  0
   61.2120   34.1550   49.6630 N   0  0  0  0  0  0  0  0  0  0  0  0
   61.2000   33.9070   48.6460 H   0  0  0  0  0  0  0  0  0  0  0  0
   62.4970   33.7250   50.2380 C   0  0  0  0  0  0  0  0  0  0  0  0
   62.8877   34.5308   50.8768 H   0  0  0  0  0  0  0  0  0  0  0  0
   62.3197   32.8078   50.8188 H   0  0  0  0  0  0  0  0  0  0  0  0
   63.5410   33.4040   49.1450 C   0  0  0  0  0  0  0  0  0  0  0  0
   64.1388   34.3092   48.9628 H   0  0  0  0  0  0  0  0  0  0  0  0
   64.1430   32.5635   49.5206 H   0  0  0  0  0  0  0  0  0  0  0  0
   62.9570   32.9660   47.8560 N   0  0  0  0  0  0  0  0  0  0  0  0
   63.3300   31.5900   47.4880 C   0  0  0  0  0  0  0  0  0  0  0  0
   63.4907   30.9972   48.4005 H   0  0  0  0  0  0  0  0  0  0  0  0
   62.5221   31.1374   46.8943 H   0  0  0  0  0  0  0  0  0  0  0  0
   64.2558   31.6074   46.8943 H   0  0  0  0  0  0  0  0  0  0  0  0
   63.2260   33.9050   46.7550 C   0  0  0  0  0  0  0  0  0  0  0  0
   63.5067   34.8847   47.1690 H   0  0  0  0  0  0  0  0  0  0  0  0
   64.0496   33.5187   46.1366 H   0  0  0  0  0  0  0  0  0  0  0  0
   62.3228   34.0134   46.1366 H   0  0  0  0  0  0  0  0  0  0  0  0
   59.3850   32.7080   46.5140 C   0  0  0  0  0  0  0  0  0  0  0  0
   59.8260   34.0140   46.8580 C   0  0  0  0  0  0  0  0  0  0  0  0
   60.3789   34.1659   47.7967 H   0  0  0  0  0  0  0  0  0  0  0  0
   59.5730   35.1050   46.0320 C   0  0  0  0  0  0  0  0  0  0  0  0
   59.9230   36.1065   46.3227 H   0  0  0  0  0  0  0  0  0  0  0  0
   58.8810   34.9320   44.8440 C   0  0  0  0  0  0  0  0  0  0  0  0
   58.7094   35.7897   44.1770 H   0  0  0  0  0  0  0  0  0  0  0  0
   58.4040   33.6740   44.4960 C   0  0  0  0  0  0  0  0  0  0  0  0
   57.8584   33.5471   43.5493 H   0  0  0  0  0  0  0  0  0  0  0  0
   58.6070   32.5500   45.3380 C   0  0  0  0  0  0  0  0  0  0  0  0
   58.0560   31.3290   45.0360 N   0  0  0  0  0  0  0  0  0  0  0  0
   56.9340   31.2510   44.0710 C   0  0  0  0  0  0  0  0  0  0  0  0
   55.9827   31.1849   44.6193 H   0  0  0  0  0  0  0  0  0  0  0  0
   56.9309   32.1511   43.4387 H   0  0  0  0  0  0  0  0  0  0  0  0
   57.0555   30.3591   43.4387 H   0  0  0  0  0  0  0  0  0  0  0  0
  1  2  1  0
  2  3  2  0
  3  4  1  0
  4  5  1  0
  4  6  1  0
  4  7  1  0
  2  8  1  0
  8  9  1  0
  8 10  1  0
  8 11  1  0
 11 12  1  0
 11 13  1  0
 13 14  2  0
 14 15  1  0
 14 16  1  0
 16 17  1  0
 16 18  2  0
 18 19  1  0
 18 20  1  0
 20 21  2  0
 21 22  1  0
 22 23  1  0
 23 24  1  0
 23 25  1  0
 23 26  1  0
 26 27  1  0
 26 28  1  0
 26 29  1  0
 29 30  1  0
 29 31  1  0
 29 32  1  0
 32 33  1  0
 32 34  1  0
 34 35  1  0
 34 36  1  0
 34 37  1  0
 37 38  1  0
 37 39  1  0
 37 40  1  0
 40 41  1  0
 41 42  1  0
 41 43  1  0
 41 44  1  0
 40 45  1  0
 45 46  1  0
 45 47  1  0
 45 48  1  0
 22 49  2  0
 49 50  1  0
 50 51  1  0
 50 52  2  0
 52 53  1  0
 52 54  1  0
 54 55  1  0
 54 56  2  0
 56 57  1  0
 56 58  1  0
 58 59  2  0
 59 60  1  0
 60 61  1  0
 60 62  1  0
 60 63  1  0
 21 13  1  0
 58 49  1  0
 59 20  1  0
M  CHG  2  23   1  59   1
M  END
>  <UniqueID>  (8) 
8

>  <SMILES>  (8) 
C/N=C\CNc1cccc2c1c([NH2+]CCNCCN(C)C)c1ccccc1[n+]2C

>  <Energy>  (8) 
107.0014691019375

>  <Genealogy>  (8) 
CN=CCNc1cccc2c1c([NH2+]CCNCCN(C)C)c1ccccc1[n+]2C (protonated)
C/N=C\CNc1cccc2c1c([NH2+]CCNCCN(C)C)c1ccccc1[n+]2C (cis-trans isomerization)
C/N=C\CNc1cccc2c1c([NH2+]CCNCCN(C)C)c1ccccc1[n+]2C (3D coordinates assigned)
C/N=C\CNc1cccc2c1c([NH2+]CCNCCN(C)C)c1ccccc1[n+]2C (optimized conformer: 107.0014691019375 kcal/mol)

>  <smiles>  (8) 
CN=CCNc1cccc2c1c(NCCNCCN(C)C)c1ccccc1[n+]2C

>  <score_type>  (8) 
oracle

>  <origin>  (8) 
adg

>  <m_score__min__energy>  (8) 
-2.9500000000000002

>  <m_primary>  (8) 
energy

$$$$
8:0
     RDKit          3D

 44 45  0  0  0  0  0  0  0  0999 V2000
   59.2200   32.6200   48.5420 C   0  0  0  0  0  0  0  0  0  0  0  0
   60.0990   33.8500   48.8060 C   0  0  0  0  0  0  0  0  0  0  0  0
   61.1200   34.1060   47.7590 N   0  0  0  0  0  0  0  0  0  0  0  0
   62.3990   33.3910   47.9800 C   0  0  0  0  0  0  0  0  0  0  0  0
   63.3190   33.4910   46.7650 C   0  0  0  0  0  0  0  0  0  0  0  0
   60.5940   33.8780   46.3940 C   0  0  0  0  0  0  0  0  0  0  0  0
   59.7600   35.0750   45.9420 C   0  0  0  0  0  0  0  0  0  0  0  0
   58.4100   34.8600   46.2990 O   0  0  0  0  0  0  0  0  0  0  0  0
   57.7140   34.2100   45.2520 C   0  0  0  0  0  0  0  0  0  0  0  0
   57.3370   32.7920   45.6700 C   0  0  0  0  0  0  0  0  0  0  0  0
   57.8450   31.8800   44.7250 O   0  0  0  0  0  0  0  0  0  0  0  0
   57.9520   30.6860   45.3640 N   0  0  0  0  0  0  0  0  0  0  0  0
   57.0150   29.6120   45.2900 C   0  0  0  0  0  0  0  0  0  0  0  0
   55.8450   29.7210   44.8400 O   0  0  0  0  0  0  0  0  0  0  0  0
   57.6380   28.3850   45.7790 C   0  0  0  0  0  0  0  0  0  0  0  0
   57.1280   27.0950   45.9100 C   0  0  0  0  0  0  0  0  0  0  0  0
   57.9830   26.0940   46.4030 C   0  0  0  0  0  0  0  0  0  0  0  0
   59.3180   26.3990   46.7480 C   0  0  0  0  0  0  0  0  0  0  0  0
   59.8120   27.7080   46.6040 C   0  0  0  0  0  0  0  0  0  0  0  0
   58.9440   28.6840   46.1170 C   0  0  0  0  0  0  0  0  0  0  0  0
   59.1600   30.1020   45.8470 C   0  0  0  0  0  0  0  0  0  0  0  0
   60.2440   30.7260   45.9840 O   0  0  0  0  0  0  0  0  0  0  0  0
   58.9063   32.1810   49.5006 H   0  0  0  0  0  0  0  0  0  0  0  0
   58.3311   32.9209   47.9681 H   0  0  0  0  0  0  0  0  0  0  0  0
   59.7926   31.8765   47.9681 H   0  0  0  0  0  0  0  0  0  0  0  0
   59.4457   34.7324   48.8735 H   0  0  0  0  0  0  0  0  0  0  0  0
   60.6468   33.6519   49.7391 H   0  0  0  0  0  0  0  0  0  0  0  0
   62.9081   33.8316   48.8499 H   0  0  0  0  0  0  0  0  0  0  0  0
   62.1726   32.3284   48.1523 H   0  0  0  0  0  0  0  0  0  0  0  0
   64.3601   33.6042   47.1017 H   0  0  0  0  0  0  0  0  0  0  0  0
   63.2268   32.5775   46.1591 H   0  0  0  0  0  0  0  0  0  0  0  0
   63.0327   34.3633   46.1591 H   0  0  0  0  0  0  0  0  0  0  0  0
   61.4353   33.7385   45.6992 H   0  0  0  0  0  0  0  0  0  0  0  0
   59.9584   32.9802   46.4002 H   0  0  0  0  0  0  0  0  0  0  0  0
   60.1297   35.9876   46.4324 H   0  0  0  0  0  0  0  0  0  0  0  0
   59.8405   35.1916   44.8512 H   0  0  0  0  0  0  0  0  0  0  0  0
   56.7996   34.7750   45.0181 H   0  0  0  0  0  0  0  0  0  0  0  0
   58.3633   34.1619   44.3654 H   0  0  0  0  0  0  0  0  0  0  0  0
   57.7658   32.5738   46.6592 H   0  0  0  0  0  0  0  0  0  0  0  0
   56.2420   32.7004   45.7203 H   0  0  0  0  0  0  0  0  0  0  0  0
   56.0875   26.8667   45.6358 H   0  0  0  0  0  0  0  0  0  0  0  0
   57.6096   25.0660   46.5209 H   0  0  0  0  0  0  0  0  0  0  0  0
   59.9768   25.6064   47.1325 H   0  0  0  0  0  0  0  0  0  0  0  0
   60.8512   27.9540   46.8675 H   0  0  0  0  0  0  0  0  0  0  0  0
  1  2  1  0
  2  3  1  0
  3  4  1  0
  4  5  1  0
  3  6  1  0
  6  7  1  0
  7  8  1  0
  8  9  1  0
  9 10  1  0
 10 11  1  0
 11 12  1  0
 12 13  1  0
 13 14  2  0
 13 15  1  0
 15 16  2  0
 16 17  1  0
 17 18  2  0
 18 19  1  0
 19 20  2  0
 20 21  1  0
 21 22  2  0
 21 12  1  0
 20 15  1  0
  1 23  1  0
  1 24  1  0
  1 25  1  0
  2 26  1  0
  2 27  1  0
  4 28  1  0
  4 29  1  0
  5 30  1  0
  5 31  1  0
  5 32  1  0
  6 33  1  0
  6 34  1  0
  7 35  1  0
  7 36  1  0
  9 37  1  0
  9 38  1  0
 10 39  1  0
 10 40  1  0
 16 41  1  0
 17 42  1  0
 18 43  1  0
 19 44  1  0
M  END
>  <UniqueID>  (9) 
9

>  <SMILES>  (9) 
CCN(CC)CCOCCON1C(=O)c2ccccc2C1=O

>  <Energy>  (9) 
75.67423236997237

>  <Genealogy>  (9) 
CCN(CC)CCOCCON1C(=O)c2ccccc2C1=O (3D coordinates assigned)
CCN(CC)CCOCCON1C(=O)c2ccccc2C1=O (nonaromatic ring conformer: 75.67423236997237 kcal/mol)

>  <smiles>  (9) 
CCN(CC)CCOCCON1C(=O)c2ccccc2C1=O

>  <score_type>  (9) 
oracle

>  <origin>  (9) 
adg

>  <m_score__min__energy>  (9) 
-6.6299999999999999

>  <m_primary>  (9) 
energy

$$$$
9:0
     RDKit          3D

 86 89  0  0  0  0  0  0  0  0999 V2000
   57.4810   31.5640   43.3880 C   0  0  0  0  0  0  0  0  0  0  0  0
   56.3150   30.8210   44.0300 C   0  0  0  0  0  0  0  0  0  0  0  0
   56.7730   30.1010   45.2330 N   0  0  0  0  0  0  0  0  0  0  0  0
   57.9140   29.2140   44.9540 C   0  0  0  0  0  0  0  0  0  0  0  0
   58.9180   29.1940   46.1080 C   0  0  0  0  0  0  0  0  0  0  0  0
   58.3390   29.8280   47.2310 O   0  0  0  0  0  0  0  0  0  0  0  0
   58.7640   29.1950   48.4250 C   0  0  0  0  0  0  0  0  0  0  0  0
   59.7840   30.0760   49.1530 C   0  0  0  0  0  0  0  0  0  0  0  0
   59.1470   30.7580   50.3720 C   0  0  0  0  0  0  0  0  0  0  0  0
   58.9130   32.2100   50.1430 N   0  0  0  0  0  0  0  0  0  0  0  0
   59.8920   32.7660   49.2220 C   0  0  0  0  0  0  0  0  0  0  0  0
   59.5170   33.2320   47.9360 C   0  0  0  0  0  0  0  0  0  0  0  0
   58.1570   33.2780   47.5330 C   0  0  0  0  0  0  0  0  0  0  0  0
   57.7920   33.7440   46.2820 C   0  0  0  0  0  0  0  0  0  0  0  0
   58.7550   34.2100   45.4000 C   0  0  0  0  0  0  0  0  0  0  0  0
   60.0980   34.2150   45.7720 C   0  0  0  0  0  0  0  0  0  0  0  0
   60.5210   33.6920   47.0320 C   0  0  0  0  0  0  0  0  0  0  0  0
   61.8590   33.6240   47.3880 N   0  0  0  0  0  0  0  0  0  0  0  0
   62.9110   33.8880   46.3750 C   0  0  0  0  0  0  0  0  0  0  0  0
   62.2230   33.3530   48.6950 C   0  0  0  0  0  0  0  0  0  0  0  0
   63.5650   33.5480   49.1500 C   0  0  0  0  0  0  0  0  0  0  0  0
   63.9110   33.3900   50.4890 C   0  0  0  0  0  0  0  0  0  0  0  0
   65.1900   33.7560   50.9370 O   0  0  0  0  0  0  0  0  0  0  0  0
   66.3960   33.1360   50.4860 C   0  0  0  0  0  0  0  0  0  0  0  0
   66.3500   31.5780   50.5260 C   0  0  0  0  0  0  0  0  0  0  0  0
   66.4720   30.8940   51.8640 N   0  0  0  0  0  0  0  0  0  0  0  0
   66.9080   31.8900   52.8860 C   0  0  0  0  0  0  0  0  0  0  0  0
   67.5600   29.8570   51.7580 C   0  0  0  0  0  0  0  0  0  0  0  0
   67.3370   28.6660   52.7180 C   0  0  0  0  0  0  0  0  0  0  0  0
   66.0830   27.9140   52.3760 N   0  0  0  0  0  0  0  0  0  0  0  0
   65.5300   27.3100   53.6130 C   0  0  0  0  0  0  0  0  0  0  0  0
   66.4040   26.8170   51.4330 C   0  0  0  0  0  0  0  0  0  0  0  0
   65.0490   28.8090   51.7660 C   0  0  0  0  0  0  0  0  0  0  0  0
   65.1760   30.2480   52.2810 C   0  0  0  0  0  0  0  0  0  0  0  0
   62.9350   32.9580   51.3850 C   0  0  0  0  0  0  0  0  0  0  0  0
   61.6380   32.6940   50.9630 C   0  0  0  0  0  0  0  0  0  0  0  0
   61.2440   32.9280   49.6310 C   0  0  0  0  0  0  0  0  0  0  0  0
   58.1298   31.9774   44.1742 H   0  0  0  0  0  0  0  0  0  0  0  0
   58.0599   30.8679   42.7633 H   0  0  0  0  0  0  0  0  0  0  0  0
   57.0946   32.3828   42.7633 H   0  0  0  0  0  0  0  0  0  0  0  0
   55.5352   31.5432   44.3132 H   0  0  0  0  0  0  0  0  0  0  0  0
   55.9097   30.0957   43.3090 H   0  0  0  0  0  0  0  0  0  0  0  0
   57.0360   30.8040   45.9700 H   0  0  0  0  0  0  0  0  0  0  0  0
   57.5389   28.1928   44.7915 H   0  0  0  0  0  0  0  0  0  0  0  0
   58.4302   29.5943   44.0602 H   0  0  0  0  0  0  0  0  0  0  0  0
   59.1693   28.1533   46.3605 H   0  0  0  0  0  0  0  0  0  0  0  0
   59.8352   29.7247   45.8127 H   0  0  0  0  0  0  0  0  0  0  0  0
   57.8947   29.0290   49.0782 H   0  0  0  0  0  0  0  0  0  0  0  0
   59.2332   28.2321   48.1749 H   0  0  0  0  0  0  0  0  0  0  0  0
   60.6251   29.4514   49.4883 H   0  0  0  0  0  0  0  0  0  0  0  0
   60.1358   30.8535   48.4590 H   0  0  0  0  0  0  0  0  0  0  0  0
   58.1833   30.2730   50.5864 H   0  0  0  0  0  0  0  0  0  0  0  0
   59.8421   30.6565   51.2184 H   0  0  0  0  0  0  0  0  0  0  0  0
   57.9510   32.3460   49.7520 H   0  0  0  0  0  0  0  0  0  0  0  0
   58.8700   32.7480   51.0260 H   0  0  0  0  0  0  0  0  0  0  0  0
   57.3770   32.9363   48.2293 H   0  0  0  0  0  0  0  0  0  0  0  0
   56.7326   33.7447   45.9859 H   0  0  0  0  0  0  0  0  0  0  0  0
   58.4587   34.5760   44.4059 H   0  0  0  0  0  0  0  0  0  0  0  0
   60.8471   34.6299   45.0816 H   0  0  0  0  0  0  0  0  0  0  0  0
   63.8575   34.1255   46.8827 H   0  0  0  0  0  0  0  0  0  0  0  0
   63.0462   32.9959   45.7458 H   0  0  0  0  0  0  0  0  0  0  0  0
   62.6090   34.7382   45.7458 H   0  0  0  0  0  0  0  0  0  0  0  0
   64.3423   33.8296   48.4243 H   0  0  0  0  0  0  0  0  0  0  0  0
   66.5826   33.4518   49.4490 H   0  0  0  0  0  0  0  0  0  0  0  0
   67.1968   33.4526   51.1704 H   0  0  0  0  0  0  0  0  0  0  0  0
   65.3891   31.2691   50.0886 H   0  0  0  0  0  0  0  0  0  0  0  0
   67.2510   31.2654   49.9779 H   0  0  0  0  0  0  0  0  0  0  0  0
   66.7303   31.4840   53.8928 H   0  0  0  0  0  0  0  0  0  0  0  0
   67.9803   32.0999   52.7593 H   0  0  0  0  0  0  0  0  0  0  0  0
   66.3348   32.8203   52.7593 H   0  0  0  0  0  0  0  0  0  0  0  0
   67.5869   29.4780   50.7257 H   0  0  0  0  0  0  0  0  0  0  0  0
   68.5091   30.3382   52.0366 H   0  0  0  0  0  0  0  0  0  0  0  0
   68.1955   27.9821   52.6453 H   0  0  0  0  0  0  0  0  0  0  0  0
   67.2368   29.0594   53.7403 H   0  0  0  0  0  0  0  0  0  0  0  0
   65.9773   27.7985   54.4912 H   0  0  0  0  0  0  0  0  0  0  0  0
   64.4389   27.4483   53.6325 H   0  0  0  0  0  0  0  0  0  0  0  0
   65.7638   26.2353   53.6325 H   0  0  0  0  0  0  0  0  0  0  0  0
   66.6688   25.9121   51.9996 H   0  0  0  0  0  0  0  0  0  0  0  0
   65.5288   26.6100   50.7997 H   0  0  0  0  0  0  0  0  0  0  0  0
   67.2528   27.1145   50.7997 H   0  0  0  0  0  0  0  0  0  0  0  0
   65.1754   28.8081   50.6733 H   0  0  0  0  0  0  0  0  0  0  0  0
   64.0554   28.4289   52.0459 H   0  0  0  0  0  0  0  0  0  0  0  0
   64.3406   30.8415   51.8812 H   0  0  0  0  0  0  0  0  0  0  0  0
   65.1560   30.2143   53.3803 H   0  0  0  0  0  0  0  0  0  0  0  0
   63.1962   32.8237   52.4451 H   0  0  0  0  0  0  0  0  0  0  0  0
   60.9063   32.2955   51.6812 H   0  0  0  0  0  0  0  0  0  0  0  0
  1  2  1  0
  2  3  1  0
  3  4  1  0
  4  5  1  0
  5  6  1  0
  6  7  1  0
  7  8  1  0
  8  9  1  0
  9 10  1  0
 10 11  1  0
 11 12  2  0
 12 13  1  0
 13 14  2  0
 14 15  1  0
 15 16  2  0
 16 17  1  0
 17 18  2  0
 18 19  1  0
 18 20  1  0
 20 21  2  0
 21 22  1  0
 22 23  1  0
 23 24  1  0
 24 25  1  0
 25 26  1  0
 26 27  1  0
 26 28  1  0
 28 29  1  0
 29 30  1  0
 30 31  1  0
 30 32  1  0
 30 33  1  0
 33 34  1  0
 22 35  2  0
 35 36  1  0
 36 37  2  0
 37 11  1  0
 17 12  1  0
 37 20  1  0
 34 26  1  0
  1 38  1  0
  1 39  1  0
  1 40  1  0
  2 41  1  0
  2 42  1  0
  3 43  1  0
  4 44  1  0
  4 45  1  0
  5 46  1  0
  5 47  1  0
  7 48  1  0
  7 49  1  0
  8 50  1  0
  8 51  1  0
  9 52  1  0
  9 53  1  0
 10 54  1  0
 10 55  1  0
 13 56  1  0
 14 57  1  0
 15 58  1  0
 16 59  1  0
 19 60  1  0
 19 61  1  0
 19 62  1  0
 21 63  1  0
 24 64  1  0
 24 65  1  0
 25 66  1  0
 25 67  1  0
 27 68  1  0
 27 69  1  0
 27 70  1  0
 28 71  1  0
 28 72  1  0
 29 73  1  0
 29 74  1  0
 31 75  1  0
 31 76  1  0
 31 77  1  0
 32 78  1  0
 32 79  1  0
 32 80  1  0
 33 81  1  0
 33 82  1  0
 34 83  1  0
 34 84  1  0
 35 85  1  0
 36 86  1  0
M  CHG  4  10   1  18   1  26   1  30   1
M  END
>  <UniqueID>  (10) 
10

>  <SMILES>  (10) 
CCNCCOCCC[NH2+]c1c2ccccc2[n+](C)c2cc(OCC[N+]3(C)CC[N+](C)(C)CC3)ccc12

>  <Energy>  (10) 
163.12162995495123

>  <Genealogy>  (10) 
CCNCCOCCC[NH2+]c1c2ccccc2[n+](C)c2cc(OCC[N+]3(C)CC[N+](C)(C)CC3)ccc12 (protonated)
CCNCCOCCC[NH2+]c1c2ccccc2[n+](C)c2cc(OCC[N+]3(C)CC[N+](C)(C)CC3)ccc12 (3D coordinates assigned)
CCNCCOCCC[NH2+]c1c2ccccc2[n+](C)c2cc(OCC[N+]3(C)CC[N+](C)(C)CC3)ccc12 (nonaromatic ring conformer: 163.12162995495123 kcal/mol)

>  <smiles>  (10) 
CCNCCOCCCNc1c2ccccc2[n+](C)c2cc(OCC[N+]3(C)CC[N+](C)(C)CC3)ccc12

>  <score_type>  (10) 
oracle

>  <origin>  (10) 
adg

>  <m_score__min__energy>  (10) 
-3.1200000000000001

>  <m_primary>  (10) 
energy

$$$$
10:0
     RDKit          3D

 41 43  0  0  0  0  0  0  0  0999 V2000
   56.6440   30.4740   42.7030 C   0  0  0  0  0  0  0  0  0  0  0  0
   56.1100   30.3370   44.1200 C   0  0  0  0  0  0  0  0  0  0  0  0
   56.2280   31.5860   44.7970 O   0  0  0  0  0  0  0  0  0  0  0  0
   57.4330   32.1210   45.2740 C   0  0  0  0  0  0  0  0  0  0  0  0
   57.6180   33.5060   45.2010 C   0  0  0  0  0  0  0  0  0  0  0  0
   58.7980   34.0920   45.6630 C   0  0  0  0  0  0  0  0  0  0  0  0
   59.8130   33.2980   46.2040 C   0  0  0  0  0  0  0  0  0  0  0  0
   60.9570   33.8780   46.6540 N   0  0  0  0  0  0  0  0  0  0  0  0
   61.9720   33.1500   47.1910 C   0  0  0  0  0  0  0  0  0  0  0  0
   63.2110   33.8370   47.6650 C   0  0  0  0  0  0  0  0  0  0  0  0
   61.8540   31.7590   47.2880 C   0  0  0  0  0  0  0  0  0  0  0  0
   60.6930   31.1240   46.8350 C   0  0  0  0  0  0  0  0  0  0  0  0
   60.5980   29.6970   46.9370 N   0  0  0  0  0  0  0  0  0  0  0  0
   60.6360   29.0540   48.2530 C   0  0  0  0  0  0  0  0  0  0  0  0
   59.6320   27.8830   48.3330 C   0  0  0  0  0  0  0  0  0  0  0  0
   59.3140   27.2620   47.0310 N   0  0  0  0  0  0  0  0  0  0  0  0
   60.3950   27.4100   46.0500 C   0  0  0  0  0  0  0  0  0  0  0  0
   60.6060   28.8910   45.7150 C   0  0  0  0  0  0  0  0  0  0  0  0
   59.6490   31.8960   46.2850 C   0  0  0  0  0  0  0  0  0  0  0  0
   58.4530   31.3150   45.8180 C   0  0  0  0  0  0  0  0  0  0  0  0
   57.7090   30.7472   42.7373 H   0  0  0  0  0  0  0  0  0  0  0  0
   56.5279   29.5170   42.1733 H   0  0  0  0  0  0  0  0  0  0  0  0
   56.0815   31.2569   42.1733 H   0  0  0  0  0  0  0  0  0  0  0  0
   55.0521   30.0376   44.0855 H   0  0  0  0  0  0  0  0  0  0  0  0
   56.6909   29.5731   44.6576 H   0  0  0  0  0  0  0  0  0  0  0  0
   56.8258   34.1395   44.7754 H   0  0  0  0  0  0  0  0  0  0  0  0
   58.9293   35.1824   45.6010 H   0  0  0  0  0  0  0  0  0  0  0  0
   63.2273   33.8461   48.7648 H   0  0  0  0  0  0  0  0  0  0  0  0
   64.0945   33.2999   47.2896 H   0  0  0  0  0  0  0  0  0  0  0  0
   63.2235   34.8709   47.2896 H   0  0  0  0  0  0  0  0  0  0  0  0
   62.6733   31.1657   47.7200 H   0  0  0  0  0  0  0  0  0  0  0  0
   61.6504   28.6697   48.4352 H   0  0  0  0  0  0  0  0  0  0  0  0
   60.3611   29.8004   49.0129 H   0  0  0  0  0  0  0  0  0  0  0  0
   60.0577   27.1090   48.9885 H   0  0  0  0  0  0  0  0  0  0  0  0
   58.6911   28.3020   48.7192 H   0  0  0  0  0  0  0  0  0  0  0  0
   58.4500   27.7120   46.6430 H   0  0  0  0  0  0  0  0  0  0  0  0
   61.3244   26.9959   46.4681 H   0  0  0  0  0  0  0  0  0  0  0  0
   60.1231   26.8692   45.1315 H   0  0  0  0  0  0  0  0  0  0  0  0
   61.5738   29.0132   45.2066 H   0  0  0  0  0  0  0  0  0  0  0  0
   59.7894   29.2284   45.0598 H   0  0  0  0  0  0  0  0  0  0  0  0
   58.3148   30.2254   45.8785 H   0  0  0  0  0  0  0  0  0  0  0  0
  1  2  1  0
  2  3  1  0
  3  4  1  0
  4  5  2  0
  5  6  1  0
  6  7  2  0
  7  8  1  0
  8  9  2  0
  9 10  1  0
  9 11  1  0
 11 12  2  0
 12 13  1  0
 13 14  1  0
 14 15  1  0
 15 16  1  0
 16 17  1  0
 17 18  1  0
 12 19  1  0
 19 20  2  0
 20  4  1  0
 19  7  1  0
 18 13  1  0
  1 21  1  0
  1 22  1  0
  1 23  1  0
  2 24  1  0
  2 25  1  0
  5 26  1  0
  6 27  1  0
 10 28  1  0
 10 29  1  0
 10 30  1  0
 11 31  1  0
 14 32  1  0
 14 33  1  0
 15 34  1  0
 15 35  1  0
 16 36  1  0
 17 37  1  0
 17 38  1  0
 18 39  1  0
 18 40  1  0
 20 41  1  0
M  END
>  <UniqueID>  (11) 
11

>  <SMILES>  (11) 
CCOc1ccc2nc(C)cc(N3CCNCC3)c2c1

>  <Energy>  (11) 
50.39665008134219

>  <Genealogy>  (11) 
CCOc1ccc2nc(C)cc(N3CCNCC3)c2c1 (3D coordinates assigned)
CCOc1ccc2nc(C)cc(N3CCNCC3)c2c1 (nonaromatic ring conformer: 50.39665008134219 kcal/mol)

>  <smiles>  (11) 
CCOc1ccc2nc(C)cc(N3CCNCC3)c2c1

>  <score_type>  (11) 
oracle

>  <origin>  (11) 
adg

>  <m_score__min__energy>  (11) 
-6.4199999999999999

>  <m_primary>  (11) 
energy

$$$$
11:0
     RDKit          3D

 85 89  0  0  0  0  0  0  0  0999 V2000
   59.2380   35.0460   44.8640 C   0  0  0  0  0  0  0  0  0  0  0  0
   60.1830   34.4850   45.9150 C   0  0  0  0  0  0  0  0  0  0  0  0
   60.1050   35.2980   47.1390 N   0  0  0  0  0  0  0  0  0  0  0  0
   59.2610   34.6700   48.1640 C   0  0  0  0  0  0  0  0  0  0  0  0
   59.7560   33.2570   48.5520 C   0  0  0  0  0  0  0  0  0  0  0  0
   58.6610   32.2820   48.6010 N   0  0  0  0  0  0  0  0  0  0  0  0
   58.7160   31.1250   47.7510 C   0  0  0  0  0  0  0  0  0  0  0  0
   58.4430   31.2540   46.3810 C   0  0  0  0  0  0  0  0  0  0  0  0
   57.7060   32.3480   45.8890 C   0  0  0  0  0  0  0  0  0  0  0  0
   57.3780   32.4360   44.5430 C   0  0  0  0  0  0  0  0  0  0  0  0
   57.7540   31.4270   43.6680 C   0  0  0  0  0  0  0  0  0  0  0  0
   58.4920   30.3370   44.1340 C   0  0  0  0  0  0  0  0  0  0  0  0
   58.9050   30.2560   45.4860 C   0  0  0  0  0  0  0  0  0  0  0  0
   59.7300   29.2450   45.9430 N   0  0  0  0  0  0  0  0  0  0  0  0
   60.4830   28.4100   44.9870 C   0  0  0  0  0  0  0  0  0  0  0  0
   59.8580   29.0290   47.3050 C   0  0  0  0  0  0  0  0  0  0  0  0
   60.5380   27.8960   47.8210 C   0  0  0  0  0  0  0  0  0  0  0  0
   60.6560   27.6870   49.1920 C   0  0  0  0  0  0  0  0  0  0  0  0
   60.0360   28.5500   50.0850 C   0  0  0  0  0  0  0  0  0  0  0  0
   59.3180   29.6400   49.6170 C   0  0  0  0  0  0  0  0  0  0  0  0
   58.5130   30.3090   50.5470 O   0  0  0  0  0  0  0  0  0  0  0  0
   57.6850   30.9610   51.4870 C   0  0  0  0  0  0  0  0  0  0  0  0
   58.3260   32.2840   51.9150 C   0  0  0  0  0  0  0  0  0  0  0  0
   59.2740   32.2170   53.0930 N   0  0  2  0  0  0  0  0  0  0  0  0
   58.4280   32.2520   54.3180 C   0  0  0  0  0  0  0  0  0  0  0  0
   60.2260   33.3740   53.2120 C   0  0  0  0  0  0  0  0  0  0  0  0
   61.3910   33.3640   52.1920 C   0  0  0  0  0  0  0  0  0  0  0  0
   62.0160   32.0190   51.9400 N   0  0  2  0  0  0  0  0  0  0  0  0
   63.4940   32.1270   52.0550 C   0  0  0  0  0  0  0  0  0  0  0  0
   61.6250   31.5100   50.5730 C   0  0  0  0  0  0  0  0  0  0  0  0
   62.4220   32.0610   49.3980 C   0  0  0  0  0  0  0  0  0  0  0  0
   62.8350   33.4110   49.3510 C   0  0  0  0  0  0  0  0  0  0  0  0
   63.4710   33.9160   48.2180 C   0  0  0  0  0  0  0  0  0  0  0  0
   63.6860   33.0870   47.1100 C   0  0  0  0  0  0  0  0  0  0  0  0
   63.2640   31.7520   47.1380 C   0  0  0  0  0  0  0  0  0  0  0  0
   62.6450   31.2330   48.2830 C   0  0  0  0  0  0  0  0  0  0  0  0
   61.5690   31.0490   52.9850 C   0  0  0  0  0  0  0  0  0  0  0  0
   60.0290   30.9110   53.0660 C   0  0  0  0  0  0  0  0  0  0  0  0
   59.2910   29.9440   48.2310 C   0  0  0  0  0  0  0  0  0  0  0  0
   58.3938   35.5472   45.3601 H   0  0  0  0  0  0  0  0  0  0  0  0
   59.7768   35.7706   44.2358 H   0  0  0  0  0  0  0  0  0  0  0  0
   58.8598   34.2260   44.2358 H   0  0  0  0  0  0  0  0  0  0  0  0
   59.8980   33.4481   46.1464 H   0  0  0  0  0  0  0  0  0  0  0  0
   61.2124   34.5084   45.5280 H   0  0  0  0  0  0  0  0  0  0  0  0
   59.7310   36.2450   46.9030 H   0  0  0  0  0  0  0  0  0  0  0  0
   59.2653   35.3047   49.0624 H   0  0  0  0  0  0  0  0  0  0  0  0
   58.2482   34.5675   47.7473 H   0  0  0  0  0  0  0  0  0  0  0  0
   60.4947   32.9235   47.8083 H   0  0  0  0  0  0  0  0  0  0  0  0
   60.2000   33.3180   49.5566 H   0  0  0  0  0  0  0  0  0  0  0  0
   57.7190   32.6520   48.8490 H   0  0  0  0  0  0  0  0  0  0  0  0
   57.3863   33.1425   46.5794 H   0  0  0  0  0  0  0  0  0  0  0  0
   56.8192   33.3068   44.1696 H   0  0  0  0  0  0  0  0  0  0  0  0
   57.4706   31.4857   42.6068 H   0  0  0  0  0  0  0  0  0  0  0  0
   58.7572   29.5270   43.4386 H   0  0  0  0  0  0  0  0  0  0  0  0
   61.1200   27.7037   45.5396 H   0  0  0  0  0  0  0  0  0  0  0  0
   59.7781   27.8505   44.3544 H   0  0  0  0  0  0  0  0  0  0  0  0
   61.1121   29.0535   44.3544 H   0  0  0  0  0  0  0  0  0  0  0  0
   60.9805   27.1688   47.1243 H   0  0  0  0  0  0  0  0  0  0  0  0
   61.2421   26.8358   49.5688 H   0  0  0  0  0  0  0  0  0  0  0  0
   60.1145   28.3687   51.1671 H   0  0  0  0  0  0  0  0  0  0  0  0
   56.7037   31.1612   51.0320 H   0  0  0  0  0  0  0  0  0  0  0  0
   57.5604   30.3162   52.3694 H   0  0  0  0  0  0  0  0  0  0  0  0
   58.8867   32.6789   51.0550 H   0  0  0  0  0  0  0  0  0  0  0  0
   57.4925   32.9221   52.2438 H   0  0  0  0  0  0  0  0  0  0  0  0
   59.0721   32.2254   55.2093 H   0  0  0  0  0  0  0  0  0  0  0  0
   57.8306   33.1756   54.3248 H   0  0  0  0  0  0  0  0  0  0  0  0
   57.7564   31.3809   54.3248 H   0  0  0  0  0  0  0  0  0  0  0  0
   60.6571   33.3598   54.2239 H   0  0  0  0  0  0  0  0  0  0  0  0
   59.6392   34.2806   53.0029 H   0  0  0  0  0  0  0  0  0  0  0  0
   62.1756   34.0381   52.5662 H   0  0  0  0  0  0  0  0  0  0  0  0
   60.9566   33.6811   51.2324 H   0  0  0  0  0  0  0  0  0  0  0  0
   63.7786   32.1478   53.1174 H   0  0  0  0  0  0  0  0  0  0  0  0
   63.9641   31.2608   51.5664 H   0  0  0  0  0  0  0  0  0  0  0  0
   63.8332   33.0523   51.5664 H   0  0  0  0  0  0  0  0  0  0  0  0
   61.7431   30.4164   50.5755 H   0  0  0  0  0  0  0  0  0  0  0  0
   60.5918   31.8530   50.4151 H   0  0  0  0  0  0  0  0  0  0  0  0
   62.6535   34.0682   50.2142 H   0  0  0  0  0  0  0  0  0  0  0  0
   63.8035   34.9643   48.1943 H   0  0  0  0  0  0  0  0  0  0  0  0
   64.1875   33.4854   46.2157 H   0  0  0  0  0  0  0  0  0  0  0  0
   63.4188   31.1091   46.2589 H   0  0  0  0  0  0  0  0  0  0  0  0
   62.3336   30.1784   48.3099 H   0  0  0  0  0  0  0  0  0  0  0  0
   61.9419   31.3903   53.9620 H   0  0  0  0  0  0  0  0  0  0  0  0
   61.9729   30.0630   52.7118 H   0  0  0  0  0  0  0  0  0  0  0  0
   59.7836   30.3556   53.9832 H   0  0  0  0  0  0  0  0  0  0  0  0
   59.7172   30.3937   52.1467 H   0  0  0  0  0  0  0  0  0  0  0  0
  1  2  1  0
  2  3  1  0
  3  4  1  0
  4  5  1  0
  5  6  1  0
  6  7  1  0
  7  8  2  0
  8  9  1  0
  9 10  2  0
 10 11  1  0
 11 12  2  0
 12 13  1  0
 13 14  2  0
 14 15  1  0
 14 16  1  0
 16 17  2  0
 17 18  1  0
 18 19  2  0
 19 20  1  0
 20 21  1  0
 21 22  1  0
 22 23  1  0
 24 23  1  6
 24 25  1  0
 24 26  1  0
 26 27  1  0
 27 28  1  0
 28 29  1  6
 28 30  1  0
 30 31  1  0
 31 32  2  0
 32 33  1  0
 33 34  2  0
 34 35  1  0
 35 36  2  0
 28 37  1  0
 37 38  1  0
 20 39  2  0
 39  7  1  0
 13  8  1  0
 39 16  1  0
 38 24  1  0
 36 31  1  0
  1 40  1  0
  1 41  1  0
  1 42  1  0
  2 43  1  0
  2 44  1  0
  3 45  1  0
  4 46  1  0
  4 47  1  0
  5 48  1  0
  5 49  1  0
  6 50  1  0
  9 51  1  0
 10 52  1  0
 11 53  1  0
 12 54  1  0
 15 55  1  0
 15 56  1  0
 15 57  1  0
 17 58  1  0
 18 59  1  0
 19 60  1  0
 22 61  1  0
 22 62  1  0
 23 63  1  0
 23 64  1  0
 25 65  1  0
 25 66  1  0
 25 67  1  0
 26 68  1  0
 26 69  1  0
 27 70  1  0
 27 71  1  0
 29 72  1  0
 29 73  1  0
 29 74  1  0
 30 75  1  0
 30 76  1  0
 32 77  1  0
 33 78  1  0
 34 79  1  0
 35 80  1  0
 36 81  1  0
 37 82  1  0
 37 83  1  0
 38 84  1  0
 38 85  1  0
M  CHG  3  14   1  24   1  28   1
M  END
>  <UniqueID>  (12) 
12

>  <SMILES>  (12) 
CCNCCNc1c2ccccc2[n+](C)c2cccc(OCC[N+]3(C)CC[N+](C)(Cc4ccccc4)CC3)c12

>  <Energy>  (12) 
218.3315048265396

>  <Genealogy>  (12) 
CCNCCNc1c2ccccc2[n+](C)c2cccc(OCC[N+]3(C)CC[N+](C)(Cc4ccccc4)CC3)c12 (3D coordinates assigned)
CCNCCNc1c2ccccc2[n+](C)c2cccc(OCC[N+]3(C)CC[N+](C)(Cc4ccccc4)CC3)c12 (nonaromatic ring conformer: 218.3315048265396 kcal/mol)

>  <smiles>  (12) 
CCNCCNc1c2ccccc2[n+](C)c2cccc(OCC[N+]3(C)CC[N+](C)(Cc4ccccc4)CC3)c12

>  <score_type>  (12) 
oracle

>  <origin>  (12) 
adg

>  <m_score__min__energy>  (12) 
-4.4000000000000004

>  <m_primary>  (12) 
energy

$$$$
12:0
     RDKit          3D

 42 44  0  0  0  0  0  0  0  0999 V2000
   59.6230   35.6430   45.5880 C   0  0  0  0  0  0  0  0  0  0  0  0
   59.3090   35.0820   46.9700 C   0  0  0  0  0  0  0  0  0  0  0  0
   59.4070   33.6180   46.9660 N   0  0  0  0  0  0  0  0  0  0  0  0
   60.2120   32.8200   47.7240 C   0  0  0  0  0  0  0  0  0  0  0  0
   61.2230   33.3180   48.7190 C   0  0  0  0  0  0  0  0  0  0  0  0
   61.0230   32.6880   50.0250 N   0  0  0  0  0  0  0  0  0  0  0  0
   59.7800   32.6950   50.7540 C   0  0  0  0  0  0  0  0  0  0  0  0
   59.4540   33.7200   51.6630 C   0  0  0  0  0  0  0  0  0  0  0  0
   58.2410   33.6880   52.3590 C   0  0  0  0  0  0  0  0  0  0  0  0
   57.3410   32.6410   52.1530 C   0  0  0  0  0  0  0  0  0  0  0  0
   57.6490   31.6240   51.2460 C   0  0  0  0  0  0  0  0  0  0  0  0
   58.8610   31.6510   50.5480 C   0  0  0  0  0  0  0  0  0  0  0  0
   60.0150   31.5020   47.4760 N   0  0  0  0  0  0  0  0  0  0  0  0
   59.0490   31.4780   46.5430 C   0  0  0  0  0  0  0  0  0  0  0  0
   58.4600   30.3660   45.9450 C   0  0  0  0  0  0  0  0  0  0  0  0
   57.4520   30.5930   44.9820 C   0  0  0  0  0  0  0  0  0  0  0  0
   56.7560   29.4250   44.3310 C   0  0  0  0  0  0  0  0  0  0  0  0
   55.4160   29.2410   44.8820 N   0  0  0  0  0  0  0  0  0  0  0  0
   57.0590   31.9200   44.6700 C   0  0  0  0  0  0  0  0  0  0  0  0
   57.6770   33.0190   45.2960 C   0  0  0  0  0  0  0  0  0  0  0  0
   58.6770   32.7530   46.2340 C   0  0  0  0  0  0  0  0  0  0  0  0
   60.1578   36.5985   45.6930 H   0  0  0  0  0  0  0  0  0  0  0  0
   60.2526   34.9290   45.0368 H   0  0  0  0  0  0  0  0  0  0  0  0
   58.6852   35.8064   45.0368 H   0  0  0  0  0  0  0  0  0  0  0  0
   60.0256   35.4906   47.6977 H   0  0  0  0  0  0  0  0  0  0  0  0
   58.2833   35.3686   47.2451 H   0  0  0  0  0  0  0  0  0  0  0  0
   62.2337   33.0806   48.3554 H   0  0  0  0  0  0  0  0  0  0  0  0
   61.1010   34.4055   48.8305 H   0  0  0  0  0  0  0  0  0  0  0  0
   61.8540   32.2340   50.4660 H   0  0  0  0  0  0  0  0  0  0  0  0
   60.1569   34.5502   51.8266 H   0  0  0  0  0  0  0  0  0  0  0  0
   57.9957   34.4901   53.0706 H   0  0  0  0  0  0  0  0  0  0  0  0
   56.3896   32.6167   52.7046 H   0  0  0  0  0  0  0  0  0  0  0  0
   56.9378   30.8013   51.0806 H   0  0  0  0  0  0  0  0  0  0  0  0
   59.0969   30.8494   49.8326 H   0  0  0  0  0  0  0  0  0  0  0  0
   60.5020   30.6850   47.9080 H   0  0  0  0  0  0  0  0  0  0  0  0
   58.7697   29.3453   46.2139 H   0  0  0  0  0  0  0  0  0  0  0  0
   56.6780   29.6100   43.2495 H   0  0  0  0  0  0  0  0  0  0  0  0
   57.3427   28.5150   44.5249 H   0  0  0  0  0  0  0  0  0  0  0  0
   55.1910   28.2190   44.8890 H   0  0  0  0  0  0  0  0  0  0  0  0
   55.4100   29.5740   45.8740 H   0  0  0  0  0  0  0  0  0  0  0  0
   56.2627   32.0920   43.9309 H   0  0  0  0  0  0  0  0  0  0  0  0
   57.3826   34.0511   45.0549 H   0  0  0  0  0  0  0  0  0  0  0  0
  1  2  1  0
  2  3  1  0
  3  4  1  0
  4  5  1  0
  5  6  1  0
  6  7  1  0
  7  8  2  0
  8  9  1  0
  9 10  2  0
 10 11  1  0
 11 12  2  0
  4 13  2  0
 13 14  1  0
 14 15  2  0
 15 16  1  0
 16 17  1  0
 17 18  1  0
 16 19  2  0
 19 20  1  0
 20 21  2  0
 21  3  1  0
 12  7  1  0
 21 14  1  0
  1 22  1  0
  1 23  1  0
  1 24  1  0
  2 25  1  0
  2 26  1  0
  5 27  1  0
  5 28  1  0
  6 29  1  0
  8 30  1  0
  9 31  1  0
 10 32  1  0
 11 33  1  0
 12 34  1  0
 13 35  1  0
 15 36  1  0
 17 37  1  0
 17 38  1  0
 18 39  1  0
 18 40  1  0
 19 41  1  0
 20 42  1  0
M  CHG  1  13   1
M  END
>  <UniqueID>  (13) 
13

>  <SMILES>  (13) 
CCn1c(CNc2ccccc2)[nH+]c2cc(CN)ccc21

>  <Energy>  (13) 
75.69733170287127

>  <Genealogy>  (13) 
CCn1c(CNc2ccccc2)[nH+]c2cc(CN)ccc21 (protonated)
CCn1c(CNc2ccccc2)[nH+]c2cc(CN)ccc21 (3D coordinates assigned)
CCn1c(CNc2ccccc2)[nH+]c2cc(CN)ccc21 (optimized conformer: 75.69733170287127 kcal/mol)

>  <smiles>  (13) 
CCn1c(CNc2ccccc2)nc2cc(CN)ccc21

>  <score_type>  (13) 
oracle

>  <origin>  (13) 
adg

>  <m_score__min__energy>  (13) 
-5.6900000000000004

>  <m_primary>  (13) 
energy

$$$$
13:0
     RDKit          3D

 52 53  0  0  0  0  0  0  0  0999 V2000
   55.9002   29.1984   43.9584 H   0  0  0  0  0  0  0  0  0  0  0  0
   56.6310   29.7980   44.5210 C   0  0  0  0  0  0  0  0  0  0  0  0
   56.5590   31.1510   44.4960 N   0  0  0  0  0  0  0  0  0  0  0  0
   57.3920   31.9350   45.2320 C   0  0  0  0  0  0  0  0  0  0  0  0
   58.3640   31.3350   46.0670 C   0  0  0  0  0  0  0  0  0  0  0  0
   58.5360   29.9290   46.0060 C   0  0  0  0  0  0  0  0  0  0  0  0
   59.6950   29.2130   46.6470 C   0  0  0  0  0  0  0  0  0  0  0  0
   59.6016   29.2707   47.7415 H   0  0  0  0  0  0  0  0  0  0  0  0
   59.6930   28.1585   46.3339 H   0  0  0  0  0  0  0  0  0  0  0  0
   60.6371   29.6867   46.3339 H   0  0  0  0  0  0  0  0  0  0  0  0
   57.6290   29.1660   45.2580 C   0  0  0  0  0  0  0  0  0  0  0  0
   57.7055   28.0687   45.2532 H   0  0  0  0  0  0  0  0  0  0  0  0
   59.1820   32.2300   46.9260 C   0  0  0  0  0  0  0  0  0  0  0  0
   59.3560   32.0150   48.1970 N   0  0  0  0  0  0  0  0  0  0  0  0
   58.5040   32.4950   49.1670 O   0  0  0  0  0  0  0  0  0  0  0  0
   58.9290   32.5550   50.5200 C   0  0  0  0  0  0  0  0  0  0  0  0
   59.4848   31.6386   50.7677 H   0  0  0  0  0  0  0  0  0  0  0  0
   58.0467   32.6452   51.1707 H   0  0  0  0  0  0  0  0  0  0  0  0
   59.8330   33.7670   50.7330 C   0  0  0  0  0  0  0  0  0  0  0  0
   60.6836   33.4755   51.3667 H   0  0  0  0  0  0  0  0  0  0  0  0
   59.2482   34.5619   51.2189 H   0  0  0  0  0  0  0  0  0  0  0  0
   60.3210   34.2540   49.4960 O   0  0  0  0  0  0  0  0  0  0  0  0
   61.7360   34.2250   49.4490 C   0  0  0  0  0  0  0  0  0  0  0  0
   62.1400   34.8561   50.2542 H   0  0  0  0  0  0  0  0  0  0  0  0
   62.0722   34.6042   48.4727 H   0  0  0  0  0  0  0  0  0  0  0  0
   62.2380   32.7890   49.6300 C   0  0  0  0  0  0  0  0  0  0  0  0
   61.3799   32.1008   49.6234 H   0  0  0  0  0  0  0  0  0  0  0  0
   62.7726   32.7143   50.5884 H   0  0  0  0  0  0  0  0  0  0  0  0
   63.1640   32.4270   48.5310 N   0  0  0  0  0  0  0  0  0  0  0  0
   64.4760   33.0970   48.6930 C   0  0  0  0  0  0  0  0  0  0  0  0
   64.3195   34.1798   48.8075 H   0  0  0  0  0  0  0  0  0  0  0  0
   65.0928   32.8990   47.8040 H   0  0  0  0  0  0  0  0  0  0  0  0
   65.1930   32.5580   49.9270 C   0  0  0  0  0  0  0  0  0  0  0  0
   64.6948   32.9325   50.8334 H   0  0  0  0  0  0  0  0  0  0  0  0
   65.1609   31.4585   49.9187 H   0  0  0  0  0  0  0  0  0  0  0  0
   66.2403   32.8943   49.9187 H   0  0  0  0  0  0  0  0  0  0  0  0
   62.5710   32.7320   47.2090 C   0  0  0  0  0  0  0  0  0  0  0  0
   62.5677   31.8200   46.5939 H   0  0  0  0  0  0  0  0  0  0  0  0
   61.5422   33.0934   47.3537 H   0  0  0  0  0  0  0  0  0  0  0  0
   63.3830   33.8160   46.4990 C   0  0  0  0  0  0  0  0  0  0  0  0
   63.8664   34.4613   47.2473 H   0  0  0  0  0  0  0  0  0  0  0  0
   64.1522   33.3448   45.8695 H   0  0  0  0  0  0  0  0  0  0  0  0
   62.7145   34.4217   45.8695 H   0  0  0  0  0  0  0  0  0  0  0  0
   59.4610   33.5980   46.3940 C   0  0  0  0  0  0  0  0  0  0  0  0
   59.9906   34.1940   47.1518 H   0  0  0  0  0  0  0  0  0  0  0  0
   60.0934   33.5407   45.4958 H   0  0  0  0  0  0  0  0  0  0  0  0
   58.1170   34.2510   46.0630 C   0  0  0  0  0  0  0  0  0  0  0  0
   57.5160   34.3190   46.9818 H   0  0  0  0  0  0  0  0  0  0  0  0
   58.3103   35.2515   45.6488 H   0  0  0  0  0  0  0  0  0  0  0  0
   57.3390   33.4330   45.0140 C   0  0  0  0  0  0  0  0  0  0  0  0
   56.2857   33.7488   45.0419 H   0  0  0  0  0  0  0  0  0  0  0  0
   57.8164   33.6285   44.0425 H   0  0  0  0  0  0  0  0  0  0  0  0
  1  2  1  0
  2  3  2  0
  3  4  1  0
  4  5  2  0
  5  6  1  0
  6  7  1  0
  7  8  1  0
  7  9  1  0
  7 10  1  0
  6 11  2  0
 11 12  1  0
  5 13  1  0
 13 14  2  0
 14 15  1  0
 15 16  1  0
 16 17  1  0
 16 18  1  0
 16 19  1  0
 19 20  1  0
 19 21  1  0
 19 22  1  0
 22 23  1  0
 23 24  1  0
 23 25  1  0
 23 26  1  0
 26 27  1  0
 26 28  1  0
 26 29  1  0
 29 30  1  0
 30 31  1  0
 30 32  1  0
 30 33  1  0
 33 34  1  0
 33 35  1  0
 33 36  1  0
 29 37  1  0
 37 38  1  0
 37 39  1  0
 37 40  1  0
 40 41  1  0
 40 42  1  0
 40 43  1  0
 13 44  1  0
 44 45  1  0
 44 46  1  0
 44 47  1  0
 47 48  1  0
 47 49  1  0
 47 50  1  0
 50 51  1  0
 50 52  1  0
 11  2  1  0
 50  4  1  0
M  END
>  <UniqueID>  (14) 
14

>  <SMILES>  (14) 
CCN(CC)CCOCCO/N=C1/CCCc2nccc(C)c21

>  <Energy>  (14) 
56.273249035207485

>  <Genealogy>  (14) 
CCN(CC)CCOCCO/N=C1/CCCc2nccc(C)c21 (cis-trans isomerization)
CCN(CC)CCOCCO/N=C1/CCCc2nccc(C)c21 (3D coordinates assigned)
CCN(CC)CCOCCO/N=C1/CCCc2nccc(C)c21 (nonaromatic ring conformer: 56.273249035207485 kcal/mol)

>  <smiles>  (14) 
CCN(CC)CCOCCON=C1CCCc2nccc(C)c21

>  <score_type>  (14) 
oracle

>  <origin>  (14) 
adg

>  <m_score__min__energy>  (14) 
-7.2400000000000002

>  <m_primary>  (14) 
energy

$$$$
14:0
     RDKit          3D

 52 56  0  0  0  0  0  0  0  0999 V2000
   59.9950   32.1160   49.7560 C   0  0  0  0  0  0  0  0  0  0  0  0
   60.6230   31.4790   48.6010 N   0  0  0  0  0  0  0  0  0  0  0  0
   61.5910   31.9740   47.7980 C   0  0  0  0  0  0  0  0  0  0  0  0
   62.3350   33.2550   48.0420 C   0  0  0  0  0  0  0  0  0  0  0  0
   63.8460   33.1540   47.8860 C   0  0  0  0  0  0  0  0  0  0  0  0
   63.0160   33.8330   46.8110 C   0  0  0  0  0  0  0  0  0  0  0  0
   61.8450   31.1510   46.7580 N   0  0  0  0  0  0  0  0  0  0  0  0
   61.0050   30.1360   46.8790 N   0  0  0  0  0  0  0  0  0  0  0  0
   60.2650   30.3350   47.9840 C   0  0  0  0  0  0  0  0  0  0  0  0
   58.9390   29.2440   48.5110 S   0  0  0  0  0  0  0  0  0  0  0  0
   59.3510   27.9070   47.3350 C   0  0  0  0  0  0  0  0  0  0  0  0
   58.1660   27.5920   46.4160 C   0  0  0  0  0  0  0  0  0  0  0  0
   58.5920   27.4990   44.9440 C   0  0  0  0  0  0  0  0  0  0  0  0
   58.1850   28.6980   44.1840 N   0  0  0  0  0  0  0  0  0  0  0  0
   56.7810   29.0560   44.4430 C   0  0  0  0  0  0  0  0  0  0  0  0
   56.6600   30.5700   44.3570 C   0  0  2  0  0  0  0  0  0  0  0  0
   57.2320   31.2290   43.1080 C   0  0  0  0  0  0  0  0  0  0  0  0
   58.0760   31.0960   44.3730 C   0  0  1  0  0  0  0  0  0  0  0  0
   58.3040   32.3260   45.2120 C   0  0  0  0  0  0  0  0  0  0  0  0
   58.0340   32.3110   46.5910 C   0  0  0  0  0  0  0  0  0  0  0  0
   58.2760   33.4470   47.3690 C   0  0  0  0  0  0  0  0  0  0  0  0
   58.8010   34.6000   46.7780 C   0  0  0  0  0  0  0  0  0  0  0  0
   59.0970   34.6150   45.4110 C   0  0  0  0  0  0  0  0  0  0  0  0
   59.6200   35.7290   44.8430 F   0  0  0  0  0  0  0  0  0  0  0  0
   58.8580   33.4780   44.6320 C   0  0  0  0  0  0  0  0  0  0  0  0
   58.9860   29.8860   44.5130 C   0  0  0  0  0  0  0  0  0  0  0  0
   60.4130   31.6920   50.6809 H   0  0  0  0  0  0  0  0  0  0  0  0
   60.1891   33.1984   49.7284 H   0  0  0  0  0  0  0  0  0  0  0  0
   58.9100   31.9373   49.7284 H   0  0  0  0  0  0  0  0  0  0  0  0
   61.6553   33.6432   48.8149 H   0  0  0  0  0  0  0  0  0  0  0  0
   64.5066   33.7523   48.5306 H   0  0  0  0  0  0  0  0  0  0  0  0
   64.5761   32.3314   47.9012 H   0  0  0  0  0  0  0  0  0  0  0  0
   63.0759   34.9231   46.6769 H   0  0  0  0  0  0  0  0  0  0  0  0
   62.8966   33.7055   45.7250 H   0  0  0  0  0  0  0  0  0  0  0  0
   60.9380   29.3350   46.2140 H   0  0  0  0  0  0  0  0  0  0  0  0
   60.2078   28.2210   46.7207 H   0  0  0  0  0  0  0  0  0  0  0  0
   59.5964   27.0015   47.9094 H   0  0  0  0  0  0  0  0  0  0  0  0
   57.7257   26.6309   46.7202 H   0  0  0  0  0  0  0  0  0  0  0  0
   57.4360   28.4096   46.5086 H   0  0  0  0  0  0  0  0  0  0  0  0
   59.6864   27.3994   44.8946 H   0  0  0  0  0  0  0  0  0  0  0  0
   58.0975   26.6239   44.4971 H   0  0  0  0  0  0  0  0  0  0  0  0
   56.1307   28.5859   43.6906 H   0  0  0  0  0  0  0  0  0  0  0  0
   56.4734   28.7034   45.4385 H   0  0  0  0  0  0  0  0  0  0  0  0
   55.7011   30.7177   44.8753 H   0  0  0  0  0  0  0  0  0  0  0  0
   57.4667   30.6212   42.2217 H   0  0  0  0  0  0  0  0  0  0  0  0
   56.9290   32.0604   42.4546 H   0  0  0  0  0  0  0  0  0  0  0  0
   57.6305   31.4016   47.0602 H   0  0  0  0  0  0  0  0  0  0  0  0
   58.0533   33.4336   48.4461 H   0  0  0  0  0  0  0  0  0  0  0  0
   58.9816   35.4968   47.3889 H   0  0  0  0  0  0  0  0  0  0  0  0
   59.1053   33.4867   43.5602 H   0  0  0  0  0  0  0  0  0  0  0  0
   59.8356   29.9714   43.8195 H   0  0  0  0  0  0  0  0  0  0  0  0
   59.3867   29.8155   45.5350 H   0  0  0  0  0  0  0  0  0  0  0  0
  1  2  1  0
  2  3  1  0
  3  4  1  0
  4  5  1  0
  5  6  1  0
  3  7  2  0
  7  8  1  0
  8  9  2  0
  9 10  1  0
 10 11  1  0
 11 12  1  0
 12 13  1  0
 13 14  1  0
 14 15  1  0
 15 16  1  0
 16 17  1  0
 17 18  1  0
 18 19  1  1
 19 20  2  0
 20 21  1  0
 21 22  2  0
 22 23  1  0
 23 24  1  0
 23 25  2  0
 18 26  1  0
  9  2  1  0
 26 14  1  0
  6  4  1  0
 18 16  1  0
 25 19  1  0
  1 27  1  0
  1 28  1  0
  1 29  1  0
  4 30  1  0
  5 31  1  0
  5 32  1  0
  6 33  1  0
  6 34  1  0
  8 35  1  0
 11 36  1  0
 11 37  1  0
 12 38  1  0
 12 39  1  0
 13 40  1  0
 13 41  1  0
 15 42  1  0
 15 43  1  0
 16 44  1  1
 17 45  1  0
 17 46  1  0
 20 47  1  0
 21 48  1  0
 22 49  1  0
 25 50  1  0
 26 51  1  0
 26 52  1  0
M  CHG  1   8   1
M  END
>  <UniqueID>  (15) 
15

>  <SMILES>  (15) 
Cn1c(C2CC2)n[nH+]c1SCCCN1C[C@@H]2C[C@]2(c2cccc(F)c2)C1

>  <Energy>  (15) 
616.5323427188217

>  <Genealogy>  (15) 
Cn1c(C2CC2)n[nH+]c1SCCCN1CC2CC2(c2cccc(F)c2)C1 (protonated)
Cn1c(C2CC2)n[nH+]c1SCCCN1C[C@@H]2C[C@]2(c2cccc(F)c2)C1 (chirality)
Cn1c(C2CC2)n[nH+]c1SCCCN1C[C@@H]2C[C@]2(c2cccc(F)c2)C1 (3D coordinates assigned)
Cn1c(C2CC2)n[nH+]c1SCCCN1C[C@@H]2C[C@]2(c2cccc(F)c2)C1 (nonaromatic ring conformer: 616.5323427188217 kcal/mol)

>  <smiles>  (15) 
Cn1c(SCCCN2CC3CC3(c3cccc(F)c3)C2)nnc1C1CC1

>  <score_type>  (15) 
oracle

>  <origin>  (15) 
adg

>  <m_score__min__energy>  (15) 
-7.9800000000000004

>  <m_primary>  (15) 
energy

$$$$
15:0
     RDKit          3D

 42 42  0  0  0  0  0  0  0  0999 V2000
   57.7700   28.3440   44.0870 C   0  0  0  0  0  0  0  0  0  0  0  0
   57.0610   29.0490   45.2400 C   0  0  0  0  0  0  0  0  0  0  0  0
   56.6730   30.4120   44.8510 N   0  0  0  0  0  0  0  0  0  0  0  0
   56.7150   30.5860   43.3930 C   0  0  0  0  0  0  0  0  0  0  0  0
   57.8040   31.5850   43.0130 C   0  0  0  0  0  0  0  0  0  0  0  0
   58.4070   32.1030   44.1840 O   0  0  0  0  0  0  0  0  0  0  0  0
   58.4170   33.5190   44.1750 C   0  0  0  0  0  0  0  0  0  0  0  0
   57.6420   34.1130   45.3590 C   0  0  0  0  0  0  0  0  0  0  0  0
   57.3080   33.0550   46.3190 N   0  0  0  0  0  0  0  0  0  0  0  0
   58.1310   33.1460   47.5310 C   0  0  0  0  0  0  0  0  0  0  0  0
   59.0050   31.8920   47.6680 C   0  0  1  0  0  0  0  0  0  0  0  0
   58.5420   30.9070   46.7800 O   0  0  0  0  0  0  0  0  0  0  0  0
   60.4560   32.2230   47.3790 C   0  0  0  0  0  0  0  0  0  0  0  0
   60.8200   33.4930   46.8960 C   0  0  0  0  0  0  0  0  0  0  0  0
   62.1670   33.8160   46.7040 C   0  0  0  0  0  0  0  0  0  0  0  0
   63.1620   32.8800   46.9990 C   0  0  0  0  0  0  0  0  0  0  0  0
   62.8100   31.6190   47.4870 C   0  0  0  0  0  0  0  0  0  0  0  0
   61.4650   31.2910   47.6800 C   0  0  0  0  0  0  0  0  0  0  0  0
   58.4959   27.6222   44.4894 H   0  0  0  0  0  0  0  0  0  0  0  0
   57.0293   27.8140   43.4703 H   0  0  0  0  0  0  0  0  0  0  0  0
   58.2958   29.0877   43.4703 H   0  0  0  0  0  0  0  0  0  0  0  0
   56.1598   28.4802   45.5124 H   0  0  0  0  0  0  0  0  0  0  0  0
   57.7477   29.1062   46.0974 H   0  0  0  0  0  0  0  0  0  0  0  0
   57.3720   31.0710   45.2690 H   0  0  0  0  0  0  0  0  0  0  0  0
   56.9284   29.6174   42.9174 H   0  0  0  0  0  0  0  0  0  0  0  0
   55.7422   30.9670   43.0487 H   0  0  0  0  0  0  0  0  0  0  0  0
   58.5665   31.0796   42.4021 H   0  0  0  0  0  0  0  0  0  0  0  0
   57.3569   32.4097   42.4386 H   0  0  0  0  0  0  0  0  0  0  0  0
   59.4597   33.8660   44.2245 H   0  0  0  0  0  0  0  0  0  0  0  0
   57.9266   33.8537   43.2490 H   0  0  0  0  0  0  0  0  0  0  0  0
   58.2620   34.8737   45.8558 H   0  0  0  0  0  0  0  0  0  0  0  0
   56.7135   34.5729   44.9897 H   0  0  0  0  0  0  0  0  0  0  0  0
   57.4910   32.1290   45.8650 H   0  0  0  0  0  0  0  0  0  0  0  0
   58.7764   34.0345   47.4671 H   0  0  0  0  0  0  0  0  0  0  0  0
   57.4730   33.2249   48.4089 H   0  0  0  0  0  0  0  0  0  0  0  0
   58.9395   31.5142   48.6990 H   0  0  0  0  0  0  0  0  0  0  0  0
   58.5190   31.3240   45.8790 H   0  0  0  0  0  0  0  0  0  0  0  0
   60.0412   34.2357   46.6682 H   0  0  0  0  0  0  0  0  0  0  0  0
   62.4440   34.8089   46.3200 H   0  0  0  0  0  0  0  0  0  0  0  0
   64.2210   33.1358   46.8472 H   0  0  0  0  0  0  0  0  0  0  0  0
   63.5932   30.8826   47.7199 H   0  0  0  0  0  0  0  0  0  0  0  0
   61.1944   30.2985   48.0694 H   0  0  0  0  0  0  0  0  0  0  0  0
  1  2  1  0
  2  3  1  0
  3  4  1  0
  4  5  1  0
  5  6  1  0
  6  7  1  0
  7  8  1  0
  8  9  1  0
  9 10  1  0
 10 11  1  0
 11 12  1  0
 11 13  1  0
 13 14  2  0
 14 15  1  0
 15 16  2  0
 16 17  1  0
 17 18  2  0
 18 13  1  0
  1 19  1  0
  1 20  1  0
  1 21  1  0
  2 22  1  0
  2 23  1  0
  3 24  1  0
  4 25  1  0
  4 26  1  0
  5 27  1  0
  5 28  1  0
  7 29  1  0
  7 30  1  0
  8 31  1  0
  8 32  1  0
  9 33  1  0
 10 34  1  0
 10 35  1  0
 11 36  1  1
 12 37  1  0
 14 38  1  0
 15 39  1  0
 16 40  1  0
 17 41  1  0
 18 42  1  0
M  END
>  <UniqueID>  (16) 
16

>  <SMILES>  (16) 
CCNCCOCCNC[C@@H](O)c1ccccc1

>  <Energy>  (16) 
30.73972813672116

>  <Genealogy>  (16) 
CCNCCOCCNC[C@@H](O)c1ccccc1 (chirality)
CCNCCOCCNC[C@@H](O)c1ccccc1 (3D coordinates assigned)
CCNCCOCCNC[C@@H](O)c1ccccc1 (optimized conformer: 30.73972813672116 kcal/mol)

>  <smiles>  (16) 
CCNCCOCCNCC(O)c1ccccc1

>  <score_type>  (16) 
oracle

>  <origin>  (16) 
adg

>  <m_score__min__energy>  (16) 
-4.25

>  <m_primary>  (16) 
energy

$$$$
16:0
     RDKit          3D

101105  0  0  0  0  0  0  0  0999 V2000
   56.8820   34.2890   44.8580 C   0  0  0  0  0  0  0  0  0  0  0  0
   58.3770   34.5760   44.8400 C   0  0  0  0  0  0  0  0  0  0  0  0
   59.0360   34.0860   46.0790 N   0  0  0  0  0  0  0  0  0  0  0  0
   59.8650   35.1710   46.6640 C   0  0  0  0  0  0  0  0  0  0  0  0
   60.0450   34.9420   48.1660 C   0  0  0  0  0  0  0  0  0  0  0  0
   58.0010   33.6000   47.0290 C   0  0  0  0  0  0  0  0  0  0  0  0
   58.2690   32.1940   47.6090 C   0  0  0  0  0  0  0  0  0  0  0  0
   59.3920   31.4750   46.9660 N   0  0  0  0  0  0  0  0  0  0  0  0
   59.0500   30.0940   46.6330 C   0  0  0  0  0  0  0  0  0  0  0  0
   58.3010   29.8160   45.4510 C   0  0  0  0  0  0  0  0  0  0  0  0
   57.8400   30.8540   44.5980 C   0  0  0  0  0  0  0  0  0  0  0  0
   57.1950   30.5690   43.3980 C   0  0  0  0  0  0  0  0  0  0  0  0
   56.9950   29.2540   43.0110 C   0  0  0  0  0  0  0  0  0  0  0  0
   57.3980   28.2140   43.8440 C   0  0  0  0  0  0  0  0  0  0  0  0
   58.0110   28.4690   45.0980 C   0  0  0  0  0  0  0  0  0  0  0  0
   58.3340   27.4400   45.9560 N   0  0  0  0  0  0  0  0  0  0  0  0
   57.7360   26.1000   45.7530 C   0  0  0  0  0  0  0  0  0  0  0  0
   59.1660   27.6670   47.0320 C   0  0  0  0  0  0  0  0  0  0  0  0
   59.7180   26.5850   47.7620 C   0  0  0  0  0  0  0  0  0  0  0  0
   60.4580   26.7900   48.9180 C   0  0  0  0  0  0  0  0  0  0  0  0
   60.6970   28.0860   49.3790 C   0  0  0  0  0  0  0  0  0  0  0  0
   61.3930   28.3430   50.5750 O   0  0  0  0  0  0  0  0  0  0  0  0
   60.8220   28.2910   51.8840 C   0  0  0  0  0  0  0  0  0  0  0  0
   59.5150   29.1140   51.9150 C   0  0  0  0  0  0  0  0  0  0  0  0
   59.2080   29.7720   53.2210 N   0  0  2  0  0  0  0  0  0  0  0  0
   59.4280   28.8290   54.3510 C   0  0  0  0  0  0  0  0  0  0  0  0
   57.8310   30.3050   53.2670 C   0  0  0  0  0  0  0  0  0  0  0  0
   57.9210   31.6010   54.0370 C   0  0  0  0  0  0  0  0  0  0  0  0
   59.2440   32.1710   53.7030 N   0  0  2  0  0  0  0  0  0  0  0  0
   59.7810   32.9070   54.8740 C   0  0  0  0  0  0  0  0  0  0  0  0
   59.0790   33.0970   52.5310 C   0  0  0  0  0  0  0  0  0  0  0  0
   60.1720   33.0250   51.4790 C   0  0  0  0  0  0  0  0  0  0  0  0
   60.1000   32.1290   50.4070 C   0  0  0  0  0  0  0  0  0  0  0  0
   61.1250   32.0810   49.4550 C   0  0  0  0  0  0  0  0  0  0  0  0
   62.2730   32.8960   49.5700 C   0  0  0  0  0  0  0  0  0  0  0  0
   63.3760   32.8280   48.4920 C   0  0  0  0  0  0  0  0  0  0  0  0
   63.2240   31.6080   47.5460 C   0  0  0  0  0  0  0  0  0  0  0  0
   63.3360   34.1020   47.6150 C   0  0  0  0  0  0  0  0  0  0  0  0
   64.7530   32.7240   49.1850 C   0  0  0  0  0  0  0  0  0  0  0  0
   62.3450   33.7750   50.6750 C   0  0  0  0  0  0  0  0  0  0  0  0
   61.3140   33.8290   51.6140 C   0  0  0  0  0  0  0  0  0  0  0  0
   60.0830   30.9730   53.3990 C   0  0  0  0  0  0  0  0  0  0  0  0
   60.2360   29.1720   48.6300 C   0  0  0  0  0  0  0  0  0  0  0  0
   59.4920   28.9960   47.4310 C   0  0  0  0  0  0  0  0  0  0  0  0
   56.5340   34.2222   45.8994 H   0  0  0  0  0  0  0  0  0  0  0  0
   56.3466   35.1008   44.3438 H   0  0  0  0  0  0  0  0  0  0  0  0
   56.6852   33.3367   44.3438 H   0  0  0  0  0  0  0  0  0  0  0  0
   58.8279   34.0735   43.9716 H   0  0  0  0  0  0  0  0  0  0  0  0
   58.5208   35.6648   44.7776 H   0  0  0  0  0  0  0  0  0  0  0  0
   60.8509   35.1790   46.1763 H   0  0  0  0  0  0  0  0  0  0  0  0
   59.3611   36.1357   46.5043 H   0  0  0  0  0  0  0  0  0  0  0  0
   59.4590   35.6876   48.7234 H   0  0  0  0  0  0  0  0  0  0  0  0
   59.6966   33.9319   48.4272 H   0  0  0  0  0  0  0  0  0  0  0  0
   61.1088   35.0419   48.4272 H   0  0  0  0  0  0  0  0  0  0  0  0
   57.9431   34.3110   47.8663 H   0  0  0  0  0  0  0  0  0  0  0  0
   57.0636   33.5278   46.4580 H   0  0  0  0  0  0  0  0  0  0  0  0
   58.4960   32.3004   48.6801 H   0  0  0  0  0  0  0  0  0  0  0  0
   57.3639   31.5976   47.4217 H   0  0  0  0  0  0  0  0  0  0  0  0
   59.7750   32.0300   46.1770 H   0  0  0  0  0  0  0  0  0  0  0  0
   60.2070   31.4590   47.6190 H   0  0  0  0  0  0  0  0  0  0  0  0
   57.9957   31.9027   44.8913 H   0  0  0  0  0  0  0  0  0  0  0  0
   56.8433   31.3897   42.7555 H   0  0  0  0  0  0  0  0  0  0  0  0
   56.5176   29.0315   42.0453 H   0  0  0  0  0  0  0  0  0  0  0  0
   57.2380   27.1739   43.5237 H   0  0  0  0  0  0  0  0  0  0  0  0
   57.5301   25.6385   46.7301 H   0  0  0  0  0  0  0  0  0  0  0  0
   56.7968   26.1992   45.1891 H   0  0  0  0  0  0  0  0  0  0  0  0
   58.4371   25.4672   45.1891 H   0  0  0  0  0  0  0  0  0  0  0  0
   59.5560   25.5577   47.4036 H   0  0  0  0  0  0  0  0  0  0  0  0
   60.8576   25.9284   49.4730 H   0  0  0  0  0  0  0  0  0  0  0  0
   60.6020   27.2455   52.1457 H   0  0  0  0  0  0  0  0  0  0  0  0
   61.5344   28.7113   52.6092 H   0  0  0  0  0  0  0  0  0  0  0  0
   59.5888   29.8987   51.1477 H   0  0  0  0  0  0  0  0  0  0  0  0
   58.6994   28.3983   51.7348 H   0  0  0  0  0  0  0  0  0  0  0  0
   59.3033   29.3636   55.3043 H   0  0  0  0  0  0  0  0  0  0  0  0
   58.6970   28.0091   54.2920 H   0  0  0  0  0  0  0  0  0  0  0  0
   60.4463   28.4173   54.2920 H   0  0  0  0  0  0  0  0  0  0  0  0
   57.4564   30.4886   52.2492 H   0  0  0  0  0  0  0  0  0  0  0  0
   57.1368   29.5968   53.7430 H   0  0  0  0  0  0  0  0  0  0  0  0
   57.1184   32.2872   53.7289 H   0  0  0  0  0  0  0  0  0  0  0  0
   57.8087   31.4400   55.1193 H   0  0  0  0  0  0  0  0  0  0  0  0
   59.4313   32.4277   55.8002 H   0  0  0  0  0  0  0  0  0  0  0  0
   60.8805   32.8901   54.8450 H   0  0  0  0  0  0  0  0  0  0  0  0
   59.4294   33.9489   54.8450 H   0  0  0  0  0  0  0  0  0  0  0  0
   58.1229   32.8577   52.0426 H   0  0  0  0  0  0  0  0  0  0  0  0
   59.1249   34.1157   52.9435 H   0  0  0  0  0  0  0  0  0  0  0  0
   59.2331   31.4586   50.3117 H   0  0  0  0  0  0  0  0  0  0  0  0
   61.0347   31.3948   48.6001 H   0  0  0  0  0  0  0  0  0  0  0  0
   63.1099   30.6920   48.1443 H   0  0  0  0  0  0  0  0  0  0  0  0
   62.3359   31.7445   46.9114 H   0  0  0  0  0  0  0  0  0  0  0  0
   64.1184   31.5224   46.9114 H   0  0  0  0  0  0  0  0  0  0  0  0
   63.3081   34.9915   48.2616 H   0  0  0  0  0  0  0  0  0  0  0  0
   64.2334   34.1383   46.9800 H   0  0  0  0  0  0  0  0  0  0  0  0
   62.4380   34.0820   46.9800 H   0  0  0  0  0  0  0  0  0  0  0  0
   64.6159   32.7344   50.2764 H   0  0  0  0  0  0  0  0  0  0  0  0
   65.2441   31.7862   48.8860 H   0  0  0  0  0  0  0  0  0  0  0  0
   65.3793   33.5774   48.8860 H   0  0  0  0  0  0  0  0  0  0  0  0
   63.2246   34.4244   50.7961 H   0  0  0  0  0  0  0  0  0  0  0  0
   61.3978   34.5117   52.4724 H   0  0  0  0  0  0  0  0  0  0  0  0
   60.6515   31.1507   52.4742 H   0  0  0  0  0  0  0  0  0  0  0  0
   60.7775   30.7954   54.2333 H   0  0  0  0  0  0  0  0  0  0  0  0
   60.4549   30.1923   48.9779 H   0  0  0  0  0  0  0  0  0  0  0  0
  1  2  1  0
  2  3  1  0
  3  4  1  0
  4  5  1  0
  3  6  1  0
  6  7  1  0
  7  8  1  0
  8  9  1  0
  9 10  2  0
 10 11  1  0
 11 12  2  0
 12 13  1  0
 13 14  2  0
 14 15  1  0
 15 16  2  0
 16 17  1  0
 16 18  1  0
 18 19  2  0
 19 20  1  0
 20 21  2  0
 21 22  1  0
 22 23  1  0
 23 24  1  0
 25 24  1  6
 25 26  1  0
 25 27  1  0
 27 28  1  0
 28 29  1  0
 29 30  1  1
 29 31  1  0
 31 32  1  0
 32 33  2  0
 33 34  1  0
 34 35  2  0
 35 36  1  0
 36 37  1  0
 36 38  1  0
 36 39  1  0
 35 40  1  0
 40 41  2  0
 29 42  1  0
 21 43  1  0
 43 44  2  0
 44  9  1  0
 15 10  1  0
 44 18  1  0
 42 25  1  0
 41 32  1  0
  1 45  1  0
  1 46  1  0
  1 47  1  0
  2 48  1  0
  2 49  1  0
  4 50  1  0
  4 51  1  0
  5 52  1  0
  5 53  1  0
  5 54  1  0
  6 55  1  0
  6 56  1  0
  7 57  1  0
  7 58  1  0
  8 59  1  0
  8 60  1  0
 11 61  1  0
 12 62  1  0
 13 63  1  0
 14 64  1  0
 17 65  1  0
 17 66  1  0
 17 67  1  0
 19 68  1  0
 20 69  1  0
 23 70  1  0
 23 71  1  0
 24 72  1  0
 24 73  1  0
 26 74  1  0
 26 75  1  0
 26 76  1  0
 27 77  1  0
 27 78  1  0
 28 79  1  0
 28 80  1  0
 30 81  1  0
 30 82  1  0
 30 83  1  0
 31 84  1  0
 31 85  1  0
 33 86  1  0
 34 87  1  0
 37 88  1  0
 37 89  1  0
 37 90  1  0
 38 91  1  0
 38 92  1  0
 38 93  1  0
 39 94  1  0
 39 95  1  0
 39 96  1  0
 40 97  1  0
 41 98  1  0
 42 99  1  0
 42100  1  0
 43101  1  0
M  CHG  4   8   1  16   1  25   1  29   1
M  END
>  <UniqueID>  (17) 
17

>  <SMILES>  (17) 
CCN(CC)CC[NH2+]c1c2ccccc2[n+](C)c2ccc(OCC[N@+]3(C)CC[N@+](C)(Cc4ccc(C(C)(C)C)cc4)C3)cc12

>  <Energy>  (17) 
158.84154967270305

>  <Genealogy>  (17) 
CCN(CC)CC[NH2+]c1c2ccccc2[n+](C)c2ccc(OCC[N+]3(C)CC[N+](C)(Cc4ccc(C(C)(C)C)cc4)C3)cc12 (protonated)
CCN(CC)CC[NH2+]c1c2ccccc2[n+](C)c2ccc(OCC[N@+]3(C)CC[N@+](C)(Cc4ccc(C(C)(C)C)cc4)C3)cc12 (chirality)
CCN(CC)CC[NH2+]c1c2ccccc2[n+](C)c2ccc(OCC[N@+]3(C)CC[N@+](C)(Cc4ccc(C(C)(C)C)cc4)C3)cc12 (3D coordinates assigned)
CCN(CC)CC[NH2+]c1c2ccccc2[n+](C)c2ccc(OCC[N@+]3(C)CC[N@+](C)(Cc4ccc(C(C)(C)C)cc4)C3)cc12 (nonaromatic ring conformer: 158.84154967270305 kcal/mol)

>  <smiles>  (17) 
CCN(CC)CCNc1c2ccccc2[n+](C)c2ccc(OCC[N+]3(C)CC[N+](C)(Cc4ccc(C(C)(C)C)cc4)C3)cc12

>  <score_type>  (17) 
oracle

>  <origin>  (17) 
adg

>  <m_score__min__energy>  (17) 
-3.0600000000000001

>  <m_primary>  (17) 
energy

$$$$
17:0
     RDKit          3D

 61 63  0  0  0  0  0  0  0  0999 V2000
   58.5340   31.3320   50.0340 C   0  0  0  0  0  0  0  0  0  0  0  0
   59.0600   32.7500   49.8260 C   0  0  0  0  0  0  0  0  0  0  0  0
   60.5090   32.8620   50.1230 N   0  0  0  0  0  0  0  0  0  0  0  0
   60.7290   32.6330   51.5720 C   0  0  0  0  0  0  0  0  0  0  0  0
   59.8030   33.5050   52.4190 C   0  0  0  0  0  0  0  0  0  0  0  0
   61.0560   34.1810   49.7060 C   0  0  0  0  0  0  0  0  0  0  0  0
   62.5250   34.3440   50.1270 C   0  0  0  0  0  0  0  0  0  0  0  0
   63.5110   33.5520   49.2530 C   0  0  0  0  0  0  0  0  0  0  0  0
   63.1860   33.6730   47.8220 N   0  0  0  0  0  0  0  0  0  0  0  0
   63.5440   32.4300   47.1030 C   0  0  0  0  0  0  0  0  0  0  0  0
   62.5490   31.2770   47.3680 C   0  0  0  0  0  0  0  0  0  0  0  0
   61.2200   31.6960   47.8640 N   0  0  0  0  0  0  0  0  0  0  0  0
   60.1160   31.4230   46.9500 C   0  0  0  0  0  0  0  0  0  0  0  0
   59.6260   30.0970   46.7540 C   0  0  0  0  0  0  0  0  0  0  0  0
   60.1070   28.9920   47.5060 C   0  0  0  0  0  0  0  0  0  0  0  0
   59.6160   27.7060   47.3010 C   0  0  0  0  0  0  0  0  0  0  0  0
   58.6190   27.4820   46.3680 C   0  0  0  0  0  0  0  0  0  0  0  0
   58.1220   28.5390   45.6150 C   0  0  0  0  0  0  0  0  0  0  0  0
   58.6330   29.8550   45.7600 C   0  0  0  0  0  0  0  0  0  0  0  0
   58.1780   30.8850   44.9600 N   0  0  0  0  0  0  0  0  0  0  0  0
   57.3810   30.5830   43.7480 C   0  0  0  0  0  0  0  0  0  0  0  0
   58.4960   32.1910   45.2640 C   0  0  0  0  0  0  0  0  0  0  0  0
   57.8120   33.2730   44.6500 C   0  0  0  0  0  0  0  0  0  0  0  0
   58.1980   34.5900   44.8740 C   0  0  0  0  0  0  0  0  0  0  0  0
   59.2700   34.8660   45.7080 C   0  0  0  0  0  0  0  0  0  0  0  0
   59.9280   33.8300   46.3650 C   0  0  0  0  0  0  0  0  0  0  0  0
   59.5200   32.4820   46.2060 C   0  0  0  0  0  0  0  0  0  0  0  0
   58.4568   31.1239   51.1114 H   0  0  0  0  0  0  0  0  0  0  0  0
   57.5410   31.2376   49.5702 H   0  0  0  0  0  0  0  0  0  0  0  0
   59.2252   30.6128   49.5702 H   0  0  0  0  0  0  0  0  0  0  0  0
   58.8901   33.0403   48.7787 H   0  0  0  0  0  0  0  0  0  0  0  0
   58.5221   33.4136   50.5191 H   0  0  0  0  0  0  0  0  0  0  0  0
   60.5337   31.5750   51.8012 H   0  0  0  0  0  0  0  0  0  0  0  0
   61.7696   32.8974   51.8112 H   0  0  0  0  0  0  0  0  0  0  0  0
   59.9993   33.3202   53.4854 H   0  0  0  0  0  0  0  0  0  0  0  0
   59.9873   34.5651   52.1906 H   0  0  0  0  0  0  0  0  0  0  0  0
   58.7558   33.2574   52.1906 H   0  0  0  0  0  0  0  0  0  0  0  0
   60.9870   34.2660   48.6115 H   0  0  0  0  0  0  0  0  0  0  0  0
   60.4677   34.9686   50.1995 H   0  0  0  0  0  0  0  0  0  0  0  0
   62.7871   35.4106   50.0666 H   0  0  0  0  0  0  0  0  0  0  0  0
   62.6119   33.9471   51.1492 H   0  0  0  0  0  0  0  0  0  0  0  0
   64.5271   33.9379   49.4220 H   0  0  0  0  0  0  0  0  0  0  0  0
   63.4420   32.4904   49.5326 H   0  0  0  0  0  0  0  0  0  0  0  0
   63.7470   34.4730   47.4470 H   0  0  0  0  0  0  0  0  0  0  0  0
   63.5588   32.6403   46.0234 H   0  0  0  0  0  0  0  0  0  0  0  0
   64.5298   32.1076   47.4695 H   0  0  0  0  0  0  0  0  0  0  0  0
   62.4036   30.7291   46.4253 H   0  0  0  0  0  0  0  0  0  0  0  0
   62.9948   30.6654   48.1663 H   0  0  0  0  0  0  0  0  0  0  0  0
   61.2610   32.6890   48.1690 H   0  0  0  0  0  0  0  0  0  0  0  0
   61.0360   31.2050   48.7680 H   0  0  0  0  0  0  0  0  0  0  0  0
   60.8843   29.1563   48.2668 H   0  0  0  0  0  0  0  0  0  0  0  0
   60.0218   26.8650   47.8825 H   0  0  0  0  0  0  0  0  0  0  0  0
   58.2199   26.4674   46.2223 H   0  0  0  0  0  0  0  0  0  0  0  0
   57.3153   28.3516   44.8911 H   0  0  0  0  0  0  0  0  0  0  0  0
   56.3905   30.2077   44.0446 H   0  0  0  0  0  0  0  0  0  0  0  0
   57.2622   31.4984   43.1498 H   0  0  0  0  0  0  0  0  0  0  0  0
   57.8987   29.8187   43.1498 H   0  0  0  0  0  0  0  0  0  0  0  0
   56.9609   33.0657   43.9847 H   0  0  0  0  0  0  0  0  0  0  0  0
   57.6524   35.4130   44.3892 H   0  0  0  0  0  0  0  0  0  0  0  0
   59.6013   35.9051   45.8510 H   0  0  0  0  0  0  0  0  0  0  0  0
   60.7808   34.0620   47.0200 H   0  0  0  0  0  0  0  0  0  0  0  0
  1  2  1  0
  2  3  1  0
  3  4  1  0
  4  5  1  0
  3  6  1  0
  6  7  1  0
  7  8  1  0
  8  9  1  0
  9 10  1  0
 10 11  1  0
 11 12  1  0
 12 13  1  0
 13 14  2  0
 14 15  1  0
 15 16  2  0
 16 17  1  0
 17 18  2  0
 18 19  1  0
 19 20  2  0
 20 21  1  0
 20 22  1  0
 22 23  2  0
 23 24  1  0
 24 25  2  0
 25 26  1  0
 26 27  2  0
 27 13  1  0
 19 14  1  0
 27 22  1  0
  1 28  1  0
  1 29  1  0
  1 30  1  0
  2 31  1  0
  2 32  1  0
  4 33  1  0
  4 34  1  0
  5 35  1  0
  5 36  1  0
  5 37  1  0
  6 38  1  0
  6 39  1  0
  7 40  1  0
  7 41  1  0
  8 42  1  0
  8 43  1  0
  9 44  1  0
 10 45  1  0
 10 46  1  0
 11 47  1  0
 11 48  1  0
 12 49  1  0
 12 50  1  0
 15 51  1  0
 16 52  1  0
 17 53  1  0
 18 54  1  0
 21 55  1  0
 21 56  1  0
 21 57  1  0
 23 58  1  0
 24 59  1  0
 25 60  1  0
 26 61  1  0
M  CHG  2  12   1  20   1
M  END
>  <UniqueID>  (18) 
18

>  <SMILES>  (18) 
CCN(CC)CCCNCC[NH2+]c1c2ccccc2[n+](C)c2ccccc12

>  <Energy>  (18) 
85.39567508381296

>  <Genealogy>  (18) 
CCN(CC)CCCNCC[NH2+]c1c2ccccc2[n+](C)c2ccccc12 (protonated)
CCN(CC)CCCNCC[NH2+]c1c2ccccc2[n+](C)c2ccccc12 (3D coordinates assigned)
CCN(CC)CCCNCC[NH2+]c1c2ccccc2[n+](C)c2ccccc12 (optimized conformer: 85.39567508381296 kcal/mol)

>  <smiles>  (18) 
CCN(CC)CCCNCCNc1c2ccccc2[n+](C)c2ccccc12

>  <score_type>  (18) 
oracle

>  <origin>  (18) 
adg

>  <m_score__min__energy>  (18) 
-3.7400000000000002

>  <m_primary>  (18) 
energy

$$$$
18:0
     RDKit          3D

 63 67  0  0  0  0  0  0  0  0999 V2000
   59.3330   34.9690   47.2280 C   0  0  0  0  0  0  0  0  0  0  0  0
   60.1940   34.3300   46.1430 C   0  0  0  0  0  0  0  0  0  0  0  0
   59.3490   33.6150   45.1760 N   0  0  0  0  0  0  0  0  0  0  0  0
   57.9290   33.9540   45.3520 C   0  0  0  0  0  0  0  0  0  0  0  0
   57.0200   32.8210   44.8430 C   0  0  0  0  0  0  0  0  0  0  0  0
   57.7380   31.7460   44.1310 N   0  0  0  0  0  0  0  0  0  0  0  0
   57.0070   30.4700   44.0750 C   0  0  0  0  0  0  0  0  0  0  0  0
   57.7200   29.3980   44.8560 C   0  0  0  0  0  0  0  0  0  0  0  0
   57.6050   28.0400   44.4930 C   0  0  0  0  0  0  0  0  0  0  0  0
   58.2420   27.0250   45.2550 C   0  0  0  0  0  0  0  0  0  0  0  0
   58.1020   25.6420   44.8900 N   0  0  0  0  0  0  0  0  0  0  0  0
   57.4220   25.2900   43.6380 C   0  0  0  0  0  0  0  0  0  0  0  0
   56.7190   23.9150   43.7330 C   0  0  0  0  0  0  0  0  0  0  0  0
   56.9750   23.2240   44.9440 O   0  0  0  0  0  0  0  0  0  0  0  0
   58.3600   23.2170   45.2110 C   0  0  0  0  0  0  0  0  0  0  0  0
   58.7900   24.6090   45.6720 C   0  0  0  0  0  0  0  0  0  0  0  0
   59.0090   27.3780   46.3860 C   0  0  0  0  0  0  0  0  0  0  0  0
   59.1040   28.7230   46.7190 C   0  0  0  0  0  0  0  0  0  0  0  0
   59.7680   29.3460   47.7490 C   0  0  0  0  0  0  0  0  0  0  0  0
   59.4890   30.7000   47.5740 C   0  0  0  0  0  0  0  0  0  0  0  0
   60.0120   31.8020   48.4180 C   0  0  0  0  0  0  0  0  0  0  0  0
   59.1710   32.3260   49.4170 C   0  0  0  0  0  0  0  0  0  0  0  0
   59.6300   33.3040   50.2980 C   0  0  0  0  0  0  0  0  0  0  0  0
   60.9350   33.7820   50.2010 C   0  0  0  0  0  0  0  0  0  0  0  0
   61.7900   33.3030   49.2000 C   0  0  0  0  0  0  0  0  0  0  0  0
   63.0950   33.8080   49.0930 C   0  0  0  0  0  0  0  0  0  0  0  0
   63.9450   33.3580   48.0800 C   0  0  0  0  0  0  0  0  0  0  0  0
   63.4970   32.4130   47.1580 C   0  0  0  0  0  0  0  0  0  0  0  0
   62.1980   31.9040   47.2490 C   0  0  0  0  0  0  0  0  0  0  0  0
   61.3320   32.3140   48.2850 C   0  0  0  0  0  0  0  0  0  0  0  0
   58.7200   30.8790   46.5140 O   0  0  0  0  0  0  0  0  0  0  0  0
   58.4830   29.7000   45.9900 C   0  0  0  0  0  0  0  0  0  0  0  0
   59.7184   34.6830   48.2178 H   0  0  0  0  0  0  0  0  0  0  0  0
   59.3651   36.0636   47.1243 H   0  0  0  0  0  0  0  0  0  0  0  0
   58.2946   34.6212   47.1243 H   0  0  0  0  0  0  0  0  0  0  0  0
   60.7598   35.1148   45.6197 H   0  0  0  0  0  0  0  0  0  0  0  0
   60.8862   33.6145   46.6108 H   0  0  0  0  0  0  0  0  0  0  0  0
   59.4540   32.5910   45.3690 H   0  0  0  0  0  0  0  0  0  0  0  0
   57.7297   34.1214   46.4208 H   0  0  0  0  0  0  0  0  0  0  0  0
   57.7127   34.8624   44.7706 H   0  0  0  0  0  0  0  0  0  0  0  0
   56.5036   32.3779   45.7072 H   0  0  0  0  0  0  0  0  0  0  0  0
   56.3259   33.2724   44.1188 H   0  0  0  0  0  0  0  0  0  0  0  0
   58.6730   31.5880   44.5710 H   0  0  0  0  0  0  0  0  0  0  0  0
   56.0019   30.6136   44.4983 H   0  0  0  0  0  0  0  0  0  0  0  0
   56.9439   30.1511   43.0241 H   0  0  0  0  0  0  0  0  0  0  0  0
   57.0138   27.7633   43.6076 H   0  0  0  0  0  0  0  0  0  0  0  0
   56.6693   26.0599   43.4129 H   0  0  0  0  0  0  0  0  0  0  0  0
   58.1791   25.2327   42.8421 H   0  0  0  0  0  0  0  0  0  0  0  0
   55.6339   24.0736   43.6469 H   0  0  0  0  0  0  0  0  0  0  0  0
   57.1196   23.2934   42.9186 H   0  0  0  0  0  0  0  0  0  0  0  0
   58.5786   22.4839   46.0014 H   0  0  0  0  0  0  0  0  0  0  0  0
   58.9108   22.9433   44.2990 H   0  0  0  0  0  0  0  0  0  0  0  0
   58.5386   24.7322   46.7358 H   0  0  0  0  0  0  0  0  0  0  0  0
   59.8751   24.7140   45.5253 H   0  0  0  0  0  0  0  0  0  0  0  0
   59.5172   26.6094   46.9868 H   0  0  0  0  0  0  0  0  0  0  0  0
   60.3814   28.8805   48.5345 H   0  0  0  0  0  0  0  0  0  0  0  0
   58.1377   31.9591   49.5040 H   0  0  0  0  0  0  0  0  0  0  0  0
   58.9583   33.7003   51.0738 H   0  0  0  0  0  0  0  0  0  0  0  0
   61.2955   34.5387   50.9134 H   0  0  0  0  0  0  0  0  0  0  0  0
   63.4504   34.5621   49.8106 H   0  0  0  0  0  0  0  0  0  0  0  0
   64.9703   33.7502   48.0095 H   0  0  0  0  0  0  0  0  0  0  0  0
   64.1671   32.0671   46.3572 H   0  0  0  0  0  0  0  0  0  0  0  0
   61.8467   31.1750   46.5039 H   0  0  0  0  0  0  0  0  0  0  0  0
  1  2  1  0
  2  3  1  0
  3  4  1  0
  4  5  1  0
  5  6  1  0
  6  7  1  0
  7  8  1  0
  8  9  2  0
  9 10  1  0
 10 11  1  0
 11 12  1  0
 12 13  1  0
 13 14  1  0
 14 15  1  0
 15 16  1  0
 10 17  2  0
 17 18  1  0
 18 19  1  0
 19 20  2  0
 20 21  1  0
 21 22  2  0
 22 23  1  0
 23 24  2  0
 24 25  1  0
 25 26  2  0
 26 27  1  0
 27 28  2  0
 28 29  1  0
 29 30  2  0
 20 31  1  0
 31 32  1  0
 32  8  1  0
 16 11  1  0
 32 18  2  0
 30 21  1  0
 30 25  1  0
  1 33  1  0
  1 34  1  0
  1 35  1  0
  2 36  1  0
  2 37  1  0
  3 38  1  0
  4 39  1  0
  4 40  1  0
  5 41  1  0
  5 42  1  0
  6 43  1  0
  7 44  1  0
  7 45  1  0
  9 46  1  0
 12 47  1  0
 12 48  1  0
 13 49  1  0
 13 50  1  0
 15 51  1  0
 15 52  1  0
 16 53  1  0
 16 54  1  0
 17 55  1  0
 19 56  1  0
 22 57  1  0
 23 58  1  0
 24 59  1  0
 26 60  1  0
 27 61  1  0
 28 62  1  0
 29 63  1  0
M  END
>  <UniqueID>  (19) 
19

>  <SMILES>  (19) 
CCNCCNCc1cc(N2CCOCC2)cc2cc(-c3cccc4ccccc34)oc12

>  <Energy>  (19) 
116.41438851378915

>  <Genealogy>  (19) 
CCNCCNCc1cc(N2CCOCC2)cc2cc(-c3cccc4ccccc34)oc12 (3D coordinates assigned)
CCNCCNCc1cc(N2CCOCC2)cc2cc(-c3cccc4ccccc34)oc12 (nonaromatic ring conformer: 116.41438851378915 kcal/mol)

>  <smiles>  (19) 
CCNCCNCc1cc(N2CCOCC2)cc2cc(-c3cccc4ccccc34)oc12

>  <score_type>  (19) 
oracle

>  <origin>  (19) 
adg

>  <m_score__min__energy>  (19) 
-8.7300000000000004

>  <m_primary>  (19) 
energy

$$$$
19:0
     RDKit          3D

 57 56  0  0  0  0  0  0  0  0999 V2000
   62.3095   34.4319   49.0483 H   0  0  0  0  0  0  0  0  0  0  0  0
   61.8110   33.7720   48.3230 C   0  0  0  0  0  0  0  0  0  0  0  0
   62.5890   33.1300   47.4240 C   0  0  0  0  0  0  0  0  0  0  0  0
   62.7060   31.6300   47.5200 C   0  0  0  0  0  0  0  0  0  0  0  0
   62.7293   31.3310   48.5783 H   0  0  0  0  0  0  0  0  0  0  0  0
   61.8416   31.1624   47.0259 H   0  0  0  0  0  0  0  0  0  0  0  0
   63.6325   31.3021   47.0259 H   0  0  0  0  0  0  0  0  0  0  0  0
   63.3560   33.8650   46.3500 C   0  0  0  0  0  0  0  0  0  0  0  0
   64.0745   34.5536   46.8186 H   0  0  0  0  0  0  0  0  0  0  0  0
   63.8974   33.1399   45.7247 H   0  0  0  0  0  0  0  0  0  0  0  0
   62.6546   34.4368   45.7247 H   0  0  0  0  0  0  0  0  0  0  0  0
   60.3090   33.6510   48.4060 C   0  0  0  0  0  0  0  0  0  0  0  0
   59.9940   33.8154   49.4470 H   0  0  0  0  0  0  0  0  0  0  0  0
   60.0242   32.6446   48.0654 H   0  0  0  0  0  0  0  0  0  0  0  0
   59.6130   34.6780   47.5070 C   0  0  0  0  0  0  0  0  0  0  0  0
   60.3751   35.3149   47.0341 H   0  0  0  0  0  0  0  0  0  0  0  0
   58.9339   35.2797   48.1289 H   0  0  0  0  0  0  0  0  0  0  0  0
   58.7950   33.9990   46.4240 C   0  0  0  0  0  0  0  0  0  0  0  0
   59.2370   33.8300   45.1540 C   0  0  0  0  0  0  0  0  0  0  0  0
   60.2975   34.0473   44.9588 H   0  0  0  0  0  0  0  0  0  0  0  0
   58.4040   33.3710   43.9870 C   0  0  0  0  0  0  0  0  0  0  0  0
   58.9149   33.6219   43.0457 H   0  0  0  0  0  0  0  0  0  0  0  0
   57.4243   33.8709   44.0053 H   0  0  0  0  0  0  0  0  0  0  0  0
   58.2330   31.9720   44.0770 O   0  0  0  0  0  0  0  0  0  0  0  0
   57.4240   31.5220   43.0090 C   0  0  0  0  0  0  0  0  0  0  0  0
   58.0645   31.1673   42.1881 H   0  0  0  0  0  0  0  0  0  0  0  0
   56.7947   32.3504   42.6516 H   0  0  0  0  0  0  0  0  0  0  0  0
   56.5340   30.3780   43.4910 C   0  0  0  0  0  0  0  0  0  0  0  0
   56.8189   29.4533   42.9678 H   0  0  0  0  0  0  0  0  0  0  0  0
   55.4851   30.6295   43.2752 H   0  0  0  0  0  0  0  0  0  0  0  0
   56.6800   30.1870   44.8870 O   0  0  0  0  0  0  0  0  0  0  0  0
   57.0070   28.8420   45.1740 C   0  0  0  0  0  0  0  0  0  0  0  0
   57.2968   28.3318   44.2435 H   0  0  0  0  0  0  0  0  0  0  0  0
   56.1308   28.3457   45.6166 H   0  0  0  0  0  0  0  0  0  0  0  0
   58.1760   28.7820   46.1720 C   0  0  0  0  0  0  0  0  0  0  0  0
   58.8537   27.9732   45.8612 H   0  0  0  0  0  0  0  0  0  0  0  0
   57.7353   28.6106   47.1652 H   0  0  0  0  0  0  0  0  0  0  0  0
   58.9630   30.0400   46.2650 N   0  0  0  0  0  0  0  0  0  0  0  0
   58.5170   30.7310   45.6150 H   0  0  0  0  0  0  0  0  0  0  0  0
   58.9440   30.6540   47.6230 C   0  0  0  0  0  0  0  0  0  0  0  0
   57.9065   30.6412   47.9884 H   0  0  0  0  0  0  0  0  0  0  0  0
   59.3548   31.6678   47.5068 H   0  0  0  0  0  0  0  0  0  0  0  0
   59.8240   29.9530   48.6660 C   0  0  0  0  0  0  0  0  0  0  0  0
   59.4828   30.2248   49.6758 H   0  0  0  0  0  0  0  0  0  0  0  0
   59.7505   28.8633   48.5350 H   0  0  0  0  0  0  0  0  0  0  0  0
   60.8697   30.2683   48.5350 H   0  0  0  0  0  0  0  0  0  0  0  0
   60.3360   29.7990   45.7500 C   0  0  0  0  0  0  0  0  0  0  0  0
   60.6602   30.6890   45.1907 H   0  0  0  0  0  0  0  0  0  0  0  0
   60.9792   29.5983   46.6195 H   0  0  0  0  0  0  0  0  0  0  0  0
   60.4320   28.5810   44.8240 C   0  0  0  0  0  0  0  0  0  0  0  0
   60.5042   27.6652   45.4291 H   0  0  0  0  0  0  0  0  0  0  0  0
   59.5350   28.5314   44.1893 H   0  0  0  0  0  0  0  0  0  0  0  0
   61.3257   28.6725   44.1893 H   0  0  0  0  0  0  0  0  0  0  0  0
   57.4280   33.4630   46.7710 C   0  0  0  0  0  0  0  0  0  0  0  0
   57.3179   33.4198   47.8646 H   0  0  0  0  0  0  0  0  0  0  0  0
   56.6569   34.1254   46.3507 H   0  0  0  0  0  0  0  0  0  0  0  0
   57.3126   32.4530   46.3507 H   0  0  0  0  0  0  0  0  0  0  0  0
  1  2  1  0
  2  3  2  3
  3  4  1  0
  4  5  1  0
  4  6  1  0
  4  7  1  0
  3  8  1  0
  8  9  1  0
  8 10  1  0
  8 11  1  0
  2 12  1  0
 12 13  1  0
 12 14  1  0
 12 15  1  0
 15 16  1  0
 15 17  1  0
 15 18  1  0
 18 19  2  0
 19 20  1  0
 19 21  1  0
 21 22  1  0
 21 23  1  0
 21 24  1  0
 24 25  1  0
 25 26  1  0
 25 27  1  0
 25 28  1  0
 28 29  1  0
 28 30  1  0
 28 31  1  0
 31 32  1  0
 32 33  1  0
 32 34  1  0
 32 35  1  0
 35 36  1  0
 35 37  1  0
 35 38  1  0
 38 39  1  0
 38 40  1  0
 40 41  1  0
 40 42  1  0
 40 43  1  0
 43 44  1  0
 43 45  1  0
 43 46  1  0
 38 47  1  0
 47 48  1  0
 47 49  1  0
 47 50  1  0
 50 51  1  0
 50 52  1  0
 50 53  1  0
 18 54  1  0
 54 55  1  0
 54 56  1  0
 54 57  1  0
M  CHG  1  38   1
M  END
>  <UniqueID>  (20) 
20

>  <SMILES>  (20) 
CC[NH+](CC)CCOCCOC/C=C(/C)CCC=C(C)C

>  <Energy>  (20) 
41.512497780526594

>  <Genealogy>  (20) 
CC[NH+](CC)CCOCCOCC=C(C)CCC=C(C)C (protonated)
CC[NH+](CC)CCOCCOC/C=C(/C)CCC=C(C)C (cis-trans isomerization)
CC[NH+](CC)CCOCCOC/C=C(/C)CCC=C(C)C (3D coordinates assigned)
CC[NH+](CC)CCOCCOC/C=C(/C)CCC=C(C)C (optimized conformer: 41.512497780526594 kcal/mol)

>  <smiles>  (20) 
CCN(CC)CCOCCOCC=C(C)CCC=C(C)C

>  <score_type>  (20) 
oracle

>  <origin>  (20) 
adg

>  <m_score__min__energy>  (20) 
-3.7999999999999998

>  <m_primary>  (20) 
energy

$$$$
20:0
     RDKit          3D

 89 92  0  0  0  0  0  0  0  0999 V2000
   61.1380   29.6090   49.9360 C   0  0  0  0  0  0  0  0  0  0  0  0
   61.5010   30.0550   51.3490 C   0  0  0  0  0  0  0  0  0  0  0  0
   62.7180   29.3830   51.7980 N   0  0  0  0  0  0  0  0  0  0  0  0
   63.8210   30.0750   52.3910 C   0  0  0  0  0  0  0  0  0  0  0  0
   63.6740   30.6510   53.5050 O   0  0  0  0  0  0  0  0  0  0  0  0
   65.1170   30.1960   51.6150 C   0  0  0  0  0  0  0  0  0  0  0  0
   66.0050   31.3220   52.0040 N   0  0  1  0  0  0  0  0  0  0  0  0
   67.4480   30.9680   51.9550 C   0  0  0  0  0  0  0  0  0  0  0  0
   67.6770   29.4880   51.6480 C   0  0  0  0  0  0  0  0  0  0  0  0
   65.7090   32.5240   51.2390 C   0  0  0  0  0  0  0  0  0  0  0  0
   66.5310   33.4850   51.2280 O   0  0  0  0  0  0  0  0  0  0  0  0
   64.4760   32.6500   50.4200 C   0  0  0  0  0  0  0  0  0  0  0  0
   64.5260   32.3650   49.0480 C   0  0  0  0  0  0  0  0  0  0  0  0
   63.4020   32.5310   48.2390 C   0  0  0  0  0  0  0  0  0  0  0  0
   62.1900   33.0110   48.7860 C   0  0  0  0  0  0  0  0  0  0  0  0
   62.1280   33.2740   50.1760 C   0  0  0  0  0  0  0  0  0  0  0  0
   63.2710   33.1080   50.9740 C   0  0  0  0  0  0  0  0  0  0  0  0
   60.8670   33.8420   50.7980 C   0  0  0  0  0  0  0  0  0  0  0  0
   59.5460   33.3810   50.1280 C   0  0  0  0  0  0  0  0  0  0  0  0
   59.7540   32.6320   48.7930 C   0  0  2  0  0  0  0  0  0  0  0  0
   60.9170   33.2670   47.9840 C   0  0  2  0  0  0  0  0  0  0  0  0
   60.8860   32.8330   46.4890 C   0  0  0  0  0  0  0  0  0  0  0  0
   60.1600   31.4950   46.2990 C   0  0  0  0  0  0  0  0  0  0  0  0
   58.6420   31.5490   46.7030 C   0  0  2  0  0  0  0  0  0  0  0  0
   58.2210   30.1080   47.0930 C   0  0  0  0  0  0  0  0  0  0  0  0
   57.6310   32.1810   45.6570 C   0  0  2  0  0  0  0  0  0  0  0  0
   57.6750   32.0000   44.0790 C   0  0  1  0  0  0  0  0  0  0  0  0
   58.4180   33.0380   43.2230 C   0  0  0  0  0  0  0  0  0  0  0  0
   57.8290   30.5430   43.5510 C   0  0  0  0  0  0  0  0  0  0  0  0
   56.5900   29.6360   43.5140 C   0  0  0  0  0  0  0  0  0  0  0  0
   56.2860   28.9390   44.8510 C   0  0  0  0  0  0  0  0  0  0  0  0
   57.3190   27.8360   45.1830 C   0  0  0  0  0  0  0  0  0  0  0  0
   56.6730   26.6530   45.9230 C   0  0  0  0  0  0  0  0  0  0  0  0
   57.9980   27.3360   43.9010 C   0  0  0  0  0  0  0  0  0  0  0  0
   57.5480   33.6690   46.0160 C   0  0  0  0  0  0  0  0  0  0  0  0
   57.8480   33.7980   47.4960 C   0  0  0  0  0  0  0  0  0  0  0  0
   58.4520   32.4650   47.9660 C   0  0  2  0  0  0  0  0  0  0  0  0
   60.4444   28.7568   49.9873 H   0  0  0  0  0  0  0  0  0  0  0  0
   60.6573   30.4413   49.4009 H   0  0  0  0  0  0  0  0  0  0  0  0
   62.0505   29.3074   49.4009 H   0  0  0  0  0  0  0  0  0  0  0  0
   61.6643   31.1428   51.3551 H   0  0  0  0  0  0  0  0  0  0  0  0
   60.6769   29.7928   52.0288 H   0  0  0  0  0  0  0  0  0  0  0  0
   65.6797   29.2607   51.7513 H   0  0  0  0  0  0  0  0  0  0  0  0
   64.8225   30.3957   50.5741 H   0  0  0  0  0  0  0  0  0  0  0  0
   65.7650   31.4990   53.0090 H   0  0  0  0  0  0  0  0  0  0  0  0
   67.9326   31.5699   51.1721 H   0  0  0  0  0  0  0  0  0  0  0  0
   67.8768   31.1741   52.9468 H   0  0  0  0  0  0  0  0  0  0  0  0
   67.7638   28.9272   52.5903 H   0  0  0  0  0  0  0  0  0  0  0  0
   66.8284   29.0986   51.0664 H   0  0  0  0  0  0  0  0  0  0  0  0
   68.6036   29.3733   51.0664 H   0  0  0  0  0  0  0  0  0  0  0  0
   65.4655   32.0052   48.6032 H   0  0  0  0  0  0  0  0  0  0  0  0
   63.4590   32.2867   47.1680 H   0  0  0  0  0  0  0  0  0  0  0  0
   63.2212   33.3401   52.0481 H   0  0  0  0  0  0  0  0  0  0  0  0
   60.8393   33.5370   51.8545 H   0  0  0  0  0  0  0  0  0  0  0  0
   60.9189   34.9323   50.6620 H   0  0  0  0  0  0  0  0  0  0  0  0
   59.0195   32.7109   50.8235 H   0  0  0  0  0  0  0  0  0  0  0  0
   58.9679   34.2887   49.9001 H   0  0  0  0  0  0  0  0  0  0  0  0
   60.0485   31.6018   49.0419 H   0  0  0  0  0  0  0  0  0  0  0  0
   60.8340   34.3583   47.8738 H   0  0  0  0  0  0  0  0  0  0  0  0
   60.3661   33.6063   45.9045 H   0  0  0  0  0  0  0  0  0  0  0  0
   61.9243   32.7101   46.1471 H   0  0  0  0  0  0  0  0  0  0  0  0
   60.2294   31.2074   45.2395 H   0  0  0  0  0  0  0  0  0  0  0  0
   60.6474   30.7630   46.9598 H   0  0  0  0  0  0  0  0  0  0  0  0
   58.1946   30.0177   48.1890 H   0  0  0  0  0  0  0  0  0  0  0  0
   57.2228   29.8941   46.6833 H   0  0  0  0  0  0  0  0  0  0  0  0
   58.9470   29.3903   46.6833 H   0  0  0  0  0  0  0  0  0  0  0  0
   56.7584   31.5264   45.7990 H   0  0  0  0  0  0  0  0  0  0  0  0
   56.6263   32.2766   43.8954 H   0  0  0  0  0  0  0  0  0  0  0  0
   58.9314   33.7553   43.8801 H   0  0  0  0  0  0  0  0  0  0  0  0
   59.1575   32.5280   42.5881 H   0  0  0  0  0  0  0  0  0  0  0  0
   57.6968   33.5736   42.5881 H   0  0  0  0  0  0  0  0  0  0  0  0
   58.2114   30.6105   42.5218 H   0  0  0  0  0  0  0  0  0  0  0  0
   58.4901   30.0614   44.2865 H   0  0  0  0  0  0  0  0  0  0  0  0
   55.7199   30.2498   43.2380 H   0  0  0  0  0  0  0  0  0  0  0  0
   56.7977   28.8426   42.7810 H   0  0  0  0  0  0  0  0  0  0  0  0
   56.3002   29.6909   45.6538 H   0  0  0  0  0  0  0  0  0  0  0  0
   55.2983   28.4623   44.7665 H   0  0  0  0  0  0  0  0  0  0  0  0
   58.0730   28.2828   45.8477 H   0  0  0  0  0  0  0  0  0  0  0  0
   56.7582   26.8090   47.0086 H   0  0  0  0  0  0  0  0  0  0  0  0
   55.6111   26.5823   45.6449 H   0  0  0  0  0  0  0  0  0  0  0  0
   57.1876   25.7214   45.6449 H   0  0  0  0  0  0  0  0  0  0  0  0
   58.8580   26.7028   44.1646 H   0  0  0  0  0  0  0  0  0  0  0  0
   57.2788   26.7502   43.3097 H   0  0  0  0  0  0  0  0  0  0  0  0
   58.3440   28.1966   43.3097 H   0  0  0  0  0  0  0  0  0  0  0  0
   56.5388   34.0511   45.8027 H   0  0  0  0  0  0  0  0  0  0  0  0
   58.2681   34.2515   45.4225 H   0  0  0  0  0  0  0  0  0  0  0  0
   56.9206   34.0056   48.0499 H   0  0  0  0  0  0  0  0  0  0  0  0
   58.5500   34.6253   47.6771 H   0  0  0  0  0  0  0  0  0  0  0  0
   57.7578   31.9851   48.6715 H   0  0  0  0  0  0  0  0  0  0  0  0
  1  2  1  0
  2  3  1  0
  3  4  1  0
  4  5  2  0
  4  6  1  0
  6  7  1  0
  7  8  1  0
  8  9  1  0
  7 10  1  0
 10 11  2  0
 10 12  1  0
 12 13  2  0
 13 14  1  0
 14 15  2  0
 15 16  1  0
 16 17  2  0
 16 18  1  0
 18 19  1  0
 19 20  1  0
 20 21  1  0
 21 22  1  0
 22 23  1  0
 23 24  1  0
 24 25  1  1
 24 26  1  0
 26 27  1  0
 27 28  1  0
 27 29  1  0
 29 30  1  0
 30 31  1  0
 31 32  1  0
 32 33  1  0
 32 34  1  0
 26 35  1  0
 35 36  1  0
 36 37  1  0
 17 12  1  0
 37 20  1  0
 21 15  1  0
 37 24  1  0
  1 38  1  0
  1 39  1  0
  1 40  1  0
  2 41  1  0
  2 42  1  0
  6 43  1  0
  6 44  1  0
  7 45  1  1
  8 46  1  0
  8 47  1  0
  9 48  1  0
  9 49  1  0
  9 50  1  0
 13 51  1  0
 14 52  1  0
 17 53  1  0
 18 54  1  0
 18 55  1  0
 19 56  1  0
 19 57  1  0
 20 58  1  1
 21 59  1  6
 22 60  1  0
 22 61  1  0
 23 62  1  0
 23 63  1  0
 25 64  1  0
 25 65  1  0
 25 66  1  0
 26 67  1  1
 27 68  1  6
 28 69  1  0
 28 70  1  0
 28 71  1  0
 29 72  1  0
 29 73  1  0
 30 74  1  0
 30 75  1  0
 31 76  1  0
 31 77  1  0
 32 78  1  0
 33 79  1  0
 33 80  1  0
 33 81  1  0
 34 82  1  0
 34 83  1  0
 34 84  1  0
 35 85  1  0
 35 86  1  0
 36 87  1  0
 36 88  1  0
 37 89  1  1
M  CHG  2   3  -1   7   1
M  END
>  <UniqueID>  (21) 
21

>  <SMILES>  (21) 
CC[N-]C(=O)C[N@@H+](CC)C(=O)c1ccc2c(c1)CC[C@@H]1C2CCC2(C)C(C(C)CCCC(C)C)CCC12

>  <Energy>  (21) 
136.9787122001074

>  <Genealogy>  (21) 
CC[N-]C(=O)C[NH+](CC)C(=O)c1ccc2c(c1)CCC1C2CCC2(C)C(C(C)CCCC(C)C)CCC12 (protonated)
CC[N-]C(=O)C[N@@H+](CC)C(=O)c1ccc2c(c1)CC[C@@H]1C2CCC2(C)C(C(C)CCCC(C)C)CCC12 (chirality)
CC[N-]C(=O)C[N@@H+](CC)C(=O)c1ccc2c(c1)CC[C@@H]1C2CCC2(C)C(C(C)CCCC(C)C)CCC12 (3D coordinates assigned)
CC[N-]C(=O)C[N@@H+](CC)C(=O)c1ccc2c(c1)CC[C@@H]1C2CCC2(C)C(C(C)CCCC(C)C)CCC12 (nonaromatic ring conformer: 136.9787122001074 kcal/mol)

>  <smiles>  (21) 
CCNC(=O)CN(CC)C(=O)c1ccc2c(c1)CCC1C2CCC2(C)C(C(C)CCCC(C)C)CCC12

>  <score_type>  (21) 
oracle

>  <origin>  (21) 
adg

>  <m_score__min__energy>  (21) 
-10.74

>  <m_primary>  (21) 
energy

$$$$
21:0
     RDKit          3D

 58 60  0  0  0  0  0  0  0  0999 V2000
   61.9010   33.5160   46.7290 C   0  0  0  0  0  0  0  0  0  0  0  0
   63.4000   33.7920   46.7420 C   0  0  0  0  0  0  0  0  0  0  0  0
   64.1170   32.7380   47.4750 N   0  0  0  0  0  0  0  0  0  0  0  0
   63.2920   32.2240   48.5830 C   0  0  0  0  0  0  0  0  0  0  0  0
   63.2520   33.1980   49.7740 C   0  0  0  0  0  0  0  0  0  0  0  0
   61.9620   33.0540   50.6130 C   0  0  0  0  0  0  0  0  0  0  0  0
   60.7550   33.0210   49.7730 N   0  0  0  0  0  0  0  0  0  0  0  0
   59.6660   32.2020   50.3380 C   0  0  0  0  0  0  0  0  0  0  0  0
   59.4350   30.9610   49.4680 C   0  0  0  0  0  0  0  0  0  0  0  0
   59.9190   31.1670   48.1020 N   0  0  0  0  0  0  0  0  0  0  0  0
   59.3440   30.4270   47.0180 C   0  0  0  0  0  0  0  0  0  0  0  0
   59.6160   29.0490   46.9260 C   0  0  0  0  0  0  0  0  0  0  0  0
   60.3390   28.3890   47.9430 C   0  0  0  0  0  0  0  0  0  0  0  0
   60.6610   27.0390   47.8290 C   0  0  0  0  0  0  0  0  0  0  0  0
   60.2780   26.3270   46.7000 C   0  0  0  0  0  0  0  0  0  0  0  0
   59.5530   26.9530   45.6920 C   0  0  0  0  0  0  0  0  0  0  0  0
   59.1800   28.3190   45.7940 C   0  0  0  0  0  0  0  0  0  0  0  0
   58.4460   28.9460   44.8090 N   0  0  0  0  0  0  0  0  0  0  0  0
   57.7760   28.1370   43.7650 C   0  0  0  0  0  0  0  0  0  0  0  0
   58.3050   30.3220   44.8140 C   0  0  0  0  0  0  0  0  0  0  0  0
   57.8320   31.0080   43.6700 C   0  0  0  0  0  0  0  0  0  0  0  0
   57.5980   32.3740   43.6920 C   0  0  0  0  0  0  0  0  0  0  0  0
   57.7980   33.1100   44.8610 C   0  0  0  0  0  0  0  0  0  0  0  0
   57.4440   34.5740   44.8700 C   0  0  0  0  0  0  0  0  0  0  0  0
   58.3050   32.4720   46.0130 C   0  0  0  0  0  0  0  0  0  0  0  0
   58.3490   33.4260   47.5070 Cl  0  0  0  0  0  0  0  0  0  0  0  0
   58.6550   31.0840   45.9670 C   0  0  0  0  0  0  0  0  0  0  0  0
   61.5317   33.4480   47.7629 H   0  0  0  0  0  0  0  0  0  0  0  0
   61.3821   34.3337   46.2073 H   0  0  0  0  0  0  0  0  0  0  0  0
   61.7074   32.5671   46.2073 H   0  0  0  0  0  0  0  0  0  0  0  0
   63.7696   33.8269   45.7065 H   0  0  0  0  0  0  0  0  0  0  0  0
   63.5777   34.7547   47.2437 H   0  0  0  0  0  0  0  0  0  0  0  0
   64.3520   31.9570   46.8130 H   0  0  0  0  0  0  0  0  0  0  0  0
   64.9980   33.1440   47.8680 H   0  0  0  0  0  0  0  0  0  0  0  0
   62.2661   32.0670   48.2184 H   0  0  0  0  0  0  0  0  0  0  0  0
   63.7402   31.2815   48.9306 H   0  0  0  0  0  0  0  0  0  0  0  0
   64.1183   32.9988   50.4219 H   0  0  0  0  0  0  0  0  0  0  0  0
   63.2758   34.2210   49.3703 H   0  0  0  0  0  0  0  0  0  0  0  0
   62.0174   32.1196   51.1908 H   0  0  0  0  0  0  0  0  0  0  0  0
   61.8896   33.9296   51.2749 H   0  0  0  0  0  0  0  0  0  0  0  0
   61.0040   32.6730   48.8150 H   0  0  0  0  0  0  0  0  0  0  0  0
   59.9382   31.8871   51.3562 H   0  0  0  0  0  0  0  0  0  0  0  0
   58.7429   32.7996   50.3655 H   0  0  0  0  0  0  0  0  0  0  0  0
   59.9696   30.1084   49.9121 H   0  0  0  0  0  0  0  0  0  0  0  0
   58.3534   30.7652   49.4255 H   0  0  0  0  0  0  0  0  0  0  0  0
   60.5010   32.0010   47.8650 H   0  0  0  0  0  0  0  0  0  0  0  0
   60.6521   28.9482   48.8370 H   0  0  0  0  0  0  0  0  0  0  0  0
   61.2187   26.5367   48.6332 H   0  0  0  0  0  0  0  0  0  0  0  0
   60.5488   25.2653   46.6028 H   0  0  0  0  0  0  0  0  0  0  0  0
   59.2632   26.3793   44.7993 H   0  0  0  0  0  0  0  0  0  0  0  0
   57.1438   27.3736   44.2421 H   0  0  0  0  0  0  0  0  0  0  0  0
   57.1516   28.7911   43.1387 H   0  0  0  0  0  0  0  0  0  0  0  0
   58.5350   27.6454   43.1387 H   0  0  0  0  0  0  0  0  0  0  0  0
   57.6461   30.4450   42.7435 H   0  0  0  0  0  0  0  0  0  0  0  0
   57.2516   32.8825   42.7802 H   0  0  0  0  0  0  0  0  0  0  0  0
   57.3593   34.9244   45.9093 H   0  0  0  0  0  0  0  0  0  0  0  0
   58.2301   35.1445   44.3537 H   0  0  0  0  0  0  0  0  0  0  0  0
   56.4841   34.7223   44.3537 H   0  0  0  0  0  0  0  0  0  0  0  0
  1  2  1  0
  2  3  1  0
  3  4  1  0
  4  5  1  0
  5  6  1  0
  6  7  1  0
  7  8  1  0
  8  9  1  0
  9 10  1  0
 10 11  1  0
 11 12  2  0
 12 13  1  0
 13 14  2  0
 14 15  1  0
 15 16  2  0
 16 17  1  0
 17 18  2  0
 18 19  1  0
 18 20  1  0
 20 21  2  0
 21 22  1  0
 22 23  2  0
 23 24  1  0
 23 25  1  0
 25 26  1  0
 25 27  2  0
 27 11  1  0
 17 12  1  0
 27 20  1  0
  1 28  1  0
  1 29  1  0
  1 30  1  0
  2 31  1  0
  2 32  1  0
  3 33  1  0
  3 34  1  0
  4 35  1  0
  4 36  1  0
  5 37  1  0
  5 38  1  0
  6 39  1  0
  6 40  1  0
  7 41  1  0
  8 42  1  0
  8 43  1  0
  9 44  1  0
  9 45  1  0
 10 46  1  0
 13 47  1  0
 14 48  1  0
 15 49  1  0
 16 50  1  0
 19 51  1  0
 19 52  1  0
 19 53  1  0
 21 54  1  0
 22 55  1  0
 24 56  1  0
 24 57  1  0
 24 58  1  0
M  CHG  2   3   1  18   1
M  END
>  <UniqueID>  (22) 
22

>  <SMILES>  (22) 
CC[NH2+]CCCNCCNc1c2ccccc2[n+](C)c2ccc(C)c(Cl)c12

>  <Energy>  (22) 
87.79517632053215

>  <Genealogy>  (22) 
CC[NH2+]CCCNCCNc1c2ccccc2[n+](C)c2ccc(C)c(Cl)c12 (protonated)
CC[NH2+]CCCNCCNc1c2ccccc2[n+](C)c2ccc(C)c(Cl)c12 (3D coordinates assigned)
CC[NH2+]CCCNCCNc1c2ccccc2[n+](C)c2ccc(C)c(Cl)c12 (optimized conformer: 87.79517632053215 kcal/mol)

>  <smiles>  (22) 
CCNCCCNCCNc1c2ccccc2[n+](C)c2ccc(C)c(Cl)c12

>  <score_type>  (22) 
oracle

>  <origin>  (22) 
adg

>  <m_score__min__energy>  (22) 
-4.9500000000000002

>  <m_primary>  (22) 
energy

$$$$
22:0
     RDKit          3D

 61 64  0  0  0  0  0  0  0  0999 V2000
   55.4950   23.3170   47.4450 C   0  0  0  0  0  0  0  0  0  0  0  0
   56.9470   23.5180   47.8470 C   0  0  0  0  0  0  0  0  0  0  0  0
   57.7680   23.4820   46.6850 O   0  0  0  0  0  0  0  0  0  0  0  0
   57.3380   23.0820   45.4100 C   0  0  0  0  0  0  0  0  0  0  0  0
   57.1250   21.7250   45.0930 C   0  0  0  0  0  0  0  0  0  0  0  0
   56.6690   21.3570   43.8250 C   0  0  0  0  0  0  0  0  0  0  0  0
   56.4220   22.3320   42.8610 C   0  0  0  0  0  0  0  0  0  0  0  0
   56.6300   23.6790   43.1590 C   0  0  0  0  0  0  0  0  0  0  0  0
   57.0930   24.0660   44.4290 C   0  0  0  0  0  0  0  0  0  0  0  0
   57.2990   25.5040   44.7250 C   0  0  0  0  0  0  0  0  0  0  0  0
   56.8480   26.0580   45.9350 C   0  0  0  0  0  0  0  0  0  0  0  0
   57.0220   27.4190   46.1990 C   0  0  0  0  0  0  0  0  0  0  0  0
   57.6410   28.2520   45.2520 C   0  0  0  0  0  0  0  0  0  0  0  0
   57.8270   29.6970   45.5010 C   0  0  0  0  0  0  0  0  0  0  0  0
   57.0650   30.6300   44.8860 N   0  0  0  0  0  0  0  0  0  0  0  0
   57.4990   31.7960   45.3970 C   0  0  0  0  0  0  0  0  0  0  0  0
   58.5080   31.5650   46.2990 C   0  0  0  0  0  0  0  0  0  0  0  0
   58.7240   30.2350   46.3700 N   0  0  0  0  0  0  0  0  0  0  0  0
   59.7770   29.5370   47.1100 C   0  0  0  0  0  0  0  0  0  0  0  0
   59.1850   32.6680   47.0810 C   0  0  2  0  0  0  0  0  0  0  0  0
   58.4350   32.9710   48.3180 N   0  0  0  0  0  0  0  0  0  0  0  0
   58.9030   32.1940   49.4750 C   0  0  0  0  0  0  0  0  0  0  0  0
   60.1100   32.8760   50.1270 C   0  0  0  0  0  0  0  0  0  0  0  0
   60.3700   34.1300   49.5230 O   0  0  0  0  0  0  0  0  0  0  0  0
   61.6810   34.1620   48.9990 C   0  0  0  0  0  0  0  0  0  0  0  0
   59.2020   33.9270   46.1810 C   0  0  0  0  0  0  0  0  0  0  0  0
   57.7790   34.2830   45.6950 C   0  0  0  0  0  0  0  0  0  0  0  0
   57.1460   33.1520   44.8570 C   0  0  0  0  0  0  0  0  0  0  0  0
   58.1260   27.6910   44.0620 C   0  0  0  0  0  0  0  0  0  0  0  0
   57.9530   26.3290   43.7980 C   0  0  0  0  0  0  0  0  0  0  0  0
   54.8730   23.2309   48.3482 H   0  0  0  0  0  0  0  0  0  0  0  0
   55.1574   24.1770   46.8479 H   0  0  0  0  0  0  0  0  0  0  0  0
   55.4037   22.3977   46.8479 H   0  0  0  0  0  0  0  0  0  0  0  0
   57.0585   24.4924   48.3452 H   0  0  0  0  0  0  0  0  0  0  0  0
   57.2516   22.7175   48.5373 H   0  0  0  0  0  0  0  0  0  0  0  0
   57.3193   20.9505   45.8495 H   0  0  0  0  0  0  0  0  0  0  0  0
   56.5047   20.2957   43.5872 H   0  0  0  0  0  0  0  0  0  0  0  0
   56.0625   22.0394   41.8635 H   0  0  0  0  0  0  0  0  0  0  0  0
   56.4302   24.4442   42.3945 H   0  0  0  0  0  0  0  0  0  0  0  0
   56.3546   25.4159   46.6795 H   0  0  0  0  0  0  0  0  0  0  0  0
   56.6726   27.8404   47.1531 H   0  0  0  0  0  0  0  0  0  0  0  0
   59.6038   29.6518   48.1902 H   0  0  0  0  0  0  0  0  0  0  0  0
   59.7629   28.4688   46.8479 H   0  0  0  0  0  0  0  0  0  0  0  0
   60.7554   29.9660   46.8479 H   0  0  0  0  0  0  0  0  0  0  0  0
   60.2017   32.3568   47.3628 H   0  0  0  0  0  0  0  0  0  0  0  0
   58.5930   33.9820   48.5460 H   0  0  0  0  0  0  0  0  0  0  0  0
   58.0897   32.1161   50.2116 H   0  0  0  0  0  0  0  0  0  0  0  0
   59.2024   31.1923   49.1331 H   0  0  0  0  0  0  0  0  0  0  0  0
   59.9034   33.0276   51.1967 H   0  0  0  0  0  0  0  0  0  0  0  0
   60.9918   32.2322   49.9930 H   0  0  0  0  0  0  0  0  0  0  0  0
   62.4061   34.1797   49.8260 H   0  0  0  0  0  0  0  0  0  0  0  0
   61.8510   33.2677   48.3814 H   0  0  0  0  0  0  0  0  0  0  0  0
   61.8071   35.0635   48.3814 H   0  0  0  0  0  0  0  0  0  0  0  0
   59.6078   34.7732   46.7547 H   0  0  0  0  0  0  0  0  0  0  0  0
   59.8296   33.7194   45.3018 H   0  0  0  0  0  0  0  0  0  0  0  0
   57.1426   34.4720   46.5721 H   0  0  0  0  0  0  0  0  0  0  0  0
   57.8553   35.1740   45.0545 H   0  0  0  0  0  0  0  0  0  0  0  0
   56.0522   33.2675   44.8709 H   0  0  0  0  0  0  0  0  0  0  0  0
   57.5373   33.2251   43.8315 H   0  0  0  0  0  0  0  0  0  0  0  0
   58.6464   28.3271   43.3308 H   0  0  0  0  0  0  0  0  0  0  0  0
   58.3320   25.9018   42.8578 H   0  0  0  0  0  0  0  0  0  0  0  0
  1  2  1  0
  2  3  1  0
  3  4  1  0
  4  5  2  0
  5  6  1  0
  6  7  2  0
  7  8  1  0
  8  9  2  0
  9 10  1  0
 10 11  2  0
 11 12  1  0
 12 13  2  0
 13 14  1  0
 14 15  2  0
 15 16  1  0
 16 17  2  0
 17 18  1  0
 18 19  1  0
 17 20  1  0
 20 21  1  0
 21 22  1  0
 22 23  1  0
 23 24  1  0
 24 25  1  0
 20 26  1  0
 26 27  1  0
 27 28  1  0
 13 29  1  0
 29 30  2  0
  9  4  1  0
 30 10  1  0
 18 14  1  0
 28 16  1  0
  1 31  1  0
  1 32  1  0
  1 33  1  0
  2 34  1  0
  2 35  1  0
  5 36  1  0
  6 37  1  0
  7 38  1  0
  8 39  1  0
 11 40  1  0
 12 41  1  0
 19 42  1  0
 19 43  1  0
 19 44  1  0
 20 45  1  1
 21 46  1  0
 22 47  1  0
 22 48  1  0
 23 49  1  0
 23 50  1  0
 25 51  1  0
 25 52  1  0
 25 53  1  0
 26 54  1  0
 26 55  1  0
 27 56  1  0
 27 57  1  0
 28 58  1  0
 28 59  1  0
 29 60  1  0
 30 61  1  0
M  END
>  <UniqueID>  (23) 
23

>  <SMILES>  (23) 
CCOc1ccccc1-c1ccc(-c2nc3c(n2C)[C@H](NCCOC)CCC3)cc1

>  <Energy>  (23) 
104.36097623417798

>  <Genealogy>  (23) 
CCOc1ccccc1-c1ccc(-c2nc3c(n2C)[C@H](NCCOC)CCC3)cc1 (chirality)
CCOc1ccccc1-c1ccc(-c2nc3c(n2C)[C@H](NCCOC)CCC3)cc1 (3D coordinates assigned)
CCOc1ccccc1-c1ccc(-c2nc3c(n2C)[C@H](NCCOC)CCC3)cc1 (nonaromatic ring conformer: 104.36097623417798 kcal/mol)

>  <smiles>  (23) 
CCOc1ccccc1-c1ccc(-c2nc3c(n2C)C(NCCOC)CCC3)cc1

>  <score_type>  (23) 
oracle

>  <origin>  (23) 
adg

>  <m_score__min__energy>  (23) 
-7.9699999999999998

>  <m_primary>  (23) 
energy

$$$$
23:0
     RDKit          3D

 43 44  0  0  0  0  0  0  0  0999 V2000
   56.9500   30.9170   42.5260 C   0  0  0  0  0  0  0  0  0  0  0  0
   56.3020   30.0220   43.5770 C   0  0  0  0  0  0  0  0  0  0  0  0
   57.0380   30.0980   44.8350 N   0  0  0  0  0  0  0  0  0  0  0  0
   58.3230   29.4800   45.0130 C   0  0  0  0  0  0  0  0  0  0  0  0
   58.7460   28.6440   44.1700 O   0  0  0  0  0  0  0  0  0  0  0  0
   59.1690   29.8180   46.2130 C   0  0  2  0  0  0  0  0  0  0  0  0
   59.2010   28.5990   47.1530 C   0  0  0  0  0  0  0  0  0  0  0  0
   60.0990   28.8470   48.3770 C   0  0  0  0  0  0  0  0  0  0  0  0
   60.2400   30.3350   48.7220 C   0  0  0  0  0  0  0  0  0  0  0  0
   58.9750   31.1250   48.3500 C   0  0  0  0  0  0  0  0  0  0  0  0
   58.6260   31.0170   46.9070 N   0  0  0  0  0  0  0  0  0  0  0  0
   58.7540   32.2730   46.1140 C   0  0  0  0  0  0  0  0  0  0  0  0
   59.8870   33.2190   46.6040 C   0  0  0  0  0  0  0  0  0  0  0  0
   59.6550   34.6910   46.2040 C   0  0  0  0  0  0  0  0  0  0  0  0
   58.8660   34.8130   44.8950 C   0  0  0  0  0  0  0  0  0  0  0  0
   57.4680   34.1690   45.0030 C   0  0  0  0  0  0  0  0  0  0  0  0
   57.4020   33.0040   46.0130 C   0  0  0  0  0  0  0  0  0  0  0  0
   57.5250   31.7111   43.0248 H   0  0  0  0  0  0  0  0  0  0  0  0
   57.6237   30.3160   41.8976 H   0  0  0  0  0  0  0  0  0  0  0  0
   56.1687   31.3694   41.8976 H   0  0  0  0  0  0  0  0  0  0  0  0
   55.2654   30.3505   43.7433 H   0  0  0  0  0  0  0  0  0  0  0  0
   56.3165   28.9824   43.2178 H   0  0  0  0  0  0  0  0  0  0  0  0
   56.6250   30.6470   45.6210 H   0  0  0  0  0  0  0  0  0  0  0  0
   60.1948   30.0562   45.8953 H   0  0  0  0  0  0  0  0  0  0  0  0
   58.1781   28.3883   47.4983 H   0  0  0  0  0  0  0  0  0  0  0  0
   59.6122   27.7457   46.5937 H   0  0  0  0  0  0  0  0  0  0  0  0
   59.6644   28.3256   49.2426 H   0  0  0  0  0  0  0  0  0  0  0  0
   61.1024   28.4682   48.1325 H   0  0  0  0  0  0  0  0  0  0  0  0
   60.4185   30.4354   49.8028 H   0  0  0  0  0  0  0  0  0  0  0  0
   61.0826   30.7434   48.1448 H   0  0  0  0  0  0  0  0  0  0  0  0
   58.1334   30.7394   48.9441 H   0  0  0  0  0  0  0  0  0  0  0  0
   59.1749   32.1857   48.5620 H   0  0  0  0  0  0  0  0  0  0  0  0
   59.0580   31.9621   45.1036 H   0  0  0  0  0  0  0  0  0  0  0  0
   59.9452   33.1583   47.7008 H   0  0  0  0  0  0  0  0  0  0  0  0
   60.8215   32.8903   46.1257 H   0  0  0  0  0  0  0  0  0  0  0  0
   59.0928   35.1925   47.0056 H   0  0  0  0  0  0  0  0  0  0  0  0
   60.6380   35.1611   46.0533 H   0  0  0  0  0  0  0  0  0  0  0  0
   58.7485   35.8786   44.6487 H   0  0  0  0  0  0  0  0  0  0  0  0
   59.4252   34.2835   44.1096 H   0  0  0  0  0  0  0  0  0  0  0  0
   56.7518   34.9427   45.3169 H   0  0  0  0  0  0  0  0  0  0  0  0
   57.2267   33.7530   44.0137 H   0  0  0  0  0  0  0  0  0  0  0  0
   57.1355   33.4028   47.0029 H   0  0  0  0  0  0  0  0  0  0  0  0
   56.6445   32.2861   45.6656 H   0  0  0  0  0  0  0  0  0  0  0  0
  1  2  1  0
  2  3  1  0
  3  4  1  0
  4  5  2  0
  4  6  1  0
  6  7  1  0
  7  8  1  0
  8  9  1  0
  9 10  1  0
 10 11  1  0
 11 12  1  0
 12 13  1  0
 13 14  1  0
 14 15  1  0
 15 16  1  0
 16 17  1  0
 11  6  1  0
 17 12  1  0
  1 18  1  0
  1 19  1  0
  1 20  1  0
  2 21  1  0
  2 22  1  0
  3 23  1  0
  6 24  1  6
  7 25  1  0
  7 26  1  0
  8 27  1  0
  8 28  1  0
  9 29  1  0
  9 30  1  0
 10 31  1  0
 10 32  1  0
 12 33  1  0
 13 34  1  0
 13 35  1  0
 14 36  1  0
 14 37  1  0
 15 38  1  0
 15 39  1  0
 16 40  1  0
 16 41  1  0
 17 42  1  0
 17 43  1  0
M  END
>  <UniqueID>  (24) 
24

>  <SMILES>  (24) 
CCNC(=O)[C@@H]1CCCCN1C1CCCCC1

>  <Energy>  (24) 
48.22947999159078

>  <Genealogy>  (24) 
CCNC(=O)[C@@H]1CCCCN1C1CCCCC1 (chirality)
CCNC(=O)[C@@H]1CCCCN1C1CCCCC1 (3D coordinates assigned)
CCNC(=O)[C@@H]1CCCCN1C1CCCCC1 (nonaromatic ring conformer: 48.22947999159078 kcal/mol)

>  <smiles>  (24) 
CCNC(=O)C1CCCCN1C1CCCCC1

>  <score_type>  (24) 
oracle

>  <origin>  (24) 
adg

>  <m_score__min__energy>  (24) 
-7.0899999999999999

>  <m_primary>  (24) 
energy

$$$$
24:0
     RDKit          3D

 47 48  0  0  0  0  0  0  0  0999 V2000
   56.1450   29.7160   42.9710 C   0  0  0  0  0  0  0  0  0  0  0  0
   57.2440   29.5830   43.9790 C   0  0  0  0  0  0  0  0  0  0  0  0
   57.5470   30.4830   44.9820 C   0  0  0  0  0  0  0  0  0  0  0  0
   56.8420   31.6820   45.1820 O   0  0  0  0  0  0  0  0  0  0  0  0
   57.3920   32.9160   45.6390 C   0  0  0  0  0  0  0  0  0  0  0  0
   58.1350   33.6320   44.5040 C   0  0  0  0  0  0  0  0  0  0  0  0
   59.2560   34.5290   45.0410 C   0  0  0  0  0  0  0  0  0  0  0  0
   59.7340   34.0260   46.3480 N   0  0  0  0  0  0  0  0  0  0  0  0
   61.2020   33.8420   46.3480 C   0  0  0  0  0  0  0  0  0  0  0  0
   61.7030   33.2350   47.6800 C   0  0  0  0  0  0  0  0  0  0  0  0
   60.5760   33.0750   48.7050 C   0  0  0  0  0  0  0  0  0  0  0  0
   59.7610   34.3680   48.8250 C   0  0  0  0  0  0  0  0  0  0  0  0
   59.3340   34.9270   47.4490 C   0  0  0  0  0  0  0  0  0  0  0  0
   58.6110   29.9400   45.7060 C   0  0  0  0  0  0  0  0  0  0  0  0
   59.2110   30.4950   46.9660 C   0  0  0  0  0  0  0  0  0  0  0  0
   58.9700   28.7550   45.1510 N   0  0  0  0  0  0  0  0  0  0  0  0
   60.0140   27.8500   45.6390 C   0  0  0  0  0  0  0  0  0  0  0  0
   58.1300   28.5260   44.1120 C   0  0  0  0  0  0  0  0  0  0  0  0
   58.1550   27.2910   43.2550 C   0  0  0  0  0  0  0  0  0  0  0  0
   55.1827   29.8325   43.4910 H   0  0  0  0  0  0  0  0  0  0  0  0
   56.3303   30.5983   42.3407 H   0  0  0  0  0  0  0  0  0  0  0  0
   56.1145   28.8150   42.3407 H   0  0  0  0  0  0  0  0  0  0  0  0
   56.5785   33.5615   46.0017 H   0  0  0  0  0  0  0  0  0  0  0  0
   58.1040   32.7066   46.4509 H   0  0  0  0  0  0  0  0  0  0  0  0
   58.5717   32.8785   43.8321 H   0  0  0  0  0  0  0  0  0  0  0  0
   57.4141   34.2663   43.9673 H   0  0  0  0  0  0  0  0  0  0  0  0
   60.0918   34.5328   44.3259 H   0  0  0  0  0  0  0  0  0  0  0  0
   58.8667   35.5496   45.1708 H   0  0  0  0  0  0  0  0  0  0  0  0
   61.4767   33.1677   45.5234 H   0  0  0  0  0  0  0  0  0  0  0  0
   61.6712   34.8291   46.2233 H   0  0  0  0  0  0  0  0  0  0  0  0
   62.1392   32.2459   47.4763 H   0  0  0  0  0  0  0  0  0  0  0  0
   62.4492   33.9229   48.1042 H   0  0  0  0  0  0  0  0  0  0  0  0
   59.9117   32.2584   48.3859 H   0  0  0  0  0  0  0  0  0  0  0  0
   61.0206   32.8465   49.6848 H   0  0  0  0  0  0  0  0  0  0  0  0
   58.8577   34.1621   49.4181 H   0  0  0  0  0  0  0  0  0  0  0  0
   60.3990   35.1220   49.3092 H   0  0  0  0  0  0  0  0  0  0  0  0
   58.2403   35.0441   47.4350 H   0  0  0  0  0  0  0  0  0  0  0  0
   59.8346   35.8951   47.3005 H   0  0  0  0  0  0  0  0  0  0  0  0
   58.7188   30.0397   47.8380 H   0  0  0  0  0  0  0  0  0  0  0  0
   60.2867   30.2666   46.9914 H   0  0  0  0  0  0  0  0  0  0  0  0
   59.0670   31.5852   46.9914 H   0  0  0  0  0  0  0  0  0  0  0  0
   60.0143   27.8498   46.7390 H   0  0  0  0  0  0  0  0  0  0  0  0
   59.8174   26.8318   45.2722 H   0  0  0  0  0  0  0  0  0  0  0  0
   60.9940   28.1891   45.2722 H   0  0  0  0  0  0  0  0  0  0  0  0
   58.1731   26.3988   43.8981 H   0  0  0  0  0  0  0  0  0  0  0  0
   57.2572   27.2671   42.6199 H   0  0  0  0  0  0  0  0  0  0  0  0
   59.0531   27.3035   42.6199 H   0  0  0  0  0  0  0  0  0  0  0  0
  1  2  1  0
  2  3  1  0
  3  4  1  0
  4  5  1  0
  5  6  1  0
  6  7  1  0
  7  8  1  0
  8  9  1  0
  9 10  1  0
 10 11  1  0
 11 12  1  0
 12 13  1  0
  3 14  2  0
 14 15  1  0
 14 16  1  0
 16 17  1  0
 16 18  1  0
 18 19  1  0
 18  2  2  0
 13  8  1  0
  1 20  1  0
  1 21  1  0
  1 22  1  0
  5 23  1  0
  5 24  1  0
  6 25  1  0
  6 26  1  0
  7 27  1  0
  7 28  1  0
  9 29  1  0
  9 30  1  0
 10 31  1  0
 10 32  1  0
 11 33  1  0
 11 34  1  0
 12 35  1  0
 12 36  1  0
 13 37  1  0
 13 38  1  0
 15 39  1  0
 15 40  1  0
 15 41  1  0
 17 42  1  0
 17 43  1  0
 17 44  1  0
 19 45  1  0
 19 46  1  0
 19 47  1  0
M  END
>  <UniqueID>  (25) 
25

>  <SMILES>  (25) 
Cc1c(OCCCN2CCCCC2)c(C)n(C)c1C

>  <Energy>  (25) 
74.52391486183586

>  <Genealogy>  (25) 
Cc1c(OCCCN2CCCCC2)c(C)n(C)c1C (3D coordinates assigned)
Cc1c(OCCCN2CCCCC2)c(C)n(C)c1C (nonaromatic ring conformer: 74.52391486183586 kcal/mol)

>  <smiles>  (25) 
Cc1c(OCCCN2CCCCC2)c(C)n(C)c1C

>  <score_type>  (25) 
oracle

>  <origin>  (25) 
adg

>  <m_score__min__energy>  (25) 
-6.8600000000000003

>  <m_primary>  (25) 
energy

$$$$
25:0
     RDKit          3D

 43 44  0  0  0  0  0  0  0  0999 V2000
   63.3970   32.9110   47.1280 C   0  0  0  0  0  0  0  0  0  0  0  0
   62.1830   33.8410   46.9940 C   0  0  0  0  0  0  0  0  0  0  0  0
   61.1890   33.6960   48.0830 N   0  0  0  0  0  0  0  0  0  0  0  0
   61.6920   34.2150   49.3680 C   0  0  0  0  0  0  0  0  0  0  0  0
   59.8680   34.2600   47.7310 C   0  0  0  0  0  0  0  0  0  0  0  0
   59.9160   34.9770   46.3780 C   0  0  0  0  0  0  0  0  0  0  0  0
   59.8060   34.0510   45.3120 O   0  0  0  0  0  0  0  0  0  0  0  0
   58.6050   34.2230   44.5800 C   0  0  0  0  0  0  0  0  0  0  0  0
   57.3910   33.8310   45.4270 C   0  0  0  0  0  0  0  0  0  0  0  0
   57.0400   32.4610   45.2320 O   0  0  0  0  0  0  0  0  0  0  0  0
   57.8100   31.3510   45.6230 C   0  0  0  0  0  0  0  0  0  0  0  0
   58.7630   31.4330   46.6550 C   0  0  0  0  0  0  0  0  0  0  0  0
   59.4960   30.3090   47.0340 C   0  0  0  0  0  0  0  0  0  0  0  0
   59.2950   29.0830   46.3900 C   0  0  0  0  0  0  0  0  0  0  0  0
   60.0330   27.9540   46.7800 C   0  0  0  0  0  0  0  0  0  0  0  0
   59.8360   26.7300   46.1410 C   0  0  0  0  0  0  0  0  0  0  0  0
   58.9040   26.6220   45.1080 C   0  0  0  0  0  0  0  0  0  0  0  0
   58.1630   27.7360   44.7080 C   0  0  0  0  0  0  0  0  0  0  0  0
   58.3450   28.9830   45.3410 C   0  0  0  0  0  0  0  0  0  0  0  0
   57.6070   30.1280   44.9610 C   0  0  0  0  0  0  0  0  0  0  0  0
   56.2850   30.0670   43.5620 Br  0  0  0  0  0  0  0  0  0  0  0  0
   63.6151   32.7439   48.1931 H   0  0  0  0  0  0  0  0  0  0  0  0
   63.1767   31.9484   46.6434 H   0  0  0  0  0  0  0  0  0  0  0  0
   64.2691   33.3743   46.6434 H   0  0  0  0  0  0  0  0  0  0  0  0
   62.5425   34.8806   46.9902 H   0  0  0  0  0  0  0  0  0  0  0  0
   61.6730   33.5654   46.0592 H   0  0  0  0  0  0  0  0  0  0  0  0
   61.1880   33.6950   50.1960 H   0  0  0  0  0  0  0  0  0  0  0  0
   62.7766   34.0436   49.4334 H   0  0  0  0  0  0  0  0  0  0  0  0
   61.4867   35.2937   49.4334 H   0  0  0  0  0  0  0  0  0  0  0  0
   59.1316   33.4445   47.6793 H   0  0  0  0  0  0  0  0  0  0  0  0
   59.5834   34.9902   48.5029 H   0  0  0  0  0  0  0  0  0  0  0  0
   59.0834   35.6935   46.3202 H   0  0  0  0  0  0  0  0  0  0  0  0
   60.8796   35.5005   46.2912 H   0  0  0  0  0  0  0  0  0  0  0  0
   58.5118   35.2780   44.2827 H   0  0  0  0  0  0  0  0  0  0  0  0
   58.6383   33.5761   43.6909 H   0  0  0  0  0  0  0  0  0  0  0  0
   57.6286   33.9919   46.4889 H   0  0  0  0  0  0  0  0  0  0  0  0
   56.5384   34.4540   45.1189 H   0  0  0  0  0  0  0  0  0  0  0  0
   58.9312   32.3919   47.1671 H   0  0  0  0  0  0  0  0  0  0  0  0
   60.2364   30.3865   47.8438 H   0  0  0  0  0  0  0  0  0  0  0  0
   60.7696   28.0352   47.5929 H   0  0  0  0  0  0  0  0  0  0  0  0
   60.4161   25.8486   46.4517 H   0  0  0  0  0  0  0  0  0  0  0  0
   58.7523   25.6548   44.6065 H   0  0  0  0  0  0  0  0  0  0  0  0
   57.4312   27.6400   43.8923 H   0  0  0  0  0  0  0  0  0  0  0  0
  1  2  1  0
  2  3  1  0
  3  4  1  0
  3  5  1  0
  5  6  1  0
  6  7  1  0
  7  8  1  0
  8  9  1  0
  9 10  1  0
 10 11  1  0
 11 12  2  0
 12 13  1  0
 13 14  2  0
 14 15  1  0
 15 16  2  0
 16 17  1  0
 17 18  2  0
 18 19  1  0
 19 20  2  0
 20 21  1  0
 20 11  1  0
 19 14  1  0
  1 22  1  0
  1 23  1  0
  1 24  1  0
  2 25  1  0
  2 26  1  0
  4 27  1  0
  4 28  1  0
  4 29  1  0
  5 30  1  0
  5 31  1  0
  6 32  1  0
  6 33  1  0
  8 34  1  0
  8 35  1  0
  9 36  1  0
  9 37  1  0
 12 38  1  0
 13 39  1  0
 15 40  1  0
 16 41  1  0
 17 42  1  0
 18 43  1  0
M  END
>  <UniqueID>  (26) 
26

>  <SMILES>  (26) 
CCN(C)CCOCCOc1ccc2ccccc2c1Br

>  <Energy>  (26) 
49.42032633377496

>  <Genealogy>  (26) 
CCN(C)CCOCCOc1ccc2ccccc2c1Br (3D coordinates assigned)
CCN(C)CCOCCOc1ccc2ccccc2c1Br (optimized conformer: 49.42032633377496 kcal/mol)

>  <smiles>  (26) 
CCN(C)CCOCCOc1ccc2ccccc2c1Br

>  <score_type>  (26) 
oracle

>  <origin>  (26) 
adg

>  <m_score__min__energy>  (26) 
-6.9900000000000002

>  <m_primary>  (26) 
energy

$$$$
