0:0
     RDKit          3D

 47 49  0  0  0  0  0  0  0  0999 V2000
   58.0380   32.3640   41.6240 C   0  0  0  0  0  0  0  0  0  0  0  0
   57.7690   31.3970   42.7730 C   0  0  0  0  0  0  0  0  0  0  0  0
   57.9030   32.0850   44.0670 N   0  0  0  0  0  0  0  0  0  0  0  0
   58.3480   33.4850   44.0930 C   0  0  0  0  0  0  0  0  0  0  0  0
   57.3850   34.3410   44.9080 C   0  0  0  0  0  0  0  0  0  0  0  0
   57.5140   31.3980   45.2790 C   0  0  0  0  0  0  0  0  0  0  0  0
   56.6660   30.4670   45.2200 O   0  0  0  0  0  0  0  0  0  0  0  0
   58.1120   31.7400   46.6190 C   0  0  0  0  0  0  0  0  0  0  0  0
   59.5000   31.2650   46.7220 N   0  0  0  0  0  0  0  0  0  0  0  0
   59.9850   29.9970   46.5700 C   0  0  0  0  0  0  0  0  0  0  0  0
   59.1920   28.8310   46.1320 C   0  0  0  0  0  0  0  0  0  0  0  0
   58.5980   27.9950   47.0900 C   0  0  0  0  0  0  0  0  0  0  0  0
   57.8460   26.8880   46.6880 C   0  0  0  0  0  0  0  0  0  0  0  0
   57.7010   26.5930   45.3310 C   0  0  0  0  0  0  0  0  0  0  0  0
   58.3270   27.3930   44.3640 C   0  0  0  0  0  0  0  0  0  0  0  0
   58.1520   27.0930   42.9050 C   0  0  0  0  0  0  0  0  0  0  0  0
   59.0680   28.5140   44.7700 C   0  0  0  0  0  0  0  0  0  0  0  0
   61.3140   29.8930   46.8340 N   0  0  0  0  0  0  0  0  0  0  0  0
   61.6660   31.1540   47.1340 C   0  0  0  0  0  0  0  0  0  0  0  0
   62.9360   31.6200   47.4700 C   0  0  0  0  0  0  0  0  0  0  0  0
   63.0830   32.9950   47.7230 C   0  0  0  0  0  0  0  0  0  0  0  0
   61.9710   33.8630   47.6270 C   0  0  0  0  0  0  0  0  0  0  0  0
   60.7040   33.3600   47.2820 C   0  0  0  0  0  0  0  0  0  0  0  0
   60.5880   31.9860   47.0530 C   0  0  0  0  0  0  0  0  0  0  0  0
   58.3120   33.3489   42.0302 H   0  0  0  0  0  0  0  0  0  0  0  0
   58.8633   31.9795   41.0067 H   0  0  0  0  0  0  0  0  0  0  0  0
   57.1327   32.4609   41.0067 H   0  0  0  0  0  0  0  0  0  0  0  0
   56.7482   30.9980   42.6790 H   0  0  0  0  0  0  0  0  0  0  0  0
   58.5017   30.5778   42.7278 H   0  0  0  0  0  0  0  0  0  0  0  0
   59.3493   33.5374   44.5454 H   0  0  0  0  0  0  0  0  0  0  0  0
   58.3750   33.8669   43.0618 H   0  0  0  0  0  0  0  0  0  0  0  0
   57.5678   34.1785   45.9805 H   0  0  0  0  0  0  0  0  0  0  0  0
   57.5429   35.4023   44.6658 H   0  0  0  0  0  0  0  0  0  0  0  0
   56.3495   34.0598   44.6658 H   0  0  0  0  0  0  0  0  0  0  0  0
   58.0964   32.8321   46.7501 H   0  0  0  0  0  0  0  0  0  0  0  0
   57.5170   31.2455   47.4010 H   0  0  0  0  0  0  0  0  0  0  0  0
   58.7248   28.2119   48.1609 H   0  0  0  0  0  0  0  0  0  0  0  0
   57.3669   26.2471   47.4428 H   0  0  0  0  0  0  0  0  0  0  0  0
   57.0938   25.7303   45.0193 H   0  0  0  0  0  0  0  0  0  0  0  0
   57.6009   26.1482   42.7885 H   0  0  0  0  0  0  0  0  0  0  0  0
   57.5876   27.9079   42.4282 H   0  0  0  0  0  0  0  0  0  0  0  0
   59.1392   27.0028   42.4282 H   0  0  0  0  0  0  0  0  0  0  0  0
   59.5552   29.1488   44.0153 H   0  0  0  0  0  0  0  0  0  0  0  0
   63.7942   30.9350   47.5350 H   0  0  0  0  0  0  0  0  0  0  0  0
   64.0691   33.3980   47.9973 H   0  0  0  0  0  0  0  0  0  0  0  0
   62.0977   34.9379   47.8233 H   0  0  0  0  0  0  0  0  0  0  0  0
   59.8328   34.0259   47.1952 H   0  0  0  0  0  0  0  0  0  0  0  0
  1  2  1  0
  2  3  1  0
  3  4  1  0
  4  5  1  0
  3  6  1  0
  6  7  2  0
  6  8  1  0
  8  9  1  0
  9 10  1  0
 10 11  1  0
 11 12  2  0
 12 13  1  0
 13 14  2  0
 14 15  1  0
 15 16  1  0
 15 17  2  0
 10 18  2  0
 18 19  1  0
 19 20  2  0
 20 21  1  0
 21 22  2  0
 22 23  1  0
 23 24  2  0
 24  9  1  0
 17 11  1  0
 24 19  1  0
  1 25  1  0
  1 26  1  0
  1 27  1  0
  2 28  1  0
  2 29  1  0
  4 30  1  0
  4 31  1  0
  5 32  1  0
  5 33  1  0
  5 34  1  0
  8 35  1  0
  8 36  1  0
 12 37  1  0
 13 38  1  0
 14 39  1  0
 16 40  1  0
 16 41  1  0
 16 42  1  0
 17 43  1  0
 20 44  1  0
 21 45  1  0
 22 46  1  0
 23 47  1  0
M  END
>  <UniqueID>  (1) 
1

>  <SMILES>  (1) 
CCN(CC)C(=O)Cn1c(-c2cccc(C)c2)nc2ccccc21

>  <Energy>  (1) 
82.33160798140246

>  <Genealogy>  (1) 
CCN(CC)C(=O)Cn1c(-c2cccc(C)c2)nc2ccccc21 (3D coordinates assigned)
CCN(CC)C(=O)Cn1c(-c2cccc(C)c2)nc2ccccc21 (optimized conformer: 82.33160798140246 kcal/mol)

>  <smiles>  (1) 
CCN(CC)C(=O)Cn1c(-c2cccc(C)c2)nc2ccccc21

>  <score_type>  (1) 
oracle

>  <origin>  (1) 
adg

>  <m_score__min__energy>  (1) 
-7.6500000000000004

>  <m_primary>  (1) 
energy

$$$$
1:0
     RDKit          3D

 44 47  0  0  0  0  0  0  0  0999 V2000
   57.0230   34.2150   44.8810 C   0  0  0  0  0  0  0  0  0  0  0  0
   58.3550   34.3020   45.6200 C   0  0  0  0  0  0  0  0  0  0  0  0
   58.8560   32.9530   45.9550 N   0  0  0  0  0  0  0  0  0  0  0  0
   58.0000   31.9040   45.7500 C   0  0  0  0  0  0  0  0  0  0  0  0
   58.3800   30.5870   46.0150 C   0  0  0  0  0  0  0  0  0  0  0  0
   57.4210   29.4920   45.7510 C   0  0  0  0  0  0  0  0  0  0  0  0
   57.7510   28.3080   46.0230 O   0  0  0  0  0  0  0  0  0  0  0  0
   56.1110   29.7440   45.2320 N   0  0  0  0  0  0  0  0  0  0  0  0
   55.7940   29.7730   43.8090 C   0  0  0  0  0  0  0  0  0  0  0  0
   56.9030   29.1800   42.9600 C   0  0  0  0  0  0  0  0  0  0  0  0
   56.6940   30.6850   42.9950 C   0  0  0  0  0  0  0  0  0  0  0  0
   59.6470   30.3370   46.5530 C   0  0  0  0  0  0  0  0  0  0  0  0
   59.9800   29.1570   46.8550 O   0  0  0  0  0  0  0  0  0  0  0  0
   60.5300   31.4050   46.7840 C   0  0  0  0  0  0  0  0  0  0  0  0
   61.8130   31.1730   47.3170 C   0  0  0  0  0  0  0  0  0  0  0  0
   62.6860   32.2400   47.5770 C   0  0  0  0  0  0  0  0  0  0  0  0
   63.9730   32.0370   48.0960 O   0  0  0  0  0  0  0  0  0  0  0  0
   64.4690   32.6140   49.2720 C   0  0  0  0  0  0  0  0  0  0  0  0
   63.6160   32.8350   50.3070 N   0  0  0  0  0  0  0  0  0  0  0  0
   64.0510   33.3820   51.4710 C   0  0  0  0  0  0  0  0  0  0  0  0
   65.3940   33.7200   51.6210 C   0  0  0  0  0  0  0  0  0  0  0  0
   66.2630   33.4720   50.5610 C   0  0  0  0  0  0  0  0  0  0  0  0
   65.7940   32.9200   49.4100 N   0  0  0  0  0  0  0  0  0  0  0  0
   62.2850   33.5390   47.2730 C   0  0  0  0  0  0  0  0  0  0  0  0
   61.0190   33.7900   46.7420 C   0  0  0  0  0  0  0  0  0  0  0  0
   60.1160   32.7320   46.4820 C   0  0  0  0  0  0  0  0  0  0  0  0
   56.2016   34.1614   45.6107 H   0  0  0  0  0  0  0  0  0  0  0  0
   56.8950   35.1067   44.2497 H   0  0  0  0  0  0  0  0  0  0  0  0
   57.0121   33.3142   44.2497 H   0  0  0  0  0  0  0  0  0  0  0  0
   59.0903   34.8115   44.9800 H   0  0  0  0  0  0  0  0  0  0  0  0
   58.2055   34.8653   46.5529 H   0  0  0  0  0  0  0  0  0  0  0  0
   56.9883   32.1039   45.3672 H   0  0  0  0  0  0  0  0  0  0  0  0
   54.7055   29.6387   43.8937 H   0  0  0  0  0  0  0  0  0  0  0  0
   57.7868   28.7360   43.4415 H   0  0  0  0  0  0  0  0  0  0  0  0
   56.9535   28.4198   42.1665 H   0  0  0  0  0  0  0  0  0  0  0  0
   57.4263   31.3305   43.5019 H   0  0  0  0  0  0  0  0  0  0  0  0
   56.5304   31.4658   42.2376 H   0  0  0  0  0  0  0  0  0  0  0  0
   62.1342   30.1431   47.5319 H   0  0  0  0  0  0  0  0  0  0  0  0
   63.3436   33.5581   52.2948 H   0  0  0  0  0  0  0  0  0  0  0  0
   65.7597   34.1722   52.5547 H   0  0  0  0  0  0  0  0  0  0  0  0
   67.3299   33.7229   50.6550 H   0  0  0  0  0  0  0  0  0  0  0  0
   66.4710   32.7090   48.6430 H   0  0  0  0  0  0  0  0  0  0  0  0
   62.9744   34.3769   47.4536 H   0  0  0  0  0  0  0  0  0  0  0  0
   60.7188   34.8252   46.5224 H   0  0  0  0  0  0  0  0  0  0  0  0
  1  2  1  0
  2  3  1  0
  3  4  1  0
  4  5  2  0
  5  6  1  0
  6  7  2  0
  6  8  1  0
  8  9  1  0
  9 10  1  0
 10 11  1  0
  5 12  1  0
 12 13  2  0
 12 14  1  0
 14 15  2  0
 15 16  1  0
 16 17  1  0
 17 18  1  0
 18 19  2  0
 19 20  1  0
 20 21  2  0
 21 22  1  0
 22 23  2  0
 16 24  2  0
 24 25  1  0
 25 26  2  0
 26  3  1  0
 11  9  1  0
 26 14  1  0
 23 18  1  0
  1 27  1  0
  1 28  1  0
  1 29  1  0
  2 30  1  0
  2 31  1  0
  4 32  1  0
  9 33  1  0
 10 34  1  0
 10 35  1  0
 11 36  1  0
 11 37  1  0
 15 38  1  0
 20 39  1  0
 21 40  1  0
 22 41  1  0
 23 42  1  0
 24 43  1  0
 25 44  1  0
M  CHG  2   8  -1  23   1
M  END
>  <UniqueID>  (2) 
2

>  <SMILES>  (2) 
CCn1cc(C(=O)[N-]C2CC2)c(=O)c2cc(Oc3nccc[nH+]3)ccc21

>  <Energy>  (2) 
330.6484861592534

>  <Genealogy>  (2) 
CCn1cc(C(=O)[N-]C2CC2)c(=O)c2cc(Oc3nccc[nH+]3)ccc21 (protonated)
CCn1cc(C(=O)[N-]C2CC2)c(=O)c2cc(Oc3nccc[nH+]3)ccc21 (3D coordinates assigned)
CCn1cc(C(=O)[N-]C2CC2)c(=O)c2cc(Oc3nccc[nH+]3)ccc21 (nonaromatic ring conformer: 330.6484861592534 kcal/mol)

>  <smiles>  (2) 
CCn1cc(C(=O)NC2CC2)c(=O)c2cc(Oc3ncccn3)ccc21

>  <score_type>  (2) 
oracle

>  <origin>  (2) 
adg

>  <m_score__min__energy>  (2) 
-8.1699999999999999

>  <m_primary>  (2) 
energy

$$$$
2:0
     RDKit          3D

 38 40  0  0  0  0  0  0  0  0999 V2000
   68.1800   33.1260   50.8130 C   0  0  0  0  0  0  0  0  0  0  0  0
   66.8050   32.6010   50.5720 C   0  0  0  0  0  0  0  0  0  0  0  0
   66.1800   31.6110   51.3030 C   0  0  0  0  0  0  0  0  0  0  0  0
   64.9160   31.5300   50.7510 C   0  0  0  0  0  0  0  0  0  0  0  0
   63.8430   30.5900   51.2110 C   0  0  0  0  0  0  0  0  0  0  0  0
   64.8120   32.4430   49.7540 N   0  0  0  0  0  0  0  0  0  0  0  0
   63.6760   32.7190   48.9100 C   0  0  0  0  0  0  0  0  0  0  0  0
   62.4900   33.1000   49.4490 N   0  0  0  0  0  0  0  0  0  0  0  0
   61.4070   33.3650   48.6760 C   0  0  0  0  0  0  0  0  0  0  0  0
   60.1500   33.8270   49.3480 C   0  0  0  0  0  0  0  0  0  0  0  0
   61.5200   33.2200   47.2780 C   0  0  0  0  0  0  0  0  0  0  0  0
   60.4230   33.4560   46.3750 N   0  0  0  0  0  0  0  0  0  0  0  0
   59.4510   32.4190   46.0630 C   0  0  0  0  0  0  0  0  0  0  0  0
   58.3480   33.1100   45.2770 C   0  0  0  0  0  0  0  0  0  0  0  0
   58.4840   34.5910   45.6090 C   0  0  0  0  0  0  0  0  0  0  0  0
   59.9370   34.7820   46.0220 C   0  0  0  0  0  0  0  0  0  0  0  0
   62.7280   32.8580   46.7720 N   0  0  0  0  0  0  0  0  0  0  0  0
   63.7780   32.6130   47.5560 N   0  0  0  0  0  0  0  0  0  0  0  0
   65.9600   33.0990   49.6510 N   0  0  0  0  0  0  0  0  0  0  0  0
   68.3615   33.1953   51.8957 H   0  0  0  0  0  0  0  0  0  0  0  0
   68.9167   32.4459   50.3605 H   0  0  0  0  0  0  0  0  0  0  0  0
   68.2760   34.1240   50.3605 H   0  0  0  0  0  0  0  0  0  0  0  0
   66.5935   31.0215   52.1346 H   0  0  0  0  0  0  0  0  0  0  0  0
   63.8199   30.5698   52.3106 H   0  0  0  0  0  0  0  0  0  0  0  0
   62.8690   30.9307   50.8300 H   0  0  0  0  0  0  0  0  0  0  0  0
   64.0526   29.5796   50.8300 H   0  0  0  0  0  0  0  0  0  0  0  0
   60.2790   33.7796   50.4394 H   0  0  0  0  0  0  0  0  0  0  0  0
   59.9339   34.8633   49.0490 H   0  0  0  0  0  0  0  0  0  0  0  0
   59.3143   33.1773   49.0490 H   0  0  0  0  0  0  0  0  0  0  0  0
   59.9159   31.6278   45.4565 H   0  0  0  0  0  0  0  0  0  0  0  0
   59.0614   31.9412   46.9740 H   0  0  0  0  0  0  0  0  0  0  0  0
   58.4815   32.9433   44.1979 H   0  0  0  0  0  0  0  0  0  0  0  0
   57.3529   32.7210   45.5387 H   0  0  0  0  0  0  0  0  0  0  0  0
   58.2507   35.2059   44.7273 H   0  0  0  0  0  0  0  0  0  0  0  0
   57.7893   34.8968   46.4051 H   0  0  0  0  0  0  0  0  0  0  0  0
   60.5220   35.1954   45.1872 H   0  0  0  0  0  0  0  0  0  0  0  0
   60.0315   35.4862   46.8617 H   0  0  0  0  0  0  0  0  0  0  0  0
   64.6800   32.3340   47.1100 H   0  0  0  0  0  0  0  0  0  0  0  0
  1  2  1  0
  2  3  1  0
  3  4  2  0
  4  5  1  0
  4  6  1  0
  6  7  1  0
  7  8  2  0
  8  9  1  0
  9 10  1  0
  9 11  2  0
 11 12  1  0
 12 13  1  0
 13 14  1  0
 14 15  1  0
 15 16  1  0
 11 17  1  0
 17 18  2  0
  6 19  1  0
 19  2  2  0
 18  7  1  0
 16 12  1  0
  1 20  1  0
  1 21  1  0
  1 22  1  0
  3 23  1  0
  5 24  1  0
  5 25  1  0
  5 26  1  0
 10 27  1  0
 10 28  1  0
 10 29  1  0
 13 30  1  0
 13 31  1  0
 14 32  1  0
 14 33  1  0
 15 34  1  0
 15 35  1  0
 16 36  1  0
 16 37  1  0
 18 38  1  0
M  CHG  1  18   1
M  END
>  <UniqueID>  (3) 
3

>  <SMILES>  (3) 
Cc1cc(C)n(-c2nc(C)c(N3CCCC3)n[nH+]2)n1

>  <Energy>  (3) 
72.87906994655047

>  <Genealogy>  (3) 
Cc1cc(C)n(-c2nc(C)c(N3CCCC3)n[nH+]2)n1 (protonated)
Cc1cc(C)n(-c2nc(C)c(N3CCCC3)n[nH+]2)n1 (3D coordinates assigned)
Cc1cc(C)n(-c2nc(C)c(N3CCCC3)n[nH+]2)n1 (nonaromatic ring conformer: 72.87906994655047 kcal/mol)

>  <smiles>  (3) 
Cc1cc(C)n(-c2nnc(N3CCCC3)c(C)n2)n1

>  <score_type>  (3) 
oracle

>  <origin>  (3) 
adg

>  <m_score__min__energy>  (3) 
-6.2199999999999998

>  <m_primary>  (3) 
energy

$$$$
3:0
     RDKit          3D

 44 44  0  0  0  0  0  0  0  0999 V2000
   57.4090   32.0220   41.5060 C   0  0  0  0  0  0  0  0  0  0  0  0
   57.5870   31.2620   42.6830 O   0  0  0  0  0  0  0  0  0  0  0  0
   56.5760   30.2730   42.7850 C   0  0  0  0  0  0  0  0  0  0  0  0
   56.1050   30.1200   44.2010 C   0  0  0  0  0  0  0  0  0  0  0  0
   55.1360   29.3590   44.4670 O   0  0  0  0  0  0  0  0  0  0  0  0
   56.7480   30.8810   45.2330 N   0  0  0  0  0  0  0  0  0  0  0  0
   58.1590   30.8280   45.6360 C   0  0  1  0  0  0  0  0  0  0  0  0
   58.4990   31.9090   46.6990 C   0  0  0  0  0  0  0  0  0  0  0  0
   58.0800   33.3730   46.3930 C   0  0  0  0  0  0  0  0  0  0  0  0
   58.1700   33.6300   44.8820 C   0  0  0  0  0  0  0  0  0  0  0  0
   58.9490   34.4050   47.1310 C   0  0  0  0  0  0  0  0  0  0  0  0
   58.6260   29.4280   45.9660 C   0  0  0  0  0  0  0  0  0  0  0  0
   59.8530   29.2040   46.1570 O   0  0  0  0  0  0  0  0  0  0  0  0
   57.7040   28.3280   45.9250 N   0  0  0  0  0  0  0  0  0  0  0  0
   58.0320   27.0140   46.4750 C   0  0  0  0  0  0  0  0  0  0  0  0
   57.3090   25.9460   45.7040 C   0  0  0  0  0  0  0  0  0  0  0  0
   57.7540   25.5620   44.4270 C   0  0  0  0  0  0  0  0  0  0  0  0
   57.1230   24.5150   43.7480 C   0  0  0  0  0  0  0  0  0  0  0  0
   56.0500   23.8410   44.3380 C   0  0  0  0  0  0  0  0  0  0  0  0
   55.4430   22.8230   43.6790 F   0  0  0  0  0  0  0  0  0  0  0  0
   55.6060   24.2140   45.6110 C   0  0  0  0  0  0  0  0  0  0  0  0
   56.2330   25.2610   46.2930 C   0  0  0  0  0  0  0  0  0  0  0  0
   57.1657   33.0608   41.7736 H   0  0  0  0  0  0  0  0  0  0  0  0
   58.3358   32.0034   40.9138 H   0  0  0  0  0  0  0  0  0  0  0  0
   56.5869   31.5937   40.9138 H   0  0  0  0  0  0  0  0  0  0  0  0
   55.7240   30.5649   42.1534 H   0  0  0  0  0  0  0  0  0  0  0  0
   56.9953   29.3119   42.4525 H   0  0  0  0  0  0  0  0  0  0  0  0
   58.7645   31.0990   44.7585 H   0  0  0  0  0  0  0  0  0  0  0  0
   58.0063   31.6147   47.6374 H   0  0  0  0  0  0  0  0  0  0  0  0
   59.5982   31.9334   46.7319 H   0  0  0  0  0  0  0  0  0  0  0  0
   57.0460   33.4934   46.7485 H   0  0  0  0  0  0  0  0  0  0  0  0
   58.5288   34.6547   44.7051 H   0  0  0  0  0  0  0  0  0  0  0  0
   58.8705   32.9129   44.4292 H   0  0  0  0  0  0  0  0  0  0  0  0
   57.1752   33.5066   44.4292 H   0  0  0  0  0  0  0  0  0  0  0  0
   58.8356   34.2704   48.2168 H   0  0  0  0  0  0  0  0  0  0  0  0
   60.0035   34.2629   46.8520 H   0  0  0  0  0  0  0  0  0  0  0  0
   58.6295   35.4199   46.8520 H   0  0  0  0  0  0  0  0  0  0  0  0
   56.7410   28.4780   45.5480 H   0  0  0  0  0  0  0  0  0  0  0  0
   59.1168   26.8473   46.4009 H   0  0  0  0  0  0  0  0  0  0  0  0
   57.7227   26.9737   47.5298 H   0  0  0  0  0  0  0  0  0  0  0  0
   58.6009   26.0866   43.9606 H   0  0  0  0  0  0  0  0  0  0  0  0
   57.4719   24.2211   42.7471 H   0  0  0  0  0  0  0  0  0  0  0  0
   54.7624   23.6828   46.0760 H   0  0  0  0  0  0  0  0  0  0  0  0
   55.8825   25.5497   47.2949 H   0  0  0  0  0  0  0  0  0  0  0  0
  1  2  1  0
  2  3  1  0
  3  4  1  0
  4  5  2  0
  4  6  1  0
  6  7  1  0
  7  8  1  0
  8  9  1  0
  9 10  1  0
  9 11  1  0
  7 12  1  0
 12 13  2  0
 12 14  1  0
 14 15  1  0
 15 16  1  0
 16 17  2  0
 17 18  1  0
 18 19  2  0
 19 20  1  0
 19 21  1  0
 21 22  2  0
 22 16  1  0
  1 23  1  0
  1 24  1  0
  1 25  1  0
  3 26  1  0
  3 27  1  0
  7 28  1  6
  8 29  1  0
  8 30  1  0
  9 31  1  0
 10 32  1  0
 10 33  1  0
 10 34  1  0
 11 35  1  0
 11 36  1  0
 11 37  1  0
 14 38  1  0
 15 39  1  0
 15 40  1  0
 17 41  1  0
 18 42  1  0
 21 43  1  0
 22 44  1  0
M  CHG  1   6  -1
M  END
>  <UniqueID>  (4) 
4

>  <SMILES>  (4) 
COCC(=O)[N-][C@@H](CC(C)C)C(=O)NCc1ccc(F)cc1

>  <Energy>  (4) 
36.98188017594134

>  <Genealogy>  (4) 
COCC(=O)[N-]C(CC(C)C)C(=O)NCc1ccc(F)cc1 (protonated)
COCC(=O)[N-][C@@H](CC(C)C)C(=O)NCc1ccc(F)cc1 (chirality)
COCC(=O)[N-][C@@H](CC(C)C)C(=O)NCc1ccc(F)cc1 (3D coordinates assigned)
COCC(=O)[N-][C@@H](CC(C)C)C(=O)NCc1ccc(F)cc1 (optimized conformer: 36.98188017594134 kcal/mol)

>  <smiles>  (4) 
COCC(=O)NC(CC(C)C)C(=O)NCc1ccc(F)cc1

>  <score_type>  (4) 
oracle

>  <origin>  (4) 
adg

>  <m_score__min__energy>  (4) 
-9.4100000000000001

>  <m_primary>  (4) 
energy

$$$$
4:0
     RDKit          3D

 44 47  0  0  0  0  0  0  0  0999 V2000
   58.4730   29.1321   45.3231 H   0  0  0  0  0  0  0  0  0  0  0  0
   58.3390   30.2210   45.2430 C   0  0  0  0  0  0  0  0  0  0  0  0
   58.3580   30.8350   43.9920 C   0  0  0  0  0  0  0  0  0  0  0  0
   58.5154   30.2305   43.0866 H   0  0  0  0  0  0  0  0  0  0  0  0
   58.1780   32.2140   43.8850 C   0  0  0  0  0  0  0  0  0  0  0  0
   58.1964   32.6900   42.8935 H   0  0  0  0  0  0  0  0  0  0  0  0
   57.9730   33.0030   45.0330 C   0  0  0  0  0  0  0  0  0  0  0  0
   57.7540   34.4200   44.8910 N   0  0  0  0  0  0  0  0  0  0  0  0
   56.5950   34.8810   44.8930 O   0  0  0  0  0  0  0  0  0  0  0  0
   58.8150   35.2970   44.8940 O   0  0  0  0  0  0  0  0  0  0  0  0
   57.9730   32.3830   46.3040 C   0  0  0  0  0  0  0  0  0  0  0  0
   57.8420   33.1770   47.4920 N   0  0  0  0  0  0  0  0  0  0  0  0
   58.7360   34.0070   47.8500 N   0  0  0  0  0  0  0  0  0  0  0  0
   59.9950   33.5950   48.3940 C   0  0  0  0  0  0  0  0  0  0  0  0
   60.1850   33.0160   49.6490 C   0  0  0  0  0  0  0  0  0  0  0  0
   59.1440   32.7740   50.6760 C   0  0  0  0  0  0  0  0  0  0  0  0
   58.8810   33.7240   51.6770 C   0  0  0  0  0  0  0  0  0  0  0  0
   59.4519   34.6639   51.7024 H   0  0  0  0  0  0  0  0  0  0  0  0
   57.8990   33.4820   52.6400 C   0  0  0  0  0  0  0  0  0  0  0  0
   57.6974   34.2335   53.4175 H   0  0  0  0  0  0  0  0  0  0  0  0
   57.1720   32.2900   52.6200 C   0  0  0  0  0  0  0  0  0  0  0  0
   56.3977   32.1064   53.3795 H   0  0  0  0  0  0  0  0  0  0  0  0
   57.4280   31.3230   51.6300 C   0  0  0  0  0  0  0  0  0  0  0  0
   56.7270   30.1090   51.5670 O   0  0  0  0  0  0  0  0  0  0  0  0
   55.9180   29.5920   52.6180 C   0  0  0  0  0  0  0  0  0  0  0  0
   56.3548   29.8712   53.5882 H   0  0  0  0  0  0  0  0  0  0  0  0
   54.9034   30.0095   52.5390 H   0  0  0  0  0  0  0  0  0  0  0  0
   55.8707   28.4959   52.5390 H   0  0  0  0  0  0  0  0  0  0  0  0
   58.4140   31.5710   50.6680 C   0  0  0  0  0  0  0  0  0  0  0  0
   58.6210   30.8156   49.8956 H   0  0  0  0  0  0  0  0  0  0  0  0
   61.4870   32.6750   49.8080 N   0  0  0  0  0  0  0  0  0  0  0  0
   61.9270   32.2320   50.6460 H   0  0  0  0  0  0  0  0  0  0  0  0
   62.1110   33.0310   48.6710 C   0  0  0  0  0  0  0  0  0  0  0  0
   63.4610   32.8570   48.3690 C   0  0  0  0  0  0  0  0  0  0  0  0
   64.1525   32.4101   49.0985 H   0  0  0  0  0  0  0  0  0  0  0  0
   63.9110   33.2710   47.1020 C   0  0  0  0  0  0  0  0  0  0  0  0
   64.9717   33.1556   46.8342 H   0  0  0  0  0  0  0  0  0  0  0  0
   63.0110   33.8330   46.1730 C   0  0  0  0  0  0  0  0  0  0  0  0
   63.3739   34.1472   45.1832 H   0  0  0  0  0  0  0  0  0  0  0  0
   61.6530   33.9950   46.5020 C   0  0  0  0  0  0  0  0  0  0  0  0
   60.9424   34.4254   45.7810 H   0  0  0  0  0  0  0  0  0  0  0  0
   61.2340   33.5920   47.7740 C   0  0  0  0  0  0  0  0  0  0  0  0
   58.1500   30.9870   46.3940 C   0  0  0  0  0  0  0  0  0  0  0  0
   58.1390   30.4979   47.3792 H   0  0  0  0  0  0  0  0  0  0  0  0
  1  2  1  0
  2  3  2  0
  3  4  1  0
  3  5  1  0
  5  6  1  0
  5  7  2  0
  7  8  1  0
  8  9  2  0
  8 10  1  0
  7 11  1  0
 11 12  1  0
 12 13  2  0
 13 14  1  0
 14 15  2  0
 15 16  1  0
 16 17  2  0
 17 18  1  0
 17 19  1  0
 19 20  1  0
 19 21  2  0
 21 22  1  0
 21 23  1  0
 23 24  1  0
 24 25  1  0
 25 26  1  0
 25 27  1  0
 25 28  1  0
 23 29  2  0
 29 30  1  0
 15 31  1  0
 31 32  1  0
 31 33  1  0
 33 34  2  0
 34 35  1  0
 34 36  1  0
 36 37  1  0
 36 38  2  0
 38 39  1  0
 38 40  1  0
 40 41  1  0
 40 42  2  0
 11 43  2  0
 43 44  1  0
 43  2  1  0
 42 14  1  0
 29 16  1  0
 42 33  1  0
M  CHG  2   8   1  10  -1
M  END
>  <UniqueID>  (5) 
5

>  <SMILES>  (5) 
COc1cccc(-c2[nH]c3ccccc3c2/N=N/c2ccccc2[N+](=O)[O-])c1

>  <Energy>  (5) 
90.48376980044829

>  <Genealogy>  (5) 
COc1cccc(-c2[nH]c3ccccc3c2/N=N/c2ccccc2[N+](=O)[O-])c1 (cis-trans isomerization)
COc1cccc(-c2[nH]c3ccccc3c2/N=N/c2ccccc2[N+](=O)[O-])c1 (3D coordinates assigned)
COc1cccc(-c2[nH]c3ccccc3c2/N=N/c2ccccc2[N+](=O)[O-])c1 (optimized conformer: 90.48376980044829 kcal/mol)

>  <smiles>  (5) 
COc1cccc(-c2[nH]c3ccccc3c2N=Nc2ccccc2[N+](=O)[O-])c1

>  <score_type>  (5) 
oracle

>  <origin>  (5) 
adg

>  <m_score__min__energy>  (5) 
-8.5600000000000005

>  <m_primary>  (5) 
energy

$$$$
5:0
     RDKit          3D

 49 51  0  0  0  0  0  0  0  0999 V2000
   55.3590   29.0240   44.8750 N   0  0  0  0  0  0  0  0  0  0  0  0
   56.4490   29.8980   44.5890 C   0  0  0  0  0  0  0  0  0  0  0  0
   56.2790   31.1460   44.6460 O   0  0  0  0  0  0  0  0  0  0  0  0
   57.7690   29.3170   44.1620 C   0  0  0  0  0  0  0  0  0  0  0  0
   58.7350   29.0740   45.3350 C   0  0  0  0  0  0  0  0  0  0  0  0
   58.1450   28.2310   46.4430 C   0  0  0  0  0  0  0  0  0  0  0  0
   57.1920   27.4450   46.2020 O   0  0  0  0  0  0  0  0  0  0  0  0
   58.6940   28.2570   47.7650 N   0  0  0  0  0  0  0  0  0  0  0  0
   60.1020   28.4940   48.0640 C   0  0  0  0  0  0  0  0  0  0  0  0
   60.2670   29.8120   48.8230 C   0  0  0  0  0  0  0  0  0  0  0  0
   59.8060   31.0070   48.0280 C   0  0  0  0  0  0  0  0  0  0  0  0
   58.4920   31.3420   47.9070 N   0  0  0  0  0  0  0  0  0  0  0  0
   58.5180   32.3860   47.0620 C   0  0  0  0  0  0  0  0  0  0  0  0
   57.4350   33.1330   46.6030 C   0  0  0  0  0  0  0  0  0  0  0  0
   57.6980   34.1900   45.7130 C   0  0  0  0  0  0  0  0  0  0  0  0
   59.0220   34.4690   45.3050 C   0  0  0  0  0  0  0  0  0  0  0  0
   60.0930   33.6950   45.7850 C   0  0  0  0  0  0  0  0  0  0  0  0
   59.7970   32.6560   46.6720 C   0  0  0  0  0  0  0  0  0  0  0  0
   60.6290   31.7850   47.2680 N   0  0  0  0  0  0  0  0  0  0  0  0
   62.0880   31.7210   47.1330 C   0  0  0  0  0  0  0  0  0  0  0  0
   62.7250   33.1120   47.2740 C   0  0  0  0  0  0  0  0  0  0  0  0
   63.2130   33.3710   48.6810 C   0  0  0  0  0  0  0  0  0  0  0  0
   64.5540   33.0890   48.9950 C   0  0  0  0  0  0  0  0  0  0  0  0
   65.0350   33.2760   50.2920 C   0  0  0  0  0  0  0  0  0  0  0  0
   64.1860   33.7550   51.2900 C   0  0  0  0  0  0  0  0  0  0  0  0
   62.8550   34.0490   50.9940 C   0  0  0  0  0  0  0  0  0  0  0  0
   62.3570   33.8550   49.6990 C   0  0  0  0  0  0  0  0  0  0  0  0
   60.6650   34.2390   49.4040 Cl  0  0  0  0  0  0  0  0  0  0  0  0
   55.5120   27.9970   44.9860 H   0  0  0  0  0  0  0  0  0  0  0  0
   57.5816   28.3567   43.6594 H   0  0  0  0  0  0  0  0  0  0  0  0
   58.2460   30.0486   43.4933 H   0  0  0  0  0  0  0  0  0  0  0  0
   59.6292   28.5632   44.9485 H   0  0  0  0  0  0  0  0  0  0  0  0
   58.9684   30.0576   45.7686 H   0  0  0  0  0  0  0  0  0  0  0  0
   60.4861   27.6687   48.6815 H   0  0  0  0  0  0  0  0  0  0  0  0
   60.6644   28.5507   47.1204 H   0  0  0  0  0  0  0  0  0  0  0  0
   59.6784   29.7591   49.7508 H   0  0  0  0  0  0  0  0  0  0  0  0
   61.3399   29.9442   49.0266 H   0  0  0  0  0  0  0  0  0  0  0  0
   56.4087   32.9038   46.9258 H   0  0  0  0  0  0  0  0  0  0  0  0
   56.8680   34.8032   45.3322 H   0  0  0  0  0  0  0  0  0  0  0  0
   59.2158   35.2971   44.6074 H   0  0  0  0  0  0  0  0  0  0  0  0
   61.1279   33.8999   45.4734 H   0  0  0  0  0  0  0  0  0  0  0  0
   62.4914   31.0615   47.9156 H   0  0  0  0  0  0  0  0  0  0  0  0
   62.3266   31.3305   46.1327 H   0  0  0  0  0  0  0  0  0  0  0  0
   63.5781   33.1837   46.5833 H   0  0  0  0  0  0  0  0  0  0  0  0
   61.9571   33.8631   47.0369 H   0  0  0  0  0  0  0  0  0  0  0  0
   65.2306   32.7175   48.2113 H   0  0  0  0  0  0  0  0  0  0  0  0
   66.0845   33.0455   50.5274 H   0  0  0  0  0  0  0  0  0  0  0  0
   64.5667   33.9010   52.3116 H   0  0  0  0  0  0  0  0  0  0  0  0
   62.1923   34.4356   51.7823 H   0  0  0  0  0  0  0  0  0  0  0  0
  1  2  1  0
  2  3  2  0
  2  4  1  0
  4  5  1  0
  5  6  1  0
  6  7  2  0
  6  8  1  0
  8  9  1  0
  9 10  1  0
 10 11  1  0
 11 12  2  0
 12 13  1  0
 13 14  2  0
 14 15  1  0
 15 16  2  0
 16 17  1  0
 17 18  2  0
 18 19  1  0
 19 20  1  0
 20 21  1  0
 21 22  1  0
 22 23  2  0
 23 24  1  0
 24 25  2  0
 25 26  1  0
 26 27  2  0
 27 28  1  0
 19 11  1  0
 27 22  1  0
 18 13  1  0
  1 29  1  0
  4 30  1  0
  4 31  1  0
  5 32  1  0
  5 33  1  0
  9 34  1  0
  9 35  1  0
 10 36  1  0
 10 37  1  0
 14 38  1  0
 15 39  1  0
 16 40  1  0
 17 41  1  0
 20 42  1  0
 20 43  1  0
 21 44  1  0
 21 45  1  0
 23 46  1  0
 24 47  1  0
 25 48  1  0
 26 49  1  0
M  CHG  2   1  -1   8  -1
M  END
>  <UniqueID>  (6) 
6

>  <SMILES>  (6) 
[NH-]C(=O)CCC(=O)[N-]CCc1nc2ccccc2n1CCc1ccccc1Cl

>  <Energy>  (6) 
77.03158780991691

>  <Genealogy>  (6) 
[NH-]C(=O)CCC(=O)[N-]CCc1nc2ccccc2n1CCc1ccccc1Cl (protonated)
[NH-]C(=O)CCC(=O)[N-]CCc1nc2ccccc2n1CCc1ccccc1Cl (3D coordinates assigned)
[NH-]C(=O)CCC(=O)[N-]CCc1nc2ccccc2n1CCc1ccccc1Cl (optimized conformer: 77.03158780991691 kcal/mol)

>  <smiles>  (6) 
NC(=O)CCC(=O)NCCc1nc2ccccc2n1CCc1ccccc1Cl

>  <score_type>  (6) 
oracle

>  <origin>  (6) 
adg

>  <m_score__min__energy>  (6) 
-13.619999999999999

>  <m_primary>  (6) 
energy

$$$$
6:0
     RDKit          3D

 33 34  0  0  0  0  0  0  0  0999 V2000
   55.1500   26.7160   46.0190 O   0  0  0  0  0  0  0  0  0  0  0  0
   56.1370   25.9370   45.9320 C   0  0  0  0  0  0  0  0  0  0  0  0
   57.5110   26.5000   45.7480 C   0  0  0  0  0  0  0  0  0  0  0  0
   57.5240   27.9940   46.1110 C   0  0  0  0  0  0  0  0  0  0  0  0
   58.0600   28.8620   45.0390 N   0  0  0  0  0  0  0  0  0  0  0  0
   57.3990   28.7100   43.7250 C   0  0  0  0  0  0  0  0  0  0  0  0
   56.2440   29.7160   43.5050 C   0  0  0  0  0  0  0  0  0  0  0  0
   56.1580   30.7040   44.5140 O   0  0  0  0  0  0  0  0  0  0  0  0
   57.4290   31.2680   44.7310 C   0  0  0  0  0  0  0  0  0  0  0  0
   58.3370   30.2590   45.4440 C   0  0  0  0  0  0  0  0  0  0  0  0
   55.9630   24.5170   46.0150 N   0  0  0  0  0  0  0  0  0  0  0  0
   56.3640   23.5480   45.0340 C   0  0  0  0  0  0  0  0  0  0  0  0
   57.5500   22.8040   45.1540 C   0  0  0  0  0  0  0  0  0  0  0  0
   57.8790   21.8570   44.1820 C   0  0  0  0  0  0  0  0  0  0  0  0
   57.0130   21.6500   43.1070 C   0  0  0  0  0  0  0  0  0  0  0  0
   55.8570   22.3600   43.0180 N   0  0  0  0  0  0  0  0  0  0  0  0
   55.5160   23.2890   43.9520 C   0  0  0  0  0  0  0  0  0  0  0  0
   58.2149   25.9614   46.3995 H   0  0  0  0  0  0  0  0  0  0  0  0
   57.8096   26.3830   44.6958 H   0  0  0  0  0  0  0  0  0  0  0  0
   56.4923   28.3075   46.3284 H   0  0  0  0  0  0  0  0  0  0  0  0
   58.1892   28.1080   46.9796 H   0  0  0  0  0  0  0  0  0  0  0  0
   58.1502   28.8618   42.9359 H   0  0  0  0  0  0  0  0  0  0  0  0
   56.9643   27.7001   43.6921 H   0  0  0  0  0  0  0  0  0  0  0  0
   56.3983   30.2177   42.5383 H   0  0  0  0  0  0  0  0  0  0  0  0
   55.3055   29.1429   43.5316 H   0  0  0  0  0  0  0  0  0  0  0  0
   57.8764   31.5403   43.7637 H   0  0  0  0  0  0  0  0  0  0  0  0
   57.3231   32.1646   45.3594 H   0  0  0  0  0  0  0  0  0  0  0  0
   59.3841   30.4951   45.2033 H   0  0  0  0  0  0  0  0  0  0  0  0
   58.1424   30.3389   46.5237 H   0  0  0  0  0  0  0  0  0  0  0  0
   58.2182   22.9673   46.0124 H   0  0  0  0  0  0  0  0  0  0  0  0
   58.8118   21.2796   44.2627 H   0  0  0  0  0  0  0  0  0  0  0  0
   57.2660   20.9121   42.3315 H   0  0  0  0  0  0  0  0  0  0  0  0
   54.5684   23.8393   43.8557 H   0  0  0  0  0  0  0  0  0  0  0  0
  1  2  2  0
  2  3  1  0
  3  4  1  0
  4  5  1  0
  5  6  1  0
  6  7  1  0
  7  8  1  0
  8  9  1  0
  9 10  1  0
  2 11  1  0
 11 12  1  0
 12 13  2  0
 13 14  1  0
 14 15  2  0
 15 16  1  0
 16 17  2  0
 10  5  1  0
 17 12  1  0
  3 18  1  0
  3 19  1  0
  4 20  1  0
  4 21  1  0
  6 22  1  0
  6 23  1  0
  7 24  1  0
  7 25  1  0
  9 26  1  0
  9 27  1  0
 10 28  1  0
 10 29  1  0
 13 30  1  0
 14 31  1  0
 15 32  1  0
 17 33  1  0
M  CHG  1  11  -1
M  END
>  <UniqueID>  (7) 
7

>  <SMILES>  (7) 
O=C(CCN1CCOCC1)[N-]c1cccnc1

>  <Energy>  (7) 
49.24428053190799

>  <Genealogy>  (7) 
O=C(CCN1CCOCC1)[N-]c1cccnc1 (protonated)
O=C(CCN1CCOCC1)[N-]c1cccnc1 (3D coordinates assigned)
O=C(CCN1CCOCC1)[N-]c1cccnc1 (nonaromatic ring conformer: 49.24428053190799 kcal/mol)

>  <smiles>  (7) 
O=C(CCN1CCOCC1)Nc1cccnc1

>  <score_type>  (7) 
oracle

>  <origin>  (7) 
adg

>  <m_score__min__energy>  (7) 
-8.2300000000000004

>  <m_primary>  (7) 
energy

$$$$
7:0
     RDKit          3D

 32 34  0  0  0  0  0  0  0  0999 V2000
   57.6630   27.3950   46.6790 C   0  0  0  0  0  0  0  0  0  0  0  0
   57.6970   26.8740   45.2670 C   0  0  0  0  0  0  0  0  0  0  0  0
   57.3890   25.5230   45.0260 C   0  0  0  0  0  0  0  0  0  0  0  0
   57.4250   24.9910   43.7270 C   0  0  0  0  0  0  0  0  0  0  0  0
   57.1120   23.5990   43.5100 N   0  0  0  0  0  0  0  0  0  0  0  0
   57.6070   22.5120   44.1330 C   0  0  0  0  0  0  0  0  0  0  0  0
   57.0420   21.4000   43.6260 N   0  0  0  0  0  0  0  0  0  0  0  0
   56.2030   21.8270   42.6930 N   0  0  0  0  0  0  0  0  0  0  0  0
   56.2440   23.1490   42.6220 N   0  0  0  0  0  0  0  0  0  0  0  0
   57.7670   25.8360   42.6600 C   0  0  0  0  0  0  0  0  0  0  0  0
   58.0640   27.1800   42.8850 C   0  0  0  0  0  0  0  0  0  0  0  0
   58.0370   27.7160   44.1840 C   0  0  0  0  0  0  0  0  0  0  0  0
   58.3410   29.1080   44.4010 N   0  0  0  0  0  0  0  0  0  0  0  0
   57.1830   30.3740   44.1540 S   0  0  0  0  0  0  0  0  0  0  0  0
   55.8960   30.0180   44.8440 O   0  0  0  0  0  0  0  0  0  0  0  0
   56.9260   30.5350   42.6820 O   0  0  0  0  0  0  0  0  0  0  0  0
   57.7880   31.8750   44.8310 C   0  0  0  0  0  0  0  0  0  0  0  0
   57.9720   33.0560   44.1310 C   0  0  0  0  0  0  0  0  0  0  0  0
   58.4360   34.1020   44.9390 C   0  0  0  0  0  0  0  0  0  0  0  0
   58.6130   33.7410   46.2700 C   0  0  0  0  0  0  0  0  0  0  0  0
   58.1900   32.1200   46.4430 S   0  0  0  0  0  0  0  0  0  0  0  0
   57.7181   26.5512   47.3826 H   0  0  0  0  0  0  0  0  0  0  0  0
   58.5193   28.0657   46.8431 H   0  0  0  0  0  0  0  0  0  0  0  0
   56.7268   27.9487   46.8431 H   0  0  0  0  0  0  0  0  0  0  0  0
   57.1153   24.8721   45.8694 H   0  0  0  0  0  0  0  0  0  0  0  0
   58.3595   22.5302   44.9351 H   0  0  0  0  0  0  0  0  0  0  0  0
   57.8011   25.4345   41.6365 H   0  0  0  0  0  0  0  0  0  0  0  0
   58.3226   27.8287   42.0351 H   0  0  0  0  0  0  0  0  0  0  0  0
   59.3220   29.4040   44.6050 H   0  0  0  0  0  0  0  0  0  0  0  0
   57.7746   33.1614   43.0540 H   0  0  0  0  0  0  0  0  0  0  0  0
   58.6409   35.1129   44.5568 H   0  0  0  0  0  0  0  0  0  0  0  0
   58.9690   34.4021   47.0738 H   0  0  0  0  0  0  0  0  0  0  0  0
  1  2  1  0
  2  3  2  0
  3  4  1  0
  4  5  1  0
  5  6  1  0
  6  7  2  0
  7  8  1  0
  8  9  2  0
  4 10  2  0
 10 11  1  0
 11 12  2  0
 12 13  1  0
 13 14  1  0
 14 15  2  0
 14 16  2  0
 14 17  1  0
 17 18  2  0
 18 19  1  0
 19 20  2  0
 20 21  1  0
 12  2  1  0
 21 17  1  0
  9  5  1  0
  1 22  1  0
  1 23  1  0
  1 24  1  0
  3 25  1  0
  6 26  1  0
 10 27  1  0
 11 28  1  0
 13 29  1  0
 18 30  1  0
 19 31  1  0
 20 32  1  0
M  END
>  <UniqueID>  (8) 
8

>  <SMILES>  (8) 
Cc1cc(-n2cnnn2)ccc1NS(=O)(=O)c1cccs1

>  <Energy>  (8) 
105.98672905718648

>  <Genealogy>  (8) 
Cc1cc(-n2cnnn2)ccc1NS(=O)(=O)c1cccs1 (3D coordinates assigned)
Cc1cc(-n2cnnn2)ccc1NS(=O)(=O)c1cccs1 (optimized conformer: 105.98672905718648 kcal/mol)

>  <smiles>  (8) 
Cc1cc(-n2cnnn2)ccc1NS(=O)(=O)c1cccs1

>  <score_type>  (8) 
oracle

>  <origin>  (8) 
adg

>  <m_score__min__energy>  (8) 
-8.4000000000000004

>  <m_primary>  (8) 
energy

$$$$
8:0
     RDKit          3D

 39 41  0  0  0  0  0  0  0  0999 V2000
   57.0540   31.5940   42.2020 C   0  0  0  0  0  0  0  0  0  0  0  0
   58.1420   32.4580   42.8340 C   0  0  0  0  0  0  0  0  0  0  0  0
   57.9910   32.5000   44.2910 N   0  0  0  0  0  0  0  0  0  0  0  0
   57.7560   31.4600   45.1430 C   0  0  0  0  0  0  0  0  0  0  0  0
   57.4040   30.0830   44.7430 C   0  0  0  0  0  0  0  0  0  0  0  0
   56.2060   29.7090   44.8760 O   0  0  0  0  0  0  0  0  0  0  0  0
   58.3730   29.2210   44.0920 N   0  0  0  0  0  0  0  0  0  0  0  0
   59.6160   29.1010   44.8840 C   0  0  0  0  0  0  0  0  0  0  0  0
   59.4560   28.1720   46.1140 C   0  0  0  0  0  0  0  0  0  0  0  0
   58.2840   27.3790   46.0730 O   0  0  0  0  0  0  0  0  0  0  0  0
   58.1330   26.8110   44.7930 C   0  0  0  0  0  0  0  0  0  0  0  0
   57.7830   27.8980   43.7600 C   0  0  0  0  0  0  0  0  0  0  0  0
   58.0510   31.8260   46.4560 C   0  0  0  0  0  0  0  0  0  0  0  0
   58.4150   33.1490   46.3720 C   0  0  0  0  0  0  0  0  0  0  0  0
   58.3770   33.5150   45.0890 C   0  0  0  0  0  0  0  0  0  0  0  0
   59.1870   34.7180   44.8010 C   0  0  0  0  0  0  0  0  0  0  0  0
   59.6400   35.1580   46.2170 C   0  0  0  0  0  0  0  0  0  0  0  0
   59.2460   34.0330   47.2110 C   0  0  0  0  0  0  0  0  0  0  0  0
   56.4563   31.1194   42.9942 H   0  0  0  0  0  0  0  0  0  0  0  0
   56.4022   32.2233   41.5782 H   0  0  0  0  0  0  0  0  0  0  0  0
   57.5193   30.8166   41.5782 H   0  0  0  0  0  0  0  0  0  0  0  0
   59.1272   32.0366   42.5854 H   0  0  0  0  0  0  0  0  0  0  0  0
   58.0533   33.4813   42.4403 H   0  0  0  0  0  0  0  0  0  0  0  0
   58.6330   29.6660   43.1790 H   0  0  0  0  0  0  0  0  0  0  0  0
   60.4073   28.6946   44.2370 H   0  0  0  0  0  0  0  0  0  0  0  0
   59.8696   30.1043   45.2570 H   0  0  0  0  0  0  0  0  0  0  0  0
   60.3278   27.5029   46.1609 H   0  0  0  0  0  0  0  0  0  0  0  0
   59.3788   28.8186   47.0005 H   0  0  0  0  0  0  0  0  0  0  0  0
   59.0741   26.3225   44.5001 H   0  0  0  0  0  0  0  0  0  0  0  0
   57.3175   26.0735   44.8244 H   0  0  0  0  0  0  0  0  0  0  0  0
   58.1603   27.5821   42.7762 H   0  0  0  0  0  0  0  0  0  0  0  0
   56.6892   28.0143   43.7601 H   0  0  0  0  0  0  0  0  0  0  0  0
   58.0031   31.1969   47.3571 H   0  0  0  0  0  0  0  0  0  0  0  0
   60.0503   34.4740   44.1645 H   0  0  0  0  0  0  0  0  0  0  0  0
   58.6383   35.4974   44.2520 H   0  0  0  0  0  0  0  0  0  0  0  0
   60.7299   35.3062   46.2322 H   0  0  0  0  0  0  0  0  0  0  0  0
   59.1576   36.1058   46.4980 H   0  0  0  0  0  0  0  0  0  0  0  0
   60.1345   33.5050   47.5876 H   0  0  0  0  0  0  0  0  0  0  0  0
   58.7293   34.4005   48.1099 H   0  0  0  0  0  0  0  0  0  0  0  0
  1  2  1  0
  2  3  1  0
  3  4  1  0
  4  5  1  0
  5  6  2  0
  5  7  1  0
  7  8  1  0
  8  9  1  0
  9 10  1  0
 10 11  1  0
 11 12  1  0
  4 13  2  0
 13 14  1  0
 14 15  2  0
 15 16  1  0
 16 17  1  0
 17 18  1  0
 15  3  1  0
 12  7  1  0
 18 14  1  0
  1 19  1  0
  1 20  1  0
  1 21  1  0
  2 22  1  0
  2 23  1  0
  7 24  1  0
  8 25  1  0
  8 26  1  0
  9 27  1  0
  9 28  1  0
 11 29  1  0
 11 30  1  0
 12 31  1  0
 12 32  1  0
 13 33  1  0
 16 34  1  0
 16 35  1  0
 17 36  1  0
 17 37  1  0
 18 38  1  0
 18 39  1  0
M  CHG  1   7   1
M  END
>  <UniqueID>  (9) 
9

>  <SMILES>  (9) 
CCn1c(C(=O)[NH+]2CCOCC2)cc2c1CCC2

>  <Energy>  (9) 
101.00223184678734

>  <Genealogy>  (9) 
CCn1c(C(=O)[NH+]2CCOCC2)cc2c1CCC2 (protonated)
CCn1c(C(=O)[NH+]2CCOCC2)cc2c1CCC2 (3D coordinates assigned)
CCn1c(C(=O)[NH+]2CCOCC2)cc2c1CCC2 (nonaromatic ring conformer: 101.00223184678734 kcal/mol)

>  <smiles>  (9) 
CCn1c(C(=O)N2CCOCC2)cc2c1CCC2

>  <score_type>  (9) 
oracle

>  <origin>  (9) 
adg

>  <m_score__min__energy>  (9) 
-6.0300000000000002

>  <m_primary>  (9) 
energy

$$$$
9:0
     RDKit          3D

 24 25  0  0  0  0  0  0  0  0999 V2000
   64.8970   33.0920   49.5000 C   0  0  0  0  0  0  0  0  0  0  0  0
   63.5830   33.2290   48.7880 C   0  0  0  0  0  0  0  0  0  0  0  0
   63.5360   33.3140   47.3920 C   0  0  0  0  0  0  0  0  0  0  0  0
   62.3130   33.4790   46.7440 C   0  0  0  0  0  0  0  0  0  0  0  0
   61.1310   33.5740   47.4980 C   0  0  0  0  0  0  0  0  0  0  0  0
   59.8210   33.7580   46.8250 C   0  0  0  0  0  0  0  0  0  0  0  0
   59.7390   34.4160   45.5870 C   0  0  0  0  0  0  0  0  0  0  0  0
   58.5010   34.5840   44.9620 C   0  0  0  0  0  0  0  0  0  0  0  0
   57.3510   34.0950   45.5810 C   0  0  0  0  0  0  0  0  0  0  0  0
   57.4400   33.4620   46.7800 N   0  0  0  0  0  0  0  0  0  0  0  0
   58.6330   33.2830   47.4070 C   0  0  0  0  0  0  0  0  0  0  0  0
   61.2040   33.5070   48.8620 N   0  0  0  0  0  0  0  0  0  0  0  0
   62.3890   33.3440   49.5110 C   0  0  0  0  0  0  0  0  0  0  0  0
   64.7287   33.1096   50.5869 H   0  0  0  0  0  0  0  0  0  0  0  0
   65.3696   32.1397   49.2175 H   0  0  0  0  0  0  0  0  0  0  0  0
   65.5559   33.9263   49.2175 H   0  0  0  0  0  0  0  0  0  0  0  0
   64.4646   33.2506   46.8058 H   0  0  0  0  0  0  0  0  0  0  0  0
   62.2732   33.5347   45.6461 H   0  0  0  0  0  0  0  0  0  0  0  0
   60.6519   34.8000   45.1083 H   0  0  0  0  0  0  0  0  0  0  0  0
   58.4339   35.0969   43.9912 H   0  0  0  0  0  0  0  0  0  0  0  0
   56.3708   34.2219   45.0981 H   0  0  0  0  0  0  0  0  0  0  0  0
   58.6687   32.7632   48.3758 H   0  0  0  0  0  0  0  0  0  0  0  0
   60.3340   33.5610   49.4380 H   0  0  0  0  0  0  0  0  0  0  0  0
   62.4092   33.3023   50.6100 H   0  0  0  0  0  0  0  0  0  0  0  0
  1  2  1  0
  2  3  2  0
  3  4  1  0
  4  5  2  0
  5  6  1  0
  6  7  2  0
  7  8  1  0
  8  9  2  0
  9 10  1  0
 10 11  2  0
  5 12  1  0
 12 13  2  0
 13  2  1  0
 11  6  1  0
  1 14  1  0
  1 15  1  0
  1 16  1  0
  3 17  1  0
  4 18  1  0
  7 19  1  0
  8 20  1  0
  9 21  1  0
 11 22  1  0
 12 23  1  0
 13 24  1  0
M  CHG  1  12   1
M  END
>  <UniqueID>  (10) 
10

>  <SMILES>  (10) 
Cc1ccc(-c2cccnc2)[nH+]c1

>  <Energy>  (10) 
29.6446356662587

>  <Genealogy>  (10) 
Cc1ccc(-c2cccnc2)[nH+]c1 (protonated)
Cc1ccc(-c2cccnc2)[nH+]c1 (3D coordinates assigned)
Cc1ccc(-c2cccnc2)[nH+]c1 (optimized conformer: 29.6446356662587 kcal/mol)

>  <smiles>  (10) 
Cc1ccc(-c2cccnc2)nc1

>  <score_type>  (10) 
oracle

>  <origin>  (10) 
adg

>  <m_score__min__energy>  (10) 
-3.9100000000000001

>  <m_primary>  (10) 
energy

$$$$
10:0
     RDKit          3D

 45 47  0  0  0  0  0  0  0  0999 V2000
   58.5070   34.5550   44.8780 C   0  0  0  0  0  0  0  0  0  0  0  0
   58.4890   33.8230   46.2180 C   0  0  0  0  0  0  0  0  0  0  0  0
   59.1950   32.5410   46.1290 N   0  0  0  0  0  0  0  0  0  0  0  0
   60.4110   32.2120   46.6480 C   0  0  0  0  0  0  0  0  0  0  0  0
   61.2540   33.1200   47.3770 N   0  0  0  0  0  0  0  0  0  0  0  0
   60.7150   33.7840   48.5760 C   0  0  0  0  0  0  0  0  0  0  0  0
   61.7420   33.9020   49.7220 C   0  0  0  0  0  0  0  0  0  0  0  0
   62.8820   32.8710   49.6990 C   0  0  0  0  0  0  0  0  0  0  0  0
   64.0370   33.2300   48.7500 C   0  0  0  0  0  0  0  0  0  0  0  0
   63.7750   32.9440   47.2590 C   0  0  0  0  0  0  0  0  0  0  0  0
   62.4870   33.5810   46.7070 C   0  0  0  0  0  0  0  0  0  0  0  0
   60.7490   30.9100   46.4630 N   0  0  0  0  0  0  0  0  0  0  0  0
   59.6910   30.4210   45.7890 C   0  0  0  0  0  0  0  0  0  0  0  0
   58.7570   31.3820   45.5940 C   0  0  0  0  0  0  0  0  0  0  0  0
   57.5520   31.0670   44.9680 C   0  0  0  0  0  0  0  0  0  0  0  0
   56.6710   31.9490   44.7860 O   0  0  0  0  0  0  0  0  0  0  0  0
   57.3480   29.7680   44.5610 N   0  0  0  0  0  0  0  0  0  0  0  0
   56.1000   29.4030   43.8690 C   0  0  0  0  0  0  0  0  0  0  0  0
   58.3370   28.8150   44.7440 C   0  0  0  0  0  0  0  0  0  0  0  0
   58.1500   27.6310   44.3420 O   0  0  0  0  0  0  0  0  0  0  0  0
   59.5250   29.1410   45.3610 N   0  0  0  0  0  0  0  0  0  0  0  0
   60.5530   28.1230   45.6140 C   0  0  0  0  0  0  0  0  0  0  0  0
   58.5337   35.6406   45.0535 H   0  0  0  0  0  0  0  0  0  0  0  0
   59.3980   34.2538   44.3076 H   0  0  0  0  0  0  0  0  0  0  0  0
   57.6023   34.2979   44.3076 H   0  0  0  0  0  0  0  0  0  0  0  0
   58.9788   34.4509   46.9769 H   0  0  0  0  0  0  0  0  0  0  0  0
   57.4426   33.6270   46.4949 H   0  0  0  0  0  0  0  0  0  0  0  0
   60.3858   34.7957   48.2966 H   0  0  0  0  0  0  0  0  0  0  0  0
   59.8841   33.1651   48.9455 H   0  0  0  0  0  0  0  0  0  0  0  0
   62.1912   34.9049   49.6723 H   0  0  0  0  0  0  0  0  0  0  0  0
   61.1821   33.7119   50.6495 H   0  0  0  0  0  0  0  0  0  0  0  0
   63.2874   32.7821   50.7177 H   0  0  0  0  0  0  0  0  0  0  0  0
   62.4496   31.9297   49.3289 H   0  0  0  0  0  0  0  0  0  0  0  0
   64.2451   34.3046   48.8588 H   0  0  0  0  0  0  0  0  0  0  0  0
   64.8810   32.5870   49.0401 H   0  0  0  0  0  0  0  0  0  0  0  0
   64.6261   33.3311   46.6795 H   0  0  0  0  0  0  0  0  0  0  0  0
   63.6524   31.8549   47.1647 H   0  0  0  0  0  0  0  0  0  0  0  0
   62.5604   34.6717   46.8298 H   0  0  0  0  0  0  0  0  0  0  0  0
   62.4086   33.2779   45.6525 H   0  0  0  0  0  0  0  0  0  0  0  0
   55.3217   29.1754   44.6123 H   0  0  0  0  0  0  0  0  0  0  0  0
   55.7710   30.2426   43.2390 H   0  0  0  0  0  0  0  0  0  0  0  0
   56.2753   28.5185   43.2390 H   0  0  0  0  0  0  0  0  0  0  0  0
   60.6827   27.9946   46.6987 H   0  0  0  0  0  0  0  0  0  0  0  0
   60.2411   27.1678   45.1664 H   0  0  0  0  0  0  0  0  0  0  0  0
   61.5051   28.4442   45.1664 H   0  0  0  0  0  0  0  0  0  0  0  0
  1  2  1  0
  2  3  1  0
  3  4  1  0
  4  5  1  0
  5  6  1  0
  6  7  1  0
  7  8  1  0
  8  9  1  0
  9 10  1  0
 10 11  1  0
  4 12  2  0
 12 13  1  0
 13 14  2  0
 14 15  1  0
 15 16  2  0
 15 17  1  0
 17 18  1  0
 17 19  1  0
 19 20  2  0
 19 21  1  0
 21 22  1  0
 14  3  1  0
 11  5  1  0
 21 13  1  0
  1 23  1  0
  1 24  1  0
  1 25  1  0
  2 26  1  0
  2 27  1  0
  6 28  1  0
  6 29  1  0
  7 30  1  0
  7 31  1  0
  8 32  1  0
  8 33  1  0
  9 34  1  0
  9 35  1  0
 10 36  1  0
 10 37  1  0
 11 38  1  0
 11 39  1  0
 18 40  1  0
 18 41  1  0
 18 42  1  0
 22 43  1  0
 22 44  1  0
 22 45  1  0
M  END
>  <UniqueID>  (11) 
11

>  <SMILES>  (11) 
CCn1c(N2CCCCCC2)nc2c1c(=O)n(C)c(=O)n2C

>  <Energy>  (11) 
97.99737498162929

>  <Genealogy>  (11) 
CCn1c(N2CCCCCC2)nc2c1c(=O)n(C)c(=O)n2C (3D coordinates assigned)
CCn1c(N2CCCCCC2)nc2c1c(=O)n(C)c(=O)n2C (nonaromatic ring conformer: 97.99737498162929 kcal/mol)

>  <smiles>  (11) 
CCn1c(N2CCCCCC2)nc2c1c(=O)n(C)c(=O)n2C

>  <score_type>  (11) 
oracle

>  <origin>  (11) 
adg

>  <m_score__min__energy>  (11) 
-5.0199999999999996

>  <m_primary>  (11) 
energy

$$$$
11:0
     RDKit          3D

 20 21  0  0  0  0  0  0  0  0999 V2000
   50.1000   32.5330   48.6120 O   0  0  0  0  0  0  0  0  0  0  0  0
   50.8980   31.9310   49.3750 C   0  0  0  0  0  0  0  0  0  0  0  0
   51.3930   32.5590   50.4710 N   0  0  0  0  0  0  0  0  0  0  0  0
   52.2570   31.9300   51.3090 C   0  0  0  0  0  0  0  0  0  0  0  0
   52.6510   30.6070   51.0530 C   0  0  0  0  0  0  0  0  0  0  0  0
   53.5930   29.8950   51.9550 C   0  0  0  0  0  0  0  0  0  0  0  0
   53.1490   28.8240   52.7540 C   0  0  0  0  0  0  0  0  0  0  0  0
   54.0380   28.1570   53.6020 C   0  0  0  0  0  0  0  0  0  0  0  0
   55.3780   28.5480   53.6620 C   0  0  0  0  0  0  0  0  0  0  0  0
   56.2370   27.8990   54.4850 F   0  0  0  0  0  0  0  0  0  0  0  0
   55.8300   29.6090   52.8750 C   0  0  0  0  0  0  0  0  0  0  0  0
   54.9460   30.2800   52.0250 C   0  0  0  0  0  0  0  0  0  0  0  0
   52.1210   29.9820   49.9130 C   0  0  0  0  0  0  0  0  0  0  0  0
   51.2620   30.6520   49.1030 N   0  0  0  0  0  0  0  0  0  0  0  0
   52.6491   32.4584   52.1905 H   0  0  0  0  0  0  0  0  0  0  0  0
   52.0956   28.5101   52.7107 H   0  0  0  0  0  0  0  0  0  0  0  0
   53.6817   27.3223   54.2235 H   0  0  0  0  0  0  0  0  0  0  0  0
   56.8846   29.9178   52.9239 H   0  0  0  0  0  0  0  0  0  0  0  0
   55.3095   31.1141   51.4068 H   0  0  0  0  0  0  0  0  0  0  0  0
   52.4028   28.9456   49.6753 H   0  0  0  0  0  0  0  0  0  0  0  0
  1  2  2  0
  2  3  1  0
  3  4  2  0
  4  5  1  0
  5  6  1  0
  6  7  2  0
  7  8  1  0
  8  9  2  0
  9 10  1  0
  9 11  1  0
 11 12  2  0
  5 13  2  0
 13 14  1  0
 14  2  1  0
 12  6  1  0
  4 15  1  0
  7 16  1  0
  8 17  1  0
 11 18  1  0
 12 19  1  0
 13 20  1  0
M  CHG  1  14  -1
M  END
>  <UniqueID>  (12) 
12

>  <SMILES>  (12) 
O=c1ncc(-c2ccc(F)cc2)c[n-]1

>  <Energy>  (12) 
27.395440217453377

>  <Genealogy>  (12) 
O=c1ncc(-c2ccc(F)cc2)c[n-]1 (protonated)
O=c1ncc(-c2ccc(F)cc2)c[n-]1 (3D coordinates assigned)
O=c1ncc(-c2ccc(F)cc2)c[n-]1 (optimized conformer: 27.395440217453377 kcal/mol)

>  <smiles>  (12) 
O=c1ncc(-c2ccc(F)cc2)c[nH]1

>  <score_type>  (12) 
oracle

>  <origin>  (12) 
adg

>  <m_score__min__energy>  (12) 
-7.9400000000000004

>  <m_primary>  (12) 
energy

$$$$
12:0
     RDKit          3D

 38 40  0  0  0  0  0  0  0  0999 V2000
   55.0390   29.7480   43.3440 C   0  0  0  0  0  0  0  0  0  0  0  0
   55.0930   29.1960   44.6560 O   0  0  0  0  0  0  0  0  0  0  0  0
   56.2620   28.7160   45.2680 C   0  0  0  0  0  0  0  0  0  0  0  0
   57.4350   29.4870   45.3550 C   0  0  0  0  0  0  0  0  0  0  0  0
   58.5880   28.9760   45.9760 C   0  0  0  0  0  0  0  0  0  0  0  0
   58.5570   27.6760   46.5320 C   0  0  0  0  0  0  0  0  0  0  0  0
   57.3870   26.9080   46.4310 C   0  0  0  0  0  0  0  0  0  0  0  0
   56.2510   27.4240   45.8060 C   0  0  0  0  0  0  0  0  0  0  0  0
   55.1020   26.6460   45.7220 O   0  0  0  0  0  0  0  0  0  0  0  0
   59.7600   27.1230   47.2590 C   0  0  0  0  0  0  0  0  0  0  0  0
   60.9260   26.8010   46.3050 C   0  0  0  0  0  0  0  0  0  0  0  0
   61.1800   27.8570   45.2130 C   0  0  0  0  0  0  0  0  0  0  0  0
   61.0260   29.2710   45.7100 C   0  0  0  0  0  0  0  0  0  0  0  0
   59.8270   29.8080   46.0170 C   0  0  0  0  0  0  0  0  0  0  0  0
   59.7300   31.2380   46.4160 C   0  0  0  0  0  0  0  0  0  0  0  0
   58.6160   32.0020   46.0300 C   0  0  0  0  0  0  0  0  0  0  0  0
   58.5210   33.3500   46.3880 C   0  0  0  0  0  0  0  0  0  0  0  0
   59.5380   33.9540   47.1340 C   0  0  0  0  0  0  0  0  0  0  0  0
   59.4300   35.2970   47.4840 O   0  0  0  0  0  0  0  0  0  0  0  0
   60.6550   33.2020   47.5200 C   0  0  0  0  0  0  0  0  0  0  0  0
   60.7530   31.8530   47.1630 C   0  0  0  0  0  0  0  0  0  0  0  0
   54.9321   30.8408   43.4101 H   0  0  0  0  0  0  0  0  0  0  0  0
   55.9655   29.5022   42.8044 H   0  0  0  0  0  0  0  0  0  0  0  0
   54.1777   29.3273   42.8044 H   0  0  0  0  0  0  0  0  0  0  0  0
   57.4504   30.5023   44.9320 H   0  0  0  0  0  0  0  0  0  0  0  0
   57.3651   25.8904   46.8481 H   0  0  0  0  0  0  0  0  0  0  0  0
   60.1006   27.8664   47.9948 H   0  0  0  0  0  0  0  0  0  0  0  0
   59.4557   26.1845   47.7454 H   0  0  0  0  0  0  0  0  0  0  0  0
   61.8422   26.7033   46.9058 H   0  0  0  0  0  0  0  0  0  0  0  0
   60.6490   25.8747   45.7804 H   0  0  0  0  0  0  0  0  0  0  0  0
   62.2046   27.7289   44.8339 H   0  0  0  0  0  0  0  0  0  0  0  0
   60.4270   27.7024   44.4262 H   0  0  0  0  0  0  0  0  0  0  0  0
   61.9274   29.8904   45.8273 H   0  0  0  0  0  0  0  0  0  0  0  0
   57.8121   31.5358   45.4414 H   0  0  0  0  0  0  0  0  0  0  0  0
   57.6431   33.9377   46.0818 H   0  0  0  0  0  0  0  0  0  0  0  0
   59.9140   36.0190   46.9640 H   0  0  0  0  0  0  0  0  0  0  0  0
   61.4577   33.6738   48.1057 H   0  0  0  0  0  0  0  0  0  0  0  0
   61.6342   31.2693   47.4676 H   0  0  0  0  0  0  0  0  0  0  0  0
  1  2  1  0
  2  3  1  0
  3  4  2  0
  4  5  1  0
  5  6  2  0
  6  7  1  0
  7  8  2  0
  8  9  1  0
  6 10  1  0
 10 11  1  0
 11 12  1  0
 12 13  1  0
 13 14  2  0
 14 15  1  0
 15 16  2  0
 16 17  1  0
 17 18  2  0
 18 19  1  0
 18 20  1  0
 20 21  2  0
  8  3  1  0
 21 15  1  0
 14  5  1  0
  1 22  1  0
  1 23  1  0
  1 24  1  0
  4 25  1  0
  7 26  1  0
 10 27  1  0
 10 28  1  0
 11 29  1  0
 11 30  1  0
 12 31  1  0
 12 32  1  0
 13 33  1  0
 16 34  1  0
 17 35  1  0
 19 36  1  0
 20 37  1  0
 21 38  1  0
M  CHG  1   9  -1
M  END
>  <UniqueID>  (13) 
13

>  <SMILES>  (13) 
COc1cc2c(cc1[O-])CCCC=C2c1ccc(O)cc1

>  <Energy>  (13) 
51.03406833852514

>  <Genealogy>  (13) 
COc1cc2c(cc1[O-])CCCC=C2c1ccc(O)cc1 (protonated)
COc1cc2c(cc1[O-])CCCC=C2c1ccc(O)cc1 (3D coordinates assigned)
COc1cc2c(cc1[O-])CCCC=C2c1ccc(O)cc1 (nonaromatic ring conformer: 51.03406833852514 kcal/mol)

>  <smiles>  (13) 
COc1cc2c(cc1O)CCCC=C2c1ccc(O)cc1

>  <score_type>  (13) 
oracle

>  <origin>  (13) 
adg

>  <m_score__min__energy>  (13) 
-7.7400000000000002

>  <m_primary>  (13) 
energy

$$$$
13:0
     RDKit          3D

 54 57  0  0  0  0  0  0  0  0999 V2000
   54.6380   22.9440   47.6890 C   0  0  0  0  0  0  0  0  0  0  0  0
   55.7830   22.2080   48.3720 C   0  0  0  0  0  0  0  0  0  0  0  0
   57.0180   22.4610   47.7040 O   0  0  0  0  0  0  0  0  0  0  0  0
   57.3880   23.6760   47.1020 C   0  0  0  0  0  0  0  0  0  0  0  0
   57.5200   23.7080   45.7080 C   0  0  0  0  0  0  0  0  0  0  0  0
   57.8870   24.8870   45.0560 C   0  0  0  0  0  0  0  0  0  0  0  0
   58.1230   26.0600   45.7880 C   0  0  0  0  0  0  0  0  0  0  0  0
   58.5110   27.2720   45.1180 N   0  0  0  0  0  0  0  0  0  0  0  0
   57.5930   27.9370   44.1870 C   0  0  0  0  0  0  0  0  0  0  0  0
   57.4240   29.3740   44.5670 C   0  0  0  0  0  0  0  0  0  0  0  0
   56.4320   29.7160   45.2650 O   0  0  0  0  0  0  0  0  0  0  0  0
   58.3810   30.3520   44.1370 N   0  0  0  0  0  0  0  0  0  0  0  0
   58.4880   31.6670   44.7060 C   0  0  0  0  0  0  0  0  0  0  0  0
   58.0740   32.8160   43.9790 C   0  0  0  0  0  0  0  0  0  0  0  0
   58.1780   34.0970   44.5500 C   0  0  0  0  0  0  0  0  0  0  0  0
   58.6890   34.1950   45.8410 C   0  0  0  0  0  0  0  0  0  0  0  0
   59.0660   33.1010   46.5490 C   0  0  0  0  0  0  0  0  0  0  0  0
   58.9730   31.8140   46.0250 C   0  0  0  0  0  0  0  0  0  0  0  0
   59.5320   33.4920   47.7900 O   0  0  0  0  0  0  0  0  0  0  0  0
   59.4460   34.9220   47.8630 C   0  0  0  0  0  0  0  0  0  0  0  0
   58.8980   35.3290   46.5990 O   0  0  0  0  0  0  0  0  0  0  0  0
   60.0420   28.0130   45.4940 S   0  0  0  0  0  0  0  0  0  0  0  0
   61.0790   26.9440   45.6880 O   0  0  0  0  0  0  0  0  0  0  0  0
   60.4700   28.9050   44.3600 O   0  0  0  0  0  0  0  0  0  0  0  0
   59.8970   28.9960   46.9480 C   0  0  0  0  0  0  0  0  0  0  0  0
   58.7170   28.9480   47.7050 C   0  0  0  0  0  0  0  0  0  0  0  0
   58.6040   29.7020   48.8790 C   0  0  0  0  0  0  0  0  0  0  0  0
   59.6700   30.5030   49.3010 C   0  0  0  0  0  0  0  0  0  0  0  0
   60.8490   30.5530   48.5500 C   0  0  0  0  0  0  0  0  0  0  0  0
   60.9620   29.8070   47.3740 C   0  0  0  0  0  0  0  0  0  0  0  0
   57.9880   26.0330   47.1850 C   0  0  0  0  0  0  0  0  0  0  0  0
   57.6220   24.8520   47.8390 C   0  0  0  0  0  0  0  0  0  0  0  0
   53.9711   23.3727   48.4515 H   0  0  0  0  0  0  0  0  0  0  0  0
   55.0436   23.7510   47.0611 H   0  0  0  0  0  0  0  0  0  0  0  0
   54.0723   22.2399   47.0611 H   0  0  0  0  0  0  0  0  0  0  0  0
   55.8604   22.5498   49.4147 H   0  0  0  0  0  0  0  0  0  0  0  0
   55.5782   21.1278   48.3373 H   0  0  0  0  0  0  0  0  0  0  0  0
   57.3329   22.7963   45.1216 H   0  0  0  0  0  0  0  0  0  0  0  0
   57.9917   24.8959   43.9610 H   0  0  0  0  0  0  0  0  0  0  0  0
   58.0020   27.8763   43.1677 H   0  0  0  0  0  0  0  0  0  0  0  0
   56.6142   27.4369   44.2290 H   0  0  0  0  0  0  0  0  0  0  0  0
   58.9850   30.1210   43.3170 H   0  0  0  0  0  0  0  0  0  0  0  0
   57.6694   32.7025   42.9625 H   0  0  0  0  0  0  0  0  0  0  0  0
   57.8654   34.9932   43.9940 H   0  0  0  0  0  0  0  0  0  0  0  0
   59.2685   30.9376   46.6205 H   0  0  0  0  0  0  0  0  0  0  0  0
   58.7845   35.2275   48.6871 H   0  0  0  0  0  0  0  0  0  0  0  0
   60.4253   35.3845   48.0557 H   0  0  0  0  0  0  0  0  0  0  0  0
   57.8788   28.3166   47.3754 H   0  0  0  0  0  0  0  0  0  0  0  0
   57.6768   29.6645   49.4696 H   0  0  0  0  0  0  0  0  0  0  0  0
   59.5812   31.0942   50.2243 H   0  0  0  0  0  0  0  0  0  0  0  0
   61.6880   31.1802   48.8856 H   0  0  0  0  0  0  0  0  0  0  0  0
   61.8869   29.8548   46.7805 H   0  0  0  0  0  0  0  0  0  0  0  0
   58.1713   26.9468   47.7693 H   0  0  0  0  0  0  0  0  0  0  0  0
   57.5166   24.8423   48.9339 H   0  0  0  0  0  0  0  0  0  0  0  0
  1  2  1  0
  2  3  1  0
  3  4  1  0
  4  5  2  0
  5  6  1  0
  6  7  2  0
  7  8  1  0
  8  9  1  0
  9 10  1  0
 10 11  2  0
 10 12  1  0
 12 13  1  0
 13 14  2  0
 14 15  1  0
 15 16  2  0
 16 17  1  0
 17 18  2  0
 17 19  1  0
 19 20  1  0
 20 21  1  0
  8 22  1  0
 22 23  2  0
 22 24  2  0
 22 25  1  0
 25 26  2  0
 26 27  1  0
 27 28  2  0
 28 29  1  0
 29 30  2  0
  7 31  1  0
 31 32  2  0
 32  4  1  0
 18 13  1  0
 30 25  1  0
 21 16  1  0
  1 33  1  0
  1 34  1  0
  1 35  1  0
  2 36  1  0
  2 37  1  0
  5 38  1  0
  6 39  1  0
  9 40  1  0
  9 41  1  0
 12 42  1  0
 14 43  1  0
 15 44  1  0
 18 45  1  0
 20 46  1  0
 20 47  1  0
 26 48  1  0
 27 49  1  0
 28 50  1  0
 29 51  1  0
 30 52  1  0
 31 53  1  0
 32 54  1  0
M  END
>  <UniqueID>  (14) 
14

>  <SMILES>  (14) 
CCOc1ccc(N(CC(=O)Nc2ccc3c(c2)OCO3)S(=O)(=O)c2ccccc2)cc1

>  <Energy>  (14) 
89.48083671621336

>  <Genealogy>  (14) 
CCOc1ccc(N(CC(=O)Nc2ccc3c(c2)OCO3)S(=O)(=O)c2ccccc2)cc1 (3D coordinates assigned)
CCOc1ccc(N(CC(=O)Nc2ccc3c(c2)OCO3)S(=O)(=O)c2ccccc2)cc1 (nonaromatic ring conformer: 89.48083671621336 kcal/mol)

>  <smiles>  (14) 
CCOc1ccc(N(CC(=O)Nc2ccc3c(c2)OCO3)S(=O)(=O)c2ccccc2)cc1

>  <score_type>  (14) 
oracle

>  <origin>  (14) 
adg

>  <m_score__min__energy>  (14) 
-8.9100000000000001

>  <m_primary>  (14) 
energy

$$$$
14:0
     RDKit          3D

 34 36  0  0  1  0  0  0  0  0999 V2000
   60.3440   27.7630   46.0120 C   0  0  0  0  0  0  0  0  0  0  0  0
   58.8710   27.6820   45.8070 C   0  0  0  0  0  0  0  0  0  0  0  0
   58.2050   26.4630   45.8630 C   0  0  0  0  0  0  0  0  0  0  0  0
   56.8400   26.3960   45.6730 C   0  0  0  0  0  0  0  0  0  0  0  0
   56.0810   25.1550   45.7180 C   0  0  0  0  0  0  0  0  0  0  0  0
   56.6470   23.9110   45.8530 C   0  0  0  0  0  0  0  0  0  0  0  0
   55.8890   22.7490   45.8930 C   0  0  0  0  0  0  0  0  0  0  0  0
   54.4990   22.8720   45.7900 C   0  0  0  0  0  0  0  0  0  0  0  0
   53.9610   24.1390   45.6550 C   0  0  0  0  0  0  0  0  0  0  0  0
   54.7410   25.2330   45.6220 N   0  0  0  0  0  0  0  0  0  0  0  0
   56.1770   27.5400   45.4310 N   0  0  0  0  0  0  0  0  0  0  0  0
   56.8260   28.7290   45.3770 C   0  0  0  0  0  0  0  0  0  0  0  0
   56.2230   29.8410   45.1490 N   0  0  0  0  0  0  0  0  0  0  0  0
   56.8440   30.7600   44.2590 C   0  0  0  0  0  0  0  0  0  0  0  0
   56.7790   30.6160   42.8870 C   0  0  0  0  0  0  0  0  0  0  0  0
   57.4150   31.5640   42.1100 C   0  0  0  0  0  0  0  0  0  0  0  0
   58.0970   32.6250   42.6510 C   0  0  0  0  0  0  0  0  0  0  0  0
   58.1620   32.7710   44.0200 C   0  0  0  0  0  0  0  0  0  0  0  0
   57.5280   31.8260   44.8060 C   0  0  0  0  0  0  0  0  0  0  0  0
   58.1720   28.8080   45.5630 N   0  0  0  0  0  0  0  0  0  0  0  0
   60.5641   27.7751   47.0897 H   0  0  0  0  0  0  0  0  0  0  0  0
   60.8272   26.8901   45.5489 H   0  0  0  0  0  0  0  0  0  0  0  0
   60.7286   28.6837   45.5489 H   0  0  0  0  0  0  0  0  0  0  0  0
   58.7725   25.5417   46.0610 H   0  0  0  0  0  0  0  0  0  0  0  0
   57.7413   23.8327   45.9323 H   0  0  0  0  0  0  0  0  0  0  0  0
   56.3654   21.7636   46.0021 H   0  0  0  0  0  0  0  0  0  0  0  0
   53.8507   21.9837   45.8157 H   0  0  0  0  0  0  0  0  0  0  0  0
   52.8701   24.2539   45.5728 H   0  0  0  0  0  0  0  0  0  0  0  0
   55.1460   27.5840   45.2760 H   0  0  0  0  0  0  0  0  0  0  0  0
   56.2388   29.7745   42.4286 H   0  0  0  0  0  0  0  0  0  0  0  0
   57.3734   31.4649   41.0153 H   0  0  0  0  0  0  0  0  0  0  0  0
   58.5902   33.3566   41.9941 H   0  0  0  0  0  0  0  0  0  0  0  0
   58.7024   33.6146   44.4742 H   0  0  0  0  0  0  0  0  0  0  0  0
   57.5704   31.9274   45.9005 H   0  0  0  0  0  0  0  0  0  0  0  0
  1  2  1  0
  2  3  1  0
  3  4  2  0
  4  5  1  0
  5  6  2  0
  6  7  1  0
  7  8  2  0
  8  9  1  0
  9 10  2  0
  4 11  1  0
 11 12  1  0
 12 13  2  0
 13 14  1  0
 14 15  2  0
 15 16  1  0
 16 17  2  0
 17 18  1  0
 18 19  2  0
 12 20  1  0
 20  2  2  0
 10  5  1  0
 19 14  1  0
  1 21  1  0
  1 22  1  0
  1 23  1  0
  3 24  1  0
  6 25  1  0
  7 26  1  0
  8 27  1  0
  9 28  1  0
 11 29  1  0
 15 30  1  0
 16 31  1  0
 17 32  1  0
 18 33  1  0
 19 34  1  0
M  END
>  <smiles>  (15) 
Cc1cc(-c2ccccn2)[nH]c(=Nc2ccccc2)n1

>  <score_type>  (15) 
oracle

>  <origin>  (15) 
adg

>  <m_score__min__energy>  (15) 
-7.79

>  <m_primary>  (15) 
energy

$$$$
15:0
     RDKit          3D

 26 27  0  0  0  0  0  0  0  0999 V2000
   56.6870   30.4970   43.1210 C   0  0  0  0  0  0  0  0  0  0  0  0
   56.6250   30.8380   44.5030 O   0  0  0  0  0  0  0  0  0  0  0  0
   57.3820   31.8520   45.1140 C   0  0  0  0  0  0  0  0  0  0  0  0
   57.3910   33.1600   44.6090 C   0  0  0  0  0  0  0  0  0  0  0  0
   58.1450   34.1480   45.2260 C   0  0  0  0  0  0  0  0  0  0  0  0
   58.9060   33.8550   46.3610 C   0  0  0  0  0  0  0  0  0  0  0  0
   59.6550   34.8710   46.9600 C   0  0  0  0  0  0  0  0  0  0  0  0
   60.4150   34.5990   48.0840 C   0  0  0  0  0  0  0  0  0  0  0  0
   60.4270   33.3130   48.6100 C   0  0  0  0  0  0  0  0  0  0  0  0
   59.7010   32.3000   48.0390 N   0  0  0  0  0  0  0  0  0  0  0  0
   59.7930   30.9790   48.6850 C   0  0  0  0  0  0  0  0  0  0  0  0
   58.9280   32.5410   46.9090 C   0  0  0  0  0  0  0  0  0  0  0  0
   58.1430   31.5350   46.2580 C   0  0  0  0  0  0  0  0  0  0  0  0
   58.1100   30.2230   46.7340 O   0  0  0  0  0  0  0  0  0  0  0  0
   56.8829   29.4195   43.0176 H   0  0  0  0  0  0  0  0  0  0  0  0
   55.7293   30.7434   42.6392 H   0  0  0  0  0  0  0  0  0  0  0  0
   57.4966   31.0648   42.6392 H   0  0  0  0  0  0  0  0  0  0  0  0
   56.7958   33.4048   43.7169 H   0  0  0  0  0  0  0  0  0  0  0  0
   58.1438   35.1698   44.8186 H   0  0  0  0  0  0  0  0  0  0  0  0
   59.6406   35.8868   46.5382 H   0  0  0  0  0  0  0  0  0  0  0  0
   61.0062   35.3962   48.5583 H   0  0  0  0  0  0  0  0  0  0  0  0
   61.0323   33.1032   49.5042 H   0  0  0  0  0  0  0  0  0  0  0  0
   59.7843   31.1039   49.7779 H   0  0  0  0  0  0  0  0  0  0  0  0
   58.9357   30.3610   48.3797 H   0  0  0  0  0  0  0  0  0  0  0  0
   60.7277   30.4858   48.3797 H   0  0  0  0  0  0  0  0  0  0  0  0
   57.5960   29.4810   46.2750 H   0  0  0  0  0  0  0  0  0  0  0  0
  1  2  1  0
  2  3  1  0
  3  4  2  0
  4  5  1  0
  5  6  2  0
  6  7  1  0
  7  8  2  0
  8  9  1  0
  9 10  2  0
 10 11  1  0
 10 12  1  0
 12 13  2  0
 13 14  1  0
 13  3  1  0
 12  6  1  0
  1 15  1  0
  1 16  1  0
  1 17  1  0
  4 18  1  0
  5 19  1  0
  7 20  1  0
  8 21  1  0
  9 22  1  0
 11 23  1  0
 11 24  1  0
 11 25  1  0
 14 26  1  0
M  CHG  1  10   1
M  END
>  <UniqueID>  (16) 
15

>  <SMILES>  (16) 
COc1ccc2ccc[n+](C)c2c1O

>  <Energy>  (16) 
38.08160690783128

>  <Genealogy>  (16) 
COc1ccc2ccc[n+](C)c2c1O (3D coordinates assigned)
COc1ccc2ccc[n+](C)c2c1O (optimized conformer: 38.08160690783128 kcal/mol)

>  <smiles>  (16) 
COc1ccc2ccc[n+](C)c2c1O

>  <score_type>  (16) 
oracle

>  <origin>  (16) 
adg

>  <m_score__min__energy>  (16) 
-4.7400000000000002

>  <m_primary>  (16) 
energy

$$$$
16:0
     RDKit          3D

 39 43  0  0  0  0  0  0  0  0999 V2000
   58.1680   34.2350   45.5680 C   0  0  0  0  0  0  0  0  0  0  0  0
   57.7690   33.0990   46.2770 C   0  0  0  0  0  0  0  0  0  0  0  0
   58.4800   32.6930   47.4100 C   0  0  0  0  0  0  0  0  0  0  0  0
   59.6030   33.4210   47.8420 C   0  0  0  0  0  0  0  0  0  0  0  0
   60.3590   32.9970   49.0460 C   0  0  0  0  0  0  0  0  0  0  0  0
   61.7450   33.2210   49.1460 C   0  0  0  0  0  0  0  0  0  0  0  0
   62.4380   32.8110   50.3130 C   0  0  0  0  0  0  0  0  0  0  0  0
   63.8990   33.0390   50.4490 C   0  0  0  0  0  0  0  0  0  0  0  0
   64.9220   32.3820   49.7640 C   0  0  0  0  0  0  0  0  0  0  0  0
   66.2040   32.8210   50.1160 C   0  0  0  0  0  0  0  0  0  0  0  0
   66.2100   33.8220   51.0770 C   0  0  0  0  0  0  0  0  0  0  0  0
   64.6170   34.1570   51.4870 S   0  0  0  0  0  0  0  0  0  0  0  0
   61.7450   32.2010   51.3260 N   0  0  0  0  0  0  0  0  0  0  0  0
   60.4120   32.0000   51.1900 C   0  0  0  0  0  0  0  0  0  0  0  0
   59.5540   31.3800   52.0700 C   0  0  0  0  0  0  0  0  0  0  0  0
   58.3350   31.4250   51.3950 C   0  0  0  0  0  0  0  0  0  0  0  0
   57.0570   30.8910   51.8830 C   0  0  0  0  0  0  0  0  0  0  0  0
   55.9620   31.6300   52.2890 C   0  0  0  0  0  0  0  0  0  0  0  0
   55.0090   30.7060   52.6580 C   0  0  0  0  0  0  0  0  0  0  0  0
   55.5780   29.4650   52.4570 C   0  0  0  0  0  0  0  0  0  0  0  0
   56.7990   29.6080   51.9950 O   0  0  0  0  0  0  0  0  0  0  0  0
   58.4750   32.0340   50.1940 N   0  0  0  0  0  0  0  0  0  0  0  0
   59.7470   32.3820   50.0940 N   0  0  0  0  0  0  0  0  0  0  0  0
   59.9920   34.5670   47.1260 C   0  0  0  0  0  0  0  0  0  0  0  0
   59.2770   34.9690   45.9930 C   0  0  0  0  0  0  0  0  0  0  0  0
   57.6085   34.5509   44.6752 H   0  0  0  0  0  0  0  0  0  0  0  0
   56.8935   32.5229   45.9429 H   0  0  0  0  0  0  0  0  0  0  0  0
   58.1596   31.7998   47.9663 H   0  0  0  0  0  0  0  0  0  0  0  0
   62.2871   33.7111   48.3239 H   0  0  0  0  0  0  0  0  0  0  0  0
   64.7386   31.5942   49.0185 H   0  0  0  0  0  0  0  0  0  0  0  0
   67.1224   32.4100   49.6715 H   0  0  0  0  0  0  0  0  0  0  0  0
   67.1020   34.3103   51.4965 H   0  0  0  0  0  0  0  0  0  0  0  0
   62.2230   31.8760   52.1960 H   0  0  0  0  0  0  0  0  0  0  0  0
   59.7753   30.9547   53.0600 H   0  0  0  0  0  0  0  0  0  0  0  0
   55.8705   32.7259   52.3126 H   0  0  0  0  0  0  0  0  0  0  0  0
   53.9977   30.9154   53.0367 H   0  0  0  0  0  0  0  0  0  0  0  0
   55.0839   28.5021   52.6539 H   0  0  0  0  0  0  0  0  0  0  0  0
   60.8632   35.1504   47.4587 H   0  0  0  0  0  0  0  0  0  0  0  0
   59.5889   35.8648   45.4360 H   0  0  0  0  0  0  0  0  0  0  0  0
  1  2  2  0
  2  3  1  0
  3  4  2  0
  4  5  1  0
  5  6  2  0
  6  7  1  0
  7  8  1  0
  8  9  2  0
  9 10  1  0
 10 11  2  0
 11 12  1  0
  7 13  2  0
 13 14  1  0
 14 15  2  0
 15 16  1  0
 16 17  1  0
 17 18  2  0
 18 19  1  0
 19 20  2  0
 20 21  1  0
 16 22  2  0
 22 23  1  0
  4 24  1  0
 24 25  2  0
 25  1  1  0
 23  5  1  0
 12  8  1  0
 23 14  1  0
 21 17  1  0
  1 26  1  0
  2 27  1  0
  3 28  1  0
  6 29  1  0
  9 30  1  0
 10 31  1  0
 11 32  1  0
 13 33  1  0
 15 34  1  0
 18 35  1  0
 19 36  1  0
 20 37  1  0
 24 38  1  0
 25 39  1  0
M  CHG  1  13   1
M  END
>  <UniqueID>  (17) 
16

>  <SMILES>  (17) 
c1ccc(-c2cc(-c3cccs3)[nH+]c3cc(-c4ccco4)nn23)cc1

>  <Energy>  (17) 
140.21772005999296

>  <Genealogy>  (17) 
c1ccc(-c2cc(-c3cccs3)[nH+]c3cc(-c4ccco4)nn23)cc1 (protonated)
c1ccc(-c2cc(-c3cccs3)[nH+]c3cc(-c4ccco4)nn23)cc1 (3D coordinates assigned)
c1ccc(-c2cc(-c3cccs3)[nH+]c3cc(-c4ccco4)nn23)cc1 (optimized conformer: 140.21772005999296 kcal/mol)

>  <smiles>  (17) 
c1ccc(-c2cc(-c3cccs3)nc3cc(-c4ccco4)nn23)cc1

>  <score_type>  (17) 
oracle

>  <origin>  (17) 
adg

>  <m_score__min__energy>  (17) 
-6.3099999999999996

>  <m_primary>  (17) 
energy

$$$$
17:0
     RDKit          3D

 37 38  0  0  0  0  0  0  0  0999 V2000
   61.1230   30.4370   46.7520 C   0  0  0  0  0  0  0  0  0  0  0  0
   60.4650   29.9080   45.6060 O   0  0  0  0  0  0  0  0  0  0  0  0
   59.4420   28.9450   45.6420 C   0  0  0  0  0  0  0  0  0  0  0  0
   59.4700   27.8680   46.5450 C   0  0  0  0  0  0  0  0  0  0  0  0
   58.4530   26.8990   46.5520 C   0  0  0  0  0  0  0  0  0  0  0  0
   58.5640   25.7390   47.5050 C   0  0  0  0  0  0  0  0  0  0  0  0
   57.3600   27.0330   45.6640 C   0  0  0  0  0  0  0  0  0  0  0  0
   56.2760   26.0850   45.6500 N   0  0  0  0  0  0  0  0  0  0  0  0
   55.1330   26.4330   46.0100 O   0  0  0  0  0  0  0  0  0  0  0  0
   56.5130   24.7520   45.4020 O   0  0  0  0  0  0  0  0  0  0  0  0
   57.3390   28.1080   44.7630 C   0  0  0  0  0  0  0  0  0  0  0  0
   58.3670   29.0650   44.7410 C   0  0  0  0  0  0  0  0  0  0  0  0
   58.3400   30.1260   43.7580 N   0  0  0  0  0  0  0  0  0  0  0  0
   57.3110   31.1300   44.0780 C   0  0  0  0  0  0  0  0  0  0  0  0
   57.8880   32.2980   44.8440 C   0  0  0  0  0  0  0  0  0  0  0  0
   58.1710   33.5050   44.1850 C   0  0  0  0  0  0  0  0  0  0  0  0
   58.7640   34.5640   44.8790 C   0  0  0  0  0  0  0  0  0  0  0  0
   59.0880   34.4220   46.2310 C   0  0  0  0  0  0  0  0  0  0  0  0
   58.8170   33.2200   46.8930 C   0  0  0  0  0  0  0  0  0  0  0  0
   59.2860   33.0150   48.7330 Br  0  0  0  0  0  0  0  0  0  0  0  0
   58.2170   32.1610   46.2030 C   0  0  0  0  0  0  0  0  0  0  0  0
   60.6418   30.0501   47.6623 H   0  0  0  0  0  0  0  0  0  0  0  0
   62.1806   30.1349   46.7396 H   0  0  0  0  0  0  0  0  0  0  0  0
   61.0551   31.5348   46.7396 H   0  0  0  0  0  0  0  0  0  0  0  0
   60.3028   27.7825   47.2585 H   0  0  0  0  0  0  0  0  0  0  0  0
   58.5285   26.1100   48.5399 H   0  0  0  0  0  0  0  0  0  0  0  0
   57.7282   25.0441   47.3357 H   0  0  0  0  0  0  0  0  0  0  0  0
   59.5164   25.2152   47.3357 H   0  0  0  0  0  0  0  0  0  0  0  0
   56.4995   28.2036   44.0586 H   0  0  0  0  0  0  0  0  0  0  0  0
   59.2770   30.5900   43.6910 H   0  0  0  0  0  0  0  0  0  0  0  0
   58.1370   29.7230   42.8140 H   0  0  0  0  0  0  0  0  0  0  0  0
   56.8713   31.5010   43.1404 H   0  0  0  0  0  0  0  0  0  0  0  0
   56.5482   30.6499   44.7086 H   0  0  0  0  0  0  0  0  0  0  0  0
   57.9253   33.6179   43.1188 H   0  0  0  0  0  0  0  0  0  0  0  0
   58.9759   35.5105   44.3600 H   0  0  0  0  0  0  0  0  0  0  0  0
   59.5563   35.2557   46.7747 H   0  0  0  0  0  0  0  0  0  0  0  0
   58.0021   31.2177   46.7265 H   0  0  0  0  0  0  0  0  0  0  0  0
  1  2  1  0
  2  3  1  0
  3  4  2  0
  4  5  1  0
  5  6  1  0
  5  7  2  0
  7  8  1  0
  8  9  2  0
  8 10  1  0
  7 11  1  0
 11 12  2  0
 12 13  1  0
 13 14  1  0
 14 15  1  0
 15 16  2  0
 16 17  1  0
 17 18  2  0
 18 19  1  0
 19 20  1  0
 19 21  2  0
 12  3  1  0
 21 15  1  0
  1 22  1  0
  1 23  1  0
  1 24  1  0
  4 25  1  0
  6 26  1  0
  6 27  1  0
  6 28  1  0
 11 29  1  0
 13 30  1  0
 13 31  1  0
 14 32  1  0
 14 33  1  0
 16 34  1  0
 17 35  1  0
 18 36  1  0
 21 37  1  0
M  CHG  3   8   1  10  -1  13   1
M  END
>  <UniqueID>  (18) 
17

>  <SMILES>  (18) 
COc1cc(C)c([N+](=O)[O-])cc1[NH2+]Cc1cccc(Br)c1

>  <Energy>  (18) 
41.12002806990515

>  <Genealogy>  (18) 
COc1cc(C)c([N+](=O)[O-])cc1[NH2+]Cc1cccc(Br)c1 (protonated)
COc1cc(C)c([N+](=O)[O-])cc1[NH2+]Cc1cccc(Br)c1 (3D coordinates assigned)
COc1cc(C)c([N+](=O)[O-])cc1[NH2+]Cc1cccc(Br)c1 (optimized conformer: 41.12002806990515 kcal/mol)

>  <smiles>  (18) 
COc1cc(C)c([N+](=O)[O-])cc1NCc1cccc(Br)c1

>  <score_type>  (18) 
oracle

>  <origin>  (18) 
adg

>  <m_score__min__energy>  (18) 
-6.5199999999999996

>  <m_primary>  (18) 
energy

$$$$
18:0
     RDKit          3D

 45 47  0  0  0  0  0  0  0  0999 V2000
   55.0420   29.7620   43.6140 F   0  0  0  0  0  0  0  0  0  0  0  0
   56.3620   29.8400   43.2020 C   0  0  0  0  0  0  0  0  0  0  0  0
   56.5700   31.0960   42.6590 F   0  0  0  0  0  0  0  0  0  0  0  0
   56.5860   28.8860   42.2280 F   0  0  0  0  0  0  0  0  0  0  0  0
   57.2970   29.5980   44.3600 C   0  0  0  0  0  0  0  0  0  0  0  0
   58.3730   30.4710   44.6010 C   0  0  0  0  0  0  0  0  0  0  0  0
   59.2080   30.2780   45.7050 C   0  0  0  0  0  0  0  0  0  0  0  0
   58.9750   29.2180   46.5930 C   0  0  0  0  0  0  0  0  0  0  0  0
   59.8510   29.0420   47.8120 C   0  0  0  0  0  0  0  0  0  0  0  0
   59.2000   29.5310   49.0380 N   0  0  0  0  0  0  0  0  0  0  0  0
   60.1770   29.7990   50.1020 C   0  0  0  0  0  0  0  0  0  0  0  0
   60.2970   31.3120   50.3350 C   0  0  0  0  0  0  0  0  0  0  0  0
   59.3120   32.0760   49.5470 N   0  0  0  0  0  0  0  0  0  0  0  0
   59.9320   32.7750   48.4380 C   0  0  0  0  0  0  0  0  0  0  0  0
   61.3160   33.0370   48.4930 C   0  0  0  0  0  0  0  0  0  0  0  0
   61.9580   33.7280   47.4690 C   0  0  0  0  0  0  0  0  0  0  0  0
   61.2390   34.1730   46.3640 C   0  0  0  0  0  0  0  0  0  0  0  0
   59.8630   33.9320   46.2710 C   0  0  0  0  0  0  0  0  0  0  0  0
   59.1490   34.3880   45.1520 C   0  0  0  0  0  0  0  0  0  0  0  0
   57.7780   34.1570   45.0490 C   0  0  0  0  0  0  0  0  0  0  0  0
   57.1060   33.4700   46.0600 C   0  0  0  0  0  0  0  0  0  0  0  0
   57.8000   33.0090   47.1810 C   0  0  0  0  0  0  0  0  0  0  0  0
   59.1900   33.2300   47.3110 C   0  0  0  0  0  0  0  0  0  0  0  0
   57.8840   28.3630   46.3720 C   0  0  0  0  0  0  0  0  0  0  0  0
   57.0480   28.5560   45.2700 C   0  0  0  0  0  0  0  0  0  0  0  0
   58.5586   31.3114   43.9160 H   0  0  0  0  0  0  0  0  0  0  0  0
   60.0525   30.9612   45.8783 H   0  0  0  0  0  0  0  0  0  0  0  0
   60.0784   27.9727   47.9337 H   0  0  0  0  0  0  0  0  0  0  0  0
   60.7675   29.6305   47.6578 H   0  0  0  0  0  0  0  0  0  0  0  0
   58.5210   28.8080   49.3740 H   0  0  0  0  0  0  0  0  0  0  0  0
   59.8463   29.3123   51.0314 H   0  0  0  0  0  0  0  0  0  0  0  0
   61.1573   29.4009   49.8011 H   0  0  0  0  0  0  0  0  0  0  0  0
   60.1347   31.5201   51.4029 H   0  0  0  0  0  0  0  0  0  0  0  0
   61.3018   31.6247   50.0148 H   0  0  0  0  0  0  0  0  0  0  0  0
   58.8150   32.7570   50.1650 H   0  0  0  0  0  0  0  0  0  0  0  0
   58.5700   31.4250   49.1990 H   0  0  0  0  0  0  0  0  0  0  0  0
   61.8983   32.6898   49.3592 H   0  0  0  0  0  0  0  0  0  0  0  0
   63.0386   33.9231   47.5338 H   0  0  0  0  0  0  0  0  0  0  0  0
   61.7546   34.7172   45.5590 H   0  0  0  0  0  0  0  0  0  0  0  0
   59.6740   34.9306   44.3520 H   0  0  0  0  0  0  0  0  0  0  0  0
   57.2252   34.5172   44.1688 H   0  0  0  0  0  0  0  0  0  0  0  0
   56.0242   33.2904   45.9740 H   0  0  0  0  0  0  0  0  0  0  0  0
   57.2589   32.4680   47.9713 H   0  0  0  0  0  0  0  0  0  0  0  0
   57.6864   27.5365   47.0705 H   0  0  0  0  0  0  0  0  0  0  0  0
   56.1885   27.8877   45.1130 H   0  0  0  0  0  0  0  0  0  0  0  0
  1  2  1  0
  2  3  1  0
  2  4  1  0
  2  5  1  0
  5  6  2  0
  6  7  1  0
  7  8  2  0
  8  9  1  0
  9 10  1  0
 10 11  1  0
 11 12  1  0
 12 13  1  0
 13 14  1  0
 14 15  2  0
 15 16  1  0
 16 17  2  0
 17 18  1  0
 18 19  2  0
 19 20  1  0
 20 21  2  0
 21 22  1  0
 22 23  2  0
  8 24  1  0
 24 25  2  0
 25  5  1  0
 23 14  1  0
 23 18  1  0
  6 26  1  0
  7 27  1  0
  9 28  1  0
  9 29  1  0
 10 30  1  0
 11 31  1  0
 11 32  1  0
 12 33  1  0
 12 34  1  0
 13 35  1  0
 13 36  1  0
 15 37  1  0
 16 38  1  0
 17 39  1  0
 19 40  1  0
 20 41  1  0
 21 42  1  0
 22 43  1  0
 24 44  1  0
 25 45  1  0
M  CHG  1  13   1
M  END
>  <UniqueID>  (19) 
18

>  <SMILES>  (19) 
FC(F)(F)c1ccc(CNCC[NH2+]c2cccc3ccccc23)cc1

>  <Energy>  (19) 
51.926034786135546

>  <Genealogy>  (19) 
FC(F)(F)c1ccc(CNCC[NH2+]c2cccc3ccccc23)cc1 (protonated)
FC(F)(F)c1ccc(CNCC[NH2+]c2cccc3ccccc23)cc1 (3D coordinates assigned)
FC(F)(F)c1ccc(CNCC[NH2+]c2cccc3ccccc23)cc1 (optimized conformer: 51.926034786135546 kcal/mol)

>  <smiles>  (19) 
FC(F)(F)c1ccc(CNCCNc2cccc3ccccc23)cc1

>  <score_type>  (19) 
oracle

>  <origin>  (19) 
adg

>  <m_score__min__energy>  (19) 
-6.1200000000000001

>  <m_primary>  (19) 
energy

$$$$
19:0
     RDKit          3D

 52 55  0  0  0  0  0  0  0  0999 V2000
   57.9720   31.9860   42.8120 C   0  0  0  0  0  0  0  0  0  0  0  0
   57.6650   31.3850   44.1200 N   0  0  0  0  0  0  0  0  0  0  0  0
   57.0830   30.0470   43.9180 C   0  0  0  0  0  0  0  0  0  0  0  0
   56.7380   32.2620   44.8720 C   0  0  0  0  0  0  0  0  0  0  0  0
   57.3690   33.6400   45.1660 C   0  0  0  0  0  0  0  0  0  0  0  0
   57.7150   33.8150   46.6510 C   0  0  0  0  0  0  0  0  0  0  0  0
   59.1030   33.3980   46.9050 N   0  0  0  0  0  0  0  0  0  0  0  0
   60.1630   34.3700   47.0710 C   0  0  0  0  0  0  0  0  0  0  0  0
   59.9790   35.5720   46.7350 O   0  0  0  0  0  0  0  0  0  0  0  0
   61.4730   34.0030   47.6380 C   0  0  0  0  0  0  0  0  0  0  0  0
   62.4850   33.5090   46.7980 C   0  0  0  0  0  0  0  0  0  0  0  0
   63.7280   33.1460   47.3280 C   0  0  0  0  0  0  0  0  0  0  0  0
   63.9670   33.2850   48.6960 C   0  0  0  0  0  0  0  0  0  0  0  0
   62.9820   33.8300   49.5310 C   0  0  0  0  0  0  0  0  0  0  0  0
   61.7360   34.1840   49.0070 C   0  0  0  0  0  0  0  0  0  0  0  0
   63.2620   34.0060   50.8900 O   0  0  0  0  0  0  0  0  0  0  0  0
   64.5990   33.8980   51.3880 C   0  0  0  0  0  0  0  0  0  0  0  0
   65.3420   32.7640   50.6700 C   0  0  0  0  0  0  0  0  0  0  0  0
   65.1860   32.8880   49.2550 O   0  0  0  0  0  0  0  0  0  0  0  0
   59.3470   32.0130   47.2080 C   0  0  0  0  0  0  0  0  0  0  0  0
   59.5300   31.0580   46.2620 N   0  0  0  0  0  0  0  0  0  0  0  0
   59.7760   29.8450   46.8210 C   0  0  0  0  0  0  0  0  0  0  0  0
   60.0090   28.6650   46.1080 C   0  0  0  0  0  0  0  0  0  0  0  0
   59.9970   28.6570   44.7510 F   0  0  0  0  0  0  0  0  0  0  0  0
   60.2570   27.4800   46.8230 C   0  0  0  0  0  0  0  0  0  0  0  0
   60.2710   27.4860   48.2330 C   0  0  0  0  0  0  0  0  0  0  0  0
   60.5120   26.3370   48.9100 F   0  0  0  0  0  0  0  0  0  0  0  0
   60.0390   28.6770   48.9390 C   0  0  0  0  0  0  0  0  0  0  0  0
   59.7950   29.8380   48.2080 C   0  0  0  0  0  0  0  0  0  0  0  0
   59.5010   31.3920   48.7770 S   0  0  0  0  0  0  0  0  0  0  0  0
   58.4677   32.9565   42.9617 H   0  0  0  0  0  0  0  0  0  0  0  0
   58.6387   31.3168   42.2484 H   0  0  0  0  0  0  0  0  0  0  0  0
   57.0390   32.1339   42.2484 H   0  0  0  0  0  0  0  0  0  0  0  0
   56.8814   29.5835   44.8950 H   0  0  0  0  0  0  0  0  0  0  0  0
   56.1429   30.1374   43.3541 H   0  0  0  0  0  0  0  0  0  0  0  0
   57.7901   29.4209   43.3541 H   0  0  0  0  0  0  0  0  0  0  0  0
   55.8240   32.4078   44.2776 H   0  0  0  0  0  0  0  0  0  0  0  0
   56.5099   31.7770   45.8326 H   0  0  0  0  0  0  0  0  0  0  0  0
   58.2902   33.7413   44.5734 H   0  0  0  0  0  0  0  0  0  0  0  0
   56.6330   34.4123   44.8978 H   0  0  0  0  0  0  0  0  0  0  0  0
   57.5974   34.8729   46.9287 H   0  0  0  0  0  0  0  0  0  0  0  0
   57.0381   33.1899   47.2520 H   0  0  0  0  0  0  0  0  0  0  0  0
   62.2993   33.4071   45.7186 H   0  0  0  0  0  0  0  0  0  0  0  0
   64.5149   32.7520   46.6681 H   0  0  0  0  0  0  0  0  0  0  0  0
   60.9613   34.6041   49.6654 H   0  0  0  0  0  0  0  0  0  0  0  0
   65.1289   34.8463   51.2149 H   0  0  0  0  0  0  0  0  0  0  0  0
   64.5640   33.6784   52.4653 H   0  0  0  0  0  0  0  0  0  0  0  0
   66.4114   32.8133   50.9230 H   0  0  0  0  0  0  0  0  0  0  0  0
   64.9227   31.7999   50.9935 H   0  0  0  0  0  0  0  0  0  0  0  0
   59.5170   31.2360   45.2320 H   0  0  0  0  0  0  0  0  0  0  0  0
   60.4413   26.5420   46.2788 H   0  0  0  0  0  0  0  0  0  0  0  0
   60.0495   28.6933   50.0388 H   0  0  0  0  0  0  0  0  0  0  0  0
  1  2  1  0
  2  3  1  0
  2  4  1  0
  4  5  1  0
  5  6  1  0
  6  7  1  0
  7  8  1  0
  8  9  2  0
  8 10  1  0
 10 11  2  0
 11 12  1  0
 12 13  2  0
 13 14  1  0
 14 15  2  0
 14 16  1  0
 16 17  1  0
 17 18  1  0
 18 19  1  0
  7 20  1  0
 20 21  2  0
 21 22  1  0
 22 23  2  0
 23 24  1  0
 23 25  1  0
 25 26  2  0
 26 27  1  0
 26 28  1  0
 28 29  2  0
 29 30  1  0
 15 10  1  0
 30 20  1  0
 19 13  1  0
 29 22  1  0
  1 31  1  0
  1 32  1  0
  1 33  1  0
  3 34  1  0
  3 35  1  0
  3 36  1  0
  4 37  1  0
  4 38  1  0
  5 39  1  0
  5 40  1  0
  6 41  1  0
  6 42  1  0
 11 43  1  0
 12 44  1  0
 15 45  1  0
 17 46  1  0
 17 47  1  0
 18 48  1  0
 18 49  1  0
 21 50  1  0
 25 51  1  0
 28 52  1  0
M  CHG  1  21   1
M  END
>  <UniqueID>  (20) 
19

>  <SMILES>  (20) 
CN(C)CCCN(C(=O)c1ccc2c(c1)OCCO2)c1[nH+]c2c(F)cc(F)cc2s1

>  <Energy>  (20) 
99.60988112502531

>  <Genealogy>  (20) 
CN(C)CCCN(C(=O)c1ccc2c(c1)OCCO2)c1[nH+]c2c(F)cc(F)cc2s1 (protonated)
CN(C)CCCN(C(=O)c1ccc2c(c1)OCCO2)c1[nH+]c2c(F)cc(F)cc2s1 (3D coordinates assigned)
CN(C)CCCN(C(=O)c1ccc2c(c1)OCCO2)c1[nH+]c2c(F)cc(F)cc2s1 (nonaromatic ring conformer: 99.60988112502531 kcal/mol)

>  <smiles>  (20) 
CN(C)CCCN(C(=O)c1ccc2c(c1)OCCO2)c1nc2c(F)cc(F)cc2s1

>  <score_type>  (20) 
oracle

>  <origin>  (20) 
adg

>  <m_score__min__energy>  (20) 
-6.2800000000000002

>  <m_primary>  (20) 
energy

$$$$
20:0
     RDKit          3D

 33 34  0  0  0  0  0  0  0  0999 V2000
   57.4190   32.3620   40.8650 C   0  0  0  0  0  0  0  0  0  0  0  0
   57.5210   31.8850   42.2840 C   0  0  0  0  0  0  0  0  0  0  0  0
   56.9620   30.6560   42.6560 C   0  0  0  0  0  0  0  0  0  0  0  0
   57.0250   30.2280   43.9830 C   0  0  0  0  0  0  0  0  0  0  0  0
   57.6370   31.0280   44.9510 C   0  0  0  0  0  0  0  0  0  0  0  0
   58.1870   32.2740   44.6010 C   0  0  0  0  0  0  0  0  0  0  0  0
   58.8230   33.1210   45.6370 C   0  0  0  0  0  0  0  0  0  0  0  0
   60.0140   32.8310   46.2090 N   0  0  0  0  0  0  0  0  0  0  0  0
   60.3820   33.7570   47.1360 C   0  0  0  0  0  0  0  0  0  0  0  0
   61.6670   33.6310   47.9150 C   0  0  0  0  0  0  0  0  0  0  0  0
   62.5630   32.5610   47.4160 N   0  0  0  0  0  0  0  0  0  0  0  0
   63.7610   33.1020   46.7510 C   0  0  0  0  0  0  0  0  0  0  0  0
   62.9380   31.6070   48.4750 C   0  0  0  0  0  0  0  0  0  0  0  0
   59.4830   34.8060   47.3140 C   0  0  0  0  0  0  0  0  0  0  0  0
   58.1910   34.5490   46.2720 S   0  0  0  0  0  0  0  0  0  0  0  0
   58.1190   32.6970   43.2610 C   0  0  0  0  0  0  0  0  0  0  0  0
   57.1890   33.4376   40.8554 H   0  0  0  0  0  0  0  0  0  0  0  0
   58.3749   32.1868   40.3497 H   0  0  0  0  0  0  0  0  0  0  0  0
   56.6183   31.8112   40.3497 H   0  0  0  0  0  0  0  0  0  0  0  0
   56.4715   30.0257   41.8996 H   0  0  0  0  0  0  0  0  0  0  0  0
   56.5915   29.2579   44.2675 H   0  0  0  0  0  0  0  0  0  0  0  0
   57.6890   30.6811   45.9936 H   0  0  0  0  0  0  0  0  0  0  0  0
   62.2041   34.5892   47.8566 H   0  0  0  0  0  0  0  0  0  0  0  0
   61.3931   33.3661   48.9469 H   0  0  0  0  0  0  0  0  0  0  0  0
   62.0240   32.0240   46.6930 H   0  0  0  0  0  0  0  0  0  0  0  0
   64.4859   33.4293   47.5109 H   0  0  0  0  0  0  0  0  0  0  0  0
   64.2155   32.3218   46.1228 H   0  0  0  0  0  0  0  0  0  0  0  0
   63.4762   33.9589   46.1228 H   0  0  0  0  0  0  0  0  0  0  0  0
   62.7587   32.0632   49.4598 H   0  0  0  0  0  0  0  0  0  0  0  0
   62.3317   30.6943   48.3778 H   0  0  0  0  0  0  0  0  0  0  0  0
   64.0035   31.3515   48.3778 H   0  0  0  0  0  0  0  0  0  0  0  0
   59.5983   35.6495   48.0105 H   0  0  0  0  0  0  0  0  0  0  0  0
   58.5383   33.6732   42.9759 H   0  0  0  0  0  0  0  0  0  0  0  0
  1  2  1  0
  2  3  2  0
  3  4  1  0
  4  5  2  0
  5  6  1  0
  6  7  1  0
  7  8  2  0
  8  9  1  0
  9 10  1  0
 10 11  1  0
 11 12  1  0
 11 13  1  0
  9 14  2  0
 14 15  1  0
  6 16  2  0
 16  2  1  0
 15  7  1  0
  1 17  1  0
  1 18  1  0
  1 19  1  0
  3 20  1  0
  4 21  1  0
  5 22  1  0
 10 23  1  0
 10 24  1  0
 11 25  1  0
 12 26  1  0
 12 27  1  0
 12 28  1  0
 13 29  1  0
 13 30  1  0
 13 31  1  0
 14 32  1  0
 16 33  1  0
M  CHG  1  11   1
M  END
>  <UniqueID>  (21) 
20

>  <SMILES>  (21) 
Cc1cccc(-c2nc(C[NH+](C)C)cs2)c1

>  <Energy>  (21) 
63.25833747959789

>  <Genealogy>  (21) 
Cc1cccc(-c2nc(C[NH+](C)C)cs2)c1 (protonated)
Cc1cccc(-c2nc(C[NH+](C)C)cs2)c1 (3D coordinates assigned)
Cc1cccc(-c2nc(C[NH+](C)C)cs2)c1 (optimized conformer: 63.25833747959789 kcal/mol)

>  <smiles>  (21) 
Cc1cccc(-c2nc(CN(C)C)cs2)c1

>  <score_type>  (21) 
oracle

>  <origin>  (21) 
adg

>  <m_score__min__energy>  (21) 
-4.7800000000000002

>  <m_primary>  (21) 
energy

$$$$
21:0
     RDKit          3D

 31 33  0  0  0  0  0  0  0  0999 V2000
   60.4260   27.1090   48.4840 C   0  0  0  0  0  0  0  0  0  0  0  0
   59.7070   27.7170   47.3150 C   0  0  0  0  0  0  0  0  0  0  0  0
   60.3780   28.5930   46.4500 C   0  0  0  0  0  0  0  0  0  0  0  0
   59.6980   29.1890   45.3840 C   0  0  0  0  0  0  0  0  0  0  0  0
   58.3320   28.9370   45.1830 C   0  0  0  0  0  0  0  0  0  0  0  0
   57.6280   29.5630   44.0440 C   0  0  0  0  0  0  0  0  0  0  0  0
   57.0190   28.8710   43.0640 N   0  0  0  0  0  0  0  0  0  0  0  0
   56.4070   29.7610   42.2990 N   0  0  0  0  0  0  0  0  0  0  0  0
   56.6330   30.9760   42.7790 N   0  0  0  0  0  0  0  0  0  0  0  0
   57.3900   30.8810   43.8610 N   0  0  0  0  0  0  0  0  0  0  0  0
   57.8980   32.0160   44.5820 C   0  0  0  0  0  0  0  0  0  0  0  0
   58.4630   33.1110   43.9040 C   0  0  0  0  0  0  0  0  0  0  0  0
   58.9380   34.2140   44.6180 C   0  0  0  0  0  0  0  0  0  0  0  0
   58.8410   34.2420   46.0120 C   0  0  0  0  0  0  0  0  0  0  0  0
   59.3020   35.3140   46.7030 F   0  0  0  0  0  0  0  0  0  0  0  0
   58.2610   33.1670   46.6930 C   0  0  0  0  0  0  0  0  0  0  0  0
   57.7850   32.0610   45.9810 C   0  0  0  0  0  0  0  0  0  0  0  0
   57.6630   28.0560   46.0480 C   0  0  0  0  0  0  0  0  0  0  0  0
   58.3420   27.4610   47.1150 C   0  0  0  0  0  0  0  0  0  0  0  0
   59.9849   27.4820   49.4201 H   0  0  0  0  0  0  0  0  0  0  0  0
   60.3301   26.0139   48.4443 H   0  0  0  0  0  0  0  0  0  0  0  0
   61.4899   27.3855   48.4443 H   0  0  0  0  0  0  0  0  0  0  0  0
   61.4439   28.8121   46.6109 H   0  0  0  0  0  0  0  0  0  0  0  0
   60.2368   29.8596   44.6985 H   0  0  0  0  0  0  0  0  0  0  0  0
   56.9830   27.8360   42.9320 H   0  0  0  0  0  0  0  0  0  0  0  0
   58.5313   33.0990   42.8062 H   0  0  0  0  0  0  0  0  0  0  0  0
   59.3892   35.0620   44.0820 H   0  0  0  0  0  0  0  0  0  0  0  0
   58.1790   33.1912   47.7897 H   0  0  0  0  0  0  0  0  0  0  0  0
   57.3198   31.2223   46.5197 H   0  0  0  0  0  0  0  0  0  0  0  0
   56.5983   27.8328   45.8849 H   0  0  0  0  0  0  0  0  0  0  0  0
   57.8042   26.7895   47.8005 H   0  0  0  0  0  0  0  0  0  0  0  0
  1  2  1  0
  2  3  2  0
  3  4  1  0
  4  5  2  0
  5  6  1  0
  6  7  2  0
  7  8  1  0
  8  9  2  0
  9 10  1  0
 10 11  1  0
 11 12  2  0
 12 13  1  0
 13 14  2  0
 14 15  1  0
 14 16  1  0
 16 17  2  0
  5 18  1  0
 18 19  2  0
 19  2  1  0
 10  6  1  0
 17 11  1  0
  1 20  1  0
  1 21  1  0
  1 22  1  0
  3 23  1  0
  4 24  1  0
  7 25  1  0
 12 26  1  0
 13 27  1  0
 16 28  1  0
 17 29  1  0
 18 30  1  0
 19 31  1  0
M  CHG  1   7   1
M  END
>  <UniqueID>  (22) 
21

>  <SMILES>  (22) 
Cc1ccc(-c2[nH+]nnn2-c2ccc(F)cc2)cc1

>  <Energy>  (22) 
82.53146205579041

>  <Genealogy>  (22) 
Cc1ccc(-c2[nH+]nnn2-c2ccc(F)cc2)cc1 (protonated)
Cc1ccc(-c2[nH+]nnn2-c2ccc(F)cc2)cc1 (3D coordinates assigned)
Cc1ccc(-c2[nH+]nnn2-c2ccc(F)cc2)cc1 (optimized conformer: 82.53146205579041 kcal/mol)

>  <smiles>  (22) 
Cc1ccc(-c2nnnn2-c2ccc(F)cc2)cc1

>  <score_type>  (22) 
oracle

>  <origin>  (22) 
adg

>  <m_score__min__energy>  (22) 
-6.0700000000000003

>  <m_primary>  (22) 
energy

$$$$
22:0
     RDKit          3D

 34 36  0  0  0  0  0  0  0  0999 V2000
   60.3611   35.2968   47.5125 H   0  0  0  0  0  0  0  0  0  0  0  0
   59.8090   34.5680   46.9010 C   0  0  0  0  0  0  0  0  0  0  0  0
   59.2590   34.9570   45.6780 C   0  0  0  0  0  0  0  0  0  0  0  0
   59.3825   35.9912   45.3242 H   0  0  0  0  0  0  0  0  0  0  0  0
   58.5510   34.0330   44.9020 C   0  0  0  0  0  0  0  0  0  0  0  0
   58.1274   34.3428   43.9353 H   0  0  0  0  0  0  0  0  0  0  0  0
   58.3770   32.7110   45.3490 C   0  0  0  0  0  0  0  0  0  0  0  0
   57.6400   31.7410   44.5050 C   0  0  0  0  0  0  0  0  0  0  0  0
   56.9770   30.7150   45.1080 N   0  0  0  0  0  0  0  0  0  0  0  0
   56.2760   29.7790   44.4080 C   0  0  0  0  0  0  0  0  0  0  0  0
   55.6500   28.8090   45.0110 N   0  0  0  0  0  0  0  0  0  0  0  0
   56.2370   27.6460   45.6230 C   0  0  0  0  0  0  0  0  0  0  0  0
   55.5330   26.6310   45.8710 O   0  0  0  0  0  0  0  0  0  0  0  0
   57.6900   27.6380   45.9230 C   0  0  0  0  0  0  0  0  0  0  0  0
   58.1070   27.8200   47.2570 C   0  0  0  0  0  0  0  0  0  0  0  0
   57.3542   27.9487   48.0486 H   0  0  0  0  0  0  0  0  0  0  0  0
   59.4630   27.8390   47.5860 C   0  0  0  0  0  0  0  0  0  0  0  0
   59.7725   27.9860   48.6313 H   0  0  0  0  0  0  0  0  0  0  0  0
   60.4260   27.6720   46.5920 C   0  0  0  0  0  0  0  0  0  0  0  0
   61.4946   27.6924   46.8522 H   0  0  0  0  0  0  0  0  0  0  0  0
   60.0340   27.4790   45.2670 C   0  0  0  0  0  0  0  0  0  0  0  0
   60.7976   27.3421   44.4871 H   0  0  0  0  0  0  0  0  0  0  0  0
   58.6770   27.4580   44.9210 C   0  0  0  0  0  0  0  0  0  0  0  0
   58.2560   27.1030   43.0800 Br  0  0  0  0  0  0  0  0  0  0  0  0
   56.2310   29.8580   43.0130 C   0  0  0  0  0  0  0  0  0  0  0  0
   55.6633   29.1149   42.4338 H   0  0  0  0  0  0  0  0  0  0  0  0
   56.9120   30.8870   42.3610 C   0  0  0  0  0  0  0  0  0  0  0  0
   56.8870   30.9528   41.2633 H   0  0  0  0  0  0  0  0  0  0  0  0
   57.6250   31.8330   43.1000 C   0  0  0  0  0  0  0  0  0  0  0  0
   58.3280   32.7910   42.4450 F   0  0  0  0  0  0  0  0  0  0  0  0
   58.9510   32.3260   46.5760 C   0  0  0  0  0  0  0  0  0  0  0  0
   58.8425   31.2899   46.9292 H   0  0  0  0  0  0  0  0  0  0  0  0
   59.6580   33.2530   47.3480 C   0  0  0  0  0  0  0  0  0  0  0  0
   60.0962   32.9463   48.3092 H   0  0  0  0  0  0  0  0  0  0  0  0
  1  2  1  0
  2  3  2  0
  3  4  1  0
  3  5  1  0
  5  6  1  0
  5  7  2  0
  7  8  1  0
  8  9  1  0
  9 10  1  0
 10 11  2  0
 11 12  1  0
 12 13  2  0
 12 14  1  0
 14 15  2  0
 15 16  1  0
 15 17  1  0
 17 18  1  0
 17 19  2  0
 19 20  1  0
 19 21  1  0
 21 22  1  0
 21 23  2  0
 23 24  1  0
 10 25  1  0
 25 26  1  0
 25 27  2  0
 27 28  1  0
 27 29  1  0
 29 30  1  0
  7 31  1  0
 31 32  1  0
 31 33  2  0
 33 34  1  0
 33  2  1  0
 29  8  2  0
 23 14  1  0
M  CHG  1   9  -1
M  END
>  <UniqueID>  (23) 
22

>  <SMILES>  (23) 
O=C(/N=c1/ccc(F)c(-c2ccccc2)[n-]1)c1ccccc1Br

>  <Energy>  (23) 
50.24940347956417

>  <Genealogy>  (23) 
O=C(N=c1ccc(F)c(-c2ccccc2)[n-]1)c1ccccc1Br (protonated)
O=C(/N=c1/ccc(F)c(-c2ccccc2)[n-]1)c1ccccc1Br (cis-trans isomerization)
O=C(/N=c1/ccc(F)c(-c2ccccc2)[n-]1)c1ccccc1Br (3D coordinates assigned)
O=C(/N=c1/ccc(F)c(-c2ccccc2)[n-]1)c1ccccc1Br (optimized conformer: 50.24940347956417 kcal/mol)

>  <smiles>  (23) 
O=C(N=c1ccc(F)c(-c2ccccc2)[nH]1)c1ccccc1Br

>  <score_type>  (23) 
oracle

>  <origin>  (23) 
adg

>  <m_score__min__energy>  (23) 
-10.84

>  <m_primary>  (23) 
energy

$$$$
23:0
     RDKit          3D

 52 54  0  0  0  0  0  0  0  0999 V2000
   57.8280   32.0640   42.6710 C   0  0  0  0  0  0  0  0  0  0  0  0
   57.6340   30.8740   43.5620 C   0  0  0  0  0  0  0  0  0  0  0  0
   56.3490   30.4290   43.8910 C   0  0  0  0  0  0  0  0  0  0  0  0
   56.1890   29.3270   44.7270 C   0  0  0  0  0  0  0  0  0  0  0  0
   57.3160   28.6840   45.2400 C   0  0  0  0  0  0  0  0  0  0  0  0
   58.5710   29.1420   44.9470 N   0  0  0  0  0  0  0  0  0  0  0  0
   59.7440   28.4590   45.5110 C   0  0  0  0  0  0  0  0  0  0  0  0
   60.5480   29.3900   46.4290 C   0  0  0  0  0  0  0  0  0  0  0  0
   60.0480   29.3430   47.8790 C   0  0  0  0  0  0  0  0  0  0  0  0
   58.9080   30.3460   48.1050 C   0  0  0  0  0  0  0  0  0  0  0  0
   58.9230   30.9360   49.5260 C   0  0  0  0  0  0  0  0  0  0  0  0
   59.0640   32.4740   49.5950 C   0  0  0  0  0  0  0  0  0  0  0  0
   59.8090   33.0450   48.4390 N   0  0  0  0  0  0  0  0  0  0  0  0
   61.1850   33.1950   48.5400 C   0  0  0  0  0  0  0  0  0  0  0  0
   61.9830   32.6560   49.7110 C   0  0  0  0  0  0  0  0  0  0  0  0
   61.9140   33.7860   47.5020 C   0  0  0  0  0  0  0  0  0  0  0  0
   61.2770   34.2120   46.3530 C   0  0  0  0  0  0  0  0  0  0  0  0
   59.9050   34.0400   46.2170 C   0  0  0  0  0  0  0  0  0  0  0  0
   59.2760   34.4590   45.0340 C   0  0  0  0  0  0  0  0  0  0  0  0
   57.9020   34.3090   44.8780 C   0  0  0  0  0  0  0  0  0  0  0  0
   57.1500   33.7220   45.8880 C   0  0  0  0  0  0  0  0  0  0  0  0
   57.7620   33.2830   47.0650 C   0  0  0  0  0  0  0  0  0  0  0  0
   59.1600   33.4410   47.2710 C   0  0  0  0  0  0  0  0  0  0  0  0
   58.7400   30.2220   44.1230 C   0  0  0  0  0  0  0  0  0  0  0  0
   57.9746   32.9634   43.2872 H   0  0  0  0  0  0  0  0  0  0  0  0
   58.7123   31.9064   42.0361 H   0  0  0  0  0  0  0  0  0  0  0  0
   56.9394   32.1954   42.0361 H   0  0  0  0  0  0  0  0  0  0  0  0
   55.4665   30.9489   43.4899 H   0  0  0  0  0  0  0  0  0  0  0  0
   55.1815   28.9660   44.9811 H   0  0  0  0  0  0  0  0  0  0  0  0
   57.1942   27.8016   45.8853 H   0  0  0  0  0  0  0  0  0  0  0  0
   59.4058   27.5884   46.0921 H   0  0  0  0  0  0  0  0  0  0  0  0
   60.3943   28.1462   44.6807 H   0  0  0  0  0  0  0  0  0  0  0  0
   61.6043   29.0836   46.4078 H   0  0  0  0  0  0  0  0  0  0  0  0
   60.4237   30.4191   46.0608 H   0  0  0  0  0  0  0  0  0  0  0  0
   59.6832   28.3291   48.1002 H   0  0  0  0  0  0  0  0  0  0  0  0
   60.8828   29.6082   48.5445 H   0  0  0  0  0  0  0  0  0  0  0  0
   59.0101   31.1669   47.3800 H   0  0  0  0  0  0  0  0  0  0  0  0
   57.9567   29.8098   47.9731 H   0  0  0  0  0  0  0  0  0  0  0  0
   57.9809   30.6575   50.0208 H   0  0  0  0  0  0  0  0  0  0  0  0
   59.8152   30.5237   50.0199 H   0  0  0  0  0  0  0  0  0  0  0  0
   58.0574   32.9172   49.6161 H   0  0  0  0  0  0  0  0  0  0  0  0
   59.6373   32.7103   50.5035 H   0  0  0  0  0  0  0  0  0  0  0  0
   61.5122   32.9740   50.6529 H   0  0  0  0  0  0  0  0  0  0  0  0
   62.0052   31.5572   49.6648 H   0  0  0  0  0  0  0  0  0  0  0  0
   63.0106   33.0457   49.6648 H   0  0  0  0  0  0  0  0  0  0  0  0
   63.0022   33.9122   47.6019 H   0  0  0  0  0  0  0  0  0  0  0  0
   61.8551   34.6869   45.5466 H   0  0  0  0  0  0  0  0  0  0  0  0
   59.8727   34.9082   44.2264 H   0  0  0  0  0  0  0  0  0  0  0  0
   57.4114   34.6547   43.9561 H   0  0  0  0  0  0  0  0  0  0  0  0
   56.0641   33.6019   45.7601 H   0  0  0  0  0  0  0  0  0  0  0  0
   57.1513   32.8067   47.8461 H   0  0  0  0  0  0  0  0  0  0  0  0
   59.7550   30.5818   43.8989 H   0  0  0  0  0  0  0  0  0  0  0  0
  1  2  1  0
  2  3  2  0
  3  4  1  0
  4  5  2  0
  5  6  1  0
  6  7  1  0
  7  8  1  0
  8  9  1  0
  9 10  1  0
 10 11  1  0
 11 12  1  0
 12 13  1  0
 13 14  2  0
 14 15  1  0
 14 16  1  0
 16 17  2  0
 17 18  1  0
 18 19  2  0
 19 20  1  0
 20 21  2  0
 21 22  1  0
 22 23  2  0
  6 24  2  0
 24  2  1  0
 23 13  1  0
 23 18  1  0
  1 25  1  0
  1 26  1  0
  1 27  1  0
  3 28  1  0
  4 29  1  0
  5 30  1  0
  7 31  1  0
  7 32  1  0
  8 33  1  0
  8 34  1  0
  9 35  1  0
  9 36  1  0
 10 37  1  0
 10 38  1  0
 11 39  1  0
 11 40  1  0
 12 41  1  0
 12 42  1  0
 15 43  1  0
 15 44  1  0
 15 45  1  0
 16 46  1  0
 17 47  1  0
 19 48  1  0
 20 49  1  0
 21 50  1  0
 22 51  1  0
 24 52  1  0
M  CHG  2   6   1  13   1
M  END
>  <UniqueID>  (24) 
23

>  <SMILES>  (24) 
Cc1ccc[n+](CCCCCC[n+]2c(C)ccc3ccccc32)c1

>  <Energy>  (24) 
54.03204751310384

>  <Genealogy>  (24) 
Cc1ccc[n+](CCCCCC[n+]2c(C)ccc3ccccc32)c1 (3D coordinates assigned)
Cc1ccc[n+](CCCCCC[n+]2c(C)ccc3ccccc32)c1 (optimized conformer: 54.03204751310384 kcal/mol)

>  <smiles>  (24) 
Cc1ccc[n+](CCCCCC[n+]2c(C)ccc3ccccc32)c1

>  <score_type>  (24) 
oracle

>  <origin>  (24) 
adg

>  <m_score__min__energy>  (24) 
-5.2199999999999998

>  <m_primary>  (24) 
energy

$$$$
24:0
     RDKit          3D

 33 34  0  0  0  0  0  0  0  0999 V2000
   57.6561   31.7041   42.5047 H   0  0  0  0  0  0  0  0  0  0  0  0
   57.4980   31.8210   43.5870 C   0  0  0  0  0  0  0  0  0  0  0  0
   57.0120   30.6420   44.3340 C   0  0  0  0  0  0  0  0  0  0  0  0
   55.7700   30.5070   44.4960 O   0  0  0  0  0  0  0  0  0  0  0  0
   57.9180   29.5990   44.8490 C   0  0  0  0  0  0  0  0  0  0  0  0
   57.4210   28.1420   45.5310 S   0  0  0  0  0  0  0  0  0  0  0  0
   58.9620   27.5450   45.8450 C   0  0  0  0  0  0  0  0  0  0  0  0
   59.1957   26.5782   46.3148 H   0  0  0  0  0  0  0  0  0  0  0  0
   59.8880   28.4830   45.4090 C   0  0  0  0  0  0  0  0  0  0  0  0
   60.9752   28.3411   45.4978 H   0  0  0  0  0  0  0  0  0  0  0  0
   59.3090   29.6260   44.8460 C   0  0  0  0  0  0  0  0  0  0  0  0
   59.8960   30.4634   44.4409 H   0  0  0  0  0  0  0  0  0  0  0  0
   57.7620   33.0230   44.1230 C   0  0  0  0  0  0  0  0  0  0  0  0
   57.4692   33.9112   43.5438 H   0  0  0  0  0  0  0  0  0  0  0  0
   58.4160   33.2480   45.4320 C   0  0  0  0  0  0  0  0  0  0  0  0
   57.8610   32.7620   46.6260 C   0  0  0  0  0  0  0  0  0  0  0  0
   56.9101   32.2096   46.6012 H   0  0  0  0  0  0  0  0  0  0  0  0
   58.5080   32.9750   47.8460 C   0  0  0  0  0  0  0  0  0  0  0  0
   58.0703   32.5719   48.7711 H   0  0  0  0  0  0  0  0  0  0  0  0
   59.7160   33.7010   47.9050 C   0  0  0  0  0  0  0  0  0  0  0  0
   60.3950   33.9120   49.1690 N   0  0  0  0  0  0  0  0  0  0  0  0
   61.8290   34.2240   49.2010 C   0  0  0  0  0  0  0  0  0  0  0  0
   62.1651   34.2971   50.2458 H   0  0  0  0  0  0  0  0  0  0  0  0
   62.3892   33.4267   48.6906 H   0  0  0  0  0  0  0  0  0  0  0  0
   62.0073   35.1820   48.6906 H   0  0  0  0  0  0  0  0  0  0  0  0
   59.6600   33.8260   50.4370 C   0  0  0  0  0  0  0  0  0  0  0  0
   60.3661   33.9086   51.2764 H   0  0  0  0  0  0  0  0  0  0  0  0
   58.9272   34.6445   50.4923 H   0  0  0  0  0  0  0  0  0  0  0  0
   59.1360   32.8604   50.4923 H   0  0  0  0  0  0  0  0  0  0  0  0
   60.2420   34.2200   46.7040 C   0  0  0  0  0  0  0  0  0  0  0  0
   61.1747   34.8028   46.7264 H   0  0  0  0  0  0  0  0  0  0  0  0
   59.5930   34.0030   45.4860 C   0  0  0  0  0  0  0  0  0  0  0  0
   60.0106   34.4291   44.5619 H   0  0  0  0  0  0  0  0  0  0  0  0
  1  2  1  0
  2  3  1  0
  3  4  2  0
  3  5  1  0
  5  6  1  0
  6  7  1  0
  7  8  1  0
  7  9  2  0
  9 10  1  0
  9 11  1  0
 11 12  1  0
  2 13  2  0
 13 14  1  0
 13 15  1  0
 15 16  2  0
 16 17  1  0
 16 18  1  0
 18 19  1  0
 18 20  2  0
 20 21  1  0
 21 22  1  0
 22 23  1  0
 22 24  1  0
 22 25  1  0
 21 26  1  0
 26 27  1  0
 26 28  1  0
 26 29  1  0
 20 30  1  0
 30 31  1  0
 30 32  2  0
 32 33  1  0
 11  5  2  0
 32 15  1  0
M  END
>  <UniqueID>  (25) 
24

>  <SMILES>  (25) 
CN(C)c1ccc(/C=C\C(=O)c2cccs2)cc1

>  <Energy>  (25) 
68.72861175725096

>  <Genealogy>  (25) 
CN(C)c1ccc(/C=C\C(=O)c2cccs2)cc1 (cis-trans isomerization)
CN(C)c1ccc(/C=C\C(=O)c2cccs2)cc1 (3D coordinates assigned)
CN(C)c1ccc(/C=C\C(=O)c2cccs2)cc1 (optimized conformer: 68.72861175725096 kcal/mol)

>  <smiles>  (25) 
CN(C)c1ccc(C=CC(=O)c2cccs2)cc1

>  <score_type>  (25) 
oracle

>  <origin>  (25) 
adg

>  <m_score__min__energy>  (25) 
-6.7599999999999998

>  <m_primary>  (25) 
energy

$$$$
25:0
     RDKit          3D

 45 48  0  0  0  0  0  0  0  0999 V2000
   59.8120   28.4310   47.4720 C   0  0  0  0  0  0  0  0  0  0  0  0
   59.1440   29.5130   46.7400 N   0  0  0  0  0  0  0  0  0  0  0  0
   57.9170   29.5410   46.1290 C   0  0  0  0  0  0  0  0  0  0  0  0
   57.1080   28.5280   45.9860 N   0  0  0  0  0  0  0  0  0  0  0  0
   57.4430   27.1520   45.7860 C   0  0  0  0  0  0  0  0  0  0  0  0
   57.6680   26.6750   44.4890 C   0  0  0  0  0  0  0  0  0  0  0  0
   58.0480   25.3450   44.2850 C   0  0  0  0  0  0  0  0  0  0  0  0
   58.2320   24.4890   45.3800 C   0  0  0  0  0  0  0  0  0  0  0  0
   58.7300   22.8160   45.1430 S   0  0  0  0  0  0  0  0  0  0  0  0
   60.2240   22.6840   45.2490 O   0  0  0  0  0  0  0  0  0  0  0  0
   58.2980   22.3670   43.7770 O   0  0  0  0  0  0  0  0  0  0  0  0
   57.9820   21.8090   46.3410 N   0  0  0  0  0  0  0  0  0  0  0  0
   56.9010   22.1330   46.9840 C   0  0  0  0  0  0  0  0  0  0  0  0
   55.7320   22.4200   46.2680 C   0  0  0  0  0  0  0  0  0  0  0  0
   54.5720   22.7720   46.9620 C   0  0  0  0  0  0  0  0  0  0  0  0
   54.5870   22.8350   48.3560 C   0  0  0  0  0  0  0  0  0  0  0  0
   55.7700   22.5430   49.0390 C   0  0  0  0  0  0  0  0  0  0  0  0
   56.8890   22.2020   48.3460 N   0  0  0  0  0  0  0  0  0  0  0  0
   58.0420   24.9770   46.6800 C   0  0  0  0  0  0  0  0  0  0  0  0
   57.6620   26.3060   46.8830 C   0  0  0  0  0  0  0  0  0  0  0  0
   57.5760   30.7660   45.6610 N   0  0  0  0  0  0  0  0  0  0  0  0
   58.6450   31.5250   45.9610 C   0  0  0  0  0  0  0  0  0  0  0  0
   58.8260   32.8870   45.6890 C   0  0  0  0  0  0  0  0  0  0  0  0
   57.7600   33.6790   44.9750 C   0  0  0  0  0  0  0  0  0  0  0  0
   56.6280   33.7460   45.7670 F   0  0  0  0  0  0  0  0  0  0  0  0
   58.2200   34.9620   44.7340 F   0  0  0  0  0  0  0  0  0  0  0  0
   57.4200   33.0990   43.7650 F   0  0  0  0  0  0  0  0  0  0  0  0
   60.0490   33.4680   46.0980 C   0  0  0  0  0  0  0  0  0  0  0  0
   61.0310   32.6940   46.7560 C   0  0  0  0  0  0  0  0  0  0  0  0
   62.5410   33.4390   47.2500 Cl  0  0  0  0  0  0  0  0  0  0  0  0
   60.8080   31.3310   47.0160 C   0  0  0  0  0  0  0  0  0  0  0  0
   59.5940   30.7770   46.6020 C   0  0  0  0  0  0  0  0  0  0  0  0
   59.7071   28.6009   48.5537 H   0  0  0  0  0  0  0  0  0  0  0  0
   59.3506   27.4687   47.2055 H   0  0  0  0  0  0  0  0  0  0  0  0
   60.8791   28.4123   47.2055 H   0  0  0  0  0  0  0  0  0  0  0  0
   57.5455   27.3486   43.6280 H   0  0  0  0  0  0  0  0  0  0  0  0
   58.2030   24.9693   43.2628 H   0  0  0  0  0  0  0  0  0  0  0  0
   55.7274   22.3687   45.1692 H   0  0  0  0  0  0  0  0  0  0  0  0
   53.6478   22.9993   46.4104 H   0  0  0  0  0  0  0  0  0  0  0  0
   53.6780   23.1113   48.9104 H   0  0  0  0  0  0  0  0  0  0  0  0
   55.7963   22.5889   50.1377 H   0  0  0  0  0  0  0  0  0  0  0  0
   58.1925   24.3117   47.5430 H   0  0  0  0  0  0  0  0  0  0  0  0
   57.5342   26.6899   47.9059 H   0  0  0  0  0  0  0  0  0  0  0  0
   60.2376   34.5338   45.9017 H   0  0  0  0  0  0  0  0  0  0  0  0
   61.5651   30.7198   47.5291 H   0  0  0  0  0  0  0  0  0  0  0  0
  1  2  1  0
  2  3  1  0
  3  4  2  3
  4  5  1  0
  5  6  2  0
  6  7  1  0
  7  8  2  0
  8  9  1  0
  9 10  2  0
  9 11  2  0
  9 12  1  0
 12 13  2  3
 13 14  1  0
 14 15  2  0
 15 16  1  0
 16 17  2  0
 17 18  1  0
  8 19  1  0
 19 20  2  0
  3 21  1  0
 21 22  1  0
 22 23  2  0
 23 24  1  0
 24 25  1  0
 24 26  1  0
 24 27  1  0
 23 28  1  0
 28 29  2  0
 29 30  1  0
 29 31  1  0
 31 32  2  0
 32  2  1  0
 20  5  1  0
 32 22  1  0
 18 13  1  0
  1 33  1  0
  1 34  1  0
  1 35  1  0
  6 36  1  0
  7 37  1  0
 14 38  1  0
 15 39  1  0
 16 40  1  0
 17 41  1  0
 19 42  1  0
 20 43  1  0
 28 44  1  0
 31 45  1  0
M  CHG  2  18  -1  21  -1
M  END
>  <UniqueID>  (26) 
25

>  <SMILES>  (26) 
Cn1c(=Nc2ccc(S(=O)(=O)N=c3cccc[n-]3)cc2)[n-]c2c(C(F)(F)F)cc(Cl)cc21

>  <Energy>  (26) 
104.78120221400381

>  <Genealogy>  (26) 
Cn1c(=Nc2ccc(S(=O)(=O)N=c3cccc[n-]3)cc2)[n-]c2c(C(F)(F)F)cc(Cl)cc21 (protonated)
Cn1c(=Nc2ccc(S(=O)(=O)N=c3cccc[n-]3)cc2)[n-]c2c(C(F)(F)F)cc(Cl)cc21 (3D coordinates assigned)
Cn1c(=Nc2ccc(S(=O)(=O)N=c3cccc[n-]3)cc2)[n-]c2c(C(F)(F)F)cc(Cl)cc21 (optimized conformer: 104.78120221400381 kcal/mol)

>  <smiles>  (26) 
Cn1c(=Nc2ccc(S(=O)(=O)N=c3cccc[nH]3)cc2)[nH]c2c(C(F)(F)F)cc(Cl)cc21

>  <score_type>  (26) 
oracle

>  <origin>  (26) 
adg

>  <m_score__min__energy>  (26) 
-11.58

>  <m_primary>  (26) 
energy

$$$$
26:0
     RDKit          3D

 27 28  0  0  0  0  0  0  0  0999 V2000
   57.7880   25.8880   44.5120 C   0  0  0  0  0  0  0  0  0  0  0  0
   58.1440   26.7740   42.9620 S   0  0  0  0  0  0  0  0  0  0  0  0
   57.7680   28.3840   43.6550 C   0  0  0  0  0  0  0  0  0  0  0  0
   58.3790   28.7980   44.8450 C   0  0  0  0  0  0  0  0  0  0  0  0
   58.0830   30.0510   45.3860 C   0  0  0  0  0  0  0  0  0  0  0  0
   57.1590   30.9000   44.7470 C   0  0  0  0  0  0  0  0  0  0  0  0
   56.8490   32.1720   45.2500 O   0  0  0  0  0  0  0  0  0  0  0  0
   57.7780   33.1050   45.7330 C   0  0  0  0  0  0  0  0  0  0  0  0
   58.3500   34.0130   44.8310 C   0  0  0  0  0  0  0  0  0  0  0  0
   59.2680   34.9690   45.2780 C   0  0  0  0  0  0  0  0  0  0  0  0
   59.6120   35.0310   46.6310 C   0  0  0  0  0  0  0  0  0  0  0  0
   59.0320   34.1420   47.5400 C   0  0  0  0  0  0  0  0  0  0  0  0
   58.1140   33.1860   47.0970 C   0  0  0  0  0  0  0  0  0  0  0  0
   56.5660   30.4870   43.5490 C   0  0  0  0  0  0  0  0  0  0  0  0
   56.8610   29.2320   43.0080 C   0  0  0  0  0  0  0  0  0  0  0  0
   58.0455   26.5289   45.3681 H   0  0  0  0  0  0  0  0  0  0  0  0
   56.7183   25.6347   44.5522 H   0  0  0  0  0  0  0  0  0  0  0  0
   58.3851   24.9650   44.5522 H   0  0  0  0  0  0  0  0  0  0  0  0
   59.0935   28.1350   45.3547 H   0  0  0  0  0  0  0  0  0  0  0  0
   58.5737   30.3761   46.3152 H   0  0  0  0  0  0  0  0  0  0  0  0
   58.0756   33.9735   43.7665 H   0  0  0  0  0  0  0  0  0  0  0  0
   59.7197   35.6729   44.5636 H   0  0  0  0  0  0  0  0  0  0  0  0
   60.3389   35.7791   46.9803 H   0  0  0  0  0  0  0  0  0  0  0  0
   59.2985   34.1948   48.6059 H   0  0  0  0  0  0  0  0  0  0  0  0
   57.6524   32.4944   47.8171 H   0  0  0  0  0  0  0  0  0  0  0  0
   55.8628   31.1543   43.0291 H   0  0  0  0  0  0  0  0  0  0  0  0
   56.3798   28.9103   42.0726 H   0  0  0  0  0  0  0  0  0  0  0  0
  1  2  1  0
  2  3  1  0
  3  4  2  0
  4  5  1  0
  5  6  2  0
  6  7  1  0
  7  8  1  0
  8  9  2  0
  9 10  1  0
 10 11  2  0
 11 12  1  0
 12 13  2  0
  6 14  1  0
 14 15  2  0
 15  3  1  0
 13  8  1  0
  1 16  1  0
  1 17  1  0
  1 18  1  0
  4 19  1  0
  5 20  1  0
  9 21  1  0
 10 22  1  0
 11 23  1  0
 12 24  1  0
 13 25  1  0
 14 26  1  0
 15 27  1  0
M  END
>  <UniqueID>  (27) 
26

>  <SMILES>  (27) 
CSc1ccc(Oc2ccccc2)cc1

>  <Energy>  (27) 
29.79396731667227

>  <Genealogy>  (27) 
CSc1ccc(Oc2ccccc2)cc1 (3D coordinates assigned)
CSc1ccc(Oc2ccccc2)cc1 (optimized conformer: 29.79396731667227 kcal/mol)

>  <smiles>  (27) 
CSc1ccc(Oc2ccccc2)cc1

>  <score_type>  (27) 
oracle

>  <origin>  (27) 
adg

>  <m_score__min__energy>  (27) 
-6.0999999999999996

>  <m_primary>  (27) 
energy

$$$$
27:0
     RDKit          3D

 35 37  0  0  1  0  0  0  0  0999 V2000
   59.3670   30.9200   48.2780 C   0  0  0  0  0  0  0  0  0  0  0  0
   58.9100   32.0460   48.8060 C   0  0  0  0  0  0  0  0  0  0  0  0
   59.3930   33.3690   48.3390 C   0  0  0  0  0  0  0  0  0  0  0  0
   56.3260   30.8420   44.5400 N   0  0  0  0  0  0  0  0  0  0  0  0
   56.6170   29.6330   44.9550 C   0  0  0  0  0  0  0  0  0  0  0  0
   57.3190   32.3960   46.1310 N   0  0  0  0  0  0  0  0  0  0  0  0
   57.1520   31.9550   44.8880 C   0  0  0  0  0  0  0  0  0  0  0  0
   58.3450   33.9530   47.5130 N   0  0  0  0  0  0  0  0  0  0  0  0
   58.1260   33.4590   46.3410 C   0  0  0  0  0  0  0  0  0  0  0  0
   57.7960   29.1890   45.5180 C   0  0  0  0  0  0  0  0  0  0  0  0
   57.6080   27.8300   45.7870 C   0  0  0  0  0  0  0  0  0  0  0  0
   58.6160   26.9310   46.3980 C   0  0  0  0  0  0  0  0  0  0  0  0
   59.7180   27.6030   47.2440 C   0  0  0  0  0  0  0  0  0  0  0  0
   60.0140   26.9150   45.9470 C   0  0  0  0  0  0  0  0  0  0  0  0
   56.3630   27.4990   45.3940 N   0  0  0  0  0  0  0  0  0  0  0  0
   55.7620   28.5790   44.8940 N   0  0  0  0  0  0  0  0  0  0  0  0
   57.8000   32.5840   43.8290 C   0  0  0  0  0  0  0  0  0  0  0  0
   57.5720   31.9620   42.0310 Br  0  0  0  0  0  0  0  0  0  0  0  0
   58.6210   33.6640   44.0340 C   0  0  0  0  0  0  0  0  0  0  0  0
   58.7650   34.0820   45.3130 N   0  0  0  0  0  0  0  0  0  0  0  0
   58.9936   29.9511   48.6410 H   0  0  0  0  0  0  0  0  0  0  0  0
   60.1198   30.9541   47.4767 H   0  0  0  0  0  0  0  0  0  0  0  0
   58.1573   31.9991   49.6068 H   0  0  0  0  0  0  0  0  0  0  0  0
   59.5972   34.0199   49.2019 H   0  0  0  0  0  0  0  0  0  0  0  0
   60.3236   33.2596   47.7628 H   0  0  0  0  0  0  0  0  0  0  0  0
   58.7002   29.7836   45.7151 H   0  0  0  0  0  0  0  0  0  0  0  0
   57.8612   26.1416   46.5289 H   0  0  0  0  0  0  0  0  0  0  0  0
   59.7722   28.6992   47.3171 H   0  0  0  0  0  0  0  0  0  0  0  0
   60.0773   27.5247   48.2807 H   0  0  0  0  0  0  0  0  0  0  0  0
   60.3083   27.5119   45.0712 H   0  0  0  0  0  0  0  0  0  0  0  0
   60.7094   26.1162   45.6499 H   0  0  0  0  0  0  0  0  0  0  0  0
   55.9290   26.5300   45.4720 H   0  0  0  0  0  0  0  0  0  0  0  0
   54.7770   28.6000   44.5120 H   0  0  0  0  0  0  0  0  0  0  0  0
   59.1361   34.1647   43.2009 H   0  0  0  0  0  0  0  0  0  0  0  0
   59.3900   34.9050   45.4680 H   0  0  0  0  0  0  0  0  0  0  0  0
  1  2  2  0
  2  3  1  0
  3  4  1  0
  4  5  2  0
  5  6  1  0
  6  7  2  0
  7  8  1  0
  8  9  2  0
  9 10  1  0
 10 11  2  0
 11 12  1  0
 12 13  1  0
 13 14  1  0
 11 15  1  0
 15 16  1  0
  7 17  1  0
 17 18  1  0
 17 19  2  0
 19 20  1  0
 20  5  1  0
 16  9  1  0
 14 12  1  0
  1 21  1  0
  1 22  1  0
  2 23  1  0
  3 24  1  0
  3 25  1  0
 10 26  1  0
 12 27  1  0
 13 28  1  0
 13 29  1  0
 14 30  1  0
 14 31  1  0
 15 32  1  0
 16 33  1  0
 19 34  1  0
 20 35  1  0
M  END
>  <smiles>  (28) 
C=CCN=c1nc(N=c2cc(C3CC3)[nH][nH]2)c(Br)c[nH]1

>  <score_type>  (28) 
oracle

>  <origin>  (28) 
adg

>  <m_score__min__energy>  (28) 
-7.5099999999999998

>  <m_primary>  (28) 
energy

$$$$
28:0
     RDKit          3D

 52 55  0  0  0  0  0  0  0  0999 V2000
   60.0300   27.1460   48.3260 O   0  0  0  0  0  0  0  0  0  0  0  0
   59.9870   27.9930   47.3920 C   0  0  0  0  0  0  0  0  0  0  0  0
   59.7750   27.5080   45.9860 C   0  0  0  0  0  0  0  0  0  0  0  0
   58.3950   27.8740   45.5290 C   0  0  0  0  0  0  0  0  0  0  0  0
   57.2150   27.2000   45.8340 C   0  0  0  0  0  0  0  0  0  0  0  0
   56.1480   27.8680   45.3390 N   0  0  0  0  0  0  0  0  0  0  0  0
   56.6410   28.9650   44.7390 C   0  0  0  0  0  0  0  0  0  0  0  0
   55.9220   29.9810   44.1110 C   0  0  0  0  0  0  0  0  0  0  0  0
   56.6430   31.0620   43.5710 C   0  0  0  0  0  0  0  0  0  0  0  0
   58.0510   31.1040   43.6740 C   0  0  0  0  0  0  0  0  0  0  0  0
   58.7500   30.0640   44.3130 C   0  0  0  0  0  0  0  0  0  0  0  0
   58.0080   29.0050   44.8370 C   0  0  0  0  0  0  0  0  0  0  0  0
   60.0550   29.3970   47.7010 N   0  0  0  0  0  0  0  0  0  0  0  0
   59.4650   29.8870   48.9520 C   0  0  0  0  0  0  0  0  0  0  0  0
   58.8760   31.2790   48.7260 C   0  0  0  0  0  0  0  0  0  0  0  0
   59.9660   32.2960   48.2750 C   0  0  0  0  0  0  0  0  0  0  0  0
   59.4260   33.4700   47.5180 N   0  0  0  0  0  0  0  0  0  0  0  0
   60.0730   33.6780   46.1910 C   0  0  0  0  0  0  0  0  0  0  0  0
   59.2770   34.6580   45.3230 C   0  0  0  0  0  0  0  0  0  0  0  0
   57.8740   34.1120   45.0110 C   0  0  0  0  0  0  0  0  0  0  0  0
   57.3610   33.1380   46.0850 C   0  0  0  0  0  0  0  0  0  0  0  0
   57.9310   33.4800   47.4720 C   0  0  0  0  0  0  0  0  0  0  0  0
   61.1700   31.6170   47.5520 C   0  0  0  0  0  0  0  0  0  0  0  0
   60.7970   30.3170   46.8240 C   0  0  0  0  0  0  0  0  0  0  0  0
   60.5165   27.9761   45.3218 H   0  0  0  0  0  0  0  0  0  0  0  0
   59.8911   26.4146   45.9560 H   0  0  0  0  0  0  0  0  0  0  0  0
   57.1586   26.2573   46.3980 H   0  0  0  0  0  0  0  0  0  0  0  0
   55.1440   27.5950   45.4280 H   0  0  0  0  0  0  0  0  0  0  0  0
   54.8251   29.9389   44.0398 H   0  0  0  0  0  0  0  0  0  0  0  0
   56.1070   31.8790   43.0658 H   0  0  0  0  0  0  0  0  0  0  0  0
   58.6046   31.9556   43.2517 H   0  0  0  0  0  0  0  0  0  0  0  0
   59.8466   30.0849   44.3969 H   0  0  0  0  0  0  0  0  0  0  0  0
   58.6691   29.2002   49.2759 H   0  0  0  0  0  0  0  0  0  0  0  0
   60.2424   29.9392   49.7285 H   0  0  0  0  0  0  0  0  0  0  0  0
   58.1016   31.2169   47.9473 H   0  0  0  0  0  0  0  0  0  0  0  0
   58.4493   31.6308   49.6769 H   0  0  0  0  0  0  0  0  0  0  0  0
   60.3636   32.7153   49.2110 H   0  0  0  0  0  0  0  0  0  0  0  0
   59.6870   34.3110   48.0900 H   0  0  0  0  0  0  0  0  0  0  0  0
   61.0852   34.0796   46.3464 H   0  0  0  0  0  0  0  0  0  0  0  0
   60.1103   32.7095   45.6708 H   0  0  0  0  0  0  0  0  0  0  0  0
   59.1790   35.6137   45.8587 H   0  0  0  0  0  0  0  0  0  0  0  0
   59.8149   34.7985   44.3738 H   0  0  0  0  0  0  0  0  0  0  0  0
   57.1749   34.9584   44.9415 H   0  0  0  0  0  0  0  0  0  0  0  0
   57.9379   33.5566   44.0637 H   0  0  0  0  0  0  0  0  0  0  0  0
   56.2632   33.1956   46.1252 H   0  0  0  0  0  0  0  0  0  0  0  0
   57.6894   32.1230   45.8167 H   0  0  0  0  0  0  0  0  0  0  0  0
   57.5800   34.4831   47.7557 H   0  0  0  0  0  0  0  0  0  0  0  0
   57.5792   32.7045   48.1683 H   0  0  0  0  0  0  0  0  0  0  0  0
   61.5763   32.3244   46.8141 H   0  0  0  0  0  0  0  0  0  0  0  0
   61.9043   31.3530   48.3273 H   0  0  0  0  0  0  0  0  0  0  0  0
   60.1710   30.5627   45.9535 H   0  0  0  0  0  0  0  0  0  0  0  0
   61.7270   29.8191   46.5121 H   0  0  0  0  0  0  0  0  0  0  0  0
  1  2  2  0
  2  3  1  0
  3  4  1  0
  4  5  2  0
  5  6  1  0
  6  7  1  0
  7  8  2  0
  8  9  1  0
  9 10  2  0
 10 11  1  0
 11 12  2  0
  2 13  1  0
 13 14  1  0
 14 15  1  0
 15 16  1  0
 16 17  1  0
 17 18  1  0
 18 19  1  0
 19 20  1  0
 20 21  1  0
 21 22  1  0
 16 23  1  0
 23 24  1  0
 12  4  1  0
 24 13  1  0
 12  7  1  0
 22 17  1  0
  3 25  1  0
  3 26  1  0
  5 27  1  0
  6 28  1  0
  8 29  1  0
  9 30  1  0
 10 31  1  0
 11 32  1  0
 14 33  1  0
 14 34  1  0
 15 35  1  0
 15 36  1  0
 16 37  1  0
 17 38  1  0
 18 39  1  0
 18 40  1  0
 19 41  1  0
 19 42  1  0
 20 43  1  0
 20 44  1  0
 21 45  1  0
 21 46  1  0
 22 47  1  0
 22 48  1  0
 23 49  1  0
 23 50  1  0
 24 51  1  0
 24 52  1  0
M  CHG  1  17   1
M  END
>  <UniqueID>  (29) 
27

>  <SMILES>  (29) 
O=C(Cc1c[nH]c2ccccc12)N1CCC([NH+]2CCCCC2)CC1

>  <Energy>  (29) 
100.42463465590058

>  <Genealogy>  (29) 
O=C(Cc1c[nH]c2ccccc12)N1CCC([NH+]2CCCCC2)CC1 (protonated)
O=C(Cc1c[nH]c2ccccc12)N1CCC([NH+]2CCCCC2)CC1 (3D coordinates assigned)
O=C(Cc1c[nH]c2ccccc12)N1CCC([NH+]2CCCCC2)CC1 (nonaromatic ring conformer: 100.42463465590058 kcal/mol)

>  <smiles>  (29) 
O=C(Cc1c[nH]c2ccccc12)N1CCC(N2CCCCC2)CC1

>  <score_type>  (29) 
oracle

>  <origin>  (29) 
adg

>  <m_score__min__energy>  (29) 
-7.8300000000000001

>  <m_primary>  (29) 
energy

$$$$
29:0
     RDKit          3D

 30 32  0  0  0  0  0  0  0  0999 V2000
   58.1390   26.7140   42.5830 C   0  0  0  0  0  0  0  0  0  0  0  0
   58.3800   26.7740   44.0860 C   0  0  0  0  0  0  0  0  0  0  0  0
   58.6600   28.1470   44.4980 N   0  0  0  0  0  0  0  0  0  0  0  0
   59.8170   28.6370   45.0120 C   0  0  0  0  0  0  0  0  0  0  0  0
   59.7250   29.9550   45.3290 N   0  0  0  0  0  0  0  0  0  0  0  0
   58.4560   30.2840   45.0200 C   0  0  0  0  0  0  0  0  0  0  0  0
   57.7900   31.5100   45.0940 C   0  0  0  0  0  0  0  0  0  0  0  0
   58.4100   32.7370   45.6400 C   0  0  0  0  0  0  0  0  0  0  0  0
   58.7360   33.7970   44.7780 C   0  0  0  0  0  0  0  0  0  0  0  0
   59.3040   34.9700   45.2840 C   0  0  0  0  0  0  0  0  0  0  0  0
   59.5390   35.0990   46.6550 C   0  0  0  0  0  0  0  0  0  0  0  0
   59.1990   34.0590   47.5230 C   0  0  0  0  0  0  0  0  0  0  0  0
   58.6310   32.8840   47.0210 C   0  0  0  0  0  0  0  0  0  0  0  0
   56.5050   31.5470   44.6290 N   0  0  0  0  0  0  0  0  0  0  0  0
   55.8840   30.4310   44.1240 C   0  0  0  0  0  0  0  0  0  0  0  0
   56.5460   29.2380   44.0630 N   0  0  0  0  0  0  0  0  0  0  0  0
   57.8220   29.1960   44.5160 C   0  0  0  0  0  0  0  0  0  0  0  0
   57.0881   26.4524   42.3903 H   0  0  0  0  0  0  0  0  0  0  0  0
   58.3605   27.6947   42.1367 H   0  0  0  0  0  0  0  0  0  0  0  0
   58.7944   25.9516   42.1367 H   0  0  0  0  0  0  0  0  0  0  0  0
   57.4843   26.4123   44.6122 H   0  0  0  0  0  0  0  0  0  0  0  0
   59.2442   26.1411   44.3363 H   0  0  0  0  0  0  0  0  0  0  0  0
   60.7263   28.0349   45.1556 H   0  0  0  0  0  0  0  0  0  0  0  0
   60.4850   30.5640   45.7020 H   0  0  0  0  0  0  0  0  0  0  0  0
   58.5434   33.7037   43.6990 H   0  0  0  0  0  0  0  0  0  0  0  0
   59.5661   35.7922   44.6019 H   0  0  0  0  0  0  0  0  0  0  0  0
   59.9919   36.0199   47.0510 H   0  0  0  0  0  0  0  0  0  0  0  0
   59.3783   34.1644   48.6032 H   0  0  0  0  0  0  0  0  0  0  0  0
   58.3559   32.0712   47.7092 H   0  0  0  0  0  0  0  0  0  0  0  0
   54.8460   30.4985   43.7661 H   0  0  0  0  0  0  0  0  0  0  0  0
  1  2  1  0
  2  3  1  0
  3  4  1  0
  4  5  2  0
  5  6  1  0
  6  7  2  0
  7  8  1  0
  8  9  2  0
  9 10  1  0
 10 11  2  0
 11 12  1  0
 12 13  2  0
  7 14  1  0
 14 15  2  0
 15 16  1  0
 16 17  2  0
 17  3  1  0
 17  6  1  0
 13  8  1  0
  1 18  1  0
  1 19  1  0
  1 20  1  0
  2 21  1  0
  2 22  1  0
  4 23  1  0
  5 24  1  0
  9 25  1  0
 10 26  1  0
 11 27  1  0
 12 28  1  0
 13 29  1  0
 15 30  1  0
M  CHG  1   5   1
M  END
>  <UniqueID>  (30) 
28

>  <SMILES>  (30) 
CCn1c[nH+]c2c(-c3ccccc3)ncnc21

>  <Energy>  (30) 
76.37587726282243

>  <Genealogy>  (30) 
CCn1c[nH+]c2c(-c3ccccc3)ncnc21 (protonated)
CCn1c[nH+]c2c(-c3ccccc3)ncnc21 (3D coordinates assigned)
CCn1c[nH+]c2c(-c3ccccc3)ncnc21 (optimized conformer: 76.37587726282243 kcal/mol)

>  <smiles>  (30) 
CCn1cnc2c(-c3ccccc3)ncnc21

>  <score_type>  (30) 
oracle

>  <origin>  (30) 
adg

>  <m_score__min__energy>  (30) 
-5.0899999999999999

>  <m_primary>  (30) 
energy

$$$$
30:0
     RDKit          3D

 55 58  0  0  0  0  0  0  0  0999 V2000
   60.1990   33.4230   49.9790 C   0  0  0  0  0  0  0  0  0  0  0  0
   61.2760   33.2810   48.9330 C   0  0  0  0  0  0  0  0  0  0  0  0
   62.3300   34.2140   48.9200 C   0  0  0  0  0  0  0  0  0  0  0  0
   63.3840   34.0840   48.0150 C   0  0  0  0  0  0  0  0  0  0  0  0
   63.4100   33.0170   47.1200 C   0  0  0  0  0  0  0  0  0  0  0  0
   62.3780   32.0770   47.1210 C   0  0  0  0  0  0  0  0  0  0  0  0
   61.2970   32.1950   48.0150 C   0  0  0  0  0  0  0  0  0  0  0  0
   60.1860   31.1590   47.9690 C   0  0  0  0  0  0  0  0  0  0  0  0
   60.5770   29.9530   47.1920 N   0  0  0  0  0  0  0  0  0  0  0  0
   60.1560   28.6880   47.8670 C   0  0  0  0  0  0  0  0  0  0  0  0
   58.9840   27.9920   47.1600 C   0  0  0  0  0  0  0  0  0  0  0  0
   59.3390   27.6740   45.7620 N   0  0  0  0  0  0  0  0  0  0  0  0
   58.2080   27.1420   44.9720 C   0  0  0  0  0  0  0  0  0  0  0  0
   57.8240   28.0100   43.7510 C   0  0  0  0  0  0  0  0  0  0  0  0
   56.7040   28.9990   44.0900 C   0  0  0  0  0  0  0  0  0  0  0  0
   56.5980   30.3180   42.8330 S   0  0  0  0  0  0  0  0  0  0  0  0
   57.3010   31.5590   43.9110 C   0  0  0  0  0  0  0  0  0  0  0  0
   58.1530   32.5180   43.4630 N   0  0  0  0  0  0  0  0  0  0  0  0
   58.4130   33.2130   44.5790 C   0  0  0  0  0  0  0  0  0  0  0  0
   59.2390   34.3260   44.7190 C   0  0  0  0  0  0  0  0  0  0  0  0
   59.3630   34.8910   46.0010 C   0  0  0  0  0  0  0  0  0  0  0  0
   58.6600   34.3400   47.0970 C   0  0  0  0  0  0  0  0  0  0  0  0
   57.8340   33.2130   46.9180 C   0  0  0  0  0  0  0  0  0  0  0  0
   57.7400   32.6770   45.6350 C   0  0  0  0  0  0  0  0  0  0  0  0
   57.0180   31.6190   45.2390 N   0  0  0  0  0  0  0  0  0  0  0  0
   60.1370   28.7160   45.0710 C   0  0  0  0  0  0  0  0  0  0  0  0
   60.0730   30.0670   45.7990 C   0  0  0  0  0  0  0  0  0  0  0  0
   60.6503   33.3635   50.9804 H   0  0  0  0  0  0  0  0  0  0  0  0
   59.6980   34.3950   49.8598 H   0  0  0  0  0  0  0  0  0  0  0  0
   59.4632   32.6141   49.8598 H   0  0  0  0  0  0  0  0  0  0  0  0
   62.3226   35.0539   49.6303 H   0  0  0  0  0  0  0  0  0  0  0  0
   64.1962   34.8258   48.0083 H   0  0  0  0  0  0  0  0  0  0  0  0
   64.2451   32.9149   46.4113 H   0  0  0  0  0  0  0  0  0  0  0  0
   62.4098   31.2341   46.4149 H   0  0  0  0  0  0  0  0  0  0  0  0
   59.9423   30.8545   48.9975 H   0  0  0  0  0  0  0  0  0  0  0  0
   59.3178   31.6156   47.4713 H   0  0  0  0  0  0  0  0  0  0  0  0
   61.6220   29.9280   47.1250 H   0  0  0  0  0  0  0  0  0  0  0  0
   61.0131   27.9988   47.8860 H   0  0  0  0  0  0  0  0  0  0  0  0
   59.8190   28.9521   48.8802 H   0  0  0  0  0  0  0  0  0  0  0  0
   58.7413   27.0607   47.6927 H   0  0  0  0  0  0  0  0  0  0  0  0
   58.1155   28.6671   47.1620 H   0  0  0  0  0  0  0  0  0  0  0  0
   58.4810   26.1396   44.6105 H   0  0  0  0  0  0  0  0  0  0  0  0
   57.3337   27.1308   45.6395 H   0  0  0  0  0  0  0  0  0  0  0  0
   58.7094   28.5732   43.4211 H   0  0  0  0  0  0  0  0  0  0  0  0
   57.4631   27.3422   42.9548 H   0  0  0  0  0  0  0  0  0  0  0  0
   55.7462   28.4594   44.1276 H   0  0  0  0  0  0  0  0  0  0  0  0
   56.9242   29.4590   45.0647 H   0  0  0  0  0  0  0  0  0  0  0  0
   59.7757   34.7484   43.8567 H   0  0  0  0  0  0  0  0  0  0  0  0
   60.0109   35.7670   46.1519 H   0  0  0  0  0  0  0  0  0  0  0  0
   58.7585   34.7935   48.0943 H   0  0  0  0  0  0  0  0  0  0  0  0
   57.2826   32.7716   47.7613 H   0  0  0  0  0  0  0  0  0  0  0  0
   61.1857   28.3872   45.0240 H   0  0  0  0  0  0  0  0  0  0  0  0
   59.7173   28.8528   44.0634 H   0  0  0  0  0  0  0  0  0  0  0  0
   60.6886   30.7976   45.2537 H   0  0  0  0  0  0  0  0  0  0  0  0
   59.0231   30.3931   45.8348 H   0  0  0  0  0  0  0  0  0  0  0  0
  1  2  1  0
  2  3  2  0
  3  4  1  0
  4  5  2  0
  5  6  1  0
  6  7  2  0
  7  8  1  0
  8  9  1  0
  9 10  1  0
 10 11  1  0
 11 12  1  0
 12 13  1  0
 13 14  1  0
 14 15  1  0
 15 16  1  0
 16 17  1  0
 17 18  2  0
 18 19  1  0
 19 20  2  0
 20 21  1  0
 21 22  2  0
 22 23  1  0
 23 24  2  0
 24 25  1  0
 12 26  1  0
 26 27  1  0
  7  2  1  0
 27  9  1  0
 25 17  1  0
 24 19  1  0
  1 28  1  0
  1 29  1  0
  1 30  1  0
  3 31  1  0
  4 32  1  0
  5 33  1  0
  6 34  1  0
  8 35  1  0
  8 36  1  0
  9 37  1  0
 10 38  1  0
 10 39  1  0
 11 40  1  0
 11 41  1  0
 13 42  1  0
 13 43  1  0
 14 44  1  0
 14 45  1  0
 15 46  1  0
 15 47  1  0
 20 48  1  0
 21 49  1  0
 22 50  1  0
 23 51  1  0
 26 52  1  0
 26 53  1  0
 27 54  1  0
 27 55  1  0
M  CHG  2   9   1  25  -1
M  END
>  <UniqueID>  (31) 
29

>  <SMILES>  (31) 
Cc1ccccc1C[NH+]1CCN(CCCSc2nc3ccccc3[n-]2)CC1

>  <Energy>  (31) 
104.80049059427071

>  <Genealogy>  (31) 
Cc1ccccc1C[NH+]1CCN(CCCSc2nc3ccccc3[n-]2)CC1 (protonated)
Cc1ccccc1C[NH+]1CCN(CCCSc2nc3ccccc3[n-]2)CC1 (3D coordinates assigned)
Cc1ccccc1C[NH+]1CCN(CCCSc2nc3ccccc3[n-]2)CC1 (nonaromatic ring conformer: 104.80049059427071 kcal/mol)

>  <smiles>  (31) 
Cc1ccccc1CN1CCN(CCCSc2nc3ccccc3[nH]2)CC1

>  <score_type>  (31) 
oracle

>  <origin>  (31) 
adg

>  <m_score__min__energy>  (31) 
-8.9000000000000004

>  <m_primary>  (31) 
energy

$$$$
31:0
     RDKit          3D

 45 47  0  0  0  0  0  0  0  0999 V2000
   57.2090   32.4760   40.6730 C   0  0  0  0  0  0  0  0  0  0  0  0
   57.7710   31.9620   41.9910 C   0  0  0  0  0  0  0  0  0  0  0  0
   56.7680   31.2210   42.6790 O   0  0  0  0  0  0  0  0  0  0  0  0
   56.7710   31.0530   44.0680 C   0  0  0  0  0  0  0  0  0  0  0  0
   55.8520   30.3930   44.6260 O   0  0  0  0  0  0  0  0  0  0  0  0
   57.8550   31.6480   44.8790 C   0  0  0  0  0  0  0  0  0  0  0  0
   58.0490   33.0380   44.9220 C   0  0  0  0  0  0  0  0  0  0  0  0
   59.0460   33.5700   45.6770 N   0  0  0  0  0  0  0  0  0  0  0  0
   59.8850   32.7940   46.4120 C   0  0  0  0  0  0  0  0  0  0  0  0
   60.9140   33.4150   47.1890 N   0  0  0  0  0  0  0  0  0  0  0  0
   62.3140   33.2870   46.7610 C   0  0  0  0  0  0  0  0  0  0  0  0
   63.2450   34.0640   47.6930 C   0  0  0  0  0  0  0  0  0  0  0  0
   62.9060   33.7620   49.0900 N   0  0  0  0  0  0  0  0  0  0  0  0
   63.9300   33.4480   50.0540 C   0  0  0  0  0  0  0  0  0  0  0  0
   63.7810   33.7980   51.2570 O   0  0  0  0  0  0  0  0  0  0  0  0
   65.1010   32.7150   49.6690 N   0  0  0  0  0  0  0  0  0  0  0  0
   66.2030   32.4980   50.6020 C   0  0  0  0  0  0  0  0  0  0  0  0
   67.5170   33.1120   50.1490 C   0  0  0  0  0  0  0  0  0  0  0  0
   66.7040   33.7800   51.2470 C   0  0  0  0  0  0  0  0  0  0  0  0
   61.5080   33.8520   49.5400 C   0  0  0  0  0  0  0  0  0  0  0  0
   60.5550   34.1880   48.3830 C   0  0  0  0  0  0  0  0  0  0  0  0
   59.7390   31.3980   46.3930 C   0  0  0  0  0  0  0  0  0  0  0  0
   60.8300   30.3510   47.2910 Cl  0  0  0  0  0  0  0  0  0  0  0  0
   58.7180   30.8310   45.6260 C   0  0  0  0  0  0  0  0  0  0  0  0
   56.4110   33.2058   40.8744 H   0  0  0  0  0  0  0  0  0  0  0  0
   58.0111   32.9596   40.0961 H   0  0  0  0  0  0  0  0  0  0  0  0
   56.7988   31.6340   40.0961 H   0  0  0  0  0  0  0  0  0  0  0  0
   58.6355   31.3115   41.7920 H   0  0  0  0  0  0  0  0  0  0  0  0
   58.0874   32.8136   42.6112 H   0  0  0  0  0  0  0  0  0  0  0  0
   57.3901   33.7002   44.3412 H   0  0  0  0  0  0  0  0  0  0  0  0
   62.5981   32.2244   46.7727 H   0  0  0  0  0  0  0  0  0  0  0  0
   62.4094   33.7001   45.7460 H   0  0  0  0  0  0  0  0  0  0  0  0
   64.2871   33.7711   47.4974 H   0  0  0  0  0  0  0  0  0  0  0  0
   63.1263   35.1426   47.5127 H   0  0  0  0  0  0  0  0  0  0  0  0
   65.1050   32.1870   48.7690 H   0  0  0  0  0  0  0  0  0  0  0  0
   65.8912   31.5078   50.9657 H   0  0  0  0  0  0  0  0  0  0  0  0
   68.4685   32.6169   50.3929 H   0  0  0  0  0  0  0  0  0  0  0  0
   67.9326   33.4348   49.1830 H   0  0  0  0  0  0  0  0  0  0  0  0
   67.0672   33.7680   52.2852 H   0  0  0  0  0  0  0  0  0  0  0  0
   66.2878   34.7860   51.4045 H   0  0  0  0  0  0  0  0  0  0  0  0
   61.2118   32.8865   49.9760 H   0  0  0  0  0  0  0  0  0  0  0  0
   61.4402   34.6599   50.2834 H   0  0  0  0  0  0  0  0  0  0  0  0
   59.5243   33.9423   48.6784 H   0  0  0  0  0  0  0  0  0  0  0  0
   60.6346   35.2607   48.1529 H   0  0  0  0  0  0  0  0  0  0  0  0
   58.5898   29.7387   45.6075 H   0  0  0  0  0  0  0  0  0  0  0  0
  1  2  1  0
  2  3  1  0
  3  4  1  0
  4  5  2  0
  4  6  1  0
  6  7  2  0
  7  8  1  0
  8  9  2  0
  9 10  1  0
 10 11  1  0
 11 12  1  0
 12 13  1  0
 13 14  1  0
 14 15  2  0
 14 16  1  0
 16 17  1  0
 17 18  1  0
 18 19  1  0
 13 20  1  0
 20 21  1  0
  9 22  1  0
 22 23  1  0
 22 24  2  0
 24  6  1  0
 21 10  1  0
 19 17  1  0
  1 25  1  0
  1 26  1  0
  1 27  1  0
  2 28  1  0
  2 29  1  0
  7 30  1  0
 11 31  1  0
 11 32  1  0
 12 33  1  0
 12 34  1  0
 16 35  1  0
 17 36  1  0
 18 37  1  0
 18 38  1  0
 19 39  1  0
 19 40  1  0
 20 41  1  0
 20 42  1  0
 21 43  1  0
 21 44  1  0
 24 45  1  0
M  END
>  <UniqueID>  (32) 
30

>  <SMILES>  (32) 
CCOC(=O)c1cnc(N2CCN(C(=O)NC3CC3)CC2)c(Cl)c1

>  <Energy>  (32) 
311.7662168688214

>  <Genealogy>  (32) 
CCOC(=O)c1cnc(N2CCN(C(=O)NC3CC3)CC2)c(Cl)c1 (3D coordinates assigned)
CCOC(=O)c1cnc(N2CCN(C(=O)NC3CC3)CC2)c(Cl)c1 (nonaromatic ring conformer: 311.7662168688214 kcal/mol)

>  <smiles>  (32) 
CCOC(=O)c1cnc(N2CCN(C(=O)NC3CC3)CC2)c(Cl)c1

>  <score_type>  (32) 
oracle

>  <origin>  (32) 
adg

>  <m_score__min__energy>  (32) 
-7.4199999999999999

>  <m_primary>  (32) 
energy

$$$$
32:0
     RDKit          3D

 46 47  0  0  0  0  0  0  0  0999 V2000
   62.4210   34.1770   49.8110 C   0  0  0  0  0  0  0  0  0  0  0  0
   61.0390   33.8520   49.7010 O   0  0  0  0  0  0  0  0  0  0  0  0
   60.4830   33.1130   48.6450 C   0  0  0  0  0  0  0  0  0  0  0  0
   60.4390   33.5980   47.3240 C   0  0  0  0  0  0  0  0  0  0  0  0
   59.8740   32.8230   46.3080 C   0  0  0  0  0  0  0  0  0  0  0  0
   59.3450   31.5570   46.5940 C   0  0  0  0  0  0  0  0  0  0  0  0
   58.7560   30.7630   45.5490 N   0  0  0  0  0  0  0  0  0  0  0  0
   57.6710   31.0890   44.8110 C   0  0  0  0  0  0  0  0  0  0  0  0
   56.9030   32.3710   44.9310 C   0  0  0  0  0  0  0  0  0  0  0  0
   57.3580   30.0660   43.9390 C   0  0  0  0  0  0  0  0  0  0  0  0
   58.2890   29.0670   44.1590 C   0  0  0  0  0  0  0  0  0  0  0  0
   58.2750   27.7110   43.5020 C   0  0  0  0  0  0  0  0  0  0  0  0
   57.4380   26.7530   44.2440 N   0  0  0  0  0  0  0  0  0  0  0  0
   58.1890   26.0840   45.3210 C   0  0  0  0  0  0  0  0  0  0  0  0
   57.3700   25.9820   46.6210 C   0  0  0  0  0  0  0  0  0  0  0  0
   55.9160   25.5430   46.3960 C   0  0  0  0  0  0  0  0  0  0  0  0
   55.0980   26.6380   46.0830 O   0  0  0  0  0  0  0  0  0  0  0  0
   59.1450   29.5270   45.1540 C   0  0  0  0  0  0  0  0  0  0  0  0
   60.2950   28.7630   45.7460 C   0  0  0  0  0  0  0  0  0  0  0  0
   59.3860   31.0740   47.9100 C   0  0  0  0  0  0  0  0  0  0  0  0
   59.9520   31.8490   48.9260 C   0  0  0  0  0  0  0  0  0  0  0  0
   62.6989   34.2423   50.8733 H   0  0  0  0  0  0  0  0  0  0  0  0
   63.0215   33.3956   49.3223 H   0  0  0  0  0  0  0  0  0  0  0  0
   62.6103   35.1442   49.3223 H   0  0  0  0  0  0  0  0  0  0  0  0
   60.8510   34.5909   47.0909 H   0  0  0  0  0  0  0  0  0  0  0  0
   59.8442   33.2085   45.2782 H   0  0  0  0  0  0  0  0  0  0  0  0
   56.7578   32.6133   45.9941 H   0  0  0  0  0  0  0  0  0  0  0  0
   57.4643   33.1817   44.4435 H   0  0  0  0  0  0  0  0  0  0  0  0
   55.9234   32.2586   44.4435 H   0  0  0  0  0  0  0  0  0  0  0  0
   56.5319   30.0486   43.2129 H   0  0  0  0  0  0  0  0  0  0  0  0
   57.8787   27.8140   42.4810 H   0  0  0  0  0  0  0  0  0  0  0  0
   59.3055   27.3265   43.4889 H   0  0  0  0  0  0  0  0  0  0  0  0
   57.0930   26.0340   43.5660 H   0  0  0  0  0  0  0  0  0  0  0  0
   56.6100   27.2570   44.6410 H   0  0  0  0  0  0  0  0  0  0  0  0
   58.4565   25.0697   44.9898 H   0  0  0  0  0  0  0  0  0  0  0  0
   59.0862   26.6845   45.5320 H   0  0  0  0  0  0  0  0  0  0  0  0
   57.8564   25.2499   47.2824 H   0  0  0  0  0  0  0  0  0  0  0  0
   57.3393   26.9885   47.0638 H   0  0  0  0  0  0  0  0  0  0  0  0
   55.8833   24.8220   45.5659 H   0  0  0  0  0  0  0  0  0  0  0  0
   55.5434   25.0840   47.3236 H   0  0  0  0  0  0  0  0  0  0  0  0
   54.3530   26.6320   46.7380 H   0  0  0  0  0  0  0  0  0  0  0  0
   60.2353   28.8027   46.8437 H   0  0  0  0  0  0  0  0  0  0  0  0
   60.2489   27.7153   45.4139 H   0  0  0  0  0  0  0  0  0  0  0  0
   61.2429   29.2115   45.4139 H   0  0  0  0  0  0  0  0  0  0  0  0
   58.9714   30.0822   48.1432 H   0  0  0  0  0  0  0  0  0  0  0  0
   59.9804   31.4622   49.9553 H   0  0  0  0  0  0  0  0  0  0  0  0
  1  2  1  0
  2  3  1  0
  3  4  2  0
  4  5  1  0
  5  6  2  0
  6  7  1  0
  7  8  1  0
  8  9  1  0
  8 10  2  0
 10 11  1  0
 11 12  1  0
 12 13  1  0
 13 14  1  0
 14 15  1  0
 15 16  1  0
 16 17  1  0
 11 18  2  0
 18 19  1  0
  6 20  1  0
 20 21  2  0
 21  3  1  0
 18  7  1  0
  1 22  1  0
  1 23  1  0
  1 24  1  0
  4 25  1  0
  5 26  1  0
  9 27  1  0
  9 28  1  0
  9 29  1  0
 10 30  1  0
 12 31  1  0
 12 32  1  0
 13 33  1  0
 13 34  1  0
 14 35  1  0
 14 36  1  0
 15 37  1  0
 15 38  1  0
 16 39  1  0
 16 40  1  0
 17 41  1  0
 19 42  1  0
 19 43  1  0
 19 44  1  0
 20 45  1  0
 21 46  1  0
M  CHG  1  13   1
M  END
>  <UniqueID>  (33) 
31

>  <SMILES>  (33) 
COc1ccc(-n2c(C)cc(C[NH2+]CCCO)c2C)cc1

>  <Energy>  (33) 
71.21718229005987

>  <Genealogy>  (33) 
COc1ccc(-n2c(C)cc(C[NH2+]CCCO)c2C)cc1 (protonated)
COc1ccc(-n2c(C)cc(C[NH2+]CCCO)c2C)cc1 (3D coordinates assigned)
COc1ccc(-n2c(C)cc(C[NH2+]CCCO)c2C)cc1 (optimized conformer: 71.21718229005987 kcal/mol)

>  <smiles>  (33) 
COc1ccc(-n2c(C)cc(CNCCCO)c2C)cc1

>  <score_type>  (33) 
oracle

>  <origin>  (33) 
adg

>  <m_score__min__energy>  (33) 
-6.0599999999999996

>  <m_primary>  (33) 
energy

$$$$
33:0
     RDKit          3D

 27 28  0  0  0  0  0  0  0  0999 V2000
   60.0720   28.9550   47.6330 C   0  0  0  0  0  0  0  0  0  0  0  0
   59.7760   30.3430   47.5080 O   0  0  0  0  0  0  0  0  0  0  0  0
   58.9420   30.9010   46.5230 C   0  0  0  0  0  0  0  0  0  0  0  0
   57.9910   30.1220   45.8340 C   0  0  0  0  0  0  0  0  0  0  0  0
   57.1610   30.6870   44.8480 C   0  0  0  0  0  0  0  0  0  0  0  0
   56.1660   29.8370   44.1380 C   0  0  0  0  0  0  0  0  0  0  0  0
   56.2730   29.5420   42.6730 C   0  0  0  0  0  0  0  0  0  0  0  0
   55.1970   29.3420   44.7770 O   0  0  0  0  0  0  0  0  0  0  0  0
   57.2910   32.0570   44.5540 C   0  0  0  0  0  0  0  0  0  0  0  0
   58.2300   32.8480   45.2280 C   0  0  0  0  0  0  0  0  0  0  0  0
   58.3490   34.2150   44.9250 C   0  0  0  0  0  0  0  0  0  0  0  0
   59.2850   35.0050   45.5960 C   0  0  0  0  0  0  0  0  0  0  0  0
   60.1070   34.4410   46.5720 C   0  0  0  0  0  0  0  0  0  0  0  0
   60.0010   33.0830   46.8850 C   0  0  0  0  0  0  0  0  0  0  0  0
   59.0630   32.2710   46.2180 C   0  0  0  0  0  0  0  0  0  0  0  0
   60.1292   28.6868   48.6983 H   0  0  0  0  0  0  0  0  0  0  0  0
   59.2793   28.3660   47.1486 H   0  0  0  0  0  0  0  0  0  0  0  0
   61.0361   28.7406   47.1486 H   0  0  0  0  0  0  0  0  0  0  0  0
   57.8957   29.0522   46.0714 H   0  0  0  0  0  0  0  0  0  0  0  0
   56.6450   28.5165   42.5317 H   0  0  0  0  0  0  0  0  0  0  0  0
   55.2820   29.6402   42.2059 H   0  0  0  0  0  0  0  0  0  0  0  0
   56.9706   30.2527   42.2059 H   0  0  0  0  0  0  0  0  0  0  0  0
   56.6479   32.5118   43.7862 H   0  0  0  0  0  0  0  0  0  0  0  0
   57.7027   34.6644   44.1567 H   0  0  0  0  0  0  0  0  0  0  0  0
   59.3743   36.0744   45.3544 H   0  0  0  0  0  0  0  0  0  0  0  0
   60.8421   35.0681   47.0977 H   0  0  0  0  0  0  0  0  0  0  0  0
   60.6531   32.6463   47.6558 H   0  0  0  0  0  0  0  0  0  0  0  0
  1  2  1  0
  2  3  1  0
  3  4  2  0
  4  5  1  0
  5  6  1  0
  6  7  1  0
  6  8  2  0
  5  9  2  0
  9 10  1  0
 10 11  2  0
 11 12  1  0
 12 13  2  0
 13 14  1  0
 14 15  2  0
 15  3  1  0
 15 10  1  0
  1 16  1  0
  1 17  1  0
  1 18  1  0
  4 19  1  0
  7 20  1  0
  7 21  1  0
  7 22  1  0
  9 23  1  0
 11 24  1  0
 12 25  1  0
 13 26  1  0
 14 27  1  0
M  END
>  <UniqueID>  (34) 
32

>  <SMILES>  (34) 
COc1cc(C(C)=O)cc2ccccc12

>  <Energy>  (34) 
31.35170361082026

>  <Genealogy>  (34) 
COc1cc(C(C)=O)cc2ccccc12 (3D coordinates assigned)
COc1cc(C(C)=O)cc2ccccc12 (optimized conformer: 31.35170361082026 kcal/mol)

>  <smiles>  (34) 
COc1cc(C(C)=O)cc2ccccc12

>  <score_type>  (34) 
oracle

>  <origin>  (34) 
adg

>  <m_score__min__energy>  (34) 
-6.4100000000000001

>  <m_primary>  (34) 
energy

$$$$
34:0
     RDKit          3D

 31 32  0  0  0  0  0  0  0  0999 V2000
   61.3780   33.8200   48.3640 C   0  0  0  0  0  0  0  0  0  0  0  0
   59.9160   34.1440   48.3190 C   0  0  0  0  0  0  0  0  0  0  0  0
   59.1960   34.1710   47.1850 C   0  0  0  0  0  0  0  0  0  0  0  0
   59.5690   34.9880   46.0150 C   0  0  0  0  0  0  0  0  0  0  0  0
   58.8660   34.8810   44.8820 C   0  0  0  0  0  0  0  0  0  0  0  0
   57.8530   33.8580   44.6860 N   0  0  0  0  0  0  0  0  0  0  0  0
   58.4350   32.7520   43.8980 C   0  0  0  0  0  0  0  0  0  0  0  0
   57.8540   31.4120   44.2900 C   0  0  0  0  0  0  0  0  0  0  0  0
   56.6460   30.9670   43.7260 C   0  0  0  0  0  0  0  0  0  0  0  0
   56.1270   29.7160   44.0730 C   0  0  0  0  0  0  0  0  0  0  0  0
   56.8090   28.9010   44.9810 C   0  0  0  0  0  0  0  0  0  0  0  0
   58.0130   29.3350   45.5410 C   0  0  0  0  0  0  0  0  0  0  0  0
   58.5370   30.5840   45.1960 C   0  0  0  0  0  0  0  0  0  0  0  0
   57.2870   33.3520   45.9260 C   0  0  0  0  0  0  0  0  0  0  0  0
   57.9410   33.4100   47.0910 C   0  0  0  0  0  0  0  0  0  0  0  0
   61.7054   33.7474   49.4116 H   0  0  0  0  0  0  0  0  0  0  0  0
   61.5567   32.8605   47.8567 H   0  0  0  0  0  0  0  0  0  0  0  0
   61.9454   34.6142   47.8567 H   0  0  0  0  0  0  0  0  0  0  0  0
   59.4043   34.3721   49.2657 H   0  0  0  0  0  0  0  0  0  0  0  0
   60.4207   35.6816   46.0738 H   0  0  0  0  0  0  0  0  0  0  0  0
   59.0622   35.5944   44.0680 H   0  0  0  0  0  0  0  0  0  0  0  0
   57.0770   34.2990   44.1400 H   0  0  0  0  0  0  0  0  0  0  0  0
   58.2310   32.9296   42.8318 H   0  0  0  0  0  0  0  0  0  0  0  0
   59.5166   32.7252   44.0964 H   0  0  0  0  0  0  0  0  0  0  0  0
   56.1074   31.6047   43.0096 H   0  0  0  0  0  0  0  0  0  0  0  0
   55.1802   29.3725   43.6307 H   0  0  0  0  0  0  0  0  0  0  0  0
   56.3978   27.9181   45.2545 H   0  0  0  0  0  0  0  0  0  0  0  0
   58.5496   28.6926   46.2547 H   0  0  0  0  0  0  0  0  0  0  0  0
   59.4878   30.9198   45.6356 H   0  0  0  0  0  0  0  0  0  0  0  0
   56.2824   32.9044   45.9050 H   0  0  0  0  0  0  0  0  0  0  0  0
   57.5421   32.8909   47.9750 H   0  0  0  0  0  0  0  0  0  0  0  0
  1  2  1  0
  2  3  2  3
  3  4  1  0
  4  5  2  0
  5  6  1  0
  6  7  1  0
  7  8  1  0
  8  9  2  0
  9 10  1  0
 10 11  2  0
 11 12  1  0
 12 13  2  0
  6 14  1  0
 14 15  2  0
 15  3  1  0
 13  8  1  0
  1 16  1  0
  1 17  1  0
  1 18  1  0
  2 19  1  0
  4 20  1  0
  5 21  1  0
  6 22  1  0
  7 23  1  0
  7 24  1  0
  9 25  1  0
 10 26  1  0
 11 27  1  0
 12 28  1  0
 13 29  1  0
 14 30  1  0
 15 31  1  0
M  CHG  1   6   1
M  END
>  <UniqueID>  (35) 
33

>  <SMILES>  (35) 
CC=C1C=C[NH+](Cc2ccccc2)C=C1

>  <Energy>  (35) 
34.85516309223364

>  <Genealogy>  (35) 
CC=C1C=C[NH+](Cc2ccccc2)C=C1 (protonated)
CC=C1C=C[NH+](Cc2ccccc2)C=C1 (3D coordinates assigned)
CC=C1C=C[NH+](Cc2ccccc2)C=C1 (nonaromatic ring conformer: 34.85516309223364 kcal/mol)

>  <smiles>  (35) 
CC=C1C=CN(Cc2ccccc2)C=C1

>  <score_type>  (35) 
oracle

>  <origin>  (35) 
adg

>  <m_score__min__energy>  (35) 
-4.8200000000000003

>  <m_primary>  (35) 
energy

$$$$
35:0
     RDKit          3D

 34 36  0  0  0  0  0  0  0  0999 V2000
   56.2540   29.8990   43.2910 C   0  0  0  0  0  0  0  0  0  0  0  0
   56.2600   30.6200   44.5190 O   0  0  0  0  0  0  0  0  0  0  0  0
   57.4210   31.0660   45.1690 C   0  0  0  0  0  0  0  0  0  0  0  0
   58.3250   30.1100   45.6460 C   0  0  0  0  0  0  0  0  0  0  0  0
   59.4950   30.5010   46.3020 C   0  0  0  0  0  0  0  0  0  0  0  0
   59.7810   31.8660   46.5000 C   0  0  0  0  0  0  0  0  0  0  0  0
   61.0230   32.3060   47.1870 C   0  0  0  0  0  0  0  0  0  0  0  0
   61.7650   33.4190   46.7470 C   0  0  0  0  0  0  0  0  0  0  0  0
   62.8980   33.7780   47.4060 N   0  0  0  0  0  0  0  0  0  0  0  0
   63.3370   33.0820   48.4860 C   0  0  0  0  0  0  0  0  0  0  0  0
   64.5050   33.4650   49.1550 C   0  0  0  0  0  0  0  0  0  0  0  0
   64.9520   32.7290   50.2710 C   0  0  0  0  0  0  0  0  0  0  0  0
   66.1150   33.0690   50.9790 O   0  0  0  0  0  0  0  0  0  0  0  0
   67.4320   33.0010   50.4410 C   0  0  0  0  0  0  0  0  0  0  0  0
   64.2150   31.6150   50.7000 C   0  0  0  0  0  0  0  0  0  0  0  0
   63.0490   31.2310   50.0310 C   0  0  0  0  0  0  0  0  0  0  0  0
   62.6080   31.9630   48.9250 C   0  0  0  0  0  0  0  0  0  0  0  0
   61.4760   31.6050   48.2650 N   0  0  0  0  0  0  0  0  0  0  0  0
   58.8760   32.8240   46.0100 C   0  0  0  0  0  0  0  0  0  0  0  0
   57.7060   32.4300   45.3550 C   0  0  0  0  0  0  0  0  0  0  0  0
   56.2450   28.8191   43.4999 H   0  0  0  0  0  0  0  0  0  0  0  0
   55.3581   30.1680   42.7123 H   0  0  0  0  0  0  0  0  0  0  0  0
   57.1543   30.1530   42.7123 H   0  0  0  0  0  0  0  0  0  0  0  0
   58.1123   29.0403   45.5030 H   0  0  0  0  0  0  0  0  0  0  0  0
   60.1979   29.7374   46.6665 H   0  0  0  0  0  0  0  0  0  0  0  0
   61.4287   33.9959   45.8729 H   0  0  0  0  0  0  0  0  0  0  0  0
   65.0744   34.3406   48.8099 H   0  0  0  0  0  0  0  0  0  0  0  0
   68.1623   32.9633   51.2628 H   0  0  0  0  0  0  0  0  0  0  0  0
   67.5291   32.0966   49.8224 H   0  0  0  0  0  0  0  0  0  0  0  0
   67.6218   33.8905   49.8224 H   0  0  0  0  0  0  0  0  0  0  0  0
   64.5580   31.0379   51.5714 H   0  0  0  0  0  0  0  0  0  0  0  0
   62.4798   30.3546   50.3744 H   0  0  0  0  0  0  0  0  0  0  0  0
   59.0911   33.8945   46.1435 H   0  0  0  0  0  0  0  0  0  0  0  0
   57.0044   33.1912   44.9830 H   0  0  0  0  0  0  0  0  0  0  0  0
  1  2  1  0
  2  3  1  0
  3  4  2  0
  4  5  1  0
  5  6  2  0
  6  7  1  0
  7  8  2  0
  8  9  1  0
  9 10  2  0
 10 11  1  0
 11 12  2  0
 12 13  1  0
 13 14  1  0
 12 15  1  0
 15 16  2  0
 16 17  1  0
 17 18  2  0
  6 19  1  0
 19 20  2  0
 20  3  1  0
 18  7  1  0
 17 10  1  0
  1 21  1  0
  1 22  1  0
  1 23  1  0
  4 24  1  0
  5 25  1  0
  8 26  1  0
 11 27  1  0
 14 28  1  0
 14 29  1  0
 14 30  1  0
 15 31  1  0
 16 32  1  0
 19 33  1  0
 20 34  1  0
M  END
>  <UniqueID>  (36) 
34

>  <SMILES>  (36) 
COc1ccc(-c2cnc3cc(OC)ccc3n2)cc1

>  <Energy>  (36) 
43.11596290966703

>  <Genealogy>  (36) 
COc1ccc(-c2cnc3cc(OC)ccc3n2)cc1 (3D coordinates assigned)
COc1ccc(-c2cnc3cc(OC)ccc3n2)cc1 (optimized conformer: 43.11596290966703 kcal/mol)

>  <smiles>  (36) 
COc1ccc(-c2cnc3cc(OC)ccc3n2)cc1

>  <score_type>  (36) 
oracle

>  <origin>  (36) 
adg

>  <m_score__min__energy>  (36) 
-5.8600000000000003

>  <m_primary>  (36) 
energy

$$$$
36:0
     RDKit          3D

 37 40  0  0  0  0  0  0  0  0999 V2000
   57.9029   35.2129   44.5699 H   0  0  0  0  0  0  0  0  0  0  0  0
   58.0930   34.1730   44.8740 C   0  0  0  0  0  0  0  0  0  0  0  0
   57.7750   33.0950   44.1600 C   0  0  0  0  0  0  0  0  0  0  0  0
   57.2979   33.0978   43.1688 H   0  0  0  0  0  0  0  0  0  0  0  0
   58.1660   31.9110   44.9140 C   0  0  0  0  0  0  0  0  0  0  0  0
   57.9750   30.5690   44.5880 C   0  0  0  0  0  0  0  0  0  0  0  0
   57.5260   30.2800   43.6263 H   0  0  0  0  0  0  0  0  0  0  0  0
   58.3710   29.5960   45.5200 C   0  0  0  0  0  0  0  0  0  0  0  0
   58.2496   28.5289   45.2823 H   0  0  0  0  0  0  0  0  0  0  0  0
   58.9230   29.9800   46.7580 C   0  0  0  0  0  0  0  0  0  0  0  0
   59.2198   29.2107   47.4861 H   0  0  0  0  0  0  0  0  0  0  0  0
   59.0970   31.3400   47.0690 C   0  0  0  0  0  0  0  0  0  0  0  0
   59.5082   31.6473   48.0419 H   0  0  0  0  0  0  0  0  0  0  0  0
   58.7340   32.2940   46.1100 C   0  0  0  0  0  0  0  0  0  0  0  0
   58.7360   33.7630   46.1290 C   0  0  0  0  0  0  0  0  0  0  0  0
   59.2150   34.6160   47.0440 C   0  0  0  0  0  0  0  0  0  0  0  0
   58.9051   35.6695   46.9797 H   0  0  0  0  0  0  0  0  0  0  0  0
   60.1320   34.2300   48.1320 C   0  0  0  0  0  0  0  0  0  0  0  0
   59.6390   34.1750   49.4450 C   0  0  0  0  0  0  0  0  0  0  0  0
   58.5923   34.4436   49.6504 H   0  0  0  0  0  0  0  0  0  0  0  0
   60.4750   33.7800   50.4900 C   0  0  0  0  0  0  0  0  0  0  0  0
   59.9750   33.7470   51.7940 O   0  0  0  0  0  0  0  0  0  0  0  0
   58.6120   33.4630   52.0880 C   0  0  0  0  0  0  0  0  0  0  0  0
   58.4706   33.4335   53.1785 H   0  0  0  0  0  0  0  0  0  0  0  0
   57.9727   34.2472   51.6564 H   0  0  0  0  0  0  0  0  0  0  0  0
   58.3391   32.4887   51.6564 H   0  0  0  0  0  0  0  0  0  0  0  0
   61.7650   33.4310   50.2300 N   0  0  0  0  0  0  0  0  0  0  0  0
   62.2780   33.4510   48.9710 C   0  0  0  0  0  0  0  0  0  0  0  0
   63.6100   33.0780   48.7600 C   0  0  0  0  0  0  0  0  0  0  0  0
   64.2344   32.7689   49.6112 H   0  0  0  0  0  0  0  0  0  0  0  0
   64.1490   33.0970   47.4720 C   0  0  0  0  0  0  0  0  0  0  0  0
   65.1964   32.8024   47.3103 H   0  0  0  0  0  0  0  0  0  0  0  0
   63.3590   33.4900   46.3880 C   0  0  0  0  0  0  0  0  0  0  0  0
   63.7873   33.5033   45.3749 H   0  0  0  0  0  0  0  0  0  0  0  0
   62.0280   33.8660   46.5850 C   0  0  0  0  0  0  0  0  0  0  0  0
   61.4141   34.1767   45.7268 H   0  0  0  0  0  0  0  0  0  0  0  0
   61.4680   33.8490   47.8790 C   0  0  0  0  0  0  0  0  0  0  0  0
  1  2  1  0
  2  3  2  0
  3  4  1  0
  3  5  1  0
  5  6  2  0
  6  7  1  0
  6  8  1  0
  8  9  1  0
  8 10  2  0
 10 11  1  0
 10 12  1  0
 12 13  1  0
 12 14  2  0
 14 15  1  0
 15 16  2  0
 16 17  1  0
 16 18  1  0
 18 19  2  0
 19 20  1  0
 19 21  1  0
 21 22  1  0
 22 23  1  0
 23 24  1  0
 23 25  1  0
 23 26  1  0
 21 27  2  0
 27 28  1  0
 28 29  2  0
 29 30  1  0
 29 31  1  0
 31 32  1  0
 31 33  2  0
 33 34  1  0
 33 35  1  0
 35 36  1  0
 35 37  2  0
 15  2  1  0
 37 18  1  0
 14  5  1  0
 37 28  1  0
M  END
>  <UniqueID>  (37) 
35

>  <SMILES>  (37) 
COc1cc(/C=C2/C=Cc3ccccc32)c2ccccc2n1

>  <Energy>  (37) 
78.87526718465448

>  <Genealogy>  (37) 
COc1cc(/C=C2/C=Cc3ccccc32)c2ccccc2n1 (cis-trans isomerization)
COc1cc(/C=C2/C=Cc3ccccc32)c2ccccc2n1 (3D coordinates assigned)
COc1cc(/C=C2/C=Cc3ccccc32)c2ccccc2n1 (nonaromatic ring conformer: 78.87526718465448 kcal/mol)

>  <smiles>  (37) 
COc1cc(C=C2C=Cc3ccccc32)c2ccccc2n1

>  <score_type>  (37) 
oracle

>  <origin>  (37) 
adg

>  <m_score__min__energy>  (37) 
-7.9800000000000004

>  <m_primary>  (37) 
energy

$$$$
37:0
     RDKit          3D

 53 54  0  0  0  0  0  0  0  0999 V2000
   55.8860   30.1720   44.0760 C   0  0  0  0  0  0  0  0  0  0  0  0
   56.6510   29.4360   42.9810 C   0  0  0  0  0  0  0  0  0  0  0  0
   57.5830   28.4680   43.5700 N   0  0  0  0  0  0  0  0  0  0  0  0
   57.9180   27.2210   42.8810 C   0  0  0  0  0  0  0  0  0  0  0  0
   58.2520   28.7830   44.8020 C   0  0  0  0  0  0  0  0  0  0  0  0
   59.3750   29.6190   44.7870 C   0  0  0  0  0  0  0  0  0  0  0  0
   60.0380   29.9310   45.9740 C   0  0  0  0  0  0  0  0  0  0  0  0
   59.5950   29.4020   47.1960 C   0  0  0  0  0  0  0  0  0  0  0  0
   60.2500   29.7270   48.4340 N   0  0  0  0  0  0  0  0  0  0  0  0
   60.9540   30.9570   48.6680 C   0  0  0  0  0  0  0  0  0  0  0  0
   61.1450   31.4730   50.2140 S   0  0  0  0  0  0  0  0  0  0  0  0
   61.6140   31.6310   47.5830 N   0  0  0  0  0  0  0  0  0  0  0  0
   62.1210   33.0000   47.6980 C   0  0  0  0  0  0  0  0  0  0  0  0
   61.7100   33.8380   46.4830 C   0  0  0  0  0  0  0  0  0  0  0  0
   60.2090   33.9960   46.4170 C   0  0  0  0  0  0  0  0  0  0  0  0
   59.5870   34.1600   45.2360 C   0  0  0  0  0  0  0  0  0  0  0  0
   58.0870   34.2410   45.1960 C   0  0  0  0  0  0  0  0  0  0  0  0
   57.4660   33.1340   46.0680 C   0  0  0  0  0  0  0  0  0  0  0  0
   58.1730   32.9480   47.4400 C   0  0  0  0  0  0  0  0  0  0  0  0
   59.3610   33.9020   47.6660 C   0  0  0  0  0  0  0  0  0  0  0  0
   58.4510   28.5890   47.2160 C   0  0  0  0  0  0  0  0  0  0  0  0
   57.7740   28.2710   46.0220 C   0  0  0  0  0  0  0  0  0  0  0  0
   56.6220   27.4670   46.0110 O   0  0  0  0  0  0  0  0  0  0  0  0
   56.6320   26.0440   45.9900 C   0  0  0  0  0  0  0  0  0  0  0  0
   56.2387   29.8327   45.0611 H   0  0  0  0  0  0  0  0  0  0  0  0
   56.0565   31.2543   43.9783 H   0  0  0  0  0  0  0  0  0  0  0  0
   54.8111   29.9598   43.9783 H   0  0  0  0  0  0  0  0  0  0  0  0
   55.9370   28.9045   42.3347 H   0  0  0  0  0  0  0  0  0  0  0  0
   57.2224   30.1680   42.3914 H   0  0  0  0  0  0  0  0  0  0  0  0
   58.1286   26.4371   43.6234 H   0  0  0  0  0  0  0  0  0  0  0  0
   57.0712   26.9113   42.2509 H   0  0  0  0  0  0  0  0  0  0  0  0
   58.8060   27.3774   42.2509 H   0  0  0  0  0  0  0  0  0  0  0  0
   59.7365   30.0321   43.8338 H   0  0  0  0  0  0  0  0  0  0  0  0
   60.9139   30.5961   45.9520 H   0  0  0  0  0  0  0  0  0  0  0  0
   60.2100   29.0280   49.2100 H   0  0  0  0  0  0  0  0  0  0  0  0
   61.7030   31.1300   46.6710 H   0  0  0  0  0  0  0  0  0  0  0  0
   61.7110   33.4608   48.6088 H   0  0  0  0  0  0  0  0  0  0  0  0
   63.2194   32.9656   47.7464 H   0  0  0  0  0  0  0  0  0  0  0  0
   62.1734   34.8327   46.5587 H   0  0  0  0  0  0  0  0  0  0  0  0
   62.0486   33.3235   45.5716 H   0  0  0  0  0  0  0  0  0  0  0  0
   60.1714   34.2342   44.3070 H   0  0  0  0  0  0  0  0  0  0  0  0
   57.7669   35.2229   45.5746 H   0  0  0  0  0  0  0  0  0  0  0  0
   57.7501   34.1081   44.1573 H   0  0  0  0  0  0  0  0  0  0  0  0
   56.4116   33.3877   46.2523 H   0  0  0  0  0  0  0  0  0  0  0  0
   57.5804   32.1889   45.5169 H   0  0  0  0  0  0  0  0  0  0  0  0
   57.4341   33.1208   48.2363 H   0  0  0  0  0  0  0  0  0  0  0  0
   58.5784   31.9255   47.4535 H   0  0  0  0  0  0  0  0  0  0  0  0
   58.9793   34.9017   47.9206 H   0  0  0  0  0  0  0  0  0  0  0  0
   59.9795   33.5120   48.4878 H   0  0  0  0  0  0  0  0  0  0  0  0
   58.0792   28.1961   48.1738 H   0  0  0  0  0  0  0  0  0  0  0  0
   56.6347   25.6621   47.0216 H   0  0  0  0  0  0  0  0  0  0  0  0
   55.7364   25.6787   45.4661 H   0  0  0  0  0  0  0  0  0  0  0  0
   57.5326   25.6913   45.4661 H   0  0  0  0  0  0  0  0  0  0  0  0
  1  2  1  0
  2  3  1  0
  3  4  1  0
  3  5  1  0
  5  6  2  0
  6  7  1  0
  7  8  2  0
  8  9  1  0
  9 10  1  0
 10 11  2  0
 10 12  1  0
 12 13  1  0
 13 14  1  0
 14 15  1  0
 15 16  2  0
 16 17  1  0
 17 18  1  0
 18 19  1  0
 19 20  1  0
  8 21  1  0
 21 22  2  0
 22 23  1  0
 23 24  1  0
 22  5  1  0
 20 15  1  0
  1 25  1  0
  1 26  1  0
  1 27  1  0
  2 28  1  0
  2 29  1  0
  4 30  1  0
  4 31  1  0
  4 32  1  0
  6 33  1  0
  7 34  1  0
  9 35  1  0
 12 36  1  0
 13 37  1  0
 13 38  1  0
 14 39  1  0
 14 40  1  0
 16 41  1  0
 17 42  1  0
 17 43  1  0
 18 44  1  0
 18 45  1  0
 19 46  1  0
 19 47  1  0
 20 48  1  0
 20 49  1  0
 21 50  1  0
 24 51  1  0
 24 52  1  0
 24 53  1  0
M  END
>  <UniqueID>  (38) 
36

>  <SMILES>  (38) 
CCN(C)c1ccc(NC(=S)NCCC2=CCCCC2)cc1OC

>  <Energy>  (38) 
51.295238529897645

>  <Genealogy>  (38) 
CCN(C)c1ccc(NC(=S)NCCC2=CCCCC2)cc1OC (3D coordinates assigned)
CCN(C)c1ccc(NC(=S)NCCC2=CCCCC2)cc1OC (nonaromatic ring conformer: 51.295238529897645 kcal/mol)

>  <smiles>  (38) 
CCN(C)c1ccc(NC(=S)NCCC2=CCCCC2)cc1OC

>  <score_type>  (38) 
oracle

>  <origin>  (38) 
adg

>  <m_score__min__energy>  (38) 
-6.9500000000000002

>  <m_primary>  (38) 
energy

$$$$
38:0
     RDKit          3D

 57 60  0  0  0  0  0  0  0  0999 V2000
   61.2420   28.6110   50.9070 C   0  0  0  0  0  0  0  0  0  0  0  0
   60.1800   28.5190   49.9610 O   0  0  0  0  0  0  0  0  0  0  0  0
   60.3510   28.4220   48.5710 C   0  0  0  0  0  0  0  0  0  0  0  0
   60.3810   27.1720   47.9180 C   0  0  0  0  0  0  0  0  0  0  0  0
   60.5330   27.0980   46.5310 C   0  0  0  0  0  0  0  0  0  0  0  0
   60.6450   28.2650   45.7770 C   0  0  0  0  0  0  0  0  0  0  0  0
   60.6200   29.5090   46.4080 C   0  0  0  0  0  0  0  0  0  0  0  0
   60.4800   29.6060   47.8070 C   0  0  0  0  0  0  0  0  0  0  0  0
   60.4610   30.9100   48.4310 N   0  0  0  0  0  0  0  0  0  0  0  0
   61.5770   31.8500   48.2100 C   0  0  0  0  0  0  0  0  0  0  0  0
   61.1650   33.3340   48.3490 C   0  0  0  0  0  0  0  0  0  0  0  0
   59.7130   33.5100   48.5210 N   0  0  0  0  0  0  0  0  0  0  0  0
   58.8860   33.6930   47.2790 C   0  0  1  0  0  0  0  0  0  0  0  0
   59.6000   34.4500   46.1220 C   0  0  0  0  0  0  0  0  0  0  0  0
   58.7210   34.6290   44.8610 C   0  0  0  0  0  0  0  0  0  0  0  0
   57.3640   33.9260   44.9600 C   0  0  0  0  0  0  0  0  0  0  0  0
   57.5540   32.5590   45.4670 N   0  0  0  0  0  0  0  0  0  0  0  0
   57.1260   31.4130   44.6890 C   0  0  0  0  0  0  0  0  0  0  0  0
   55.8960   31.2000   44.4970 O   0  0  0  0  0  0  0  0  0  0  0  0
   58.1170   30.4760   44.0460 C   0  0  0  0  0  0  0  0  0  0  0  0
   57.8680   29.0980   44.4700 N   0  0  0  0  0  0  0  0  0  0  0  0
   58.1520   27.9880   43.7580 C   0  0  0  0  0  0  0  0  0  0  0  0
   57.7590   26.8910   44.4940 C   0  0  0  0  0  0  0  0  0  0  0  0
   57.2550   27.4180   45.6700 C   0  0  0  0  0  0  0  0  0  0  0  0
   57.3380   28.7610   45.6370 N   0  0  0  0  0  0  0  0  0  0  0  0
   58.2880   32.3700   46.7300 C   0  0  0  0  0  0  0  0  0  0  0  0
   59.2180   32.7000   49.6530 C   0  0  0  0  0  0  0  0  0  0  0  0
   59.4060   31.1970   49.4160 C   0  0  0  0  0  0  0  0  0  0  0  0
   60.8294   28.5753   51.9261 H   0  0  0  0  0  0  0  0  0  0  0  0
   61.9356   27.7696   50.7625 H   0  0  0  0  0  0  0  0  0  0  0  0
   61.7806   29.5592   50.7625 H   0  0  0  0  0  0  0  0  0  0  0  0
   60.2839   26.2474   48.5059 H   0  0  0  0  0  0  0  0  0  0  0  0
   60.5643   26.1175   46.0334 H   0  0  0  0  0  0  0  0  0  0  0  0
   60.7531   28.2051   44.6840 H   0  0  0  0  0  0  0  0  0  0  0  0
   60.7107   30.4253   45.8062 H   0  0  0  0  0  0  0  0  0  0  0  0
   62.3647   31.6360   48.9474 H   0  0  0  0  0  0  0  0  0  0  0  0
   61.9251   31.7045   47.1767 H   0  0  0  0  0  0  0  0  0  0  0  0
   61.6767   33.7602   49.2245 H   0  0  0  0  0  0  0  0  0  0  0  0
   61.4525   33.8458   47.4187 H   0  0  0  0  0  0  0  0  0  0  0  0
   58.0661   34.3340   47.6353 H   0  0  0  0  0  0  0  0  0  0  0  0
   59.8917   35.4461   46.4864 H   0  0  0  0  0  0  0  0  0  0  0  0
   60.4671   33.8413   45.8261 H   0  0  0  0  0  0  0  0  0  0  0  0
   58.5462   35.7042   44.7077 H   0  0  0  0  0  0  0  0  0  0  0  0
   59.2629   34.1715   44.0201 H   0  0  0  0  0  0  0  0  0  0  0  0
   56.7115   34.4843   45.6474 H   0  0  0  0  0  0  0  0  0  0  0  0
   56.8994   33.8855   43.9638 H   0  0  0  0  0  0  0  0  0  0  0  0
   58.0201   30.5414   42.9522 H   0  0  0  0  0  0  0  0  0  0  0  0
   59.1324   30.7654   44.3545 H   0  0  0  0  0  0  0  0  0  0  0  0
   58.6172   27.9627   42.7615 H   0  0  0  0  0  0  0  0  0  0  0  0
   57.8302   25.8308   44.2094 H   0  0  0  0  0  0  0  0  0  0  0  0
   56.8482   26.8288   46.5051 H   0  0  0  0  0  0  0  0  0  0  0  0
   57.5971   31.9581   47.4803 H   0  0  0  0  0  0  0  0  0  0  0  0
   59.1251   31.6854   46.5286 H   0  0  0  0  0  0  0  0  0  0  0  0
   59.7683   32.9869   50.5612 H   0  0  0  0  0  0  0  0  0  0  0  0
   58.1403   32.8926   49.7601 H   0  0  0  0  0  0  0  0  0  0  0  0
   59.6749   30.7202   50.3701 H   0  0  0  0  0  0  0  0  0  0  0  0
   58.4602   30.8002   49.0184 H   0  0  0  0  0  0  0  0  0  0  0  0
  1  2  1  0
  2  3  1  0
  3  4  2  0
  4  5  1  0
  5  6  2  0
  6  7  1  0
  7  8  2  0
  8  9  1  0
  9 10  1  0
 10 11  1  0
 11 12  1  0
 12 13  1  0
 13 14  1  0
 14 15  1  0
 15 16  1  0
 16 17  1  0
 17 18  1  0
 18 19  2  0
 18 20  1  0
 20 21  1  0
 21 22  1  0
 22 23  2  0
 23 24  1  0
 24 25  2  0
 17 26  1  0
 12 27  1  0
 27 28  1  0
  8  3  1  0
 28  9  1  0
 26 13  1  0
 25 21  1  0
  1 29  1  0
  1 30  1  0
  1 31  1  0
  4 32  1  0
  5 33  1  0
  6 34  1  0
  7 35  1  0
 10 36  1  0
 10 37  1  0
 11 38  1  0
 11 39  1  0
 13 40  1  1
 14 41  1  0
 14 42  1  0
 15 43  1  0
 15 44  1  0
 16 45  1  0
 16 46  1  0
 20 47  1  0
 20 48  1  0
 22 49  1  0
 23 50  1  0
 24 51  1  0
 26 52  1  0
 26 53  1  0
 27 54  1  0
 27 55  1  0
 28 56  1  0
 28 57  1  0
M  END
>  <UniqueID>  (39) 
37

>  <SMILES>  (39) 
COc1ccccc1N1CCN([C@H]2CCCN(C(=O)Cn3cccn3)C2)CC1

>  <Energy>  (39) 
115.39289363340846

>  <Genealogy>  (39) 
COc1ccccc1N1CCN([C@H]2CCCN(C(=O)Cn3cccn3)C2)CC1 (chirality)
COc1ccccc1N1CCN([C@H]2CCCN(C(=O)Cn3cccn3)C2)CC1 (3D coordinates assigned)
COc1ccccc1N1CCN([C@H]2CCCN(C(=O)Cn3cccn3)C2)CC1 (nonaromatic ring conformer: 115.39289363340846 kcal/mol)

>  <smiles>  (39) 
COc1ccccc1N1CCN(C2CCCN(C(=O)Cn3cccn3)C2)CC1

>  <score_type>  (39) 
oracle

>  <origin>  (39) 
adg

>  <m_score__min__energy>  (39) 
-7.7999999999999998

>  <m_primary>  (39) 
energy

$$$$
39:0
     RDKit          3D

 31 31  0  0  0  0  0  0  0  0999 V2000
   59.4210   34.6050   45.9800 C   0  0  0  0  0  0  0  0  0  0  0  0
   58.4180   33.4970   46.2910 C   0  0  0  0  0  0  0  0  0  0  0  0
   57.3070   33.4060   45.2400 C   0  0  0  0  0  0  0  0  0  0  0  0
   57.0620   32.0120   44.8580 N   0  0  0  0  0  0  0  0  0  0  0  0
   57.4810   31.4140   43.6130 C   0  0  0  0  0  0  0  0  0  0  0  0
   58.0800   32.3340   42.3910 S   0  0  0  0  0  0  0  0  0  0  0  0
   57.3690   29.9970   43.4030 N   0  0  0  0  0  0  0  0  0  0  0  0
   56.8940   29.0760   44.4360 C   0  0  0  0  0  0  0  0  0  0  0  0
   58.0450   28.2380   44.9960 C   0  0  0  0  0  0  0  0  0  0  0  0
   58.9610   29.0850   45.7530 N   0  0  0  0  0  0  0  0  0  0  0  0
   58.6970   29.6960   46.9230 C   0  0  0  0  0  0  0  0  0  0  0  0
   59.8440   30.3390   47.3490 C   0  0  0  0  0  0  0  0  0  0  0  0
   60.7900   30.0640   46.3780 C   0  0  0  0  0  0  0  0  0  0  0  0
   60.2260   29.2980   45.4270 N   0  0  0  0  0  0  0  0  0  0  0  0
   59.8037   35.0278   46.9206 H   0  0  0  0  0  0  0  0  0  0  0  0
   60.2569   34.1901   45.3976 H   0  0  0  0  0  0  0  0  0  0  0  0
   58.9252   35.3956   45.3976 H   0  0  0  0  0  0  0  0  0  0  0  0
   58.9520   32.5359   46.3252 H   0  0  0  0  0  0  0  0  0  0  0  0
   57.9481   33.7304   47.2578 H   0  0  0  0  0  0  0  0  0  0  0  0
   56.3824   33.8336   45.6552 H   0  0  0  0  0  0  0  0  0  0  0  0
   57.6213   33.9655   44.3466 H   0  0  0  0  0  0  0  0  0  0  0  0
   56.6430   31.4050   45.5980 H   0  0  0  0  0  0  0  0  0  0  0  0
   57.6620   29.6120   42.4760 H   0  0  0  0  0  0  0  0  0  0  0  0
   56.4404   29.6556   45.2535 H   0  0  0  0  0  0  0  0  0  0  0  0
   56.1535   28.3979   43.9867 H   0  0  0  0  0  0  0  0  0  0  0  0
   57.6391   27.4588   45.6579 H   0  0  0  0  0  0  0  0  0  0  0  0
   58.5910   27.7737   44.1616 H   0  0  0  0  0  0  0  0  0  0  0  0
   57.7319   29.6854   47.4507 H   0  0  0  0  0  0  0  0  0  0  0  0
   59.9758   30.9389   48.2616 H   0  0  0  0  0  0  0  0  0  0  0  0
   61.8327   30.4143   46.3828 H   0  0  0  0  0  0  0  0  0  0  0  0
   60.7000   28.9180   44.5780 H   0  0  0  0  0  0  0  0  0  0  0  0
  1  2  1  0
  2  3  1  0
  3  4  1  0
  4  5  1  0
  5  6  2  0
  5  7  1  0
  7  8  1  0
  8  9  1  0
  9 10  1  0
 10 11  1  0
 11 12  2  0
 12 13  1  0
 13 14  2  0
 14 10  1  0
  1 15  1  0
  1 16  1  0
  1 17  1  0
  2 18  1  0
  2 19  1  0
  3 20  1  0
  3 21  1  0
  4 22  1  0
  7 23  1  0
  8 24  1  0
  8 25  1  0
  9 26  1  0
  9 27  1  0
 11 28  1  0
 12 29  1  0
 13 30  1  0
 14 31  1  0
M  CHG  1  14   1
M  END
>  <UniqueID>  (40) 
38

>  <SMILES>  (40) 
CCCNC(=S)NCCn1ccc[nH+]1

>  <Energy>  (40) 
48.87547114054004

>  <Genealogy>  (40) 
CCCNC(=S)NCCn1ccc[nH+]1 (protonated)
CCCNC(=S)NCCn1ccc[nH+]1 (3D coordinates assigned)
CCCNC(=S)NCCn1ccc[nH+]1 (optimized conformer: 48.87547114054004 kcal/mol)

>  <smiles>  (40) 
CCCNC(=S)NCCn1cccn1

>  <score_type>  (40) 
oracle

>  <origin>  (40) 
adg

>  <m_score__min__energy>  (40) 
-3.6899999999999999

>  <m_primary>  (40) 
energy

$$$$
40:0
     RDKit          3D

 23 23  0  0  0  0  0  0  0  0999 V2000
   61.0480   27.0178   45.5785 H   0  0  0  0  0  0  0  0  0  0  0  0
   60.3200   27.8390   45.5030 C   0  0  0  0  0  0  0  0  0  0  0  0
   60.7870   29.0760   45.2950 C   0  0  0  0  0  0  0  0  0  0  0  0
   61.1998   29.3431   44.3110 H   0  0  0  0  0  0  0  0  0  0  0  0
   60.7540   30.0990   46.3850 C   0  0  0  0  0  0  0  0  0  0  0  0
   60.7703   29.5942   47.3622 H   0  0  0  0  0  0  0  0  0  0  0  0
   61.6314   30.7566   46.2973 H   0  0  0  0  0  0  0  0  0  0  0  0
   59.8360   30.6987   46.2973 H   0  0  0  0  0  0  0  0  0  0  0  0
   58.8790   27.5080   45.6380 C   0  0  0  0  0  0  0  0  0  0  0  0
   58.4310   26.3080   46.2240 C   0  0  0  0  0  0  0  0  0  0  0  0
   59.1615   25.5737   46.5944 H   0  0  0  0  0  0  0  0  0  0  0  0
   57.0640   26.0460   46.3370 C   0  0  0  0  0  0  0  0  0  0  0  0
   56.7232   25.1024   46.7882 H   0  0  0  0  0  0  0  0  0  0  0  0
   56.1270   26.9760   45.8800 C   0  0  0  0  0  0  0  0  0  0  0  0
   54.7700   26.7000   46.0000 O   0  0  0  0  0  0  0  0  0  0  0  0
   56.5500   28.1820   45.3070 C   0  0  0  0  0  0  0  0  0  0  0  0
   55.5750   29.0910   44.8660 O   0  0  0  0  0  0  0  0  0  0  0  0
   55.7860   30.0720   43.8560 C   0  0  0  0  0  0  0  0  0  0  0  0
   55.9950   31.0439   44.3268 H   0  0  0  0  0  0  0  0  0  0  0  0
   56.6411   29.7762   43.2304 H   0  0  0  0  0  0  0  0  0  0  0  0
   54.8849   30.1539   43.2304 H   0  0  0  0  0  0  0  0  0  0  0  0
   57.9300   28.4440   45.1930 C   0  0  0  0  0  0  0  0  0  0  0  0
   58.2683   29.3925   44.7504 H   0  0  0  0  0  0  0  0  0  0  0  0
  1  2  1  0
  2  3  2  0
  3  4  1  0
  3  5  1  0
  5  6  1  0
  5  7  1  0
  5  8  1  0
  2  9  1  0
  9 10  2  0
 10 11  1  0
 10 12  1  0
 12 13  1  0
 12 14  2  0
 14 15  1  0
 14 16  1  0
 16 17  1  0
 17 18  1  0
 18 19  1  0
 18 20  1  0
 18 21  1  0
 16 22  2  0
 22 23  1  0
 22  9  1  0
M  CHG  1  15  -1
M  END
>  <UniqueID>  (41) 
39

>  <SMILES>  (41) 
C/C=C/c1ccc([O-])c(OC)c1

>  <Energy>  (41) 
20.057533912270454

>  <Genealogy>  (41) 
CC=Cc1ccc([O-])c(OC)c1 (protonated)
C/C=C/c1ccc([O-])c(OC)c1 (cis-trans isomerization)
C/C=C/c1ccc([O-])c(OC)c1 (3D coordinates assigned)
C/C=C/c1ccc([O-])c(OC)c1 (optimized conformer: 20.057533912270454 kcal/mol)

>  <smiles>  (41) 
CC=Cc1ccc(O)c(OC)c1

>  <score_type>  (41) 
oracle

>  <origin>  (41) 
adg

>  <m_score__min__energy>  (41) 
-9.5700000000000003

>  <m_primary>  (41) 
energy

$$$$
41:0
     RDKit          3D

 35 38  0  0  0  0  0  0  0  0999 V2000
   58.8800   34.9390   46.5640 C   0  0  0  0  0  0  0  0  0  0  0  0
   58.8260   33.5120   46.1130 C   0  0  0  0  0  0  0  0  0  0  0  0
   57.7450   32.9530   45.4550 C   0  0  0  0  0  0  0  0  0  0  0  0
   58.0240   31.6120   45.2940 C   0  0  0  0  0  0  0  0  0  0  0  0
   59.2650   31.4010   45.8710 C   0  0  0  0  0  0  0  0  0  0  0  0
   59.7730   32.5650   46.3330 N   0  0  0  0  0  0  0  0  0  0  0  0
   61.0880   32.6810   46.9170 C   0  0  0  0  0  0  0  0  0  0  0  0
   61.8700   33.8410   46.7540 C   0  0  0  0  0  0  0  0  0  0  0  0
   63.1930   33.8720   47.2020 C   0  0  0  0  0  0  0  0  0  0  0  0
   63.7660   32.7390   47.7820 C   0  0  0  0  0  0  0  0  0  0  0  0
   63.0170   31.5680   47.9130 C   0  0  0  0  0  0  0  0  0  0  0  0
   61.6830   31.5370   47.4920 C   0  0  0  0  0  0  0  0  0  0  0  0
   60.7370   30.0150   47.6780 S   0  0  0  0  0  0  0  0  0  0  0  0
   60.0050   30.0910   46.0000 C   0  0  1  0  0  0  0  0  0  0  0  0
   59.1130   28.8880   45.7760 C   0  0  0  0  0  0  0  0  0  0  0  0
   58.4700   28.2720   46.8650 C   0  0  0  0  0  0  0  0  0  0  0  0
   57.6550   27.1530   46.6650 C   0  0  0  0  0  0  0  0  0  0  0  0
   57.4770   26.6370   45.3790 C   0  0  0  0  0  0  0  0  0  0  0  0
   58.1130   27.2370   44.2910 C   0  0  0  0  0  0  0  0  0  0  0  0
   58.9280   28.3560   44.4850 C   0  0  0  0  0  0  0  0  0  0  0  0
   58.8814   34.9763   47.6634 H   0  0  0  0  0  0  0  0  0  0  0  0
   59.7966   35.4105   46.1800 H   0  0  0  0  0  0  0  0  0  0  0  0
   58.0016   35.4784   46.1800 H   0  0  0  0  0  0  0  0  0  0  0  0
   56.8368   33.4777   45.1237 H   0  0  0  0  0  0  0  0  0  0  0  0
   57.3876   30.8599   44.8048 H   0  0  0  0  0  0  0  0  0  0  0  0
   61.4361   34.7287   46.2706 H   0  0  0  0  0  0  0  0  0  0  0  0
   63.7854   34.7929   47.0972 H   0  0  0  0  0  0  0  0  0  0  0  0
   64.8072   32.7687   48.1357 H   0  0  0  0  0  0  0  0  0  0  0  0
   63.4765   30.6682   48.3480 H   0  0  0  0  0  0  0  0  0  0  0  0
   60.7808   30.0549   45.2210 H   0  0  0  0  0  0  0  0  0  0  0  0
   58.6090   28.6727   47.8799 H   0  0  0  0  0  0  0  0  0  0  0  0
   57.1535   26.6786   47.5214 H   0  0  0  0  0  0  0  0  0  0  0  0
   56.8352   25.7572   45.2238 H   0  0  0  0  0  0  0  0  0  0  0  0
   57.9727   26.8286   43.2793 H   0  0  0  0  0  0  0  0  0  0  0  0
   59.4279   28.8240   43.6241 H   0  0  0  0  0  0  0  0  0  0  0  0
  1  2  1  0
  2  3  2  0
  3  4  1  0
  4  5  2  0
  5  6  1  0
  6  7  1  0
  7  8  2  0
  8  9  1  0
  9 10  2  0
 10 11  1  0
 11 12  2  0
 12 13  1  0
 13 14  1  0
 14 15  1  0
 15 16  2  0
 16 17  1  0
 17 18  2  0
 18 19  1  0
 19 20  2  0
  6  2  1  0
 12  7  1  0
 20 15  1  0
 14  5  1  0
  1 21  1  0
  1 22  1  0
  1 23  1  0
  3 24  1  0
  4 25  1  0
  8 26  1  0
  9 27  1  0
 10 28  1  0
 11 29  1  0
 14 30  1  6
 16 31  1  0
 17 32  1  0
 18 33  1  0
 19 34  1  0
 20 35  1  0
M  END
>  <UniqueID>  (42) 
40

>  <SMILES>  (42) 
Cc1ccc2n1-c1ccccc1S[C@H]2c1ccccc1

>  <Energy>  (42) 
76.49346473796591

>  <Genealogy>  (42) 
Cc1ccc2n1-c1ccccc1S[C@H]2c1ccccc1 (chirality)
Cc1ccc2n1-c1ccccc1S[C@H]2c1ccccc1 (3D coordinates assigned)
Cc1ccc2n1-c1ccccc1S[C@H]2c1ccccc1 (nonaromatic ring conformer: 76.49346473796591 kcal/mol)

>  <smiles>  (42) 
Cc1ccc2n1-c1ccccc1SC2c1ccccc1

>  <score_type>  (42) 
oracle

>  <origin>  (42) 
adg

>  <m_score__min__energy>  (42) 
-7.3799999999999999

>  <m_primary>  (42) 
energy

$$$$
42:0
     RDKit          3D

 39 41  0  0  0  0  0  0  0  0999 V2000
   63.5670   32.9420   49.0320 C   0  0  0  0  0  0  0  0  0  0  0  0
   62.4740   32.0940   49.3620 O   0  0  0  0  0  0  0  0  0  0  0  0
   61.8180   31.3060   48.4130 C   0  0  0  0  0  0  0  0  0  0  0  0
   62.2050   31.2460   47.1220 N   0  0  0  0  0  0  0  0  0  0  0  0
   61.4550   30.4280   46.3850 N   0  0  0  0  0  0  0  0  0  0  0  0
   60.4570   29.8320   47.0790 C   0  0  0  0  0  0  0  0  0  0  0  0
   59.5240   28.8460   46.4870 C   0  0  0  0  0  0  0  0  0  0  0  0
   59.0880   27.7440   47.2420 C   0  0  0  0  0  0  0  0  0  0  0  0
   58.1540   26.8490   46.7150 C   0  0  0  0  0  0  0  0  0  0  0  0
   57.6370   27.0470   45.4330 C   0  0  0  0  0  0  0  0  0  0  0  0
   58.0710   28.1310   44.6540 C   0  0  0  0  0  0  0  0  0  0  0  0
   57.4890   28.3760   43.3540 N   0  0  0  0  0  0  0  0  0  0  0  0
   57.0260   29.7690   43.2290 C   0  0  0  0  0  0  0  0  0  0  0  0
   56.1680   30.1710   44.3950 C   0  0  0  0  0  0  0  0  0  0  0  0
   55.3440   29.3470   44.8710 O   0  0  0  0  0  0  0  0  0  0  0  0
   56.2090   31.5280   44.8590 N   0  0  0  0  0  0  0  0  0  0  0  0
   57.3770   32.2990   45.1710 C   0  0  0  0  0  0  0  0  0  0  0  0
   57.9690   32.2950   46.4450 C   0  0  0  0  0  0  0  0  0  0  0  0
   59.1020   33.0740   46.6890 C   0  0  0  0  0  0  0  0  0  0  0  0
   59.6410   33.8400   45.6550 C   0  0  0  0  0  0  0  0  0  0  0  0
   59.0720   33.8150   44.4210 N   0  0  0  0  0  0  0  0  0  0  0  0
   57.9700   33.0640   44.1580 C   0  0  0  0  0  0  0  0  0  0  0  0
   59.0260   29.0180   45.1840 C   0  0  0  0  0  0  0  0  0  0  0  0
   60.4830   30.3170   48.6980 S   0  0  0  0  0  0  0  0  0  0  0  0
   64.0389   33.3081   49.9557 H   0  0  0  0  0  0  0  0  0  0  0  0
   64.3043   32.3773   48.4425 H   0  0  0  0  0  0  0  0  0  0  0  0
   63.2032   33.7965   48.4425 H   0  0  0  0  0  0  0  0  0  0  0  0
   59.4851   27.5850   48.2554 H   0  0  0  0  0  0  0  0  0  0  0  0
   57.8247   25.9856   47.3117 H   0  0  0  0  0  0  0  0  0  0  0  0
   56.8862   26.3503   45.0318 H   0  0  0  0  0  0  0  0  0  0  0  0
   58.1820   28.1590   42.5990 H   0  0  0  0  0  0  0  0  0  0  0  0
   56.6720   27.7370   43.2130 H   0  0  0  0  0  0  0  0  0  0  0  0
   57.9012   30.4338   43.1833 H   0  0  0  0  0  0  0  0  0  0  0  0
   56.4233   29.8514   42.3125 H   0  0  0  0  0  0  0  0  0  0  0  0
   57.5406   31.6790   47.2494 H   0  0  0  0  0  0  0  0  0  0  0  0
   59.5650   33.0836   47.6868 H   0  0  0  0  0  0  0  0  0  0  0  0
   60.5275   34.4649   45.8387 H   0  0  0  0  0  0  0  0  0  0  0  0
   57.5416   33.0568   43.1449 H   0  0  0  0  0  0  0  0  0  0  0  0
   59.3874   29.8567   44.5708 H   0  0  0  0  0  0  0  0  0  0  0  0
  1  2  1  0
  2  3  1  0
  3  4  2  0
  4  5  1  0
  5  6  2  0
  6  7  1  0
  7  8  2  0
  8  9  1  0
  9 10  2  0
 10 11  1  0
 11 12  1  0
 12 13  1  0
 13 14  1  0
 14 15  2  0
 14 16  1  0
 16 17  1  0
 17 18  2  0
 18 19  1  0
 19 20  2  0
 20 21  1  0
 21 22  2  0
 11 23  2  0
  6 24  1  0
 24  3  1  0
 23  7  1  0
 22 17  1  0
  1 25  1  0
  1 26  1  0
  1 27  1  0
  8 28  1  0
  9 29  1  0
 10 30  1  0
 12 31  1  0
 12 32  1  0
 13 33  1  0
 13 34  1  0
 18 35  1  0
 19 36  1  0
 20 37  1  0
 22 38  1  0
 23 39  1  0
M  CHG  2  12   1  16  -1
M  END
>  <UniqueID>  (43) 
41

>  <SMILES>  (43) 
COc1nnc(-c2cccc([NH2+]CC(=O)[N-]c3cccnc3)c2)s1

>  <Energy>  (43) 
76.80863081376104

>  <Genealogy>  (43) 
COc1nnc(-c2cccc([NH2+]CC(=O)[N-]c3cccnc3)c2)s1 (protonated)
COc1nnc(-c2cccc([NH2+]CC(=O)[N-]c3cccnc3)c2)s1 (3D coordinates assigned)
COc1nnc(-c2cccc([NH2+]CC(=O)[N-]c3cccnc3)c2)s1 (optimized conformer: 76.80863081376104 kcal/mol)

>  <smiles>  (43) 
COc1nnc(-c2cccc(NCC(=O)Nc3cccnc3)c2)s1

>  <score_type>  (43) 
oracle

>  <origin>  (43) 
adg

>  <m_score__min__energy>  (43) 
-8.0999999999999996

>  <m_primary>  (43) 
energy

$$$$
43:0
     RDKit          3D

 35 36  0  0  0  0  0  0  0  0999 V2000
   56.6220   23.4320   47.6250 C   0  0  0  0  0  0  0  0  0  0  0  0
   56.3770   24.8280   47.7550 O   0  0  0  0  0  0  0  0  0  0  0  0
   57.0260   25.8230   47.0050 C   0  0  0  0  0  0  0  0  0  0  0  0
   58.4030   26.0800   47.1390 C   0  0  0  0  0  0  0  0  0  0  0  0
   59.0140   27.0760   46.3740 C   0  0  0  0  0  0  0  0  0  0  0  0
   58.2640   27.8220   45.4560 C   0  0  0  0  0  0  0  0  0  0  0  0
   58.9140   28.9200   44.6660 C   0  0  0  0  0  0  0  0  0  0  0  0
   57.8870   29.7120   44.0030 N   0  0  0  0  0  0  0  0  0  0  0  0
   57.0740   30.6670   44.6930 C   0  0  0  0  0  0  0  0  0  0  0  0
   55.8470   30.4340   44.8650 O   0  0  0  0  0  0  0  0  0  0  0  0
   57.6720   31.9230   45.2020 C   0  0  0  0  0  0  0  0  0  0  0  0
   58.1500   32.0070   46.5220 C   0  0  0  0  0  0  0  0  0  0  0  0
   58.7070   33.2030   46.9810 C   0  0  0  0  0  0  0  0  0  0  0  0
   58.7880   34.2800   46.1570 N   0  0  0  0  0  0  0  0  0  0  0  0
   58.3360   34.2310   44.8770 C   0  0  0  0  0  0  0  0  0  0  0  0
   57.7700   33.0560   44.3760 C   0  0  0  0  0  0  0  0  0  0  0  0
   56.8880   27.5800   45.3300 C   0  0  0  0  0  0  0  0  0  0  0  0
   56.2640   26.5780   46.0990 C   0  0  0  0  0  0  0  0  0  0  0  0
   54.8920   26.3030   45.9920 O   0  0  0  0  0  0  0  0  0  0  0  0
   54.3480   25.0410   45.6190 C   0  0  0  0  0  0  0  0  0  0  0  0
   56.7015   22.9791   48.6243 H   0  0  0  0  0  0  0  0  0  0  0  0
   55.7923   22.9638   47.0751 H   0  0  0  0  0  0  0  0  0  0  0  0
   57.5616   23.2743   47.0751 H   0  0  0  0  0  0  0  0  0  0  0  0
   59.0019   25.4928   47.8507 H   0  0  0  0  0  0  0  0  0  0  0  0
   60.0892   27.2755   46.4930 H   0  0  0  0  0  0  0  0  0  0  0  0
   59.4949   29.5644   45.3423 H   0  0  0  0  0  0  0  0  0  0  0  0
   59.5847   28.4826   43.9118 H   0  0  0  0  0  0  0  0  0  0  0  0
   58.0856   31.1352   47.1897 H   0  0  0  0  0  0  0  0  0  0  0  0
   59.0812   33.2729   48.0130 H   0  0  0  0  0  0  0  0  0  0  0  0
   58.4158   35.1191   44.2329 H   0  0  0  0  0  0  0  0  0  0  0  0
   57.4027   33.0178   43.3398 H   0  0  0  0  0  0  0  0  0  0  0  0
   56.2914   28.1775   44.6250 H   0  0  0  0  0  0  0  0  0  0  0  0
   54.1004   24.4666   46.5238 H   0  0  0  0  0  0  0  0  0  0  0  0
   53.4369   25.1963   45.0225 H   0  0  0  0  0  0  0  0  0  0  0  0
   55.0865   24.4852   45.0225 H   0  0  0  0  0  0  0  0  0  0  0  0
  1  2  1  0
  2  3  1  0
  3  4  2  0
  4  5  1  0
  5  6  2  0
  6  7  1  0
  7  8  1  0
  8  9  1  0
  9 10  2  0
  9 11  1  0
 11 12  2  0
 12 13  1  0
 13 14  2  0
 14 15  1  0
 15 16  2  0
  6 17  1  0
 17 18  2  0
 18 19  1  0
 19 20  1  0
 18  3  1  0
 16 11  1  0
  1 21  1  0
  1 22  1  0
  1 23  1  0
  4 24  1  0
  5 25  1  0
  7 26  1  0
  7 27  1  0
 12 28  1  0
 13 29  1  0
 15 30  1  0
 16 31  1  0
 17 32  1  0
 20 33  1  0
 20 34  1  0
 20 35  1  0
M  CHG  1   8  -1
M  END
>  <UniqueID>  (44) 
42

>  <SMILES>  (44) 
COc1ccc(C[N-]C(=O)c2ccncc2)cc1OC

>  <Energy>  (44) 
33.1243743290129

>  <Genealogy>  (44) 
COc1ccc(C[N-]C(=O)c2ccncc2)cc1OC (protonated)
COc1ccc(C[N-]C(=O)c2ccncc2)cc1OC (3D coordinates assigned)
COc1ccc(C[N-]C(=O)c2ccncc2)cc1OC (optimized conformer: 33.1243743290129 kcal/mol)

>  <smiles>  (44) 
COc1ccc(CNC(=O)c2ccncc2)cc1OC

>  <score_type>  (44) 
oracle

>  <origin>  (44) 
adg

>  <m_score__min__energy>  (44) 
-8.1099999999999994

>  <m_primary>  (44) 
energy

$$$$
44:0
     RDKit          3D

 37 40  0  0  0  0  0  0  0  0999 V2000
   63.0160   34.1270   49.9990 C   0  0  0  0  0  0  0  0  0  0  0  0
   61.9480   34.6000   49.1820 O   0  0  0  0  0  0  0  0  0  0  0  0
   61.1860   33.7890   48.3280 C   0  0  0  0  0  0  0  0  0  0  0  0
   59.9630   34.2130   47.7770 C   0  0  0  0  0  0  0  0  0  0  0  0
   59.2400   33.3670   46.9310 C   0  0  0  0  0  0  0  0  0  0  0  0
   59.7180   32.0800   46.6250 C   0  0  0  0  0  0  0  0  0  0  0  0
   58.9380   31.1990   45.7190 C   0  0  0  0  0  0  0  0  0  0  0  0
   58.7590   29.8170   46.0050 C   0  0  0  0  0  0  0  0  0  0  0  0
   58.0120   29.0180   45.1150 C   0  0  0  0  0  0  0  0  0  0  0  0
   57.8200   27.5730   45.3670 C   0  0  0  0  0  0  0  0  0  0  0  0
   57.9420   26.6450   44.3170 C   0  0  0  0  0  0  0  0  0  0  0  0
   57.7750   25.2790   44.5600 C   0  0  0  0  0  0  0  0  0  0  0  0
   57.4930   24.8270   45.8520 C   0  0  0  0  0  0  0  0  0  0  0  0
   57.3810   25.7400   46.9030 C   0  0  0  0  0  0  0  0  0  0  0  0
   57.5480   27.1090   46.6650 C   0  0  0  0  0  0  0  0  0  0  0  0
   57.4910   29.6380   44.0240 N   0  0  0  0  0  0  0  0  0  0  0  0
   56.7020   29.1840   43.0690 N   0  0  0  0  0  0  0  0  0  0  0  0
   56.4020   30.1860   42.2500 N   0  0  0  0  0  0  0  0  0  0  0  0
   56.9880   31.3080   42.6670 N   0  0  0  0  0  0  0  0  0  0  0  0
   57.6540   30.9340   43.7740 C   0  0  0  0  0  0  0  0  0  0  0  0
   58.3640   31.7370   44.5980 N   0  0  0  0  0  0  0  0  0  0  0  0
   60.9470   31.6660   47.1720 C   0  0  0  0  0  0  0  0  0  0  0  0
   61.6690   32.5140   48.0160 C   0  0  0  0  0  0  0  0  0  0  0  0
   62.7472   34.2460   51.0590 H   0  0  0  0  0  0  0  0  0  0  0  0
   63.1988   33.0638   49.7842 H   0  0  0  0  0  0  0  0  0  0  0  0
   63.9262   34.7062   49.7842 H   0  0  0  0  0  0  0  0  0  0  0  0
   59.5740   35.2145   48.0129 H   0  0  0  0  0  0  0  0  0  0  0  0
   58.2881   33.7111   46.5004 H   0  0  0  0  0  0  0  0  0  0  0  0
   59.1990   29.3760   46.9116 H   0  0  0  0  0  0  0  0  0  0  0  0
   58.1699   26.9962   43.2998 H   0  0  0  0  0  0  0  0  0  0  0  0
   57.8656   24.5588   43.7335 H   0  0  0  0  0  0  0  0  0  0  0  0
   57.3592   23.7517   46.0413 H   0  0  0  0  0  0  0  0  0  0  0  0
   57.1611   25.3824   47.9197 H   0  0  0  0  0  0  0  0  0  0  0  0
   57.4660   27.8241   47.4969 H   0  0  0  0  0  0  0  0  0  0  0  0
   56.3340   28.2110   42.9800 H   0  0  0  0  0  0  0  0  0  0  0  0
   61.3421   30.6675   46.9334 H   0  0  0  0  0  0  0  0  0  0  0  0
   62.6263   32.1756   48.4390 H   0  0  0  0  0  0  0  0  0  0  0  0
  1  2  1  0
  2  3  1  0
  3  4  2  0
  4  5  1  0
  5  6  2  0
  6  7  1  0
  7  8  1  0
  8  9  2  0
  9 10  1  0
 10 11  2  0
 11 12  1  0
 12 13  2  0
 13 14  1  0
 14 15  2  0
  9 16  1  0
 16 17  1  0
 17 18  2  0
 18 19  1  0
 19 20  2  0
 20 21  1  0
  6 22  1  0
 22 23  2  0
 23  3  1  0
 21  7  2  0
 15 10  1  0
 20 16  1  0
  1 24  1  0
  1 25  1  0
  1 26  1  0
  4 27  1  0
  5 28  1  0
  8 29  1  0
 11 30  1  0
 12 31  1  0
 13 32  1  0
 14 33  1  0
 15 34  1  0
 17 35  1  0
 22 36  1  0
 23 37  1  0
M  CHG  1  17   1
M  END
>  <UniqueID>  (45) 
43

>  <SMILES>  (45) 
COc1ccc(-c2cc(-c3ccccc3)n3[nH+]nnc3n2)cc1

>  <Energy>  (45) 
100.39746792479005

>  <Genealogy>  (45) 
COc1ccc(-c2cc(-c3ccccc3)n3[nH+]nnc3n2)cc1 (protonated)
COc1ccc(-c2cc(-c3ccccc3)n3[nH+]nnc3n2)cc1 (3D coordinates assigned)
COc1ccc(-c2cc(-c3ccccc3)n3[nH+]nnc3n2)cc1 (optimized conformer: 100.39746792479005 kcal/mol)

>  <smiles>  (45) 
COc1ccc(-c2cc(-c3ccccc3)n3nnnc3n2)cc1

>  <score_type>  (45) 
oracle

>  <origin>  (45) 
adg

>  <m_score__min__energy>  (45) 
-6.3700000000000001

>  <m_primary>  (45) 
energy

$$$$
45:0
     RDKit          3D

 54 56  0  0  0  0  0  0  0  0999 V2000
   62.2250   31.2120   49.2380 C   0  0  0  0  0  0  0  0  0  0  0  0
   61.4260   32.2080   48.4500 C   0  0  0  0  0  0  0  0  0  0  0  0
   61.8260   32.5710   47.1560 C   0  0  0  0  0  0  0  0  0  0  0  0
   61.0620   33.4710   46.4070 C   0  0  0  0  0  0  0  0  0  0  0  0
   59.8790   34.0090   46.9380 C   0  0  0  0  0  0  0  0  0  0  0  0
   59.0430   34.9720   46.1360 C   0  0  0  0  0  0  0  0  0  0  0  0
   58.1130   34.2380   45.2540 N   0  0  0  0  0  0  0  0  0  0  0  0
   57.2640   33.2750   46.0070 C   0  0  0  0  0  0  0  0  0  0  0  0
   57.7740   31.8280   45.8950 C   0  0  0  0  0  0  0  0  0  0  0  0
   57.8620   31.3660   44.4830 N   0  0  0  0  0  0  0  0  0  0  0  0
   56.7060   30.5660   44.1260 C   0  0  0  0  0  0  0  0  0  0  0  0
   55.5900   30.8950   44.5120 O   0  0  0  0  0  0  0  0  0  0  0  0
   56.8740   29.3490   43.2430 C   0  0  0  0  0  0  0  0  0  0  0  0
   57.8550   28.3170   43.8190 C   0  0  0  0  0  0  0  0  0  0  0  0
   58.3000   28.7240   45.1620 N   0  0  0  0  0  0  0  0  0  0  0  0
   58.1160   27.6560   46.1780 C   0  0  0  0  0  0  0  0  0  0  0  0
   59.1110   27.8230   47.3220 C   0  0  0  0  0  0  0  0  0  0  0  0
   60.5430   27.8240   46.7770 C   0  0  0  0  0  0  0  0  0  0  0  0
   60.5740   28.3240   45.3280 C   0  0  0  0  0  0  0  0  0  0  0  0
   59.5600   29.2930   45.1180 O   0  0  0  0  0  0  0  0  0  0  0  0
   58.0410   32.4700   43.5070 C   0  0  0  0  0  0  0  0  0  0  0  0
   58.8430   33.6220   44.1220 C   0  0  0  0  0  0  0  0  0  0  0  0
   59.4710   33.6320   48.2270 C   0  0  0  0  0  0  0  0  0  0  0  0
   60.2350   32.7320   48.9760 C   0  0  0  0  0  0  0  0  0  0  0  0
   62.0794   31.3935   50.3131 H   0  0  0  0  0  0  0  0  0  0  0  0
   61.8901   30.1942   48.9893 H   0  0  0  0  0  0  0  0  0  0  0  0
   63.2912   31.3182   48.9893 H   0  0  0  0  0  0  0  0  0  0  0  0
   62.7456   32.1455   46.7280 H   0  0  0  0  0  0  0  0  0  0  0  0
   61.3893   33.7589   45.3971 H   0  0  0  0  0  0  0  0  0  0  0  0
   58.4650   35.6084   46.8223 H   0  0  0  0  0  0  0  0  0  0  0  0
   59.7086   35.5905   45.5159 H   0  0  0  0  0  0  0  0  0  0  0  0
   57.2569   33.5655   47.0679 H   0  0  0  0  0  0  0  0  0  0  0  0
   56.2542   33.3083   45.5720 H   0  0  0  0  0  0  0  0  0  0  0  0
   58.7743   31.7697   46.3489 H   0  0  0  0  0  0  0  0  0  0  0  0
   57.0565   31.1778   46.4169 H   0  0  0  0  0  0  0  0  0  0  0  0
   58.7130   30.7570   44.4140 H   0  0  0  0  0  0  0  0  0  0  0  0
   55.8925   28.8680   43.1195 H   0  0  0  0  0  0  0  0  0  0  0  0
   57.2872   29.6944   42.2839 H   0  0  0  0  0  0  0  0  0  0  0  0
   57.3554   27.3392   43.8838 H   0  0  0  0  0  0  0  0  0  0  0  0
   58.7317   28.2511   43.1579 H   0  0  0  0  0  0  0  0  0  0  0  0
   57.0929   27.7109   46.5784 H   0  0  0  0  0  0  0  0  0  0  0  0
   58.2870   26.6801   45.7002 H   0  0  0  0  0  0  0  0  0  0  0  0
   58.9169   28.7753   47.8371 H   0  0  0  0  0  0  0  0  0  0  0  0
   58.9940   26.9864   48.0265 H   0  0  0  0  0  0  0  0  0  0  0  0
   61.1653   28.4838   47.3995 H   0  0  0  0  0  0  0  0  0  0  0  0
   60.9308   26.7950   46.8031 H   0  0  0  0  0  0  0  0  0  0  0  0
   61.5555   28.7757   45.1213 H   0  0  0  0  0  0  0  0  0  0  0  0
   60.4000   27.4731   44.6529 H   0  0  0  0  0  0  0  0  0  0  0  0
   58.5778   32.0879   42.6262 H   0  0  0  0  0  0  0  0  0  0  0  0
   57.0488   32.8480   43.2195 H   0  0  0  0  0  0  0  0  0  0  0  0
   59.8067   33.2349   44.4846 H   0  0  0  0  0  0  0  0  0  0  0  0
   58.9993   34.3892   43.3494 H   0  0  0  0  0  0  0  0  0  0  0  0
   58.5445   34.0472   48.6505 H   0  0  0  0  0  0  0  0  0  0  0  0
   59.9015   32.4336   49.9809 H   0  0  0  0  0  0  0  0  0  0  0  0
  1  2  1  0
  2  3  2  0
  3  4  1  0
  4  5  2  0
  5  6  1  0
  6  7  1  0
  7  8  1  0
  8  9  1  0
  9 10  1  0
 10 11  1  0
 11 12  2  0
 11 13  1  0
 13 14  1  0
 14 15  1  0
 15 16  1  0
 16 17  1  0
 17 18  1  0
 18 19  1  0
 19 20  1  0
 10 21  1  0
 21 22  1  0
  5 23  1  0
 23 24  2  0
 24  2  1  0
 22  7  1  0
 20 15  1  0
  1 25  1  0
  1 26  1  0
  1 27  1  0
  3 28  1  0
  4 29  1  0
  6 30  1  0
  6 31  1  0
  8 32  1  0
  8 33  1  0
  9 34  1  0
  9 35  1  0
 10 36  1  0
 13 37  1  0
 13 38  1  0
 14 39  1  0
 14 40  1  0
 16 41  1  0
 16 42  1  0
 17 43  1  0
 17 44  1  0
 18 45  1  0
 18 46  1  0
 19 47  1  0
 19 48  1  0
 21 49  1  0
 21 50  1  0
 22 51  1  0
 22 52  1  0
 23 53  1  0
 24 54  1  0
M  CHG  1  10   1
M  END
>  <UniqueID>  (46) 
44

>  <SMILES>  (46) 
Cc1ccc(CN2CC[NH+](C(=O)CCN3CCCCO3)CC2)cc1

>  <Energy>  (46) 
77.87377784338545

>  <Genealogy>  (46) 
Cc1ccc(CN2CC[NH+](C(=O)CCN3CCCCO3)CC2)cc1 (protonated)
Cc1ccc(CN2CC[NH+](C(=O)CCN3CCCCO3)CC2)cc1 (3D coordinates assigned)
Cc1ccc(CN2CC[NH+](C(=O)CCN3CCCCO3)CC2)cc1 (nonaromatic ring conformer: 77.87377784338545 kcal/mol)

>  <smiles>  (46) 
Cc1ccc(CN2CCN(C(=O)CCN3CCCCO3)CC2)cc1

>  <score_type>  (46) 
oracle

>  <origin>  (46) 
adg

>  <m_score__min__energy>  (46) 
-6.1500000000000004

>  <m_primary>  (46) 
energy

$$$$
46:0
     RDKit          3D

 45 47  0  0  0  0  0  0  0  0999 V2000
   56.0030   31.2250   44.3890 O   0  0  0  0  0  0  0  0  0  0  0  0
   56.8620   30.4140   44.8270 C   0  0  0  0  0  0  0  0  0  0  0  0
   58.3220   30.7740   44.7360 C   0  0  0  0  0  0  0  0  0  0  0  0
   58.5600   32.1340   45.2650 N   0  0  0  0  0  0  0  0  0  0  0  0
   58.2600   33.1760   44.2520 C   0  0  0  0  0  0  0  0  0  0  0  0
   58.4250   34.5640   44.8830 C   0  0  0  0  0  0  0  0  0  0  0  0
   59.7170   34.7270   45.6990 C   0  0  0  0  0  0  0  0  0  0  0  0
   59.7520   33.8460   46.8750 N   0  0  0  0  0  0  0  0  0  0  0  0
   61.0010   33.3580   47.4020 C   0  0  0  0  0  0  0  0  0  0  0  0
   62.2020   33.6060   46.7150 C   0  0  0  0  0  0  0  0  0  0  0  0
   63.4170   33.1400   47.2250 C   0  0  0  0  0  0  0  0  0  0  0  0
   63.4440   32.4210   48.4240 C   0  0  0  0  0  0  0  0  0  0  0  0
   64.6240   31.9710   48.9190 F   0  0  0  0  0  0  0  0  0  0  0  0
   62.2540   32.1680   49.1120 C   0  0  0  0  0  0  0  0  0  0  0  0
   61.0370   32.6310   48.6040 C   0  0  0  0  0  0  0  0  0  0  0  0
   58.4820   33.3830   47.4460 C   0  0  0  0  0  0  0  0  0  0  0  0
   57.8110   32.3500   46.5270 C   0  0  0  0  0  0  0  0  0  0  0  0
   56.4210   29.1540   45.3470 N   0  0  0  0  0  0  0  0  0  0  0  0
   57.2330   27.9910   45.5620 C   0  0  0  0  0  0  0  0  0  0  0  0
   58.6370   28.0550   45.5090 C   0  0  0  0  0  0  0  0  0  0  0  0
   59.4030   26.9120   45.7530 C   0  0  0  0  0  0  0  0  0  0  0  0
   58.7780   25.7030   46.0700 C   0  0  0  0  0  0  0  0  0  0  0  0
   59.5250   24.5970   46.3090 F   0  0  0  0  0  0  0  0  0  0  0  0
   57.3830   25.6380   46.1530 C   0  0  0  0  0  0  0  0  0  0  0  0
   56.7770   24.4680   46.4730 F   0  0  0  0  0  0  0  0  0  0  0  0
   56.6130   26.7820   45.9090 C   0  0  0  0  0  0  0  0  0  0  0  0
   55.2600   26.7110   45.9970 F   0  0  0  0  0  0  0  0  0  0  0  0
   58.9091   30.0512   45.3215 H   0  0  0  0  0  0  0  0  0  0  0  0
   58.6271   30.7476   43.6795 H   0  0  0  0  0  0  0  0  0  0  0  0
   58.9534   33.0737   43.4042 H   0  0  0  0  0  0  0  0  0  0  0  0
   57.2261   33.0551   43.8964 H   0  0  0  0  0  0  0  0  0  0  0  0
   58.4274   35.3128   44.0772 H   0  0  0  0  0  0  0  0  0  0  0  0
   57.5865   34.6989   45.5821 H   0  0  0  0  0  0  0  0  0  0  0  0
   60.5750   34.4885   45.0533 H   0  0  0  0  0  0  0  0  0  0  0  0
   59.7585   35.7662   46.0572 H   0  0  0  0  0  0  0  0  0  0  0  0
   62.1855   34.1700   45.7707 H   0  0  0  0  0  0  0  0  0  0  0  0
   64.3530   33.3391   46.6826 H   0  0  0  0  0  0  0  0  0  0  0  0
   62.2753   31.6031   50.0556 H   0  0  0  0  0  0  0  0  0  0  0  0
   60.1031   32.4253   49.1476 H   0  0  0  0  0  0  0  0  0  0  0  0
   58.6747   32.9217   48.4258 H   0  0  0  0  0  0  0  0  0  0  0  0
   57.8095   34.2469   47.5532 H   0  0  0  0  0  0  0  0  0  0  0  0
   57.7433   31.3925   47.0643 H   0  0  0  0  0  0  0  0  0  0  0  0
   56.8169   32.7385   46.2608 H   0  0  0  0  0  0  0  0  0  0  0  0
   59.1338   29.0080   45.2747 H   0  0  0  0  0  0  0  0  0  0  0  0
   60.5003   26.9641   45.6954 H   0  0  0  0  0  0  0  0  0  0  0  0
  1  2  2  0
  2  3  1  0
  3  4  1  0
  4  5  1  0
  5  6  1  0
  6  7  1  0
  7  8  1  0
  8  9  1  0
  9 10  2  0
 10 11  1  0
 11 12  2  0
 12 13  1  0
 12 14  1  0
 14 15  2  0
  8 16  1  0
 16 17  1  0
  2 18  1  0
 18 19  1  0
 19 20  2  0
 20 21  1  0
 21 22  2  0
 22 23  1  0
 22 24  1  0
 24 25  1  0
 24 26  2  0
 26 27  1  0
 17  4  1  0
 26 19  1  0
 15  9  1  0
  3 28  1  0
  3 29  1  0
  5 30  1  0
  5 31  1  0
  6 32  1  0
  6 33  1  0
  7 34  1  0
  7 35  1  0
 10 36  1  0
 11 37  1  0
 14 38  1  0
 15 39  1  0
 16 40  1  0
 16 41  1  0
 17 42  1  0
 17 43  1  0
 20 44  1  0
 21 45  1  0
M  CHG  1  18  -1
M  END
>  <UniqueID>  (47) 
45

>  <SMILES>  (47) 
O=C(CN1CCCN(c2ccc(F)cc2)CC1)[N-]c1ccc(F)c(F)c1F

>  <Energy>  (47) 
61.274781934168296

>  <Genealogy>  (47) 
O=C(CN1CCCN(c2ccc(F)cc2)CC1)[N-]c1ccc(F)c(F)c1F (protonated)
O=C(CN1CCCN(c2ccc(F)cc2)CC1)[N-]c1ccc(F)c(F)c1F (3D coordinates assigned)
O=C(CN1CCCN(c2ccc(F)cc2)CC1)[N-]c1ccc(F)c(F)c1F (nonaromatic ring conformer: 61.274781934168296 kcal/mol)

>  <smiles>  (47) 
O=C(CN1CCCN(c2ccc(F)cc2)CC1)Nc1ccc(F)c(F)c1F

>  <score_type>  (47) 
oracle

>  <origin>  (47) 
adg

>  <m_score__min__energy>  (47) 
-7.2699999999999996

>  <m_primary>  (47) 
energy

$$$$
