0:0
     RDKit          3D

 27 28  0  0  0  0  0  0  0  0999 V2000
   54.8940   26.3520   46.0090 O   0  0  0  0  0  0  0  0  0  0  0  0
   56.0750   25.8370   46.5620 C   0  0  0  0  0  0  0  0  0  0  0  0
   57.2730   26.6940   46.1490 C   0  0  0  0  0  0  0  0  0  0  0  0
   56.8350   27.9110   45.4630 N   0  0  0  0  0  0  0  0  0  0  0  0
   57.5260   29.1690   45.6040 C   0  0  0  0  0  0  0  0  0  0  0  0
   58.2190   29.4530   46.7970 C   0  0  0  0  0  0  0  0  0  0  0  0
   58.8450   30.6830   46.9870 C   0  0  0  0  0  0  0  0  0  0  0  0
   58.7950   31.6580   45.9950 C   0  0  0  0  0  0  0  0  0  0  0  0
   58.1280   31.4050   44.7890 C   0  0  0  0  0  0  0  0  0  0  0  0
   58.0980   32.3880   43.7870 C   0  0  0  0  0  0  0  0  0  0  0  0
   57.4590   32.1370   42.5740 C   0  0  0  0  0  0  0  0  0  0  0  0
   56.8550   30.9010   42.3440 C   0  0  0  0  0  0  0  0  0  0  0  0
   56.8740   29.9120   43.3300 C   0  0  0  0  0  0  0  0  0  0  0  0
   57.4930   30.1510   44.5760 C   0  0  0  0  0  0  0  0  0  0  0  0
   54.3630   26.7170   46.7650 H   0  0  0  0  0  0  0  0  0  0  0  0
   55.9913   25.8350   47.6588 H   0  0  0  0  0  0  0  0  0  0  0  0
   56.2249   24.8115   46.1934 H   0  0  0  0  0  0  0  0  0  0  0  0
   57.8429   26.9727   47.0476 H   0  0  0  0  0  0  0  0  0  0  0  0
   57.9013   26.1100   45.4604 H   0  0  0  0  0  0  0  0  0  0  0  0
   55.9910   27.8600   44.8500 H   0  0  0  0  0  0  0  0  0  0  0  0
   58.2666   28.6924   47.5903 H   0  0  0  0  0  0  0  0  0  0  0  0
   59.3816   30.8846   47.9259 H   0  0  0  0  0  0  0  0  0  0  0  0
   59.2811   32.6311   46.1584 H   0  0  0  0  0  0  0  0  0  0  0  0
   58.5811   33.3609   43.9601 H   0  0  0  0  0  0  0  0  0  0  0  0
   57.4310   32.9150   41.7968 H   0  0  0  0  0  0  0  0  0  0  0  0
   56.3611   30.7041   41.3810 H   0  0  0  0  0  0  0  0  0  0  0  0
   56.4023   28.9378   43.1338 H   0  0  0  0  0  0  0  0  0  0  0  0
  1  2  1  0
  2  3  1  0
  3  4  1  0
  4  5  1  0
  5  6  2  0
  6  7  1  0
  7  8  2  0
  8  9  1  0
  9 10  2  0
 10 11  1  0
 11 12  2  0
 12 13  1  0
 13 14  2  0
 14  5  1  0
 14  9  1  0
  1 15  1  0
  2 16  1  0
  2 17  1  0
  3 18  1  0
  3 19  1  0
  4 20  1  0
  6 21  1  0
  7 22  1  0
  8 23  1  0
 10 24  1  0
 11 25  1  0
 12 26  1  0
 13 27  1  0
M  END
>  <UniqueID>  (1) 
1

>  <SMILES>  (1) 
OCCNc1cccc2ccccc12

>  <Energy>  (1) 
31.911298169840933

>  <Genealogy>  (1) 
OCCNc1cccc2ccccc12 (3D coordinates assigned)
OCCNc1cccc2ccccc12 (optimized conformer: 31.911298169840933 kcal/mol)

>  <smiles>  (1) 
OCCNc1cccc2ccccc12

>  <score_type>  (1) 
oracle

>  <origin>  (1) 
adg

>  <m_score__min__energy>  (1) 
-6.71

>  <m_primary>  (1) 
energy

$$$$
1:0
     RDKit          3D

 51 53  0  0  0  0  0  0  0  0999 V2000
   54.3340   23.7460   44.8930 C   0  0  0  0  0  0  0  0  0  0  0  0
   53.7000   24.9270   45.6180 C   0  0  0  0  0  0  0  0  0  0  0  0
   54.7080   25.9290   45.9390 N   0  0  0  0  0  0  0  0  0  0  0  0
   56.0430   25.6090   46.3440 C   0  0  0  0  0  0  0  0  0  0  0  0
   56.2770   25.2170   47.5190 O   0  0  0  0  0  0  0  0  0  0  0  0
   57.1630   25.7220   45.3560 C   0  0  0  0  0  0  0  0  0  0  0  0
   58.1640   26.6980   45.8060 N   0  0  0  0  0  0  0  0  0  0  0  0
   59.2610   26.2580   46.6760 C   0  0  0  0  0  0  0  0  0  0  0  0
   58.0660   28.0870   45.4210 C   0  0  0  0  0  0  0  0  0  0  0  0
   57.7140   28.4390   44.1050 C   0  0  0  0  0  0  0  0  0  0  0  0
   57.6010   29.7830   43.7320 C   0  0  0  0  0  0  0  0  0  0  0  0
   57.8450   30.8000   44.6720 C   0  0  0  0  0  0  0  0  0  0  0  0
   57.7360   32.1650   44.3510 C   0  0  0  0  0  0  0  0  0  0  0  0
   57.4160   32.5040   43.1760 O   0  0  0  0  0  0  0  0  0  0  0  0
   57.9780   33.1220   45.3070 N   0  0  0  0  0  0  0  0  0  0  0  0
   57.8500   34.5520   44.9760 C   0  0  0  0  0  0  0  0  0  0  0  0
   58.3920   32.7400   46.5610 C   0  0  0  0  0  0  0  0  0  0  0  0
   58.8690   33.9350   47.8250 S   0  0  0  0  0  0  0  0  0  0  0  0
   60.3390   34.5460   46.9260 C   0  0  0  0  0  0  0  0  0  0  0  0
   61.6140   34.0510   47.5520 C   0  0  0  0  0  0  0  0  0  0  0  0
   62.6130   33.4590   46.7600 C   0  0  0  0  0  0  0  0  0  0  0  0
   63.7880   32.9800   47.3490 C   0  0  0  0  0  0  0  0  0  0  0  0
   63.9780   33.0950   48.7270 C   0  0  0  0  0  0  0  0  0  0  0  0
   65.1220   32.6420   49.2940 F   0  0  0  0  0  0  0  0  0  0  0  0
   62.9860   33.6770   49.5230 C   0  0  0  0  0  0  0  0  0  0  0  0
   61.8060   34.1500   48.9390 C   0  0  0  0  0  0  0  0  0  0  0  0
   58.4810   31.4250   46.8820 N   0  0  0  0  0  0  0  0  0  0  0  0
   58.2100   30.4520   45.9810 C   0  0  0  0  0  0  0  0  0  0  0  0
   58.3170   29.1090   46.3520 C   0  0  0  0  0  0  0  0  0  0  0  0
   54.7199   23.0271   45.6308 H   0  0  0  0  0  0  0  0  0  0  0  0
   53.5785   23.2544   44.2625 H   0  0  0  0  0  0  0  0  0  0  0  0
   55.1612   24.1040   44.2625 H   0  0  0  0  0  0  0  0  0  0  0  0
   52.9330   25.3790   44.9720 H   0  0  0  0  0  0  0  0  0  0  0  0
   53.2446   24.5680   46.5528 H   0  0  0  0  0  0  0  0  0  0  0  0
   57.6439   24.7392   45.2432 H   0  0  0  0  0  0  0  0  0  0  0  0
   56.7499   26.0610   44.3945 H   0  0  0  0  0  0  0  0  0  0  0  0
   58.9645   26.3769   47.7286 H   0  0  0  0  0  0  0  0  0  0  0  0
   59.4860   25.2000   46.4757 H   0  0  0  0  0  0  0  0  0  0  0  0
   60.1547   26.8672   46.4757 H   0  0  0  0  0  0  0  0  0  0  0  0
   57.5258   27.6500   43.3620 H   0  0  0  0  0  0  0  0  0  0  0  0
   57.3206   30.0446   42.7010 H   0  0  0  0  0  0  0  0  0  0  0  0
   57.7974   35.1399   45.9042 H   0  0  0  0  0  0  0  0  0  0  0  0
   58.7231   34.8719   44.3883 H   0  0  0  0  0  0  0  0  0  0  0  0
   56.9340   34.7118   44.3883 H   0  0  0  0  0  0  0  0  0  0  0  0
   60.2924   34.1949   45.8846 H   0  0  0  0  0  0  0  0  0  0  0  0
   60.3376   35.6451   46.9694 H   0  0  0  0  0  0  0  0  0  0  0  0
   62.4703   33.3720   45.6728 H   0  0  0  0  0  0  0  0  0  0  0  0
   64.5636   32.5119   46.7250 H   0  0  0  0  0  0  0  0  0  0  0  0
   63.1339   33.7629   50.6096 H   0  0  0  0  0  0  0  0  0  0  0  0
   61.0255   34.6013   49.5692 H   0  0  0  0  0  0  0  0  0  0  0  0
   58.6004   28.8495   47.3827 H   0  0  0  0  0  0  0  0  0  0  0  0
  1  2  1  0
  2  3  1  0
  3  4  1  0
  4  5  2  0
  4  6  1  0
  6  7  1  0
  7  8  1  0
  7  9  1  0
  9 10  2  0
 10 11  1  0
 11 12  2  0
 12 13  1  0
 13 14  2  0
 13 15  1  0
 15 16  1  0
 15 17  1  0
 17 18  1  0
 18 19  1  0
 19 20  1  0
 20 21  2  0
 21 22  1  0
 22 23  2  0
 23 24  1  0
 23 25  1  0
 25 26  2  0
 17 27  2  0
 27 28  1  0
 28 29  2  0
 29  9  1  0
 28 12  1  0
 26 20  1  0
  1 30  1  0
  1 31  1  0
  1 32  1  0
  2 33  1  0
  2 34  1  0
  6 35  1  0
  6 36  1  0
  8 37  1  0
  8 38  1  0
  8 39  1  0
 10 40  1  0
 11 41  1  0
 16 42  1  0
 16 43  1  0
 16 44  1  0
 19 45  1  0
 19 46  1  0
 21 47  1  0
 22 48  1  0
 25 49  1  0
 26 50  1  0
 29 51  1  0
M  CHG  1   3  -1
M  END
>  <UniqueID>  (2) 
2

>  <SMILES>  (2) 
CC[N-]C(=O)CN(C)c1ccc2c(=O)n(C)c(SCc3ccc(F)cc3)nc2c1

>  <Energy>  (2) 
50.088997634382466

>  <Genealogy>  (2) 
CC[N-]C(=O)CN(C)c1ccc2c(=O)n(C)c(SCc3ccc(F)cc3)nc2c1 (protonated)
CC[N-]C(=O)CN(C)c1ccc2c(=O)n(C)c(SCc3ccc(F)cc3)nc2c1 (3D coordinates assigned)
CC[N-]C(=O)CN(C)c1ccc2c(=O)n(C)c(SCc3ccc(F)cc3)nc2c1 (optimized conformer: 50.088997634382466 kcal/mol)

>  <smiles>  (2) 
CCNC(=O)CN(C)c1ccc2c(=O)n(C)c(SCc3ccc(F)cc3)nc2c1

>  <score_type>  (2) 
oracle

>  <origin>  (2) 
adg

>  <m_score__min__energy>  (2) 
-10.960000000000001

>  <m_primary>  (2) 
energy

$$$$
2:0
     RDKit          3D

 51 53  0  0  0  0  0  0  0  0999 V2000
   60.3930   30.3260   48.0700 C   0  0  0  0  0  0  0  0  0  0  0  0
   60.5990   30.0860   46.5780 C   0  0  0  0  0  0  0  0  0  0  0  0
   59.6530   30.8760   45.7890 N   0  0  0  0  0  0  0  0  0  0  0  0
   58.3960   30.3620   45.3080 C   0  0  0  0  0  0  0  0  0  0  0  0
   58.0250   29.0340   45.5930 C   0  0  0  0  0  0  0  0  0  0  0  0
   56.7940   28.5310   45.1710 C   0  0  0  0  0  0  0  0  0  0  0  0
   55.9130   29.3430   44.4600 C   0  0  0  0  0  0  0  0  0  0  0  0
   56.2630   30.6590   44.1620 C   0  0  0  0  0  0  0  0  0  0  0  0
   57.5020   31.1840   44.5710 C   0  0  0  0  0  0  0  0  0  0  0  0
   57.8240   32.6120   44.1880 C   0  0  0  0  0  0  0  0  0  0  0  0
   58.6100   33.2630   45.2560 N   0  0  0  0  0  0  0  0  0  0  0  0
   57.8530   33.3240   46.5190 C   0  0  0  0  0  0  0  0  0  0  0  0
   58.7780   33.7300   47.6850 C   0  0  0  0  0  0  0  0  0  0  0  0
   60.0330   34.5110   47.2240 C   0  0  0  0  0  0  0  0  0  0  0  0
   61.2170   33.5520   46.9360 C   0  0  0  0  0  0  0  0  0  0  0  0
   62.2270   33.5280   48.0560 C   0  0  0  0  0  0  0  0  0  0  0  0
   63.4180   32.7960   47.9180 C   0  0  0  0  0  0  0  0  0  0  0  0
   64.3440   32.7550   48.9660 C   0  0  0  0  0  0  0  0  0  0  0  0
   64.0870   33.4410   50.1560 C   0  0  0  0  0  0  0  0  0  0  0  0
   62.9030   34.1680   50.3010 C   0  0  0  0  0  0  0  0  0  0  0  0
   61.9750   34.2130   49.2570 C   0  0  0  0  0  0  0  0  0  0  0  0
   59.6740   35.4080   46.0210 C   0  0  0  0  0  0  0  0  0  0  0  0
   59.0560   34.6160   44.8480 C   0  0  0  0  0  0  0  0  0  0  0  0
   61.0043   29.6138   48.6438 H   0  0  0  0  0  0  0  0  0  0  0  0
   60.6946   31.3536   48.3212 H   0  0  0  0  0  0  0  0  0  0  0  0
   59.3316   30.1837   48.3212 H   0  0  0  0  0  0  0  0  0  0  0  0
   61.6250   30.3737   46.3048 H   0  0  0  0  0  0  0  0  0  0  0  0
   60.4309   29.0198   46.3659 H   0  0  0  0  0  0  0  0  0  0  0  0
   59.9250   31.8580   45.5660 H   0  0  0  0  0  0  0  0  0  0  0  0
   58.7136   28.3857   46.1548 H   0  0  0  0  0  0  0  0  0  0  0  0
   56.5184   27.4910   45.4002 H   0  0  0  0  0  0  0  0  0  0  0  0
   54.9407   28.9454   44.1336 H   0  0  0  0  0  0  0  0  0  0  0  0
   55.5621   31.2942   43.6005 H   0  0  0  0  0  0  0  0  0  0  0  0
   58.4067   32.6152   43.2550 H   0  0  0  0  0  0  0  0  0  0  0  0
   56.8841   33.1657   44.0464 H   0  0  0  0  0  0  0  0  0  0  0  0
   57.0463   34.0655   46.4220 H   0  0  0  0  0  0  0  0  0  0  0  0
   57.4315   32.3299   46.7292 H   0  0  0  0  0  0  0  0  0  0  0  0
   58.2073   34.3638   48.3797 H   0  0  0  0  0  0  0  0  0  0  0  0
   59.1271   32.8031   48.1635 H   0  0  0  0  0  0  0  0  0  0  0  0
   60.3733   35.1699   48.0364 H   0  0  0  0  0  0  0  0  0  0  0  0
   60.8213   32.5352   46.7961 H   0  0  0  0  0  0  0  0  0  0  0  0
   61.7287   33.9150   46.0324 H   0  0  0  0  0  0  0  0  0  0  0  0
   63.6232   32.2535   46.9833 H   0  0  0  0  0  0  0  0  0  0  0  0
   65.2760   32.1818   48.8530 H   0  0  0  0  0  0  0  0  0  0  0  0
   64.8168   33.4085   50.9784 H   0  0  0  0  0  0  0  0  0  0  0  0
   62.7007   34.7061   51.2388 H   0  0  0  0  0  0  0  0  0  0  0  0
   61.0440   34.7866   49.3757 H   0  0  0  0  0  0  0  0  0  0  0  0
   58.9505   36.1674   46.3523 H   0  0  0  0  0  0  0  0  0  0  0  0
   60.6067   35.8643   45.6579 H   0  0  0  0  0  0  0  0  0  0  0  0
   58.1892   35.1730   44.4629 H   0  0  0  0  0  0  0  0  0  0  0  0
   59.8315   34.4964   44.0771 H   0  0  0  0  0  0  0  0  0  0  0  0
  1  2  1  0
  2  3  1  0
  3  4  1  0
  4  5  2  0
  5  6  1  0
  6  7  2  0
  7  8  1  0
  8  9  2  0
  9 10  1  0
 10 11  1  0
 11 12  1  0
 12 13  1  0
 13 14  1  0
 14 15  1  0
 15 16  1  0
 16 17  2  0
 17 18  1  0
 18 19  2  0
 19 20  1  0
 20 21  2  0
 14 22  1  0
 22 23  1  0
  9  4  1  0
 23 11  1  0
 21 16  1  0
  1 24  1  0
  1 25  1  0
  1 26  1  0
  2 27  1  0
  2 28  1  0
  3 29  1  0
  5 30  1  0
  6 31  1  0
  7 32  1  0
  8 33  1  0
 10 34  1  0
 10 35  1  0
 12 36  1  0
 12 37  1  0
 13 38  1  0
 13 39  1  0
 14 40  1  0
 15 41  1  0
 15 42  1  0
 17 43  1  0
 18 44  1  0
 19 45  1  0
 20 46  1  0
 21 47  1  0
 22 48  1  0
 22 49  1  0
 23 50  1  0
 23 51  1  0
M  END
>  <UniqueID>  (3) 
3

>  <SMILES>  (3) 
CCNc1ccccc1CN1CCC(Cc2ccccc2)CC1

>  <Energy>  (3) 
56.771188857063

>  <Genealogy>  (3) 
CCNc1ccccc1CN1CCC(Cc2ccccc2)CC1 (3D coordinates assigned)
CCNc1ccccc1CN1CCC(Cc2ccccc2)CC1 (nonaromatic ring conformer: 56.771188857063 kcal/mol)

>  <smiles>  (3) 
CCNc1ccccc1CN1CCC(Cc2ccccc2)CC1

>  <score_type>  (3) 
oracle

>  <origin>  (3) 
adg

>  <m_score__min__energy>  (3) 
-7.96

>  <m_primary>  (3) 
energy

$$$$
3:0
     RDKit          3D

 32 32  0  0  0  0  0  0  0  0999 V2000
   57.0430   31.2160   42.3230 C   0  0  0  0  0  0  0  0  0  0  0  0
   56.1020   30.4070   43.2100 C   0  0  0  0  0  0  0  0  0  0  0  0
   56.5720   30.3860   44.5580 O   0  0  0  0  0  0  0  0  0  0  0  0
   57.3900   31.3590   45.1610 C   0  0  0  0  0  0  0  0  0  0  0  0
   57.0200   32.7200   45.2160 C   0  0  0  0  0  0  0  0  0  0  0  0
   57.8670   33.6590   45.8070 C   0  0  0  0  0  0  0  0  0  0  0  0
   59.0930   33.2620   46.3420 C   0  0  0  0  0  0  0  0  0  0  0  0
   60.2530   34.5550   47.1360 Br  0  0  0  0  0  0  0  0  0  0  0  0
   59.4720   31.9190   46.2920 C   0  0  0  0  0  0  0  0  0  0  0  0
   58.6230   30.9600   45.7160 C   0  0  0  0  0  0  0  0  0  0  0  0
   59.0730   29.5190   45.6450 C   0  0  0  0  0  0  0  0  0  0  0  0
   58.6130   28.8960   44.3950 N   0  0  0  0  0  0  0  0  0  0  0  0
   58.6310   27.4300   44.5080 C   0  0  0  0  0  0  0  0  0  0  0  0
   57.3930   26.9270   45.2590 C   0  0  0  0  0  0  0  0  0  0  0  0
   56.4100   27.9250   45.2960 O   0  0  0  0  0  0  0  0  0  0  0  0
   57.7265   31.8036   42.9535 H   0  0  0  0  0  0  0  0  0  0  0  0
   57.6261   30.5328   41.6879 H   0  0  0  0  0  0  0  0  0  0  0  0
   56.4550   31.8949   41.6879 H   0  0  0  0  0  0  0  0  0  0  0  0
   55.1009   30.8620   43.1838 H   0  0  0  0  0  0  0  0  0  0  0  0
   56.0620   29.3742   42.8335 H   0  0  0  0  0  0  0  0  0  0  0  0
   56.0583   33.0427   44.7905 H   0  0  0  0  0  0  0  0  0  0  0  0
   57.5667   34.7163   45.8511 H   0  0  0  0  0  0  0  0  0  0  0  0
   60.4427   31.6099   46.7068 H   0  0  0  0  0  0  0  0  0  0  0  0
   60.1716   29.4806   45.6855 H   0  0  0  0  0  0  0  0  0  0  0  0
   58.6423   28.9699   46.4953 H   0  0  0  0  0  0  0  0  0  0  0  0
   59.2450   29.1910   43.6130 H   0  0  0  0  0  0  0  0  0  0  0  0
   57.6360   29.2140   44.1910 H   0  0  0  0  0  0  0  0  0  0  0  0
   58.6444   26.9907   43.4996 H   0  0  0  0  0  0  0  0  0  0  0  0
   59.5291   27.1304   45.0680 H   0  0  0  0  0  0  0  0  0  0  0  0
   56.9918   26.0408   44.7454 H   0  0  0  0  0  0  0  0  0  0  0  0
   57.6792   26.6672   46.2888 H   0  0  0  0  0  0  0  0  0  0  0  0
   56.2800   28.2310   44.3610 H   0  0  0  0  0  0  0  0  0  0  0  0
  1  2  1  0
  2  3  1  0
  3  4  1  0
  4  5  2  0
  5  6  1  0
  6  7  2  0
  7  8  1  0
  7  9  1  0
  9 10  2  0
 10 11  1  0
 11 12  1  0
 12 13  1  0
 13 14  1  0
 14 15  1  0
 10  4  1  0
  1 16  1  0
  1 17  1  0
  1 18  1  0
  2 19  1  0
  2 20  1  0
  5 21  1  0
  6 22  1  0
  9 23  1  0
 11 24  1  0
 11 25  1  0
 12 26  1  0
 12 27  1  0
 13 28  1  0
 13 29  1  0
 14 30  1  0
 14 31  1  0
 15 32  1  0
M  CHG  1  12   1
M  END
>  <UniqueID>  (4) 
4

>  <SMILES>  (4) 
CCOc1ccc(Br)cc1C[NH2+]CCO

>  <Energy>  (4) 
24.037139553295184

>  <Genealogy>  (4) 
CCOc1ccc(Br)cc1C[NH2+]CCO (protonated)
CCOc1ccc(Br)cc1C[NH2+]CCO (3D coordinates assigned)
CCOc1ccc(Br)cc1C[NH2+]CCO (optimized conformer: 24.037139553295184 kcal/mol)

>  <smiles>  (4) 
CCOc1ccc(Br)cc1CNCCO

>  <score_type>  (4) 
oracle

>  <origin>  (4) 
adg

>  <m_score__min__energy>  (4) 
-4.1299999999999999

>  <m_primary>  (4) 
energy

$$$$
4:0
     RDKit          3D

 50 52  0  0  0  0  0  0  0  0999 V2000
   65.0620   32.6980   49.7160 C   0  0  0  0  0  0  0  0  0  0  0  0
   64.1350   33.4680   48.7630 C   0  0  0  0  0  0  0  0  0  0  0  0
   63.6590   32.6770   47.5990 N   0  0  2  0  0  0  0  0  0  0  0  0
   62.7430   33.4630   46.7460 C   0  0  0  0  0  0  0  0  0  0  0  0
   63.0570   31.3860   48.0180 C   0  0  0  0  0  0  0  0  0  0  0  0
   61.6430   31.1880   47.4420 C   0  0  0  0  0  0  0  0  0  0  0  0
   60.7650   30.3780   48.4000 C   0  0  0  0  0  0  0  0  0  0  0  0
   59.3540   30.6390   48.1250 N   0  0  0  0  0  0  0  0  0  0  0  0
   58.8330   30.5500   46.7910 C   0  0  0  0  0  0  0  0  0  0  0  0
   58.5170   31.6980   46.0380 C   0  0  0  0  0  0  0  0  0  0  0  0
   58.6820   32.9890   46.5800 C   0  0  0  0  0  0  0  0  0  0  0  0
   58.4000   34.1200   45.8180 C   0  0  0  0  0  0  0  0  0  0  0  0
   57.9570   33.9880   44.5070 C   0  0  0  0  0  0  0  0  0  0  0  0
   57.7640   32.7220   43.9530 C   0  0  0  0  0  0  0  0  0  0  0  0
   58.0040   31.5480   44.7110 C   0  0  0  0  0  0  0  0  0  0  0  0
   57.7630   30.2850   44.1900 N   0  0  0  0  0  0  0  0  0  0  0  0
   56.9140   30.1320   42.9930 C   0  0  0  0  0  0  0  0  0  0  0  0
   58.2350   29.1800   44.8710 C   0  0  0  0  0  0  0  0  0  0  0  0
   58.3340   27.8320   44.4070 C   0  0  0  0  0  0  0  0  0  0  0  0
   58.1180   27.3310   43.0050 C   0  0  0  0  0  0  0  0  0  0  0  0
   58.8060   26.9570   45.3880 C   0  0  0  0  0  0  0  0  0  0  0  0
   59.1730   27.8220   46.7790 S   0  0  0  0  0  0  0  0  0  0  0  0
   58.7100   29.3150   46.1690 C   0  0  0  0  0  0  0  0  0  0  0  0
   64.7884   32.9253   50.7569 H   0  0  0  0  0  0  0  0  0  0  0  0
   64.9568   31.6178   49.5367 H   0  0  0  0  0  0  0  0  0  0  0  0
   66.1045   32.9996   49.5367 H   0  0  0  0  0  0  0  0  0  0  0  0
   63.2565   33.8034   49.3337 H   0  0  0  0  0  0  0  0  0  0  0  0
   64.7254   34.3021   48.3560 H   0  0  0  0  0  0  0  0  0  0  0  0
   64.5110   32.4700   47.0260 H   0  0  0  0  0  0  0  0  0  0  0  0
   62.0615   34.0478   47.3813 H   0  0  0  0  0  0  0  0  0  0  0  0
   63.3277   34.1447   46.1109 H   0  0  0  0  0  0  0  0  0  0  0  0
   62.1580   32.7815   46.1109 H   0  0  0  0  0  0  0  0  0  0  0  0
   63.7001   30.5652   47.6676 H   0  0  0  0  0  0  0  0  0  0  0  0
   62.9764   31.3919   49.1150 H   0  0  0  0  0  0  0  0  0  0  0  0
   61.1812   32.1727   47.2773 H   0  0  0  0  0  0  0  0  0  0  0  0
   61.7264   30.6362   46.4941 H   0  0  0  0  0  0  0  0  0  0  0  0
   60.9705   29.3059   48.2643 H   0  0  0  0  0  0  0  0  0  0  0  0
   60.9920   30.6729   49.4351 H   0  0  0  0  0  0  0  0  0  0  0  0
   58.6880   30.6040   48.9290 H   0  0  0  0  0  0  0  0  0  0  0  0
   59.0369   33.1040   47.6148 H   0  0  0  0  0  0  0  0  0  0  0  0
   58.5282   35.1213   46.2550 H   0  0  0  0  0  0  0  0  0  0  0  0
   57.7577   34.8858   43.9035 H   0  0  0  0  0  0  0  0  0  0  0  0
   57.4203   32.6333   42.9119 H   0  0  0  0  0  0  0  0  0  0  0  0
   55.8750   29.9448   43.3019 H   0  0  0  0  0  0  0  0  0  0  0  0
   56.9577   31.0525   42.3924 H   0  0  0  0  0  0  0  0  0  0  0  0
   57.2763   29.2847   42.3924 H   0  0  0  0  0  0  0  0  0  0  0  0
   57.6827   26.3214   43.0394 H   0  0  0  0  0  0  0  0  0  0  0  0
   57.4319   28.0082   42.4752 H   0  0  0  0  0  0  0  0  0  0  0  0
   59.0814   27.2971   42.4752 H   0  0  0  0  0  0  0  0  0  0  0  0
   58.9196   25.8695   45.2677 H   0  0  0  0  0  0  0  0  0  0  0  0
  1  2  1  0
  2  3  1  0
  3  4  1  0
  3  5  1  0
  5  6  1  0
  6  7  1  0
  7  8  1  0
  8  9  1  0
  9 10  2  0
 10 11  1  0
 11 12  2  0
 12 13  1  0
 13 14  2  0
 14 15  1  0
 15 16  2  0
 16 17  1  0
 16 18  1  0
 18 19  1  0
 19 20  1  0
 19 21  2  0
 21 22  1  0
 22 23  1  0
 23  9  1  0
 15 10  1  0
 23 18  2  0
  1 24  1  0
  1 25  1  0
  1 26  1  0
  2 27  1  0
  2 28  1  0
  3 29  1  6
  4 30  1  0
  4 31  1  0
  4 32  1  0
  5 33  1  0
  5 34  1  0
  6 35  1  0
  6 36  1  0
  7 37  1  0
  7 38  1  0
  8 39  1  0
 11 40  1  0
 12 41  1  0
 13 42  1  0
 14 43  1  0
 17 44  1  0
 17 45  1  0
 17 46  1  0
 20 47  1  0
 20 48  1  0
 20 49  1  0
 21 50  1  0
M  CHG  2   3   1  16   1
M  END
>  <UniqueID>  (5) 
5

>  <SMILES>  (5) 
CC[N@H+](C)CCCNc1c2ccccc2[n+](C)c2c(C)csc12

>  <Energy>  (5) 
103.33936719655996

>  <Genealogy>  (5) 
CC[NH+](C)CCCNc1c2ccccc2[n+](C)c2c(C)csc12 (protonated)
CC[N@H+](C)CCCNc1c2ccccc2[n+](C)c2c(C)csc12 (chirality)
CC[N@H+](C)CCCNc1c2ccccc2[n+](C)c2c(C)csc12 (3D coordinates assigned)
CC[N@H+](C)CCCNc1c2ccccc2[n+](C)c2c(C)csc12 (optimized conformer: 103.33936719655996 kcal/mol)

>  <smiles>  (5) 
CCN(C)CCCNc1c2ccccc2[n+](C)c2c(C)csc12

>  <score_type>  (5) 
oracle

>  <origin>  (5) 
adg

>  <m_score__min__energy>  (5) 
-4.7699999999999996

>  <m_primary>  (5) 
energy

$$$$
5:0
     RDKit          3D

 41 43  0  0  0  0  0  0  0  0999 V2000
   55.9680   21.3700   45.0330 C   0  0  0  0  0  0  0  0  0  0  0  0
   56.2720   21.9440   43.7130 N   0  0  0  0  0  0  0  0  0  0  0  0
   57.2330   21.1070   42.9780 C   0  0  0  0  0  0  0  0  0  0  0  0
   56.6790   23.3650   43.7840 C   0  0  0  0  0  0  0  0  0  0  0  0
   56.2280   24.0940   45.0660 C   0  0  0  0  0  0  0  0  0  0  0  0
   57.3630   24.5440   45.8050 O   0  0  0  0  0  0  0  0  0  0  0  0
   57.7780   25.8810   45.9310 C   0  0  0  0  0  0  0  0  0  0  0  0
   58.9360   26.2550   46.6450 C   0  0  0  0  0  0  0  0  0  0  0  0
   59.3060   27.6000   46.7380 C   0  0  0  0  0  0  0  0  0  0  0  0
   58.5300   28.5850   46.1210 C   0  0  0  0  0  0  0  0  0  0  0  0
   58.8850   29.8930   46.2090 N   0  0  0  0  0  0  0  0  0  0  0  0
   58.1440   30.8700   45.6140 C   0  0  0  0  0  0  0  0  0  0  0  0
   58.5520   32.2920   45.7250 C   0  0  0  0  0  0  0  0  0  0  0  0
   59.4050   32.7150   46.7640 C   0  0  0  0  0  0  0  0  0  0  0  0
   59.7890   34.0560   46.8660 C   0  0  0  0  0  0  0  0  0  0  0  0
   59.3270   34.9900   45.9370 C   0  0  0  0  0  0  0  0  0  0  0  0
   58.4810   34.5850   44.9010 C   0  0  0  0  0  0  0  0  0  0  0  0
   58.0940   33.2450   44.7940 C   0  0  0  0  0  0  0  0  0  0  0  0
   57.0240   30.5280   44.9180 N   0  0  0  0  0  0  0  0  0  0  0  0
   56.6280   29.2340   44.8010 C   0  0  0  0  0  0  0  0  0  0  0  0
   57.3770   28.2210   45.4040 C   0  0  0  0  0  0  0  0  0  0  0  0
   57.0060   26.8720   45.3110 C   0  0  0  0  0  0  0  0  0  0  0  0
   56.3278   22.0493   45.8199 H   0  0  0  0  0  0  0  0  0  0  0  0
   54.8808   21.2361   45.1331 H   0  0  0  0  0  0  0  0  0  0  0  0
   56.4682   20.3954   45.1331 H   0  0  0  0  0  0  0  0  0  0  0  0
   57.8632   20.5581   43.6932 H   0  0  0  0  0  0  0  0  0  0  0  0
   56.6873   20.3913   42.3456 H   0  0  0  0  0  0  0  0  0  0  0  0
   57.8670   21.7458   42.3456 H   0  0  0  0  0  0  0  0  0  0  0  0
   57.7767   23.4115   43.7300 H   0  0  0  0  0  0  0  0  0  0  0  0
   56.1861   23.8749   42.9432 H   0  0  0  0  0  0  0  0  0  0  0  0
   55.6070   24.9595   44.7919 H   0  0  0  0  0  0  0  0  0  0  0  0
   55.6486   23.3969   45.6892 H   0  0  0  0  0  0  0  0  0  0  0  0
   59.5514   25.4838   47.1314 H   0  0  0  0  0  0  0  0  0  0  0  0
   60.2095   27.8835   47.2978 H   0  0  0  0  0  0  0  0  0  0  0  0
   59.7716   31.9848   47.5005 H   0  0  0  0  0  0  0  0  0  0  0  0
   60.4565   34.3754   47.6799 H   0  0  0  0  0  0  0  0  0  0  0  0
   59.6288   36.0445   46.0204 H   0  0  0  0  0  0  0  0  0  0  0  0
   58.1188   35.3212   44.1684 H   0  0  0  0  0  0  0  0  0  0  0  0
   57.4271   32.9330   43.9768 H   0  0  0  0  0  0  0  0  0  0  0  0
   55.7198   28.9845   44.2328 H   0  0  0  0  0  0  0  0  0  0  0  0
   56.1039   26.5903   44.7481 H   0  0  0  0  0  0  0  0  0  0  0  0
  1  2  1  0
  2  3  1  0
  2  4  1  0
  4  5  1  0
  5  6  1  0
  6  7  1  0
  7  8  2  0
  8  9  1  0
  9 10  2  0
 10 11  1  0
 11 12  2  0
 12 13  1  0
 13 14  2  0
 14 15  1  0
 15 16  2  0
 16 17  1  0
 17 18  2  0
 12 19  1  0
 19 20  2  0
 20 21  1  0
 21 22  2  0
 22  7  1  0
 21 10  1  0
 18 13  1  0
  1 23  1  0
  1 24  1  0
  1 25  1  0
  3 26  1  0
  3 27  1  0
  3 28  1  0
  4 29  1  0
  4 30  1  0
  5 31  1  0
  5 32  1  0
  8 33  1  0
  9 34  1  0
 14 35  1  0
 15 36  1  0
 16 37  1  0
 17 38  1  0
 18 39  1  0
 20 40  1  0
 22 41  1  0
M  END
>  <UniqueID>  (6) 
6

>  <SMILES>  (6) 
CN(C)CCOc1ccc2nc(-c3ccccc3)ncc2c1

>  <Energy>  (6) 
50.02333770056635

>  <Genealogy>  (6) 
CN(C)CCOc1ccc2nc(-c3ccccc3)ncc2c1 (3D coordinates assigned)
CN(C)CCOc1ccc2nc(-c3ccccc3)ncc2c1 (optimized conformer: 50.02333770056635 kcal/mol)

>  <smiles>  (6) 
CN(C)CCOc1ccc2nc(-c3ccccc3)ncc2c1

>  <score_type>  (6) 
oracle

>  <origin>  (6) 
adg

>  <m_score__min__energy>  (6) 
-6.9199999999999999

>  <m_primary>  (6) 
energy

$$$$
6:0
     RDKit          3D

 48 50  0  0  0  0  0  0  0  0999 V2000
   59.8430   31.7760   51.0760 C   0  0  0  0  0  0  0  0  0  0  0  0
   59.3180   31.6680   49.6530 C   0  0  0  0  0  0  0  0  0  0  0  0
   60.4070   31.7740   48.6750 N   0  0  0  0  0  0  0  0  0  0  0  0
   61.1760   32.8460   48.4010 C   0  0  0  0  0  0  0  0  0  0  0  0
   60.9350   34.2250   48.9370 C   0  0  0  0  0  0  0  0  0  0  0  0
   59.6510   34.7020   48.5340 O   0  0  0  0  0  0  0  0  0  0  0  0
   59.0680   34.4220   47.2880 C   0  0  0  0  0  0  0  0  0  0  0  0
   59.6450   34.9750   46.1390 C   0  0  0  0  0  0  0  0  0  0  0  0
   59.1250   34.6800   44.8740 C   0  0  0  0  0  0  0  0  0  0  0  0
   58.0230   33.8330   44.7440 C   0  0  0  0  0  0  0  0  0  0  0  0
   57.4250   33.2950   45.8830 C   0  0  0  0  0  0  0  0  0  0  0  0
   57.9360   33.5890   47.1520 C   0  0  0  0  0  0  0  0  0  0  0  0
   62.1870   32.5210   47.5690 N   0  0  0  0  0  0  0  0  0  0  0  0
   62.0640   31.2280   47.2920 N   0  0  0  0  0  0  0  0  0  0  0  0
   60.9660   30.7920   47.9400 C   0  0  0  0  0  0  0  0  0  0  0  0
   60.3580   29.1040   47.8640 S   0  0  0  0  0  0  0  0  0  0  0  0
   60.0560   29.0060   46.0530 C   0  0  0  0  0  0  0  0  0  0  0  0
   59.2620   30.1700   45.4310 C   0  0  0  0  0  0  0  0  0  0  0  0
   58.6590   29.8110   44.1290 N   0  0  0  0  0  0  0  0  0  0  0  0
   58.0560   28.4610   44.1680 C   0  0  0  0  0  0  0  0  0  0  0  0
   56.7770   28.4340   45.0400 C   0  0  0  0  0  0  0  0  0  0  0  0
   56.1730   29.7100   45.2000 O   0  0  0  0  0  0  0  0  0  0  0  0
   56.2200   30.4330   43.9890 C   0  0  0  0  0  0  0  0  0  0  0  0
   57.6750   30.8180   43.6520 C   0  0  0  0  0  0  0  0  0  0  0  0
   59.0190   31.6065   51.7847 H   0  0  0  0  0  0  0  0  0  0  0  0
   60.6259   31.0201   51.2364 H   0  0  0  0  0  0  0  0  0  0  0  0
   60.2639   32.7795   51.2364 H   0  0  0  0  0  0  0  0  0  0  0  0
   58.8173   30.6965   49.5283 H   0  0  0  0  0  0  0  0  0  0  0  0
   58.6125   32.4938   49.4789 H   0  0  0  0  0  0  0  0  0  0  0  0
   60.9830   34.1996   50.0357 H   0  0  0  0  0  0  0  0  0  0  0  0
   61.7061   34.9008   48.5386 H   0  0  0  0  0  0  0  0  0  0  0  0
   60.5123   35.6454   46.2310 H   0  0  0  0  0  0  0  0  0  0  0  0
   59.5871   35.1179   43.9770 H   0  0  0  0  0  0  0  0  0  0  0  0
   57.6277   33.5908   43.7464 H   0  0  0  0  0  0  0  0  0  0  0  0
   56.5488   32.6374   45.7836 H   0  0  0  0  0  0  0  0  0  0  0  0
   57.4539   33.1695   48.0473 H   0  0  0  0  0  0  0  0  0  0  0  0
   61.0342   28.9616   45.5518 H   0  0  0  0  0  0  0  0  0  0  0  0
   59.4308   28.1127   45.9072 H   0  0  0  0  0  0  0  0  0  0  0  0
   58.4585   30.4594   46.1243 H   0  0  0  0  0  0  0  0  0  0  0  0
   59.9639   30.9990   45.2576 H   0  0  0  0  0  0  0  0  0  0  0  0
   57.7962   28.1562   43.1435 H   0  0  0  0  0  0  0  0  0  0  0  0
   58.7885   27.7692   44.6095 H   0  0  0  0  0  0  0  0  0  0  0  0
   56.0473   27.7603   44.5671 H   0  0  0  0  0  0  0  0  0  0  0  0
   57.0753   28.0894   46.0412 H   0  0  0  0  0  0  0  0  0  0  0  0
   55.8123   29.8107   43.1787 H   0  0  0  0  0  0  0  0  0  0  0  0
   55.6227   31.3504   44.0964 H   0  0  0  0  0  0  0  0  0  0  0  0
   57.7701   30.9136   42.5603 H   0  0  0  0  0  0  0  0  0  0  0  0
   57.8952   31.7666   44.1636 H   0  0  0  0  0  0  0  0  0  0  0  0
  1  2  1  0
  2  3  1  0
  3  4  1  0
  4  5  1  0
  5  6  1  0
  6  7  1  0
  7  8  2  0
  8  9  1  0
  9 10  2  0
 10 11  1  0
 11 12  2  0
  4 13  2  0
 13 14  1  0
 14 15  2  0
 15 16  1  0
 16 17  1  0
 17 18  1  0
 18 19  1  0
 19 20  1  0
 20 21  1  0
 21 22  1  0
 22 23  1  0
 23 24  1  0
 15  3  1  0
 24 19  1  0
 12  7  1  0
  1 25  1  0
  1 26  1  0
  1 27  1  0
  2 28  1  0
  2 29  1  0
  5 30  1  0
  5 31  1  0
  8 32  1  0
  9 33  1  0
 10 34  1  0
 11 35  1  0
 12 36  1  0
 17 37  1  0
 17 38  1  0
 18 39  1  0
 18 40  1  0
 20 41  1  0
 20 42  1  0
 21 43  1  0
 21 44  1  0
 23 45  1  0
 23 46  1  0
 24 47  1  0
 24 48  1  0
M  END
>  <UniqueID>  (7) 
7

>  <SMILES>  (7) 
CCn1c(COc2ccccc2)nnc1SCCN1CCOCC1

>  <Energy>  (7) 
92.83652078120183

>  <Genealogy>  (7) 
CCn1c(COc2ccccc2)nnc1SCCN1CCOCC1 (3D coordinates assigned)
CCn1c(COc2ccccc2)nnc1SCCN1CCOCC1 (nonaromatic ring conformer: 92.83652078120183 kcal/mol)

>  <smiles>  (7) 
CCn1c(COc2ccccc2)nnc1SCCN1CCOCC1

>  <score_type>  (7) 
oracle

>  <origin>  (7) 
adg

>  <m_score__min__energy>  (7) 
-7.5899999999999999

>  <m_primary>  (7) 
energy

$$$$
7:0
     RDKit          3D

 61 63  0  0  0  0  0  0  0  0999 V2000
   59.6340   35.3680   45.6020 C   0  0  0  0  0  0  0  0  0  0  0  0
   59.2310   34.6450   46.8850 C   0  0  0  0  0  0  0  0  0  0  0  0
   58.5520   33.3650   46.5820 N   0  0  0  0  0  0  0  0  0  0  0  0
   57.1190   33.4480   46.9310 C   0  0  0  0  0  0  0  0  0  0  0  0
   58.7150   33.0150   45.1510 C   0  0  0  0  0  0  0  0  0  0  0  0
   57.6770   31.9800   44.7100 C   0  0  0  0  0  0  0  0  0  0  0  0
   57.6740   30.9050   45.6240 O   0  0  0  0  0  0  0  0  0  0  0  0
   57.5060   29.6900   44.9260 C   0  0  0  0  0  0  0  0  0  0  0  0
   58.8750   29.0760   44.6420 C   0  0  0  0  0  0  0  0  0  0  0  0
   59.8740   29.6770   45.4480 O   0  0  0  0  0  0  0  0  0  0  0  0
   60.0630   28.9730   46.6600 C   0  0  0  0  0  0  0  0  0  0  0  0
   59.3530   29.6860   47.8300 C   0  0  0  0  0  0  0  0  0  0  0  0
   59.2750   31.1500   47.6590 N   0  0  0  0  0  0  0  0  0  0  0  0
   60.0330   31.8820   48.6700 C   0  0  0  0  0  0  0  0  0  0  0  0
   61.3040   32.4590   48.3710 C   0  0  0  0  0  0  0  0  0  0  0  0
   61.8920   32.3940   47.0800 C   0  0  0  0  0  0  0  0  0  0  0  0
   63.0650   33.0830   46.7840 C   0  0  0  0  0  0  0  0  0  0  0  0
   63.6920   33.8430   47.7580 C   0  0  0  0  0  0  0  0  0  0  0  0
   63.1870   33.8650   49.0520 C   0  0  0  0  0  0  0  0  0  0  0  0
   62.0210   33.1360   49.3990 C   0  0  0  0  0  0  0  0  0  0  0  0
   61.5810   33.0890   50.7030 N   0  0  0  0  0  0  0  0  0  0  0  0
   62.5040   33.4450   51.8060 C   0  0  0  0  0  0  0  0  0  0  0  0
   60.2950   32.6800   50.9840 C   0  0  0  0  0  0  0  0  0  0  0  0
   59.7220   32.8930   52.2650 C   0  0  0  0  0  0  0  0  0  0  0  0
   58.4400   32.4490   52.5690 C   0  0  0  0  0  0  0  0  0  0  0  0
   57.6840   31.7990   51.6050 C   0  0  0  0  0  0  0  0  0  0  0  0
   56.0660   31.2380   51.9970 Cl  0  0  0  0  0  0  0  0  0  0  0  0
   58.1990   31.6090   50.3250 C   0  0  0  0  0  0  0  0  0  0  0  0
   59.5030   32.0510   49.9810 C   0  0  0  0  0  0  0  0  0  0  0  0
   60.1551   36.3028   45.8561 H   0  0  0  0  0  0  0  0  0  0  0  0
   60.3031   34.7237   45.0128 H   0  0  0  0  0  0  0  0  0  0  0  0
   58.7341   35.5983   45.0128 H   0  0  0  0  0  0  0  0  0  0  0  0
   60.1325   34.4415   47.4815 H   0  0  0  0  0  0  0  0  0  0  0  0
   58.5350   35.2868   47.4450 H   0  0  0  0  0  0  0  0  0  0  0  0
   57.0079   33.4544   48.0254 H   0  0  0  0  0  0  0  0  0  0  0  0
   56.6929   34.3723   46.5138 H   0  0  0  0  0  0  0  0  0  0  0  0
   56.5891   32.5790   46.5138 H   0  0  0  0  0  0  0  0  0  0  0  0
   58.5948   33.9243   44.5437 H   0  0  0  0  0  0  0  0  0  0  0  0
   59.7170   32.5833   45.0111 H   0  0  0  0  0  0  0  0  0  0  0  0
   56.6806   32.4455   44.6867 H   0  0  0  0  0  0  0  0  0  0  0  0
   57.9294   31.6094   43.7055 H   0  0  0  0  0  0  0  0  0  0  0  0
   56.9113   28.9948   45.5368 H   0  0  0  0  0  0  0  0  0  0  0  0
   56.9840   29.8803   43.9766 H   0  0  0  0  0  0  0  0  0  0  0  0
   58.8383   27.9979   44.8575 H   0  0  0  0  0  0  0  0  0  0  0  0
   59.1253   29.2472   43.5846 H   0  0  0  0  0  0  0  0  0  0  0  0
   59.6519   27.9582   46.5545 H   0  0  0  0  0  0  0  0  0  0  0  0
   61.1406   28.9315   46.8769 H   0  0  0  0  0  0  0  0  0  0  0  0
   58.3305   29.2889   47.9123 H   0  0  0  0  0  0  0  0  0  0  0  0
   59.9456   29.4945   48.7367 H   0  0  0  0  0  0  0  0  0  0  0  0
   58.2740   31.4450   47.6870 H   0  0  0  0  0  0  0  0  0  0  0  0
   59.5360   31.3920   46.6850 H   0  0  0  0  0  0  0  0  0  0  0  0
   61.4112   31.7873   46.2985 H   0  0  0  0  0  0  0  0  0  0  0  0
   63.4954   33.0238   45.7734 H   0  0  0  0  0  0  0  0  0  0  0  0
   64.5888   34.4284   47.5070 H   0  0  0  0  0  0  0  0  0  0  0  0
   63.7012   34.4590   49.8219 H   0  0  0  0  0  0  0  0  0  0  0  0
   62.0121   33.2553   52.7714 H   0  0  0  0  0  0  0  0  0  0  0  0
   63.4158   32.8340   51.7327 H   0  0  0  0  0  0  0  0  0  0  0  0
   62.7694   34.5100   51.7327 H   0  0  0  0  0  0  0  0  0  0  0  0
   60.3050   33.4209   53.0341 H   0  0  0  0  0  0  0  0  0  0  0  0
   58.0252   32.6133   53.5745 H   0  0  0  0  0  0  0  0  0  0  0  0
   57.5826   31.1062   49.5653 H   0  0  0  0  0  0  0  0  0  0  0  0
  1  2  1  0
  2  3  1  0
  3  4  1  0
  3  5  1  0
  5  6  1  0
  6  7  1  0
  7  8  1  0
  8  9  1  0
  9 10  1  0
 10 11  1  0
 11 12  1  0
 12 13  1  0
 13 14  1  0
 14 15  2  0
 15 16  1  0
 16 17  2  0
 17 18  1  0
 18 19  2  0
 19 20  1  0
 20 21  2  0
 21 22  1  0
 21 23  1  0
 23 24  2  0
 24 25  1  0
 25 26  2  0
 26 27  1  0
 26 28  1  0
 28 29  2  0
 29 14  1  0
 20 15  1  0
 29 23  1  0
  1 30  1  0
  1 31  1  0
  1 32  1  0
  2 33  1  0
  2 34  1  0
  4 35  1  0
  4 36  1  0
  4 37  1  0
  5 38  1  0
  5 39  1  0
  6 40  1  0
  6 41  1  0
  8 42  1  0
  8 43  1  0
  9 44  1  0
  9 45  1  0
 11 46  1  0
 11 47  1  0
 12 48  1  0
 12 49  1  0
 13 50  1  0
 13 51  1  0
 16 52  1  0
 17 53  1  0
 18 54  1  0
 19 55  1  0
 22 56  1  0
 22 57  1  0
 22 58  1  0
 24 59  1  0
 25 60  1  0
 28 61  1  0
M  CHG  2  13   1  21   1
M  END
>  <UniqueID>  (8) 
8

>  <SMILES>  (8) 
CCN(C)CCOCCOCC[NH2+]c1c2ccccc2[n+](C)c2ccc(Cl)cc12

>  <Energy>  (8) 
89.8629815300358

>  <Genealogy>  (8) 
CCN(C)CCOCCOCC[NH2+]c1c2ccccc2[n+](C)c2ccc(Cl)cc12 (protonated)
CCN(C)CCOCCOCC[NH2+]c1c2ccccc2[n+](C)c2ccc(Cl)cc12 (3D coordinates assigned)
CCN(C)CCOCCOCC[NH2+]c1c2ccccc2[n+](C)c2ccc(Cl)cc12 (optimized conformer: 89.8629815300358 kcal/mol)

>  <smiles>  (8) 
CCN(C)CCOCCOCCNc1c2ccccc2[n+](C)c2ccc(Cl)cc12

>  <score_type>  (8) 
oracle

>  <origin>  (8) 
adg

>  <m_score__min__energy>  (8) 
-3.6800000000000002

>  <m_primary>  (8) 
energy

$$$$
8:0
     RDKit          3D

 64 65  0  0  0  0  0  0  0  0999 V2000
   60.3900   34.5790   47.0090 C   0  0  0  0  0  0  0  0  0  0  0  0
   59.6400   34.5020   48.3350 C   0  0  0  0  0  0  0  0  0  0  0  0
   60.5550   34.1120   49.4170 N   0  0  0  0  0  0  0  0  0  0  0  0
   59.8270   33.7840   50.6510 C   0  0  0  0  0  0  0  0  0  0  0  0
   60.6940   32.8950   51.5440 C   0  0  0  0  0  0  0  0  0  0  0  0
   62.0120   32.7720   51.0080 O   0  0  0  0  0  0  0  0  0  0  0  0
   63.1490   33.2970   51.6310 C   0  0  0  0  0  0  0  0  0  0  0  0
   63.0570   34.2660   52.4330 O   0  0  0  0  0  0  0  0  0  0  0  0
   64.4810   32.6740   51.3710 C   0  0  0  0  0  0  0  0  0  0  0  0
   64.5150   32.0270   49.9830 C   0  0  0  0  0  0  0  0  0  0  0  0
   64.4760   33.1000   48.8820 C   0  0  0  0  0  0  0  0  0  0  0  0
   63.1190   33.3330   48.3660 N   0  0  0  0  0  0  0  0  0  0  0  0
   62.8460   32.5740   47.1380 C   0  0  0  0  0  0  0  0  0  0  0  0
   62.2550   31.2150   47.4960 C   0  0  0  0  0  0  0  0  0  0  0  0
   61.4860   31.3180   48.7390 N   0  0  0  0  0  0  0  0  0  0  0  0
   60.1290   30.2270   48.7350 S   0  0  0  0  0  0  0  0  0  0  0  0
   60.5480   28.9460   49.3980 O   0  0  0  0  0  0  0  0  0  0  0  0
   58.9960   30.8420   49.5100 O   0  0  0  0  0  0  0  0  0  0  0  0
   59.6060   29.8720   47.0750 C   0  0  0  0  0  0  0  0  0  0  0  0
   59.9660   28.6380   46.5140 C   0  0  0  0  0  0  0  0  0  0  0  0
   59.5940   28.3070   45.2140 C   0  0  0  0  0  0  0  0  0  0  0  0
   58.8470   29.1960   44.4490 C   0  0  0  0  0  0  0  0  0  0  0  0
   58.4470   30.4350   44.9810 C   0  0  0  0  0  0  0  0  0  0  0  0
   57.6740   31.3340   44.2110 C   0  0  0  0  0  0  0  0  0  0  0  0
   57.2820   31.0060   42.8700 N   0  0  0  0  0  0  0  0  0  0  0  0
   56.3000   29.9420   42.6700 C   0  0  0  0  0  0  0  0  0  0  0  0
   57.4750   32.0020   41.8180 C   0  0  0  0  0  0  0  0  0  0  0  0
   57.2790   32.5610   44.7570 C   0  0  0  0  0  0  0  0  0  0  0  0
   57.6410   32.9010   46.0570 C   0  0  0  0  0  0  0  0  0  0  0  0
   58.4030   32.0250   46.8300 C   0  0  0  0  0  0  0  0  0  0  0  0
   58.8250   30.7830   46.3110 C   0  0  0  0  0  0  0  0  0  0  0  0
   61.4671   34.6896   47.2029 H   0  0  0  0  0  0  0  0  0  0  0  0
   60.2136   33.6580   46.4339 H   0  0  0  0  0  0  0  0  0  0  0  0
   60.0301   35.4449   46.4339 H   0  0  0  0  0  0  0  0  0  0  0  0
   59.2060   35.4865   48.5640 H   0  0  0  0  0  0  0  0  0  0  0  0
   58.8428   33.7487   48.2518 H   0  0  0  0  0  0  0  0  0  0  0  0
   61.0740   33.2530   49.1160 H   0  0  0  0  0  0  0  0  0  0  0  0
   59.5818   34.7122   51.1879 H   0  0  0  0  0  0  0  0  0  0  0  0
   58.9012   33.2481   50.3947 H   0  0  0  0  0  0  0  0  0  0  0  0
   60.7528   33.3401   52.5482 H   0  0  0  0  0  0  0  0  0  0  0  0
   60.2388   31.8949   51.5954 H   0  0  0  0  0  0  0  0  0  0  0  0
   65.2593   33.4493   51.4270 H   0  0  0  0  0  0  0  0  0  0  0  0
   64.6613   31.8965   52.1279 H   0  0  0  0  0  0  0  0  0  0  0  0
   65.4389   31.4387   49.8813 H   0  0  0  0  0  0  0  0  0  0  0  0
   63.6346   31.3766   49.8743 H   0  0  0  0  0  0  0  0  0  0  0  0
   64.8622   34.0432   49.2957 H   0  0  0  0  0  0  0  0  0  0  0  0
   65.0930   32.7407   48.0452 H   0  0  0  0  0  0  0  0  0  0  0  0
   62.4200   33.0610   49.0980 H   0  0  0  0  0  0  0  0  0  0  0  0
   62.1310   33.1312   46.5148 H   0  0  0  0  0  0  0  0  0  0  0  0
   63.7844   32.4289   46.5827 H   0  0  0  0  0  0  0  0  0  0  0  0
   61.5929   30.8798   46.6841 H   0  0  0  0  0  0  0  0  0  0  0  0
   63.0707   30.4900   47.6335 H   0  0  0  0  0  0  0  0  0  0  0  0
   60.5506   27.9215   47.1097 H   0  0  0  0  0  0  0  0  0  0  0  0
   59.8926   27.3370   44.7897 H   0  0  0  0  0  0  0  0  0  0  0  0
   58.5667   28.9281   43.4196 H   0  0  0  0  0  0  0  0  0  0  0  0
   55.9574   29.5708   43.6472 H   0  0  0  0  0  0  0  0  0  0  0  0
   55.4418   30.3364   42.1062 H   0  0  0  0  0  0  0  0  0  0  0  0
   56.7618   29.1181   42.1062 H   0  0  0  0  0  0  0  0  0  0  0  0
   57.6654   32.9848   42.2740 H   0  0  0  0  0  0  0  0  0  0  0  0
   58.3342   31.7146   41.1941 H   0  0  0  0  0  0  0  0  0  0  0  0
   56.5707   32.0563   41.1941 H   0  0  0  0  0  0  0  0  0  0  0  0
   56.6794   33.2600   44.1554 H   0  0  0  0  0  0  0  0  0  0  0  0
   57.3242   33.8668   46.4776 H   0  0  0  0  0  0  0  0  0  0  0  0
   58.6783   32.3062   47.8572 H   0  0  0  0  0  0  0  0  0  0  0  0
  1  2  1  0
  2  3  1  0
  3  4  1  0
  4  5  1  0
  5  6  1  0
  6  7  1  0
  7  8  2  0
  7  9  1  0
  9 10  1  0
 10 11  1  0
 11 12  1  0
 12 13  1  0
 13 14  1  0
 14 15  1  0
 15 16  1  0
 16 17  2  0
 16 18  2  0
 16 19  1  0
 19 20  2  0
 20 21  1  0
 21 22  2  0
 22 23  1  0
 23 24  2  0
 24 25  1  0
 25 26  1  0
 25 27  1  0
 24 28  1  0
 28 29  2  0
 29 30  1  0
 30 31  2  0
 31 19  1  0
 31 23  1  0
  1 32  1  0
  1 33  1  0
  1 34  1  0
  2 35  1  0
  2 36  1  0
  3 37  1  0
  4 38  1  0
  4 39  1  0
  5 40  1  0
  5 41  1  0
  9 42  1  0
  9 43  1  0
 10 44  1  0
 10 45  1  0
 11 46  1  0
 11 47  1  0
 12 48  1  0
 13 49  1  0
 13 50  1  0
 14 51  1  0
 14 52  1  0
 20 53  1  0
 21 54  1  0
 22 55  1  0
 26 56  1  0
 26 57  1  0
 26 58  1  0
 27 59  1  0
 27 60  1  0
 27 61  1  0
 28 62  1  0
 29 63  1  0
 30 64  1  0
M  CHG  1  15  -1
M  END
>  <UniqueID>  (9) 
9

>  <SMILES>  (9) 
CCNCCOC(=O)CCCNCC[N-]S(=O)(=O)c1cccc2c(N(C)C)cccc12

>  <Energy>  (9) 
61.261451171792935

>  <Genealogy>  (9) 
CCNCCOC(=O)CCCNCC[N-]S(=O)(=O)c1cccc2c(N(C)C)cccc12 (protonated)
CCNCCOC(=O)CCCNCC[N-]S(=O)(=O)c1cccc2c(N(C)C)cccc12 (3D coordinates assigned)
CCNCCOC(=O)CCCNCC[N-]S(=O)(=O)c1cccc2c(N(C)C)cccc12 (optimized conformer: 61.261451171792935 kcal/mol)

>  <smiles>  (9) 
CCNCCOC(=O)CCCNCCNS(=O)(=O)c1cccc2c(N(C)C)cccc12

>  <score_type>  (9) 
oracle

>  <origin>  (9) 
adg

>  <m_score__min__energy>  (9) 
-10.550000000000001

>  <m_primary>  (9) 
energy

$$$$
9:0
     RDKit          3D

 47 48  0  0  0  0  0  0  0  0999 V2000
   59.7390   33.8280   50.3470 C   0  0  0  0  0  0  0  0  0  0  0  0
   60.3290   33.8590   48.9670 C   0  0  0  0  0  0  0  0  0  0  0  0
   61.7020   33.6470   48.7830 C   0  0  0  0  0  0  0  0  0  0  0  0
   62.2520   33.6420   47.4930 C   0  0  0  0  0  0  0  0  0  0  0  0
   63.7160   33.3720   47.2990 C   0  0  0  0  0  0  0  0  0  0  0  0
   61.4140   33.8100   46.3820 C   0  0  0  0  0  0  0  0  0  0  0  0
   60.0360   34.0250   46.5520 C   0  0  0  0  0  0  0  0  0  0  0  0
   59.1410   34.1900   45.3830 C   0  0  0  0  0  0  0  0  0  0  0  0
   58.9270   35.3490   44.9340 O   0  0  0  0  0  0  0  0  0  0  0  0
   58.4980   33.0400   44.7140 C   0  0  0  0  0  0  0  0  0  0  0  0
   58.0710   33.0020   43.4000 C   0  0  0  0  0  0  0  0  0  0  0  0
   57.5820   31.7290   43.1840 C   0  0  0  0  0  0  0  0  0  0  0  0
   57.7040   30.9910   44.3080 N   0  0  0  0  0  0  0  0  0  0  0  0
   57.3330   29.6130   44.4980 C   0  0  0  0  0  0  0  0  0  0  0  0
   56.2850   29.3400   45.1450 O   0  0  0  0  0  0  0  0  0  0  0  0
   58.1310   28.5480   43.9510 N   0  0  0  0  0  0  0  0  0  0  0  0
   57.7830   27.1340   44.1110 C   0  0  0  0  0  0  0  0  0  0  0  0
   58.0000   26.6350   45.5660 C   0  0  0  0  0  0  0  0  0  0  0  0
   59.0170   27.5320   46.3010 C   0  0  0  0  0  0  0  0  0  0  0  0
   56.6660   26.6280   46.3420 C   0  0  0  0  0  0  0  0  0  0  0  0
   58.5530   25.1960   45.5160 C   0  0  0  0  0  0  0  0  0  0  0  0
   58.2710   31.7810   45.2430 C   0  0  0  0  0  0  0  0  0  0  0  0
   59.4980   34.0280   47.8490 C   0  0  0  0  0  0  0  0  0  0  0  0
   60.5470   33.8705   51.0922 H   0  0  0  0  0  0  0  0  0  0  0  0
   59.0717   34.6923   50.4800 H   0  0  0  0  0  0  0  0  0  0  0  0
   59.1660   32.8985   50.4800 H   0  0  0  0  0  0  0  0  0  0  0  0
   62.3519   33.4836   49.6553 H   0  0  0  0  0  0  0  0  0  0  0  0
   64.2054   33.2818   48.2800 H   0  0  0  0  0  0  0  0  0  0  0  0
   63.8448   32.4350   46.7374 H   0  0  0  0  0  0  0  0  0  0  0  0
   64.1706   34.2015   46.7374 H   0  0  0  0  0  0  0  0  0  0  0  0
   61.8390   33.7732   45.3681 H   0  0  0  0  0  0  0  0  0  0  0  0
   58.1126   33.8240   42.6702 H   0  0  0  0  0  0  0  0  0  0  0  0
   57.1558   31.3691   42.2359 H   0  0  0  0  0  0  0  0  0  0  0  0
   58.9680   28.7720   43.3720 H   0  0  0  0  0  0  0  0  0  0  0  0
   56.7245   26.9977   43.8444 H   0  0  0  0  0  0  0  0  0  0  0  0
   58.4415   26.5485   43.4525 H   0  0  0  0  0  0  0  0  0  0  0  0
   58.8881   27.4183   47.3875 H   0  0  0  0  0  0  0  0  0  0  0  0
   60.0382   27.2351   46.0198 H   0  0  0  0  0  0  0  0  0  0  0  0
   58.8500   28.5823   46.0198 H   0  0  0  0  0  0  0  0  0  0  0  0
   56.8705   26.6291   47.4228 H   0  0  0  0  0  0  0  0  0  0  0  0
   56.0836   27.5231   46.0781 H   0  0  0  0  0  0  0  0  0  0  0  0
   56.0930   25.7268   46.0781 H   0  0  0  0  0  0  0  0  0  0  0  0
   58.6965   24.8225   46.5407 H   0  0  0  0  0  0  0  0  0  0  0  0
   57.8401   24.5474   44.9858 H   0  0  0  0  0  0  0  0  0  0  0  0
   59.5168   25.1918   44.9858 H   0  0  0  0  0  0  0  0  0  0  0  0
   58.5158   31.4717   46.2699 H   0  0  0  0  0  0  0  0  0  0  0  0
   58.4156   34.1640   47.9899 H   0  0  0  0  0  0  0  0  0  0  0  0
  1  2  1  0
  2  3  2  0
  3  4  1  0
  4  5  1  0
  4  6  2  0
  6  7  1  0
  7  8  1  0
  8  9  2  0
  8 10  1  0
 10 11  1  0
 11 12  2  0
 12 13  1  0
 13 14  1  0
 14 15  2  0
 14 16  1  0
 16 17  1  0
 17 18  1  0
 18 19  1  0
 18 20  1  0
 18 21  1  0
 13 22  1  0
  7 23  2  0
 23  2  1  0
 22 10  2  0
  1 24  1  0
  1 25  1  0
  1 26  1  0
  3 27  1  0
  5 28  1  0
  5 29  1  0
  5 30  1  0
  6 31  1  0
 11 32  1  0
 12 33  1  0
 16 34  1  0
 17 35  1  0
 17 36  1  0
 19 37  1  0
 19 38  1  0
 19 39  1  0
 20 40  1  0
 20 41  1  0
 20 42  1  0
 21 43  1  0
 21 44  1  0
 21 45  1  0
 22 46  1  0
 23 47  1  0
M  END
>  <UniqueID>  (10) 
10

>  <SMILES>  (10) 
Cc1cc(C)cc(C(=O)c2ccn(C(=O)NCC(C)(C)C)c2)c1

>  <Energy>  (10) 
69.19074347094923

>  <Genealogy>  (10) 
Cc1cc(C)cc(C(=O)c2ccn(C(=O)NCC(C)(C)C)c2)c1 (3D coordinates assigned)
Cc1cc(C)cc(C(=O)c2ccn(C(=O)NCC(C)(C)C)c2)c1 (optimized conformer: 69.19074347094923 kcal/mol)

>  <smiles>  (10) 
Cc1cc(C)cc(C(=O)c2ccn(C(=O)NCC(C)(C)C)c2)c1

>  <score_type>  (10) 
oracle

>  <origin>  (10) 
adg

>  <m_score__min__energy>  (10) 
-8.3300000000000001

>  <m_primary>  (10) 
energy

$$$$
10:0
     RDKit          3D

 45 47  0  0  0  0  0  0  0  0999 V2000
   56.9930   31.0000   42.4940 C   0  0  0  0  0  0  0  0  0  0  0  0
   56.4090   29.7820   43.2150 C   0  0  0  0  0  0  0  0  0  0  0  0
   57.2850   28.5930   43.0910 N   0  0  0  0  0  0  0  0  0  0  0  0
   58.3370   28.5350   44.1220 C   0  0  0  0  0  0  0  0  0  0  0  0
   57.7600   28.3640   45.5350 C   0  0  0  0  0  0  0  0  0  0  0  0
   57.4410   29.6630   46.1250 N   0  0  0  0  0  0  0  0  0  0  0  0
   58.4910   30.5140   46.6040 C   0  0  0  0  0  0  0  0  0  0  0  0
   58.5930   31.8120   46.1070 C   0  0  0  0  0  0  0  0  0  0  0  0
   59.6440   32.6490   46.5270 C   0  0  0  0  0  0  0  0  0  0  0  0
   60.6230   32.1620   47.3720 N   0  0  0  0  0  0  0  0  0  0  0  0
   61.8440   32.9570   47.6230 C   0  0  0  0  0  0  0  0  0  0  0  0
   60.4510   30.9350   47.9910 C   0  0  0  0  0  0  0  0  0  0  0  0
   61.3070   30.4970   49.0330 C   0  0  0  0  0  0  0  0  0  0  0  0
   61.1300   29.2510   49.6320 C   0  0  0  0  0  0  0  0  0  0  0  0
   60.0940   28.4180   49.2260 C   0  0  0  0  0  0  0  0  0  0  0  0
   59.2200   28.8300   48.2230 C   0  0  0  0  0  0  0  0  0  0  0  0
   59.3840   30.0820   47.5970 C   0  0  0  0  0  0  0  0  0  0  0  0
   59.7100   34.0470   45.9260 C   0  0  0  0  0  0  0  0  0  0  0  0
   58.3230   34.5740   45.5360 C   0  0  0  0  0  0  0  0  0  0  0  0
   57.5350   33.5270   44.8090 C   0  0  0  0  0  0  0  0  0  0  0  0
   57.6410   32.2760   45.1360 N   0  0  0  0  0  0  0  0  0  0  0  0
   57.3440   31.7320   43.2363 H   0  0  0  0  0  0  0  0  0  0  0  0
   57.8371   30.6832   41.8639 H   0  0  0  0  0  0  0  0  0  0  0  0
   56.2174   31.4598   41.8639 H   0  0  0  0  0  0  0  0  0  0  0  0
   56.2875   30.0244   44.2811 H   0  0  0  0  0  0  0  0  0  0  0  0
   55.4415   29.5423   42.7497 H   0  0  0  0  0  0  0  0  0  0  0  0
   57.7650   28.6390   42.1610 H   0  0  0  0  0  0  0  0  0  0  0  0
   56.7350   27.7010   43.0980 H   0  0  0  0  0  0  0  0  0  0  0  0
   58.9986   27.6835   43.9047 H   0  0  0  0  0  0  0  0  0  0  0  0
   58.8863   29.4877   44.0960 H   0  0  0  0  0  0  0  0  0  0  0  0
   56.8436   27.7580   45.4797 H   0  0  0  0  0  0  0  0  0  0  0  0
   58.5110   27.8649   46.1650 H   0  0  0  0  0  0  0  0  0  0  0  0
   56.4850   30.0720   46.0180 H   0  0  0  0  0  0  0  0  0  0  0  0
   61.9993   33.0581   48.7073 H   0  0  0  0  0  0  0  0  0  0  0  0
   62.7107   32.4495   47.1742 H   0  0  0  0  0  0  0  0  0  0  0  0
   61.7305   33.9549   47.1742 H   0  0  0  0  0  0  0  0  0  0  0  0
   62.1234   31.1507   49.3739 H   0  0  0  0  0  0  0  0  0  0  0  0
   61.8135   28.9253   50.4299 H   0  0  0  0  0  0  0  0  0  0  0  0
   59.9643   27.4326   49.6973 H   0  0  0  0  0  0  0  0  0  0  0  0
   58.3937   28.1718   47.9164 H   0  0  0  0  0  0  0  0  0  0  0  0
   60.1540   34.7301   46.6651 H   0  0  0  0  0  0  0  0  0  0  0  0
   60.3213   33.9945   45.0130 H   0  0  0  0  0  0  0  0  0  0  0  0
   57.7796   34.8650   46.4471 H   0  0  0  0  0  0  0  0  0  0  0  0
   58.4519   35.4403   44.8705 H   0  0  0  0  0  0  0  0  0  0  0  0
   56.8610   33.8217   43.9911 H   0  0  0  0  0  0  0  0  0  0  0  0
  1  2  1  0
  2  3  1  0
  3  4  1  0
  4  5  1  0
  5  6  1  0
  6  7  1  0
  7  8  2  0
  8  9  1  0
  9 10  2  0
 10 11  1  0
 10 12  1  0
 12 13  2  0
 13 14  1  0
 14 15  2  0
 15 16  1  0
 16 17  2  0
  9 18  1  0
 18 19  1  0
 19 20  1  0
 20 21  2  0
 17  7  1  0
 21  8  1  0
 17 12  1  0
  1 22  1  0
  1 23  1  0
  1 24  1  0
  2 25  1  0
  2 26  1  0
  3 27  1  0
  3 28  1  0
  4 29  1  0
  4 30  1  0
  5 31  1  0
  5 32  1  0
  6 33  1  0
 11 34  1  0
 11 35  1  0
 11 36  1  0
 13 37  1  0
 14 38  1  0
 15 39  1  0
 16 40  1  0
 18 41  1  0
 18 42  1  0
 19 43  1  0
 19 44  1  0
 20 45  1  0
M  CHG  2   3   1  10   1
M  END
>  <UniqueID>  (11) 
11

>  <SMILES>  (11) 
CC[NH2+]CCNc1c2c([n+](C)c3ccccc13)CCC=N2

>  <Energy>  (11) 
65.80417192705745

>  <Genealogy>  (11) 
CC[NH2+]CCNc1c2c([n+](C)c3ccccc13)CCC=N2 (protonated)
CC[NH2+]CCNc1c2c([n+](C)c3ccccc13)CCC=N2 (3D coordinates assigned)
CC[NH2+]CCNc1c2c([n+](C)c3ccccc13)CCC=N2 (nonaromatic ring conformer: 65.80417192705745 kcal/mol)

>  <smiles>  (11) 
CCNCCNc1c2c([n+](C)c3ccccc13)CCC=N2

>  <score_type>  (11) 
oracle

>  <origin>  (11) 
adg

>  <m_score__min__energy>  (11) 
-3.9900000000000002

>  <m_primary>  (11) 
energy

$$$$
11:0
     RDKit          3D

 44 46  0  0  0  0  0  0  0  0999 V2000
   56.7020   30.3350   43.8070 C   0  0  0  0  0  0  0  0  0  0  0  0
   57.7450   30.8200   44.8060 C   0  0  0  0  0  0  0  0  0  0  0  0
   57.2950   32.0590   45.4530 N   0  0  0  0  0  0  0  0  0  0  0  0
   57.4890   33.2370   44.5930 C   0  0  0  0  0  0  0  0  0  0  0  0
   58.4800   34.2200   45.2330 C   0  0  0  0  0  0  0  0  0  0  0  0
   58.5010   34.1630   46.7810 C   0  0  0  0  0  0  0  0  0  0  0  0
   58.8030   32.8150   47.3060 N   0  0  0  0  0  0  0  0  0  0  0  0
   59.7520   32.8550   48.4040 C   0  0  0  0  0  0  0  0  0  0  0  0
   61.1380   33.1140   48.2100 C   0  0  0  0  0  0  0  0  0  0  0  0
   61.6890   33.2400   46.9150 C   0  0  0  0  0  0  0  0  0  0  0  0
   63.0510   33.4670   46.7350 C   0  0  0  0  0  0  0  0  0  0  0  0
   63.8960   33.5590   47.8330 C   0  0  0  0  0  0  0  0  0  0  0  0
   63.3860   33.4450   49.1240 C   0  0  0  0  0  0  0  0  0  0  0  0
   62.0000   33.2450   49.3500 C   0  0  0  0  0  0  0  0  0  0  0  0
   61.4850   33.1630   50.6340 N   0  0  0  0  0  0  0  0  0  0  0  0
   62.3180   33.4830   51.8120 C   0  0  0  0  0  0  0  0  0  0  0  0
   60.1790   32.7750   50.8040 C   0  0  0  0  0  0  0  0  0  0  0  0
   59.5520   32.4730   52.0340 C   0  0  0  0  0  0  0  0  0  0  0  0
   58.2130   32.1260   51.9000 C   0  0  0  0  0  0  0  0  0  0  0  0
   57.8060   32.1730   50.2700 S   0  0  0  0  0  0  0  0  0  0  0  0
   59.3280   32.6370   49.7190 C   0  0  0  0  0  0  0  0  0  0  0  0
   55.8343   29.9315   44.3496 H   0  0  0  0  0  0  0  0  0  0  0  0
   56.3806   31.1760   43.1751 H   0  0  0  0  0  0  0  0  0  0  0  0
   57.1380   29.5472   43.1751 H   0  0  0  0  0  0  0  0  0  0  0  0
   57.9004   30.0464   45.5724 H   0  0  0  0  0  0  0  0  0  0  0  0
   58.6865   31.0171   44.2724 H   0  0  0  0  0  0  0  0  0  0  0  0
   56.2670   31.9630   45.6280 H   0  0  0  0  0  0  0  0  0  0  0  0
   57.8819   32.9116   43.6184 H   0  0  0  0  0  0  0  0  0  0  0  0
   56.5213   33.7441   44.4649 H   0  0  0  0  0  0  0  0  0  0  0  0
   59.4892   33.9861   44.8631 H   0  0  0  0  0  0  0  0  0  0  0  0
   58.1548   35.2328   44.9528 H   0  0  0  0  0  0  0  0  0  0  0  0
   59.2680   34.8615   47.1469 H   0  0  0  0  0  0  0  0  0  0  0  0
   57.4952   34.4353   47.1336 H   0  0  0  0  0  0  0  0  0  0  0  0
   57.9110   32.3490   47.5880 H   0  0  0  0  0  0  0  0  0  0  0  0
   59.1830   32.2160   46.5380 H   0  0  0  0  0  0  0  0  0  0  0  0
   61.0325   33.1576   46.0363 H   0  0  0  0  0  0  0  0  0  0  0  0
   63.4591   33.5738   45.7191 H   0  0  0  0  0  0  0  0  0  0  0  0
   64.9733   33.7227   47.6825 H   0  0  0  0  0  0  0  0  0  0  0  0
   64.0698   33.5112   49.9831 H   0  0  0  0  0  0  0  0  0  0  0  0
   61.7530   33.2659   52.7305 H   0  0  0  0  0  0  0  0  0  0  0  0
   63.2326   32.8722   51.7912 H   0  0  0  0  0  0  0  0  0  0  0  0
   62.5884   34.5490   51.7912 H   0  0  0  0  0  0  0  0  0  0  0  0
   60.0727   32.5091   53.0023 H   0  0  0  0  0  0  0  0  0  0  0  0
   57.5327   31.8641   52.7238 H   0  0  0  0  0  0  0  0  0  0  0  0
  1  2  1  0
  2  3  1  0
  3  4  1  0
  4  5  1  0
  5  6  1  0
  6  7  1  0
  7  8  1  0
  8  9  2  0
  9 10  1  0
 10 11  2  0
 11 12  1  0
 12 13  2  0
 13 14  1  0
 14 15  2  0
 15 16  1  0
 15 17  1  0
 17 18  1  0
 18 19  2  0
 19 20  1  0
 20 21  1  0
 21  8  1  0
 14  9  1  0
 21 17  2  0
  1 22  1  0
  1 23  1  0
  1 24  1  0
  2 25  1  0
  2 26  1  0
  3 27  1  0
  4 28  1  0
  4 29  1  0
  5 30  1  0
  5 31  1  0
  6 32  1  0
  6 33  1  0
  7 34  1  0
  7 35  1  0
 10 36  1  0
 11 37  1  0
 12 38  1  0
 13 39  1  0
 16 40  1  0
 16 41  1  0
 16 42  1  0
 18 43  1  0
 19 44  1  0
M  CHG  2   7   1  15   1
M  END
>  <UniqueID>  (12) 
12

>  <SMILES>  (12) 
CCNCCC[NH2+]c1c2ccccc2[n+](C)c2ccsc12

>  <Energy>  (12) 
87.69573446166244

>  <Genealogy>  (12) 
CCNCCC[NH2+]c1c2ccccc2[n+](C)c2ccsc12 (protonated)
CCNCCC[NH2+]c1c2ccccc2[n+](C)c2ccsc12 (3D coordinates assigned)
CCNCCC[NH2+]c1c2ccccc2[n+](C)c2ccsc12 (optimized conformer: 87.69573446166244 kcal/mol)

>  <smiles>  (12) 
CCNCCCNc1c2ccccc2[n+](C)c2ccsc12

>  <score_type>  (12) 
oracle

>  <origin>  (12) 
adg

>  <m_score__min__energy>  (12) 
-4.0300000000000002

>  <m_primary>  (12) 
energy

$$$$
12:0
     RDKit          3D

 64 66  0  0  0  0  0  0  0  0999 V2000
   62.5430   33.0360   46.9340 C   0  0  0  0  0  0  0  0  0  0  0  0
   63.8110   33.4450   47.6810 C   0  0  0  0  0  0  0  0  0  0  0  0
   64.0050   32.6150   48.8910 N   0  0  0  0  0  0  0  0  0  0  0  0
   65.0530   33.1970   49.7610 C   0  0  0  0  0  0  0  0  0  0  0  0
   66.1170   32.1580   50.1150 C   0  0  0  0  0  0  0  0  0  0  0  0
   62.7290   32.4030   49.6260 C   0  0  0  0  0  0  0  0  0  0  0  0
   62.7990   31.0880   50.4050 C   0  0  0  0  0  0  0  0  0  0  0  0
   61.5100   30.5090   50.5020 O   0  0  0  0  0  0  0  0  0  0  0  0
   61.4960   29.4950   51.4860 C   0  0  0  0  0  0  0  0  0  0  0  0
   60.0530   29.0780   51.7750 C   0  0  0  0  0  0  0  0  0  0  0  0
   59.2400   29.2460   50.6280 O   0  0  0  0  0  0  0  0  0  0  0  0
   58.2430   30.2180   50.8650 C   0  0  0  0  0  0  0  0  0  0  0  0
   58.5000   31.4430   49.9840 C   0  0  0  0  0  0  0  0  0  0  0  0
   59.6060   31.2020   49.0400 N   0  0  0  0  0  0  0  0  0  0  0  0
   59.1320   31.2910   47.6660 C   0  0  0  0  0  0  0  0  0  0  0  0
   59.1110   32.5400   46.9900 C   0  0  0  0  0  0  0  0  0  0  0  0
   59.4070   33.7550   47.6610 C   0  0  0  0  0  0  0  0  0  0  0  0
   59.4800   34.9600   46.9680 C   0  0  0  0  0  0  0  0  0  0  0  0
   59.2750   34.9870   45.5980 C   0  0  0  0  0  0  0  0  0  0  0  0
   58.9350   33.8200   44.9200 C   0  0  0  0  0  0  0  0  0  0  0  0
   58.7840   32.5860   45.6060 C   0  0  0  0  0  0  0  0  0  0  0  0
   58.3430   31.4510   44.9550 N   0  0  0  0  0  0  0  0  0  0  0  0
   57.7280   31.5690   43.6120 C   0  0  0  0  0  0  0  0  0  0  0  0
   58.4160   30.2170   45.5740 C   0  0  0  0  0  0  0  0  0  0  0  0
   58.1860   29.0130   44.8540 C   0  0  0  0  0  0  0  0  0  0  0  0
   58.1540   27.7790   45.4980 C   0  0  0  0  0  0  0  0  0  0  0  0
   57.8020   26.1850   44.5010 Br  0  0  0  0  0  0  0  0  0  0  0  0
   58.3640   27.7070   46.8680 C   0  0  0  0  0  0  0  0  0  0  0  0
   58.6610   28.8590   47.5910 C   0  0  0  0  0  0  0  0  0  0  0  0
   58.7410   30.1240   46.9560 C   0  0  0  0  0  0  0  0  0  0  0  0
   61.7559   32.7821   47.6593 H   0  0  0  0  0  0  0  0  0  0  0  0
   62.2042   33.8704   46.3024 H   0  0  0  0  0  0  0  0  0  0  0  0
   62.7557   32.1609   46.3024 H   0  0  0  0  0  0  0  0  0  0  0  0
   64.6774   33.3183   47.0152 H   0  0  0  0  0  0  0  0  0  0  0  0
   63.7123   34.4963   47.9893 H   0  0  0  0  0  0  0  0  0  0  0  0
   65.5317   34.0357   49.2343 H   0  0  0  0  0  0  0  0  0  0  0  0
   64.5804   33.5430   50.6921 H   0  0  0  0  0  0  0  0  0  0  0  0
   66.2004   32.0766   51.2088 H   0  0  0  0  0  0  0  0  0  0  0  0
   65.8306   31.1823   49.6955 H   0  0  0  0  0  0  0  0  0  0  0  0
   67.0856   32.4675   49.6955 H   0  0  0  0  0  0  0  0  0  0  0  0
   62.5671   33.2355   50.3265 H   0  0  0  0  0  0  0  0  0  0  0  0
   61.8965   32.3591   48.9084 H   0  0  0  0  0  0  0  0  0  0  0  0
   63.4720   30.3917   49.8832 H   0  0  0  0  0  0  0  0  0  0  0  0
   63.1795   31.2897   51.4172 H   0  0  0  0  0  0  0  0  0  0  0  0
   62.0624   28.6249   51.1226 H   0  0  0  0  0  0  0  0  0  0  0  0
   61.9572   29.8763   52.4090 H   0  0  0  0  0  0  0  0  0  0  0  0
   60.0371   28.0201   52.0761 H   0  0  0  0  0  0  0  0  0  0  0  0
   59.6583   29.7127   52.5820 H   0  0  0  0  0  0  0  0  0  0  0  0
   57.2559   29.7957   50.6258 H   0  0  0  0  0  0  0  0  0  0  0  0
   58.2690   30.5173   51.9232 H   0  0  0  0  0  0  0  0  0  0  0  0
   57.5871   31.6729   49.4150 H   0  0  0  0  0  0  0  0  0  0  0  0
   58.7764   32.2861   50.6342 H   0  0  0  0  0  0  0  0  0  0  0  0
   60.0520   30.2760   49.2240 H   0  0  0  0  0  0  0  0  0  0  0  0
   60.3890   31.8710   49.2120 H   0  0  0  0  0  0  0  0  0  0  0  0
   59.5817   33.7443   48.7470 H   0  0  0  0  0  0  0  0  0  0  0  0
   59.7007   35.8921   47.5088 H   0  0  0  0  0  0  0  0  0  0  0  0
   59.3811   35.9322   45.0453 H   0  0  0  0  0  0  0  0  0  0  0  0
   58.7803   33.8543   43.8315 H   0  0  0  0  0  0  0  0  0  0  0  0
   56.6527   31.7753   43.7180 H   0  0  0  0  0  0  0  0  0  0  0  0
   58.2066   32.3917   43.0605 H   0  0  0  0  0  0  0  0  0  0  0  0
   57.8681   30.6276   43.0605 H   0  0  0  0  0  0  0  0  0  0  0  0
   58.0302   29.0572   43.7660 H   0  0  0  0  0  0  0  0  0  0  0  0
   58.2956   26.7377   47.3836 H   0  0  0  0  0  0  0  0  0  0  0  0
   58.8368   28.7864   48.6744 H   0  0  0  0  0  0  0  0  0  0  0  0
  1  2  1  0
  2  3  1  0
  3  4  1  0
  4  5  1  0
  3  6  1  0
  6  7  1  0
  7  8  1  0
  8  9  1  0
  9 10  1  0
 10 11  1  0
 11 12  1  0
 12 13  1  0
 13 14  1  0
 14 15  1  0
 15 16  2  0
 16 17  1  0
 17 18  2  0
 18 19  1  0
 19 20  2  0
 20 21  1  0
 21 22  2  0
 22 23  1  0
 22 24  1  0
 24 25  2  0
 25 26  1  0
 26 27  1  0
 26 28  2  0
 28 29  1  0
 29 30  2  0
 30 15  1  0
 21 16  1  0
 30 24  1  0
  1 31  1  0
  1 32  1  0
  1 33  1  0
  2 34  1  0
  2 35  1  0
  4 36  1  0
  4 37  1  0
  5 38  1  0
  5 39  1  0
  5 40  1  0
  6 41  1  0
  6 42  1  0
  7 43  1  0
  7 44  1  0
  9 45  1  0
  9 46  1  0
 10 47  1  0
 10 48  1  0
 12 49  1  0
 12 50  1  0
 13 51  1  0
 13 52  1  0
 14 53  1  0
 14 54  1  0
 17 55  1  0
 18 56  1  0
 19 57  1  0
 20 58  1  0
 23 59  1  0
 23 60  1  0
 23 61  1  0
 25 62  1  0
 28 63  1  0
 29 64  1  0
M  CHG  2  14   1  22   1
M  END
>  <UniqueID>  (13) 
13

>  <SMILES>  (13) 
CCN(CC)CCOCCOCC[NH2+]c1c2ccccc2[n+](C)c2cc(Br)ccc12

>  <Energy>  (13) 
91.57258879597197

>  <Genealogy>  (13) 
CCN(CC)CCOCCOCC[NH2+]c1c2ccccc2[n+](C)c2cc(Br)ccc12 (protonated)
CCN(CC)CCOCCOCC[NH2+]c1c2ccccc2[n+](C)c2cc(Br)ccc12 (3D coordinates assigned)
CCN(CC)CCOCCOCC[NH2+]c1c2ccccc2[n+](C)c2cc(Br)ccc12 (optimized conformer: 91.57258879597197 kcal/mol)

>  <smiles>  (13) 
CCN(CC)CCOCCOCCNc1c2ccccc2[n+](C)c2cc(Br)ccc12

>  <score_type>  (13) 
oracle

>  <origin>  (13) 
adg

>  <m_score__min__energy>  (13) 
-3.9199999999999999

>  <m_primary>  (13) 
energy

$$$$
13:0
     RDKit          3D

 86 88  0  0  0  0  0  0  0  0999 V2000
   63.2230   33.7340   46.7210 C   0  0  0  0  0  0  0  0  0  0  0  0
   62.5890   32.5960   47.5140 C   0  0  0  0  0  0  0  0  0  0  0  0
   63.3450   32.3130   48.8220 C   0  0  0  0  0  0  0  0  0  0  0  0
   62.6180   32.8430   50.0040 N   0  0  0  0  0  0  0  0  0  0  0  0
   62.9250   34.2860   50.1570 C   0  0  0  0  0  0  0  0  0  0  0  0
   63.7600   34.5860   51.4020 C   0  0  0  0  0  0  0  0  0  0  0  0
   62.9640   32.0640   51.2260 C   0  0  0  0  0  0  0  0  0  0  0  0
   63.1450   30.5710   50.9200 C   0  0  0  0  0  0  0  0  0  0  0  0
   61.9820   30.0460   50.3140 O   0  0  0  0  0  0  0  0  0  0  0  0
   61.6420   28.8130   50.9170 C   0  0  0  0  0  0  0  0  0  0  0  0
   60.6890   28.0380   50.0080 C   0  0  0  0  0  0  0  0  0  0  0  0
   60.5600   28.6900   48.7540 O   0  0  0  0  0  0  0  0  0  0  0  0
   60.0940   27.8050   47.7540 C   0  0  0  0  0  0  0  0  0  0  0  0
   59.0920   28.5100   46.8370 C   0  0  0  0  0  0  0  0  0  0  0  0
   58.5630   29.7180   47.4740 N   0  0  0  0  0  0  0  0  0  0  0  0
   58.5960   30.9770   46.7870 C   0  0  0  0  0  0  0  0  0  0  0  0
   58.0930   31.0530   45.4750 C   0  0  0  0  0  0  0  0  0  0  0  0
   57.4700   29.9380   44.8720 C   0  0  0  0  0  0  0  0  0  0  0  0
   56.9470   30.0230   43.5860 C   0  0  0  0  0  0  0  0  0  0  0  0
   57.0200   31.2210   42.8840 C   0  0  0  0  0  0  0  0  0  0  0  0
   57.6290   32.3340   43.4590 C   0  0  0  0  0  0  0  0  0  0  0  0
   58.1960   32.2700   44.7560 C   0  0  0  0  0  0  0  0  0  0  0  0
   58.8170   33.3590   45.3310 N   0  0  0  0  0  0  0  0  0  0  0  0
   59.2020   34.5170   44.4940 C   0  0  0  0  0  0  0  0  0  0  0  0
   59.0900   33.3630   46.6860 C   0  0  0  0  0  0  0  0  0  0  0  0
   59.4140   34.5630   47.3610 C   0  0  0  0  0  0  0  0  0  0  0  0
   59.7040   34.5720   48.7160 C   0  0  0  0  0  0  0  0  0  0  0  0
   59.6970   33.3930   49.4520 C   0  0  0  0  0  0  0  0  0  0  0  0
   59.8880   33.4810   50.8730 N   0  0  0  0  0  0  0  0  0  0  0  0
   58.9020   34.0780   51.7800 C   0  0  0  0  0  0  0  0  0  0  0  0
   59.3190   33.9040   53.2450 C   0  0  0  0  0  0  0  0  0  0  0  0
   60.6210   33.2060   53.3250 N   0  0  0  0  0  0  0  0  0  0  0  0
   61.4740   33.8020   54.3680 C   0  0  0  0  0  0  0  0  0  0  0  0
   60.4240   31.7760   53.6090 C   0  0  0  0  0  0  0  0  0  0  0  0
   59.4270   32.1670   48.8090 C   0  0  0  0  0  0  0  0  0  0  0  0
   59.5560   30.9690   49.5210 O   0  0  0  0  0  0  0  0  0  0  0  0
   58.7230   30.6540   50.6370 C   0  0  0  0  0  0  0  0  0  0  0  0
   59.0350   32.1550   47.4380 C   0  0  0  0  0  0  0  0  0  0  0  0
   63.6379   34.4787   47.4162 H   0  0  0  0  0  0  0  0  0  0  0  0
   64.0288   33.3350   46.0874 H   0  0  0  0  0  0  0  0  0  0  0  0
   62.4596   34.2092   46.0874 H   0  0  0  0  0  0  0  0  0  0  0  0
   61.5507   32.8673   47.7557 H   0  0  0  0  0  0  0  0  0  0  0  0
   62.6298   31.6875   46.8952 H   0  0  0  0  0  0  0  0  0  0  0  0
   63.4652   31.2255   48.9359 H   0  0  0  0  0  0  0  0  0  0  0  0
   64.3224   32.8148   48.7679 H   0  0  0  0  0  0  0  0  0  0  0  0
   63.4826   34.6225   49.2705 H   0  0  0  0  0  0  0  0  0  0  0  0
   61.9683   34.8183   50.2641 H   0  0  0  0  0  0  0  0  0  0  0  0
   63.1654   34.3724   52.3025 H   0  0  0  0  0  0  0  0  0  0  0  0
   64.6614   33.9555   51.3997 H   0  0  0  0  0  0  0  0  0  0  0  0
   64.0540   35.6460   51.3997 H   0  0  0  0  0  0  0  0  0  0  0  0
   63.9019   32.4575   51.6450 H   0  0  0  0  0  0  0  0  0  0  0  0
   62.1357   32.1675   51.9424 H   0  0  0  0  0  0  0  0  0  0  0  0
   63.9984   30.4421   50.2380 H   0  0  0  0  0  0  0  0  0  0  0  0
   63.3285   30.0342   51.8624 H   0  0  0  0  0  0  0  0  0  0  0  0
   62.5551   28.2212   51.0782 H   0  0  0  0  0  0  0  0  0  0  0  0
   61.1491   29.0040   51.8817 H   0  0  0  0  0  0  0  0  0  0  0  0
   61.0839   27.0236   49.8499 H   0  0  0  0  0  0  0  0  0  0  0  0
   59.7002   27.9888   50.4875 H   0  0  0  0  0  0  0  0  0  0  0  0
   60.9474   27.4540   47.1553 H   0  0  0  0  0  0  0  0  0  0  0  0
   59.5939   26.9534   48.2384 H   0  0  0  0  0  0  0  0  0  0  0  0
   59.5953   28.7880   45.8992 H   0  0  0  0  0  0  0  0  0  0  0  0
   58.2564   27.8238   46.6349 H   0  0  0  0  0  0  0  0  0  0  0  0
   58.1230   29.6790   48.4210 H   0  0  0  0  0  0  0  0  0  0  0  0
   57.3975   28.9906   45.4263 H   0  0  0  0  0  0  0  0  0  0  0  0
   56.4758   29.1427   43.1244 H   0  0  0  0  0  0  0  0  0  0  0  0
   56.5956   31.2900   41.8715 H   0  0  0  0  0  0  0  0  0  0  0  0
   57.6705   33.2785   42.8967 H   0  0  0  0  0  0  0  0  0  0  0  0
   59.4825   35.3606   45.1419 H   0  0  0  0  0  0  0  0  0  0  0  0
   60.0571   34.2423   43.8590 H   0  0  0  0  0  0  0  0  0  0  0  0
   58.3526   34.8090   43.8590 H   0  0  0  0  0  0  0  0  0  0  0  0
   59.4362   35.5083   46.7989 H   0  0  0  0  0  0  0  0  0  0  0  0
   59.9424   35.5230   49.2148 H   0  0  0  0  0  0  0  0  0  0  0  0
   60.8560   33.3470   51.2460 H   0  0  0  0  0  0  0  0  0  0  0  0
   58.8135   35.1516   51.5573 H   0  0  0  0  0  0  0  0  0  0  0  0
   57.9381   33.5698   51.6297 H   0  0  0  0  0  0  0  0  0  0  0  0
   59.4072   34.8933   53.7179 H   0  0  0  0  0  0  0  0  0  0  0  0
   58.5577   33.3055   53.7667 H   0  0  0  0  0  0  0  0  0  0  0  0
   61.0845   33.5298   55.3601 H   0  0  0  0  0  0  0  0  0  0  0  0
   62.5016   33.4243   54.2613 H   0  0  0  0  0  0  0  0  0  0  0  0
   61.4728   34.8968   54.2613 H   0  0  0  0  0  0  0  0  0  0  0  0
   60.4022   31.6179   54.6974 H   0  0  0  0  0  0  0  0  0  0  0  0
   59.4715   31.4430   53.1710 H   0  0  0  0  0  0  0  0  0  0  0  0
   61.2510   31.1979   53.1710 H   0  0  0  0  0  0  0  0  0  0  0  0
   59.2673   30.8598   51.5705 H   0  0  0  0  0  0  0  0  0  0  0  0
   57.8123   31.2698   50.6002 H   0  0  0  0  0  0  0  0  0  0  0  0
   58.4476   29.5897   50.6002 H   0  0  0  0  0  0  0  0  0  0  0  0
  1  2  1  0
  2  3  1  0
  3  4  1  0
  4  5  1  0
  5  6  1  0
  4  7  1  0
  7  8  1  0
  8  9  1  0
  9 10  1  0
 10 11  1  0
 11 12  1  0
 12 13  1  0
 13 14  1  0
 14 15  1  0
 15 16  1  0
 16 17  2  0
 17 18  1  0
 18 19  2  0
 19 20  1  0
 20 21  2  0
 21 22  1  0
 22 23  2  0
 23 24  1  0
 23 25  1  0
 25 26  2  0
 26 27  1  0
 27 28  2  0
 28 29  1  0
 29 30  1  0
 30 31  1  0
 31 32  1  0
 32 33  1  0
 32 34  1  0
 28 35  1  0
 35 36  1  0
 36 37  1  0
 35 38  2  0
 38 16  1  0
 22 17  1  0
 38 25  1  0
  1 39  1  0
  1 40  1  0
  1 41  1  0
  2 42  1  0
  2 43  1  0
  3 44  1  0
  3 45  1  0
  5 46  1  0
  5 47  1  0
  6 48  1  0
  6 49  1  0
  6 50  1  0
  7 51  1  0
  7 52  1  0
  8 53  1  0
  8 54  1  0
 10 55  1  0
 10 56  1  0
 11 57  1  0
 11 58  1  0
 13 59  1  0
 13 60  1  0
 14 61  1  0
 14 62  1  0
 15 63  1  0
 18 64  1  0
 19 65  1  0
 20 66  1  0
 21 67  1  0
 24 68  1  0
 24 69  1  0
 24 70  1  0
 26 71  1  0
 27 72  1  0
 29 73  1  0
 30 74  1  0
 30 75  1  0
 31 76  1  0
 31 77  1  0
 33 78  1  0
 33 79  1  0
 33 80  1  0
 34 81  1  0
 34 82  1  0
 34 83  1  0
 37 84  1  0
 37 85  1  0
 37 86  1  0
M  CHG  1  23   1
M  END
>  <UniqueID>  (14) 
14

>  <SMILES>  (14) 
CCCN(CC)CCOCCOCCNc1c2ccccc2[n+](C)c2ccc(NCCN(C)C)c(OC)c12

>  <Energy>  (14) 
117.774359539793

>  <Genealogy>  (14) 
CCCN(CC)CCOCCOCCNc1c2ccccc2[n+](C)c2ccc(NCCN(C)C)c(OC)c12 (3D coordinates assigned)
CCCN(CC)CCOCCOCCNc1c2ccccc2[n+](C)c2ccc(NCCN(C)C)c(OC)c12 (optimized conformer: 117.774359539793 kcal/mol)

>  <smiles>  (14) 
CCCN(CC)CCOCCOCCNc1c2ccccc2[n+](C)c2ccc(NCCN(C)C)c(OC)c12

>  <score_type>  (14) 
oracle

>  <origin>  (14) 
adg

>  <m_score__min__energy>  (14) 
-5.0199999999999996

>  <m_primary>  (14) 
energy

$$$$
14:0
     RDKit          3D

 43 44  0  0  0  0  0  0  0  0999 V2000
   59.0720   26.3720   46.3180 C   0  0  0  0  0  0  0  0  0  0  0  0
   58.4710   27.6280   45.7600 C   0  0  0  0  0  0  0  0  0  0  0  0
   59.2780   28.7470   45.5160 C   0  0  0  0  0  0  0  0  0  0  0  0
   58.7160   29.9310   45.0300 C   0  0  0  0  0  0  0  0  0  0  0  0
   57.3370   30.0120   44.7770 C   0  0  0  0  0  0  0  0  0  0  0  0
   56.7400   31.3000   44.2590 C   0  0  0  0  0  0  0  0  0  0  0  0
   57.8040   32.2180   43.7820 N   0  0  0  0  0  0  0  0  0  0  0  0
   57.8310   32.2380   42.3090 C   0  0  0  0  0  0  0  0  0  0  0  0
   57.6350   33.5980   44.2940 C   0  0  0  0  0  0  0  0  0  0  0  0
   56.9880   33.6100   45.6870 C   0  0  0  0  0  0  0  0  0  0  0  0
   58.0340   33.6560   46.8020 C   0  0  0  0  0  0  0  0  0  0  0  0
   58.4440   32.3330   47.1420 O   0  0  0  0  0  0  0  0  0  0  0  0
   59.7420   31.9830   47.5440 C   0  0  0  0  0  0  0  0  0  0  0  0
   59.9090   30.8320   48.3230 C   0  0  0  0  0  0  0  0  0  0  0  0
   61.1820   30.4400   48.7470 C   0  0  0  0  0  0  0  0  0  0  0  0
   62.3010   31.2000   48.3960 C   0  0  0  0  0  0  0  0  0  0  0  0
   62.1470   32.3530   47.6200 C   0  0  0  0  0  0  0  0  0  0  0  0
   63.6790   33.3810   47.1240 Br  0  0  0  0  0  0  0  0  0  0  0  0
   60.8740   32.7450   47.1920 C   0  0  0  0  0  0  0  0  0  0  0  0
   56.5200   28.9010   45.0630 C   0  0  0  0  0  0  0  0  0  0  0  0
   55.1430   28.9640   44.8720 O   0  0  0  0  0  0  0  0  0  0  0  0
   57.0870   27.7180   45.5490 C   0  0  0  0  0  0  0  0  0  0  0  0
   59.0524   26.4130   47.4171 H   0  0  0  0  0  0  0  0  0  0  0  0
   58.4920   25.5033   45.9731 H   0  0  0  0  0  0  0  0  0  0  0  0
   60.1123   26.2786   45.9731 H   0  0  0  0  0  0  0  0  0  0  0  0
   60.3598   28.6935   45.7079 H   0  0  0  0  0  0  0  0  0  0  0  0
   59.3579   30.8048   44.8445 H   0  0  0  0  0  0  0  0  0  0  0  0
   56.0591   31.0726   43.4255 H   0  0  0  0  0  0  0  0  0  0  0  0
   56.1919   31.7896   45.0775 H   0  0  0  0  0  0  0  0  0  0  0  0
   58.6709   32.8601   41.9661 H   0  0  0  0  0  0  0  0  0  0  0  0
   57.9558   31.2127   41.9306 H   0  0  0  0  0  0  0  0  0  0  0  0
   56.8865   32.6561   41.9306 H   0  0  0  0  0  0  0  0  0  0  0  0
   58.6222   34.0793   44.3550 H   0  0  0  0  0  0  0  0  0  0  0  0
   56.9740   34.1422   43.6034 H   0  0  0  0  0  0  0  0  0  0  0  0
   56.3402   34.4951   45.7705 H   0  0  0  0  0  0  0  0  0  0  0  0
   56.4087   32.6820   45.8015 H   0  0  0  0  0  0  0  0  0  0  0  0
   58.9068   34.2309   46.4590 H   0  0  0  0  0  0  0  0  0  0  0  0
   57.5952   34.1368   47.6887 H   0  0  0  0  0  0  0  0  0  0  0  0
   59.0314   30.2312   48.6038 H   0  0  0  0  0  0  0  0  0  0  0  0
   61.3030   29.5328   49.3573 H   0  0  0  0  0  0  0  0  0  0  0  0
   63.3026   30.8913   48.7300 H   0  0  0  0  0  0  0  0  0  0  0  0
   60.7564   33.6507   46.5789 H   0  0  0  0  0  0  0  0  0  0  0  0
   56.4435   26.8529   45.7671 H   0  0  0  0  0  0  0  0  0  0  0  0
  1  2  1  0
  2  3  2  0
  3  4  1  0
  4  5  2  0
  5  6  1  0
  6  7  1  0
  7  8  1  0
  7  9  1  0
  9 10  1  0
 10 11  1  0
 11 12  1  0
 12 13  1  0
 13 14  2  0
 14 15  1  0
 15 16  2  0
 16 17  1  0
 17 18  1  0
 17 19  2  0
  5 20  1  0
 20 21  1  0
 20 22  2  0
 22  2  1  0
 19 13  1  0
  1 23  1  0
  1 24  1  0
  1 25  1  0
  3 26  1  0
  4 27  1  0
  6 28  1  0
  6 29  1  0
  8 30  1  0
  8 31  1  0
  8 32  1  0
  9 33  1  0
  9 34  1  0
 10 35  1  0
 10 36  1  0
 11 37  1  0
 11 38  1  0
 14 39  1  0
 15 40  1  0
 16 41  1  0
 19 42  1  0
 22 43  1  0
M  CHG  1  21  -1
M  END
>  <UniqueID>  (15) 
15

>  <SMILES>  (15) 
Cc1ccc(CN(C)CCCOc2cccc(Br)c2)c([O-])c1

>  <Energy>  (15) 
41.088214158254985

>  <Genealogy>  (15) 
Cc1ccc(CN(C)CCCOc2cccc(Br)c2)c([O-])c1 (protonated)
Cc1ccc(CN(C)CCCOc2cccc(Br)c2)c([O-])c1 (3D coordinates assigned)
Cc1ccc(CN(C)CCCOc2cccc(Br)c2)c([O-])c1 (optimized conformer: 41.088214158254985 kcal/mol)

>  <smiles>  (15) 
Cc1ccc(CN(C)CCCOc2cccc(Br)c2)c(O)c1

>  <score_type>  (15) 
oracle

>  <origin>  (15) 
adg

>  <m_score__min__energy>  (15) 
-11.630000000000001

>  <m_primary>  (15) 
energy

$$$$
15:0
     RDKit          3D

 61 63  0  0  0  0  0  0  0  0999 V2000
   62.2510   34.1960   49.2640 C   0  0  0  0  0  0  0  0  0  0  0  0
   63.0020   33.6980   48.0250 C   0  0  0  0  0  0  0  0  0  0  0  0
   64.0120   32.6100   48.4210 C   0  0  0  0  0  0  0  0  0  0  0  0
   62.0100   33.1800   46.9680 C   0  0  0  0  0  0  0  0  0  0  0  0
   60.6420   33.6020   47.3170 N   0  0  0  0  0  0  0  0  0  0  0  0
   60.1060   34.5690   46.3500 C   0  0  0  0  0  0  0  0  0  0  0  0
   58.5760   34.6110   46.4280 C   0  0  0  0  0  0  0  0  0  0  0  0
   57.9420   33.4510   45.6520 C   0  0  0  0  0  0  0  0  0  0  0  0
   58.8490   32.3550   45.5570 O   0  0  0  0  0  0  0  0  0  0  0  0
   58.4980   31.0030   45.4030 C   0  0  0  0  0  0  0  0  0  0  0  0
   57.5040   30.5870   44.4970 C   0  0  0  0  0  0  0  0  0  0  0  0
   57.1670   29.2370   44.3840 C   0  0  0  0  0  0  0  0  0  0  0  0
   57.8100   28.2710   45.1720 C   0  0  0  0  0  0  0  0  0  0  0  0
   57.4430   26.8380   45.0560 C   0  0  0  0  0  0  0  0  0  0  0  0
   57.7680   26.1090   43.8970 C   0  0  0  0  0  0  0  0  0  0  0  0
   57.4150   24.7610   43.7870 C   0  0  0  0  0  0  0  0  0  0  0  0
   56.7380   24.1270   44.8310 C   0  0  0  0  0  0  0  0  0  0  0  0
   56.4100   24.8400   45.9860 C   0  0  0  0  0  0  0  0  0  0  0  0
   56.7600   26.1890   46.1010 C   0  0  0  0  0  0  0  0  0  0  0  0
   58.7990   28.6830   46.0800 C   0  0  0  0  0  0  0  0  0  0  0  0
   59.1530   30.0390   46.2020 C   0  0  0  0  0  0  0  0  0  0  0  0
   60.1340   30.4350   47.1910 N   0  0  0  0  0  0  0  0  0  0  0  0
   59.8680   29.8020   48.4950 C   0  0  0  0  0  0  0  0  0  0  0  0
   59.3070   30.7840   49.4900 C   0  0  0  0  0  0  0  0  0  0  0  0
   58.6460   30.3380   50.6430 C   0  0  0  0  0  0  0  0  0  0  0  0
   58.2070   31.2690   51.5860 C   0  0  0  0  0  0  0  0  0  0  0  0
   58.4350   32.6300   51.3770 C   0  0  0  0  0  0  0  0  0  0  0  0
   59.1010   33.0390   50.2190 C   0  0  0  0  0  0  0  0  0  0  0  0
   59.5220   32.1160   49.3120 N   0  0  0  0  0  0  0  0  0  0  0  0
   62.7703   33.8517   50.1705 H   0  0  0  0  0  0  0  0  0  0  0  0
   62.2181   35.2955   49.2555 H   0  0  0  0  0  0  0  0  0  0  0  0
   61.2254   33.7984   49.2555 H   0  0  0  0  0  0  0  0  0  0  0  0
   63.5585   34.5371   47.5821 H   0  0  0  0  0  0  0  0  0  0  0  0
   64.0712   32.5463   49.5176 H   0  0  0  0  0  0  0  0  0  0  0  0
   63.6857   31.6414   48.0145 H   0  0  0  0  0  0  0  0  0  0  0  0
   65.0022   32.8635   48.0145 H   0  0  0  0  0  0  0  0  0  0  0  0
   62.2785   33.5902   45.9833 H   0  0  0  0  0  0  0  0  0  0  0  0
   62.0539   32.0813   46.9367 H   0  0  0  0  0  0  0  0  0  0  0  0
   60.0180   32.7610   47.3200 H   0  0  0  0  0  0  0  0  0  0  0  0
   60.5079   35.5678   46.5756 H   0  0  0  0  0  0  0  0  0  0  0  0
   60.4031   34.2619   45.3364 H   0  0  0  0  0  0  0  0  0  0  0  0
   58.2699   34.5452   47.4825 H   0  0  0  0  0  0  0  0  0  0  0  0
   58.2333   35.5549   45.9790 H   0  0  0  0  0  0  0  0  0  0  0  0
   57.0312   33.1222   46.1738 H   0  0  0  0  0  0  0  0  0  0  0  0
   57.6958   33.7962   44.6370 H   0  0  0  0  0  0  0  0  0  0  0  0
   56.9886   31.3319   43.8729 H   0  0  0  0  0  0  0  0  0  0  0  0
   56.3895   28.9277   43.6699 H   0  0  0  0  0  0  0  0  0  0  0  0
   58.3031   26.6030   43.0726 H   0  0  0  0  0  0  0  0  0  0  0  0
   57.6708   24.1988   42.8768 H   0  0  0  0  0  0  0  0  0  0  0  0
   56.4630   23.0655   44.7435 H   0  0  0  0  0  0  0  0  0  0  0  0
   55.8754   24.3396   46.8068 H   0  0  0  0  0  0  0  0  0  0  0  0
   56.4999   26.7458   47.0134 H   0  0  0  0  0  0  0  0  0  0  0  0
   59.3050   27.9332   46.7059 H   0  0  0  0  0  0  0  0  0  0  0  0
   61.0840   30.1400   46.8660 H   0  0  0  0  0  0  0  0  0  0  0  0
   60.1650   31.4760   47.2930 H   0  0  0  0  0  0  0  0  0  0  0  0
   59.1442   28.9859   48.3535 H   0  0  0  0  0  0  0  0  0  0  0  0
   60.8211   29.4213   48.8908 H   0  0  0  0  0  0  0  0  0  0  0  0
   58.4747   29.2633   50.8033 H   0  0  0  0  0  0  0  0  0  0  0  0
   57.6825   30.9307   52.4918 H   0  0  0  0  0  0  0  0  0  0  0  0
   58.0945   33.3714   52.1149 H   0  0  0  0  0  0  0  0  0  0  0  0
   59.2853   34.1086   50.0402 H   0  0  0  0  0  0  0  0  0  0  0  0
  1  2  1  0
  2  3  1  0
  2  4  1  0
  4  5  1  0
  5  6  1  0
  6  7  1  0
  7  8  1  0
  8  9  1  0
  9 10  1  0
 10 11  2  0
 11 12  1  0
 12 13  2  0
 13 14  1  0
 14 15  2  0
 15 16  1  0
 16 17  2  0
 17 18  1  0
 18 19  2  0
 13 20  1  0
 20 21  2  0
 21 22  1  0
 22 23  1  0
 23 24  1  0
 24 25  2  0
 25 26  1  0
 26 27  2  0
 27 28  1  0
 28 29  2  0
 21 10  1  0
 29 24  1  0
 19 14  1  0
  1 30  1  0
  1 31  1  0
  1 32  1  0
  2 33  1  0
  3 34  1  0
  3 35  1  0
  3 36  1  0
  4 37  1  0
  4 38  1  0
  5 39  1  0
  6 40  1  0
  6 41  1  0
  7 42  1  0
  7 43  1  0
  8 44  1  0
  8 45  1  0
 11 46  1  0
 12 47  1  0
 15 48  1  0
 16 49  1  0
 17 50  1  0
 18 51  1  0
 19 52  1  0
 20 53  1  0
 22 54  1  0
 22 55  1  0
 23 56  1  0
 23 57  1  0
 25 58  1  0
 26 59  1  0
 27 60  1  0
 28 61  1  0
M  CHG  1  22   1
M  END
>  <UniqueID>  (16) 
16

>  <SMILES>  (16) 
CC(C)CNCCCOc1ccc(-c2ccccc2)cc1[NH2+]Cc1ccccn1

>  <Energy>  (16) 
58.61775139977974

>  <Genealogy>  (16) 
CC(C)CNCCCOc1ccc(-c2ccccc2)cc1[NH2+]Cc1ccccn1 (protonated)
CC(C)CNCCCOc1ccc(-c2ccccc2)cc1[NH2+]Cc1ccccn1 (3D coordinates assigned)
CC(C)CNCCCOc1ccc(-c2ccccc2)cc1[NH2+]Cc1ccccn1 (optimized conformer: 58.61775139977974 kcal/mol)

>  <smiles>  (16) 
CC(C)CNCCCOc1ccc(-c2ccccc2)cc1NCc1ccccn1

>  <score_type>  (16) 
oracle

>  <origin>  (16) 
adg

>  <m_score__min__energy>  (16) 
-5.5999999999999996

>  <m_primary>  (16) 
energy

$$$$
16:0
     RDKit          3D

 51 54  0  0  0  0  0  0  0  0999 V2000
   54.1700   30.6200   51.6600 C   0  0  0  0  0  0  0  0  0  0  0  0
   54.9780   29.7980   52.6660 C   0  0  0  0  0  0  0  0  0  0  0  0
   56.3980   29.6960   52.2950 N   0  0  0  0  0  0  0  0  0  0  0  0
   57.2510   30.7220   52.9290 C   0  0  0  0  0  0  0  0  0  0  0  0
   58.4180   31.1580   52.0280 C   0  0  0  0  0  0  0  0  0  0  0  0
   58.2280   30.6530   50.6630 N   0  0  0  0  0  0  0  0  0  0  0  0
   59.4580   30.7910   49.8760 C   0  0  0  0  0  0  0  0  0  0  0  0
   59.1180   31.3330   48.4990 C   0  0  0  0  0  0  0  0  0  0  0  0
   59.3530   32.6950   48.2880 C   0  0  0  0  0  0  0  0  0  0  0  0
   59.1600   33.2720   47.0410 C   0  0  0  0  0  0  0  0  0  0  0  0
   59.4790   34.6280   46.8470 C   0  0  0  0  0  0  0  0  0  0  0  0
   59.3340   35.2140   45.5910 C   0  0  0  0  0  0  0  0  0  0  0  0
   58.8850   34.4520   44.5180 C   0  0  0  0  0  0  0  0  0  0  0  0
   58.5550   33.1080   44.6990 C   0  0  0  0  0  0  0  0  0  0  0  0
   58.6490   32.4960   45.9760 C   0  0  0  0  0  0  0  0  0  0  0  0
   58.3010   31.1230   46.1880 C   0  0  0  0  0  0  0  0  0  0  0  0
   57.4390   30.5040   45.2550 C   0  0  0  0  0  0  0  0  0  0  0  0
   56.4750   31.1930   44.8130 O   0  0  0  0  0  0  0  0  0  0  0  0
   57.6550   29.2350   44.6840 C   0  0  0  0  0  0  0  0  0  0  0  0
   57.1960   29.0360   43.3560 C   0  0  0  0  0  0  0  0  0  0  0  0
   57.4410   27.8500   42.6700 C   0  0  0  0  0  0  0  0  0  0  0  0
   58.1320   26.8210   43.2920 C   0  0  0  0  0  0  0  0  0  0  0  0
   58.5470   26.9640   44.6120 C   0  0  0  0  0  0  0  0  0  0  0  0
   58.3040   28.1540   45.3360 C   0  0  0  0  0  0  0  0  0  0  0  0
   58.5550   28.0970   46.7110 C   0  0  0  0  0  0  0  0  0  0  0  0
   58.5320   29.1190   47.6510 C   0  0  0  0  0  0  0  0  0  0  0  0
   58.6450   30.5070   47.4260 C   0  0  0  0  0  0  0  0  0  0  0  0
   53.4983   31.3033   52.2002 H   0  0  0  0  0  0  0  0  0  0  0  0
   54.8559   31.2034   51.0282 H   0  0  0  0  0  0  0  0  0  0  0  0
   53.5749   29.9442   51.0282 H   0  0  0  0  0  0  0  0  0  0  0  0
   54.9044   30.2768   53.6536 H   0  0  0  0  0  0  0  0  0  0  0  0
   54.5609   28.7802   52.6795 H   0  0  0  0  0  0  0  0  0  0  0  0
   56.4910   29.6870   51.2520 H   0  0  0  0  0  0  0  0  0  0  0  0
   56.6329   31.6030   53.1563 H   0  0  0  0  0  0  0  0  0  0  0  0
   57.6801   30.2820   53.8413 H   0  0  0  0  0  0  0  0  0  0  0  0
   58.4665   32.2567   52.0043 H   0  0  0  0  0  0  0  0  0  0  0  0
   59.3542   30.7465   52.4332 H   0  0  0  0  0  0  0  0  0  0  0  0
   57.9890   29.6350   50.7170 H   0  0  0  0  0  0  0  0  0  0  0  0
   60.1431   31.4852   50.3847 H   0  0  0  0  0  0  0  0  0  0  0  0
   59.9414   29.8081   49.7747 H   0  0  0  0  0  0  0  0  0  0  0  0
   59.6969   33.3201   49.1253 H   0  0  0  0  0  0  0  0  0  0  0  0
   59.8452   35.2297   47.6919 H   0  0  0  0  0  0  0  0  0  0  0  0
   59.5744   36.2779   45.4486 H   0  0  0  0  0  0  0  0  0  0  0  0
   58.7895   34.9103   43.5226 H   0  0  0  0  0  0  0  0  0  0  0  0
   58.2165   32.5133   43.8377 H   0  0  0  0  0  0  0  0  0  0  0  0
   56.6330   29.8384   42.8568 H   0  0  0  0  0  0  0  0  0  0  0  0
   57.0869   27.7290   41.6356 H   0  0  0  0  0  0  0  0  0  0  0  0
   58.3515   25.8936   42.7427 H   0  0  0  0  0  0  0  0  0  0  0  0
   59.0755   26.1336   45.1030 H   0  0  0  0  0  0  0  0  0  0  0  0
   58.8064   27.1007   47.1036 H   0  0  0  0  0  0  0  0  0  0  0  0
   58.4109   28.8082   48.6992 H   0  0  0  0  0  0  0  0  0  0  0  0
  1  2  1  0
  2  3  1  0
  3  4  1  0
  4  5  1  0
  5  6  1  0
  6  7  1  0
  7  8  1  0
  8  9  2  0
  9 10  1  0
 10 11  2  0
 11 12  1  0
 12 13  2  0
 13 14  1  0
 14 15  2  0
 15 16  1  0
 16 17  1  0
 17 18  2  0
 17 19  1  0
 19 20  2  0
 20 21  1  0
 21 22  2  0
 22 23  1  0
 23 24  2  0
 24 25  1  0
 25 26  2  0
 26 27  1  0
 27  8  1  0
 15 10  1  0
 27 16  2  0
 24 19  1  0
  1 28  1  0
  1 29  1  0
  1 30  1  0
  2 31  1  0
  2 32  1  0
  3 33  1  0
  4 34  1  0
  4 35  1  0
  5 36  1  0
  5 37  1  0
  6 38  1  0
  7 39  1  0
  7 40  1  0
  9 41  1  0
 11 42  1  0
 12 43  1  0
 13 44  1  0
 14 45  1  0
 20 46  1  0
 21 47  1  0
 22 48  1  0
 23 49  1  0
 25 50  1  0
 26 51  1  0
M  END
>  <UniqueID>  (17) 
17

>  <SMILES>  (17) 
CCNCCNCc1cc2ccccc2c2c(=O)c3ccccc3ccc12

>  <Energy>  (17) 
114.92815466674126

>  <Genealogy>  (17) 
CCNCCNCc1cc2ccccc2c2c(=O)c3ccccc3ccc12 (3D coordinates assigned)
CCNCCNCc1cc2ccccc2c2c(=O)c3ccccc3ccc12 (optimized conformer: 114.92815466674126 kcal/mol)

>  <smiles>  (17) 
CCNCCNCc1cc2ccccc2c2c(=O)c3ccccc3ccc12

>  <score_type>  (17) 
oracle

>  <origin>  (17) 
adg

>  <m_score__min__energy>  (17) 
-8.5700000000000003

>  <m_primary>  (17) 
energy

$$$$
17:0
     RDKit          3D

 55 57  0  0  0  0  0  0  0  0999 V2000
   59.6210   35.5740   46.4840 C   0  0  0  0  0  0  0  0  0  0  0  0
   59.0460   34.3230   45.8900 C   0  0  0  0  0  0  0  0  0  0  0  0
   58.4550   33.3550   46.7170 C   0  0  0  0  0  0  0  0  0  0  0  0
   57.8850   32.2060   46.1610 C   0  0  0  0  0  0  0  0  0  0  0  0
   57.8870   32.0200   44.7720 C   0  0  0  0  0  0  0  0  0  0  0  0
   57.1730   30.5770   44.0580 S   0  0  0  0  0  0  0  0  0  0  0  0
   55.9370   30.2200   44.8330 O   0  0  0  0  0  0  0  0  0  0  0  0
   56.7990   30.8420   42.6260 O   0  0  0  0  0  0  0  0  0  0  0  0
   58.3210   29.2610   44.1250 N   0  0  0  0  0  0  0  0  0  0  0  0
   57.6910   28.0280   44.6600 C   0  0  0  0  0  0  0  0  0  0  0  0
   58.0200   27.7840   46.1390 C   0  0  0  0  0  0  0  0  0  0  0  0
   59.5450   27.6460   46.3530 C   0  0  0  0  0  0  0  0  0  0  0  0
   59.8800   27.9830   47.7840 C   0  0  0  0  0  0  0  0  0  0  0  0
   60.0160   27.0600   48.6330 O   0  0  0  0  0  0  0  0  0  0  0  0
   60.1440   29.3450   48.1540 N   0  0  0  0  0  0  0  0  0  0  0  0
   60.9660   29.6880   49.3120 C   0  0  0  0  0  0  0  0  0  0  0  0
   61.2350   31.1990   49.3480 C   0  0  0  0  0  0  0  0  0  0  0  0
   61.1840   31.7810   47.9860 N   0  0  0  0  0  0  0  0  0  0  0  0
   62.2530   31.2500   47.1230 C   0  0  0  0  0  0  0  0  0  0  0  0
   63.4130   32.2390   47.1330 C   0  0  0  0  0  0  0  0  0  0  0  0
   62.8940   33.4740   47.8440 C   0  0  0  0  0  0  0  0  0  0  0  0
   61.4050   33.2330   48.0140 C   0  0  0  0  0  0  0  0  0  0  0  0
   60.3560   28.4980   45.3450 C   0  0  0  0  0  0  0  0  0  0  0  0
   59.5390   29.6960   44.8470 C   0  0  0  0  0  0  0  0  0  0  0  0
   58.4650   32.9920   43.9440 C   0  0  0  0  0  0  0  0  0  0  0  0
   59.0340   34.1420   44.4990 C   0  0  0  0  0  0  0  0  0  0  0  0
   59.5900   35.5066   47.5815 H   0  0  0  0  0  0  0  0  0  0  0  0
   60.6635   35.6915   46.1531 H   0  0  0  0  0  0  0  0  0  0  0  0
   59.0313   36.4416   46.1531 H   0  0  0  0  0  0  0  0  0  0  0  0
   58.4403   33.5011   47.8072 H   0  0  0  0  0  0  0  0  0  0  0  0
   57.4337   31.4458   46.8155 H   0  0  0  0  0  0  0  0  0  0  0  0
   56.5998   28.1163   44.5529 H   0  0  0  0  0  0  0  0  0  0  0  0
   58.0905   27.1777   44.0878 H   0  0  0  0  0  0  0  0  0  0  0  0
   57.6486   28.6311   46.7344 H   0  0  0  0  0  0  0  0  0  0  0  0
   57.5361   26.8482   46.4555 H   0  0  0  0  0  0  0  0  0  0  0  0
   59.8359   26.6029   46.1596 H   0  0  0  0  0  0  0  0  0  0  0  0
   59.9410   30.1020   47.4630 H   0  0  0  0  0  0  0  0  0  0  0  0
   60.4393   29.3915   50.2311 H   0  0  0  0  0  0  0  0  0  0  0  0
   61.9260   29.1561   49.2385 H   0  0  0  0  0  0  0  0  0  0  0  0
   60.4733   31.6850   49.9754 H   0  0  0  0  0  0  0  0  0  0  0  0
   62.2401   31.3659   49.7626 H   0  0  0  0  0  0  0  0  0  0  0  0
   62.5913   30.2762   47.5067 H   0  0  0  0  0  0  0  0  0  0  0  0
   61.8795   31.1149   46.0972 H   0  0  0  0  0  0  0  0  0  0  0  0
   64.2720   31.8170   47.6752 H   0  0  0  0  0  0  0  0  0  0  0  0
   63.7567   32.4716   46.1143 H   0  0  0  0  0  0  0  0  0  0  0  0
   63.3812   33.5896   48.8234 H   0  0  0  0  0  0  0  0  0  0  0  0
   63.1016   34.3943   47.2783 H   0  0  0  0  0  0  0  0  0  0  0  0
   61.0656   33.6456   48.9756 H   0  0  0  0  0  0  0  0  0  0  0  0
   60.8396   33.7254   47.2091 H   0  0  0  0  0  0  0  0  0  0  0  0
   61.2678   28.8659   45.8383 H   0  0  0  0  0  0  0  0  0  0  0  0
   60.6099   27.8666   44.4808 H   0  0  0  0  0  0  0  0  0  0  0  0
   59.2425   30.3099   45.7103 H   0  0  0  0  0  0  0  0  0  0  0  0
   60.1643   30.2743   44.1510 H   0  0  0  0  0  0  0  0  0  0  0  0
   58.4709   32.8494   42.8533 H   0  0  0  0  0  0  0  0  0  0  0  0
   59.4738   34.9075   43.8428 H   0  0  0  0  0  0  0  0  0  0  0  0
  1  2  1  0
  2  3  2  0
  3  4  1  0
  4  5  2  0
  5  6  1  0
  6  7  2  0
  6  8  2  0
  6  9  1  0
  9 10  1  0
 10 11  1  0
 11 12  1  0
 12 13  1  0
 13 14  2  0
 13 15  1  0
 15 16  1  0
 16 17  1  0
 17 18  1  0
 18 19  1  0
 19 20  1  0
 20 21  1  0
 21 22  1  0
 12 23  1  0
 23 24  1  0
  5 25  1  0
 25 26  2  0
 26  2  1  0
 24  9  1  0
 22 18  1  0
  1 27  1  0
  1 28  1  0
  1 29  1  0
  3 30  1  0
  4 31  1  0
 10 32  1  0
 10 33  1  0
 11 34  1  0
 11 35  1  0
 12 36  1  0
 15 37  1  0
 16 38  1  0
 16 39  1  0
 17 40  1  0
 17 41  1  0
 19 42  1  0
 19 43  1  0
 20 44  1  0
 20 45  1  0
 21 46  1  0
 21 47  1  0
 22 48  1  0
 22 49  1  0
 23 50  1  0
 23 51  1  0
 24 52  1  0
 24 53  1  0
 25 54  1  0
 26 55  1  0
M  END
>  <UniqueID>  (18) 
18

>  <SMILES>  (18) 
Cc1ccc(S(=O)(=O)N2CCC(C(=O)NCCN3CCCC3)CC2)cc1

>  <Energy>  (18) 
58.58550837278379

>  <Genealogy>  (18) 
Cc1ccc(S(=O)(=O)N2CCC(C(=O)NCCN3CCCC3)CC2)cc1 (3D coordinates assigned)
Cc1ccc(S(=O)(=O)N2CCC(C(=O)NCCN3CCCC3)CC2)cc1 (nonaromatic ring conformer: 58.58550837278379 kcal/mol)

>  <smiles>  (18) 
Cc1ccc(S(=O)(=O)N2CCC(C(=O)NCCN3CCCC3)CC2)cc1

>  <score_type>  (18) 
oracle

>  <origin>  (18) 
adg

>  <m_score__min__energy>  (18) 
-8.8900000000000006

>  <m_primary>  (18) 
energy

$$$$
18:0
     RDKit          3D

 56 58  0  0  0  0  0  0  0  0999 V2000
   63.3400   32.3920   47.1150 C   0  0  0  0  0  0  0  0  0  0  0  0
   63.2860   33.8380   47.5910 C   0  0  0  0  0  0  0  0  0  0  0  0
   63.3000   33.8860   49.0580 N   0  0  0  0  0  0  0  0  0  0  0  0
   64.5840   33.3950   49.5730 C   0  0  0  0  0  0  0  0  0  0  0  0
   64.4320   31.9710   50.1170 C   0  0  0  0  0  0  0  0  0  0  0  0
   63.0910   31.5300   50.0070 O   0  0  0  0  0  0  0  0  0  0  0  0
   62.6810   30.8240   51.1620 C   0  0  0  0  0  0  0  0  0  0  0  0
   61.9390   31.7590   52.1240 C   0  0  0  0  0  0  0  0  0  0  0  0
   61.6580   33.0470   51.4700 N   0  0  0  0  0  0  0  0  0  0  0  0
   60.2190   33.3720   51.4500 C   0  0  0  0  0  0  0  0  0  0  0  0
   59.6750   33.6270   50.0270 C   0  0  0  0  0  0  0  0  0  0  0  0
   60.6350   33.2910   48.9560 N   0  0  0  0  0  0  0  0  0  0  0  0
   60.0030   32.5920   47.8490 C   0  0  0  0  0  0  0  0  0  0  0  0
   59.7640   31.1860   47.8380 C   0  0  0  0  0  0  0  0  0  0  0  0
   60.1400   30.3540   48.9200 C   0  0  0  0  0  0  0  0  0  0  0  0
   59.8390   28.9950   48.9190 C   0  0  0  0  0  0  0  0  0  0  0  0
   59.1520   28.4300   47.8550 C   0  0  0  0  0  0  0  0  0  0  0  0
   58.7870   29.2110   46.7620 C   0  0  0  0  0  0  0  0  0  0  0  0
   59.1100   30.5900   46.7030 C   0  0  0  0  0  0  0  0  0  0  0  0
   58.7910   31.3540   45.5910 N   0  0  0  0  0  0  0  0  0  0  0  0
   58.2760   30.7240   44.3580 C   0  0  0  0  0  0  0  0  0  0  0  0
   58.9550   32.7160   45.6480 C   0  0  0  0  0  0  0  0  0  0  0  0
   58.5430   33.6510   44.6710 C   0  0  0  0  0  0  0  0  0  0  0  0
   58.8480   34.9660   45.0010 C   0  0  0  0  0  0  0  0  0  0  0  0
   59.6090   34.9840   46.5000 S   0  0  0  0  0  0  0  0  0  0  0  0
   59.5580   33.3170   46.7410 C   0  0  0  0  0  0  0  0  0  0  0  0
   63.3651   31.7201   47.9856 H   0  0  0  0  0  0  0  0  0  0  0  0
   62.4494   32.1723   46.5078 H   0  0  0  0  0  0  0  0  0  0  0  0
   64.2445   32.2394   46.5078 H   0  0  0  0  0  0  0  0  0  0  0  0
   64.1584   34.3825   47.2006 H   0  0  0  0  0  0  0  0  0  0  0  0
   62.3596   34.3039   47.2239 H   0  0  0  0  0  0  0  0  0  0  0  0
   62.5470   33.2450   49.4070 H   0  0  0  0  0  0  0  0  0  0  0  0
   65.3246   33.3951   48.7597 H   0  0  0  0  0  0  0  0  0  0  0  0
   64.9172   34.0545   50.3879 H   0  0  0  0  0  0  0  0  0  0  0  0
   65.0821   31.2945   49.5428 H   0  0  0  0  0  0  0  0  0  0  0  0
   64.7177   31.9675   51.1792 H   0  0  0  0  0  0  0  0  0  0  0  0
   62.0117   30.0027   50.8663 H   0  0  0  0  0  0  0  0  0  0  0  0
   63.5705   30.4224   51.6695 H   0  0  0  0  0  0  0  0  0  0  0  0
   60.9905   31.2907   52.4257 H   0  0  0  0  0  0  0  0  0  0  0  0
   62.5696   31.9366   53.0076 H   0  0  0  0  0  0  0  0  0  0  0  0
   62.0380   33.0180   50.4970 H   0  0  0  0  0  0  0  0  0  0  0  0
   59.6640   32.5311   51.8915 H   0  0  0  0  0  0  0  0  0  0  0  0
   60.0846   34.3008   52.0238 H   0  0  0  0  0  0  0  0  0  0  0  0
   58.7703   33.0172   49.8865 H   0  0  0  0  0  0  0  0  0  0  0  0
   59.4704   34.7050   49.9491 H   0  0  0  0  0  0  0  0  0  0  0  0
   61.1800   34.1250   48.6560 H   0  0  0  0  0  0  0  0  0  0  0  0
   61.3600   32.6600   49.3710 H   0  0  0  0  0  0  0  0  0  0  0  0
   60.6786   30.7884   49.7751 H   0  0  0  0  0  0  0  0  0  0  0  0
   60.1477   28.3657   49.7668 H   0  0  0  0  0  0  0  0  0  0  0  0
   58.8946   27.3607   47.8748 H   0  0  0  0  0  0  0  0  0  0  0  0
   58.2375   28.7493   45.9284 H   0  0  0  0  0  0  0  0  0  0  0  0
   57.6003   29.8975   44.6232 H   0  0  0  0  0  0  0  0  0  0  0  0
   57.7267   31.4712   43.7663 H   0  0  0  0  0  0  0  0  0  0  0  0
   59.1175   30.3343   43.7663 H   0  0  0  0  0  0  0  0  0  0  0  0
   58.0309   33.3655   43.7403 H   0  0  0  0  0  0  0  0  0  0  0  0
   58.6279   35.8493   44.3834 H   0  0  0  0  0  0  0  0  0  0  0  0
  1  2  1  0
  2  3  1  0
  3  4  1  0
  4  5  1  0
  5  6  1  0
  6  7  1  0
  7  8  1  0
  8  9  1  0
  9 10  1  0
 10 11  1  0
 11 12  1  0
 12 13  1  0
 13 14  2  0
 14 15  1  0
 15 16  2  0
 16 17  1  0
 17 18  2  0
 18 19  1  0
 19 20  2  0
 20 21  1  0
 20 22  1  0
 22 23  1  0
 23 24  2  0
 24 25  1  0
 25 26  1  0
 26 13  1  0
 19 14  1  0
 26 22  2  0
  1 27  1  0
  1 28  1  0
  1 29  1  0
  2 30  1  0
  2 31  1  0
  3 32  1  0
  4 33  1  0
  4 34  1  0
  5 35  1  0
  5 36  1  0
  7 37  1  0
  7 38  1  0
  8 39  1  0
  8 40  1  0
  9 41  1  0
 10 42  1  0
 10 43  1  0
 11 44  1  0
 11 45  1  0
 12 46  1  0
 12 47  1  0
 15 48  1  0
 16 49  1  0
 17 50  1  0
 18 51  1  0
 21 52  1  0
 21 53  1  0
 21 54  1  0
 23 55  1  0
 24 56  1  0
M  CHG  2  12   1  20   1
M  END
>  <UniqueID>  (19) 
19

>  <SMILES>  (19) 
CCNCCOCCNCC[NH2+]c1c2ccccc2[n+](C)c2ccsc12

>  <Energy>  (19) 
102.70428957172929

>  <Genealogy>  (19) 
CCNCCOCCNCC[NH2+]c1c2ccccc2[n+](C)c2ccsc12 (protonated)
CCNCCOCCNCC[NH2+]c1c2ccccc2[n+](C)c2ccsc12 (3D coordinates assigned)
CCNCCOCCNCC[NH2+]c1c2ccccc2[n+](C)c2ccsc12 (optimized conformer: 102.70428957172929 kcal/mol)

>  <smiles>  (19) 
CCNCCOCCNCCNc1c2ccccc2[n+](C)c2ccsc12

>  <score_type>  (19) 
oracle

>  <origin>  (19) 
adg

>  <m_score__min__energy>  (19) 
-2.79

>  <m_primary>  (19) 
energy

$$$$
19:0
     RDKit          3D

 45 46  0  0  0  0  0  0  0  0999 V2000
   56.5970   26.3300   46.3850 C   0  0  0  0  0  0  0  0  0  0  0  0
   56.9770   27.4130   45.3800 C   0  0  0  0  0  0  0  0  0  0  0  0
   55.9210   28.3600   45.2430 O   0  0  0  0  0  0  0  0  0  0  0  0
   56.0070   29.4990   44.4330 C   0  0  0  0  0  0  0  0  0  0  0  0
   55.1870   30.4490   44.5620 O   0  0  0  0  0  0  0  0  0  0  0  0
   57.1150   29.6050   43.4430 C   0  0  0  0  0  0  0  0  0  0  0  0
   58.0990   31.0940   43.8120 S   0  0  0  0  0  0  0  0  0  0  0  0
   58.6590   30.5040   45.4120 C   0  0  0  0  0  0  0  0  0  0  0  0
   59.1700   29.2570   45.5860 N   0  0  0  0  0  0  0  0  0  0  0  0
   59.5070   29.2490   46.8890 C   0  0  0  0  0  0  0  0  0  0  0  0
   60.0970   28.2110   47.6050 C   0  0  0  0  0  0  0  0  0  0  0  0
   60.3920   28.4360   48.9620 C   0  0  0  0  0  0  0  0  0  0  0  0
   60.1000   29.6840   49.5610 C   0  0  0  0  0  0  0  0  0  0  0  0
   59.5070   30.7140   48.8080 C   0  0  0  0  0  0  0  0  0  0  0  0
   59.2160   30.4510   47.4680 C   0  0  0  0  0  0  0  0  0  0  0  0
   58.6590   31.2560   46.5470 N   0  0  0  0  0  0  0  0  0  0  0  0
   58.2720   32.6620   46.7010 C   0  0  0  0  0  0  0  0  0  0  0  0
   59.2310   33.5480   46.0040 N   0  0  0  0  0  0  0  0  0  0  0  0
   58.5460   34.5260   45.1270 C   0  0  0  0  0  0  0  0  0  0  0  0
   57.0560   34.2260   44.9160 C   0  0  0  0  0  0  0  0  0  0  0  0
   60.2020   34.1910   46.9210 C   0  0  0  0  0  0  0  0  0  0  0  0
   59.6320   34.2610   48.3350 C   0  0  0  0  0  0  0  0  0  0  0  0
   56.7319   26.7144   47.4068 H   0  0  0  0  0  0  0  0  0  0  0  0
   55.5451   26.0447   46.2364 H   0  0  0  0  0  0  0  0  0  0  0  0
   57.2401   25.4500   46.2364 H   0  0  0  0  0  0  0  0  0  0  0  0
   57.8831   27.9294   45.7297 H   0  0  0  0  0  0  0  0  0  0  0  0
   57.1616   26.9425   44.4030 H   0  0  0  0  0  0  0  0  0  0  0  0
   57.7558   28.7134   43.5097 H   0  0  0  0  0  0  0  0  0  0  0  0
   56.7001   29.6758   42.4267 H   0  0  0  0  0  0  0  0  0  0  0  0
   60.3248   27.2474   47.1258 H   0  0  0  0  0  0  0  0  0  0  0  0
   60.8526   27.6366   49.5611 H   0  0  0  0  0  0  0  0  0  0  0  0
   60.3381   29.8501   50.6220 H   0  0  0  0  0  0  0  0  0  0  0  0
   59.2807   31.6915   49.2589 H   0  0  0  0  0  0  0  0  0  0  0  0
   57.2688   32.8092   46.2745 H   0  0  0  0  0  0  0  0  0  0  0  0
   58.2721   32.9136   47.7719 H   0  0  0  0  0  0  0  0  0  0  0  0
   58.6387   35.5239   45.5804 H   0  0  0  0  0  0  0  0  0  0  0  0
   59.0290   34.4673   44.1405 H   0  0  0  0  0  0  0  0  0  0  0  0
   56.5602   34.1262   45.8928 H   0  0  0  0  0  0  0  0  0  0  0  0
   56.5926   35.0489   44.3520 H   0  0  0  0  0  0  0  0  0  0  0  0
   56.9471   33.2879   44.3520 H   0  0  0  0  0  0  0  0  0  0  0  0
   61.1321   33.6039   46.9338 H   0  0  0  0  0  0  0  0  0  0  0  0
   60.4048   35.2125   46.5669 H   0  0  0  0  0  0  0  0  0  0  0  0
   60.4488   34.1607   49.0650 H   0  0  0  0  0  0  0  0  0  0  0  0
   59.1277   35.2278   48.4796 H   0  0  0  0  0  0  0  0  0  0  0  0
   58.9087   33.4449   48.4796 H   0  0  0  0  0  0  0  0  0  0  0  0
  1  2  1  0
  2  3  1  0
  3  4  1  0
  4  5  2  0
  4  6  1  0
  6  7  1  0
  7  8  1  0
  8  9  2  0
  9 10  1  0
 10 11  2  0
 11 12  1  0
 12 13  2  0
 13 14  1  0
 14 15  2  0
 15 16  1  0
 16 17  1  0
 17 18  1  0
 18 19  1  0
 19 20  1  0
 18 21  1  0
 21 22  1  0
 16  8  1  0
 15 10  1  0
  1 23  1  0
  1 24  1  0
  1 25  1  0
  2 26  1  0
  2 27  1  0
  6 28  1  0
  6 29  1  0
 11 30  1  0
 12 31  1  0
 13 32  1  0
 14 33  1  0
 17 34  1  0
 17 35  1  0
 19 36  1  0
 19 37  1  0
 20 38  1  0
 20 39  1  0
 20 40  1  0
 21 41  1  0
 21 42  1  0
 22 43  1  0
 22 44  1  0
 22 45  1  0
M  END
>  <UniqueID>  (20) 
20

>  <SMILES>  (20) 
CCOC(=O)CSc1nc2ccccc2n1CN(CC)CC

>  <Energy>  (20) 
71.57961217552207

>  <Genealogy>  (20) 
CCOC(=O)CSc1nc2ccccc2n1CN(CC)CC (3D coordinates assigned)
CCOC(=O)CSc1nc2ccccc2n1CN(CC)CC (optimized conformer: 71.57961217552207 kcal/mol)

>  <smiles>  (20) 
CCOC(=O)CSc1nc2ccccc2n1CN(CC)CC

>  <score_type>  (20) 
oracle

>  <origin>  (20) 
adg

>  <m_score__min__energy>  (20) 
-6.7400000000000002

>  <m_primary>  (20) 
energy

$$$$
20:0
     RDKit          3D

 28 28  0  0  0  0  0  0  0  0999 V2000
   57.9160   26.8780   45.0840 C   0  0  0  0  0  0  0  0  0  0  0  0
   58.1460   27.4800   43.6980 C   0  0  0  0  0  0  0  0  0  0  0  0
   58.0380   28.9480   43.7400 N   0  0  0  0  0  0  0  0  0  0  0  0
   56.7060   29.4250   43.3250 C   0  0  0  0  0  0  0  0  0  0  0  0
   56.2580   30.6980   44.0660 C   0  0  0  0  0  0  0  0  0  0  0  0
   57.0450   30.9310   45.2350 O   0  0  0  0  0  0  0  0  0  0  0  0
   57.6760   32.1410   45.5680 C   0  0  0  0  0  0  0  0  0  0  0  0
   57.7820   33.1250   44.5750 C   0  0  0  0  0  0  0  0  0  0  0  0
   58.4000   34.3480   44.8500 C   0  0  0  0  0  0  0  0  0  0  0  0
   58.9230   34.5980   46.1200 C   0  0  0  0  0  0  0  0  0  0  0  0
   58.8310   33.6240   47.1170 C   0  0  0  0  0  0  0  0  0  0  0  0
   58.2120   32.3980   46.8460 C   0  0  0  0  0  0  0  0  0  0  0  0
   58.1965   27.6121   45.8537 H   0  0  0  0  0  0  0  0  0  0  0  0
   56.8540   26.6149   45.1979 H   0  0  0  0  0  0  0  0  0  0  0  0
   58.5320   25.9738   45.1979 H   0  0  0  0  0  0  0  0  0  0  0  0
   59.1507   27.2024   43.3466 H   0  0  0  0  0  0  0  0  0  0  0  0
   57.3789   27.0899   43.0129 H   0  0  0  0  0  0  0  0  0  0  0  0
   58.2630   29.2960   44.7000 H   0  0  0  0  0  0  0  0  0  0  0  0
   58.7390   29.3560   43.0780 H   0  0  0  0  0  0  0  0  0  0  0  0
   56.7322   29.6396   42.2464 H   0  0  0  0  0  0  0  0  0  0  0  0
   55.9841   28.6326   43.5721 H   0  0  0  0  0  0  0  0  0  0  0  0
   56.3601   31.5593   43.3895 H   0  0  0  0  0  0  0  0  0  0  0  0
   55.2114   30.5644   44.3771 H   0  0  0  0  0  0  0  0  0  0  0  0
   57.3754   32.9329   43.5711 H   0  0  0  0  0  0  0  0  0  0  0  0
   58.4744   35.1146   44.0647 H   0  0  0  0  0  0  0  0  0  0  0  0
   59.4074   35.5618   46.3355 H   0  0  0  0  0  0  0  0  0  0  0  0
   59.2456   33.8207   48.1167 H   0  0  0  0  0  0  0  0  0  0  0  0
   58.1437   31.6326   47.6331 H   0  0  0  0  0  0  0  0  0  0  0  0
  1  2  1  0
  2  3  1  0
  3  4  1  0
  4  5  1  0
  5  6  1  0
  6  7  1  0
  7  8  2  0
  8  9  1  0
  9 10  2  0
 10 11  1  0
 11 12  2  0
 12  7  1  0
  1 13  1  0
  1 14  1  0
  1 15  1  0
  2 16  1  0
  2 17  1  0
  3 18  1  0
  3 19  1  0
  4 20  1  0
  4 21  1  0
  5 22  1  0
  5 23  1  0
  8 24  1  0
  9 25  1  0
 10 26  1  0
 11 27  1  0
 12 28  1  0
M  CHG  1   3   1
M  END
>  <UniqueID>  (21) 
21

>  <SMILES>  (21) 
CC[NH2+]CCOc1ccccc1

>  <Energy>  (21) 
22.712795454578725

>  <Genealogy>  (21) 
CC[NH2+]CCOc1ccccc1 (protonated)
CC[NH2+]CCOc1ccccc1 (3D coordinates assigned)
CC[NH2+]CCOc1ccccc1 (optimized conformer: 22.712795454578725 kcal/mol)

>  <smiles>  (21) 
CCNCCOc1ccccc1

>  <score_type>  (21) 
oracle

>  <origin>  (21) 
adg

>  <m_score__min__energy>  (21) 
-3.8599999999999999

>  <m_primary>  (21) 
energy

$$$$
21:0
     RDKit          3D

 55 58  0  0  0  0  0  0  0  0999 V2000
   67.7200   33.4940   50.1380 C   0  0  0  0  0  0  0  0  0  0  0  0
   67.0740   32.3170   50.8600 C   0  0  0  0  0  0  0  0  0  0  0  0
   65.7530   32.6480   51.2880 O   0  0  0  0  0  0  0  0  0  0  0  0
   64.6420   32.8300   50.4480 C   0  0  0  0  0  0  0  0  0  0  0  0
   63.6730   33.8260   50.6700 C   0  0  0  0  0  0  0  0  0  0  0  0
   62.5860   33.9590   49.8010 C   0  0  0  0  0  0  0  0  0  0  0  0
   62.4430   33.1010   48.6960 C   0  0  0  0  0  0  0  0  0  0  0  0
   61.3240   33.2380   47.7980 N   0  0  0  0  0  0  0  0  0  0  0  0
   61.2640   34.0370   46.7050 C   0  0  0  0  0  0  0  0  0  0  0  0
   60.0190   33.8790   46.1340 C   0  0  0  0  0  0  0  0  0  0  0  0
   59.3790   32.9480   46.9010 C   0  0  0  0  0  0  0  0  0  0  0  0
   60.1750   32.5820   47.9200 N   0  0  0  0  0  0  0  0  0  0  0  0
   57.9700   32.5110   46.6400 C   0  0  0  0  0  0  0  0  0  0  0  0
   57.5950   32.7530   45.2150 N   0  0  0  0  0  0  0  0  0  0  0  0
   58.1300   31.6890   44.2990 C   0  0  0  0  0  0  0  0  0  0  0  0
   57.0450   31.1060   43.3340 C   0  0  0  0  0  0  0  0  0  0  0  0
   55.8900   30.2880   43.9830 C   0  0  0  0  0  0  0  0  0  0  0  0
   56.2820   29.3140   45.1060 C   0  0  0  0  0  0  0  0  0  0  0  0
   57.4760   28.4040   44.7540 C   0  0  0  0  0  0  0  0  0  0  0  0
   58.8160   29.1350   44.6180 C   0  0  0  0  0  0  0  0  0  0  0  0
   58.7990   30.5700   45.1710 C   0  0  0  0  0  0  0  0  0  0  0  0
   57.9190   34.1660   44.8510 C   0  0  0  0  0  0  0  0  0  0  0  0
   59.4390   34.4650   44.8900 C   0  0  0  0  0  0  0  0  0  0  0  0
   63.4110   32.1060   48.4830 C   0  0  0  0  0  0  0  0  0  0  0  0
   64.4970   31.9730   49.3510 C   0  0  0  0  0  0  0  0  0  0  0  0
   68.1117   34.2077   50.8777 H   0  0  0  0  0  0  0  0  0  0  0  0
   68.5446   33.1297   49.5076 H   0  0  0  0  0  0  0  0  0  0  0  0
   66.9699   33.9939   49.5076 H   0  0  0  0  0  0  0  0  0  0  0  0
   67.0266   31.4566   50.1763 H   0  0  0  0  0  0  0  0  0  0  0  0
   67.6798   32.0704   51.7444 H   0  0  0  0  0  0  0  0  0  0  0  0
   63.7713   34.5031   51.5313 H   0  0  0  0  0  0  0  0  0  0  0  0
   61.8354   34.7422   49.9833 H   0  0  0  0  0  0  0  0  0  0  0  0
   62.0660   34.6947   46.3385 H   0  0  0  0  0  0  0  0  0  0  0  0
   59.9420   31.8840   48.6610 H   0  0  0  0  0  0  0  0  0  0  0  0
   57.8790   31.4370   46.8594 H   0  0  0  0  0  0  0  0  0  0  0  0
   57.2953   33.0922   47.2857 H   0  0  0  0  0  0  0  0  0  0  0  0
   58.8812   32.1446   43.6371 H   0  0  0  0  0  0  0  0  0  0  0  0
   56.5915   31.9509   42.7950 H   0  0  0  0  0  0  0  0  0  0  0  0
   57.5833   30.3870   42.6989 H   0  0  0  0  0  0  0  0  0  0  0  0
   55.1672   31.0046   44.4002 H   0  0  0  0  0  0  0  0  0  0  0  0
   55.4941   29.6548   43.1754 H   0  0  0  0  0  0  0  0  0  0  0  0
   56.5452   29.9014   45.9980 H   0  0  0  0  0  0  0  0  0  0  0  0
   55.4171   28.6556   45.2746 H   0  0  0  0  0  0  0  0  0  0  0  0
   57.5765   27.6477   45.5464 H   0  0  0  0  0  0  0  0  0  0  0  0
   57.2565   27.9687   43.7679 H   0  0  0  0  0  0  0  0  0  0  0  0
   59.5805   28.5622   45.1634 H   0  0  0  0  0  0  0  0  0  0  0  0
   59.0330   29.2087   43.5422 H   0  0  0  0  0  0  0  0  0  0  0  0
   58.2663   30.5432   46.1330 H   0  0  0  0  0  0  0  0  0  0  0  0
   59.8596   30.8576   45.2193 H   0  0  0  0  0  0  0  0  0  0  0  0
   57.5490   34.3600   43.8334 H   0  0  0  0  0  0  0  0  0  0  0  0
   57.4351   34.8176   45.5935 H   0  0  0  0  0  0  0  0  0  0  0  0
   59.9253   34.0178   44.0105 H   0  0  0  0  0  0  0  0  0  0  0  0
   59.6036   35.5526   44.8803 H   0  0  0  0  0  0  0  0  0  0  0  0
   63.3129   31.4252   47.6246 H   0  0  0  0  0  0  0  0  0  0  0  0
   65.2455   31.1873   49.1708 H   0  0  0  0  0  0  0  0  0  0  0  0
  1  2  1  0
  2  3  1  0
  3  4  1  0
  4  5  2  0
  5  6  1  0
  6  7  2  0
  7  8  1  0
  8  9  1  0
  9 10  2  0
 10 11  1  0
 11 12  2  0
 11 13  1  0
 13 14  1  0
 14 15  1  0
 15 16  1  0
 16 17  1  0
 17 18  1  0
 18 19  1  0
 19 20  1  0
 20 21  1  0
 14 22  1  0
 22 23  1  0
  7 24  1  0
 24 25  2  0
 25  4  1  0
 12  8  1  0
 21 15  1  0
 23 10  1  0
  1 26  1  0
  1 27  1  0
  1 28  1  0
  2 29  1  0
  2 30  1  0
  5 31  1  0
  6 32  1  0
  9 33  1  0
 12 34  1  0
 13 35  1  0
 13 36  1  0
 15 37  1  0
 16 38  1  0
 16 39  1  0
 17 40  1  0
 17 41  1  0
 18 42  1  0
 18 43  1  0
 19 44  1  0
 19 45  1  0
 20 46  1  0
 20 47  1  0
 21 48  1  0
 21 49  1  0
 22 50  1  0
 22 51  1  0
 23 52  1  0
 23 53  1  0
 24 54  1  0
 25 55  1  0
M  CHG  1  12   1
M  END
>  <UniqueID>  (22) 
22

>  <SMILES>  (22) 
CCOc1ccc(-n2cc3c([nH+]2)CN(C2CCCCCC2)CC3)cc1

>  <Energy>  (22) 
114.30992829063811

>  <Genealogy>  (22) 
CCOc1ccc(-n2cc3c([nH+]2)CN(C2CCCCCC2)CC3)cc1 (protonated)
CCOc1ccc(-n2cc3c([nH+]2)CN(C2CCCCCC2)CC3)cc1 (3D coordinates assigned)
CCOc1ccc(-n2cc3c([nH+]2)CN(C2CCCCCC2)CC3)cc1 (nonaromatic ring conformer: 114.30992829063811 kcal/mol)

>  <smiles>  (22) 
CCOc1ccc(-n2cc3c(n2)CN(C2CCCCCC2)CC3)cc1

>  <score_type>  (22) 
oracle

>  <origin>  (22) 
adg

>  <m_score__min__energy>  (22) 
-5.0099999999999998

>  <m_primary>  (22) 
energy

$$$$
22:0
     RDKit          3D

 55 57  0  0  0  0  0  0  0  0999 V2000
   57.0490   31.4710   51.6300 C   0  0  0  0  0  0  0  0  0  0  0  0
   58.0330   30.4700   51.0300 C   0  0  0  0  0  0  0  0  0  0  0  0
   59.1240   31.1760   50.3470 N   0  0  0  0  0  0  0  0  0  0  0  0
   58.9410   32.6370   50.3840 C   0  0  0  0  0  0  0  0  0  0  0  0
   60.1530   33.2950   51.0510 C   0  0  0  0  0  0  0  0  0  0  0  0
   61.4060   33.1700   50.1670 C   0  0  0  0  0  0  0  0  0  0  0  0
   61.8870   31.7840   50.0660 N   0  0  0  0  0  0  0  0  0  0  0  0
   62.6480   31.5410   48.8310 C   0  0  0  0  0  0  0  0  0  0  0  0
   61.7400   30.9170   47.7580 C   0  0  0  0  0  0  0  0  0  0  0  0
   60.3010   31.1220   48.0250 N   0  0  0  0  0  0  0  0  0  0  0  0
   59.5450   31.4140   46.8110 C   0  0  0  0  0  0  0  0  0  0  0  0
   59.4860   32.7320   46.2660 C   0  0  0  0  0  0  0  0  0  0  0  0
   60.0940   33.8490   46.9010 C   0  0  0  0  0  0  0  0  0  0  0  0
   59.9860   35.1330   46.3710 C   0  0  0  0  0  0  0  0  0  0  0  0
   59.2580   35.3490   45.2140 C   0  0  0  0  0  0  0  0  0  0  0  0
   58.6670   34.2780   44.5540 C   0  0  0  0  0  0  0  0  0  0  0  0
   58.8040   32.9490   45.0330 C   0  0  0  0  0  0  0  0  0  0  0  0
   58.2850   31.8850   44.3250 N   0  0  0  0  0  0  0  0  0  0  0  0
   57.8890   32.0620   42.9080 C   0  0  0  0  0  0  0  0  0  0  0  0
   58.1640   30.6490   44.9220 C   0  0  0  0  0  0  0  0  0  0  0  0
   57.3720   29.6280   44.3370 C   0  0  0  0  0  0  0  0  0  0  0  0
   57.3040   28.3560   44.8950 C   0  0  0  0  0  0  0  0  0  0  0  0
   58.0130   28.0660   46.0510 C   0  0  0  0  0  0  0  0  0  0  0  0
   57.9320   26.3100   46.8020 Br  0  0  0  0  0  0  0  0  0  0  0  0
   58.7640   29.0580   46.6760 C   0  0  0  0  0  0  0  0  0  0  0  0
   58.8320   30.3740   46.1470 C   0  0  0  0  0  0  0  0  0  0  0  0
   57.0984   31.4207   52.7277 H   0  0  0  0  0  0  0  0  0  0  0  0
   57.3103   32.4864   51.2973 H   0  0  0  0  0  0  0  0  0  0  0  0
   56.0293   31.2272   51.2973 H   0  0  0  0  0  0  0  0  0  0  0  0
   58.4513   29.8460   51.8335 H   0  0  0  0  0  0  0  0  0  0  0  0
   57.5028   29.8395   50.3011 H   0  0  0  0  0  0  0  0  0  0  0  0
   60.0210   30.9530   50.8400 H   0  0  0  0  0  0  0  0  0  0  0  0
   58.8375   33.0182   49.3574 H   0  0  0  0  0  0  0  0  0  0  0  0
   58.0352   32.8751   50.9609 H   0  0  0  0  0  0  0  0  0  0  0  0
   59.9365   34.3603   51.2191 H   0  0  0  0  0  0  0  0  0  0  0  0
   60.3464   32.7850   52.0062 H   0  0  0  0  0  0  0  0  0  0  0  0
   61.1635   33.5338   49.1576 H   0  0  0  0  0  0  0  0  0  0  0  0
   62.2040   33.7681   50.6312 H   0  0  0  0  0  0  0  0  0  0  0  0
   61.0730   31.1240   50.1040 H   0  0  0  0  0  0  0  0  0  0  0  0
   63.0479   32.4953   48.4576 H   0  0  0  0  0  0  0  0  0  0  0  0
   63.4724   30.8464   49.0498 H   0  0  0  0  0  0  0  0  0  0  0  0
   61.9838   31.3709   46.7861 H   0  0  0  0  0  0  0  0  0  0  0  0
   61.9232   29.8324   47.7639 H   0  0  0  0  0  0  0  0  0  0  0  0
   59.9130   30.2700   48.4850 H   0  0  0  0  0  0  0  0  0  0  0  0
   60.1850   31.8280   48.7770 H   0  0  0  0  0  0  0  0  0  0  0  0
   60.6619   33.6964   47.8306 H   0  0  0  0  0  0  0  0  0  0  0  0
   60.4807   35.9773   46.8735 H   0  0  0  0  0  0  0  0  0  0  0  0
   59.1470   36.3687   44.8166 H   0  0  0  0  0  0  0  0  0  0  0  0
   58.0811   34.4642   43.6418 H   0  0  0  0  0  0  0  0  0  0  0  0
   56.8857   32.5105   42.8610 H   0  0  0  0  0  0  0  0  0  0  0  0
   58.6102   32.7234   42.4056 H   0  0  0  0  0  0  0  0  0  0  0  0
   57.8772   31.0835   42.4056 H   0  0  0  0  0  0  0  0  0  0  0  0
   56.7999   29.8468   43.4233 H   0  0  0  0  0  0  0  0  0  0  0  0
   56.6874   27.5793   44.4191 H   0  0  0  0  0  0  0  0  0  0  0  0
   59.3151   28.8177   47.5971 H   0  0  0  0  0  0  0  0  0  0  0  0
  1  2  1  0
  2  3  1  0
  3  4  1  0
  4  5  1  0
  5  6  1  0
  6  7  1  0
  7  8  1  0
  8  9  1  0
  9 10  1  0
 10 11  1  0
 11 12  2  0
 12 13  1  0
 13 14  2  0
 14 15  1  0
 15 16  2  0
 16 17  1  0
 17 18  2  0
 18 19  1  0
 18 20  1  0
 20 21  2  0
 21 22  1  0
 22 23  2  0
 23 24  1  0
 23 25  1  0
 25 26  2  0
 26 11  1  0
 17 12  1  0
 26 20  1  0
  1 27  1  0
  1 28  1  0
  1 29  1  0
  2 30  1  0
  2 31  1  0
  3 32  1  0
  4 33  1  0
  4 34  1  0
  5 35  1  0
  5 36  1  0
  6 37  1  0
  6 38  1  0
  7 39  1  0
  8 40  1  0
  8 41  1  0
  9 42  1  0
  9 43  1  0
 10 44  1  0
 10 45  1  0
 13 46  1  0
 14 47  1  0
 15 48  1  0
 16 49  1  0
 19 50  1  0
 19 51  1  0
 19 52  1  0
 21 53  1  0
 22 54  1  0
 25 55  1  0
M  CHG  2  10   1  18   1
M  END
>  <UniqueID>  (23) 
23

>  <SMILES>  (23) 
CCNCCCNCC[NH2+]c1c2ccccc2[n+](C)c2ccc(Br)cc12

>  <Energy>  (23) 
77.49952796322683

>  <Genealogy>  (23) 
CCNCCCNCC[NH2+]c1c2ccccc2[n+](C)c2ccc(Br)cc12 (protonated)
CCNCCCNCC[NH2+]c1c2ccccc2[n+](C)c2ccc(Br)cc12 (3D coordinates assigned)
CCNCCCNCC[NH2+]c1c2ccccc2[n+](C)c2ccc(Br)cc12 (optimized conformer: 77.49952796322683 kcal/mol)

>  <smiles>  (23) 
CCNCCCNCCNc1c2ccccc2[n+](C)c2ccc(Br)cc12

>  <score_type>  (23) 
oracle

>  <origin>  (23) 
adg

>  <m_score__min__energy>  (23) 
-4.4400000000000004

>  <m_primary>  (23) 
energy

$$$$
23:0
     RDKit          3D

 38 39  0  0  0  0  0  0  0  0999 V2000
   61.2650   33.4250   46.7560 C   0  0  0  0  0  0  0  0  0  0  0  0
   60.2680   34.2290   47.5850 C   0  0  0  0  0  0  0  0  0  0  0  0
   59.4770   35.2070   46.7030 C   0  0  0  0  0  0  0  0  0  0  0  0
   59.1010   34.6120   45.3340 C   0  0  0  0  0  0  0  0  0  0  0  0
   57.6820   34.0220   45.2490 C   0  0  0  0  0  0  0  0  0  0  0  0
   57.6150   32.5610   45.7420 C   0  0  0  0  0  0  0  0  0  0  0  0
   57.5740   31.4410   44.6630 C   0  0  2  0  0  0  0  0  0  0  0  0
   58.1300   31.9530   43.3180 C   0  0  0  0  0  0  0  0  0  0  0  0
   56.1750   31.1600   44.4940 O   0  0  0  0  0  0  0  0  0  0  0  0
   55.8800   29.8560   44.0160 C   0  0  0  0  0  0  0  0  0  0  0  0
   56.2900   28.7960   45.0400 C   0  0  0  0  0  0  0  0  0  0  0  0
   57.7300   29.0010   45.3310 C   0  0  0  0  0  0  0  0  0  0  0  0
   58.8520   27.8310   45.7640 S   0  0  0  0  0  0  0  0  0  0  0  0
   60.1870   28.8530   45.6800 C   0  0  0  0  0  0  0  0  0  0  0  0
   59.7570   30.1190   45.2970 C   0  0  0  0  0  0  0  0  0  0  0  0
   58.3630   30.2120   45.1310 C   0  0  0  0  0  0  0  0  0  0  0  0
   61.9433   32.8780   47.4274 H   0  0  0  0  0  0  0  0  0  0  0  0
   60.7215   32.7095   46.1214 H   0  0  0  0  0  0  0  0  0  0  0  0
   61.8491   34.1078   46.1214 H   0  0  0  0  0  0  0  0  0  0  0  0
   59.5659   33.5369   48.0730 H   0  0  0  0  0  0  0  0  0  0  0  0
   60.8250   34.8082   48.3362 H   0  0  0  0  0  0  0  0  0  0  0  0
   58.5526   35.4855   47.2301 H   0  0  0  0  0  0  0  0  0  0  0  0
   60.1220   36.0785   46.5174 H   0  0  0  0  0  0  0  0  0  0  0  0
   59.1848   35.4092   44.5807 H   0  0  0  0  0  0  0  0  0  0  0  0
   59.7931   33.7744   45.1622 H   0  0  0  0  0  0  0  0  0  0  0  0
   57.0088   34.6336   45.8676 H   0  0  0  0  0  0  0  0  0  0  0  0
   57.3811   34.0302   44.1910 H   0  0  0  0  0  0  0  0  0  0  0  0
   58.5018   32.3833   46.3681 H   0  0  0  0  0  0  0  0  0  0  0  0
   56.6491   32.4845   46.2627 H   0  0  0  0  0  0  0  0  0  0  0  0
   58.9272   32.6871   43.5064 H   0  0  0  0  0  0  0  0  0  0  0  0
   58.5380   31.1078   42.7443 H   0  0  0  0  0  0  0  0  0  0  0  0
   57.3212   32.4291   42.7443 H   0  0  0  0  0  0  0  0  0  0  0  0
   54.7991   29.7768   43.8282 H   0  0  0  0  0  0  0  0  0  0  0  0
   56.4438   29.6853   43.0870 H   0  0  0  0  0  0  0  0  0  0  0  0
   55.6992   28.9128   45.9605 H   0  0  0  0  0  0  0  0  0  0  0  0
   56.1112   27.7841   44.6475 H   0  0  0  0  0  0  0  0  0  0  0  0
   61.2276   28.5668   45.8929 H   0  0  0  0  0  0  0  0  0  0  0  0
   60.4409   30.9660   45.1391 H   0  0  0  0  0  0  0  0  0  0  0  0
  1  2  1  0
  2  3  1  0
  3  4  1  0
  4  5  1  0
  5  6  1  0
  7  6  1  1
  7  8  1  0
  7  9  1  0
  9 10  1  0
 10 11  1  0
 11 12  1  0
 12 13  1  0
 13 14  1  0
 14 15  2  0
 15 16  1  0
 16  7  1  0
 16 12  2  0
  1 17  1  0
  1 18  1  0
  1 19  1  0
  2 20  1  0
  2 21  1  0
  3 22  1  0
  3 23  1  0
  4 24  1  0
  4 25  1  0
  5 26  1  0
  5 27  1  0
  6 28  1  0
  6 29  1  0
  8 30  1  0
  8 31  1  0
  8 32  1  0
 10 33  1  0
 10 34  1  0
 11 35  1  0
 11 36  1  0
 14 37  1  0
 15 38  1  0
M  END
>  <UniqueID>  (24) 
24

>  <SMILES>  (24) 
CCCCCC[C@]1(C)OCCc2sccc21

>  <Energy>  (24) 
65.49635761002213

>  <Genealogy>  (24) 
CCCCCC[C@]1(C)OCCc2sccc21 (chirality)
CCCCCC[C@]1(C)OCCc2sccc21 (3D coordinates assigned)
CCCCCC[C@]1(C)OCCc2sccc21 (nonaromatic ring conformer: 65.49635761002213 kcal/mol)

>  <smiles>  (24) 
CCCCCCC1(C)OCCc2sccc21

>  <score_type>  (24) 
oracle

>  <origin>  (24) 
adg

>  <m_score__min__energy>  (24) 
-6.4100000000000001

>  <m_primary>  (24) 
energy

$$$$
24:0
     RDKit          3D

 63 66  0  0  0  0  0  0  0  0999 V2000
   63.0280   33.7960   47.3040 C   0  0  0  0  0  0  0  0  0  0  0  0
   62.9380   34.1960   48.7780 C   0  0  0  0  0  0  0  0  0  0  0  0
   63.1450   33.0420   49.6840 N   0  0  0  0  0  0  0  0  0  0  0  0
   63.3560   31.7660   48.9720 C   0  0  0  0  0  0  0  0  0  0  0  0
   62.1240   30.8480   49.0320 C   0  0  0  0  0  0  0  0  0  0  0  0
   61.4720   30.9590   50.2840 O   0  0  0  0  0  0  0  0  0  0  0  0
   60.1880   30.3640   50.2590 C   0  0  0  0  0  0  0  0  0  0  0  0
   59.9520   29.5560   48.9700 C   0  0  0  0  0  0  0  0  0  0  0  0
   58.7010   29.9230   48.2980 N   0  0  0  0  0  0  0  0  0  0  0  0
   58.6570   30.7030   47.0930 C   0  0  0  0  0  0  0  0  0  0  0  0
   58.8560   32.1050   47.0950 C   0  0  0  0  0  0  0  0  0  0  0  0
   59.2530   32.7750   48.2700 C   0  0  0  0  0  0  0  0  0  0  0  0
   59.4570   34.1530   48.2720 C   0  0  0  0  0  0  0  0  0  0  0  0
   59.2990   34.8850   47.0990 C   0  0  0  0  0  0  0  0  0  0  0  0
   58.9440   34.2450   45.9100 C   0  0  0  0  0  0  0  0  0  0  0  0
   58.7070   32.8480   45.8730 C   0  0  0  0  0  0  0  0  0  0  0  0
   58.3650   32.1990   44.6940 N   0  0  0  0  0  0  0  0  0  0  0  0
   58.1210   32.9500   43.4470 C   0  0  0  0  0  0  0  0  0  0  0  0
   58.2920   30.8290   44.7020 C   0  0  0  0  0  0  0  0  0  0  0  0
   58.0620   30.0240   43.6350 N   0  0  0  0  0  0  0  0  0  0  0  0
   58.0450   28.7720   44.1330 C   0  0  0  0  0  0  0  0  0  0  0  0
   57.8130   27.5980   43.4230 C   0  0  0  0  0  0  0  0  0  0  0  0
   57.8150   26.3840   44.1310 C   0  0  0  0  0  0  0  0  0  0  0  0
   58.0650   26.3540   45.5290 C   0  0  0  0  0  0  0  0  0  0  0  0
   58.0480   25.1010   46.2500 N   0  0  0  0  0  0  0  0  0  0  0  0
   57.5440   25.0550   47.6250 C   0  0  0  0  0  0  0  0  0  0  0  0
   58.7130   23.9180   45.6970 C   0  0  0  0  0  0  0  0  0  0  0  0
   58.3100   27.5670   46.2130 C   0  0  0  0  0  0  0  0  0  0  0  0
   58.2720   28.7630   45.4920 C   0  0  0  0  0  0  0  0  0  0  0  0
   58.4320   30.0900   45.8610 C   0  0  0  0  0  0  0  0  0  0  0  0
   63.2689   32.7254   47.2287 H   0  0  0  0  0  0  0  0  0  0  0  0
   62.0637   33.9904   46.8118 H   0  0  0  0  0  0  0  0  0  0  0  0
   63.8161   34.3847   46.8118 H   0  0  0  0  0  0  0  0  0  0  0  0
   63.7078   34.9534   48.9873 H   0  0  0  0  0  0  0  0  0  0  0  0
   61.9278   34.5915   48.9598 H   0  0  0  0  0  0  0  0  0  0  0  0
   62.3600   32.9430   50.3690 H   0  0  0  0  0  0  0  0  0  0  0  0
   64.0070   33.2250   50.2490 H   0  0  0  0  0  0  0  0  0  0  0  0
   63.5830   31.9835   47.9179 H   0  0  0  0  0  0  0  0  0  0  0  0
   64.1880   31.2417   49.4648 H   0  0  0  0  0  0  0  0  0  0  0  0
   61.4227   31.1337   48.2341 H   0  0  0  0  0  0  0  0  0  0  0  0
   62.4542   29.8072   48.8986 H   0  0  0  0  0  0  0  0  0  0  0  0
   60.0919   29.6902   51.1232 H   0  0  0  0  0  0  0  0  0  0  0  0
   59.4395   31.1692   50.2972 H   0  0  0  0  0  0  0  0  0  0  0  0
   60.7895   29.7389   48.2807 H   0  0  0  0  0  0  0  0  0  0  0  0
   59.8824   28.4943   49.2492 H   0  0  0  0  0  0  0  0  0  0  0  0
   57.7960   29.6540   48.7450 H   0  0  0  0  0  0  0  0  0  0  0  0
   59.4036   32.2024   49.1971 H   0  0  0  0  0  0  0  0  0  0  0  0
   59.7437   34.6638   49.2031 H   0  0  0  0  0  0  0  0  0  0  0  0
   59.4547   35.9739   47.1086 H   0  0  0  0  0  0  0  0  0  0  0  0
   58.8466   34.8347   44.9866 H   0  0  0  0  0  0  0  0  0  0  0  0
   57.7896   33.9699   43.6921 H   0  0  0  0  0  0  0  0  0  0  0  0
   59.0499   32.9974   42.8598 H   0  0  0  0  0  0  0  0  0  0  0  0
   57.3416   32.4424   42.8598 H   0  0  0  0  0  0  0  0  0  0  0  0
   57.9440   30.2750   42.6280 H   0  0  0  0  0  0  0  0  0  0  0  0
   57.6331   27.6195   42.3380 H   0  0  0  0  0  0  0  0  0  0  0  0
   57.6202   25.4435   43.5949 H   0  0  0  0  0  0  0  0  0  0  0  0
   58.3871   25.1319   48.3273 H   0  0  0  0  0  0  0  0  0  0  0  0
   56.8516   25.8937   47.7900 H   0  0  0  0  0  0  0  0  0  0  0  0
   57.0149   24.1048   47.7900 H   0  0  0  0  0  0  0  0  0  0  0  0
   59.0712   23.2809   46.5190 H   0  0  0  0  0  0  0  0  0  0  0  0
   58.0006   23.3525   45.0784 H   0  0  0  0  0  0  0  0  0  0  0  0
   59.5664   24.2327   45.0784 H   0  0  0  0  0  0  0  0  0  0  0  0
   58.5263   27.5689   47.2915 H   0  0  0  0  0  0  0  0  0  0  0  0
  1  2  1  0
  2  3  1  0
  3  4  1  0
  4  5  1  0
  5  6  1  0
  6  7  1  0
  7  8  1  0
  8  9  1  0
  9 10  1  0
 10 11  2  0
 11 12  1  0
 12 13  2  0
 13 14  1  0
 14 15  2  0
 15 16  1  0
 16 17  2  0
 17 18  1  0
 17 19  1  0
 19 20  1  0
 20 21  1  0
 21 22  2  0
 22 23  1  0
 23 24  2  0
 24 25  1  0
 25 26  1  0
 25 27  1  0
 24 28  1  0
 28 29  2  0
 29 30  1  0
 30 10  1  0
 16 11  1  0
 30 19  2  0
 29 21  1  0
  1 31  1  0
  1 32  1  0
  1 33  1  0
  2 34  1  0
  2 35  1  0
  3 36  1  0
  3 37  1  0
  4 38  1  0
  4 39  1  0
  5 40  1  0
  5 41  1  0
  7 42  1  0
  7 43  1  0
  8 44  1  0
  8 45  1  0
  9 46  1  0
 12 47  1  0
 13 48  1  0
 14 49  1  0
 15 50  1  0
 18 51  1  0
 18 52  1  0
 18 53  1  0
 20 54  1  0
 22 55  1  0
 23 56  1  0
 26 57  1  0
 26 58  1  0
 26 59  1  0
 27 60  1  0
 27 61  1  0
 27 62  1  0
 28 63  1  0
M  CHG  2   3   1  17   1
M  END
>  <UniqueID>  (25) 
25

>  <SMILES>  (25) 
CC[NH2+]CCOCCNc1c2ccccc2[n+](C)c2[nH]c3ccc(N(C)C)cc3c12

>  <Energy>  (25) 
123.05926423780598

>  <Genealogy>  (25) 
CC[NH2+]CCOCCNc1c2ccccc2[n+](C)c2[nH]c3ccc(N(C)C)cc3c12 (protonated)
CC[NH2+]CCOCCNc1c2ccccc2[n+](C)c2[nH]c3ccc(N(C)C)cc3c12 (3D coordinates assigned)
CC[NH2+]CCOCCNc1c2ccccc2[n+](C)c2[nH]c3ccc(N(C)C)cc3c12 (optimized conformer: 123.05926423780598 kcal/mol)

>  <smiles>  (25) 
CCNCCOCCNc1c2ccccc2[n+](C)c2[nH]c3ccc(N(C)C)cc3c12

>  <score_type>  (25) 
oracle

>  <origin>  (25) 
adg

>  <m_score__min__energy>  (25) 
-4.8200000000000003

>  <m_primary>  (25) 
energy

$$$$
25:0
     RDKit          3D

 47 48  0  0  0  0  0  0  0  0999 V2000
   57.8680   26.5460   44.6500 C   0  0  0  0  0  0  0  0  0  0  0  0
   58.4550   27.4760   43.5840 C   0  0  0  0  0  0  0  0  0  0  0  0
   58.6990   28.8370   44.0940 N   0  0  0  0  0  0  0  0  0  0  0  0
   59.8020   28.8740   45.0690 C   0  0  0  0  0  0  0  0  0  0  0  0
   59.4020   29.6150   46.3570 C   0  0  0  0  0  0  0  0  0  0  0  0
   59.6100   31.1080   46.2440 C   0  0  0  0  0  0  0  0  0  0  0  0
   58.6820   31.9840   45.6510 C   0  0  0  0  0  0  0  0  0  0  0  0
   57.3900   31.6210   44.9710 C   0  0  0  0  0  0  0  0  0  0  0  0
   57.6490   31.1880   43.5800 N   0  0  0  0  0  0  0  0  0  0  0  0
   56.5140   30.4470   42.9880 C   0  0  0  0  0  0  0  0  0  0  0  0
   55.5850   29.9310   44.0840 C   0  0  0  0  0  0  0  0  0  0  0  0
   58.1410   32.2880   42.7140 C   0  0  0  0  0  0  0  0  0  0  0  0
   57.5080   32.3290   41.3130 C   0  0  0  0  0  0  0  0  0  0  0  0
   59.2840   33.5630   45.7090 S   0  0  0  0  0  0  0  0  0  0  0  0
   60.6960   33.1650   46.5130 C   0  0  0  0  0  0  0  0  0  0  0  0
   61.7120   34.0230   46.9230 C   0  0  0  0  0  0  0  0  0  0  0  0
   62.8150   33.4770   47.5930 C   0  0  0  0  0  0  0  0  0  0  0  0
   62.8790   32.0940   47.8400 C   0  0  0  0  0  0  0  0  0  0  0  0
   61.8440   31.2440   47.4160 C   0  0  0  0  0  0  0  0  0  0  0  0
   60.7410   31.7940   46.7430 C   0  0  0  0  0  0  0  0  0  0  0  0
   58.1127   26.9338   45.6499 H   0  0  0  0  0  0  0  0  0  0  0  0
   56.7753   26.4975   44.5329 H   0  0  0  0  0  0  0  0  0  0  0  0
   58.2943   25.5388   44.5329 H   0  0  0  0  0  0  0  0  0  0  0  0
   59.4089   27.0541   43.2345 H   0  0  0  0  0  0  0  0  0  0  0  0
   57.7224   27.5519   42.7670 H   0  0  0  0  0  0  0  0  0  0  0  0
   57.8240   29.2190   44.5240 H   0  0  0  0  0  0  0  0  0  0  0  0
   58.9510   29.4350   43.2730 H   0  0  0  0  0  0  0  0  0  0  0  0
   60.0855   27.8425   45.3252 H   0  0  0  0  0  0  0  0  0  0  0  0
   60.6444   29.4137   44.6118 H   0  0  0  0  0  0  0  0  0  0  0  0
   58.3392   29.4198   46.5626 H   0  0  0  0  0  0  0  0  0  0  0  0
   60.0415   29.2454   47.1721 H   0  0  0  0  0  0  0  0  0  0  0  0
   56.9068   30.8012   45.5228 H   0  0  0  0  0  0  0  0  0  0  0  0
   56.7321   32.5025   44.9560 H   0  0  0  0  0  0  0  0  0  0  0  0
   55.9513   31.1177   42.3221 H   0  0  0  0  0  0  0  0  0  0  0  0
   56.9051   29.5903   42.4195 H   0  0  0  0  0  0  0  0  0  0  0  0
   56.0128   30.1686   45.0692 H   0  0  0  0  0  0  0  0  0  0  0  0
   54.6003   30.4115   43.9863 H   0  0  0  0  0  0  0  0  0  0  0  0
   55.4725   28.8411   43.9863 H   0  0  0  0  0  0  0  0  0  0  0  0
   57.9261   33.2428   43.2161 H   0  0  0  0  0  0  0  0  0  0  0  0
   59.2167   32.1122   42.5660 H   0  0  0  0  0  0  0  0  0  0  0  0
   56.4143   32.3998   41.4067 H   0  0  0  0  0  0  0  0  0  0  0  0
   57.8865   33.2045   40.7651 H   0  0  0  0  0  0  0  0  0  0  0  0
   57.7704   31.4120   40.7651 H   0  0  0  0  0  0  0  0  0  0  0  0
   61.6508   35.1035   46.7260 H   0  0  0  0  0  0  0  0  0  0  0  0
   63.6332   34.1321   47.9267 H   0  0  0  0  0  0  0  0  0  0  0  0
   63.7469   31.6743   48.3697 H   0  0  0  0  0  0  0  0  0  0  0  0
   61.8969   30.1623   47.6086 H   0  0  0  0  0  0  0  0  0  0  0  0
  1  2  1  0
  2  3  1  0
  3  4  1  0
  4  5  1  0
  5  6  1  0
  6  7  2  0
  7  8  1  0
  8  9  1  0
  9 10  1  0
 10 11  1  0
  9 12  1  0
 12 13  1  0
  7 14  1  0
 14 15  1  0
 15 16  2  0
 16 17  1  0
 17 18  2  0
 18 19  1  0
 19 20  2  0
 20  6  1  0
 20 15  1  0
  1 21  1  0
  1 22  1  0
  1 23  1  0
  2 24  1  0
  2 25  1  0
  3 26  1  0
  3 27  1  0
  4 28  1  0
  4 29  1  0
  5 30  1  0
  5 31  1  0
  8 32  1  0
  8 33  1  0
 10 34  1  0
 10 35  1  0
 11 36  1  0
 11 37  1  0
 11 38  1  0
 12 39  1  0
 12 40  1  0
 13 41  1  0
 13 42  1  0
 13 43  1  0
 16 44  1  0
 17 45  1  0
 18 46  1  0
 19 47  1  0
M  CHG  1   3   1
M  END
>  <UniqueID>  (26) 
26

>  <SMILES>  (26) 
CC[NH2+]CCc1c(CN(CC)CC)sc2ccccc12

>  <Energy>  (26) 
72.95200134104914

>  <Genealogy>  (26) 
CC[NH2+]CCc1c(CN(CC)CC)sc2ccccc12 (protonated)
CC[NH2+]CCc1c(CN(CC)CC)sc2ccccc12 (3D coordinates assigned)
CC[NH2+]CCc1c(CN(CC)CC)sc2ccccc12 (optimized conformer: 72.95200134104914 kcal/mol)

>  <smiles>  (26) 
CCNCCc1c(CN(CC)CC)sc2ccccc12

>  <score_type>  (26) 
oracle

>  <origin>  (26) 
adg

>  <m_score__min__energy>  (26) 
-4.7800000000000002

>  <m_primary>  (26) 
energy

$$$$
26:0
     RDKit          3D

 47 48  0  0  0  0  0  0  0  0999 V2000
   58.6344   32.4550   48.6118 H   0  0  0  0  0  0  0  0  0  0  0  0
   58.6050   32.7690   47.5580 C   0  0  0  0  0  0  0  0  0  0  0  0
   57.7750   32.1370   46.6860 N   0  0  0  0  0  0  0  0  0  0  0  0
   57.7040   32.4900   45.3710 C   0  0  0  0  0  0  0  0  0  0  0  0
   56.8900   31.8830   44.5580 N   0  0  0  0  0  0  0  0  0  0  0  0
   57.2840   31.2070   43.3200 C   0  0  0  0  0  0  0  0  0  0  0  0
   57.1130   31.8876   42.4729 H   0  0  0  0  0  0  0  0  0  0  0  0
   58.3470   30.9364   43.4021 H   0  0  0  0  0  0  0  0  0  0  0  0
   56.4800   29.9180   43.0920 C   0  0  0  0  0  0  0  0  0  0  0  0
   56.0224   29.9621   42.0927 H   0  0  0  0  0  0  0  0  0  0  0  0
   57.1781   29.0731   43.1864 H   0  0  0  0  0  0  0  0  0  0  0  0
   55.3670   29.7140   44.1320 C   0  0  0  0  0  0  0  0  0  0  0  0
   55.1917   30.6644   44.6574 H   0  0  0  0  0  0  0  0  0  0  0  0
   54.4611   29.3822   43.6036 H   0  0  0  0  0  0  0  0  0  0  0  0
   55.7150   28.7130   45.0900 O   0  0  0  0  0  0  0  0  0  0  0  0
   57.0180   28.2870   45.3940 C   0  0  0  0  0  0  0  0  0  0  0  0
   57.4800   26.9830   45.1190 C   0  0  0  0  0  0  0  0  0  0  0  0
   56.8069   26.2493   44.6514 H   0  0  0  0  0  0  0  0  0  0  0  0
   58.7930   26.6210   45.4400 C   0  0  0  0  0  0  0  0  0  0  0  0
   59.1520   25.6055   45.2167 H   0  0  0  0  0  0  0  0  0  0  0  0
   59.6490   27.5450   46.0430 C   0  0  0  0  0  0  0  0  0  0  0  0
   60.6797   27.2562   46.2966 H   0  0  0  0  0  0  0  0  0  0  0  0
   59.1960   28.8360   46.3240 C   0  0  0  0  0  0  0  0  0  0  0  0
   60.0280   29.7340   46.9070 F   0  0  0  0  0  0  0  0  0  0  0  0
   57.8860   29.2040   46.0000 C   0  0  0  0  0  0  0  0  0  0  0  0
   57.5346   30.2222   46.2230 H   0  0  0  0  0  0  0  0  0  0  0  0
   58.5140   33.5230   44.8900 C   0  0  0  0  0  0  0  0  0  0  0  0
   58.4723   33.8113   43.8293 H   0  0  0  0  0  0  0  0  0  0  0  0
   59.3760   34.1860   45.7650 C   0  0  0  0  0  0  0  0  0  0  0  0
   60.0190   34.9970   45.3925 H   0  0  0  0  0  0  0  0  0  0  0  0
   59.4240   33.8200   47.1190 C   0  0  0  0  0  0  0  0  0  0  0  0
   60.3450   34.5370   48.0860 C   0  0  0  0  0  0  0  0  0  0  0  0
   59.7990   34.7030   49.0264 H   0  0  0  0  0  0  0  0  0  0  0  0
   60.6471   35.4778   47.6026 H   0  0  0  0  0  0  0  0  0  0  0  0
   61.5920   33.7890   48.3940 N   0  0  2  0  0  0  0  0  0  0  0  0
   61.3040   32.7910   48.5410 H   0  0  0  0  0  0  0  0  0  0  0  0
   62.2070   34.2560   49.6540 C   0  0  0  0  0  0  0  0  0  0  0  0
   61.6554   33.8371   50.5085 H   0  0  0  0  0  0  0  0  0  0  0  0
   63.2549   33.9239   49.6957 H   0  0  0  0  0  0  0  0  0  0  0  0
   62.1685   35.3545   49.6957 H   0  0  0  0  0  0  0  0  0  0  0  0
   62.5470   33.8310   47.2600 C   0  0  0  0  0  0  0  0  0  0  0  0
   63.2270   34.6836   47.4037 H   0  0  0  0  0  0  0  0  0  0  0  0
   61.9606   33.9305   46.3347 H   0  0  0  0  0  0  0  0  0  0  0  0
   63.3820   32.5520   47.1440 C   0  0  0  0  0  0  0  0  0  0  0  0
   63.6248   32.1801   48.1503 H   0  0  0  0  0  0  0  0  0  0  0  0
   62.8083   31.7877   46.5992 H   0  0  0  0  0  0  0  0  0  0  0  0
   64.3125   32.7697   46.5992 H   0  0  0  0  0  0  0  0  0  0  0  0
  1  2  1  0
  2  3  1  0
  3  4  1  0
  4  5  2  0
  5  6  1  0
  6  7  1  0
  6  8  1  0
  6  9  1  0
  9 10  1  0
  9 11  1  0
  9 12  1  0
 12 13  1  0
 12 14  1  0
 12 15  1  0
 15 16  1  0
 16 17  2  0
 17 18  1  0
 17 19  1  0
 19 20  1  0
 19 21  2  0
 21 22  1  0
 21 23  1  0
 23 24  1  0
 23 25  2  0
 25 26  1  0
  4 27  1  0
 27 28  1  0
 27 29  2  0
 29 30  1  0
 29 31  1  0
 31 32  1  0
 32 33  1  0
 32 34  1  0
 32 35  1  0
 35 36  1  1
 35 37  1  0
 37 38  1  0
 37 39  1  0
 37 40  1  0
 35 41  1  0
 41 42  1  0
 41 43  1  0
 41 44  1  0
 44 45  1  0
 44 46  1  0
 44 47  1  0
 31  2  2  0
 25 16  1  0
M  CHG  2   3  -1  35   1
M  END
>  <UniqueID>  (27) 
27

>  <SMILES>  (27) 
CC[N@@H+](C)Cc1cc/c(=N/CCCOc2cccc(F)c2)[n-]c1

>  <Energy>  (27) 
40.779065330928425

>  <Genealogy>  (27) 
CC[NH+](C)Cc1ccc(=NCCCOc2cccc(F)c2)[n-]c1 (protonated)
CC[N@@H+](C)Cc1ccc(=NCCCOc2cccc(F)c2)[n-]c1 (chirality)
CC[N@@H+](C)Cc1cc/c(=N/CCCOc2cccc(F)c2)[n-]c1 (cis-trans isomerization)
CC[N@@H+](C)Cc1cc/c(=N/CCCOc2cccc(F)c2)[n-]c1 (3D coordinates assigned)
CC[N@@H+](C)Cc1cc/c(=N/CCCOc2cccc(F)c2)[n-]c1 (optimized conformer: 40.779065330928425 kcal/mol)

>  <smiles>  (27) 
CCN(C)Cc1ccc(=NCCCOc2cccc(F)c2)[nH]c1

>  <score_type>  (27) 
oracle

>  <origin>  (27) 
adg

>  <m_score__min__energy>  (27) 
-7.4800000000000004

>  <m_primary>  (27) 
energy

$$$$
27:0
     RDKit          3D

 50 52  0  0  0  0  0  0  0  0999 V2000
   58.5690   32.3400   49.5290 C   0  0  0  0  0  0  0  0  0  0  0  0
   60.0430   32.1280   49.9200 C   0  0  0  0  0  0  0  0  0  0  0  0
   60.8280   31.2070   49.0450 N   0  0  0  0  0  0  0  0  0  0  0  0
   62.3000   31.4230   49.0430 C   0  0  0  0  0  0  0  0  0  0  0  0
   62.7900   32.0560   47.7350 C   0  0  0  0  0  0  0  0  0  0  0  0
   60.4660   29.7760   49.2230 C   0  0  0  0  0  0  0  0  0  0  0  0
   60.7060   28.8880   47.9890 C   0  0  0  0  0  0  0  0  0  0  0  0
   59.4640   28.7800   47.1920 N   0  0  0  0  0  0  0  0  0  0  0  0
   58.8310   27.5690   47.0830 C   0  0  0  0  0  0  0  0  0  0  0  0
   59.3140   26.5560   47.6650 O   0  0  0  0  0  0  0  0  0  0  0  0
   57.6740   27.4480   46.3600 N   0  0  0  0  0  0  0  0  0  0  0  0
   56.9670   26.1530   46.3260 C   0  0  0  0  0  0  0  0  0  0  0  0
   57.1260   28.5390   45.7420 C   0  0  0  0  0  0  0  0  0  0  0  0
   55.9790   28.4420   45.2240 O   0  0  0  0  0  0  0  0  0  0  0  0
   57.8150   29.7760   45.7260 C   0  0  0  0  0  0  0  0  0  0  0  0
   57.3940   30.9200   44.9750 C   0  0  0  0  0  0  0  0  0  0  0  0
   56.3390   30.8050   43.8890 C   0  0  0  0  0  0  0  0  0  0  0  0
   58.0330   32.1680   45.2110 C   0  0  0  0  0  0  0  0  0  0  0  0
   57.5690   33.3890   44.6650 C   0  0  0  0  0  0  0  0  0  0  0  0
   58.2630   34.5810   44.8960 C   0  0  0  0  0  0  0  0  0  0  0  0
   59.4170   34.5840   45.6780 C   0  0  0  0  0  0  0  0  0  0  0  0
   59.8720   33.3960   46.2500 C   0  0  0  0  0  0  0  0  0  0  0  0
   59.1810   32.1990   46.0340 C   0  0  0  0  0  0  0  0  0  0  0  0
   59.6190   31.0680   46.6300 N   0  0  0  0  0  0  0  0  0  0  0  0
   58.9800   29.8730   46.5190 C   0  0  0  0  0  0  0  0  0  0  0  0
   57.9573   32.4280   50.4390 H   0  0  0  0  0  0  0  0  0  0  0  0
   58.4762   33.2607   48.9343 H   0  0  0  0  0  0  0  0  0  0  0  0
   58.2204   31.4827   48.9343 H   0  0  0  0  0  0  0  0  0  0  0  0
   60.5392   33.1096   49.9058 H   0  0  0  0  0  0  0  0  0  0  0  0
   60.0205   31.6483   50.9096 H   0  0  0  0  0  0  0  0  0  0  0  0
   60.5080   31.4180   48.0690 H   0  0  0  0  0  0  0  0  0  0  0  0
   62.5616   32.0887   49.8787 H   0  0  0  0  0  0  0  0  0  0  0  0
   62.7858   30.4415   49.1463 H   0  0  0  0  0  0  0  0  0  0  0  0
   63.4486   32.9068   47.9636 H   0  0  0  0  0  0  0  0  0  0  0  0
   63.3466   31.3078   47.1516 H   0  0  0  0  0  0  0  0  0  0  0  0
   61.9262   32.4074   47.1516 H   0  0  0  0  0  0  0  0  0  0  0  0
   61.0628   29.3736   50.0548 H   0  0  0  0  0  0  0  0  0  0  0  0
   59.3828   29.7534   49.4131 H   0  0  0  0  0  0  0  0  0  0  0  0
   61.4987   29.3326   47.3693 H   0  0  0  0  0  0  0  0  0  0  0  0
   61.0097   27.8842   48.3209 H   0  0  0  0  0  0  0  0  0  0  0  0
   56.7799   25.8103   47.3544 H   0  0  0  0  0  0  0  0  0  0  0  0
   56.0088   26.2721   45.7991 H   0  0  0  0  0  0  0  0  0  0  0  0
   57.5854   25.4114   45.7991 H   0  0  0  0  0  0  0  0  0  0  0  0
   55.3469   30.6969   44.3516 H   0  0  0  0  0  0  0  0  0  0  0  0
   56.3556   31.7103   43.2643 H   0  0  0  0  0  0  0  0  0  0  0  0
   56.5503   29.9246   43.2643 H   0  0  0  0  0  0  0  0  0  0  0  0
   56.6546   33.4002   44.0537 H   0  0  0  0  0  0  0  0  0  0  0  0
   57.8963   35.5212   44.4583 H   0  0  0  0  0  0  0  0  0  0  0  0
   59.9678   35.5216   45.8437 H   0  0  0  0  0  0  0  0  0  0  0  0
   60.7781   33.4004   46.8736 H   0  0  0  0  0  0  0  0  0  0  0  0
  1  2  1  0
  2  3  1  0
  3  4  1  0
  4  5  1  0
  3  6  1  0
  6  7  1  0
  7  8  1  0
  8  9  1  0
  9 10  2  0
  9 11  1  0
 11 12  1  0
 11 13  1  0
 13 14  2  0
 13 15  1  0
 15 16  2  0
 16 17  1  0
 16 18  1  0
 18 19  2  0
 19 20  1  0
 20 21  2  0
 21 22  1  0
 22 23  2  0
 23 24  1  0
 24 25  2  0
 25  8  1  0
 25 15  1  0
 23 18  1  0
  1 26  1  0
  1 27  1  0
  1 28  1  0
  2 29  1  0
  2 30  1  0
  3 31  1  0
  4 32  1  0
  4 33  1  0
  5 34  1  0
  5 35  1  0
  5 36  1  0
  6 37  1  0
  6 38  1  0
  7 39  1  0
  7 40  1  0
 12 41  1  0
 12 42  1  0
 12 43  1  0
 17 44  1  0
 17 45  1  0
 17 46  1  0
 19 47  1  0
 20 48  1  0
 21 49  1  0
 22 50  1  0
M  CHG  1   3   1
M  END
>  <UniqueID>  (28) 
28

>  <SMILES>  (28) 
CC[NH+](CC)CCn1c(=O)n(C)c(=O)c2c(C)c3ccccc3nc21

>  <Energy>  (28) 
83.2798034587437

>  <Genealogy>  (28) 
CC[NH+](CC)CCn1c(=O)n(C)c(=O)c2c(C)c3ccccc3nc21 (protonated)
CC[NH+](CC)CCn1c(=O)n(C)c(=O)c2c(C)c3ccccc3nc21 (3D coordinates assigned)
CC[NH+](CC)CCn1c(=O)n(C)c(=O)c2c(C)c3ccccc3nc21 (optimized conformer: 83.2798034587437 kcal/mol)

>  <smiles>  (28) 
CCN(CC)CCn1c(=O)n(C)c(=O)c2c(C)c3ccccc3nc21

>  <score_type>  (28) 
oracle

>  <origin>  (28) 
adg

>  <m_score__min__energy>  (28) 
-5.5099999999999998

>  <m_primary>  (28) 
energy

$$$$
28:0
     RDKit          3D

 54 56  0  0  0  0  0  0  0  0999 V2000
   61.6470   33.8160   46.3730 C   0  0  0  0  0  0  0  0  0  0  0  0
   61.4210   33.6350   47.8070 C   0  0  0  0  0  0  0  0  0  0  0  0
   61.2300   33.4900   48.9880 C   0  0  0  0  0  0  0  0  0  0  0  0
   60.9910   33.3220   50.4250 C   0  0  0  0  0  0  0  0  0  0  0  0
   59.5550   33.4440   50.6980 N   0  0  0  0  0  0  0  0  0  0  0  0
   59.3040   33.4550   52.1470 C   0  0  0  0  0  0  0  0  0  0  0  0
   57.8040   33.6110   52.4370 C   0  0  0  0  0  0  0  0  0  0  0  0
   57.0550   32.2680   52.3470 C   0  0  0  0  0  0  0  0  0  0  0  0
   57.7530   31.2590   51.5310 N   0  0  0  0  0  0  0  0  0  0  0  0
   58.5840   30.3090   52.2910 C   0  0  0  0  0  0  0  0  0  0  0  0
   59.7430   29.7090   51.4720 C   0  0  0  0  0  0  0  0  0  0  0  0
   59.8600   30.3180   50.1400 N   0  0  0  0  0  0  0  0  0  0  0  0
   59.6230   29.5750   48.9340 C   0  0  0  0  0  0  0  0  0  0  0  0
   60.0250   28.2350   48.9080 C   0  0  0  0  0  0  0  0  0  0  0  0
   60.0280   27.5190   47.7170 C   0  0  0  0  0  0  0  0  0  0  0  0
   59.6460   28.1360   46.5270 C   0  0  0  0  0  0  0  0  0  0  0  0
   59.2060   29.4740   46.5210 C   0  0  0  0  0  0  0  0  0  0  0  0
   58.8600   30.1000   45.3040 C   0  0  0  0  0  0  0  0  0  0  0  0
   58.9730   29.3500   44.1240 O   0  0  0  0  0  0  0  0  0  0  0  0
   58.4190   31.4480   45.3030 C   0  0  0  0  0  0  0  0  0  0  0  0
   58.1480   32.1510   44.1060 C   0  0  0  0  0  0  0  0  0  0  0  0
   57.6830   33.4670   44.1410 C   0  0  0  0  0  0  0  0  0  0  0  0
   57.4720   34.1060   45.3580 C   0  0  0  0  0  0  0  0  0  0  0  0
   57.7500   33.4440   46.5520 C   0  0  0  0  0  0  0  0  0  0  0  0
   58.2360   32.1210   46.5420 C   0  0  0  0  0  0  0  0  0  0  0  0
   58.5420   31.4730   47.7530 C   0  0  0  0  0  0  0  0  0  0  0  0
   58.2250   32.0980   48.9580 O   0  0  0  0  0  0  0  0  0  0  0  0
   59.1230   30.1860   47.7490 C   0  0  0  0  0  0  0  0  0  0  0  0
   62.4971   34.4969   46.2189 H   0  0  0  0  0  0  0  0  0  0  0  0
   61.8684   32.8426   45.9110 H   0  0  0  0  0  0  0  0  0  0  0  0
   60.7455   34.2446   45.9110 H   0  0  0  0  0  0  0  0  0  0  0  0
   61.3416   32.3286   50.7416 H   0  0  0  0  0  0  0  0  0  0  0  0
   61.5378   34.0975   50.9814 H   0  0  0  0  0  0  0  0  0  0  0  0
   59.0970   32.5880   50.2970 H   0  0  0  0  0  0  0  0  0  0  0  0
   59.6595   32.5094   52.5822 H   0  0  0  0  0  0  0  0  0  0  0  0
   59.8406   34.3057   52.5924 H   0  0  0  0  0  0  0  0  0  0  0  0
   57.6791   34.0198   53.4505 H   0  0  0  0  0  0  0  0  0  0  0  0
   57.3805   34.2871   51.6796 H   0  0  0  0  0  0  0  0  0  0  0  0
   56.9327   31.8687   53.3647 H   0  0  0  0  0  0  0  0  0  0  0  0
   56.0900   32.4680   51.8583 H   0  0  0  0  0  0  0  0  0  0  0  0
   58.3650   31.7520   50.8390 H   0  0  0  0  0  0  0  0  0  0  0  0
   59.0078   30.8352   53.1590 H   0  0  0  0  0  0  0  0  0  0  0  0
   57.9313   29.4738   52.5850 H   0  0  0  0  0  0  0  0  0  0  0  0
   60.6835   29.8715   52.0188 H   0  0  0  0  0  0  0  0  0  0  0  0
   59.5375   28.6371   51.3345 H   0  0  0  0  0  0  0  0  0  0  0  0
   59.8430   31.3630   50.0830 H   0  0  0  0  0  0  0  0  0  0  0  0
   60.3418   27.7434   49.8396 H   0  0  0  0  0  0  0  0  0  0  0  0
   60.3328   26.4621   47.7134 H   0  0  0  0  0  0  0  0  0  0  0  0
   59.6886   27.5725   45.5833 H   0  0  0  0  0  0  0  0  0  0  0  0
   58.5830   29.6080   43.2310 H   0  0  0  0  0  0  0  0  0  0  0  0
   58.3053   31.6554   43.1367 H   0  0  0  0  0  0  0  0  0  0  0  0
   57.4824   34.0014   43.2007 H   0  0  0  0  0  0  0  0  0  0  0  0
   57.0851   35.1355   45.3780 H   0  0  0  0  0  0  0  0  0  0  0  0
   57.5888   33.9584   47.5109 H   0  0  0  0  0  0  0  0  0  0  0  0
  1  2  1  0
  2  3  3  0
  3  4  1  0
  4  5  1  0
  5  6  1  0
  6  7  1  0
  7  8  1  0
  8  9  1  0
  9 10  1  0
 10 11  1  0
 11 12  1  0
 12 13  1  0
 13 14  2  0
 14 15  1  0
 15 16  2  0
 16 17  1  0
 17 18  2  0
 18 19  1  0
 18 20  1  0
 20 21  2  0
 21 22  1  0
 22 23  2  0
 23 24  1  0
 24 25  2  0
 25 26  1  0
 26 27  1  0
 26 28  2  0
 28 13  1  0
 28 17  1  0
 25 20  1  0
  1 29  1  0
  1 30  1  0
  1 31  1  0
  4 32  1  0
  4 33  1  0
  5 34  1  0
  6 35  1  0
  6 36  1  0
  7 37  1  0
  7 38  1  0
  8 39  1  0
  8 40  1  0
  9 41  1  0
 10 42  1  0
 10 43  1  0
 11 44  1  0
 11 45  1  0
 12 46  1  0
 14 47  1  0
 15 48  1  0
 16 49  1  0
 19 50  1  0
 21 51  1  0
 22 52  1  0
 23 53  1  0
 24 54  1  0
M  CHG  1  27  -1
M  END
>  <UniqueID>  (29) 
29

>  <SMILES>  (29) 
CC#CCNCCCNCCNc1cccc2c(O)c3ccccc3c([O-])c12

>  <Energy>  (29) 
64.48036548341047

>  <Genealogy>  (29) 
CC#CCNCCCNCCNc1cccc2c(O)c3ccccc3c([O-])c12 (protonated)
CC#CCNCCCNCCNc1cccc2c(O)c3ccccc3c([O-])c12 (3D coordinates assigned)
CC#CCNCCCNCCNc1cccc2c(O)c3ccccc3c([O-])c12 (optimized conformer: 64.48036548341047 kcal/mol)

>  <smiles>  (29) 
CC#CCNCCCNCCNc1cccc2c(O)c3ccccc3c(O)c12

>  <score_type>  (29) 
oracle

>  <origin>  (29) 
adg

>  <m_score__min__energy>  (29) 
-12.17

>  <m_primary>  (29) 
energy

$$$$
29:0
     RDKit          3D

 52 54  0  0  0  0  0  0  0  0999 V2000
   61.6490   33.5250   51.0600 C   0  0  0  0  0  0  0  0  0  0  0  0
   62.9040   33.1390   50.2690 C   0  0  0  0  0  0  0  0  0  0  0  0
   62.6750   32.9030   48.8190 N   0  0  0  0  0  0  0  0  0  0  0  0
   63.3370   33.9230   47.9500 C   0  0  0  0  0  0  0  0  0  0  0  0
   63.0290   33.8300   46.4460 C   0  0  0  0  0  0  0  0  0  0  0  0
   62.9080   31.4850   48.4380 C   0  0  0  0  0  0  0  0  0  0  0  0
   61.8990   30.9760   47.3890 C   0  0  0  0  0  0  0  0  0  0  0  0
   60.5190   31.1550   47.8440 N   0  0  0  0  0  0  0  0  0  0  0  0
   59.4460   31.1090   46.8920 C   0  0  0  0  0  0  0  0  0  0  0  0
   58.9070   29.8640   46.5280 C   0  0  0  0  0  0  0  0  0  0  0  0
   59.2360   28.6940   47.2460 C   0  0  0  0  0  0  0  0  0  0  0  0
   58.6530   27.4720   46.9190 C   0  0  0  0  0  0  0  0  0  0  0  0
   57.7320   27.3960   45.8810 C   0  0  0  0  0  0  0  0  0  0  0  0
   57.4160   28.5350   45.1390 C   0  0  0  0  0  0  0  0  0  0  0  0
   58.0280   29.7830   45.4200 C   0  0  0  0  0  0  0  0  0  0  0  0
   57.8030   30.8980   44.6360 N   0  0  0  0  0  0  0  0  0  0  0  0
   57.1920   30.7450   43.2960 C   0  0  0  0  0  0  0  0  0  0  0  0
   58.1680   32.1510   45.0940 C   0  0  0  0  0  0  0  0  0  0  0  0
   57.7430   33.3280   44.4310 C   0  0  0  0  0  0  0  0  0  0  0  0
   58.1440   34.5850   44.8640 C   0  0  0  0  0  0  0  0  0  0  0  0
   58.9190   34.7170   46.0050 C   0  0  0  0  0  0  0  0  0  0  0  0
   59.3070   33.5900   46.7400 C   0  0  0  0  0  0  0  0  0  0  0  0
   59.9000   33.8050   48.0290 N   0  0  0  0  0  0  0  0  0  0  0  0
   60.5430   34.8530   48.2480 O   0  0  0  0  0  0  0  0  0  0  0  0
   59.4660   33.0610   49.1010 O   0  0  0  0  0  0  0  0  0  0  0  0
   58.9820   32.2850   46.2600 C   0  0  0  0  0  0  0  0  0  0  0  0
   61.8603   33.4600   52.1376 H   0  0  0  0  0  0  0  0  0  0  0  0
   61.3571   34.5545   50.8050 H   0  0  0  0  0  0  0  0  0  0  0  0
   60.8290   32.8375   50.8050 H   0  0  0  0  0  0  0  0  0  0  0  0
   63.6379   33.9518   50.3724 H   0  0  0  0  0  0  0  0  0  0  0  0
   63.2546   32.1843   50.6881 H   0  0  0  0  0  0  0  0  0  0  0  0
   61.6460   33.0700   48.7040 H   0  0  0  0  0  0  0  0  0  0  0  0
   63.0204   34.9175   48.2974 H   0  0  0  0  0  0  0  0  0  0  0  0
   64.4170   33.7360   48.0435 H   0  0  0  0  0  0  0  0  0  0  0  0
   61.9847   33.5147   46.3044 H   0  0  0  0  0  0  0  0  0  0  0  0
   63.1814   34.8142   45.9790 H   0  0  0  0  0  0  0  0  0  0  0  0
   63.7006   33.0946   45.9790 H   0  0  0  0  0  0  0  0  0  0  0  0
   63.9226   31.3945   48.0229 H   0  0  0  0  0  0  0  0  0  0  0  0
   62.7822   30.8732   49.3435 H   0  0  0  0  0  0  0  0  0  0  0  0
   62.0427   31.5359   46.4531 H   0  0  0  0  0  0  0  0  0  0  0  0
   62.0751   29.9016   47.2322 H   0  0  0  0  0  0  0  0  0  0  0  0
   60.2830   31.0530   48.8570 H   0  0  0  0  0  0  0  0  0  0  0  0
   59.9602   28.7479   48.0722 H   0  0  0  0  0  0  0  0  0  0  0  0
   58.9217   26.5665   47.4827 H   0  0  0  0  0  0  0  0  0  0  0  0
   57.2509   26.4357   45.6437 H   0  0  0  0  0  0  0  0  0  0  0  0
   56.6810   28.4636   44.3237 H   0  0  0  0  0  0  0  0  0  0  0  0
   56.1302   30.4791   43.4053 H   0  0  0  0  0  0  0  0  0  0  0  0
   57.2778   31.6924   42.7436 H   0  0  0  0  0  0  0  0  0  0  0  0
   57.7141   29.9499   42.7436 H   0  0  0  0  0  0  0  0  0  0  0  0
   57.0821   33.2449   43.5556 H   0  0  0  0  0  0  0  0  0  0  0  0
   57.8450   35.4800   44.2986 H   0  0  0  0  0  0  0  0  0  0  0  0
   59.2328   35.7177   46.3370 H   0  0  0  0  0  0  0  0  0  0  0  0
  1  2  1  0
  2  3  1  0
  3  4  1  0
  4  5  1  0
  3  6  1  0
  6  7  1  0
  7  8  1  0
  8  9  1  0
  9 10  2  0
 10 11  1  0
 11 12  2  0
 12 13  1  0
 13 14  2  0
 14 15  1  0
 15 16  2  0
 16 17  1  0
 16 18  1  0
 18 19  2  0
 19 20  1  0
 20 21  2  0
 21 22  1  0
 22 23  1  0
 23 24  2  0
 23 25  1  0
 22 26  2  0
 26  9  1  0
 15 10  1  0
 26 18  1  0
  1 27  1  0
  1 28  1  0
  1 29  1  0
  2 30  1  0
  2 31  1  0
  3 32  1  0
  4 33  1  0
  4 34  1  0
  5 35  1  0
  5 36  1  0
  5 37  1  0
  6 38  1  0
  6 39  1  0
  7 40  1  0
  7 41  1  0
  8 42  1  0
 11 43  1  0
 12 44  1  0
 13 45  1  0
 14 46  1  0
 17 47  1  0
 17 48  1  0
 17 49  1  0
 19 50  1  0
 20 51  1  0
 21 52  1  0
M  CHG  4   3   1  16   1  23   1  25  -1
M  END
>  <UniqueID>  (30) 
30

>  <SMILES>  (30) 
CC[NH+](CC)CCNc1c2ccccc2[n+](C)c2cccc([N+](=O)[O-])c12

>  <Energy>  (30) 
97.61220585250982

>  <Genealogy>  (30) 
CC[NH+](CC)CCNc1c2ccccc2[n+](C)c2cccc([N+](=O)[O-])c12 (protonated)
CC[NH+](CC)CCNc1c2ccccc2[n+](C)c2cccc([N+](=O)[O-])c12 (3D coordinates assigned)
CC[NH+](CC)CCNc1c2ccccc2[n+](C)c2cccc([N+](=O)[O-])c12 (optimized conformer: 97.61220585250982 kcal/mol)

>  <smiles>  (30) 
CCN(CC)CCNc1c2ccccc2[n+](C)c2cccc([N+](=O)[O-])c12

>  <score_type>  (30) 
oracle

>  <origin>  (30) 
adg

>  <m_score__min__energy>  (30) 
-4.2599999999999998

>  <m_primary>  (30) 
energy

$$$$
